#------------------------------------------------------------------------------
#$Date: 2017-06-04 13:03:27 +0300 (Sun, 04 Jun 2017) $
#$Revision: 197241 $
#$URL: file:///home/coder/svn-repositories/cod/cif/4/12/60/4126093.cif $
#------------------------------------------------------------------------------
#
# This file is available in the Crystallography Open Database (COD),
# http://www.crystallography.net/
#
# All data on this site have been placed in the public domain by the
# contributors.
#
data_4126093
loop_
_publ_author_name
'Marshall, Ross J.'
'Kalinovskyy, Yaroslav'
'Griffin, Sarah L.'
'Wilson, Claire'
'Blight, Barry A.'
'Forgan, Ross S.'
_publ_section_title
;
 Functional Versatility of a Series of Zr Metal-Organic Frameworks Probed
 by Solid-State Photoluminescence Spectroscopy.
;
_journal_issue                   17
_journal_name_full               'Journal of the American Chemical Society'
_journal_page_first              6253
_journal_page_last               6260
_journal_paper_doi               10.1021/jacs.7b02184
_journal_volume                  139
_journal_year                    2017
_chemical_formula_moiety         'C24 H12 F2 O4, 2(C3 H7 N O)'
_chemical_formula_sum            'C30 H26 F2 N2 O6'
_chemical_formula_weight         548.53
_space_group_crystal_system      triclinic
_space_group_IT_number           2
_space_group_name_Hall           '-P 1'
_space_group_name_H-M_alt        'P -1'
_symmetry_space_group_name_Hall  '-P 1'
_symmetry_space_group_name_H-M   'P -1'
_atom_sites_solution_hydrogens   geom
_atom_sites_solution_primary     iterative
_audit_creation_date             2016-06-25
_audit_creation_method
;
Olex2 1.2
(compiled 2016.02.19 svn.r3266 for OlexSys, GUI svn.r5155)
;
_cell_angle_alpha                74.409(3)
_cell_angle_beta                 74.790(3)
_cell_angle_gamma                75.265(3)
_cell_formula_units_Z            2
_cell_length_a                   9.5707(3)
_cell_length_b                   11.0072(4)
_cell_length_c                   13.7230(5)
_cell_measurement_reflns_used    10976
_cell_measurement_temperature    100(2)
_cell_measurement_theta_max      27.5370
_cell_measurement_theta_min      2.2930
_cell_volume                     1317.16(8)
_computing_cell_refinement       'CrysAlisPro 1.171.38.41 (Rigaku OD, 2015)'
_computing_data_collection       'CrysAlisPro 1.171.38.41 (Rigaku OD, 2015)'
_computing_data_reduction        'CrysAlisPro 1.171.38.41 (Rigaku OD, 2015)'
_computing_molecular_graphics    'Olex2 (Dolomanov et al., 2009)'
_computing_publication_material  'Olex2 (Dolomanov et al., 2009)'
_computing_structure_refinement  'ShelXL (Sheldrick, 2015)'
_computing_structure_solution
;
Superflip (Palatinus & Chapuis, 2007;Palatinus & van der Lee, 2008;
Palatinus et al., 2012)
;
_diffrn_ambient_temperature      100(2)
_diffrn_detector                 'CCD plate'
_diffrn_detector_area_resol_mean 28.5714
_diffrn_detector_type            'Rigaku HG Saturn724+ (2x2 bin mode)'
_diffrn_measured_fraction_theta_full 0.999
_diffrn_measured_fraction_theta_max 0.995
_diffrn_measurement_details
;
List of Runs (angles in degrees, time in seconds):

  # Type    Start    End  Width  t~exp~   \w     \q     \k     \f   Frames
--------------------------------------------------------------------------
  1  \w    -95.00  24.00   1.00   10.00    --   -5.00 -72.00 -30.00  119
  2  \w    -29.00  85.00   1.00   10.00    --   -5.00  54.00  60.00  114
  3  \w    -60.00  12.00   1.00   10.00    --   -5.00 -54.00 120.00   72
  4  \w    -95.00  24.00   1.00   10.00    --   -5.00 -72.00   0.00  119
;
_diffrn_measurement_device       'four-circle \k diffractometer'
_diffrn_measurement_device_type  'Rigaku AFC12 (Right)'
_diffrn_measurement_method       'profile data from \w-scans'
_diffrn_measurement_specimen_support 'MiTeGen MicroMesh'
_diffrn_orient_matrix_type
'CrysAlisPro convention (1999,Acta A55,543-557)'
_diffrn_orient_matrix_UB_11      -0.0385291000
_diffrn_orient_matrix_UB_12      -0.0143634000
_diffrn_orient_matrix_UB_13      -0.0318326000
_diffrn_orient_matrix_UB_21      -0.0022869000
_diffrn_orient_matrix_UB_22      -0.0615756000
_diffrn_orient_matrix_UB_23      0.0331118000
_diffrn_orient_matrix_UB_31      -0.0681833000
_diffrn_orient_matrix_UB_32      0.0256932000
_diffrn_orient_matrix_UB_33      0.0300067000
_diffrn_radiation_collimation    'Confocal mirrors, VHF Varimax '
_diffrn_radiation_monochromator  graphite
_diffrn_radiation_probe          x-ray
_diffrn_radiation_type           MoK\a
_diffrn_radiation_wavelength     0.71075
_diffrn_reflns_av_R_equivalents  0.0405
_diffrn_reflns_av_unetI/netI     0.0372
_diffrn_reflns_Laue_measured_fraction_full 0.999
_diffrn_reflns_Laue_measured_fraction_max 0.995
_diffrn_reflns_limit_h_max       12
_diffrn_reflns_limit_h_min       -12
_diffrn_reflns_limit_k_max       13
_diffrn_reflns_limit_k_min       -14
_diffrn_reflns_limit_l_max       17
_diffrn_reflns_limit_l_min       -17
_diffrn_reflns_number            22023
_diffrn_reflns_point_group_measured_fraction_full 0.999
_diffrn_reflns_point_group_measured_fraction_max 0.995
_diffrn_reflns_theta_full        26.000
_diffrn_reflns_theta_max         27.556
_diffrn_reflns_theta_min         2.250
_diffrn_source                   'Rotating Anode'
_diffrn_source_current           55.0
_diffrn_source_power             2.475
_diffrn_source_type              'Enhance (Mo) X-ray Source'
_diffrn_source_voltage           45.0
_diffrn_standards_number         0
_exptl_absorpt_coefficient_mu    0.106
_exptl_absorpt_correction_T_max  1.00000
_exptl_absorpt_correction_T_min  0.90726
_exptl_absorpt_correction_type   multi-scan
_exptl_absorpt_process_details
;
CrysAlisPro 1.171.38.41 (Rigaku Oxford Diffraction, 2015)
Empirical absorption correction using spherical harmonics,
 implemented in SCALE3 ABSPACK scaling algorithm.
;
_exptl_crystal_colour            Colourless
_exptl_crystal_density_diffrn    1.383
_exptl_crystal_description       Plate
_exptl_crystal_F_000             572
_exptl_crystal_size_max          0.07
_exptl_crystal_size_mid          0.06
_exptl_crystal_size_min          0.02
_refine_diff_density_max         0.794
_refine_diff_density_min         -0.205
_refine_diff_density_rms         0.052
_refine_ls_extinction_method     none
_refine_ls_goodness_of_fit_ref   1.018
_refine_ls_hydrogen_treatment    constr
_refine_ls_matrix_type           full
_refine_ls_number_parameters     367
_refine_ls_number_reflns         6070
_refine_ls_number_restraints     0
_refine_ls_restrained_S_all      1.018
_refine_ls_R_factor_all          0.0750
_refine_ls_R_factor_gt           0.0484
_refine_ls_shift/su_max          0.000
_refine_ls_shift/su_mean         0.000
_refine_ls_structure_factor_coef Fsqd
_refine_ls_weighting_details
'w=1/[\s^2^(Fo^2^)+(0.0620P)^2^+0.3950P] where P=(Fo^2^+2Fc^2^)/3'
_refine_ls_weighting_scheme      calc
_refine_ls_wR_factor_gt          0.1137
_refine_ls_wR_factor_ref         0.1258
_reflns_Friedel_coverage         0.000
_reflns_number_gt                4437
_reflns_number_total             6070
_reflns_threshold_expression     'I > 2\s(I)'
_cod_data_source_file            ja7b02184_si_004.cif
_cod_data_source_block           L4-H2
_cod_original_cell_volume        1317.16(9)
_cod_database_code               4126093
_chemical_oxdiff_formula         'Hf4O6(OH)4(C24H10 O4F2)(C3H7NO)2'
_shelx_space_group_comment
;
The symmetry employed for this shelxl refinement is uniquely defined
by the following loop, which should always be used as a source of
symmetry information in preference to the above space-group names.
They are only intended as comments.
;
_reflns_odcompleteness_completeness 99.54
_reflns_odcompleteness_iscentric 1
_reflns_odcompleteness_theta     27.50
_olex2_refinement_description
;
1. Fixed Uiso
 At 1.2 times of:
  All C(H) groups
 At 1.5 times of:
  All C(H,H,H) groups, All O(H) groups
2.a Aromatic/amide H refined with riding coordinates:
 C4(H4), C20(H20), C14(H14), C6(H6), C23(H23), C7(H7), C19(H19), C22(H22),
 C27(H27), C3(H3A), C11(H11), C30(H30)
2.b Idealised Me refined as rotating group:
 C29(H29A,H29B,H29C), C25(H25A,H25B,H25C), C28(H28A,H28B,H28C), C26(H26A,H26B,
 H26C)
2.c Idealised tetrahedral OH refined as rotating group:
 O1(H1), O3(H3)
;
_shelx_res_file
;
    2016ncs0120.res created by SHELXL-2014/7

TITL 2016ncs0120_a.res in P-1
REM Old TITL 2016ncs0120 in P-1 #2
REM SHELXT solution in P-1
REM R1 0.130, Rweak 0.005, Alpha 0.041, Orientation as input
REM Formula found by SHELXT: C28 N4 O6 F2
CELL 0.71073 9.5707 11.0072 13.723 74.409 74.79 75.265
ZERR 2 0.0003 0.0004 0.0005 0.003 0.003 0.003
LATT 1
SFAC C H F N O
UNIT 60 52 4 4 12

L.S. 20
PLAN  20
BOND $H
LIST 6
MORE -1
CONF
fmap 2
acta 52
REM <olex2.extras>
REM <HklSrc "%.\\2016ncs0120.hkl">
REM </olex2.extras>

WGHT    0.062000    0.395000
FVAR       0.33661
F2    3    0.580883    0.240701    0.092039    11.00000    0.02866    0.02996 =
         0.02279   -0.01195   -0.00949   -0.00169
F1    3    0.457068    0.488228    0.405371    11.00000    0.03144    0.02892 =
         0.02458   -0.01276   -0.01161    0.00090
O2    5   -0.059274    0.577085   -0.342564    11.00000    0.02592    0.01874 =
         0.02127   -0.00443   -0.01145   -0.00346
O1    5   -0.137455    0.768173   -0.297909    11.00000    0.02635    0.01748 =
         0.02505   -0.00326   -0.01711    0.00073
AFIX 147
H1    2   -0.181434    0.784515   -0.345182    11.00000   -1.50000
AFIX   0
O4    5    1.111357   -0.019020    0.838759    11.00000    0.03950    0.01613 =
         0.02779   -0.00346   -0.02008    0.00102

O6    5    1.227658    0.112864    0.983182    11.00000    0.03158    0.02267 =
         0.02282   -0.00378   -0.01388   -0.00112
O3    5    1.082411    0.188779    0.837823    11.00000    0.04386    0.01786 =
         0.02571   -0.00363   -0.02376   -0.00277
AFIX 147
H3    2    1.126437    0.159603    0.885541    11.00000   -1.50000
AFIX   0

O5    5   -0.268004    0.849862   -0.452890    11.00000    0.03002    0.02514 =
         0.03071   -0.00348   -0.01640   -0.00239
N1    4   -0.350506    0.807103   -0.578505    11.00000    0.01932    0.02423 =
         0.02080   -0.00572   -0.00581   -0.00395
N2    4    1.329866   -0.053015    1.098438    11.00000    0.02103    0.02683 =
         0.01646   -0.00126   -0.00441   -0.00178
C13   1    0.606019    0.321305    0.324575    11.00000    0.01511    0.01613 =
         0.01547    0.00156   -0.00476   -0.00601
C2    1    0.024540    0.609896   -0.204010    11.00000    0.01449    0.01694 =
         0.01520    0.00005   -0.00385   -0.00622
C1    1   -0.060995    0.648968   -0.288164    11.00000    0.01599    0.01748 =
         0.01565    0.00008   -0.00452   -0.00514
C5    1    0.187890    0.528563   -0.049144    11.00000    0.01429    0.02168 =
         0.01566    0.00247   -0.00588   -0.00796
C21   1    0.993451    0.137524    0.712314    11.00000    0.01318    0.01696 =
         0.01465   -0.00272   -0.00345   -0.00147
C9    1    0.345979    0.449428    0.094519    11.00000    0.01787    0.02171 =
         0.01853   -0.00086   -0.00474   -0.00658
C24   1    1.068409    0.093492    0.802241    11.00000    0.01547    0.01686 =
         0.01618   -0.00462   -0.00434   -0.00149
C4    1    0.091204    0.648475   -0.059307    11.00000    0.01917    0.02063 =
         0.01534   -0.00358   -0.00429   -0.00645
AFIX  43
H4    2    0.081356    0.701211   -0.014142    11.00000   -1.20000
AFIX   0
C15   1    0.548654    0.301440    0.171029    11.00000    0.01914    0.01938 =
         0.01553   -0.00449   -0.00354   -0.00688
C20   1    0.954980    0.267723    0.667214    11.00000    0.01796    0.01570 =
         0.01957   -0.00404   -0.00670   -0.00275
AFIX  43
H20   2    0.977763    0.329454    0.692090    11.00000   -1.20000
AFIX   0
C14   1    0.635083    0.257881    0.243946    11.00000    0.01732    0.01535 =
         0.01861   -0.00044   -0.00458   -0.00318
AFIX  43
H14   2    0.712018    0.186955    0.239543    11.00000   -1.20000
AFIX   0
C6    1    0.200619    0.449466   -0.116966    11.00000    0.01660    0.01763 =
         0.02200   -0.00079   -0.00689   -0.00121
AFIX  43
H6    2    0.263955    0.369499   -0.110530    11.00000   -1.20000
AFIX   0
C23   1    0.886256    0.081689    0.593841    11.00000    0.01956    0.01940 =
         0.01807   -0.00450   -0.00554   -0.00493
AFIX  43
H23   2    0.863064    0.019673    0.569529    11.00000   -1.20000
AFIX   0
C7    1    0.119278    0.490091   -0.193304    11.00000    0.01780    0.01760 =
         0.01742   -0.00426   -0.00451   -0.00363
AFIX  43
H7    2    0.127752    0.437082   -0.237973    11.00000   -1.20000
AFIX   0
C19   1    0.882936    0.305100    0.585483    11.00000    0.01819    0.01596 =
         0.01910    0.00005   -0.00622   -0.00143
AFIX  43
H19   2    0.859214    0.391781    0.554524    11.00000   -1.20000
AFIX   0
C22   1    0.960945    0.045025    0.674092    11.00000    0.01846    0.01497 =
         0.01845   -0.00228   -0.00646   -0.00212
AFIX  43
H22   2    0.989623   -0.041840    0.702696    11.00000   -1.20000
AFIX   0
C12   1    0.487785    0.426193    0.327052    11.00000    0.02109    0.01905 =
         0.01638   -0.00387   -0.00419   -0.00638
C18   1    0.845687    0.212210    0.549333    11.00000    0.01358    0.02240 =
         0.01384   -0.00376   -0.00308   -0.00230
C16   1    0.692874    0.281520    0.402362    11.00000    0.01865    0.01940 =
         0.01833   -0.00263   -0.00474   -0.00435
C17   1    0.764437    0.250380    0.467882    11.00000    0.01773    0.02076 =
         0.01906   -0.00301   -0.00441   -0.00301

C27   1   -0.280764    0.773282   -0.500623    11.00000    0.01888    0.02014 =
         0.02322   -0.00213   -0.00557   -0.00366
AFIX  43
H27   2   -0.238796    0.686878   -0.480477    11.00000   -1.20000
AFIX   0

C3    1    0.010311    0.688654   -0.136382    11.00000    0.01483    0.01704 =
         0.01822   -0.00236   -0.00408   -0.00334
AFIX  43
H3A   2   -0.053583    0.768335   -0.142965    11.00000   -1.20000
AFIX   0
C11   1    0.401565    0.469481    0.254493    11.00000    0.01711    0.01739 =
         0.01948   -0.00177   -0.00620   -0.00177
AFIX  43
H11   2    0.323878    0.539761    0.259385    11.00000   -1.20000
AFIX   0
C10   1    0.431684    0.406783    0.172946    11.00000    0.01629    0.01961 =
         0.01774    0.00050   -0.00591   -0.00784

C30   1    1.254439   -0.003719    1.023995    11.00000    0.02109    0.02374 =
         0.01597   -0.00493   -0.00391   -0.00168
AFIX  43
H30   2    1.219191   -0.059739    1.000680    11.00000   -1.20000
AFIX   0

C8    1    0.273107    0.486311    0.029557    11.00000    0.01695    0.02138 =
         0.01940   -0.00091   -0.00499   -0.00527
C29   1    1.385182    0.028764    1.140966    11.00000    0.02531    0.04281 =
         0.02227   -0.00335   -0.00971   -0.00925
AFIX 137
H29A  2    1.363737    0.116244    1.103591    11.00000   -1.50000
H29B  2    1.490056    0.000772    1.134772    11.00000   -1.50000
H29C  2    1.338241    0.023221    1.212588    11.00000   -1.50000
AFIX   0

C25   1   -0.414481    0.940925   -0.617084    11.00000    0.03413    0.03182 =
         0.02590   -0.00529   -0.01598    0.00517
AFIX 137
H25A  2   -0.520191    0.953792   -0.596833    11.00000   -1.50000
H25B  2   -0.385961    0.961748   -0.691169    11.00000   -1.50000
H25C  2   -0.379501    0.995530   -0.588705    11.00000   -1.50000
AFIX   0

C28   1    1.365484   -0.190907    1.138635    11.00000    0.03294    0.02807 =
         0.02301    0.00182   -0.00564    0.00530
AFIX 137
H28A  2    1.315607   -0.233735    1.109741    11.00000   -1.50000
H28B  2    1.334162   -0.209181    1.212590    11.00000   -1.50000
H28C  2    1.470223   -0.220944    1.120144    11.00000   -1.50000
AFIX   0

C26   1   -0.371656    0.712836   -0.627353    11.00000    0.03774    0.03657 =
         0.02774   -0.01286   -0.00512   -0.01208
AFIX 137
H26A  2   -0.323706    0.628506   -0.596988    11.00000   -1.50000
H26B  2   -0.329860    0.732709   -0.700079    11.00000   -1.50000
H26C  2   -0.475351    0.715124   -0.617206    11.00000   -1.50000
AFIX   0
HKLF 4

REM  2016ncs0120_a.res in P-1
REM R1 =  0.0484 for    4437 Fo > 4sig(Fo)  and  0.0750 for all    6070 data
REM    367 parameters refined using      0 restraints

END

WGHT      0.0621      0.3946

REM Highest difference peak  0.794,  deepest hole -0.205,  1-sigma level  0.052
Q1    1  -0.2218  0.6419 -0.4753  11.00000  0.05    0.79
Q2    1   0.4779  0.3536  0.1746  11.00000  0.05    0.31
Q3    1   1.0198  0.1158  0.7569  11.00000  0.05    0.30
Q4    1   1.2135 -0.0861  1.0033  11.00000  0.05    0.28
Q5    1   0.8613  0.2575  0.5697  11.00000  0.05    0.27
Q6    1  -0.0193  0.6242 -0.2358  11.00000  0.05    0.27
Q7    1   1.0069  0.0926  0.6841  11.00000  0.05    0.27
Q8    1   0.1746  0.4813 -0.0674  11.00000  0.05    0.26
Q9    1   0.5601  0.3741  0.3201  11.00000  0.05    0.26
Q10   1   0.1715  0.5816 -0.0675  11.00000  0.05    0.26
Q11   1   0.4386  0.4580  0.1985  11.00000  0.05    0.26
Q12   1   0.1431  0.5807 -0.0481  11.00000  0.05    0.25
Q13   1   0.9454  0.0644  0.6258  11.00000  0.05    0.25
Q14   1   0.0808  0.5644 -0.2093  11.00000  0.05    0.25
Q15   1   0.1180  0.5626 -0.0352  11.00000  0.05    0.24
Q16   1   0.8826  0.1444  0.5659  11.00000  0.05    0.24
Q17   1  -0.2939  0.7951 -0.5610  11.00000  0.05    0.24
Q18   1   0.0010  0.6370 -0.1619  11.00000  0.05    0.23
Q19   1   0.0451  0.5582 -0.1916  11.00000  0.05    0.23
Q20   1   1.3585 -0.0149  1.1115  11.00000  0.05    0.23
;
_shelx_res_checksum              32499
_shelx_hkl_file
;
   0   0   2    4.63    0.58
   0   0  -2    4.55    0.46
   0   0   2    4.36    0.47
   0   0  -2    5.49    0.59
   0   0  -3    4.06    0.59
   0   0  -3    4.81    0.75
   0   0   3    2.48    0.55
   0   0   3    3.02    0.72
   0   0   3    3.25    0.36
   0   0  -4  402.21    3.86
   0   0   4  404.12    2.89
   0   0   4  392.52    4.65
   0   0  -4  387.35    4.50
   0   0   5    2.53    0.43
   0   0   5    2.42    0.80
   0   0  -5    3.08    0.64
   0   0  -5    2.60    0.81
   0   0  -6   27.45    1.41
   0   0   6   29.47    1.87
   0   0   6   27.25    1.03
   0   0  -6   25.73    1.71
   0   0  -6   28.83    1.59
   0   0   7  137.98    3.79
   0   0  -7  127.97    2.98
   0   0   7  132.47    2.24
   0   0  -7  129.81    3.28
   0   0  -7  133.26    3.58
   0   0  -8   35.29    2.15
   0   0  -8   35.07    1.92
   0   0   8   35.80    2.30
   0   0  -8   37.17    1.78
   0   0   8   38.47    1.33
   0   0  -9    0.28    0.69
   0   0   9   -1.66    1.29
   0   0  -9   -0.36    0.88
   0   0   9   -0.41    0.52
   0   0  -9   -0.43    1.10
   0   0 -10   18.03    1.69
   0   0  10   18.36    1.14
   0   0 -10   23.72    2.12
   0   0  10   19.04    2.03
   0   0 -10   23.39    1.63
   0   0 -11    9.11    1.33
   0   0  11    6.32    1.71
   0   0  11    7.24    0.83
   0   0 -11    5.49    1.48
   0   0 -11    6.90    1.44
   0   0  12   15.69    1.13
   0   0 -12   14.86    1.85
   0   0 -12   18.22    2.20
   0   0  12   19.08    2.41
   0   0 -12   17.50    1.66
   0   0 -13   -0.07    1.42
   0   0 -13   -0.60    1.33
   0   0  13    0.52    0.65
   0   0 -13    1.88    1.05
   0   0  13   -1.39    1.70
   0   0 -14   20.10    2.39
   0   0 -14   21.60    2.00
   0   0  14   22.52    1.34
   0   0 -15    4.96    1.95
   0   0  15    3.26    0.73
   0   0 -16   10.99    2.38
   0   1 -16    0.44    1.84
   0  -1  15   12.20    1.32
   0   1 -15   10.35    2.25
   0  -1  14    7.72    1.08
   0   1 -14   10.20    2.02
   0   1 -13   39.11    2.79
   0  -1  13   49.05    2.18
   0   1 -13   47.02    3.32
   0   1 -13   46.72    2.74
   0  -1  13   46.19    3.59
   0   1 -12   13.96    1.58
   0   1 -12   12.47    1.88
   0   1 -12   16.19    2.21
   0  -1  12   14.02    1.29
   0  -1  12    8.74    1.88
   0   1 -11    4.74    1.14
   0   1 -11    2.82    1.26
   0   1 -11    2.75    1.47
   0  -1  11    1.59    0.72
   0  -1  11    2.81    1.34
   0  -1  10   11.48    1.58
   0  -1  10   11.66    1.07
   0   1 -10   12.46    1.64
   0   1 -10    8.55    1.37
   0   1 -10   10.76    1.69
   0  -1   9   -0.03    1.15
   0   1  -9    1.23    0.81
   0   1  -9    0.69    0.89
   0  -1   9    1.02    0.64
   0   1  -9    0.65    1.10
   0  -1   8    8.08    1.32
   0   1  -8    6.97    0.98
   0  -1   8    9.29    0.95
   0   1  -8    8.62    1.28
   0   1  -8    7.68    1.14
   0   1  -7  177.96    4.17
   0  -1   7  176.19    4.27
   0  -1   7  183.10    3.07
   0   1  -7  182.59    4.00
   0   1  -7  184.29    3.73
   0   1  -6    0.16    0.69
   0  -1   6   -0.73    0.98
   0   1  -6    1.34    0.87
   0  -1   6    0.04    0.62
   0   1  -6    0.56    1.03
   0   1  -5   44.39    1.65
   0  -1   5   46.91    1.42
   0  -1   5   41.73    1.93
   0   1  -5   46.92    1.99
   0  -1   4   91.85    1.79
   0   1  -4   88.10    2.28
   0   1  -4   86.64    2.03
   0  -1   4   90.31    2.18
   0  -1   4   85.80    2.26
   0  -1   3  227.18    2.53
   0   1  -3  225.86    2.85
   0   1  -3  224.95    3.14
   0  -1   2  318.76    2.68
   0   1  -2  312.26    2.85
   0  -1   2  316.30    3.03
   0  -1   2  322.04    3.20
   0  -1   1   16.96    0.59
   0   1  -1   82.52    1.19
   0   1   2    0.95    0.61
   0  -1  -2    0.68    0.24
   0  -1  -2    1.23    0.53
   0   1   3   -0.09    0.68
   0  -1  -3    0.56    0.38
   0  -1  -3    1.41    0.80
   0  -1  -4  123.39    1.98
   0  -1  -4  121.29    2.68
   0   1   4  123.51    2.87
   0  -1  -5   22.04    1.01
   0   1   5   19.55    0.55
   0   1   5   20.19    1.48
   0  -1  -5   18.77    1.18
   0  -1  -5   22.01    1.43
   0   1   6  112.35    3.33
   0  -1  -6  115.44    3.12
   0  -1  -6  112.26    2.35
   0  -1  -6  115.99    2.78
   0   1   6  109.33    1.40
   0  -1  -7   39.60    1.60
   0   1   7   39.64    0.98
   0  -1  -7   40.07    1.88
   0  -1  -7   40.40    2.18
   0   1   7   41.21    2.34
   0   1   8  102.26    3.71
   0  -1  -8  104.52    3.11
   0  -1  -8  108.07    3.54
   0   1   8  103.30    1.69
   0  -1  -8  103.74    2.69
   0  -1  -9    3.79    1.09
   0  -1  -9    4.38    0.81
   0   1   9    4.05    0.50
   0   1   9    6.10    1.42
   0  -1  -9    4.88    1.00
   0  -1 -10   26.13    2.14
   0  -1 -10   28.29    1.99
   0  -1 -10   28.63    1.71
   0   1  10   27.47    1.05
   0   1  10   28.48    2.37
   0  -1 -11    6.03    1.12
   0  -1 -11    9.11    1.63
   0   1  11    7.11    0.67
   0   1  11    8.79    1.82
   0  -1 -11    7.17    1.40
   0   1  12    5.18    1.71
   0   1  12    2.70    0.51
   0  -1 -12    3.33    1.22
   0  -1 -12    3.43    1.05
   0  -1 -12    4.64    1.64
   0   1  13   16.29    2.58
   0  -1 -13   13.25    1.84
   0  -1 -13   16.33    1.65
   0   1  13   13.60    0.84
   0   1  14    3.67    0.47
   0  -1 -14    5.88    1.55
   0   1  14    4.18    0.55
   0  -1 -14    3.56    1.75
   0  -1 -14    4.01    1.22
   0   1  14    6.13    2.33
   0  -1 -15    0.84    1.72
   0  -1 -15    0.14    1.01
   0   1  15    0.08    0.25
   0  -1 -16    2.61    1.83
   0  -2  15    1.42    1.00
   0  -2  14    4.35    1.11
   0   2 -13   47.81    2.91
   0  -2  13   49.26    3.66
   0   2 -13   50.13    3.22
   0  -2  13   52.27    2.48
   0   2 -12    1.54    1.20
   0  -2  12   -1.60    1.60
   0  -2  12    1.05    0.97
   0   2 -12    1.28    1.09
   0   2 -12    2.01    1.51
   0   2 -11    2.01    1.16
   0   2 -11    0.85    1.34
   0  -2  11   -0.22    1.51
   0   2 -11    0.05    0.98
   0  -2  11    1.39    0.91
   0  -2  10   -0.38    0.76
   0  -2  10   -0.96    1.32
   0   2 -10    0.14    0.94
   0   2 -10    1.43    1.25
   0   2 -10    0.20    1.37
   0  -2   9   14.06    1.25
   0   2  -9   12.22    1.45
   0   2  -9   13.04    1.73
   0   2  -9   13.53    1.39
   0  -2   9   12.41    1.80
   0  -2   8    9.91    1.06
   0   2  -8    9.44    1.46
   0   2  -8   10.57    1.35
   0   2  -8   12.57    1.31
   0  -2   8   12.93    1.59
   0  -2   7   80.94    2.39
   0   2  -7   77.70    3.02
   0   2  -7   87.41    2.74
   0  -2   7   84.00    3.13
   0   2  -7   80.66    2.76
   0   2  -6   13.69    1.46
   0   2  -6   15.02    1.32
   0   2  -6   14.82    1.21
   0  -2   6   15.86    1.48
   0  -2   6   17.63    1.16
   0   2  -5  243.26    3.92
   0  -2   5  257.96    3.73
   0  -2   5  253.21    4.50
   0  -2   4   60.19    2.09
   0  -2   4   54.48    1.70
   0  -2   4   55.78    1.93
   0   2  -4   55.56    1.78
   0  -2   3   23.31    1.08
   0   2  -3   23.87    1.12
   0  -2   3   22.96    1.18
   0  -2   2   22.79    1.02
   0   2  -2   21.57    0.95
   0  -2   2   23.01    1.05
   0   2  -1   98.40    1.59
   0  -2   1   96.95    1.74
   0   2   0    2.78    0.37
   0  -2   0    2.43    0.49
   0  -2   0    2.73    0.33
   0  -2  -1 3527.11    8.19
   0  -2  -2    5.43    0.39
   0  -2  -2    5.73    0.41
   0  -2  -3  157.86    1.44
   0  -2  -3  158.64    2.02
   0  -2  -4    7.56    1.16
   0  -2  -4    6.29    0.47
   0  -2  -4    6.97    0.71
   0  -2  -5   81.99    2.05
   0  -2  -5   80.73    1.64
   0  -2  -5   84.50    2.72
   0   2   5   80.92    2.79
   0  -2  -6   55.83    1.91
   0  -2  -6   59.07    1.57
   0   2   6   57.17    2.58
   0  -2  -6   57.32    2.48
   0  -2  -7   28.58    1.89
   0  -2  -7   32.48    1.35
   0  -2  -7   33.03    1.66
   0   2   7   29.70    2.12
   0   2   8   45.67    2.68
   0  -2  -8   44.06    2.42
   0  -2  -8   44.58    2.03
   0  -2  -8   49.53    1.79
   0  -2  -9   16.04    1.18
   0  -2  -9   11.05    1.47
   0   2   9   14.06    1.89
   0  -2  -9   13.57    1.38
   0   2  10    3.63    1.39
   0  -2 -10    2.85    0.73
   0  -2 -10    6.72    1.52
   0  -2 -10    4.65    1.05
   0   2  11    4.55    1.70
   0  -2 -11    2.44    1.42
   0  -2 -11    2.01    0.93
   0  -2 -11    2.43    1.07
   0   2  12    3.32    1.76
   0  -2 -12    1.06    1.31
   0  -2 -12    0.30    1.12
   0  -2 -12   -0.62    0.80
   0  -2 -13    2.78    1.29
   0  -2 -13    3.02    1.53
   0  -2 -13    3.87    1.04
   0   2  14   30.81    3.41
   0  -2 -14   37.89    2.32
   0  -2 -14   30.30    2.82
   0  -2 -14   32.13    2.58
   0  -2 -15   12.57    1.60
   0  -2 -15    7.77    2.06
   0  -2 -16    2.47    1.28
   0  -2 -16   -0.43    1.78
   0  -2 -17   11.60    2.29
   0  -3  15   -0.07    1.10
   0  -3  14    2.09    1.05
   0  -3  13    0.27    0.98
   0   3 -12    6.05    1.48
   0  -3  12    2.60    1.67
   0  -3  12    4.12    1.12
   0   3 -11  108.01    4.19
   0  -3  11   99.26    3.37
   0   3 -11   97.71    3.81
   0  -3  11  105.64    4.60
   0  -3  10    1.20    1.32
   0   3 -10    0.07    1.11
   0  -3  10    0.88    0.93
   0   3 -10    3.21    1.05
   0   3  -9    1.27    1.05
   0  -3   9    1.71    0.85
   0   3  -9    2.73    0.97
   0  -3   9    1.68    1.33
   0  -3   8    0.04    0.78
   0  -3   8    0.10    1.08
   0   3  -8   -0.09    0.94
   0   3  -8    0.48    0.90
   0   3  -7   30.75    1.84
   0  -3   7   31.89    2.09
   0  -3   7   28.71    1.68
   0   3  -7   30.97    1.86
   0  -3   6   80.02    2.53
   0   3  -6   85.02    2.75
   0  -3   6   83.68    3.02
   0   3  -5   69.94    2.32
   0  -3   5   71.78    2.62
   0  -3   5   67.11    2.21
   0   3  -5   66.68    2.26
   0  -3   4  143.76    3.03
   0  -3   4  143.41    3.41
   0   3  -4  143.08    2.98
   0  -3   4  147.31    3.27
   0  -3   3   17.26    1.21
   0   3  -3   16.67    1.08
   0  -3   3   15.68    1.19
   0   3  -2  125.62    2.29
   0  -3   2  121.90    2.43
   0  -3   2  123.52    2.50
   0   3  -1    2.42    0.52
   0  -3   1    2.71    0.58
   0  -3   1    2.56    0.64
   0   3   0   17.48    0.70
   0  -3   0   16.76    0.93
   0  -3   0   16.01    0.71
   0  -3  -1    5.73    0.65
   0   3   1    5.74    0.38
   0  -3  -1    5.24    0.39
   0  -3  -2   21.19    0.87
   0  -3  -3   41.12    1.01
   0  -3  -3   43.32    0.96
   0  -3  -4   40.56    1.17
   0  -3  -4   38.48    0.76
   0  -3  -5   41.73    1.44
   0  -3  -5   38.64    0.98
   0  -3  -5   40.82    2.30
   0  -3  -6   23.52    1.89
   0  -3  -6   21.23    1.26
   0  -3  -6   21.89    0.89
   0  -3  -7  163.75    2.64
   0  -3  -7  163.30    3.34
   0  -3  -7  169.88    4.42
   0  -3  -8    1.23    1.09
   0  -3  -8    2.29    0.83
   0  -3  -8    0.82    0.49
   0   3   9   36.22    2.70
   0  -3  -9   35.05    2.36
   0  -3  -9   35.46    1.51
   0  -3  -9   36.58    1.96
   0   3  10    3.75    1.43
   0  -3 -10    1.95    1.17
   0  -3 -10    1.51    0.67
   0  -3 -10    2.31    0.89
   0   3  11   49.08    3.46
   0  -3 -11   46.14    2.93
   0  -3 -11   51.55    2.62
   0  -3 -11   48.80    2.05
   0  -3 -12    0.45    1.37
   0  -3 -12    1.18    0.75
   0  -3 -12    0.94    0.95
   0   3  13   36.11    3.45
   0  -3 -13   36.94    2.90
   0  -3 -13   35.17    2.51
   0  -3 -13   40.67    2.15
   0   3  14   11.67    2.42
   0  -3 -14    8.95    1.28
   0  -3 -14    7.37    1.81
   0  -3 -14    7.41    1.48
   0  -3 -15    1.11    0.92
   0  -3 -15    6.17    2.08
   0  -3 -16    2.02    1.04
   0  -3 -16   -3.60    1.82
   0  -3 -17    3.87    2.18
   0  -4  15    0.57    1.15
   0  -4  14   14.74    1.81
   0  -4  13   17.60    1.94
   0   4 -12   -0.27    1.29
   0  -4  12    0.38    1.05
   0   4 -11   31.23    2.39
   0  -4  11   27.01    2.07
   0  -4  11   29.99    2.86
   0   4 -11   28.77    2.44
   0  -4  10    0.46    0.94
   0   4 -10    1.07    1.05
   0  -4  10    3.81    1.64
   0   4 -10    2.27    1.10
   0  -4   9    8.11    1.72
   0   4  -9    6.43    1.42
   0  -4   9    8.26    1.31
   0   4  -9    7.66    1.32
   0  -4   8  118.82    3.60
   0  -4   8  122.33    4.29
   0   4  -8  121.86    3.70
   0   4  -8  118.36    3.75
   0   4  -7    4.41    0.93
   0  -4   7    3.91    0.96
   0   4  -7    4.16    0.98
   0  -4   7    4.97    1.28
   0   4  -6  145.50    3.61
   0  -4   6  141.71    4.07
   0  -4   6  144.52    3.63
   0   4  -6  138.88    3.54
   0   4  -5   35.17    1.79
   0  -4   5   35.11    1.85
   0  -4   5   35.72    2.11
   0   4  -5   36.39    1.77
   0  -4   4  283.53    4.75
   0   4  -4  288.38    4.42
   0   4  -4  291.93    4.27
   0  -4   4  288.08    4.66
   0   4  -3   50.37    1.82
   0  -4   3   49.00    1.97
   0  -4   3   47.47    1.91
   0   4  -3   47.02    1.68
   0   4  -2  380.49    4.30
   0  -4   2  383.30    4.62
   0   4  -2  372.88    3.85
   0  -4   1   20.06    1.12
   0   4  -1   19.54    0.99
   0  -4   1   18.66    1.24
   0   4  -1   17.61    0.82
   0   4   0  642.89    4.35
   0  -4   0  644.90    4.69
   0   4   0  643.43    3.12
   0  -4   0  635.35    5.71
   0  -4  -1   13.63    0.67
   0  -4  -1   13.07    0.93
   0   4   1   13.51    0.61
   0  -4  -2  263.97    1.95
   0   4   2  259.56    1.74
   0  -4  -3    0.82    0.26
   0  -4  -3    0.09    0.44
   0  -4  -4   29.82    1.02
   0  -4  -4   35.64    1.02
   0  -4  -5    3.69    0.45
   0  -4  -5    3.10    0.29
   0  -4  -5    3.15    0.60
   0  -4  -6   57.92    1.77
   0  -4  -6   59.08    2.89
   0  -4  -6   57.75    0.98
   0  -4  -6   58.60    1.16
   0  -4  -7    3.77    1.36
   0  -4  -7    3.17    0.73
   0  -4  -7    2.90    0.48
   0  -4  -8   23.35    1.46
   0  -4  -8   25.16    2.16
   0  -4  -8   23.41    1.04
   0  -4  -9   52.14    2.99
   0  -4  -9   54.61    2.25
   0  -4  -9   51.47    1.64
   0  -4 -10    2.79    0.99
   0  -4 -10    2.80    0.71
   0  -4 -10    2.77    1.41
   0  -4 -11   -0.32    0.63
   0  -4 -11    1.15    1.06
   0  -4 -11   -0.01    1.39
   0  -4 -12   64.04    2.33
   0  -4 -12   61.20    3.54
   0  -4 -12   59.02    2.87
   0  -4 -13   38.12    1.95
   0  -4 -13   35.56    2.40
   0  -4 -13   33.02    3.01
   0  -4 -14   26.88    2.81
   0  -4 -14   22.75    1.66
   0  -4 -14   27.59    2.33
   0  -4 -15    6.16    1.47
   0  -4 -15    4.79    1.12
   0  -4 -16    0.16    0.86
   0  -4 -16   -1.40    1.75
   0  -4 -17    6.09    2.18
   0  -5  14   19.37    2.21
   0  -5  13   24.99    2.33
   0  -5  12    0.45    1.14
   0  -5  11    1.39    1.64
   0  -5  11   -0.65    1.12
   0   5 -11    2.71    1.47
   0   5 -11    0.22    1.06
   0  -5  10   31.25    2.84
   0   5 -10   33.09    2.39
   0   5 -10   32.12    2.34
   0  -5  10   33.45    2.34
   0  -5   9   17.73    2.17
   0   5  -9   16.23    1.76
   0  -5   9   12.33    1.58
   0   5  -9   11.50    1.65
   0  -5   8    2.04    1.03
   0  -5   8    4.19    1.43
   0   5  -8    3.30    1.03
   0   5  -8    2.21    1.07
   0  -5   7   -1.81    1.12
   0   5  -7    1.37    0.94
   0   5  -7   -0.30    0.84
   0  -5   7    0.50    1.25
   0  -5   6   35.79    2.40
   0  -5   6   31.56    1.95
   0   5  -6   33.14    1.85
   0   5  -6   33.81    1.94
   0   5  -5   45.97    2.09
   0  -5   5   45.60    2.25
   0   5  -5   45.01    2.01
   0  -5   5   47.09    2.51
   0   5  -4   -0.18    0.66
   0   5  -4    0.70    0.67
   0  -5   4    0.93    0.87
   0  -5   3  167.16    3.64
   0  -5   3  165.72    3.80
   0   5  -3  163.31    3.35
   0   5  -3  164.87    3.01
   0  -5   2    1.85    0.93
   0  -5   2    1.52    0.74
   0   5  -2    1.12    0.54
   0   5  -2    2.35    0.76
   0   5  -1   38.73    1.14
   0   5  -1   38.50    1.44
   0  -5   1   38.60    1.59
   0  -5   1   38.54    1.85
   0  -5   0    1.30    0.57
   0  -5   0    1.17    0.77
   0   5   0    2.05    0.54
   0   5   0    1.56    0.33
   0  -5  -1   12.99    0.77
   0  -5  -1   13.28    1.07
   0   5   1   12.01    0.72
   0  -5  -2   98.05    1.50
   0   5   2  102.25    1.39
   0  -5  -3   92.92    2.21
   0  -5  -4   15.90    0.96
   0  -5  -4   17.84    0.67
   0  -5  -5  169.08    2.33
   0  -5  -5  170.41    2.52
   0  -5  -6   96.79    2.08
   0  -5  -6   91.54    1.67
   0  -5  -7    6.83    0.44
   0  -5  -7    5.75    0.80
   0  -5  -7    6.60    0.42
   0  -5  -8   73.70    1.50
   0  -5  -8   75.59    2.34
   0  -5  -8   73.75    3.62
   0  -5  -9    5.81    0.61
   0  -5  -9    3.20    0.79
   0  -5  -9    4.66    1.44
   0  -5 -10   27.70    1.76
   0  -5 -10   28.65    1.25
   0  -5 -10   26.61    2.55
   0  -5 -11   13.68    2.00
   0  -5 -11   13.61    1.47
   0  -5 -11   14.27    1.03
   0  -5 -12    1.39    0.66
   0  -5 -12    1.07    0.89
   0  -5 -12    1.80    1.45
   0  -5 -13    5.46    1.96
   0  -5 -13    3.88    0.83
   0  -5 -13    4.82    1.26
   0  -5 -14   -0.08    1.02
   0  -5 -14    2.10    0.88
   0  -5 -14    2.43    1.54
   0  -5 -15   61.64    3.37
   0  -5 -15   57.43    2.41
   0  -5 -15   56.96    4.14
   0  -5 -16    2.16    0.92
   0  -5 -16    4.29    2.20
   0  -6  13   14.11    2.12
   0  -6  12    1.72    1.24
   0  -6  11    0.60    1.37
   0   6 -11    2.04    1.30
   0   6 -10   33.63    2.49
   0  -6  10   27.87    2.36
   0  -6  10   33.54    2.98
   0   6 -10   33.36    2.46
   0  -6   9   45.17    3.26
   0  -6   9   47.73    2.86
   0   6  -9   42.61    2.62
   0   6  -9   45.82    2.71
   0   6  -8   -0.79    0.97
   0   6  -8    1.32    0.99
   0  -6   8    3.28    1.29
   0  -6   8    0.99    1.28
   0   6  -7   86.54    3.32
   0  -6   7   89.50    3.91
   0   6  -7   88.46    3.20
   0  -6   7   84.35    3.42
   0  -6   6    1.98    1.10
   0   6  -6    1.92    0.92
   0  -6   6    0.75    1.12
   0   6  -6    2.77    1.04
   0   6  -5   10.27    1.26
   0  -6   5   12.55    1.51
   0   6  -5   12.82    1.28
   0   6  -4   12.20    1.11
   0  -6   4   11.66    1.38
   0   6  -4   10.65    1.19
   0   6  -3  158.87    3.07
   0   6  -3  159.30    3.47
   0  -6   3  150.24    3.90
   0   6  -2   29.23    1.44
   0   6  -2   28.81    1.23
   0  -6   2   30.04    1.83
   0  -6   1    6.00    1.05
   0   6  -1    4.62    0.69
   0   6  -1    4.40    0.52
   0   6   0    0.39    0.26
   0  -6   0    0.01    0.70
   0   6   0    0.55    0.51
   0  -6   0    0.54    0.54
   0   6   0    0.63    0.28
   0   6   1   39.87    1.26
   0  -6  -1   38.48    1.78
   0   6   2    0.73    0.38
   0  -6  -2    0.01    0.75
   0   6   3   25.34    0.68
   0  -6  -3   25.88    1.41
   0  -6  -4   16.06    1.08
   0  -6  -5   84.52    2.12
   0  -6  -5   91.52    1.50
   0  -6  -6    5.33    0.59
   0  -6  -6    6.07    0.69
   0  -6  -7  105.70    2.01
   0  -6  -7  106.64    2.33
   0  -6  -8   11.63    0.44
   0  -6  -8   10.22    0.61
   0  -6  -8   10.19    0.97
   0  -6  -8    9.76    1.87
   0  -6  -8   11.92    0.50
   0  -6  -9   28.07    2.68
   0  -6  -9   28.81    0.86
   0  -6  -9   30.29    1.59
   0  -6 -10   11.13    2.19
   0  -6 -10    8.29    0.64
   0  -6 -10    9.87    1.16
   0  -6 -11   79.92    1.87
   0  -6 -11   76.56    2.86
   0  -6 -11   71.90    4.04
   0  -6 -12   17.11    1.56
   0  -6 -12   17.35    1.05
   0  -6 -12   13.64    2.24
   0  -6 -13   21.70    1.27
   0  -6 -13   22.44    1.94
   0  -6 -13   20.43    2.59
   0  -6 -14    5.02    0.85
   0  -6 -14    5.10    1.26
   0  -6 -14    7.34    1.98
   0  -6 -15   10.54    1.19
   0  -6 -15    7.14    1.51
   0  -6 -15    9.26    2.25
   0  -6 -16    1.19    1.86
   0  -7  12    3.81    1.55
   0  -7  11   -1.96    1.36
   0   7 -10    6.58    1.50
   0  -7  10    6.97    1.76
   0  -7   9   36.54    3.21
   0   7  -9   35.92    2.58
   0   7  -9   38.38    2.58
   0  -7   9   36.33    2.64
   0   7  -8   26.41    2.11
   0  -7   8   23.31    2.21
   0   7  -8   27.50    2.21
   0  -7   8   26.92    2.64
   0  -7   7   13.46    1.89
   0   7  -7   16.95    1.69
   0   7  -7   14.42    1.54
   0  -7   7   15.12    1.88
   0  -7   6   50.97    2.84
   0   7  -6   53.18    2.42
   0   7  -6   53.83    2.62
   0  -7   6   53.36    3.29
   0   7  -5    0.59    0.83
   0   7  -5    0.06    0.78
   0  -7   4   -0.58    0.96
   0   7  -4    0.76    0.75
   0   7  -4    1.00    0.85
   0   7  -3    0.66    0.57
   0  -7   3    0.45    0.99
   0   7  -3    1.23    0.83
   0   7  -2    5.08    0.84
   0  -7   2    7.31    1.20
   0   7  -2    5.60    0.70
   0   7  -1    7.74    0.94
   0   7  -1    7.91    0.65
   0  -7   1    7.02    1.16
   0   7   0    2.76    0.61
   0   7   0    2.02    0.31
   0   7   0    2.15    0.29
   0   7   1    7.63    0.69
   0  -7  -1    8.27    1.06
   0  -7  -2    8.12    1.02
   0   7   2    9.18    0.64
   0   7   3   14.00    0.61
   0  -7  -3   11.72    1.17
   0  -7  -4   27.94    1.51
   0  -7  -5    1.75    0.70
   0  -7  -5    1.37    0.19
   0  -7  -6   12.54    0.99
   0  -7  -6   12.02    0.65
   0  -7  -7    5.90    0.68
   0  -7  -7    5.40    0.73
   0  -7  -8    8.52    0.74
   0  -7  -8   10.03    1.95
   0  -7  -8    7.28    0.79
   0  -7  -9   -0.03    0.29
   0  -7  -9   -0.40    0.62
   0  -7  -9    0.51    1.65
   0  -7 -10   55.12    3.72
   0  -7 -10   55.84    2.21
   0  -7 -11    6.20    1.18
   0  -7 -11    4.80    0.43
   0  -7 -11    5.25    0.56
   0  -7 -12    5.44    0.55
   0  -7 -12    7.13    2.05
   0  -7 -12    6.88    0.69
   0  -7 -12    6.61    1.15
   0  -7 -13    2.28    0.57
   0  -7 -13    1.93    0.94
   0  -7 -13    0.15    1.53
   0  -7 -14   -0.39    0.96
   0  -7 -14    1.04    0.57
   0  -7 -14    0.24    1.56
   0  -7 -15    0.97    1.83
   0  -7 -15    0.09    1.10
   0  -7 -16   15.35    2.71
   0  -8  11    0.62    1.48
   0   8 -10    3.42    1.35
   0  -8  10    5.84    1.64
   0  -8   9    1.58    1.52
   0   8  -9    0.88    1.14
   0   8  -8    2.20    1.31
   0   8  -8    1.41    1.01
   0  -8   8    0.52    1.34
   0   8  -7    1.79    1.00
   0  -8   7    1.40    1.21
   0   8  -7    0.76    1.02
   0  -8   7    3.66    1.45
   0   8  -6    0.99    0.83
   0   8  -6    0.80    0.96
   0  -8   6    2.26    1.54
   0  -8   6    0.38    1.17
   0   8  -5    5.29    1.18
   0  -8   5    4.71    1.44
   0   8  -5    5.19    1.10
   0   8  -4    4.00    0.90
   0  -8   4    4.24    1.22
   0   8  -4    1.64    0.85
   0   8  -3    5.73    0.99
   0   8  -3    5.74    0.84
   0  -8   3    4.60    1.29
   0  -8   2   30.01    2.17
   0   8  -2   30.11    1.30
   0   8  -2   31.25    1.70
   0   8  -1   11.11    1.02
   0  -8   1   11.59    1.46
   0   8  -1   10.56    0.76
   0   8  -1   12.09    0.70
   0   8   0   -0.09    0.55
   0  -8   0    0.13    0.89
   0   8   0    0.03    0.19
   0  -8  -1    4.00    0.95
   0   8   1    4.44    0.64
   0   8   2    1.61    0.49
   0  -8  -2    1.45    0.84
   0   8   3    1.98    0.39
   0  -8  -3    3.57    0.94
   0  -8  -4  739.57    7.89
   0   8   4  672.42    2.97
   0  -8  -5   28.15    1.61
   0  -8  -6    5.50    1.00
   0  -8  -7   30.30    1.54
   0  -8  -7   29.23    0.99
   0  -8  -8    0.12    0.59
   0  -8  -8    0.51    0.52
   0  -8  -9   13.03    1.06
   0  -8  -9   15.56    0.96
   0  -8  -9   17.70    2.47
   0  -8 -10    3.87    0.77
   0  -8 -10    3.77    1.92
   0  -8 -10    3.84    0.39
   0  -8 -11   13.90    1.31
   0  -8 -11   13.99    2.42
   0  -8 -12   23.93    3.04
   0  -8 -12   21.95    1.63
   0  -8 -13    1.47    0.84
   0  -8 -13    0.17    1.91
   0  -8 -14   -1.16    0.99
   0  -8 -14    5.49    2.24
   0  -8 -15    1.12    1.01
   0  -8 -15    0.10    1.74
   0  -9  10   -0.20    1.56
   0   9  -9    3.15    1.34
   0  -9   9    7.34    1.92
   0  -9   8   21.81    2.45
   0   9  -8   20.11    1.88
   0   9  -7    0.68    1.00
   0  -9   7    1.31    1.18
   0   9  -7   -0.07    1.07
   0  -9   6    0.75    1.58
   0   9  -6    0.42    1.01
   0   9  -6    1.76    0.92
   0  -9   6    3.16    1.53
   0   9  -5    1.03    0.79
   0   9  -5    0.15    1.00
   0   9  -4    1.19    0.76
   0   9  -4    3.63    1.08
   0  -9   4    0.73    1.15
   0   9  -3   46.63    1.78
   0  -9   3   39.91    2.70
   0   9  -3   43.39    2.20
   0  -9   2   11.90    1.64
   0   9  -2   13.30    0.89
   0   9  -2   14.31    1.30
   0   9  -1   68.68    2.44
   0   9  -1   68.37    1.47
   0  -9   1   63.69    3.12
   0   9  -1   62.52    1.51
   0   9   0    0.87    0.63
   0  -9   0    0.51    1.01
   0  -9  -1    1.47    0.96
   0   9   1    0.00    0.57
   0  -9  -2   -0.24    1.04
   0   9   2   -0.39    0.45
   0   9   3   27.85    1.02
   0  -9  -3   29.46    2.02
   0  -9  -4  103.40    3.33
   0   9   4   99.15    1.37
   0  -9  -5  284.49    5.24
   0  -9  -6   11.81    1.29
   0  -9  -7   32.32    1.76
   0  -9  -8   17.44    1.29
   0  -9  -8   18.53    0.77
   0  -9  -9    4.71    0.82
   0  -9  -9    3.82    0.66
   0  -9  -9    3.17    1.94
   0  -9 -10    2.49    1.97
   0  -9 -10    5.00    0.82
   0  -9 -10    2.87    0.53
   0  -9 -11    0.63    0.68
   0  -9 -11   -1.99    1.89
   0  -9 -12    5.48    1.04
   0  -9 -12    2.73    2.14
   0  -9 -13   -0.85    1.97
   0  -9 -13    0.32    0.85
   0  -9 -14   -1.25    2.17
   0  -9 -14    0.04    0.95
   0  -9 -15    7.46    2.29
   0  10  -8    5.29    1.25
   0 -10   8   10.31    1.99
   0 -10   7   32.96    2.91
   0  10  -7   26.59    2.00
   0  10  -6    3.99    1.00
   0  10  -6    4.89    1.36
   0 -10   6    7.41    1.86
   0  10  -5    6.82    1.34
   0 -10   5    8.30    1.81
   0  10  -5    4.39    0.97
   0  10  -4    2.75    0.78
   0 -10   4    2.63    1.34
   0  10  -4    1.73    0.95
   0  10  -3    9.91    1.38
   0  10  -3    9.94    0.98
   0 -10   3    7.37    1.65
   0  10  -3    8.32    0.97
   0  10  -2    0.13    0.46
   0  10  -2    0.23    0.45
   0 -10   2    0.68    1.18
   0  10  -2    0.63    0.84
   0  10  -1   35.04    1.82
   0 -10   1   36.81    2.64
   0  10  -1   31.80    0.87
   0  10  -1   29.77    0.87
   0  10   0    2.35    0.83
   0 -10   0    1.92    1.18
   0  10   1   22.40    1.30
   0 -10  -1   20.35    1.95
   0  10   2    0.07    0.50
   0 -10  -2   -0.74    1.09
   0 -10  -3   24.57    1.94
   0  10   3   25.90    1.07
   0  10   4    5.38    0.39
   0 -10  -4    7.58    1.35
   0 -10  -5  598.64    8.34
   0 -10  -6   61.86    2.76
   0 -10  -7    0.59    0.82
   0 -10  -8    1.15    0.77
   0 -10  -9    3.40    0.85
   0 -10  -9    1.54    0.29
   0 -10 -10    0.60    0.61
   0 -10 -10    2.17    2.12
   0 -10 -10    0.95    0.47
   0 -10 -11    0.84    1.96
   0 -10 -11    0.70    0.38
   0 -10 -11    0.69    0.62
   0 -10 -12    8.37    1.00
   0 -10 -12   11.39    2.60
   0 -10 -13   13.21    2.77
   0 -10 -14    1.12    1.95
   0 -11   7    7.82    2.08
   0 -11   6    0.81    1.45
   0  11  -5    0.15    0.73
   0  11  -5    1.67    1.21
   0 -11   5   -0.12    1.29
   0 -11   4    6.37    1.86
   0  11  -4    5.22    1.25
   0  11  -4    3.43    0.76
   0  11  -4    3.74    0.85
   0  11  -3    3.15    0.68
   0 -11   3    1.55    1.46
   0  11  -3    3.04    0.65
   0  11  -3    2.20    1.03
   0  11  -2   11.81    1.35
   0  11  -2   13.69    0.74
   0 -11   1    7.01    1.67
   0  11  -1    5.66    1.02
   0 -11   0    6.82    1.45
   0  11   0    7.21    1.02
   0  11   1   19.14    1.29
   0 -11  -1   16.82    1.95
   0  11   2    7.56    0.81
   0 -11  -2    4.19    1.38
   0  11   3    0.35    0.41
   0 -11  -3   -0.35    1.12
   0 -11  -4    4.84    1.31
   0  11   4    4.02    0.37
   0 -11  -5   44.88    2.55
   0 -11  -6   31.26    2.14
   0 -11  -7   10.40    1.36
   0 -11  -8    6.21    1.13
   0 -11  -9    1.11    0.75
   0 -11 -10    3.58    2.34
   0 -11 -10    5.00    0.97
   0 -11 -11    2.88    2.05
   0 -11 -12    7.96    2.42
   0 -12   4    5.82    1.87
   0  12  -4    3.79    1.31
   0 -12   3    0.58    1.36
   0  12  -3    0.30    0.97
   0 -12   2    9.11    1.73
   0  12  -2    7.24    1.28
   0  12  -1    8.53    1.20
   0 -12   1    8.95    1.84
   0 -12   0   -0.16    1.22
   0  12   0    1.04    0.77
   0  12   1    2.40    0.75
   0 -12  -1    3.40    1.49
   0 -12  -2    0.99    1.15
   0  12   2    2.99    0.72
   0  12   3    2.45    0.55
   0 -12  -3    3.98    1.40
   0 -12  -4   -0.33    1.16
   0 -12  -5   -0.39    1.06
   0 -12  -6    1.78    1.03
   0 -12  -7    2.38    1.15
   0 -12  -8   -0.24    1.07
   0 -12  -9    3.87    1.12
   0 -12 -10    8.63    1.20
   0 -12 -11   -1.18    2.26
   0 -13   2    2.24    1.59
   0 -13   1    9.11    1.88
   0 -13   0   -0.33    1.39
   0 -13  -1   11.93    2.00
   0 -13  -2    3.89    1.56
   0 -13  -3   19.31    2.39
   0 -13  -4    1.36    1.16
   0 -13  -5    0.79    1.15
   0 -13  -6    1.10    1.23
   0 -13  -7    1.28    1.14
   0 -13  -8    1.00    1.12
   0 -13  -9    7.15    1.32
   1 -13  -7    3.65    1.31
   1 -13  -6    0.97    1.24
   1 -13  -5   57.98    3.36
   1 -13  -4    5.71    1.51
   1 -13  -3   -0.41    1.25
   1 -13  -2    4.90    1.63
   1 -13  -1    4.48    1.62
   1 -13   0    2.21    1.59
   1 -13   1    5.04    1.74
   1 -12 -10   17.45    3.07
   1 -12  -9    8.01    1.24
   1 -12  -8    2.96    0.98
   1 -12  -7    0.69    1.02
   1 -12  -6    5.22    1.17
   1 -12  -5    2.13    1.27
   1 -12  -4    2.21    1.15
  -1  12   3    0.01    0.46
   1 -12  -3    1.28    1.17
  -1  12   2   -0.34    0.60
   1 -12  -2    1.18    1.18
  -1  12   1    0.67    0.70
   1 -12  -1    0.67    1.41
  -1  12   0   -0.06    0.68
   1 -12   0   -1.10    1.29
   1 -12   1   10.89    1.94
  -1  12  -1    6.66    1.11
   1 -12   2    2.59    1.70
  -1  12  -2    1.80    1.09
  -1  12  -3    0.64    1.00
   1 -12   3    2.19    1.64
   1 -12   4   12.24    2.24
   1 -11 -12   22.52    3.49
   1 -11 -11   -0.25    2.13
   1 -11 -10   -3.55    2.31
   1 -11 -10    0.64    0.69
   1 -11  -9    1.88    0.84
   1 -11  -8    3.10    0.85
   1 -11  -7    4.66    1.14
   1 -11  -6    3.70    1.05
   1 -11  -5    6.75    1.32
   1 -11  -4    0.25    0.95
  -1  11   4    0.16    0.29
  -1  11   3    3.13    0.60
   1 -11  -3    4.71    1.29
  -1  11   2    0.60    0.55
   1 -11  -2   -0.37    1.03
   1 -11  -1    0.22    1.09
  -1  11   1    1.63    0.67
  -1  11   0    5.57    0.94
   1 -11   0    5.34    1.55
  -1  11  -1   19.69    1.55
   1 -11   1   19.34    2.20
  -1  11  -2    4.89    1.00
   1 -11   2    8.85    1.75
  -1  11  -3    2.59    1.15
  -1  11  -3    1.74    0.46
   1 -11   3    1.08    1.20
  -1  11  -3    1.35    0.48
  -1  11  -4    0.34    0.58
  -1  11  -4    1.86    1.07
   1 -11   4    0.12    1.30
  -1  11  -5    5.51    1.35
   1 -11   5    3.93    1.73
   1 -11   6   -0.19    1.57
   1 -10 -13    3.69    2.50
   1 -10 -12    1.09    0.82
   1 -10 -12   -0.84    1.80
   1 -10 -11    0.64    0.61
   1 -10 -11    4.66    2.20
   1 -10 -10   11.58    1.01
   1 -10 -10   11.27    2.59
   1 -10 -10    8.59    0.69
   1 -10 -10    8.52    0.73
   1 -10  -9   17.79    1.32
   1 -10  -8    2.53    0.88
   1 -10  -7    9.88    1.23
   1 -10  -6    2.32    0.93
   1 -10  -5   10.84    1.45
  -1  10   4   14.36    0.74
   1 -10  -4   13.74    1.51
   1 -10  -3   -0.62    0.96
  -1  10   3    1.03    0.48
  -1  10   2    4.98    0.76
   1 -10  -2    4.46    1.37
   1 -10  -1    0.72    1.17
  -1  10   1    1.98    0.70
   1 -10   0    0.64    1.08
  -1  10   0    2.70    0.76
   1 -10   1   18.91    1.99
  -1  10  -1   17.28    1.41
  -1  10  -2    0.66    0.37
  -1  10  -2    0.66    0.37
  -1  10  -3   18.44    1.68
  -1  10  -3   19.09    1.08
   1 -10   3   19.59    2.24
   1 -10   4    3.02    1.41
  -1  10  -4    3.27    0.70
  -1  10  -4    2.41    1.10
  -1  10  -5    1.22    0.72
  -1  10  -5    3.75    1.25
   1 -10   5    1.15    1.23
  -1  10  -6    2.57    0.88
   1 -10   6    2.49    1.36
  -1  10  -6    2.53    1.09
   1 -10   7    3.78    1.37
  -1  10  -7    6.71    1.18
   1 -10   8    8.29    1.96
  -1  10  -8    9.31    1.44
   1  -9 -14   -2.67    2.29
   1  -9 -13    1.87    0.92
   1  -9 -13    1.69    2.18
   1  -9 -12   10.21    1.22
   1  -9 -12    8.33    2.43
   1  -9 -11    0.20    0.72
   1  -9 -11   -3.22    2.05
   1  -9 -10    5.63    0.82
   1  -9 -10    5.27    0.55
   1  -9 -10    5.69    0.62
   1  -9 -10    5.39    2.14
   1  -9  -9    3.30    0.76
   1  -9  -9    1.60    0.51
   1  -9  -9    2.52    1.82
   1  -9  -9    2.39    0.64
   1  -9  -8    0.13    0.70
   1  -9  -8    0.42    0.29
   1  -9  -7    0.95    0.69
   1  -9  -6   14.50    1.34
   1  -9  -5   12.42    1.30
   1  -9  -4    1.50    0.89
  -1   9   4    0.50    0.32
  -1   9   3    0.79    0.46
   1  -9  -3   -0.37    0.85
   1  -9  -2   12.41    1.56
  -1   9   2   12.30    0.90
   1  -9  -1    4.89    1.23
  -1   9   1    3.26    0.66
  -1   9   0    9.51    1.09
   1  -9   0    5.86    1.34
  -1   9  -1   12.96    0.54
  -1   9  -1   13.82    0.58
   1  -9   1   13.90    1.65
  -1   9  -2   36.48    1.92
  -1   9  -2   33.11    1.19
   1  -9   2   31.01    2.41
  -1   9  -3    2.07    0.82
   1  -9   3    2.43    1.24
  -1   9  -3    1.41    0.61
   1  -9   4    5.76    1.55
  -1   9  -4    4.82    0.84
  -1   9  -4    3.29    1.01
  -1   9  -5    0.75    0.72
  -1   9  -5    0.75    0.97
   1  -9   5   -0.73    1.37
  -1   9  -6    4.71    1.09
   1  -9   6    6.09    1.67
  -1   9  -6    4.98    1.30
  -1   9  -7  128.91    3.90
   1  -9   7  128.50    5.14
  -1   9  -7  118.74    4.43
   1  -9   8   22.23    2.51
  -1   9  -8   18.90    1.83
   1  -9   9   20.54    2.51
  -1   9  -9   18.14    1.96
   1  -9  10    1.77    1.74
   1  -8 -14   -0.97    1.81
   1  -8 -14    1.55    1.00
   1  -8 -13    2.54    2.09
   1  -8 -13    0.01    0.92
   1  -8 -12   59.93    4.32
   1  -8 -12   51.52    2.43
   1  -8 -11    5.96    2.00
   1  -8 -11    4.61    0.98
   1  -8 -10    1.71    0.72
   1  -8 -10    6.30    2.09
   1  -8  -9    0.02    0.58
   1  -8  -9   -1.32    1.68
   1  -8  -9    0.71    0.47
   1  -8  -8    1.41    0.66
   1  -8  -8    2.24    0.57
   1  -8  -7    9.35    0.70
   1  -8  -7    9.10    0.98
   1  -8  -7    8.29    0.62
   1  -8  -6    1.09    0.74
   1  -8  -5   10.02    1.08
   1  -8  -4   32.59    0.97
   1  -8  -4   31.35    1.82
  -1   8   4   31.41    0.98
   1  -8  -3    6.20    0.64
  -1   8   3    4.79    0.56
   1  -8  -3    5.64    1.00
   1  -8  -2   25.28    1.79
  -1   8   2   28.09    1.20
   1  -8  -2   27.95    1.29
   1  -8  -1    4.22    1.13
   1  -8  -1    5.22    0.77
  -1   8   1    5.66    0.74
   1  -8   0    6.59    0.97
  -1   8   0    7.27    0.89
   1  -8   0    5.91    1.23
   1  -8   1    0.05    0.75
  -1   8  -1   -0.01    0.67
  -1   8  -1    0.36    0.28
  -1   8  -2    6.00    0.93
   1  -8   2    5.59    1.29
   1  -8   2    6.14    1.14
  -1   8  -2    5.93    0.64
   1  -8   3   10.96    1.48
   1  -8   3   13.67    1.47
  -1   8  -3   13.37    1.01
  -1   8  -3   14.77    1.40
  -1   8  -4   21.08    1.33
  -1   8  -4   17.81    1.67
   1  -8   4   20.59    1.83
   1  -8   4   21.63    2.02
   1  -8   5    0.29    1.20
  -1   8  -5   -0.67    0.96
  -1   8  -5   -0.45    0.78
  -1   8  -6   19.98    1.81
   1  -8   6   20.96    2.12
  -1   8  -6   20.03    1.58
   1  -8   6   21.68    2.51
  -1   8  -7   34.97    2.16
   1  -8   7   33.99    2.87
  -1   8  -7   36.12    2.38
   1  -8   7   37.20    2.78
  -1   8  -8  115.08    3.85
   1  -8   8  119.38    4.72
  -1   8  -8  114.08    4.20
  -1   8  -9    1.29    1.01
   1  -8   9    0.14    1.39
  -1   8 -10   17.17    1.97
   1  -8  10   17.06    2.33
   1  -8  11    7.07    1.88
   1  -7 -15    3.42    1.95
   1  -7 -15    1.19    1.12
   1  -7 -14    4.35    2.16
   1  -7 -14    3.83    0.83
   1  -7 -14    3.16    1.18
   1  -7 -13    0.11    0.58
   1  -7 -13    0.46    0.53
   1  -7 -13   -1.40    0.98
   1  -7 -12    7.08    2.01
   1  -7 -12    6.02    0.66
   1  -7 -12    6.42    0.75
   1  -7 -12    6.87    1.11
   1  -7 -11    5.30    0.60
   1  -7 -11    4.25    0.98
   1  -7 -11    4.91    0.56
   1  -7 -10    0.36    0.32
   1  -7 -10   -1.11    1.57
   1  -7 -10    0.28    0.28
   1  -7 -10    0.39    0.73
   1  -7  -9    2.36    0.30
   1  -7  -9    1.69    0.71
   1  -7  -9    3.53    1.61
   1  -7  -9    2.25    0.35
   1  -7  -9    2.13    0.33
   1  -7  -8   16.90    2.35
   1  -7  -8   14.77    1.06
   1  -7  -8   16.59    0.93
   1  -7  -7   36.05    1.32
   1  -7  -7   35.07    1.45
   1  -7  -6   43.52    1.32
   1  -7  -6   43.39    1.68
   1  -7  -6   44.11    1.19
   1  -7  -5    0.25    0.16
   1  -7  -5    0.23    0.67
   1  -7  -5    0.32    0.18
   1  -7  -4   44.61    1.05
   1  -7  -4   43.67    1.89
  -1   7   3   27.09    0.97
   1  -7  -3   27.41    0.96
   1  -7  -3   26.43    1.58
   1  -7  -2   -0.08    0.71
  -1   7   2    0.06    0.41
   1  -7  -2    0.28    0.46
   1  -7  -1   36.74    1.44
  -1   7   1   37.97    1.34
   1  -7  -1   36.81    1.98
   1  -7   0    0.56    0.74
  -1   7   0    0.20    0.55
   1  -7   0    0.48    0.61
   1  -7   1   17.32    1.51
  -1   7  -1   18.67    0.79
   1  -7   1   19.37    1.34
  -1   7  -1   20.48    1.23
  -1   7  -2   26.87    1.14
  -1   7  -2   30.72    1.60
   1  -7   2   27.53    1.97
   1  -7   2   28.02    1.70
  -1   7  -3    0.32    0.77
   1  -7   3   -0.79    1.02
  -1   7  -3   -0.20    0.54
   1  -7   3   -0.14    0.86
   1  -7   4    7.31    1.38
  -1   7  -4    8.78    0.98
  -1   7  -4    9.84    1.20
   1  -7   4    7.80    1.30
   1  -7   5    1.27    1.17
  -1   7  -5    0.88    0.70
   1  -7   5    0.75    1.00
  -1   7  -5    2.84    0.98
  -1   7  -6   68.07    2.86
  -1   7  -6   66.18    2.56
   1  -7   6   74.80    3.74
   1  -7   6   67.11    3.23
  -1   7  -7   19.02    1.80
  -1   7  -7   18.80    1.61
   1  -7   7   15.59    1.86
   1  -7   7   18.17    2.16
   1  -7   8   82.77    4.20
  -1   7  -8   80.43    3.37
   1  -7   8   75.42    3.61
  -1   7  -9   21.44    1.91
   1  -7   9   24.31    2.36
  -1   7  -9   17.21    1.95
  -1   7 -10    2.82    1.28
   1  -7  10    3.49    1.42
   1  -7  11    7.04    1.79
   1  -7  12    1.26    1.39
   1  -6 -16   14.60    2.61
   1  -6 -15   14.17    2.54
   1  -6 -15   10.99    1.72
   1  -6 -14   26.10    1.56
   1  -6 -14   27.16    2.96
   1  -6 -14   25.17    2.25
   1  -6 -13    1.57    0.71
   1  -6 -13    2.41    1.18
   1  -6 -13    1.29    1.65
   1  -6 -12    4.95    1.20
   1  -6 -12    6.08    0.77
   1  -6 -11    1.49    0.55
   1  -6 -11    0.30    1.67
   1  -6 -11    0.34    0.88
   1  -6 -10    4.35    0.63
   1  -6 -10    2.81    0.99
   1  -6 -10    3.52    0.70
   1  -6  -9   -0.57    1.61
   1  -6  -9    1.10    0.40
   1  -6  -9    0.79    0.75
   1  -6  -9    1.15    0.44
   1  -6  -8   28.86    0.98
   1  -6  -8   27.28    0.91
   1  -6  -8   29.26    0.82
   1  -6  -8   28.69    2.57
   1  -6  -8   28.35    1.52
   1  -6  -8   29.20    0.89
   1  -6  -7    1.72    0.29
   1  -6  -7    2.15    0.49
   1  -6  -7    2.08    0.61
   1  -6  -7    2.47    0.33
   1  -6  -6    0.71    0.22
   1  -6  -6    0.42    0.45
   1  -6  -6    0.28    0.39
   1  -6  -5    0.76    0.33
   1  -6  -5    1.51    0.54
   1  -6  -5    0.85    0.22
   1  -6  -5    0.91    0.41
   1  -6  -4    2.51    0.25
   1  -6  -4    2.44    0.62
   1  -6  -4    2.56    0.29
   1  -6  -4    1.84    0.22
  -1   6   3    0.22    0.35
   1  -6  -3    0.48    0.59
   1  -6  -3    0.92    0.33
   1  -6  -2    5.71    0.58
  -1   6   2    4.97    0.56
   1  -6  -1  103.38    2.13
   1  -6  -1  100.61    2.75
  -1   6   1  108.95    2.04
   1  -6   0   13.13    1.24
  -1   6   0   10.49    0.43
  -1   6   0   14.61    0.95
   1  -6   0   10.48    0.90
  -1   6  -1  150.68    2.93
   1  -6   1  142.96    3.53
   1  -6   1  140.98    3.01
  -1   6  -1  150.93    2.04
  -1   6  -2   21.65    1.01
   1  -6   2   21.74    1.60
  -1   6  -2   20.43    1.30
   1  -6   2   21.98    1.41
  -1   6  -3   46.09    1.63
   1  -6   3   45.32    2.19
   1  -6   3   50.17    2.19
  -1   6  -3   48.14    1.94
   1  -6   4    1.82    0.93
  -1   6  -4    1.64    0.79
   1  -6   4    1.08    1.02
  -1   6  -4    1.14    0.65
  -1   6  -5   32.02    1.69
  -1   6  -5   30.71    1.81
   1  -6   5   29.86    2.10
   1  -6   5   29.44    1.98
   1  -6   6   -0.62    1.30
  -1   6  -6   -0.03    0.86
   1  -6   6   -0.21    0.96
  -1   6  -6   -0.22    0.81
   1  -6   6    0.13    0.99
   1  -6   7   -2.25    1.55
   1  -6   7    0.29    1.08
  -1   6  -7    0.62    0.88
   1  -6   7    1.28    1.00
  -1   6  -7   -0.92    0.99
   1  -6   8    0.89    1.21
  -1   6  -8    1.34    0.97
   1  -6   8   -0.86    1.29
  -1   6  -8    1.43    0.99
   1  -6   9  351.86    8.31
   1  -6   9  350.48    7.29
  -1   6  -9  336.18    6.70
  -1   6  -9  332.56    6.91
   1  -6  10    5.20    1.92
  -1   6 -10    1.76    1.05
   1  -6  10    3.05    1.26
  -1   6 -10    2.26    1.20
  -1   6 -11    9.12    1.80
   1  -6  11   15.49    2.02
   1  -6  12    0.43    1.33
   1  -6  13    4.92    1.59
   1  -5 -16   39.13    3.62
   1  -5 -15   16.60    1.54
   1  -5 -15   17.60    2.55
   1  -5 -14    1.89    1.14
   1  -5 -14    1.10    0.89
   1  -5 -14   -0.47    1.66
   1  -5 -13    2.15    0.83
   1  -5 -13    0.11    0.99
   1  -5 -13    2.41    1.52
   1  -5 -12    1.10    1.04
   1  -5 -12   -0.81    1.62
   1  -5 -12    0.09    0.64
   1  -5 -11    0.03    0.60
   1  -5 -11    1.36    1.54
   1  -5 -11   -0.01    0.92
   1  -5 -10    8.29    0.87
   1  -5 -10    9.83    1.26
   1  -5 -10   12.03    2.02
   1  -5  -9   17.90    0.99
   1  -5  -9   18.32    1.44
   1  -5  -9   19.34    2.31
   1  -5  -8    4.00    0.52
   1  -5  -8    4.22    0.87
   1  -5  -7    0.27    0.22
   1  -5  -7   -0.45    0.56
   1  -5  -7    0.70    1.32
   1  -5  -7    0.37    0.37
   1  -5  -7    0.47    0.42
   1  -5  -7    0.02    0.24
   1  -5  -6   44.99    1.13
   1  -5  -6   41.54    1.46
   1  -5  -6   43.13    1.19
   1  -5  -5    8.17    0.66
   1  -5  -5    8.96    0.72
   1  -5  -5    8.82    0.48
   1  -5  -4    1.84    0.39
   1  -5  -4    0.83    0.48
   1  -5  -4    1.57    0.29
   1  -5  -3   49.42    0.81
  -1   5   3   52.27    1.21
   1  -5  -3   50.37    0.81
   1  -5  -2   33.74    0.97
  -1   5   2   32.27    1.00
   1  -5  -1   33.67    1.17
  -1   5   1   35.53    1.14
   1  -5   0    2.27    0.63
  -1   5   0    3.18    0.31
  -1   5   0    3.43    0.58
  -1   5  -1  119.24    2.40
   1  -5   1  115.25    2.53
  -1   5  -1  119.17    1.78
  -1   5  -2  192.77    3.32
   1  -5   2  184.06    3.38
  -1   5  -2  191.80    2.69
  -1   5  -3   13.62    0.99
  -1   5  -3   13.38    1.14
   1  -5   3   12.44    1.18
   1  -5   4   46.61    2.16
   1  -5   4   47.10    2.15
  -1   5  -4   48.96    1.99
  -1   5  -4   47.61    1.80
   1  -5   5    4.66    1.11
   1  -5   5    4.58    1.30
  -1   5  -5    5.84    0.92
  -1   5  -5    6.35    1.00
   1  -5   5    6.22    1.12
   1  -5   6    6.61    1.41
   1  -5   6    7.19    1.18
  -1   5  -6    5.33    0.97
  -1   5  -6    5.95    1.04
   1  -5   6    6.53    1.24
  -1   5  -7   21.32    1.65
  -1   5  -7   22.05    1.72
   1  -5   7   21.54    2.06
   1  -5   7   26.05    1.94
   1  -5   7   23.93    1.93
   1  -5   8   31.81    2.18
   1  -5   8   32.83    2.61
  -1   5  -8   36.04    2.20
  -1   5  -8   30.21    2.07
   1  -5   9   20.52    1.90
  -1   5  -9   23.28    1.95
  -1   5  -9   19.88    1.91
   1  -5   9   21.27    2.30
  -1   5 -10    7.19    1.49
  -1   5 -10    7.24    1.40
   1  -5  10    6.04    1.73
   1  -5  10    9.35    1.64
  -1   5 -11    0.59    1.14
   1  -5  11    2.53    1.26
  -1   5 -11    2.30    1.30
   1  -5  11    2.41    1.48
   1  -5  12    0.67    1.11
  -1   5 -12   -2.13    1.38
   1  -5  13    0.62    1.19
   1  -5  14    4.02    1.69
   1  -4 -16   36.09    3.46
   1  -4 -16   34.76    2.30
   1  -4 -15   13.46    2.41
   1  -4 -15   15.11    1.66
   1  -4 -14    6.38    1.93
   1  -4 -14    8.77    1.57
   1  -4 -14    8.05    1.17
   1  -4 -13   22.33    2.10
   1  -4 -13   22.86    1.64
   1  -4 -12   14.37    1.65
   1  -4 -12   14.99    2.23
   1  -4 -12   14.69    1.33
   1  -4 -11    3.07    0.84
   1  -4 -11    4.02    1.13
   1  -4 -10   15.27    1.89
   1  -4 -10   13.56    1.11
   1  -4 -10   13.24    1.41
   1  -4  -9   -0.13    0.86
   1  -4  -9   -0.90    1.43
   1  -4  -9    0.16    0.54
   1  -4  -8    0.77    0.70
   1  -4  -8    1.55    0.53
   1  -4  -8    2.79    1.37
   1  -4  -7   27.20    1.15
   1  -4  -7   25.67    2.15
   1  -4  -6  456.89    2.75
   1  -4  -6  448.39    2.85
   1  -4  -5    0.15    0.32
   1  -4  -5    0.97    0.44
   1  -4  -4  243.06    2.25
   1  -4  -3   24.37    0.71
   1  -4  -3   24.03    0.82
   1  -4  -2   95.67    1.02
   1  -4  -2   99.09    1.47
  -1   4   2   96.51    1.53
  -1   4   1    3.32    0.49
   1  -4  -1    3.80    0.49
  -1   4   0  967.27    5.65
  -1   4   0  959.73    3.62
   1  -4   1   20.96    1.09
  -1   4  -1   19.71    0.78
  -1   4  -1   19.25    1.03
  -1   4  -2   36.56    1.23
   1  -4   2   41.92    1.61
  -1   4  -2   39.63    1.49
   1  -4   3   22.13    1.35
  -1   4  -3   20.80    1.29
  -1   4  -3   21.48    1.14
  -1   4  -4   11.90    1.15
  -1   4  -4   12.36    1.03
   1  -4   4   11.74    1.15
  -1   4  -5    0.34    0.65
   1  -4   5    0.27    0.96
  -1   4  -5    0.36    0.68
   1  -4   5   -0.22    0.75
  -1   4  -6   46.80    2.10
  -1   4  -6   44.11    2.05
   1  -4   6   46.61    2.54
   1  -4   6   46.85    2.34
   1  -4   6   48.27    2.17
  -1   4  -7   34.06    1.94
   1  -4   7   35.79    2.19
   1  -4   7   34.92    2.33
   1  -4   7   37.02    2.01
  -1   4  -7   36.96    2.01
  -1   4  -8   13.65    1.50
   1  -4   8   14.21    1.47
   1  -4   8   14.11    1.86
  -1   4  -8   13.96    1.46
   1  -4   8   15.04    1.71
  -1   4  -9    6.45    1.29
   1  -4   9    4.97    1.57
   1  -4   9    2.95    1.14
  -1   4  -9    4.00    1.04
   1  -4  10  301.74    6.12
   1  -4  10  304.29    7.42
  -1   4 -10  292.30    6.32
  -1   4 -10  305.15    6.30
   1  -4  11    1.01    1.47
  -1   4 -11   -0.94    1.24
   1  -4  11    0.73    0.97
  -1   4 -11    0.44    1.10
  -1   4 -12   39.51    2.76
   1  -4  12   36.31    2.49
  -1   4 -12   35.82    2.66
   1  -4  13    1.85    1.17
   1  -4  14    7.22    1.53
   1  -4  15    6.04    1.63
   1  -3 -16   10.25    2.32
   1  -3 -16   13.30    1.68
   1  -3 -15   41.22    3.47
   1  -3 -15   40.34    2.49
   1  -3 -14   25.61    2.69
   1  -3 -14   23.10    1.85
   1  -3 -14   19.78    2.11
   1  -3 -13   -0.21    1.30
   1  -3 -13    0.28    1.24
   1  -3 -13    0.97    0.84
   1  -3 -12   12.40    1.61
   1  -3 -12   11.15    1.31
   1  -3 -11    8.57    1.10
   1  -3 -11   10.46    1.44
   1  -3 -11    9.99    1.69
   1  -3 -10   13.14    1.17
   1  -3 -10   14.62    1.83
   1  -3 -10   12.88    1.45
   1  -3  -9   16.94    1.48
   1  -3  -9   16.48    1.93
   1  -3  -9   17.95    1.24
   1  -3  -8  125.25    2.77
   1  -3  -8  113.54    3.90
   1  -3  -7   25.37    1.93
   1  -3  -7   22.06    1.15
   1  -3  -6  119.51    3.74
   1  -3  -5    3.82    1.28
   1  -3  -5    4.26    0.32
   1  -3  -4    9.00    0.64
   1  -3  -3   33.49    0.88
  -1   3   2  167.03    1.91
   1  -3  -2  173.24    1.75
   1  -3  -1    1.52    0.32
  -1   3   1    2.21    0.37
   1  -3  -1    2.08    0.22
   1  -3   0  418.76    3.30
  -1   3   0  416.90    3.29
   1  -3   0  422.07    2.41
  -1   3   0  418.23    2.34
  -1   3  -1    9.97    0.71
   1  -3   1   10.92    0.74
  -1   3  -1   10.14    0.56
   1  -3   1    9.90    0.59
  -1   3  -2    0.81    0.54
  -1   3  -2    1.44    0.50
   1  -3   2    1.48    0.63
  -1   3  -3   12.30    0.99
  -1   3  -3   11.24    0.90
   1  -3   3   11.74    1.01
  -1   3  -4    0.54    0.67
  -1   3  -4    1.20    0.74
   1  -3   4    0.93    0.77
   1  -3   4    1.25    0.88
   1  -3   5   13.08    1.43
  -1   3  -5   11.17    1.14
  -1   3  -5   10.86    1.08
   1  -3   5   10.88    1.16
  -1   3  -6   49.23    2.08
   1  -3   6   48.06    2.34
  -1   3  -6   49.00    2.03
   1  -3   6   50.55    2.29
   1  -3   7   10.86    1.36
  -1   3  -7    8.31    1.12
   1  -3   7    7.93    1.08
  -1   3  -7    6.70    1.02
   1  -3   7    8.41    1.38
   1  -3   8   11.15    1.48
   1  -3   8   12.76    1.32
   1  -3   8    8.15    1.34
  -1   3  -8   11.53    1.27
  -1   3  -8   11.14    1.38
  -1   3  -9   79.11    3.16
  -1   3  -9   78.83    3.01
   1  -3   9   84.50    3.72
   1  -3   9   76.08    2.83
  -1   3 -10   33.69    2.29
  -1   3 -10   31.23    2.16
   1  -3  10   29.51    2.44
   1  -3  10   30.22    2.00
  -1   3 -11   28.24    2.24
   1  -3  11   35.44    2.14
   1  -3  11   33.89    2.82
  -1   3 -11   33.26    2.28
  -1   3 -12    2.17    1.21
  -1   3 -12   -0.55    1.02
   1  -3  12    1.43    1.46
   1  -3  12    0.93    0.98
   1  -3  13    1.32    1.01
   1  -3  14    2.10    1.19
   1  -3  15    9.68    1.65
   1  -2 -16   14.36    2.55
   1  -2 -15   24.97    2.08
   1  -2 -15   27.56    3.01
   1  -2 -14   -0.14    1.12
   1  -2 -14   -0.42    0.95
   1  -2 -14    0.57    1.40
  -1   2  14    1.60    1.84
  -1   2  13    0.91    1.77
   1  -2 -13   -0.17    1.24
   1  -2 -13    2.22    1.54
   1  -2 -13   -0.82    0.91
   1  -2 -12    5.02    1.07
   1  -2 -12    7.03    1.51
  -1   2  12    6.32    2.02
   1  -2 -12    5.49    1.52
  -1   2  11    8.46    1.88
   1  -2 -11   11.70    1.26
   1  -2 -11   11.27    1.50
   1  -2 -11   12.01    1.82
   1  -2 -10    1.79    1.24
   1  -2 -10    1.18    0.87
   1  -2 -10    2.66    0.79
  -1   2  10    0.99    1.37
   1  -2  -9   15.82    1.75
   1  -2  -9   14.68    1.19
  -1   2   9   14.92    1.92
   1  -2  -8   41.62    2.36
   1  -2  -8   44.13    1.82
   1  -2  -7   84.22    2.30
  -1   2   7   76.60    3.20
   1  -2  -7   80.13    2.96
   1  -2  -6  125.08    3.49
  -1   2   6  123.96    3.73
   1  -2  -5  277.14    4.86
   1  -2  -4  170.52    1.46
   1  -2  -4  163.37    3.56
   1  -2  -3   12.11    0.49
   1  -2  -2   46.09    1.01
  -1   2   1  194.29    1.88
   1  -2  -1  198.33    1.85
   1  -2   0   14.44    0.48
  -1   2   0   15.42    0.51
  -1   2   0   13.83    0.61
   1  -2   0   13.24    0.63
   1  -2   1   84.75    1.33
  -1   2  -1   87.71    1.33
   1  -2   1   84.97    1.52
   1  -2   2   25.26    1.04
  -1   2  -2   23.35    0.92
  -1   2  -2   25.45    1.02
   1  -2   3   40.93    1.47
  -1   2  -3   41.89    1.38
   1  -2   3   41.32    1.65
   1  -2   3   42.57    1.41
  -1   2  -3   42.67    1.40
   1  -2   4    5.56    0.93
   1  -2   4    6.27    0.91
  -1   2  -4    4.61    0.78
  -1   2  -4    5.23    0.74
  -1   2  -5    3.40    0.85
   1  -2   5    3.46    0.83
   1  -2   5    4.31    1.06
  -1   2  -5    4.39    0.86
  -1   2  -6    0.22    0.75
   1  -2   6    0.28    0.83
  -1   2  -6   -0.23    0.81
   1  -2   6   -0.11    0.92
   1  -2   7    9.40    1.24
  -1   2  -7    7.66    1.06
   1  -2   7    9.85    1.44
  -1   2  -7    7.36    1.04
   1  -2   8   18.38    1.67
  -1   2  -8   18.05    1.44
  -1   2  -8   18.42    1.58
   1  -2   8   16.21    1.70
  -1   2  -8   15.13    1.65
   1  -2   8   19.66    1.34
  -1   2  -9    0.32    0.87
   1  -2   9    0.97    0.78
  -1   2  -9    0.70    0.93
   1  -2   9    1.50    1.25
  -1   2  -9    0.42    1.20
   1  -2   9    0.92    1.05
   1  -2  10    1.02    1.27
  -1   2 -10    2.19    1.16
  -1   2 -10    0.07    0.92
   1  -2  10    0.30    0.78
  -1   2 -10    0.46    1.25
   1  -2  11    2.85    0.93
   1  -2  11    1.27    1.40
  -1   2 -11    3.13    1.18
  -1   2 -11    0.71    0.92
   1  -2  12    0.17    0.87
  -1   2 -12   -0.70    1.04
   1  -2  12   -1.66    1.55
  -1   2 -12    0.80    1.06
   1  -2  13    3.79    1.89
  -1   2 -13    5.20    1.56
  -1   2 -13    1.71    1.18
   1  -2  13    3.18    1.01
   1  -2  14   -0.54    0.87
   1  -2  15   22.10    1.87
   1  -2  16    1.44    1.08
   1  -1 -16    3.01    1.92
   1  -1 -15   47.47    2.81
   1  -1 -15   44.32    3.57
  -1   1  14    1.23    0.24
   1  -1 -14    3.09    1.70
   1  -1 -14    1.11    1.05
   1  -1 -13   26.10    2.44
  -1   1  13   26.22    3.07
  -1   1  13   21.89    0.88
   1  -1 -13   24.89    2.55
   1  -1 -13   26.94    2.03
   1  -1 -12   23.57    2.35
   1  -1 -12   21.89    2.09
  -1   1  12   27.29    2.92
  -1   1  12   20.40    0.89
   1  -1 -12   22.39    1.81
  -1   1  11    1.44    1.65
   1  -1 -11   -0.14    0.92
   1  -1 -11    1.12    1.07
   1  -1 -11   -1.66    1.26
  -1   1  11    0.73    0.39
  -1   1  10   28.26    1.02
   1  -1 -10   33.26    2.45
   1  -1 -10   28.30    1.77
   1  -1 -10   28.94    1.99
  -1   1  10   30.78    2.63
   1  -1  -9  105.68    3.06
  -1   1   9  105.07    1.82
   1  -1  -9  114.17    3.88
  -1   1   9  103.92    4.06
  -1   1   8   63.79    1.34
   1  -1  -8   67.16    2.35
   1  -1  -8   63.12    2.80
  -1   1   8   62.68    3.08
  -1   1   7  116.80    3.77
   1  -1  -7  119.96    2.90
  -1   1   7  122.98    1.71
   1  -1  -7  117.50    3.49
  -1   1   6   21.27    1.72
  -1   1   6   21.91    0.71
   1  -1  -6   21.96    1.32
   1  -1  -6   21.58    1.64
   1  -1  -5   19.13    0.59
  -1   1   5   19.56    1.60
   1  -1  -5   17.99    1.42
  -1   1   5   19.16    0.60
   1  -1  -4   11.94    1.08
  -1   1   4   10.27    0.42
   1  -1  -4    9.92    0.41
  -1   1   4   12.19    1.21
   1  -1  -3  129.38    1.33
  -1   1   3  127.05    1.24
  -1   1   3  126.67    2.69
   1  -1  -3  125.16    2.53
   1  -1  -2    0.60    0.29
   1  -1  -2    0.10    0.68
  -1   1   1    1.45    0.39
   1  -1  -1    0.90    0.36
   1  -1  -1    1.39    0.36
  -1   1   0   69.60    1.10
  -1   1   0   68.68    0.98
   1  -1   0   73.07    0.99
   1  -1   0   68.54    1.08
   1  -1   1  437.16    2.75
  -1   1  -1  431.33    2.93
  -1   1  -1  428.57    2.70
   1  -1   1  436.77    2.93
  -1   1  -2  195.79    2.25
   1  -1   2  198.73    2.33
   1  -1   2  203.11    2.62
   1  -1   2  200.15    2.34
   1  -1   3   10.66    0.92
  -1   1  -3    9.29    0.77
  -1   1  -3    9.43    0.92
   1  -1   3    9.27    0.73
   1  -1   3    9.76    0.82
  -1   1  -3    8.03    0.73
   1  -1   4   66.83    2.04
  -1   1  -4   67.48    2.02
   1  -1   4   66.58    1.89
  -1   1  -4   66.68    1.72
  -1   1  -4   64.71    1.84
   1  -1   4   68.44    1.87
   1  -1   5    3.13    0.99
   1  -1   5    3.49    0.83
  -1   1  -5    2.05    0.67
  -1   1  -5    2.93    0.85
  -1   1  -5    2.79    0.96
  -1   1  -6  216.63    3.94
  -1   1  -6  215.93    3.65
   1  -1   6  214.96    3.90
   1  -1   6  226.34    4.39
  -1   1  -6  217.79    4.23
   1  -1   7   34.64    2.03
  -1   1  -7   32.70    1.63
   1  -1   7   34.28    1.77
  -1   1  -7   33.87    1.80
  -1   1  -7   34.70    2.05
  -1   1  -8   20.91    1.42
   1  -1   8   22.16    1.65
  -1   1  -8   19.68    1.54
   1  -1   8   21.59    1.83
  -1   1  -8   17.92    1.74
   1  -1   9    1.51    0.63
   1  -1   9    0.82    1.14
   1  -1   9    0.44    0.85
  -1   1  -9    1.84    0.86
  -1   1  -9    1.99    1.08
  -1   1  -9    1.10    0.91
   1  -1  10    5.99    0.95
  -1   1 -10    5.21    1.44
   1  -1  10    5.00    1.30
  -1   1 -10    4.99    1.07
  -1   1 -10    5.13    1.28
  -1   1 -11   15.10    1.99
   1  -1  11   13.88    1.32
  -1   1 -11   12.82    1.64
   1  -1  11   14.47    2.03
  -1   1 -11   16.67    1.60
  -1   1 -12   18.90    2.26
  -1   1 -12   17.98    1.96
  -1   1 -12   16.12    1.71
   1  -1  12   21.50    1.51
   1  -1  12   19.62    2.48
  -1   1 -13   19.23    1.89
  -1   1 -13   23.43    2.58
  -1   1 -13   22.64    2.18
   1  -1  13   18.38    2.50
   1  -1  13   20.58    1.51
  -1   1 -14    0.88    1.47
  -1   1 -14   -1.03    1.06
   1  -1  14    2.07    0.86
  -1   1 -15    3.42    1.88
   1  -1  15    0.36    0.79
   1  -1  16   -0.18    0.81
  -1   1 -16    2.01    1.81
   1   0 -16   -0.43    1.96
   1   0 -15   30.97    3.06
  -1   0  15   28.54    1.34
  -1   0  14   54.19    1.87
   1   0 -14   49.18    2.88
   1   0 -14   56.85    3.82
   1   0 -13    8.14    1.82
  -1   0  13    9.00    0.94
   1   0 -13    8.99    1.73
   1   0 -13    6.60    1.38
  -1   0  13   10.81    2.48
   1   0 -12   11.00    1.49
   1   0 -12   15.10    2.06
   1   0 -12   12.42    1.72
  -1   0  12   13.06    2.26
  -1   0  12   11.48    1.00
   1   0 -11   -0.58    0.94
  -1   0  11   -1.68    1.62
   1   0 -11   -0.64    0.99
  -1   0  11    0.57    0.61
   1   0 -11    0.44    1.31
  -1   0  10    1.49    0.58
  -1   0  10    3.55    1.45
   1   0 -10    2.71    0.95
   1   0 -10    3.32    1.36
   1   0 -10    0.74    1.01
  -1   0   9   -0.34    1.21
  -1   0   9    0.40    0.54
   1   0  -9    0.17    0.97
   1   0  -9   -0.32    0.90
   1   0  -8  116.89    3.68
   1   0  -8  122.58    3.26
  -1   0   8  119.26    2.30
  -1   0   8  115.59    3.88
  -1   0   7    7.47    1.39
   1   0  -7   11.11    1.38
   1   0  -7    9.13    1.05
  -1   0   7   10.84    0.75
  -1   0   6    8.93    0.67
   1   0  -6    8.71    1.24
   1   0  -6    9.15    1.04
  -1   0   6    9.98    1.38
  -1   0   5    3.85    0.55
   1   0  -5    3.67    0.50
  -1   0   5    1.95    1.00
   1   0  -5    2.61    0.93
   1   0  -4  237.34    2.33
  -1   0   4  231.80    3.69
  -1   0   4  233.22    2.40
   1   0  -3   16.89    0.68
   1   0  -3   16.37    1.03
  -1   0   3   18.59    0.71
  -1   0   3   18.50    1.12
  -1   0   2  359.96    3.28
   1   0  -2  360.63    2.48
   1   0  -2  352.03    3.13
   1   0  -1    0.14    0.24
  -1   0   1    0.57    0.35
   1   0  -1    0.69    0.27
  -1   0   1    0.19    0.27
  -1   0   0   19.49    0.59
  -1   0   0   24.92    0.64
  -1   0  -1    8.74    0.42
  -1   0  -1    8.98    0.41
   1   0   1    7.84    0.41
  -1   0  -2   29.98    0.85
   1   0   2   29.41    0.90
   1   0   2   32.24    0.88
  -1   0  -2   31.43    0.97
   1   0   2   32.28    0.98
  -1   0  -3    7.50    0.61
   1   0   3    8.75    0.65
   1   0   3    7.23    0.75
  -1   0  -3    7.90    0.70
   1   0   3    8.06    0.85
  -1   0  -3    7.77    0.83
   1   0   4   29.91    1.33
   1   0   4   31.66    1.20
  -1   0  -4   32.90    1.42
  -1   0  -4   32.97    1.30
   1   0   4   28.90    1.38
  -1   0  -4   32.39    1.14
   1   0   5   40.50    1.48
  -1   0  -5   42.70    1.76
  -1   0  -5   42.42    1.43
  -1   0  -5   39.09    1.61
   1   0   5   42.44    1.87
   1   0   6  881.49    8.37
  -1   0  -6  841.29    8.01
  -1   0  -6  855.38    7.52
   1   0   6  865.75    7.15
  -1   0  -6  857.57    6.73
   1   0   7    6.26    1.28
  -1   0  -7    7.25    1.09
  -1   0  -7    4.74    0.86
  -1   0  -7    4.35    1.16
   1   0   7    5.86    0.95
  -1   0  -8   94.45    2.99
  -1   0  -8   96.35    2.66
   1   0   8   89.49    2.85
  -1   0  -8   88.00    3.14
   1   0   8   93.08    3.42
   1   0   9    0.00    0.92
  -1   0  -9   -0.19    1.02
  -1   0  -9   -0.57    0.77
   1   0   9    0.27    0.51
  -1   0  -9    0.56    0.76
   1   0   9    0.78    1.16
   1   0  10   29.89    2.36
  -1   0 -10   29.12    2.20
  -1   0 -10   34.75    2.22
  -1   0 -10   31.23    1.79
   1   0  10   32.91    1.47
  -1   0 -11    1.13    1.08
  -1   0 -11    2.55    0.99
  -1   0 -11    1.54    1.22
   1   0  11    1.41    0.69
   1   0  11    1.61    1.24
   1   0  12   77.10    2.37
  -1   0 -12   80.33    3.55
  -1   0 -12   80.03    3.82
   1   0  12   70.76    4.04
  -1   0 -12   78.38    3.08
  -1   0 -13    7.52    1.61
   1   0  13    4.51    0.83
   1   0  13    6.70    1.87
  -1   0 -13    8.20    1.74
  -1   0 -13    2.76    1.06
  -1   0 -14   14.25    2.21
   1   0  14   12.47    1.15
   1   0  14   12.19    2.48
  -1   0 -14    8.23    1.36
  -1   0 -14   10.05    1.75
  -1   0 -15    1.95    1.57
  -1   0 -15    0.19    1.07
   1   0  15    1.28    0.69
  -1   0 -16    9.15    2.35
   1   0  16    9.09    1.04
   1   1 -16    4.32    1.99
  -1  -1  15    2.64    0.83
   1   1 -15    3.23    1.91
   1   1 -14  104.97    5.06
  -1  -1  14  101.70    3.04
   1   1 -13   56.11    3.64
   1   1 -13   54.32    3.34
  -1  -1  13   58.62    4.13
   1   1 -13   50.04    2.95
  -1  -1  13   55.30    2.26
   1   1 -12   19.19    1.80
  -1  -1  12   21.15    1.45
   1   1 -12   17.15    2.14
   1   1 -12   20.11    2.15
   1   1 -11   10.83    1.80
   1   1 -11   11.54    1.64
   1   1 -11   10.97    1.46
  -1  -1  11    8.14    1.77
  -1  -1  11   11.71    1.11
   1   1 -10    1.24    1.05
  -1  -1  10   -0.29    1.39
   1   1 -10    1.29    0.89
  -1  -1  10    1.89    0.75
   1   1 -10    2.35    1.23
   1   1  -9    5.27    1.02
   1   1  -9    6.18    1.30
  -1  -1   9    6.27    0.87
  -1  -1   9    6.04    1.36
   1   1  -8   28.77    1.77
  -1  -1   8   29.59    2.09
  -1  -1   8   30.23    1.43
   1   1  -8   25.20    1.86
   1   1  -7   -0.63    0.81
   1   1  -7   -0.76    0.95
  -1  -1   7    0.82    0.61
  -1  -1   7    1.70    1.10
  -1  -1   6   60.54    1.78
   1   1  -6   63.70    2.26
   1   1  -6   59.90    2.39
  -1  -1   6   58.48    2.40
  -1  -1   5   32.40    1.75
   1   1  -5   29.23    1.66
   1   1  -5   28.06    1.16
   1   1  -5   31.71    1.58
  -1  -1   5   30.62    1.28
   1   1  -4    4.44    0.59
   1   1  -4    1.97    0.77
  -1  -1   4    3.76    0.83
  -1  -1   4    3.19    0.59
  -1  -1   3   43.43    1.22
   1   1  -3   44.09    1.22
   1   1  -3   42.84    1.51
  -1  -1   3   43.09    1.50
   1   1  -2    6.21    0.65
  -1  -1   2    5.09    0.57
   1   1  -2    5.73    0.59
  -1  -1   2    4.45    0.65
   1   1  -1  139.74    1.82
  -1  -1   1  136.64    1.76
   1   1   0   38.17    0.92
  -1  -1   0   35.29    0.85
   1   1   1   16.04    0.50
  -1  -1  -1   12.45    0.48
   1   1   1   15.54    0.58
   1   1   1   10.84    0.46
   1   1   2  159.84    2.27
  -1  -1  -2  151.38    1.58
  -1  -1  -2  157.57    2.19
   1   1   2  155.43    1.60
  -1  -1  -2  157.00    1.46
  -1  -1  -2  161.44    1.81
   1   1   2  163.54    1.86
   1   1   3   88.37    1.24
   1   1   3   87.53    1.67
   1   1   3   88.22    2.02
  -1  -1  -3   84.98    1.61
   1   1   3   86.64    1.37
  -1  -1  -3   88.25    1.36
  -1  -1  -4   75.21    1.46
  -1  -1  -4   75.93    2.06
  -1  -1  -4   75.28    1.77
   1   1   4   76.20    1.83
   1   1   4   69.78    1.49
   1   1   4   72.63    2.11
   1   1   4   73.56    1.17
   1   1   5    5.85    0.66
   1   1   5    5.59    0.84
  -1  -1  -5    5.09    0.76
  -1  -1  -5    6.17    0.66
   1   1   5    4.62    1.00
  -1  -1  -5    4.73    0.92
   1   1   6   17.09    1.63
   1   1   6   15.04    1.09
  -1  -1  -6   13.27    0.95
  -1  -1  -6   13.08    1.13
  -1  -1  -6   15.74    1.49
  -1  -1  -7   61.57    1.89
  -1  -1  -7   67.46    2.62
   1   1   7   65.42    2.72
   1   1   7   64.71    2.08
  -1  -1  -7   62.05    2.23
  -1  -1  -8    6.61    1.13
   1   1   8    7.20    1.33
  -1  -1  -8    7.43    1.15
  -1  -1  -8    7.73    0.93
   1   1   8    7.00    0.97
  -1  -1  -9   25.81    1.78
  -1  -1  -9   21.76    1.90
   1   1   9   22.18    1.98
  -1  -1  -9   24.14    1.42
   1   1   9   25.38    1.02
  -1  -1 -10    7.12    1.49
  -1  -1 -10   10.74    1.17
   1   1  10    8.95    1.56
  -1  -1 -10    9.38    1.33
   1   1  10    9.02    0.77
  -1  -1 -11   79.22    3.22
  -1  -1 -11   82.52    2.84
   1   1  11   77.03    1.94
  -1  -1 -11   76.89    3.58
   1   1  11   77.50    3.86
  -1  -1 -12  117.74    3.60
  -1  -1 -12  122.61    4.68
  -1  -1 -12  123.83    4.18
   1   1  12  121.83    2.49
   1   1  13  239.80    3.57
   1   1  13  224.93    7.29
  -1  -1 -13  241.02    6.75
   1   1  13  245.66    3.41
  -1  -1 -13  241.94    6.09
  -1  -1 -13  242.75    5.28
  -1  -1 -14   16.94    1.77
  -1  -1 -14   14.84    2.01
  -1  -1 -14   18.28    2.32
   1   1  14   14.01    0.93
   1   1  14   14.07    1.00
   1   1  15   19.40    1.07
   1   1  15   18.37    1.06
  -1  -1 -15   17.19    1.80
  -1  -1 -15   18.16    2.41
   1   1  16    8.52    0.74
  -1  -1 -16   11.65    2.26
  -1  -1 -17    3.91    1.83
  -1  -2  15    4.19    1.16
  -1  -2  14    3.77    1.00
   1   2 -13  107.54    4.26
  -1  -2  13  106.17    3.42
  -1  -2  13  101.35    5.08
  -1  -2  12    3.26    0.97
  -1  -2  12    1.19    1.53
   1   2 -12    2.95    1.57
   1   2 -12    1.62    1.05
   1   2 -12    1.10    1.17
  -1  -2  11    1.06    0.96
  -1  -2  11   -1.06    1.54
   1   2 -11    1.21    1.06
   1   2 -11   -0.76    1.44
   1   2 -11    0.17    1.15
  -1  -2  10   11.96    1.75
   1   2 -10    9.55    1.74
  -1  -2  10   10.31    1.17
   1   2 -10    7.75    1.30
   1   2 -10    9.67    1.47
  -1  -2   9   14.07    1.77
   1   2  -9   15.34    1.83
   1   2  -9   11.54    1.33
  -1  -2   9   13.53    1.23
  -1  -2   8    2.26    1.06
   1   2  -8    1.95    0.83
  -1  -2   8    1.94    0.77
   1   2  -8    1.84    1.07
   1   2  -7  284.74    5.62
  -1  -2   7  285.80    4.37
  -1  -2   7  288.75    5.60
   1   2  -7  288.47    5.10
  -1  -2   6    3.57    0.94
   1   2  -6    3.97    1.05
   1   2  -6    5.87    0.99
  -1  -2   6    3.60    0.80
  -1  -2   5    5.03    1.04
   1   2  -5    5.97    1.19
  -1  -2   5    8.33    0.93
   1   2  -5    8.61    1.12
  -1  -2   4   40.39    1.52
   1   2  -4   41.75    1.46
  -1  -2   4   44.76    1.87
   1   2  -4   42.54    1.74
   1   2  -3   18.01    0.97
  -1  -2   3   20.39    1.23
  -1  -2   3   19.72    1.06
   1   2  -3   18.00    1.12
   1   2  -2  174.39    2.57
  -1  -2   2  183.45    2.66
  -1  -2   1   89.15    1.82
   1   2  -1   95.20    1.78
  -1  -2   0   70.26    1.52
   1   2   0   69.43    1.46
   1   2   0   73.20    1.32
   1   2   1   79.39    1.47
   1   2   1   76.23    1.18
  -1  -2  -1   78.71    1.50
  -1  -2  -2   38.90    0.99
  -1  -2  -2   37.48    0.87
   1   2   2   36.95    0.88
  -1  -2  -2   36.94    0.68
   1   2   3  452.57    3.46
  -1  -2  -3  456.58    2.92
  -1  -2  -3  460.79    2.42
  -1  -2  -3  462.65    4.94
   1   2   3  447.25    2.39
   1   2   3  454.33    2.93
  -1  -2  -3  454.24    3.40
   1   2   4   64.50    1.62
  -1  -2  -4   63.72    2.14
   1   2   4   65.56    1.09
  -1  -2  -4   65.95    1.17
   1   2   4   61.76    1.19
  -1  -2  -4   62.37    1.55
   1   2   5   75.69    2.66
   1   2   5   76.27    2.02
  -1  -2  -5   75.09    1.48
  -1  -2  -5   74.68    2.44
  -1  -2  -5   74.82    1.93
   1   2   5   76.96    1.16
   1   2   5   72.64    1.52
   1   2   6    6.80    0.76
  -1  -2  -6    7.74    1.23
   1   2   6    7.20    0.45
  -1  -2  -6    7.14    0.72
   1   2   6    4.92    1.35
  -1  -2  -6    6.60    0.90
   1   2   7    5.84    1.37
  -1  -2  -7    4.89    1.23
  -1  -2  -7    8.75    1.12
  -1  -2  -7    7.45    0.80
   1   2   7    6.79    0.86
   1   2   7    6.12    0.45
  -1  -2  -8    8.23    1.08
   1   2   8    7.69    0.48
   1   2   8    6.52    1.51
  -1  -2  -8    5.37    1.31
  -1  -2  -8    6.67    0.77
   1   2   9    4.88    0.44
  -1  -2  -9    5.42    0.77
  -1  -2  -9    4.61    1.13
  -1  -2  -9    4.47    0.89
   1   2   9    5.55    0.44
   1   2   9    3.85    1.31
  -1  -2 -10    1.10    1.01
  -1  -2 -10    1.88    0.99
   1   2  10    1.16    1.26
   1   2  10    2.50    0.36
  -1  -2 -10    2.38    0.78
   1   2  10    2.21    0.35
  -1  -2 -11   58.64    2.32
   1   2  11   50.61    1.23
   1   2  11   55.62    3.47
   1   2  11   53.21    1.25
  -1  -2 -11   50.64    2.94
  -1  -2 -11   55.42    2.67
   1   2  12    2.09    0.35
  -1  -2 -12    1.46    1.50
  -1  -2 -12    2.04    0.86
  -1  -2 -12    3.53    1.20
   1   2  12    3.65    1.78
   1   2  12    1.97    0.40
  -1  -2 -13  272.20    5.33
   1   2  13  256.79    2.68
   1   2  13  250.37    2.65
  -1  -2 -13  260.30    6.21
  -1  -2 -13  280.19    7.25
   1   2  13  268.22    7.99
   1   2  14   20.06    0.69
  -1  -2 -14   20.74    1.69
   1   2  14   23.87    2.95
  -1  -2 -14   21.00    2.07
   1   2  14   16.36    0.64
  -1  -2 -15    5.75    1.25
  -1  -2 -15   15.71    2.52
  -1  -2 -16    1.36    1.59
  -1  -2 -16   -0.56    1.09
  -1  -2 -17    1.76    1.92
  -1  -3  15    2.81    1.29
  -1  -3  14   18.68    1.83
  -1  -3  13    0.54    1.01
   1   3 -12   22.83    2.19
  -1  -3  12   23.50    2.66
  -1  -3  12   16.85    1.66
   1   3 -12   22.27    2.33
  -1  -3  11   48.11    3.23
   1   3 -11   57.86    3.00
  -1  -3  11   54.08    2.57
   1   3 -11   54.41    3.22
  -1  -3  10    6.44    1.13
  -1  -3  10    3.63    1.28
   1   3 -10    6.91    1.49
   1   3 -10    5.93    1.23
   1   3  -9   24.37    1.91
  -1  -3   9   27.80    2.32
  -1  -3   8   22.59    2.10
   1   3  -8   21.06    1.70
  -1  -3   8   16.97    1.51
  -1  -3   7    0.90    0.84
  -1  -3   7    0.43    1.01
   1   3  -7    0.09    0.86
  -1  -3   6    1.35    0.76
  -1  -3   6   -0.21    0.92
   1   3  -6    2.06    0.85
   1   3  -5    3.68    0.94
  -1  -3   5    3.73    0.83
  -1  -3   5    2.62    0.96
  -1  -3   4    7.32    0.98
  -1  -3   4    9.71    1.20
   1   3  -4   10.04    1.06
   1   3  -3   61.46    1.88
  -1  -3   3   58.22    2.13
   1   3  -3   63.14    2.02
  -1  -3   3   59.42    1.92
   1   3  -2  118.17    2.47
  -1  -3   2  110.58    2.40
   1   3  -2  111.39    2.39
  -1  -3   1  120.34    2.37
   1   3  -1  131.51    2.44
  -1  -3   0   88.28    1.94
   1   3   0   93.21    1.60
   1   3   0   93.75    1.98
   1   3   1    3.56    0.35
  -1  -3  -1    4.07    0.65
   1   3   1    3.16    0.60
  -1  -3  -1    3.92    0.43
   1   3   2   39.58    0.87
   1   3   2   40.18    1.19
  -1  -3  -2   41.43    1.22
  -1  -3  -3    8.40    0.55
   1   3   3    8.83    0.61
  -1  -3  -3    7.81    0.60
   1   3   3    9.69    0.62
   1   3   4   15.98    0.68
  -1  -3  -4   17.27    0.84
   1   3   4   14.77    0.49
  -1  -3  -4   15.61    0.47
  -1  -3  -4   15.98    0.72
   1   3   4   17.68    0.88
  -1  -3  -5   23.35    0.72
  -1  -3  -5   24.59    1.82
  -1  -3  -5   23.33    1.10
  -1  -3  -5   23.26    0.74
   1   3   5   23.96    0.82
   1   3   5   24.69    0.74
   1   3   5   21.90    1.17
   1   3   6  259.38    2.01
  -1  -3  -6  255.80    3.70
   1   3   6  262.27    2.98
  -1  -3  -7   12.53    1.54
   1   3   7   11.94    0.45
  -1  -3  -7   12.79    1.10
  -1  -3  -7   13.96    0.81
  -1  -3  -8    6.11    1.39
  -1  -3  -8    6.10    0.93
   1   3   8    8.94    1.43
  -1  -3  -8    7.79    0.73
  -1  -3  -9   20.74    1.50
  -1  -3  -9   22.29    1.94
   1   3   9   21.80    2.21
  -1  -3  -9   23.50    1.22
  -1  -3 -10    4.40    1.05
  -1  -3 -10    1.34    1.36
  -1  -3 -10    1.59    0.64
   1   3  10    3.51    1.51
  -1  -3 -11   43.25    2.35
   1   3  11   49.72    3.40
  -1  -3 -11   43.80    2.83
  -1  -3 -11   46.26    1.93
  -1  -3 -12    6.90    1.39
  -1  -3 -12    3.98    0.95
   1   3  12    1.19    1.67
  -1  -3 -12    3.88    1.68
  -1  -3 -13   22.86    1.98
   1   3  13   27.64    3.16
  -1  -3 -13   21.24    2.33
  -1  -3 -13   20.01    1.55
   1   3  14   26.80    3.18
  -1  -3 -14   28.26    2.65
  -1  -3 -14   32.55    1.98
  -1  -3 -14   31.64    2.41
  -1  -3 -15    8.88    1.75
  -1  -3 -15   10.47    1.33
  -1  -3 -15   10.18    2.02
  -1  -3 -16    6.88    1.22
  -1  -3 -16    7.92    2.15
  -1  -3 -17    1.61    1.80
  -1  -3 -17    5.00    1.42
  -1  -4  14   -0.61    1.28
  -1  -4  13    3.69    1.26
  -1  -4  12   90.23    3.64
   1   4 -11    1.29    1.18
  -1  -4  11    3.28    1.80
  -1  -4  11    5.79    1.37
   1   4 -11    5.52    1.53
  -1  -4  10    0.14    1.26
   1   4 -10    0.64    1.29
  -1  -4  10    1.91    1.06
   1   4 -10    0.52    1.04
  -1  -4   9   43.80    2.34
   1   4  -9   45.38    2.58
   1   4  -9   48.17    2.76
  -1  -4   9   44.14    3.01
   1   4  -8   -0.60    0.94
  -1  -4   8    0.55    0.84
  -1  -4   8   -0.69    1.22
  -1  -4   7    2.49    1.29
  -1  -4   7    1.57    0.95
   1   4  -7   -0.01    0.87
  -1  -4   6   53.44    2.33
   1   4  -6   56.80    2.40
  -1  -4   6   59.31    2.69
  -1  -4   5    0.47    0.79
   1   4  -5    0.99    0.78
  -1  -4   5   -0.03    0.97
  -1  -4   4   11.74    1.37
   1   4  -4   13.11    1.23
  -1  -4   4    9.24    1.18
   1   4  -3    5.03    0.94
  -1  -4   3    4.28    0.88
  -1  -4   2  143.31    3.09
   1   4  -2  147.73    2.91
   1   4  -2  144.51    2.98
   1   4  -1   22.62    1.27
  -1  -4   1   20.61    1.24
   1   4  -1   22.24    1.15
   1   4   0   15.24    0.85
   1   4   0   17.12    1.11
  -1  -4   0   15.71    1.11
   1   4   0   14.58    0.77
   1   4   1   10.28    0.53
  -1  -4  -1   10.85    0.90
   1   4   1   12.84    0.69
   1   4   1   10.37    0.85
  -1  -4  -2  143.45    2.55
   1   4   2  143.89    1.55
   1   4   2  148.16    1.55
   1   4   2  145.54    2.51
  -1  -4  -2  145.57    1.60
  -1  -4  -3   18.79    0.68
  -1  -4  -3   18.44    0.98
   1   4   3   19.53    0.96
   1   4   3   17.58    0.68
   1   4   4  324.38    3.27
   1   4   4  329.79    3.16
  -1  -4  -4  328.79    3.38
  -1  -4  -4  336.93    3.06
  -1  -4  -5   56.06    1.37
   1   4   5   53.90    1.58
   1   4   5   55.03    1.28
  -1  -4  -5   53.42    1.48
  -1  -4  -5   49.76    0.76
  -1  -4  -6  137.53    1.84
  -1  -4  -6  144.53    4.21
   1   4   6  141.85    1.78
  -1  -4  -6  140.72    1.63
  -1  -4  -6  135.61    2.58
  -1  -4  -7   59.65    1.01
   1   4   7   69.81    1.07
  -1  -4  -7   75.10    1.45
  -1  -4  -7   56.34    2.82
  -1  -4  -7   72.46    2.12
  -1  -4  -8  253.00    4.23
  -1  -4  -8  254.43    3.01
  -1  -4  -9    1.46    0.78
  -1  -4  -9    0.78    1.29
  -1  -4  -9    0.68    0.50
  -1  -4 -10    4.33    0.70
  -1  -4 -10    3.98    0.95
  -1  -4 -10    5.24    1.41
  -1  -4 -11   40.33    2.80
  -1  -4 -11   43.05    1.71
  -1  -4 -11   43.65    2.30
  -1  -4 -12   27.24    2.63
  -1  -4 -12   23.59    1.45
  -1  -4 -12   26.50    2.02
  -1  -4 -13    1.30    1.11
  -1  -4 -13    1.20    0.77
  -1  -4 -13    2.73    1.73
  -1  -4 -14  116.09    4.26
  -1  -4 -14  124.94    3.47
  -1  -4 -15    5.72    1.48
  -1  -4 -15    6.21    1.17
  -1  -4 -15    2.77    1.62
  -1  -4 -16    5.21    1.17
  -1  -4 -16    2.76    1.78
  -1  -4 -17    4.72    2.24
  -1  -4 -17   -0.17    0.92
  -1  -5  14    0.93    1.33
  -1  -5  13    1.85    1.25
  -1  -5  12    4.90    1.38
  -1  -5  11   69.59    3.35
  -1  -5  11   62.55    3.94
   1   5 -11   61.61    3.50
  -1  -5  10   32.22    2.84
   1   5 -10   32.05    2.37
  -1  -5  10   28.22    2.32
   1   5  -9   13.56    1.70
  -1  -5   9   12.29    1.58
   1   5  -9   14.03    1.80
  -1  -5   9   14.93    1.88
  -1  -5   8   -0.10    1.17
  -1  -5   8    0.39    0.94
   1   5  -8    0.25    0.98
   1   5  -8    0.22    1.02
  -1  -5   7   38.46    2.26
  -1  -5   7   36.16    2.49
   1   5  -7   41.53    2.29
   1   5  -6    0.50    0.84
  -1  -5   6    0.29    0.88
  -1  -5   6    0.08    1.01
  -1  -5   5    0.04    1.09
  -1  -5   5    0.24    0.76
   1   5  -5   -0.66    0.88
  -1  -5   4   18.34    1.46
   1   5  -4   18.36    1.38
  -1  -5   3   16.41    1.37
   1   5  -3   14.22    1.17
   1   5  -2    2.05    0.72
  -1  -5   2    2.30    0.94
  -1  -5   1   42.64    1.93
   1   5  -1   47.11    1.63
   1   5   0   56.70    2.03
  -1  -5   0   53.90    2.05
   1   5   0   52.61    1.38
   1   5   0   54.62    1.56
   1   5   1   35.75    1.55
   1   5   1   33.26    1.10
  -1  -5  -1   34.74    1.58
   1   5   1   33.24    0.89
   1   5   2   70.28    1.26
  -1  -5  -2   69.86    2.08
   1   5   2   70.68    2.00
   1   5   2   64.66    1.03
  -1  -5  -3   11.36    0.97
   1   5   3    9.40    0.53
   1   5   3    9.86    0.90
  -1  -5  -3   12.00    0.55
  -1  -5  -4    2.23    0.43
   1   5   4    2.59    0.63
  -1  -5  -4    3.07    0.69
   1   5   4    2.39    0.50
   1   5   5  121.79    2.16
  -1  -5  -5  126.83    2.34
  -1  -5  -5  127.71    2.10
  -1  -5  -6   17.57    0.91
   1   5   6   17.27    0.81
  -1  -5  -6   17.57    1.02
  -1  -5  -7   97.77    1.70
  -1  -5  -7   93.29    1.26
  -1  -5  -7   95.70    2.34
  -1  -5  -8   19.78    0.75
  -1  -5  -8   16.57    1.94
  -1  -5  -8   20.43    1.26
  -1  -5  -8   17.49    0.58
  -1  -5  -9   45.84    1.97
  -1  -5  -9   44.46    2.93
  -1  -5  -9   44.85    1.28
  -1  -5 -10    3.44    0.56
  -1  -5 -10    4.00    0.97
  -1  -5 -10    3.86    1.61
  -1  -5 -11   -0.49    1.44
  -1  -5 -11    1.60    0.89
  -1  -5 -11    0.69    0.53
  -1  -5 -12   -0.24    0.59
  -1  -5 -12    0.94    0.91
  -1  -5 -12   -0.77    1.43
  -1  -5 -13  112.28    2.91
  -1  -5 -13  105.87    3.85
  -1  -5 -14   78.08    3.52
  -1  -5 -14   88.73    4.65
  -1  -5 -14   86.41    2.78
  -1  -5 -15   -0.34    1.73
  -1  -5 -15    2.44    1.23
  -1  -5 -15    0.74    0.82
  -1  -5 -16   25.92    3.15
  -1  -5 -16   17.84    1.61
  -1  -5 -17    1.48    1.76
  -1  -6  13   16.81    2.19
  -1  -6  12    0.09    1.35
  -1  -6  11  143.21    5.07
  -1  -6  10    0.68    1.41
   1   6 -10    0.74    1.21
   1   6 -10    1.90    1.30
  -1  -6  10   -0.05    1.21
  -1  -6   9    6.98    1.49
   1   6  -9    7.79    1.48
  -1  -6   9    3.56    1.45
   1   6  -9    4.43    1.27
  -1  -6   8   17.44    1.88
  -1  -6   8   15.58    2.06
   1   6  -8   17.54    1.91
   1   6  -8   15.06    1.78
   1   6  -7   11.57    1.49
  -1  -6   7    8.99    1.80
  -1  -6   7   10.30    1.52
   1   6  -7    9.49    1.35
  -1  -6   6    1.18    1.09
   1   6  -6    4.01    1.09
  -1  -6   6    3.76    1.14
  -1  -6   5   19.86    1.84
   1   6  -5   15.29    1.39
  -1  -6   5   17.58    1.64
   1   6  -4    3.33    0.90
  -1  -6   4    1.50    0.94
   1   6  -3   27.83    1.63
  -1  -6   3   23.96    1.74
   1   6  -2    0.41    0.64
  -1  -6   2    0.17    0.75
   1   6  -1  614.10    5.96
  -1  -6   1  631.20    7.34
   1   6   0   38.50    1.21
  -1  -6   0   35.24    1.85
   1   6   0   38.09    1.42
  -1  -6  -1   97.56    2.79
   1   6   1  101.86    1.98
   1   6   1   98.88    1.48
  -1  -6  -2   49.31    1.94
   1   6   2   47.39    0.85
   1   6   2   48.73    1.18
  -1  -6  -3   82.75    2.42
  -1  -6  -3   83.34    1.23
   1   6   3   79.87    1.13
   1   6   3   84.44    1.14
   1   6   4    5.71    0.47
  -1  -6  -4    6.17    0.44
  -1  -6  -4    5.01    0.81
  -1  -6  -5  419.65    3.43
  -1  -6  -5  411.74    4.82
  -1  -6  -6    3.22    0.53
  -1  -6  -6    3.38    0.66
  -1  -6  -7    9.40    0.78
  -1  -6  -7    8.38    0.80
  -1  -6  -8    1.65    1.26
  -1  -6  -8    0.36    0.38
  -1  -6  -8   -0.99    0.69
  -1  -6  -9    6.44    1.80
  -1  -6  -9    6.37    0.92
  -1  -6  -9    5.52    0.42
  -1  -6  -9    4.85    0.36
  -1  -6 -10    6.72    1.91
  -1  -6 -10    7.54    1.08
  -1  -6 -10    7.71    0.60
  -1  -6 -11   10.91    0.76
  -1  -6 -11    9.27    1.83
  -1  -6 -11   12.43    1.46
  -1  -6 -12   19.22    2.49
  -1  -6 -12   15.17    1.00
  -1  -6 -12   18.20    1.62
  -1  -6 -13    1.15    1.50
  -1  -6 -13    1.15    0.96
  -1  -6 -13    1.62    0.59
  -1  -6 -14    4.01    1.85
  -1  -6 -14    3.50    0.74
  -1  -6 -14    3.85    1.13
  -1  -6 -15   39.37    1.86
  -1  -6 -15   39.65    3.49
  -1  -6 -15   39.89    2.69
  -1  -6 -16    1.42    1.75
  -1  -7  12    6.56    1.86
  -1  -7  11   22.60    2.45
   1   7 -10   -1.77    1.21
  -1  -7  10    1.05    1.40
  -1  -7   9    0.97    1.35
   1   7  -9    0.12    1.17
   1   7  -9    0.09    1.14
  -1  -7   9    1.31    1.36
   1   7  -8    1.47    1.14
  -1  -7   8    3.28    1.62
   1   7  -8    1.60    1.08
  -1  -7   8    1.60    1.28
  -1  -7   7    4.84    1.59
   1   7  -7    5.36    1.25
   1   7  -7    5.11    1.27
  -1  -7   7    5.86    1.52
   1   7  -6   21.30    1.68
   1   7  -6   19.74    1.79
  -1  -7   6   23.56    2.12
  -1  -7   6   21.97    2.25
  -1  -7   5    2.92    1.41
  -1  -7   5    5.46    1.43
   1   7  -5    4.28    1.02
   1   7  -5    2.66    0.95
   1   7  -4    1.60    0.81
  -1  -7   4    2.81    1.12
  -1  -7   3   78.10    3.12
   1   7  -3   85.52    2.73
  -1  -7   2   46.57    2.38
   1   7  -2   51.28    2.04
   1   7  -1    1.62    0.62
  -1  -7   1    1.15    0.84
   1   7  -1    1.68    0.61
  -1  -7   0    2.80    0.95
   1   7   0    4.29    0.54
   1   7   0    3.13    0.65
  -1  -7  -1   24.10    1.61
   1   7   1   23.93    0.76
   1   7   1   26.36    1.15
  -1  -7  -2    7.31    1.04
   1   7   2    5.20    0.55
  -1  -7  -3    6.68    0.97
   1   7   3    7.46    0.46
  -1  -7  -4    4.80    0.85
  -1  -7  -4    4.02    0.31
  -1  -7  -5   11.55    0.58
  -1  -7  -5   11.72    1.09
  -1  -7  -6    2.52    0.73
  -1  -7  -6    1.48    0.43
  -1  -7  -7    1.08    0.49
  -1  -7  -7    1.31    0.58
  -1  -7  -8   54.77    3.50
  -1  -7  -8   54.08    1.79
  -1  -7  -8   55.89    1.71
  -1  -7  -9    0.67    0.70
  -1  -7  -9   -0.05    0.37
  -1  -7  -9    1.54    1.39
  -1  -7 -10    5.90    0.90
  -1  -7 -10    4.64    1.76
  -1  -7 -11    2.07    0.89
  -1  -7 -11    1.71    0.29
  -1  -7 -12   -0.26    0.87
  -1  -7 -12   -0.11    0.33
  -1  -7 -13    0.15    1.52
  -1  -7 -13   -0.22    0.46
  -1  -7 -13    1.27    0.95
  -1  -7 -14    8.64    1.39
  -1  -7 -14    8.10    2.19
  -1  -7 -14    8.39    0.82
  -1  -7 -15    2.39    0.70
  -1  -7 -15    1.96    1.19
  -1  -7 -15   -0.33    1.85
  -1  -7 -16    2.49    2.01
  -1  -8  11    6.72    1.96
  -1  -8  10   53.59    3.52
   1   8  -9   -0.57    1.10
  -1  -8   9   -0.08    1.33
   1   8  -8    0.41    1.10
  -1  -8   8   -0.45    1.26
   1   8  -8   -0.53    1.17
   1   8  -7    1.04    1.17
   1   8  -7   -0.23    1.07
  -1  -8   7    0.60    1.44
  -1  -8   7    2.38    1.37
  -1  -8   6   39.88    2.76
   1   8  -6   37.55    2.36
   1   8  -6   38.08    2.24
   1   8  -5    4.66    1.11
  -1  -8   5    3.27    1.30
   1   8  -5    3.51    1.12
   1   8  -4    0.80    0.72
  -1  -8   4    1.78    1.24
   1   8  -4    0.95    0.98
   1   8  -3    2.76    0.89
  -1  -8   3    1.58    1.14
   1   8  -3    3.13    0.79
   1   8  -2   56.27    1.91
  -1  -8   2   55.99    2.81
   1   8  -2   54.37    2.19
  -1  -8   1    2.17    1.08
   1   8  -1    1.41    0.72
   1   8  -1    1.13    0.54
   1   8  -1    1.56    0.53
  -1  -8   0   27.27    1.99
   1   8   0   25.24    1.36
   1   8   0   24.17    0.96
   1   8   0   26.21    1.01
   1   8   1    5.81    0.41
   1   8   1    5.89    0.72
  -1  -8  -1    5.88    1.21
   1   8   1    5.24    0.40
   1   8   2   10.21    0.72
  -1  -8  -2    8.99    1.22
   1   8   3    0.88    0.36
  -1  -8  -3    1.91    0.91
  -1  -8  -4   90.03    2.94
  -1  -8  -5    0.69    0.70
  -1  -8  -6    0.18    0.68
  -1  -8  -6    0.38    0.27
  -1  -8  -7   10.45    0.72
  -1  -8  -7   11.60    1.10
  -1  -8  -8    8.93    0.93
  -1  -8  -8    6.73    0.74
  -1  -8  -9    8.92    2.12
  -1  -8  -9    6.87    0.76
  -1  -8  -9    8.38    0.88
  -1  -8 -10   35.68    1.72
  -1  -8 -10   31.64    1.12
  -1  -8 -10   33.47    3.19
  -1  -8 -11    1.74    0.82
  -1  -8 -11    1.13    1.62
  -1  -8 -12    5.75    1.08
  -1  -8 -12    4.41    2.16
  -1  -8 -13    6.13    2.08
  -1  -8 -13    2.78    0.99
  -1  -8 -14    0.45    1.01
  -1  -8 -14   -0.17    1.62
  -1  -8 -14    0.11    0.25
  -1  -8 -15   -3.78    2.21
  -1  -8 -15    2.77    1.21
  -1  -8 -16    0.53    1.95
  -1  -9  10   40.81    3.38
   1   9  -9   51.84    3.12
  -1  -9   9   62.64    3.94
   1   9  -8   16.92    1.89
  -1  -9   8   17.47    2.29
   1   9  -7   10.12    1.72
   1   9  -7    9.85    1.47
  -1  -9   7    6.85    1.77
  -1  -9   6   -1.41    1.54
   1   9  -6    1.73    1.00
  -1  -9   6   -1.65    1.69
   1   9  -6   -0.26    1.01
   1   9  -5    3.80    1.16
  -1  -9   5    2.16    1.36
   1   9  -5    4.34    1.12
  -1  -9   4   21.11    2.16
   1   9  -4   21.82    1.54
   1   9  -4   23.48    1.83
   1   9  -3    8.20    1.23
   1   9  -3    7.96    0.99
  -1  -9   3    9.29    1.65
  -1  -9   2    0.62    1.18
   1   9  -2    0.08    0.63
   1   9  -2    0.72    0.82
   1   9  -2   -0.05    0.58
   1   9  -1    2.87    0.64
   1   9  -1    2.25    0.75
   1   9  -1    2.73    0.56
   1   9   0    5.13    0.52
  -1  -9   0    4.53    1.20
   1   9   0    4.88    0.83
   1   9   0    5.67    0.56
   1   9   1   -0.39    0.59
  -1  -9  -1   -0.83    0.96
  -1  -9  -2    5.02    1.21
   1   9   2    7.37    0.76
  -1  -9  -3    6.28    1.22
   1   9   3    8.39    0.65
   1   9   4    4.96    0.34
  -1  -9  -4    7.46    1.13
  -1  -9  -5   12.99    1.46
  -1  -9  -6   19.42    1.58
  -1  -9  -7   28.72    1.74
  -1  -9  -7   24.06    0.79
  -1  -9  -8   15.60    0.82
  -1  -9  -8   15.60    1.31
  -1  -9  -9    2.29    0.59
  -1  -9  -9    2.38    0.67
  -1  -9 -10    8.69    0.88
  -1  -9 -10    8.70    0.84
  -1  -9 -11    1.51    1.80
  -1  -9 -11    1.25    0.36
  -1  -9 -11    1.61    0.73
  -1  -9 -12    0.53    1.76
  -1  -9 -12    0.54    0.74
  -1  -9 -13    8.64    2.42
  -1  -9 -13    6.80    1.18
  -1  -9 -14    2.80    1.07
  -1  -9 -14    3.16    1.76
  -1  -9 -15    0.22    2.12
  -1  -9 -15    1.36    0.96
  -1 -10   8    4.99    1.77
   1  10  -8    5.10    1.41
   1  10  -7    8.30    1.41
  -1 -10   7    8.95    1.92
   1  10  -6    0.36    1.18
  -1 -10   6   -1.48    1.38
   1  10  -6    0.55    0.96
  -1 -10   5   15.46    2.14
   1  10  -5   14.48    1.65
   1  10  -5   15.55    1.53
   1  10  -4    6.46    1.25
   1  10  -4    7.32    1.19
   1  10  -4    4.34    0.99
  -1 -10   4    5.89    1.65
   1  10  -3   20.26    1.73
   1  10  -3   21.61    1.50
  -1 -10   3   16.38    1.94
   1  10  -3   16.95    1.31
   1  10  -2   -0.25    0.89
   1  10  -2    0.60    0.62
   1  10  -2   -0.34    0.56
  -1 -10   2   -0.61    1.14
   1  10  -1    7.87    1.04
  -1 -10   1    5.70    1.36
   1  10  -1    8.12    0.69
   1  10  -1    8.91    0.76
   1  10   0    0.35    0.65
   1  10   0    0.24    0.27
   1  10   0    1.35    0.35
  -1 -10  -1    7.08    1.38
   1  10   1    6.59    0.90
  -1 -10  -2    0.33    1.06
   1  10   2    1.59    0.63
   1  10   3   54.36    1.45
  -1 -10  -3   48.79    2.75
  -1 -10  -4   -0.79    0.99
   1  10   4    0.23    0.20
  -1 -10  -5   10.26    1.39
  -1 -10  -6   16.30    1.57
  -1 -10  -7   -0.07    0.87
  -1 -10  -8    6.32    1.08
  -1 -10  -9   -0.06    0.34
  -1 -10  -9   -0.54    0.79
  -1 -10 -10    4.29    0.63
  -1 -10 -10    5.23    0.89
  -1 -10 -11   34.57    3.67
  -1 -10 -11   39.38    1.49
  -1 -10 -11   38.89    1.64
  -1 -10 -12    6.04    2.40
  -1 -10 -12    4.05    0.86
  -1 -10 -13    1.22    0.83
  -1 -10 -13    3.04    2.22
  -1 -10 -14    3.57    2.45
  -1 -11   7    6.58    2.10
  -1 -11   6    8.13    2.08
   1  11  -6    6.00    1.20
   1  11  -5    2.92    1.35
   1  11  -5    1.39    1.03
   1  11  -5    2.10    0.97
  -1 -11   5    0.21    1.40
   1  11  -4    0.74    0.82
  -1 -11   4    1.40    1.51
   1  11  -4    1.91    1.04
   1  11  -4    1.55    0.81
   1  11  -3   13.07    1.52
  -1 -11   3   14.15    1.94
   1  11  -3   16.45    1.20
   1  11  -3   18.29    1.34
  -1 -11   2    5.75    1.63
   1  11  -2    6.72    1.14
   1  11  -2    6.93    0.76
   1  11  -2    5.00    0.73
   1  11  -1    7.11    0.59
   1  11  -1    5.58    0.56
  -1 -11   1    8.68    1.63
   1  11  -1    8.36    1.17
   1  11   0    0.73    0.72
  -1 -11   0    0.31    1.24
   1  11   1    7.13    0.95
  -1 -11  -1    6.59    1.53
  -1 -11  -2    4.13    1.38
   1  11   2    2.12    0.60
   1  11   3    0.69    0.41
  -1 -11  -3    0.64    1.16
   1  11   4   38.80    0.90
  -1 -11  -4   42.86    2.64
  -1 -11  -5    5.32    1.38
  -1 -11  -6    1.20    1.04
  -1 -11  -7   -1.07    0.95
  -1 -11  -8   -1.24    0.89
  -1 -11  -9   10.23    1.30
  -1 -11 -10    4.89    1.01
  -1 -11 -10    2.48    0.35
  -1 -11 -10    1.37    2.02
  -1 -11 -11    0.51    0.65
  -1 -11 -11    3.78    2.36
  -1 -11 -12   -5.06    2.53
  -1 -11 -13    0.74    2.30
   1  12  -4    2.34    1.18
  -1 -12   4    3.27    1.56
   1  12  -4    1.63    0.79
   1  12  -3   -0.59    1.05
   1  12  -3    0.90    0.62
   1  12  -2    7.74    0.68
   1  12  -2    9.17    1.36
   1  12  -1    1.06    0.87
  -1 -12   1    1.19    1.38
  -1 -12   0   -1.94    1.50
   1  12   0   -0.69    0.67
   1  12   1    4.14    0.86
  -1 -12  -1    6.44    1.67
  -1 -12  -2    4.11    1.43
   1  12   2    4.36    0.75
   1  12   3   19.51    1.02
  -1 -12  -3   21.90    2.22
  -1 -12  -4    3.55    1.47
   1  12   4    0.37    0.19
  -1 -12  -5    2.37    1.23
  -1 -12  -6   -0.66    1.09
  -1 -12  -7    1.45    1.12
  -1 -12  -8   31.03    2.19
  -1 -12  -9    8.89    1.25
  -1 -12 -10   -0.66    0.81
  -1 -12 -11    0.06    1.94
  -1 -12 -12    1.32    2.11
   1  13  -2   -0.03    0.93
  -1 -13   2    1.47    1.59
  -1 -13   1    3.08    1.72
   1  13  -1    2.21    0.93
  -1 -13   0    0.48    1.39
   1  13   0    0.72    0.77
  -1 -13  -1    4.24    1.60
  -1 -13  -2   10.36    1.97
  -1 -13  -3    4.12    1.40
  -1 -13  -4    0.63    1.24
  -1 -13  -5    5.38    1.48
  -1 -13  -6    1.87    1.27
  -1 -13  -7    0.47    1.19
  -1 -13  -8   -0.18    1.02
  -1 -13  -9   -0.26    1.18
  -1 -14  -3    8.36    1.85
  -1 -14  -4    1.84    1.39
  -1 -14  -5    2.36    1.41
  -1 -14  -6    1.30    1.35
   2 -13  -4    0.86    1.22
   2 -13  -3    3.56    1.50
   2 -13  -2    5.16    1.64
   2 -13  -1   -0.99    1.36
   2 -12  -8    0.36    1.00
   2 -12  -7   16.16    1.73
   2 -12  -6    7.53    1.45
   2 -12  -5   -1.05    1.10
   2 -12  -4    1.30    1.10
   2 -12  -3    0.22    1.11
  -2  12   2   13.53    1.17
   2 -12  -2   19.54    2.18
   2 -12  -1    0.07    1.19
  -2  12   1   -0.01    0.70
  -2  12   0    3.88    1.22
   2 -12   0    3.34    1.46
   2 -12   1    7.02    1.78
  -2  12  -1    5.26    1.14
   2 -12   2    8.37    1.99
  -2  12  -2    5.99    1.23
   2 -12   3    0.80    1.56
  -2  12  -3    0.53    1.03
   2 -11 -11    0.45    2.08
   2 -11 -10    2.35    2.12
   2 -11  -9    4.44    0.99
   2 -11  -8    0.75    0.85
   2 -11  -7   28.37    1.99
   2 -11  -6   23.64    1.95
   2 -11  -5    2.93    1.19
   2 -11  -4   21.20    2.02
   2 -11  -3    7.21    1.44
  -2  11   3    7.14    0.87
   2 -11  -2   -0.15    1.11
  -2  11   2    0.45    0.60
   2 -11  -1    8.68    1.62
  -2  11   1    7.81    1.00
   2 -11   0   45.01    3.05
  -2  11   0   42.49    2.14
  -2  11  -1    6.99    1.17
   2 -11   1    6.73    1.69
   2 -11   2   11.95    1.96
  -2  11  -2    8.57    1.26
   2 -11   3    2.33    1.44
  -2  11  -3    3.42    1.13
  -2  11  -4   -0.49    1.01
   2 -11   4   -1.84    1.50
   2 -11   5    0.17    1.59
   2 -10 -12   -0.54    1.83
   2 -10 -11    1.98    2.08
   2 -10 -10   -0.30    0.42
   2 -10 -10   -0.46    0.56
   2 -10  -9    0.03    0.73
   2 -10  -9    0.88    1.96
   2 -10  -8    0.57    0.80
   2 -10  -7   53.05    2.41
   2 -10  -6   19.48    1.67
   2 -10  -5   23.23    1.85
   2 -10  -4   13.51    1.56
   2 -10  -4   14.49    0.91
  -2  10   4   15.98    0.98
   2 -10  -3    4.47    1.14
   2 -10  -3    3.15    0.70
  -2  10   3    3.14    0.67
   2 -10  -2    8.19    1.46
  -2  10   2    8.64    0.95
   2 -10  -2    8.48    0.97
  -2  10   1   55.64    2.16
   2 -10  -1   55.31    3.02
   2 -10  -1   53.22    2.29
   2 -10   0    6.02    1.41
  -2  10   0    7.45    1.09
   2 -10   0    8.37    1.17
   2 -10   1    2.59    1.05
  -2  10  -1    3.48    0.90
   2 -10   1    4.32    1.36
  -2  10  -2    3.29    0.36
   2 -10   2    2.82    1.26
  -2  10  -2    5.78    1.12
   2 -10   2    3.58    1.10
   2 -10   3    6.70    1.46
   2 -10   3    5.13    1.27
  -2  10  -3    7.91    1.33
  -2  10  -3    7.36    0.68
   2 -10   4    1.30    1.37
  -2  10  -4    0.99    0.61
  -2  10  -4   -1.05    1.04
   2 -10   5   23.92    2.61
  -2  10  -5   26.51    2.12
  -2  10  -5   22.83    1.49
   2 -10   6    1.80    1.60
  -2  10  -6    0.42    0.73
   2 -10   7    8.61    1.87
  -2  10  -7    5.38    1.09
   2 -10   8   -0.53    1.67
   2  -9 -13    1.40    1.04
   2  -9 -13   -1.36    1.94
   2  -9 -12    1.76    0.95
   2  -9 -12   -1.05    1.84
   2  -9 -11    2.95    0.89
   2  -9 -11    3.15    0.91
   2  -9 -10   16.48    1.16
   2  -9 -10   15.27    2.70
   2  -9 -10   13.86    0.85
   2  -9 -10   13.93    0.83
   2  -9 -10   15.28    1.26
   2  -9  -9    2.65    0.71
   2  -9  -9    1.22    0.54
   2  -9  -9    0.39    1.79
   2  -9  -9    2.12    0.65
   2  -9  -9    2.42    0.60
   2  -9  -8    8.81    0.63
   2  -9  -8    6.94    0.64
   2  -9  -7   77.22    2.62
   2  -9  -6  158.72    1.62
   2  -9  -6  193.99    4.26
   2  -9  -5    1.06    0.86
   2  -9  -4    0.93    0.43
  -2   9   4    0.82    0.49
   2  -9  -4    0.07    0.85
  -2   9   3    1.10    0.56
   2  -9  -3   -0.14    0.95
   2  -9  -3    1.07    0.60
   2  -9  -2    1.09    0.96
   2  -9  -2    2.55    0.65
  -2   9   2    2.68    0.66
   2  -9  -1    0.95    0.65
   2  -9  -1    0.72    1.06
  -2   9   1    1.15    0.65
   2  -9   0   27.53    2.11
   2  -9   0   23.71    1.60
  -2   9   0   24.57    1.48
   2  -9   1   45.20    2.24
  -2   9  -1   43.11    2.00
   2  -9   1   45.16    2.67
  -2   9  -2    5.72    0.58
  -2   9  -2    5.38    1.05
   2  -9   2    6.10    1.07
   2  -9   2    5.03    1.33
   2  -9   3    5.22    1.30
  -2   9  -3    3.91    0.64
  -2   9  -3    4.07    1.07
   2  -9   4    1.27    1.27
  -2   9  -4    0.21    0.92
   2  -9   4    0.98    1.08
  -2   9  -4    0.22    0.69
   2  -9   5   -1.12    1.44
  -2   9  -5   -0.04    0.98
   2  -9   5    1.49    1.23
  -2   9  -5   -0.62    0.73
  -2   9  -6   12.94    1.71
   2  -9   6   14.85    2.11
  -2   9  -6   10.50    1.26
  -2   9  -7   35.00    2.10
   2  -9   7   37.81    3.05
   2  -9   8   -0.43    1.51
  -2   9  -8    0.70    1.03
   2  -9   9    0.57    1.50
  -2   9  -9   -1.16    1.17
   2  -9  10    4.50    1.74
   2  -8 -14   16.07    2.87
   2  -8 -13    2.60    1.85
   2  -8 -13    5.03    1.23
   2  -8 -12    0.32    0.34
   2  -8 -12    0.57    0.38
   2  -8 -12    0.75    0.81
   2  -8 -12    0.72    1.77
   2  -8 -11    0.11    0.28
   2  -8 -11    0.82    0.75
   2  -8 -10    0.94    0.22
   2  -8 -10    1.69    0.82
   2  -8 -10    1.01    0.26
   2  -8 -10    1.00    0.28
   2  -8 -10    1.89    1.69
   2  -8 -10    1.19    0.79
   2  -8  -9   -0.07    0.73
   2  -8  -9   -0.11    0.47
   2  -8  -9    1.12    1.83
   2  -8  -9    0.32    0.66
   2  -8  -9    0.87    0.51
   2  -8  -9   -0.08    0.19
   2  -8  -8    1.95    0.56
   2  -8  -8    1.69    0.25
   2  -8  -8    2.21    0.29
   2  -8  -8    1.79    0.63
   2  -8  -8    2.13    0.64
   2  -8  -7   66.89    1.74
   2  -8  -7   63.98    1.12
   2  -8  -7   70.39    1.66
   2  -8  -7   70.93    2.29
   2  -8  -6  526.11    3.27
   2  -8  -6  517.92    6.37
   2  -8  -6  526.58    3.59
   2  -8  -5    5.09    0.95
   2  -8  -5    4.65    0.48
  -2   8   4   27.84    1.22
   2  -8  -4   27.12    1.74
   2  -8  -4   27.47    1.09
   2  -8  -3   -0.46    0.93
   2  -8  -3    1.11    0.55
  -2   8   3    0.95    0.56
   2  -8  -2   33.67    1.47
  -2   8   2   35.30    1.46
   2  -8  -1    2.47    0.73
  -2   8   1    1.36    0.64
   2  -8  -1    2.88    0.92
  -2   8   0   35.56    1.65
   2  -8   0   31.20    1.65
   2  -8   0   37.23    2.23
   2  -8   1    6.80    1.29
   2  -8   1    5.48    0.90
  -2   8  -1    5.13    0.90
  -2   8  -1    4.80    0.45
   2  -8   2    1.35    1.06
  -2   8  -2    0.08    0.42
  -2   8  -2   -0.51    0.83
   2  -8   2    0.10    0.82
   2  -8   3    0.28    0.93
  -2   8  -3   -0.05    0.52
  -2   8  -4   22.47    1.74
   2  -8   4   22.25    1.82
  -2   8  -4   22.63    1.35
   2  -8   4   19.59    1.97
   2  -8   5    8.55    1.49
   2  -8   5    9.79    1.78
  -2   8  -5   10.09    1.15
  -2   8  -5    8.13    1.37
   2  -8   6   16.55    1.93
  -2   8  -6   19.49    1.83
   2  -8   6   14.88    1.87
   2  -8   6   18.62    2.44
  -2   8  -6   14.48    1.40
  -2   8  -7    3.62    1.03
  -2   8  -7    6.63    1.36
   2  -8   7    5.89    1.58
   2  -8   7    4.60    1.54
   2  -8   8    8.08    1.72
  -2   8  -8    8.87    1.59
  -2   8  -8    8.50    1.35
   2  -8   9    4.50    1.68
  -2   8  -9    8.47    1.55
  -2   8 -10    6.03    1.47
   2  -8  10    4.46    1.72
   2  -8  11   -0.75    1.53
   2  -7 -15    5.18    2.24
   2  -7 -14    1.14    1.61
   2  -7 -14    0.84    0.77
   2  -7 -14    0.22    1.08
   2  -7 -13    0.11    1.02
   2  -7 -13   -0.09    0.66
   2  -7 -13    0.83    0.64
   2  -7 -12    5.29    0.76
   2  -7 -12    6.20    0.80
   2  -7 -12    2.82    1.12
   2  -7 -12    6.48    2.17
   2  -7 -11    1.90    0.53
   2  -7 -11    1.19    0.55
   2  -7 -11    2.01    1.73
   2  -7 -11    0.40    0.80
   2  -7 -10    2.77    0.51
   2  -7 -10    2.33    0.85
   2  -7 -10    1.89    1.82
   2  -7 -10    3.06    0.53
   2  -7  -9    0.84    0.68
   2  -7  -9    2.69    1.70
   2  -7  -9    1.21    0.33
   2  -7  -9    1.48    0.48
   2  -7  -9    0.87    0.44
   2  -7  -9    1.28    0.35
   2  -7  -8    7.22    0.98
   2  -7  -8    5.73    0.53
   2  -7  -8    5.85    0.69
   2  -7  -8    5.36    0.80
   2  -7  -8    6.90    0.68
   2  -7  -7   -0.01    0.58
   2  -7  -7    0.40    0.54
   2  -7  -7    0.03    0.32
   2  -7  -7    0.54    0.48
   2  -7  -6  519.94    3.84
   2  -7  -6  527.38    4.72
   2  -7  -6  514.12    5.68
   2  -7  -6  518.70    4.49
   2  -7  -5   29.22    1.03
   2  -7  -5   24.54    0.93
   2  -7  -5   31.50    1.55
   2  -7  -5   26.59    0.93
   2  -7  -4    1.20    0.41
   2  -7  -4    1.86    0.76
  -2   7   3    4.82    0.66
   2  -7  -3    4.80    0.62
  -2   7   2    5.81    0.72
   2  -7  -2    6.39    0.73
   2  -7  -1    0.21    0.54
  -2   7   1   -0.06    0.54
   2  -7   0   38.79    1.68
  -2   7   0   38.85    1.61
  -2   7   0   35.97    0.83
  -2   7  -1    0.27    0.59
   2  -7   1    0.85    0.72
  -2   7  -1    0.26    0.36
   2  -7   2   27.19    1.63
  -2   7  -2   29.56    1.63
  -2   7  -2   28.19    1.17
   2  -7   3    5.05    1.02
  -2   7  -3    6.33    1.01
  -2   7  -3    5.26    0.75
  -2   7  -4    5.97    1.02
  -2   7  -4    7.44    0.92
   2  -7   4    5.34    1.19
   2  -7   4    8.10    1.28
  -2   7  -5   23.03    1.54
   2  -7   5   22.25    1.90
  -2   7  -5   20.21    1.62
   2  -7   5   23.48    2.04
  -2   7  -6    1.16    0.97
   2  -7   6   -0.15    1.41
  -2   7  -6    1.50    0.91
   2  -7   6    0.31    1.06
   2  -7   6    0.66    1.15
   2  -7   7   21.68    2.20
  -2   7  -7   20.03    1.63
  -2   7  -7   21.93    1.89
   2  -7   7   23.67    2.19
   2  -7   7   20.85    2.46
   2  -7   8    1.05    1.25
  -2   7  -8    1.09    1.13
   2  -7   8    1.78    1.35
   2  -7   8    0.63    1.53
  -2   7  -8    0.48    0.93
   2  -7   9   -0.24    1.14
  -2   7  -9    0.16    1.15
  -2   7  -9   -1.53    1.18
  -2   7 -10    4.93    1.42
   2  -7  10    7.69    1.71
  -2   7 -11    0.69    1.17
   2  -7  11    2.90    1.61
   2  -7  12    3.27    1.71
   2  -6 -15    9.50    2.22
   2  -6 -14    3.52    0.97
   2  -6 -14    2.12    1.73
   2  -6 -14    2.56    0.85
   2  -6 -14    3.39    1.30
   2  -6 -13   14.17    1.35
   2  -6 -13   13.22    2.30
   2  -6 -13   13.03    1.63
   2  -6 -13   12.78    1.17
   2  -6 -12   -0.04    0.71
   2  -6 -12    0.93    0.83
   2  -6 -12   -0.67    1.60
   2  -6 -12    1.85    1.00
   2  -6 -11    0.18    0.84
   2  -6 -11   -0.66    0.61
   2  -6 -11   -0.30    1.54
   2  -6 -11    0.21    0.63
   2  -6 -10   45.61    2.20
   2  -6 -10   46.62    1.84
   2  -6 -10   47.51    1.78
   2  -6 -10   47.14    3.39
   2  -6  -9   19.73    1.13
   2  -6  -9   19.58    2.35
   2  -6  -9   22.78    1.58
   2  -6  -9   21.26    1.21
   2  -6  -8   23.95    0.94
   2  -6  -8   22.02    0.88
   2  -6  -8   25.23    1.14
   2  -6  -8   24.58    2.48
   2  -6  -8   23.84    1.43
   2  -6  -7   32.66    2.67
   2  -6  -7   31.31    1.17
   2  -6  -7   32.14    1.23
   2  -6  -7   30.03    1.15
   2  -6  -6   54.85    1.43
   2  -6  -6   53.89    1.67
   2  -6  -5  136.03    2.11
   2  -6  -5  136.22    2.38
   2  -6  -4    2.60    0.46
   2  -6  -4    1.94    0.36
   2  -6  -3   25.16    0.67
  -2   6   3   27.37    1.17
  -2   6   2    2.88    0.56
   2  -6  -2    2.39    0.52
   2  -6  -1   50.84    0.89
   2  -6  -1   54.97    1.68
  -2   6   1   55.34    1.69
  -2   6   0    1.33    0.55
   2  -6   0    1.45    0.57
  -2   6   0    1.06    0.26
  -2   6  -1  107.79    1.83
  -2   6  -1  106.26    2.63
  -2   6  -2    0.70    0.64
   2  -6   2    0.56    0.77
  -2   6  -2   -0.45    0.49
  -2   6  -3   14.05    1.00
  -2   6  -3   11.39    1.14
   2  -6   3   13.17    1.27
  -2   6  -4    0.19    0.74
  -2   6  -4   -0.19    0.64
   2  -6   4    0.85    0.87
   2  -6   5    3.93    1.12
  -2   6  -5    5.65    0.94
  -2   6  -5    4.79    1.02
  -2   6  -6   23.97    1.78
   2  -6   6   24.98    2.21
   2  -6   6   22.57    1.94
   2  -6   6   23.70    2.00
  -2   6  -6   23.29    1.62
   2  -6   7   13.22    1.93
  -2   6  -7   15.25    1.64
   2  -6   7   11.37    1.65
   2  -6   7   12.56    1.70
  -2   6  -7   11.83    1.38
   2  -6   8   37.13    2.69
  -2   6  -8   37.28    2.41
   2  -6   8   38.80    2.55
   2  -6   8   35.48    2.76
  -2   6  -8   42.47    2.33
   2  -6   9   23.94    2.53
   2  -6   9   27.01    2.36
   2  -6   9   28.01    2.35
  -2   6  -9   29.16    2.25
  -2   6  -9   24.08    2.00
   2  -6  10   -2.28    1.56
  -2   6 -10    0.47    1.03
   2  -6  10   -1.14    1.23
  -2   6 -10   -1.40    1.15
   2  -6  11   -0.78    1.21
  -2   6 -11   -1.27    1.25
   2  -6  12    5.16    1.58
   2  -6  13   -2.03    1.44
   2  -5 -15    2.27    0.93
   2  -5 -15    5.56    2.08
   2  -5 -14    7.84    1.20
   2  -5 -14   10.20    2.26
   2  -5 -14    5.55    1.49
   2  -5 -13    5.91    1.06
   2  -5 -13    6.27    1.79
   2  -5 -13    7.30    1.47
   2  -5 -12    2.88    0.84
   2  -5 -12    1.63    0.99
   2  -5 -12    0.33    1.49
   2  -5 -11   36.45    1.80
   2  -5 -11   40.75    2.36
   2  -5 -11   42.58    3.22
   2  -5 -10    9.96    1.01
   2  -5 -10    8.86    1.20
   2  -5 -10   12.31    2.09
   2  -5  -9    9.95    0.96
   2  -5  -9   11.69    1.11
   2  -5  -9   10.54    1.86
   2  -5  -8   19.03    0.64
   2  -5  -8   19.26    0.61
   2  -5  -7    3.30    0.65
   2  -5  -7    2.77    0.43
   2  -5  -7    1.83    0.38
   2  -5  -7    1.10    1.26
   2  -5  -6    6.93    1.50
   2  -5  -6    5.47    0.61
   2  -5  -6    6.47    0.62
   2  -5  -5   46.77    1.65
   2  -5  -5   50.02    1.41
   2  -5  -4   61.18    1.47
   2  -5  -4   61.23    1.57
   2  -5  -3    1.40    0.43
   2  -5  -3    0.92    0.33
  -2   5   3    1.04    0.51
  -2   5   2   30.46    1.20
   2  -5  -2   29.39    1.08
   2  -5  -2   27.59    0.77
   2  -5  -1   26.84    1.15
  -2   5   1   24.57    0.79
  -2   5   1   25.38    1.15
   2  -5  -1   26.20    0.73
  -2   5   0    5.51    0.47
  -2   5   0    5.93    0.70
   2  -5   0    4.77    0.46
   2  -5   0    4.16    0.66
   2  -5   1  221.13    2.73
   2  -5   1  214.97    3.52
  -2   5  -1  225.54    3.49
  -2   5  -1  224.78    2.65
  -2   5  -2   44.09    1.38
  -2   5  -2   46.07    1.75
   2  -5   2   46.47    1.82
  -2   5  -3   29.76    1.32
   2  -5   3   31.66    1.65
  -2   5  -3   30.61    1.55
   2  -5   4   11.14    1.20
  -2   5  -4    9.63    1.04
  -2   5  -4   12.15    1.04
  -2   5  -5  145.42    3.55
  -2   5  -5  148.29    3.30
   2  -5   5  148.56    3.78
  -2   5  -6   45.97    2.10
  -2   5  -6   53.19    2.41
   2  -5   6   50.46    2.77
   2  -5   6   47.80    2.45
  -2   5  -7   56.68    2.59
   2  -5   7   53.84    2.80
  -2   5  -7   52.56    2.38
   2  -5   7   53.26    3.00
   2  -5   8    2.12    1.37
   2  -5   8   -1.37    1.16
  -2   5  -8    1.18    1.09
  -2   5  -8   -1.70    1.06
   2  -5   8    1.11    1.00
   2  -5   9   27.36    2.27
  -2   5  -9   27.77    2.06
  -2   5  -9   31.72    2.28
   2  -5   9   27.67    2.18
   2  -5   9   34.00    2.77
   2  -5  10    1.40    1.64
   2  -5  10    0.81    1.14
  -2   5 -10   -1.54    1.24
  -2   5 -10    1.33    1.03
   2  -5  10   -1.73    1.36
  -2   5 -11    2.23    1.34
   2  -5  11    2.24    1.27
  -2   5 -11    1.96    1.21
   2  -5  11    3.13    1.59
  -2   5 -12    3.78    1.46
   2  -5  12    2.02    1.19
   2  -5  13    1.24    1.38
   2  -5  14    3.26    1.51
   2  -4 -16    3.16    1.81
   2  -4 -15    7.12    2.16
   2  -4 -15    7.24    1.35
   2  -4 -14   17.31    1.66
   2  -4 -14   19.15    2.49
   2  -4 -14   16.76    2.03
   2  -4 -13    7.41    1.54
   2  -4 -13    8.18    1.76
   2  -4 -13    8.75    1.25
   2  -4 -12   27.06    2.72
   2  -4 -12   29.85    1.81
   2  -4 -12   24.93    2.14
   2  -4 -11   10.28    1.39
   2  -4 -11    9.31    1.13
   2  -4 -11    8.92    1.88
   2  -4 -10   12.07    1.97
   2  -4 -10   12.33    1.21
   2  -4  -9    0.82    0.58
   2  -4  -9   -2.71    1.43
   2  -4  -8  122.27    4.32
   2  -4  -7    0.02    0.57
   2  -4  -7    0.76    1.10
   2  -4  -7    0.56    0.27
   2  -4  -6   25.27    1.26
   2  -4  -6   26.18    0.95
   2  -4  -5    0.53    0.47
   2  -4  -5    0.51    0.38
   2  -4  -4   36.72    1.43
   2  -4  -4   38.19    1.25
   2  -4  -3    0.12    0.43
   2  -4  -3    0.00    0.43
   2  -4  -2   78.57    1.45
  -2   4   2   75.86    1.79
   2  -4  -2   76.81    1.62
  -2   4   1    7.77    0.60
   2  -4  -1    8.26    0.53
   2  -4  -1    7.39    0.67
  -2   4   1    6.96    0.70
  -2   4   0  102.33    1.64
  -2   4   0  104.09    2.11
   2  -4   0  105.00    2.19
   2  -4   0  105.50    1.64
   2  -4   1   48.89    1.32
  -2   4  -1   49.41    1.28
   2  -4   1   48.56    1.65
  -2   4  -1   51.95    1.64
  -2   4  -2  446.78    4.93
   2  -4   2  444.64    5.00
   2  -4   2  442.71    4.34
  -2   4  -2  444.42    4.12
  -2   4  -3    0.53    0.62
   2  -4   3   -0.15    0.70
  -2   4  -3    1.63    0.71
   2  -4   3    0.43    0.57
  -2   4  -4    2.38    0.65
  -2   4  -4    2.65    0.76
   2  -4   4    2.19    0.85
   2  -4   5    0.73    0.85
  -2   4  -5   -0.12    0.65
   2  -4   5   -0.18    0.78
  -2   4  -5   -0.48    0.64
  -2   4  -6  104.45    3.10
   2  -4   6  105.87    3.58
  -2   4  -6  101.39    2.89
   2  -4   6   96.79    3.11
   2  -4   7    3.18    1.22
  -2   4  -7    3.13    0.88
   2  -4   7    4.81    1.24
  -2   4  -7    3.73    0.93
   2  -4   8   35.75    2.33
  -2   4  -8   36.29    2.12
   2  -4   8   36.62    2.62
  -2   4  -8   34.34    2.12
   2  -4   9  126.25    3.89
   2  -4   9  129.54    4.67
   2  -4   9  126.51    4.39
  -2   4  -9  126.39    3.98
  -2   4  -9  127.35    3.99
  -2   4 -10    5.03    1.27
   2  -4  10    6.86    1.74
   2  -4  10    5.14    1.22
  -2   4 -10    3.75    1.15
   2  -4  10    4.25    1.27
  -2   4 -11   20.53    1.98
  -2   4 -11   18.99    1.99
   2  -4  11   14.83    1.73
   2  -4  11   18.34    2.20
   2  -4  11   19.23    2.43
   2  -4  12   27.63    2.21
  -2   4 -12   30.41    2.49
   2  -4  13    3.04    1.25
   2  -4  14    5.54    1.46
   2  -4  15    5.91    1.55
   2  -3 -16   10.90    2.39
   2  -3 -15    3.87    1.89
   2  -3 -15    1.11    1.04
   2  -3 -14    9.03    2.08
   2  -3 -14    5.95    1.19
   2  -3 -13   16.09    2.23
   2  -3 -13   13.79    1.51
   2  -3 -13   13.03    1.83
   2  -3 -12   18.42    2.22
   2  -3 -12   22.71    1.70
   2  -3 -12   22.85    2.12
   2  -3 -11    9.98    1.32
   2  -3 -11    9.50    1.78
   2  -3 -10   41.31    2.80
   2  -3 -10   41.68    2.04
   2  -3  -9   28.17    1.66
   2  -3  -9   28.48    2.28
   2  -3  -8    1.19    1.08
   2  -3  -7   43.93    2.44
   2  -3  -7   38.06    0.82
   2  -3  -6  134.22    3.99
   2  -3  -6  121.31    1.73
   2  -3  -5   -0.94    1.06
   2  -3  -5    0.04    0.37
   2  -3  -5   -0.65    0.61
   2  -3  -4   10.66    0.68
   2  -3  -4   10.19    0.84
   2  -3  -3    0.68    0.56
   2  -3  -3    0.55    0.48
  -2   3   2   61.30    1.60
   2  -3  -2   57.22    1.46
   2  -3  -2   61.77    1.44
   2  -3  -1    1.56    0.41
  -2   3   1    1.17    0.45
  -2   3   1    1.00    0.52
   2  -3  -1    0.93    0.43
   2  -3   0    1.91    0.50
  -2   3   0    2.02    0.45
   2  -3   0    1.97    0.40
  -2   3   0    2.06    0.53
   2  -3   1   70.96    1.77
  -2   3  -1   70.57    1.75
   2  -3   1   67.39    1.48
  -2   3  -1   71.62    1.46
   2  -3   2  120.43    2.17
   2  -3   2  119.81    2.43
  -2   3  -2  125.21    2.15
  -2   3  -2  125.61    2.46
  -2   3  -3   -0.01    0.69
  -2   3  -3    0.16    0.60
   2  -3   3   -0.45    0.63
   2  -3   3    0.30    0.59
  -2   3  -4   55.31    1.83
   2  -3   4   49.53    1.86
  -2   3  -4   53.47    1.90
   2  -3   4   53.75    2.01
   2  -3   4   52.79    2.22
   2  -3   5    6.26    0.93
  -2   3  -5    8.53    1.03
  -2   3  -5    8.53    1.04
   2  -3   5    9.37    1.28
   2  -3   5    6.71    1.02
  -2   3  -6   33.72    1.71
  -2   3  -6   41.29    1.93
   2  -3   6   37.13    1.94
   2  -3   6   37.45    2.09
   2  -3   7    1.52    0.85
  -2   3  -7    0.87    0.79
   2  -3   7    2.64    1.17
  -2   3  -7    2.41    0.83
  -2   3  -8   25.85    1.77
  -2   3  -8   24.41    1.74
   2  -3   8   30.44    2.22
   2  -3   8   27.23    2.01
  -2   3  -9  106.46    3.46
   2  -3   9  107.98    3.91
  -2   3  -9  110.35    3.62
   2  -3   9  104.42    4.03
  -2   3 -10    7.72    1.34
   2  -3  10    8.00    1.62
   2  -3  10    5.05    1.09
  -2   3 -10    4.97    1.18
   2  -3  10    8.60    1.60
   2  -3  11   -0.70    0.92
  -2   3 -11   -0.66    1.15
   2  -3  11   -1.72    1.45
   2  -3  11   -1.25    1.30
  -2   3 -11   -1.41    1.16
   2  -3  12   21.10    1.89
   2  -3  12   21.60    2.47
  -2   3 -12   21.86    2.15
  -2   3 -12   18.66    1.88
   2  -3  13   19.37    1.88
   2  -3  14    6.15    1.38
   2  -3  15   13.86    1.81
   2  -2 -16   11.02    2.37
   2  -2 -15    7.08    2.21
   2  -2 -15    5.11    1.43
   2  -2 -14    8.53    1.99
   2  -2 -14    7.54    1.36
   2  -2 -13   21.48    2.35
   2  -2 -13   20.75    1.89
   2  -2 -13   22.92    2.26
  -2   2  13   19.27    2.73
   2  -2 -12    2.90    1.04
  -2   2  12    0.93    1.84
   2  -2 -12    0.82    1.38
   2  -2 -12    2.85    1.24
  -2   2  11    1.33    1.67
   2  -2 -11    2.28    1.04
   2  -2 -11    0.59    1.33
  -2   2  10   -0.80    1.40
   2  -2 -10   -0.53    1.17
   2  -2 -10    0.40    0.84
   2  -2  -9    0.04    0.74
   2  -2  -9   -0.73    1.20
  -2   2   9    0.58    1.29
  -2   2   8   10.50    1.71
   2  -2  -8   12.81    1.54
  -2   2   7    9.50    1.42
   2  -2  -7   10.17    0.49
   2  -2  -7    9.64    1.36
   2  -2  -6   10.45    1.34
   2  -2  -6   11.40    0.59
   2  -2  -5   42.67    2.10
   2  -2  -5   44.58    1.13
   2  -2  -4    2.03    1.04
   2  -2  -4    2.06    0.46
   2  -2  -3  400.78    5.29
   2  -2  -3  401.53    4.11
   2  -2  -3  413.28    3.49
   2  -2  -2   67.51    1.51
   2  -2  -2   64.12    1.62
   2  -2  -2   65.64    1.56
  -2   2   1  437.11    3.93
  -2   2   1  446.81    3.75
   2  -2  -1  435.49    3.72
   2  -2  -1  437.31    3.53
   2  -2   0   31.66    0.95
  -2   2   0   31.01    1.09
  -2   2   0   30.50    0.96
   2  -2   0   30.55    1.05
   2  -2   1   29.62    0.98
   2  -2   1   30.13    1.10
  -2   2  -1   27.40    0.95
  -2   2  -1   26.87    1.05
  -2   2  -2   31.61    1.12
   2  -2   2   27.14    1.22
  -2   2  -2   30.84    1.21
   2  -2   2   27.34    1.09
   2  -2   3    0.44    0.56
  -2   2  -3    0.62    0.54
   2  -2   3    1.41    0.59
  -2   2  -3    0.46    0.55
  -2   2  -4   27.88    1.37
   2  -2   4   27.45    1.56
   2  -2   4   26.00    1.40
  -2   2  -4   27.53    1.37
   2  -2   4   24.97    1.35
   2  -2   5  232.30    3.99
  -2   2  -5  229.62    3.80
   2  -2   5  236.87    3.99
  -2   2  -6   -0.58    0.74
   2  -2   6    0.67    0.83
  -2   2  -6    0.12    0.82
   2  -2   6   -0.41    0.93
   2  -2   6    0.99    0.77
  -2   2  -7  136.56    3.41
   2  -2   7  133.47    3.77
  -2   2  -7  144.78    3.40
   2  -2   7  138.37    3.50
   2  -2   8    1.33    0.95
  -2   2  -8    2.07    0.81
   2  -2   8    1.74    1.04
  -2   2  -8    1.98    0.88
   2  -2   9   38.50    2.47
   2  -2   9   38.46    2.25
  -2   2  -9   37.52    2.04
  -2   2  -9   36.37    2.17
  -2   2 -10   13.20    1.43
   2  -2  10   18.21    2.08
   2  -2  10   14.25    1.74
  -2   2 -10   13.14    1.65
   2  -2  11   -0.20    0.83
  -2   2 -11   -0.21    1.08
  -2   2 -11    0.79    0.86
   2  -2  11    2.45    1.34
   2  -2  11   -0.09    1.19
   2  -2  12   14.32    2.04
   2  -2  12   19.00    1.62
  -2   2 -12   15.22    1.72
  -2   2 -12   19.24    1.99
  -2   2 -13   55.32    3.01
   2  -2  13   52.93    2.62
   2  -2  13   58.52    3.92
  -2   2 -13   51.23    3.10
   2  -2  14    9.69    1.39
   2  -2  15   11.88    1.56
   2  -2  16    1.35    1.15
   2  -1 -16    2.45    1.83
   2  -1 -15   37.32    3.27
   2  -1 -14   14.63    1.77
   2  -1 -14   17.10    2.39
   2  -1 -13    9.71    1.92
   2  -1 -13    8.12    1.68
   2  -1 -13    8.56    1.47
  -2   1  13   11.93    2.49
   2  -1 -12   18.06    2.24
  -2   1  12   16.34    0.77
   2  -1 -12   16.54    1.98
   2  -1 -12   15.46    1.65
  -2   1  12   20.13    2.63
   2  -1 -11    5.71    1.56
  -2   1  11    4.70    0.51
  -2   1  11    3.46    1.58
   2  -1 -11    3.78    1.17
   2  -1 -10    1.25    1.29
   2  -1 -10   -0.28    0.96
  -2   1  10    0.41    0.41
  -2   1  10   -0.03    1.31
  -2   1   9   22.79    2.27
  -2   1   9   19.76    0.87
   2  -1  -9   22.58    2.02
   2  -1  -9   18.99    1.59
   2  -1  -8    7.37    1.30
  -2   1   8    7.78    1.45
  -2   1   8    5.65    0.55
  -2   1   7    5.82    1.24
   2  -1  -7    6.17    1.09
   2  -1  -7    7.47    0.57
  -2   1   7    7.77    0.59
   2  -1  -6   34.76    1.03
  -2   1   6   29.98    0.99
   2  -1  -6   31.51    1.83
   2  -1  -5   -0.60    0.94
  -2   1   5    0.20    1.04
  -2   1   5    0.21    0.40
   2  -1  -5    0.34    0.38
   2  -1  -4   22.46    1.43
  -2   1   4   21.82    1.51
  -2   1   4   24.00    0.89
   2  -1  -3    5.20    0.52
  -2   1   3    4.51    0.50
   2  -1  -3    4.53    0.83
   2  -1  -2 1694.80    8.53
   2  -1  -2 1690.03    8.50
   2  -1  -2 1673.87    6.98
  -2   1   2 1681.15    6.57
   2  -1  -1  366.51    3.44
  -2   1   1  367.44    3.61
   2  -1  -1  366.48    3.51
  -2   1   1  360.96    3.57
   2  -1  -1  362.08    3.26
   2  -1   0   48.04    1.19
   2  -1   0   47.48    1.28
  -2   1   0   43.31    1.23
  -2   1   0   45.71    1.20
   2  -1   0   44.83    1.26
  -2   1  -1  499.26    3.97
   2  -1   1  507.47    3.67
  -2   1  -1  494.08    3.82
   2  -1   1  504.94    3.87
   2  -1   2    1.61    0.51
  -2   1  -2    2.16    0.51
  -2   1  -2    0.80    0.51
   2  -1   2    1.69    0.54
   2  -1   3   40.74    1.42
  -2   1  -3   39.41    1.33
   2  -1   3   39.31    1.34
   2  -1   3   41.66    1.41
  -2   1  -3   40.98    1.34
   2  -1   4   -0.46    0.56
  -2   1  -4    0.00    0.66
   2  -1   4    0.16    0.67
   2  -1   4   -0.64    0.72
  -2   1  -4   -0.49    0.66
   2  -1   5 1186.35    8.94
   2  -1   5 1200.91    8.65
  -2   1  -5 1215.93    8.11
  -2   1  -5 1176.73    8.22
  -2   1  -5 1176.87    8.98
   2  -1   5 1217.84    8.28
  -2   1  -6    2.71    0.86
   2  -1   6    2.45    1.11
  -2   1  -6    3.31    0.93
   2  -1   6    2.41    0.89
   2  -1   6    2.48    0.88
  -2   1  -6    4.05    1.17
  -2   1  -7    8.84    1.27
  -2   1  -7    7.16    0.92
   2  -1   7    8.91    1.04
  -2   1  -7    9.35    1.15
   2  -1   7    8.83    1.21
  -2   1  -8    2.26    0.71
   2  -1   8    3.30    1.21
   2  -1   8    2.62    0.88
  -2   1  -8    3.05    1.07
  -2   1  -8    3.65    1.00
   2  -1   9   -0.42    0.82
   2  -1   9   -1.00    1.05
  -2   1  -9    1.78    0.92
  -2   1  -9   -1.27    0.85
  -2   1  -9   -0.10    1.02
   2  -1  10   19.68    2.22
  -2   1 -10   18.47    1.59
  -2   1 -10   21.89    1.82
   2  -1  10   21.42    1.89
  -2   1 -10   21.30    2.08
  -2   1 -11    6.53    1.53
  -2   1 -11    6.97    1.48
   2  -1  11    7.96    1.57
   2  -1  11    7.29    1.44
  -2   1 -11    7.36    1.23
   2  -1  11    8.56    1.13
   2  -1  12    0.31    0.81
  -2   1 -12    0.00    1.03
  -2   1 -12   -0.04    0.94
   2  -1  12   -0.65    1.16
  -2   1 -12   -0.80    1.42
   2  -1  12    0.00    1.46
   2  -1  13   -0.03    1.63
   2  -1  13   -0.29    0.84
  -2   1 -13   -0.90    1.55
  -2   1 -13    2.53    1.43
  -2   1 -13    0.85    0.99
  -2   1 -14    3.96    1.18
   2  -1  14    4.19    1.06
  -2   1 -14    3.75    1.74
  -2   1 -15   -0.48    1.65
   2  -1  15    1.29    0.89
   2  -1  16   -0.03    0.90
   2   0 -15   18.41    2.51
   2   0 -14    8.21    1.52
  -2   0  14    9.68    0.85
   2   0 -14    7.67    1.94
   2   0 -13    1.65    1.35
  -2   0  13    0.69    1.71
   2   0 -13    1.17    1.56
  -2   0  13    1.84    0.60
   2   0 -13    1.99    1.20
   2   0 -12    8.05    1.35
   2   0 -12    6.34    1.45
  -2   0  12    7.34    0.84
   2   0 -12    8.15    1.72
  -2   0  12    3.10    1.75
   2   0 -11    4.70    1.57
   2   0 -11    3.31    1.11
  -2   0  11    3.52    0.70
  -2   0  11    1.85    1.55
   2   0 -10   10.83    1.36
  -2   0  10   10.62    0.91
  -2   0  10   12.16    1.91
   2   0 -10    8.85    1.56
   2   0  -9   72.34    2.86
  -2   0   9   79.33    3.61
   2   0  -9   73.49    3.17
  -2   0   9   77.35    2.07
  -2   0   8   86.82    3.50
   2   0  -8   84.36    2.93
   2   0  -8   81.26    3.09
  -2   0   8   85.09    2.08
  -2   0   7   21.44    1.78
   2   0  -7   26.02    1.78
   2   0  -7   24.28    1.06
  -2   0   7   24.52    1.15
   2   0  -6    6.03    0.64
  -2   0   6    6.95    1.16
  -2   0   6    8.11    0.75
   2   0  -6    7.15    1.18
  -2   0   5    5.97    1.15
  -2   0   5    5.63    0.69
   2   0  -5    7.58    0.71
   2   0  -5    6.00    0.97
  -2   0   4   95.69    2.55
   2   0  -4  102.60    1.90
   2   0  -4   97.12    2.43
  -2   0   4   96.02    1.86
   2   0  -3   24.64    1.17
  -2   0   3   25.11    0.98
   2   0  -3   25.54    0.97
  -2   0   3   26.11    1.28
  -2   0   2 8033.77   16.71
  -2   0   2 8059.25   15.44
   2   0  -1   14.32    0.63
  -2   0   1   13.13    0.75
  -2   0   1   12.08    0.92
  -2   0   1   14.53    0.68
   2   0  -1   14.53    0.94
   2   0  -1   14.31    0.91
   2   0  -1   14.41    0.80
  -2   0   0  119.06    1.88
   2   0   0  109.74    1.89
  -2   0   0  109.12    1.95
   2   0   0  116.53    1.93
   2   0   0  114.80    1.89
  -2   0   0  110.90    1.89
  -2   0  -1   30.39    1.07
   2   0   1   28.62    1.02
  -2   0  -1   27.03    0.98
  -2   0  -1   28.31    1.02
   2   0   1   28.94    1.03
   2   0   1   28.68    1.02
   2   0   2  211.20    2.56
   2   0   2  218.22    2.22
  -2   0  -2  212.29    2.55
   2   0   2  213.13    2.58
  -2   0  -2  215.99    2.54
  -2   0  -3    1.07    0.57
   2   0   3    1.09    0.54
  -2   0  -3    0.48    0.49
  -2   0  -3    0.85    0.53
   2   0   3    1.41    0.57
   2   0   3    0.83    0.53
   2   0   4 1023.66    7.14
  -2   0  -4 1035.82    6.88
   2   0   4 1039.52    7.00
  -2   0  -4 1050.64    7.02
  -2   0  -4 1040.35    6.36
   2   0   5   25.10    1.44
  -2   0  -5   25.61    1.20
   2   0   5   24.37    1.51
  -2   0  -5   22.98    1.29
   2   0   5   27.16    1.28
  -2   0  -5   23.77    1.44
   2   0   6  110.90    2.59
   2   0   6  107.73    3.00
  -2   0  -6  110.42    2.75
  -2   0  -6  108.92    2.52
   2   0   6  110.76    2.90
  -2   0  -6  111.27    2.98
  -2   0  -7   11.19    1.31
  -2   0  -7   10.74    1.01
   2   0   7   10.39    1.34
   2   0   7   11.80    1.16
  -2   0  -7    9.94    1.14
   2   0   7   11.23    1.30
  -2   0  -8   31.36    1.97
  -2   0  -8   29.50    1.54
   2   0   8   28.33    2.00
   2   0   8   30.00    1.66
  -2   0  -9    6.02    1.00
   2   0   9    3.83    1.02
  -2   0  -9    6.06    1.22
  -2   0  -9    4.34    1.01
   2   0  10    6.98    1.48
  -2   0 -10    2.65    1.19
  -2   0 -10    5.75    1.00
  -2   0 -10    5.75    1.25
   2   0  10    4.95    1.09
   2   0  11    5.00    1.57
  -2   0 -11    5.51    1.02
  -2   0 -11    6.20    1.62
   2   0  11    5.80    1.38
  -2   0 -11    7.66    1.41
  -2   0 -12   37.42    2.90
   2   0  12   38.22    1.82
   2   0  12   40.52    2.58
  -2   0 -12   34.78    2.38
  -2   0 -12   38.76    2.24
   2   0  12   40.11    3.05
  -2   0 -13    0.45    1.18
  -2   0 -13    1.56    1.01
  -2   0 -13    2.89    1.34
   2   0  13    3.00    0.85
   2   0  13    2.99    1.72
   2   0  14    0.59    1.51
  -2   0 -14   -0.54    1.64
   2   0  14    0.11    0.76
  -2   0 -14    0.05    1.02
  -2   0 -14   -0.21    1.28
   2   0  15    7.94    1.06
  -2   0 -15    9.04    1.61
  -2   0 -15    9.64    2.04
   2   0  15    8.21    1.17
  -2   0 -16   -0.17    1.87
   2   0  16    0.10    0.68
   2   0  16    1.10    0.76
   2   1 -15    8.71    2.13
   2   1 -14   -2.35    1.92
  -2  -1  14    0.77    0.74
  -2  -1  13    1.10    0.79
   2   1 -13    1.23    1.45
  -2  -1  13    3.10    1.92
   2   1 -13    2.20    1.35
  -2  -1  12    2.08    1.64
   2   1 -12    4.06    1.41
  -2  -1  12    1.78    0.75
   2   1 -12    1.71    1.09
   2   1 -11   -0.17    1.35
  -2  -1  11    2.70    1.70
   2   1 -11    3.51    1.13
  -2  -1  11    1.06    0.73
  -2  -1  10    1.15    1.40
   2   1 -10    0.85    1.20
  -2  -1  10    2.17    0.80
   2   1 -10    1.64    1.05
   2   1  -9   49.91    2.78
  -2  -1   9   52.51    2.95
   2   1  -9   58.94    2.72
  -2  -1   9   58.26    2.08
  -2  -1   8    1.27    1.15
   2   1  -8    1.34    1.01
   2   1  -8   -1.27    1.03
  -2  -1   8    0.86    0.60
  -2  -1   7   50.60    1.77
   2   1  -7   49.47    2.34
  -2  -1   7   49.22    2.48
   2   1  -7   51.73    1.68
   2   1  -7   46.76    2.19
  -2  -1   6   -0.15    0.97
   2   1  -6    1.69    0.95
   2   1  -6    0.34    0.50
  -2  -1   6    1.51    0.60
   2   1  -5   96.88    2.73
  -2  -1   5  102.48    2.88
   2   1  -5  104.69    2.20
  -2  -1   5  103.26    2.30
   2   1  -4    4.91    0.73
   2   1  -4    3.91    0.86
  -2  -1   4    5.84    0.79
  -2  -1   4    6.52    1.02
  -2  -1   3    8.90    0.88
   2   1  -3   10.44    0.79
   2   1  -3    9.33    0.87
  -2  -1   3    9.29    0.81
   2   1  -2  484.59    4.20
  -2  -1   2  477.07    3.98
   2   1  -2  477.32    3.91
   2   1  -1   46.06    1.36
  -2  -1   1   44.37    1.32
   2   1  -1   44.54    1.50
   2   1   0  263.75    2.94
  -2  -1   0  270.24    3.00
   2   1   0  257.13    2.91
   2   1   0  259.40    3.02
  -2  -1   0  270.63    3.06
  -2  -1  -1  367.85    3.30
  -2  -1  -1  363.58    3.34
  -2  -1  -1  370.29    3.28
   2   1   1  374.34    3.18
  -2  -1  -2   96.38    1.54
  -2  -1  -2   99.48    1.79
  -2  -1  -2  102.81    1.80
  -2  -1  -2   99.85    1.66
   2   1   2   96.42    1.78
   2   1   2   91.96    1.70
   2   1   2   99.43    1.66
   2   1   2   98.78    1.63
   2   1   3   52.73    1.53
  -2  -1  -3   49.64    1.27
  -2  -1  -3   51.95    1.43
  -2  -1  -3   52.39    1.43
   2   1   3   53.59    1.37
   2   1   3   51.43    1.44
  -2  -1  -3   52.42    1.27
   2   1   3   51.91    1.26
  -2  -1  -4   83.92    1.97
   2   1   4   84.84    1.71
   2   1   4   89.71    1.82
  -2  -1  -4   82.88    2.05
   2   1   4   89.90    2.23
  -2  -1  -4   88.77    1.74
   2   1   4   84.24    1.99
   2   1   5   17.19    1.01
   2   1   5   18.77    0.89
  -2  -1  -5   19.30    0.99
  -2  -1  -5   19.00    1.30
   2   1   5   19.53    1.18
  -2  -1  -5   19.21    1.16
   2   1   5   19.25    1.38
   2   1   6  354.25    5.40
  -2  -1  -6  358.79    5.13
   2   1   6  364.60    4.94
   2   1   6  360.28    3.62
  -2  -1  -6  367.27    4.76
  -2  -1  -6  351.99    4.06
   2   1   6  356.02    4.25
   2   1   7   30.64    1.50
  -2  -1  -7   31.32    1.90
   2   1   7   31.83    1.20
  -2  -1  -7   31.90    1.69
   2   1   7   32.61    1.92
  -2  -1  -7   31.09    1.45
   2   1   7   30.53    1.75
  -2  -1  -8   12.40    1.42
   2   1   8   11.02    1.58
   2   1   8   14.66    0.90
   2   1   8   12.91    1.12
  -2  -1  -8   12.96    1.30
  -2  -1  -8   12.96    1.06
  -2  -1  -9    1.04    0.61
  -2  -1  -9    0.83    1.13
  -2  -1  -9    0.92    0.86
   2   1   9    1.55    0.55
   2   1   9    1.44    0.85
  -2  -1 -10   30.77    2.24
   2   1  10   36.97    1.43
   2   1  10   34.90    2.52
  -2  -1 -10   38.31    1.88
  -2  -1 -10   35.48    2.13
   2   1  10   35.26    2.00
  -2  -1 -11   18.07    2.07
   2   1  11   16.01    2.09
   2   1  11   17.11    1.09
   2   1  11   16.52    1.60
  -2  -1 -11   16.66    1.42
  -2  -1 -11   16.72    1.69
   2   1  12   54.75    1.82
   2   1  12   47.83    3.26
   2   1  12   52.19    1.82
  -2  -1 -12   54.92    3.24
  -2  -1 -12   49.96    2.34
  -2  -1 -12   54.51    2.88
  -2  -1 -13   12.02    1.48
   2   1  13   13.21    2.19
  -2  -1 -13   11.19    1.56
  -2  -1 -13   14.73    1.98
   2   1  13   12.59    1.08
   2   1  13   13.58    1.03
   2   1  14   10.74    2.38
   2   1  14    9.57    0.99
   2   1  14   10.11    0.93
  -2  -1 -14    7.49    1.76
  -2  -1 -14   11.93    1.80
  -2  -1 -14   12.38    1.53
   2   1  15    6.16    0.83
   2   1  15    7.17    0.93
  -2  -1 -15    6.89    1.38
  -2  -1 -15    4.76    1.93
   2   1  16    9.74    0.96
   2   1  16    9.05    1.01
  -2  -1 -17    6.78    2.42
  -2  -2  15   29.55    2.00
  -2  -2  14    1.99    0.96
  -2  -2  13    0.07    0.89
  -2  -2  12   -0.29    0.89
   2   2 -12   -0.84    1.32
  -2  -2  12   -0.03    1.55
   2   2 -12   -0.89    1.42
   2   2 -12   -0.80    1.15
  -2  -2  11    9.56    2.02
  -2  -2  11    8.07    1.20
   2   2 -11    5.98    1.62
   2   2 -11    8.73    1.50
   2   2 -10    6.96    1.37
  -2  -2  10    4.34    1.05
  -2  -2  10    5.05    1.53
   2   2 -10    7.29    1.62
  -2  -2   9   47.14    2.82
   2   2  -9   48.50    2.57
   2   2  -9   48.02    2.79
  -2  -2   9   53.00    2.21
  -2  -2   8   -1.20    0.72
   2   2  -8   -0.05    0.83
  -2  -2   8   -0.28    1.13
   2   2  -8    0.71    1.02
   2   2  -7    1.77    0.92
   2   2  -7    0.68    0.61
  -2  -2   7    0.94    0.66
  -2  -2   7    0.12    0.95
   2   2  -7    0.21    0.88
  -2  -2   6   29.24    1.53
   2   2  -6   27.98    1.84
   2   2  -6   29.38    1.44
   2   2  -6   29.33    1.80
  -2  -2   6   28.95    1.88
   2   2  -5    6.56    0.83
  -2  -2   5    5.93    1.09
   2   2  -5    5.92    1.06
  -2  -2   5    6.69    0.90
  -2  -2   4   17.18    1.18
   2   2  -4   17.58    1.14
  -2  -2   4   19.93    1.35
  -2  -2   3   -0.60    0.68
   2   2  -3   -0.15    0.62
  -2  -2   3    0.42    0.71
   2   2  -2   29.99    1.30
  -2  -2   2   33.05    1.29
  -2  -2   2   32.07    1.34
   2   2  -1 9995.34   21.45
  -2  -2   1 9999.00   20.84
  -2  -2   0    0.13    0.63
   2   2   0    0.28    0.50
  -2  -2   0    1.76    0.57
   2   2   0    0.94    0.59
   2   2   1    5.94    0.63
   2   2   1    5.90    0.62
  -2  -2  -1    5.39    0.70
  -2  -2  -1    6.39    0.63
   2   2   1    5.66    0.68
   2   2   2    2.72    0.47
   2   2   2    2.53    0.53
  -2  -2  -2    2.96    0.56
  -2  -2  -2    4.11    0.64
  -2  -2  -2    2.39    0.48
   2   2   2    3.44    0.61
  -2  -2  -3   26.78    1.31
  -2  -2  -3   23.08    0.97
   2   2   3   23.98    1.02
   2   2   3   25.36    0.84
   2   2   3   26.47    1.06
  -2  -2  -3   24.58    0.86
  -2  -2  -3   24.95    1.01
   2   2   4   20.48    0.93
   2   2   4   22.80    1.42
   2   2   4   19.40    1.06
   2   2   4   21.77    0.84
  -2  -2  -4   22.45    1.09
  -2  -2  -4   19.40    0.87
  -2  -2  -4   23.16    1.36
  -2  -2  -4   21.55    0.85
  -2  -2  -5    7.13    0.63
  -2  -2  -5    6.65    0.59
  -2  -2  -5    6.27    1.11
   2   2   5    6.63    0.65
   2   2   5    5.62    1.05
   2   2   5    6.79    0.62
  -2  -2  -5    6.83    0.83
   2   2   5    5.07    0.79
  -2  -2  -6   87.44    2.73
  -2  -2  -6   84.07    1.86
   2   2   6   86.36    1.94
  -2  -2  -6   82.12    2.28
   2   2   6   82.47    1.73
   2   2   6   82.98    2.36
  -2  -2  -7   14.43    1.44
  -2  -2  -7   14.43    0.95
  -2  -2  -7   12.59    1.20
   2   2   7   11.89    1.51
   2   2   7   12.02    0.96
   2   2   7   12.68    0.80
   2   2   7   13.83    1.23
  -2  -2  -8    1.75    1.13
   2   2   8    1.00    0.61
  -2  -2  -8    2.56    0.69
   2   2   8    0.43    1.05
  -2  -2  -8    1.19    0.78
   2   2   8    1.89    0.47
   2   2   8    1.69    1.00
   2   2   9   73.63    1.74
  -2  -2  -9   70.35    3.00
   2   2   9   69.64    3.24
  -2  -2  -9   68.91    2.59
  -2  -2  -9   69.16    2.21
   2   2   9   70.75    2.38
  -2  -2 -10    1.64    0.92
  -2  -2 -10    0.94    0.69
   2   2  10    2.59    1.27
   2   2  10    1.54    0.46
  -2  -2 -10   -0.23    1.24
   2   2  10    1.61    0.74
  -2  -2 -11   36.00    2.25
   2   2  11   32.47    2.79
   2   2  11   33.11    2.02
   2   2  11   33.08    1.28
  -2  -2 -11   32.47    1.78
  -2  -2 -11   33.42    2.46
   2   2  12   11.66    1.98
  -2  -2 -12   10.67    1.80
  -2  -2 -12   10.87    1.21
   2   2  12   15.45    1.00
  -2  -2 -12   12.28    1.65
   2   2  12   13.26    0.91
  -2  -2 -13    5.90    1.71
   2   2  13    5.65    0.68
   2   2  13    6.11    0.69
  -2  -2 -13    4.49    1.10
  -2  -2 -13    4.88    1.36
   2   2  14    0.44    0.45
   2   2  14    1.42    1.86
  -2  -2 -14   -0.24    1.66
  -2  -2 -14    0.76    1.34
  -2  -2 -14    1.61    1.00
   2   2  14    0.31    0.43
  -2  -2 -15   10.61    1.47
   2   2  15    8.80    0.77
  -2  -2 -15   10.51    2.18
  -2  -2 -16   -1.17    1.00
  -2  -2 -16    0.34    1.82
   2   2  16    0.48    0.37
  -2  -2 -17   -2.18    1.80
  -2  -3  14   22.79    1.95
  -2  -3  13   67.45    3.04
  -2  -3  12    1.97    1.79
   2   3 -12   -0.48    1.19
  -2  -3  12   -0.63    0.99
   2   3 -11    3.13    1.37
  -2  -3  11    1.82    0.99
  -2  -3  11    1.36    1.54
   2   3 -10    0.41    0.95
  -2  -3  10    1.97    1.47
  -2  -3  10   -0.62    0.82
  -2  -3   9    3.24    0.95
   2   3  -9    2.27    1.08
  -2  -3   9    2.70    1.32
   2   3  -8    5.34    1.17
  -2  -3   8    5.95    1.54
  -2  -3   8    4.03    1.00
  -2  -3   7   17.99    1.66
   2   3  -7   19.64    1.65
  -2  -3   7   22.34    1.56
   2   3  -6   20.87    1.60
   2   3  -6   18.50    1.29
  -2  -3   6   23.41    1.51
  -2  -3   6   21.01    1.69
  -2  -3   5   67.80    2.57
   2   3  -5   65.19    2.20
  -2  -3   5   63.68    2.28
  -2  -3   4   -0.98    0.80
  -2  -3   4    0.18    0.87
   2   3  -4   -0.18    0.71
  -2  -3   3   19.23    1.39
   2   3  -3   21.94    1.32
  -2  -3   3   22.85    1.40
   2   3  -2  188.80    3.22
  -2  -3   2  180.29    3.25
  -2  -3   1  998.91    7.40
   2   3  -1 1017.48    7.15
   2   3   0  804.53    6.21
   2   3   0  791.47    5.57
  -2  -3   0  791.56    6.26
   2   3   1   69.45    1.81
  -2  -3  -1   68.88    1.60
   2   3   1   71.02    1.54
  -2  -3  -2   71.99    1.84
   2   3   2   73.10    1.82
   2   3   2   76.69    1.49
  -2  -3  -2   75.71    1.56
  -2  -3  -3   33.10    1.16
  -2  -3  -3   30.36    0.94
   2   3   3   32.19    1.09
   2   3   3   31.44    1.20
   2   3   3   31.92    0.89
  -2  -3  -3   28.85    1.19
   2   3   4    8.46    0.72
  -2  -3  -4    8.71    0.72
  -2  -3  -4    5.84    0.67
   2   3   4    6.75    0.74
   2   3   4    8.42    0.54
  -2  -3  -4    8.93    1.20
  -2  -3  -4    7.56    0.53
  -2  -3  -5    0.14    0.48
   2   3   5    0.00    0.52
   2   3   5   -0.49    0.66
  -2  -3  -5    1.12    1.03
  -2  -3  -5    0.26    0.38
   2   3   5   -0.02    0.38
  -2  -3  -5    0.58    0.60
   2   3   6   16.35    0.85
  -2  -3  -6   18.45    0.89
   2   3   6   19.65    1.35
  -2  -3  -6   18.85    0.91
  -2  -3  -6   16.81    1.61
  -2  -3  -6   18.76    1.26
   2   3   6   17.59    0.92
   2   3   7    6.52    0.60
  -2  -3  -7    6.91    0.70
  -2  -3  -7    7.02    1.39
  -2  -3  -7    6.12    0.95
   2   3   7    5.17    0.65
   2   3   7    5.66    0.94
   2   3   8   26.16    1.66
   2   3   8   28.73    2.22
   2   3   8   26.56    1.27
  -2  -3  -8   28.91    1.62
  -2  -3  -8   24.84    1.93
   2   3   8   29.08    1.02
  -2  -3  -8   26.75    1.23
   2   3   9   28.32    2.35
  -2  -3  -9   31.81    2.25
  -2  -3  -9   32.01    1.81
   2   3   9   30.81    1.56
  -2  -3  -9   32.04    1.42
   2   3   9   30.46    1.04
   2   3  10   46.86    3.10
   2   3  10   50.93    1.34
  -2  -3 -10   50.55    1.90
  -2  -3 -10   52.90    2.87
  -2  -3 -10   52.83    2.41
   2   3  10   51.06    2.09
   2   3  11   19.70    0.87
  -2  -3 -11   20.05    2.21
  -2  -3 -11   20.75    1.72
  -2  -3 -11   20.49    1.38
   2   3  11   22.52    2.52
  -2  -3 -12    1.69    0.88
  -2  -3 -12   -0.53    1.41
   2   3  12    0.17    0.33
  -2  -3 -12   -0.81    1.05
   2   3  12    0.09    0.32
   2   3  12   -1.85    1.47
  -2  -3 -13   10.03    1.98
   2   3  13    5.49    0.47
  -2  -3 -13    7.47    1.15
   2   3  13    6.75    2.07
  -2  -3 -13    6.20    1.38
   2   3  13    5.84    0.49
  -2  -3 -14    4.48    1.48
  -2  -3 -14    4.00    1.52
  -2  -3 -14    5.53    1.16
   2   3  14    3.95    0.34
   2   3  14    5.26    2.07
   2   3  14    2.55    0.30
  -2  -3 -15    3.15    1.82
  -2  -3 -15    0.41    0.88
  -2  -3 -15   -0.15    1.28
  -2  -3 -16   -1.06    1.67
  -2  -3 -16    1.41    0.99
  -2  -3 -17    0.25    0.96
  -2  -3 -17    1.86    1.88
  -2  -4  14   40.72    2.67
  -2  -4  13    1.05    1.25
  -2  -4  12    7.83    1.54
   2   4 -11    6.56    1.70
  -2  -4  11    3.67    1.17
  -2  -4  11    2.62    1.48
   2   4 -11    6.22    1.56
  -2  -4  10   40.10    2.37
   2   4 -10   36.91    2.52
   2   4  -9    2.22    1.04
  -2  -4   9    2.51    1.38
  -2  -4   9    2.01    0.98
   2   4  -8   29.11    2.13
  -2  -4   8   26.54    1.88
  -2  -4   8   28.29    2.34
   2   4  -7   28.01    2.05
  -2  -4   7   24.05    1.71
  -2  -4   7   26.82    2.17
  -2  -4   6    0.92    1.02
  -2  -4   6    0.91    0.86
   2   4  -6    1.61    0.97
   2   4  -5  105.89    3.21
  -2  -4   5  103.42    3.09
   2   4  -5   99.82    2.82
  -2  -4   5  105.82    3.34
  -2  -4   4  130.67    3.44
  -2  -4   4  128.01    3.31
   2   4  -4  132.93    3.41
   2   4  -4  134.62    3.23
  -2  -4   3    5.69    0.98
   2   4  -3    7.65    1.01
  -2  -4   2   53.33    2.06
   2   4  -2   52.77    1.98
   2   4  -1    9.64    1.03
   2   4  -1    8.77    0.98
  -2  -4   1    9.10    1.07
   2   4   0    1.31    0.57
   2   4   0    0.72    0.55
  -2  -4   0    1.35    0.74
   2   4   1    1.18    0.68
  -2  -4  -1    2.63    0.77
   2   4   1    3.08    0.57
  -2  -4  -1    2.90    0.60
  -2  -4  -2  134.16    2.12
   2   4   2  141.92    2.08
   2   4   2  138.51    2.64
   2   4   3    1.08    0.35
   2   4   3    1.32    0.47
  -2  -4  -3    1.74    0.50
  -2  -4  -3    0.35    0.61
  -2  -4  -4  803.93    6.11
   2   4   4  824.33    5.52
   2   4   4  828.08    5.88
   2   4   4  821.72    3.76
  -2  -4  -4  811.67    5.40
  -2  -4  -4  809.03    4.28
  -2  -4  -5   14.27    0.99
   2   4   5   15.86    1.02
   2   4   5   15.33    0.65
  -2  -4  -5   16.16    0.69
  -2  -4  -5   13.39    0.91
   2   4   5   15.68    0.95
  -2  -4  -6   81.18    3.11
   2   4   6   77.91    1.74
  -2  -4  -6   78.23    1.74
  -2  -4  -6   77.53    1.44
  -2  -4  -6   75.70    2.06
   2   4   6   73.06    1.42
   2   4   6   78.59    2.18
  -2  -4  -7   12.90    0.73
   2   4   7   11.60    0.75
   2   4   7   12.77    0.77
  -2  -4  -7   12.14    0.73
  -2  -4  -7   13.38    1.64
   2   4   7   12.14    1.14
  -2  -4  -7   12.91    1.11
   2   4   8   59.62    1.40
  -2  -4  -8   55.35    1.51
  -2  -4  -8   56.42    2.86
   2   4   8   55.46    2.22
  -2  -4  -8   54.42    2.06
   2   4   8   61.06    1.73
   2   4   9    0.12    0.32
  -2  -4  -9   -1.40    0.78
   2   4   9    0.42    0.52
  -2  -4  -9    1.72    1.32
  -2  -4  -9    0.09    0.46
  -2  -4 -10    0.30    0.56
   2   4  10    0.50    0.29
  -2  -4 -10    1.57    0.88
  -2  -4 -11   18.25    2.08
  -2  -4 -11   17.65    1.18
  -2  -4 -11   13.30    1.48
   2   4  11   14.78    0.57
  -2  -4 -12    5.23    1.65
  -2  -4 -12    7.36    0.97
  -2  -4 -12    6.36    1.19
  -2  -4 -13   69.81    2.48
  -2  -4 -13   79.35    4.15
  -2  -4 -13   71.38    3.21
  -2  -4 -14   34.31    2.55
  -2  -4 -14   37.69    2.00
  -2  -4 -14   35.01    3.16
  -2  -4 -15    8.90    1.20
  -2  -4 -15    9.96    2.16
  -2  -4 -15   12.06    1.80
  -2  -4 -16    8.15    1.93
  -2  -4 -16    8.77    1.30
  -2  -4 -17   -0.16    1.00
  -2  -4 -17    1.20    1.85
  -2  -5  13    1.03    1.21
  -2  -5  12   43.49    2.91
  -2  -5  11    0.18    1.18
   2   5 -11    0.75    1.41
   2   5 -10    4.74    1.46
  -2  -5  10    2.06    1.42
  -2  -5  10    4.63    1.35
   2   5  -9    5.79    1.45
  -2  -5   9    9.67    1.80
  -2  -5   8   39.41    2.77
   2   5  -8   37.05    2.43
  -2  -5   8   31.70    2.15
  -2  -5   7    0.32    0.97
  -2  -5   7    2.12    1.29
   2   5  -7    1.73    1.04
  -2  -5   6   14.00    1.51
  -2  -5   6   13.82    1.63
   2   5  -6   16.24    1.63
  -2  -5   5  142.59    3.88
   2   5  -5  144.83    3.90
  -2  -5   5  144.74    4.11
  -2  -5   4    4.56    1.15
   2   5  -4    5.12    0.97
   2   5  -4    5.19    0.97
  -2  -5   4    4.74    1.11
   2   5  -3   14.36    1.31
  -2  -5   3   13.91    1.36
   2   5  -3   15.45    1.34
  -2  -5   2    6.46    1.12
   2   5  -2    7.85    1.01
   2   5  -2    7.20    0.96
   2   5  -1    0.93    0.75
   2   5  -1    0.63    0.71
  -2  -5   1    0.08    0.81
   2   5   0    6.06    0.98
   2   5   0    5.53    0.74
  -2  -5   0    5.61    0.98
   2   5   1   37.80    1.25
  -2  -5  -1   38.42    1.75
   2   5   1   42.05    1.74
  -2  -5  -2    8.57    1.06
  -2  -5  -2    9.13    0.76
   2   5   2    7.36    0.95
   2   5   2    9.31    0.68
   2   5   3   18.72    0.79
   2   5   3   17.14    0.89
   2   5   3   17.17    1.13
  -2  -5  -3   18.10    1.23
  -2  -5  -3   17.63    0.88
   2   5   4   12.22    0.83
   2   5   4   10.88    0.99
  -2  -5  -4   13.45    0.85
  -2  -5  -4   11.34    1.00
   2   5   4   12.87    0.52
   2   5   5   54.51    1.67
  -2  -5  -5   55.43    1.57
   2   5   5   58.52    1.71
   2   5   6  463.18    2.87
   2   5   6  463.63    4.44
   2   5   6  449.17    4.99
  -2  -5  -6  457.68    3.02
  -2  -5  -6  461.74    4.76
  -2  -5  -6  461.27    4.65
  -2  -5  -7   22.48    2.11
   2   5   7   20.08    0.98
  -2  -5  -7   22.28    0.77
  -2  -5  -7   21.25    1.23
   2   5   7   21.23    1.32
   2   5   7   22.18    0.81
  -2  -5  -7   22.15    1.02
  -2  -5  -8   98.75    3.93
  -2  -5  -8   95.29    2.61
  -2  -5  -8   94.80    1.84
   2   5   8   95.61    1.86
   2   5   8   87.83    2.64
   2   5   8   94.23    1.80
  -2  -5  -8   91.57    1.66
  -2  -5  -9    5.30    0.58
   2   5   9    4.73    0.48
  -2  -5  -9    6.76    0.98
  -2  -5  -9    3.94    1.36
   2   5  10   48.52    1.04
  -2  -5 -10   50.72    2.26
  -2  -5 -10   51.10    1.60
  -2  -5 -11    6.78    1.22
  -2  -5 -11    6.61    0.84
  -2  -5 -12   54.15    3.43
  -2  -5 -12   52.23    1.91
  -2  -5 -12   54.04    2.62
  -2  -5 -13   17.83    2.39
  -2  -5 -13   18.48    1.29
  -2  -5 -13   21.02    1.89
  -2  -5 -14   -0.53    1.60
  -2  -5 -14    0.80    1.10
  -2  -5 -14    1.03    0.74
  -2  -5 -15    0.02    1.67
  -2  -5 -15    1.81    1.28
  -2  -5 -15    2.36    0.86
  -2  -5 -16    4.66    1.98
  -2  -5 -16    3.50    0.97
  -2  -5 -17   18.30    2.94
  -2  -5 -17   12.99    1.50
  -2  -6  13   -1.24    1.39
  -2  -6  12   10.03    1.83
  -2  -6  11    1.86    1.26
  -2  -6  10   -0.25    1.41
  -2  -6  10    0.53    1.30
   2   6 -10    0.92    1.23
  -2  -6   9   64.02    3.77
   2   6  -9   63.31    3.28
  -2  -6   9   68.89    3.39
  -2  -6   8    3.88    1.63
  -2  -6   8    4.20    1.37
   2   6  -8    2.65    1.17
  -2  -6   7   25.65    2.33
  -2  -6   7   22.26    2.05
  -2  -6   6    0.15    0.98
   2   6  -6    0.14    0.86
  -2  -6   6    2.19    1.44
   2   6  -5   73.14    2.91
  -2  -6   5   75.80    3.13
  -2  -6   5   76.43    3.34
  -2  -6   4    0.03    1.02
   2   6  -4    1.04    0.82
  -2  -6   3   93.91    3.23
   2   6  -3   87.58    2.95
   2   6  -3   93.56    2.95
   2   6  -2   -0.66    0.70
   2   6  -2   -0.65    0.87
  -2  -6   2    0.50    0.84
   2   6  -1  154.67    3.29
   2   6  -1  151.93    3.06
   2   6  -1  149.21    3.61
  -2  -6   1  154.40    3.89
   2   6   0    2.70    0.91
   2   6   0    1.48    0.61
  -2  -6   0    3.25    0.97
   2   6   0    3.00    0.62
   2   6   1   11.98    0.78
   2   6   1   12.97    1.19
   2   6   1   13.04    0.94
  -2  -6  -1   11.77    1.25
   2   6   2   10.61    0.69
   2   6   2    9.38    1.07
  -2  -6  -2    9.47    1.12
   2   6   2    9.02    0.72
  -2  -6  -3   49.62    1.37
   2   6   3   50.45    1.28
  -2  -6  -3   52.32    2.07
   2   6   3   49.12    1.89
   2   6   4    6.94    0.84
   2   6   4    5.92    0.39
   2   6   4    6.35    0.63
  -2  -6  -4    5.30    0.59
  -2  -6  -4    6.52    0.92
   2   6   5   26.33    1.33
  -2  -6  -5   24.10    1.05
  -2  -6  -5   25.74    1.37
   2   6   5   25.99    1.10
  -2  -6  -6   12.01    1.00
   2   6   6   10.83    0.90
  -2  -6  -6   10.55    0.85
   2   6   6   11.59    0.91
   2   6   7   30.28    1.27
  -2  -6  -7   30.65    1.33
  -2  -6  -7   27.13    1.37
   2   6   7   31.04    1.47
  -2  -6  -8   42.01    0.92
  -2  -6  -8   48.50    3.01
   2   6   8   46.48    1.44
  -2  -6  -8   44.44    1.79
  -2  -6  -8   44.44    1.45
  -2  -6  -9    0.24    0.30
  -2  -6  -9    1.42    1.38
   2   6   9    0.04    0.38
  -2  -6  -9    0.71    0.41
  -2  -6  -9   -0.16    0.66
  -2  -6 -10    2.59    0.47
  -2  -6 -10    2.66    0.89
  -2  -6 -10    4.78    1.69
  -2  -6 -11   59.27    2.53
  -2  -6 -11   53.08    3.54
  -2  -6 -11   56.92    1.58
  -2  -6 -12   21.95    2.56
  -2  -6 -12   19.12    1.09
  -2  -6 -12   17.56    1.57
  -2  -6 -13   41.77    1.66
  -2  -6 -13   44.25    3.50
  -2  -6 -13   40.87    2.38
  -2  -6 -14    7.47    0.92
  -2  -6 -14    9.75    2.03
  -2  -6 -14    7.96    1.43
  -2  -6 -15    6.26    1.48
  -2  -6 -15    7.72    2.39
  -2  -6 -15    3.24    0.93
  -2  -6 -16   13.39    1.33
  -2  -6 -16   12.77    2.59
  -2  -6 -17   29.46    3.63
  -2  -7  12    0.10    1.52
  -2  -7  11    3.75    1.60
  -2  -7  10    6.02    1.77
  -2  -7   9    1.22    1.32
  -2  -7   9    0.51    1.47
   2   7  -9    1.50    1.22
  -2  -7   8    2.00    1.42
  -2  -7   8   -0.40    1.22
   2   7  -8    1.46    1.24
   2   7  -7   12.38    1.72
  -2  -7   7   10.45    1.75
  -2  -7   7   11.88    1.90
  -2  -7   6    1.11    1.12
   2   7  -6    0.03    1.04
  -2  -7   5   26.13    2.37
   2   7  -5   24.00    1.86
  -2  -7   5   23.90    2.06
   2   7  -4   -0.25    0.87
  -2  -7   4   -0.17    1.06
  -2  -7   3   12.15    1.59
   2   7  -3   12.62    1.33
  -2  -7   2    5.18    1.25
   2   7  -2    7.29    1.02
   2   7  -2    8.66    1.09
   2   7  -1    4.30    0.76
  -2  -7   1    5.29    1.09
   2   7  -1    4.35    1.04
   2   7  -1    5.11    0.84
  -2  -7   0   46.85    2.30
   2   7   0   48.21    1.60
   2   7   0   45.24    2.11
   2   7   0   46.40    1.78
   2   7   1    1.88    0.58
   2   7   1    1.34    0.84
  -2  -7  -1    1.35    0.90
   2   7   1    1.65    0.47
  -2  -7  -2    0.40    0.84
   2   7   2    0.17    0.38
   2   7   2    0.54    0.82
   2   7   2    0.25    0.45
  -2  -7  -3   24.34    1.57
   2   7   3   25.16    1.56
   2   7   3   24.41    0.95
   2   7   3   23.70    0.89
  -2  -7  -4   25.73    1.00
   2   7   4   23.34    0.73
  -2  -7  -4   22.70    1.53
   2   7   4   21.20    0.69
   2   7   4   24.87    0.95
   2   7   4   22.65    1.42
  -2  -7  -5    2.69    0.50
   2   7   5    2.30    0.71
  -2  -7  -5    2.23    0.76
   2   7   5    1.92    0.49
   2   7   6   12.11    1.04
  -2  -7  -6   10.39    1.03
  -2  -7  -6   10.20    0.80
   2   7   6   12.59    0.88
  -2  -7  -7    7.99    0.90
   2   7   7    8.41    0.86
   2   7   7    5.93    0.79
  -2  -7  -7    6.54    0.73
  -2  -7  -8    1.38    1.39
   2   7   8    0.27    0.48
  -2  -7  -8   -0.62    0.60
  -2  -7  -8    0.49    0.58
  -2  -7  -9    0.43    0.49
  -2  -7  -9   -0.27    1.55
  -2  -7  -9   -0.52    0.69
  -2  -7 -10    4.96    0.57
  -2  -7 -10    3.65    0.30
  -2  -7 -10    5.26    0.93
  -2  -7 -11    0.06    1.58
  -2  -7 -11    0.34    0.80
  -2  -7 -11    0.14    0.30
  -2  -7 -12   30.36    2.94
  -2  -7 -12   27.41    1.09
  -2  -7 -12   30.57    1.95
  -2  -7 -13    0.86    0.52
  -2  -7 -13    0.11    1.01
  -2  -7 -14   86.85    2.18
  -2  -7 -14   80.48    4.63
  -2  -7 -14   78.69    3.37
  -2  -7 -15   -0.85    2.09
  -2  -7 -15    1.48    0.64
  -2  -7 -15    1.78    1.21
  -2  -7 -16    3.24    2.18
  -2  -8  11    5.14    1.84
  -2  -8  10   14.90    2.23
   2   8  -9    3.13    1.37
  -2  -8   9    1.17    1.36
   2   8  -8   19.90    1.96
  -2  -8   8   22.62    2.33
   2   8  -7    1.09    1.13
  -2  -8   7    1.97    1.36
  -2  -8   7    1.11    1.50
   2   8  -7   -0.78    1.13
  -2  -8   6    3.61    1.60
  -2  -8   6    1.35    1.21
   2   8  -6   -0.28    1.11
   2   8  -5   18.11    1.70
  -2  -8   5   21.02    2.17
  -2  -8   5   20.58    2.26
  -2  -8   4   -0.87    1.34
   2   8  -4   -0.51    0.95
   2   8  -3   61.76    2.61
  -2  -8   3   55.33    3.01
   2   8  -3   56.79    2.45
   2   8  -2   14.14    1.25
   2   8  -2   14.20    1.41
  -2  -8   2   12.70    1.67
   2   8  -1    1.03    0.81
  -2  -8   1    0.15    0.89
   2   8  -1    1.50    0.65
  -2  -8   0    0.24    0.96
   2   8   0    1.82    0.53
   2   8   0    1.76    0.83
   2   8   1    3.63    0.57
   2   8   1    3.21    0.73
   2   8   2  575.05    4.10
   2   8   2  562.61    5.11
   2   8   2  558.97    7.27
  -2  -8  -2  563.58    7.69
   2   8   3    1.98    0.38
   2   8   3    2.05    0.44
  -2  -8  -3    1.06    0.88
   2   8   3    1.52    0.82
  -2  -8  -4  110.82    3.31
   2   8   4  108.99    1.67
   2   8   4  109.96    1.51
   2   8   4  110.10    1.71
   2   8   4  105.30    3.05
   2   8   5    0.99    0.69
  -2  -8  -5    1.54    0.45
  -2  -8  -5    1.53    0.78
   2   8   5    0.11    0.38
   2   8   6    0.54    0.68
  -2  -8  -6   -0.25    0.44
   2   8   6    0.36    0.46
  -2  -8  -6   -0.02    0.70
  -2  -8  -7    4.18    0.93
  -2  -8  -7    3.93    0.64
  -2  -8  -8    3.46    0.68
  -2  -8  -8    2.02    0.75
  -2  -8  -9    2.97    1.81
  -2  -8  -9    3.62    0.76
  -2  -8  -9    3.57    0.78
  -2  -8 -10   90.57    4.73
  -2  -8 -10   85.01    2.72
  -2  -8 -10   88.51    2.12
  -2  -8 -11    6.87    0.60
  -2  -8 -11    9.12    1.16
  -2  -8 -11    9.38    2.10
  -2  -8 -12   26.54    3.10
  -2  -8 -12   21.64    1.67
  -2  -8 -13    0.83    0.18
  -2  -8 -13    1.07    0.87
  -2  -8 -14   -0.85    1.03
  -2  -8 -14    0.35    0.31
  -2  -8 -14   -0.50    1.66
  -2  -8 -15    2.56    2.14
  -2  -8 -15    1.89    1.15
  -2  -8 -16    4.73    2.24
  -2  -8 -16    5.11    1.42
  -2  -9  10   40.87    3.40
  -2  -9   9   23.05    2.64
   2   9  -8    0.59    1.11
  -2  -9   8   -0.75    1.48
  -2  -9   7    3.85    1.59
   2   9  -7    7.69    1.43
  -2  -9   6    5.91    1.71
   2   9  -6    4.52    1.35
   2   9  -6    5.43    1.26
  -2  -9   6    1.45    1.27
   2   9  -5    1.91    1.19
  -2  -9   5    0.39    1.58
   2   9  -5    2.55    1.04
  -2  -9   5    0.77    1.28
   2   9  -4    7.12    1.16
   2   9  -4    8.55    1.31
   2   9  -3    9.68    1.32
  -2  -9   3    8.13    1.59
   2   9  -3    9.32    1.31
  -2  -9   2    0.81    1.15
   2   9  -2   -0.90    0.81
   2   9  -2    1.29    0.89
  -2  -9   1    1.71    1.23
   2   9  -1    1.62    0.80
   2   9  -1    2.44    0.69
   2   9   0    1.82    0.55
  -2  -9   0    1.81    1.08
   2   9   0    1.89    0.74
   2   9   1   34.02    1.24
  -2  -9  -1   29.93    2.20
   2   9   1   29.52    1.47
  -2  -9  -2   36.09    2.26
   2   9   2   34.66    1.43
   2   9   2   34.11    1.00
   2   9   3   -0.57    0.46
   2   9   3    0.27    0.26
  -2  -9  -4    1.35    0.91
   2   9   4    1.17    0.38
   2   9   4    1.04    0.30
  -2  -9  -5   26.54    1.87
  -2  -9  -6   28.46    1.81
  -2  -9  -6   28.92    1.02
  -2  -9  -7    8.10    1.14
  -2  -9  -7    8.57    0.72
  -2  -9  -8   15.92    1.35
  -2  -9  -8   15.50    1.03
  -2  -9  -9   19.08    1.37
  -2  -9  -9   18.73    1.18
  -2  -9 -10   59.86    4.13
  -2  -9 -10   54.90    1.96
  -2  -9 -10   54.27    1.95
  -2  -9 -11    7.16    2.32
  -2  -9 -11    6.57    0.73
  -2  -9 -11    7.05    1.06
  -2  -9 -12    3.99    2.04
  -2  -9 -12    2.78    0.93
  -2  -9 -13    1.46    1.92
  -2  -9 -13    5.14    1.11
  -2  -9 -14   -0.48    1.92
  -2  -9 -14    0.72    0.95
  -2  -9 -15    0.06    2.11
  -2  -9 -15   -0.38    0.99
   2  10  -8    0.74    1.15
  -2 -10   8   -1.49    1.58
  -2 -10   7    0.39    1.59
   2  10  -7    2.32    1.19
   2  10  -6    4.56    1.37
  -2 -10   6    6.21    1.84
   2  10  -6    5.58    1.31
   2  10  -5    7.37    1.29
   2  10  -5    9.22    1.55
  -2 -10   5    8.90    1.83
   2  10  -5    8.92    1.45
   2  10  -4   -0.01    0.84
   2  10  -4    2.78    1.15
   2  10  -4    0.83    1.03
  -2 -10   4   -0.56    1.43
  -2 -10   3   45.11    3.07
   2  10  -3   48.87    2.49
   2  10  -3   51.00    2.25
  -2 -10   2    6.30    1.39
   2  10  -2    5.66    0.90
   2  10  -2    7.76    1.24
   2  10  -2    6.64    0.99
  -2 -10   1    1.14    1.34
   2  10  -1    1.33    0.81
   2  10  -1    1.33    0.66
  -2 -10   0   -0.61    1.30
   2  10   0   -0.33    0.76
   2  10   0    0.13    0.47
   2  10   1    3.82    0.78
   2  10   1    1.80    0.42
  -2 -10  -1    2.96    1.25
   2  10   2    0.71    0.25
   2  10   2    0.79    0.24
   2  10   3  721.66    5.45
  -2 -10  -3  721.75    9.73
   2  10   4   29.85    0.92
   2  10   4   30.77    1.05
  -2 -10  -4   30.73    2.15
  -2 -10  -5    3.66    0.98
  -2 -10  -6    5.90    1.25
  -2 -10  -7    0.06    0.25
  -2 -10  -7   -0.30    0.88
  -2 -10  -8    2.05    0.89
  -2 -10  -8    2.78    0.47
  -2 -10  -9   19.65    1.06
  -2 -10  -9   18.19    1.47
  -2 -10 -10   36.89    1.87
  -2 -10 -10   37.69    1.58
  -2 -10 -11   21.81    1.41
  -2 -10 -11   21.71    1.30
  -2 -10 -12    3.00    0.54
  -2 -10 -12    1.84    2.29
  -2 -10 -12    2.50    0.81
  -2 -10 -13   -1.21    2.15
  -2 -10 -13   -0.22    0.76
  -2 -10 -14    0.08    0.94
  -2 -10 -14    2.70    2.40
  -2 -10 -15    4.83    2.33
  -2 -11   7    2.70    1.86
   2  11  -7    0.76    1.21
  -2 -11   6    0.26    1.80
   2  11  -6   -0.30    1.19
   2  11  -6    0.62    0.98
   2  11  -5    0.89    0.88
  -2 -11   5   -0.72    1.56
   2  11  -5    0.96    1.09
   2  11  -4   16.77    1.57
  -2 -11   4   19.25    2.44
   2  11  -4   15.27    1.79
   2  11  -4   17.02    1.56
  -2 -11   3    0.42    1.32
   2  11  -3    3.44    0.92
   2  11  -3    1.26    0.80
   2  11  -3    1.37    1.08
  -2 -11   2    1.93    1.33
   2  11  -2    1.17    0.98
   2  11  -2    2.21    0.71
   2  11  -2    1.59    0.75
   2  11  -1    9.11    1.20
  -2 -11   1   10.74    1.88
   2  11  -1   11.01    0.93
   2  11  -1   12.60    1.00
   2  11   0    2.11    0.81
   2  11   0    1.58    0.47
   2  11   0    2.67    0.53
  -2 -11   0    1.18    1.29
  -2 -11  -1    0.57    1.30
   2  11   1   -0.02    0.24
   2  11   1    0.07    0.22
   2  11   1   -0.32    0.61
   2  11   2    4.34    0.78
  -2 -11  -2    1.36    1.35
   2  11   3    3.91    0.60
  -2 -11  -3    2.78    1.17
   2  11   4  138.35    1.95
  -2 -11  -4  135.02    4.52
   2  11   4  136.27    2.24
  -2 -11  -5   20.59    1.88
  -2 -11  -6   14.41    1.64
  -2 -11  -7    1.90    1.06
  -2 -11  -8    4.14    1.06
  -2 -11  -9    0.49    0.29
  -2 -11  -9    1.08    0.96
  -2 -11 -10    5.60    1.13
  -2 -11 -10    3.53    0.62
  -2 -11 -11    1.92    0.83
  -2 -11 -11    0.56    0.52
  -2 -11 -12    0.66    0.58
  -2 -11 -12    0.72    2.00
  -2 -11 -13   -0.91    2.09
   2  12  -5    0.45    0.93
   2  12  -4    7.71    1.17
  -2 -12   4    9.71    1.99
   2  12  -3    1.65    0.77
  -2 -12   3    1.24    1.49
   2  12  -3    2.18    1.16
   2  12  -2    0.11    0.89
  -2 -12   2   -0.03    1.44
   2  12  -2   -0.53    0.60
   2  12  -2    0.82    0.55
   2  12  -1    2.21    0.56
   2  12  -1    0.45    0.81
  -2 -12   1    0.13    1.48
   2  12  -1    2.52    0.55
  -2 -12   0    0.11    1.37
   2  12   0   -0.13    0.25
   2  12   0    1.64    0.87
  -2 -12  -1    0.87    1.44
   2  12   1    2.39    0.81
  -2 -12  -2    0.20    1.26
   2  12   2    0.73    0.63
  -2 -12  -3    0.37    1.22
   2  12   3    3.15    0.63
   2  12   4  150.90    2.03
  -2 -12  -4  167.31    5.31
  -2 -12  -5   44.27    2.87
  -2 -12  -6    5.50    1.36
  -2 -12  -7    1.94    1.13
  -2 -12  -8    6.88    1.31
  -2 -12  -9   -0.22    0.93
  -2 -12 -10   -0.18    0.84
  -2 -12 -11   -0.10    0.79
  -2 -12 -11    1.27    2.38
  -2 -12 -12    1.10    2.43
   2  13  -2   -0.40    0.92
  -2 -13   2   -1.58    1.60
   2  13  -1   22.47    1.84
  -2 -13   1   26.40    2.68
  -2 -13   0   11.39    2.10
   2  13   0    7.69    1.12
   2  13   1    3.94    0.90
  -2 -13  -1    3.42    1.45
   2  13   2    0.02    0.58
  -2 -13  -2    0.19    1.31
  -2 -13  -3   24.28    2.50
   2  13   3   25.46    1.21
   2  13   4    0.79    0.29
  -2 -13  -4    2.18    1.36
  -2 -13  -5   30.48    2.64
  -2 -13  -6    4.40    1.41
  -2 -13  -7   22.83    2.15
  -2 -13  -8    4.88    1.35
  -2 -13  -9    1.73    1.07
  -2 -13 -10    3.65    1.25
  -2 -14  -2    0.92    1.47
  -2 -14  -3    2.14    1.55
  -2 -14  -4   -1.49    1.50
  -2 -14  -5    1.69    1.33
  -2 -14  -6    1.41    1.30
  -2 -14  -7    0.86    1.18
   3 -12  -7    5.15    1.39
   3 -12  -6    3.21    1.21
   3 -12  -5   16.22    1.91
   3 -12  -4    5.69    1.41
   3 -12  -3    3.06    1.40
   3 -12  -2    1.73    1.32
   3 -12  -1    2.26    1.41
   3 -12   0   -0.26    1.32
   3 -12   1   -0.13    1.36
   3 -12   2   10.13    2.04
   3 -11  -9    1.70    2.19
   3 -11  -8    0.93    0.86
   3 -11  -7   19.49    1.74
   3 -11  -6   38.74    2.41
   3 -11  -5    6.02    0.64
   3 -11  -5    5.55    1.25
   3 -11  -4   -0.72    0.96
   3 -11  -4    0.25    0.53
   3 -11  -3    1.87    0.77
  -3  11   3    0.12    0.63
   3 -11  -3    1.89    1.10
   3 -11  -2    0.82    0.78
   3 -11  -2    1.54    1.21
  -3  11   2    1.35    0.82
   3 -11  -1    2.68    1.34
  -3  11   1    3.83    0.91
   3 -11  -1    1.75    0.90
   3 -11   0    2.55    1.00
   3 -11   0    2.55    1.34
  -3  11   0    0.96    0.77
   3 -11   1    3.33    1.48
   3 -11   1    0.69    1.06
  -3  11  -1    1.06    0.88
   3 -11   2    0.74    1.09
  -3  11  -2    0.63    1.07
   3 -11   2    2.43    1.35
  -3  11  -3    3.15    1.10
   3 -11   3    1.99    1.49
   3 -11   3    2.61    1.33
   3 -11   4    2.33    1.32
   3 -11   4    3.83    1.75
  -3  11  -4    2.40    1.13
   3 -11   5    4.57    1.81
   3 -10 -11   11.54    2.66
   3 -10 -10   11.37    2.47
   3 -10  -9    1.83    2.00
   3 -10  -9    0.86    0.72
   3 -10  -8    3.06    0.87
   3 -10  -8    1.48    0.82
   3 -10  -7   18.06    1.60
   3 -10  -6    4.45    0.48
   3 -10  -6    5.11    1.12
   3 -10  -5    5.16    1.22
   3 -10  -5    7.96    0.74
   3 -10  -4   -0.19    0.95
   3 -10  -4    0.81    0.54
   3 -10  -3    3.81    1.19
  -3  10   3    3.51    0.82
   3 -10  -3    4.21    0.79
  -3  10   2    6.49    0.95
   3 -10  -2    4.45    1.18
   3 -10  -2    6.75    0.96
   3 -10  -1    0.03    1.01
   3 -10  -1   -0.50    0.71
  -3  10   1   -0.07    0.79
   3 -10   0   26.68    2.20
  -3  10   0   29.84    1.83
   3 -10   0   27.27    1.81
   3 -10   1   -0.24    1.08
  -3  10  -1    3.01    0.90
   3 -10   1    2.72    1.11
  -3  10  -2    5.63    1.12
   3 -10   2    4.68    1.51
  -3  10  -2    3.08    0.37
  -3  10  -3   -0.37    0.92
  -3  10  -3    2.34    0.54
   3 -10   3    0.92    1.17
   3 -10   3    0.35    1.00
   3 -10   4   -0.76    1.13
  -3  10  -4    3.24    1.23
   3 -10   4    0.42    1.23
  -3  10  -4    0.96    0.59
  -3  10  -5    7.65    1.51
   3 -10   5    8.10    1.79
   3 -10   5    7.90    1.76
  -3  10  -5    7.47    0.96
   3 -10   6   -1.78    1.66
   3 -10   6   -0.22    1.24
   3 -10   7    9.71    2.10
   3  -9 -12    0.53    1.86
   3  -9 -12    0.88    0.94
   3  -9 -11    1.05    1.95
   3  -9 -11    1.45    0.79
   3  -9 -10   -0.60    1.85
   3  -9 -10    0.64    0.47
   3  -9 -10    1.48    0.77
   3  -9 -10    1.30    0.69
   3  -9  -9    9.43    0.95
   3  -9  -9    6.81    0.80
   3  -9  -9    8.29    0.93
   3  -9  -9    5.73    0.40
   3  -9  -9    5.76    0.46
   3  -9  -9   11.18    2.50
   3  -9  -9    8.49    0.86
   3  -9  -8   10.75    1.10
   3  -9  -8    7.97    0.78
   3  -9  -8    8.96    0.54
   3  -9  -8   10.77    1.14
   3  -9  -8    9.34    0.72
   3  -9  -7    8.02    1.12
   3  -9  -7    9.55    0.62
   3  -9  -7    8.62    0.50
   3  -9  -6   18.34    1.52
   3  -9  -6   16.33    0.86
   3  -9  -5    5.33    1.03
   3  -9  -5    4.80    0.65
   3  -9  -4   11.25    1.37
   3  -9  -4   12.88    0.98
  -3   9   3    0.89    0.63
   3  -9  -3    0.91    0.63
   3  -9  -3   -0.04    0.84
   3  -9  -2    3.20    1.15
  -3   9   2    3.80    0.88
   3  -9  -2    1.54    0.63
   3  -9  -1    0.71    1.00
  -3   9   1    1.86    0.71
   3  -9  -1    1.03    0.72
   3  -9   0   39.12    2.48
   3  -9   0   36.00    1.96
  -3   9   0   40.26    2.01
   3  -9   1   13.39    1.35
  -3   9  -1   10.47    0.52
   3  -9   1   13.18    1.76
  -3   9  -1   14.89    1.38
   3  -9   2    7.40    1.53
  -3   9  -2    5.74    1.08
  -3   9  -2    5.85    0.58
   3  -9   2    4.43    1.06
  -3   9  -3    4.57    0.69
  -3   9  -3    3.24    1.11
   3  -9   3    2.54    1.41
   3  -9   3    2.49    1.05
   3  -9   4    1.74    1.30
  -3   9  -4   -1.85    1.17
   3  -9   4   -0.04    1.05
  -3   9  -4    0.67    0.60
   3  -9   5    3.30    1.29
   3  -9   5   -0.58    1.22
  -3   9  -5    1.32    1.06
  -3   9  -5    1.14    0.69
   3  -9   6    5.56    1.67
  -3   9  -6    2.61    1.14
   3  -9   6    3.53    1.39
  -3   9  -6    3.80    0.90
  -3   9  -7    2.42    0.93
   3  -9   7    4.62    1.54
   3  -9   7    5.28    1.71
   3  -9   8    2.03    1.50
   3  -9   8    2.89    1.70
  -3   9  -8    0.34    1.00
   3  -9   9   14.45    2.28
  -3   9  -9   10.64    1.58
   3  -8 -13    3.44    1.26
   3  -8 -13    1.71    1.82
   3  -8 -12   -0.13    0.92
   3  -8 -12   -0.51    0.97
   3  -8 -11    0.50    0.43
   3  -8 -11    1.58    1.81
   3  -8 -11    0.41    0.46
   3  -8 -11    0.44    0.91
   3  -8 -11    1.34    0.92
   3  -8 -10   15.05    2.48
   3  -8 -10   14.53    0.93
   3  -8 -10   12.48    0.82
   3  -8 -10   16.02    1.49
   3  -8 -10    9.83    0.64
   3  -8 -10   11.92    1.26
   3  -8  -9   -0.03    0.60
   3  -8  -9    0.63    0.57
   3  -8  -9    0.64    0.69
   3  -8  -9    0.82    0.47
   3  -8  -9   -1.34    1.91
   3  -8  -9    0.04    0.49
   3  -8  -8   11.31    1.00
   3  -8  -8   10.38    0.76
   3  -8  -8    9.90    0.97
   3  -8  -8    9.96    1.07
   3  -8  -8   11.21    2.28
   3  -8  -8    8.71    0.88
   3  -8  -7    0.29    0.53
   3  -8  -7    0.58    0.64
   3  -8  -7    0.01    0.67
   3  -8  -7    0.15    0.48
   3  -8  -7    0.11    0.41
   3  -8  -6    6.66    0.62
   3  -8  -6    5.80    0.94
   3  -8  -6    5.22    0.67
   3  -8  -6    5.77    0.56
   3  -8  -5   12.78    0.57
   3  -8  -5   13.72    1.31
   3  -8  -5   13.92    0.91
   3  -8  -5   12.06    0.57
   3  -8  -4    2.59    0.60
  -3   8   3    1.44    0.66
   3  -8  -3    1.18    0.60
   3  -8  -2    2.08    0.67
  -3   8   2    1.42    0.67
   3  -8  -1    0.86    0.65
  -3   8   1    2.00    0.70
   3  -8   0   11.36    1.16
  -3   8   0   12.86    1.19
   3  -8   1    0.59    0.82
  -3   8  -1    0.38    0.77
  -3   8  -1   -0.39    0.34
   3  -8   2   26.79    1.85
  -3   8  -2   30.74    1.26
  -3   8  -3   14.28    1.03
  -3   8  -3   13.47    1.40
   3  -8   3   11.00    1.47
   3  -8   4    0.26    0.96
  -3   8  -4    0.98    0.99
  -3   8  -4    0.50    0.65
  -3   8  -5   17.28    1.64
   3  -8   5   16.35    1.92
   3  -8   5   15.08    1.68
  -3   8  -5   17.47    1.35
   3  -8   6   21.01    2.17
  -3   8  -6   18.82    1.91
  -3   8  -6   18.74    1.53
   3  -8   6   21.56    2.59
   3  -8   6   18.88    2.09
   3  -8   7   21.74    2.32
   3  -8   7   23.83    2.33
  -3   8  -7   22.80    1.74
   3  -8   7   21.85    2.52
  -3   8  -7   22.97    2.06
   3  -8   8    6.76    1.79
   3  -8   8    4.11    1.47
  -3   8  -8    5.57    1.19
   3  -8   9    0.80    1.46
  -3   8  -9    1.54    1.12
   3  -8   9    5.12    1.70
   3  -8  10    8.05    1.85
  -3   8 -10    4.21    1.32
   3  -8  11    1.88    1.46
   3  -7 -14    1.61    1.79
   3  -7 -13    5.82    1.00
   3  -7 -13    5.33    1.29
   3  -7 -13    6.04    2.09
   3  -7 -12    0.57    0.65
   3  -7 -12    1.71    1.69
   3  -7 -12   -0.21    1.08
   3  -7 -12   -0.16    0.64
   3  -7 -12    0.23    1.00
   3  -7 -11    0.33    1.07
   3  -7 -11    1.14    0.62
   3  -7 -11   -1.67    1.67
   3  -7 -11   -0.29    0.93
   3  -7 -11    2.13    0.71
   3  -7 -10    7.34    1.33
   3  -7 -10    5.73    0.82
   3  -7 -10    3.45    1.80
   3  -7 -10    3.48    0.90
   3  -7 -10    6.16    0.82
   3  -7  -9   14.61    2.38
   3  -7  -9   13.76    1.03
   3  -7  -9   11.49    0.81
   3  -7  -9   10.51    0.73
   3  -7  -9   13.71    1.43
   3  -7  -9   12.61    1.22
   3  -7  -8    0.89    0.56
   3  -7  -8    1.09    0.54
   3  -7  -8    0.85    0.57
   3  -7  -8    1.22    1.50
   3  -7  -8   -0.65    0.78
   3  -7  -7    0.81    0.59
   3  -7  -7   -0.08    0.50
   3  -7  -7    0.97    0.66
   3  -7  -7    0.56    0.59
   3  -7  -6   -0.08    0.45
   3  -7  -6    0.49    0.55
   3  -7  -5    1.68    0.50
   3  -7  -5    2.52    0.60
   3  -7  -4    1.71    0.41
   3  -7  -4    0.46    0.45
   3  -7  -3   35.07    0.99
   3  -7  -3   40.09    1.60
  -3   7   2    8.61    0.97
   3  -7  -2    9.83    0.49
   3  -7  -2    9.93    0.96
   3  -7  -1   -0.29    0.26
   3  -7  -1   -0.66    0.60
  -3   7   1    0.47    0.69
  -3   7   0   17.88    0.84
   3  -7   0   19.41    0.82
  -3   7   0   17.29    1.32
  -3   7  -1    2.89    0.79
   3  -7   1    2.66    0.82
  -3   7  -1    2.88    0.53
  -3   7  -2    1.67    0.56
  -3   7  -2    1.33    0.72
   3  -7   2    1.47    0.81
  -3   7  -3    3.98    0.92
  -3   7  -3    5.38    0.74
   3  -7   3    4.71    1.09
  -3   7  -4    1.38    0.72
   3  -7   4    1.11    0.94
  -3   7  -4    0.13    0.85
  -3   7  -5   10.47    1.40
  -3   7  -5   10.42    1.11
   3  -7   5    6.46    1.22
   3  -7   6  194.33    5.95
  -3   7  -6  204.59    5.07
   3  -7   6  191.87    5.26
  -3   7  -6  193.79    4.27
   3  -7   7   -0.10    1.22
  -3   7  -7    0.82    0.97
  -3   7  -7    0.42    0.87
   3  -7   7    1.69    1.16
   3  -7   7   -1.63    1.46
   3  -7   8   27.99    2.44
   3  -7   8   23.69    2.54
  -3   7  -8   22.70    1.99
  -3   7  -8   24.23    1.86
   3  -7   8   23.19    2.22
   3  -7   9   -0.99    1.32
  -3   7  -9    0.57    1.04
   3  -7   9    1.84    1.39
   3  -7  10    1.49    1.52
   3  -7  10    0.43    1.39
  -3   7 -10    1.35    1.14
   3  -7  11   11.56    2.04
   3  -7  12    0.83    1.59
   3  -6 -14    1.44    1.18
   3  -6 -14    0.97    1.03
   3  -6 -14   -1.67    1.94
   3  -6 -13    9.11    1.55
   3  -6 -13    6.99    1.12
   3  -6 -13    9.43    2.20
   3  -6 -13    8.60    1.19
   3  -6 -12    5.94    1.32
   3  -6 -12   10.04    2.13
   3  -6 -12   10.29    1.31
   3  -6 -12    7.26    1.06
   3  -6 -11    1.81    0.89
   3  -6 -11    1.05    1.63
   3  -6 -11    1.13    0.62
   3  -6 -11    0.93    0.79
   3  -6 -10    0.72    0.70
   3  -6 -10   -1.56    1.54
   3  -6  -9    6.19    0.52
   3  -6  -9    7.11    1.24
   3  -6  -9    7.96    1.74
   3  -6  -9    6.10    0.47
   3  -6  -9    6.62    0.91
   3  -6  -8    3.70    1.60
   3  -6  -8    2.40    0.54
   3  -6  -8    4.52    1.08
   3  -6  -8    2.25    0.50
   3  -6  -8    2.21    0.65
   3  -6  -7   13.01    2.11
   3  -6  -7   12.03    0.94
   3  -6  -7   12.74    1.27
   3  -6  -7   10.47    0.89
   3  -6  -6    5.52    0.73
   3  -6  -6    5.74    0.74
   3  -6  -6    5.17    0.90
   3  -6  -5    1.99    0.59
   3  -6  -5    2.11    0.63
   3  -6  -4    5.33    0.65
   3  -6  -4    4.02    0.64
  -3   6   3   33.39    1.53
   3  -6  -3   35.33    1.12
   3  -6  -3   31.01    1.36
  -3   6   2   26.27    1.39
   3  -6  -2   26.20    0.93
   3  -6  -2   26.30    1.26
   3  -6  -1   -0.16    0.55
  -3   6   1   -0.34    0.65
   3  -6  -1    0.30    0.35
  -3   6   0    5.53    0.59
   3  -6   0    4.58    0.53
   3  -6   0    5.55    0.85
  -3   6   0    4.57    0.81
   3  -6   1    2.60    0.53
  -3   6  -1    2.20    0.70
  -3   6  -1    2.56    0.50
   3  -6   1    2.21    0.73
   3  -6   2    5.17    0.71
   3  -6   2    5.61    0.92
  -3   6  -2    5.87    0.69
  -3   6  -3    2.61    0.85
   3  -6   3    1.79    0.82
  -3   6  -3    1.89    0.61
  -3   6  -4    0.85    0.77
  -3   6  -4   -0.12    0.69
   3  -6   4    0.72    0.86
   3  -6   5   10.84    1.42
  -3   6  -5   11.29    1.17
  -3   6  -5    8.31    1.25
   3  -6   6   52.34    3.09
  -3   6  -6   47.93    2.46
   3  -6   6   47.16    2.56
  -3   6  -6   44.90    2.11
  -3   6  -7  651.82    8.83
  -3   6  -7  639.98    7.99
  -3   6  -8    0.12    1.04
   3  -6   8   -1.06    1.31
  -3   6  -8    1.36    1.05
   3  -6   8    2.97    1.33
   3  -6   9   23.29    2.30
  -3   6  -9   22.23    1.95
  -3   6  -9   21.09    1.99
   3  -6   9   21.04    2.06
   3  -6   9   25.98    2.64
   3  -6  10    4.19    1.34
  -3   6 -10    3.50    1.19
   3  -6  10    5.69    1.65
   3  -6  11    2.05    1.38
   3  -6  11    2.93    1.49
  -3   6 -11    1.33    1.13
   3  -6  12    7.06    1.81
   3  -6  13    5.10    1.75
   3  -5 -15   -2.63    2.27
   3  -5 -14   -0.58    0.88
   3  -5 -14    3.19    1.86
   3  -5 -13   10.02    2.08
   3  -5 -13   12.36    1.37
   3  -5 -13   14.37    1.54
   3  -5 -13   13.01    1.77
   3  -5 -12    1.73    0.98
   3  -5 -12    2.93    1.07
   3  -5 -12   -1.06    1.11
   3  -5 -12    1.14    1.37
   3  -5 -11    1.39    0.79
   3  -5 -11    0.31    0.76
   3  -5 -11    2.57    1.63
   3  -5 -10    2.23    1.35
   3  -5 -10    2.96    0.99
   3  -5  -9    5.09    0.96
   3  -5  -9    3.66    0.31
   3  -5  -8   65.78    3.56
   3  -5  -8   65.08    2.27
   3  -5  -8   57.00    1.56
   3  -5  -7   74.89    3.66
   3  -5  -7   75.85    2.25
   3  -5  -7   77.17    1.91
   3  -5  -7   82.56    2.83
   3  -5  -6    7.86    0.84
   3  -5  -6    4.63    1.42
   3  -5  -6    5.34    0.87
   3  -5  -6    7.57    0.79
   3  -5  -5    7.14    0.77
   3  -5  -5    7.19    0.87
   3  -5  -5    6.93    0.79
   3  -5  -4   42.18    1.53
   3  -5  -4   44.78    1.56
  -3   5   3   30.81    1.45
   3  -5  -3   32.11    1.22
   3  -5  -3   30.39    1.29
  -3   5   2   25.80    1.35
   3  -5  -2   26.73    1.21
   3  -5  -2   26.28    1.02
  -3   5   1    0.76    0.48
   3  -5  -1    0.31    0.51
   3  -5  -1   -0.11    0.36
  -3   5   1   -0.43    0.55
   3  -5   0   46.70    1.35
   3  -5   0   51.49    1.80
  -3   5   0   49.66    1.44
  -3   5   0   50.30    1.82
  -3   5  -1   53.26    1.54
   3  -5   1   51.15    1.85
   3  -5   1   52.25    1.55
  -3   5  -1   52.75    1.92
  -3   5  -2   47.21    1.88
  -3   5  -2   49.46    1.59
   3  -5   2   44.93    1.85
   3  -5   2   45.06    1.60
  -3   5  -3   25.23    1.50
   3  -5   3   22.93    1.51
  -3   5  -3   25.77    1.29
   3  -5   3   21.47    1.28
  -3   5  -4   15.50    1.16
  -3   5  -4   18.05    1.41
   3  -5   4   17.67    1.33
   3  -5   4   18.07    1.48
   3  -5   5  247.21    5.02
  -3   5  -5  243.99    4.78
  -3   5  -5  242.29    4.26
  -3   5  -6    0.35    0.86
   3  -5   6   -0.16    1.19
   3  -5   6    1.19    0.90
  -3   5  -6    0.48    0.79
   3  -5   7   98.50    3.94
  -3   5  -7   95.71    3.16
  -3   5  -7   97.61    3.39
   3  -5   7   88.86    3.40
  -3   5  -8   22.26    1.78
  -3   5  -8   24.88    2.01
   3  -5   8   22.15    2.01
   3  -5   9    0.64    1.40
   3  -5   9   -0.21    1.09
  -3   5  -9    1.73    1.08
  -3   5  -9    0.16    1.00
   3  -5  10   -0.75    1.12
   3  -5  10    0.80    1.19
  -3   5 -10    1.04    1.09
  -3   5 -10   -0.39    1.09
   3  -5  10    1.30    1.38
  -3   5 -11    1.12    1.23
   3  -5  11    2.45    1.21
   3  -5  11    3.98    1.59
   3  -5  12    2.18    1.26
   3  -5  12    1.44    1.52
   3  -5  13   -1.17    1.26
   3  -5  14    1.29    1.43
   3  -4 -15   23.13    2.07
   3  -4 -15   30.26    3.21
   3  -4 -14    2.60    1.86
   3  -4 -14    2.96    1.07
   3  -4 -13   -0.35    1.57
   3  -4 -13    0.80    1.17
   3  -4 -13    0.84    0.88
   3  -4 -12   10.33    1.89
   3  -4 -12    9.43    1.32
   3  -4 -11    1.31    0.92
   3  -4 -11   -1.24    1.44
   3  -4 -10    1.93    1.43
   3  -4  -9    6.13    1.57
   3  -4  -9    5.39    1.09
   3  -4  -8    3.48    1.44
   3  -4  -8    1.98    0.39
   3  -4  -8    2.25    0.86
   3  -4  -7   12.29    1.73
   3  -4  -7   11.38    1.15
   3  -4  -7   12.04    0.81
   3  -4  -6   46.92    1.86
   3  -4  -6   47.39    2.11
   3  -4  -6   45.24    2.66
   3  -4  -6   47.05    1.53
   3  -4  -5   -1.26    1.21
   3  -4  -5    0.62    0.55
   3  -4  -5    0.16    0.46
   3  -4  -5    0.82    0.68
   3  -4  -4    0.41    0.51
   3  -4  -4    0.03    0.50
   3  -4  -4    0.15    0.48
   3  -4  -3    0.16    0.50
   3  -4  -3   -0.07    0.49
   3  -4  -2   40.98    1.33
   3  -4  -2   39.23    1.41
  -3   4   2   41.15    1.64
  -3   4   1   -0.05    0.58
   3  -4  -1    0.22    0.44
  -3   4   1    0.08    0.49
   3  -4  -1    0.37    0.52
  -3   4   0  192.48    3.28
   3  -4   0  195.22    3.22
   3  -4   0  192.48    2.68
  -3   4   0  189.85    2.74
  -3   4  -1   12.85    0.87
   3  -4   1   11.72    0.99
   3  -4   1   11.63    0.83
  -3   4  -1   11.12    0.98
   3  -4   2  127.42    2.54
  -3   4  -2  121.91    2.80
   3  -4   2  121.58    2.80
   3  -4   3    0.14    0.53
   3  -4   3    1.09    0.74
  -3   4  -3    0.96    0.66
  -3   4  -3    0.95    0.64
  -3   4  -4   16.97    1.29
   3  -4   4   17.24    1.22
  -3   4  -4   16.17    1.15
   3  -4   4   16.39    1.34
  -3   4  -5   15.09    1.19
   3  -4   5   16.53    1.61
  -3   4  -5   14.14    1.26
   3  -4   5   15.65    1.41
   3  -4   5   16.22    1.36
  -3   4  -6    1.02    0.85
   3  -4   6    0.50    0.98
   3  -4   6    1.29    0.95
  -3   4  -6   -0.33    0.73
   3  -4   6   -0.23    0.73
  -3   4  -7   22.02    1.63
   3  -4   7   17.78    1.90
   3  -4   7   19.88    1.67
  -3   4  -7   20.33    1.59
   3  -4   8  556.95    9.04
  -3   4  -8  530.15    7.48
   3  -4   8  532.57    8.09
  -3   4  -8  558.22    7.77
   3  -4   9   15.36    2.01
  -3   4  -9   16.47    1.72
  -3   4  -9   15.14    1.59
   3  -4   9   15.11    1.83
   3  -4  10   15.95    2.10
  -3   4 -10   14.55    1.66
  -3   4 -10   14.94    1.74
   3  -4  10   18.71    2.04
   3  -4  11    1.54    1.50
   3  -4  11    1.63    1.31
   3  -4  11    0.91    1.11
  -3   4 -11    1.59    1.12
  -3   4 -11    2.15    1.20
  -3   4 -12   10.92    1.69
   3  -4  12   13.00    1.75
   3  -4  12   11.42    2.11
   3  -4  13    6.95    1.92
   3  -4  13    3.29    1.29
   3  -4  14    3.82    1.39
   3  -4  15   21.56    2.35
   3  -3 -15    0.55    1.63
   3  -3 -15    0.78    1.15
   3  -3 -14    4.98    1.76
   3  -3 -14    2.76    1.07
   3  -3 -13    1.87    1.21
   3  -3 -13    3.18    1.59
   3  -3 -13    3.94    1.28
   3  -3 -12    2.56    1.47
   3  -3 -12    2.22    1.16
   3  -3 -11    4.18    1.62
   3  -3 -11    5.25    1.21
   3  -3 -10    3.59    1.46
   3  -3  -9   -0.26    1.18
   3  -3  -9   -0.32    0.19
   3  -3  -8    1.56    1.26
   3  -3  -8    0.35    0.30
   3  -3  -7   43.13    1.30
   3  -3  -7   44.09    2.50
   3  -3  -6   11.46    1.07
   3  -3  -6   12.32    0.81
   3  -3  -6   10.06    1.43
   3  -3  -5    1.29    0.51
   3  -3  -5    2.26    1.01
   3  -3  -5    2.03    0.72
   3  -3  -5    1.34    0.64
   3  -3  -4  136.49    3.06
   3  -3  -4  135.05    3.74
   3  -3  -4  143.79    2.63
   3  -3  -4  139.84    2.95
   3  -3  -3    3.09    0.75
   3  -3  -3    1.72    0.48
   3  -3  -3    3.72    0.67
   3  -3  -2   83.36    2.09
   3  -3  -2   83.32    2.06
  -3   3   2   85.96    2.25
   3  -3  -2   82.77    1.98
  -3   3   1    8.11    0.81
  -3   3   1    7.83    0.90
   3  -3  -1    6.94    0.74
   3  -3  -1    7.11    0.73
   3  -3   0  184.94    3.02
  -3   3   0  180.13    2.75
  -3   3   0  190.64    3.17
   3  -3   0  184.23    2.65
   3  -3   1   50.69    1.71
   3  -3   1   50.59    1.50
  -3   3  -1   49.31    1.53
  -3   3  -1   51.44    1.75
  -3   3  -2   43.48    1.50
   3  -3   2   45.22    1.54
   3  -3   2   50.08    1.76
  -3   3  -2   50.19    1.73
   3  -3   3   23.93    1.38
  -3   3  -3   25.02    1.29
  -3   3  -3   24.64    1.35
  -3   3  -4    0.59    0.64
  -3   3  -4    0.38    0.71
   3  -3   4    2.11    0.89
   3  -3   4    2.38    0.83
   3  -3   4    1.02    0.68
  -3   3  -5   36.11    1.70
   3  -3   5   38.26    1.98
  -3   3  -5   39.21    1.83
   3  -3   5   37.13    1.76
   3  -3   5   36.74    1.87
  -3   3  -6   21.10    1.46
   3  -3   6   19.74    1.63
  -3   3  -6   20.26    1.47
   3  -3   6   19.50    1.50
   3  -3   6   20.42    1.50
   3  -3   7   95.42    3.46
   3  -3   7   98.00    3.21
  -3   3  -7   97.24    3.04
  -3   3  -7   87.56    2.92
   3  -3   7   92.67    3.14
  -3   3  -8    3.13    0.97
  -3   3  -8    3.46    1.02
   3  -3   8    3.25    1.01
   3  -3   8    4.50    1.30
   3  -3   9   29.07    2.31
   3  -3   9   24.00    1.95
  -3   3  -9   25.24    1.92
  -3   3  -9   26.56    1.88
   3  -3  10    5.68    1.53
  -3   3 -10    5.33    1.27
   3  -3  10    3.30    1.16
  -3   3 -10    4.53    1.26
   3  -3  11    0.52    1.48
   3  -3  11    0.64    1.29
  -3   3 -11    2.41    1.10
  -3   3 -11    1.87    1.13
   3  -3  12    0.24    1.53
  -3   3 -12    0.12    1.23
   3  -3  12    0.07    1.20
   3  -3  12    1.87    1.17
  -3   3 -12   -1.12    1.19
   3  -3  13    4.87    1.66
   3  -3  13    5.20    1.34
   3  -3  14    4.38    1.35
   3  -3  15   11.08    1.80
   3  -2 -15   -2.08    1.74
   3  -2 -14    2.15    1.16
   3  -2 -14    5.27    1.92
   3  -2 -13    2.16    1.53
   3  -2 -13    3.58    1.22
   3  -2 -12    3.15    1.24
   3  -2 -12    5.34    1.53
   3  -2 -11   -0.46    1.00
   3  -2 -11   -1.27    1.44
   3  -2 -10    3.96    1.44
   3  -2 -10    4.04    1.11
   3  -2  -9    3.57    0.44
   3  -2  -9    6.15    1.49
   3  -2  -8   55.54    1.38
   3  -2  -8   51.86    2.72
   3  -2  -7  198.53    4.70
   3  -2  -7  203.45    2.76
   3  -2  -6   32.61    1.20
   3  -2  -6   30.98    1.92
   3  -2  -5   98.67    3.07
   3  -2  -5   96.71    2.07
   3  -2  -4   26.35    1.70
   3  -2  -4   27.49    1.45
   3  -2  -4   24.43    1.46
   3  -2  -4   26.59    1.16
   3  -2  -3   -0.22    0.56
   3  -2  -3   -0.06    0.77
   3  -2  -3    0.54    0.58
   3  -2  -3    0.60    0.65
   3  -2  -2    6.88    0.74
   3  -2  -2    5.42    0.75
   3  -2  -2    7.36    0.79
   3  -2  -1  597.47    5.29
  -3   2   1  599.87    5.39
   3  -2  -1  596.03    5.06
  -3   2   1  605.57    5.65
   3  -2  -1  607.93    5.26
  -3   2   0  134.13    2.43
  -3   2   0  134.67    2.58
   3  -2   0  128.49    2.46
   3  -2   0  135.87    2.35
  -3   2  -1   38.12    1.36
   3  -2   1   39.33    1.34
  -3   2  -1   38.55    1.47
   3  -2   1   37.87    1.40
  -3   2  -2   95.26    2.30
  -3   2  -2   97.04    2.15
   3  -2   2  102.58    2.32
   3  -2   2   94.61    2.13
  -3   2  -3   53.68    1.74
   3  -2   3   56.81    1.87
  -3   2  -3   51.70    1.79
   3  -2   3   51.07    1.74
   3  -2   4   11.13    1.17
  -3   2  -4   11.28    1.05
   3  -2   4    9.65    1.03
   3  -2   4   10.09    1.01
  -3   2  -4   10.59    1.12
  -3   2  -5    8.32    1.06
  -3   2  -5    5.35    0.92
   3  -2   5    8.55    1.08
   3  -2   5    7.88    1.09
   3  -2   5    7.05    0.94
  -3   2  -6   25.28    1.52
   3  -2   6   25.27    1.74
   3  -2   6   24.42    1.52
  -3   2  -6   23.51    1.53
   3  -2   6   28.07    1.66
  -3   2  -7   39.48    1.92
  -3   2  -7   40.63    2.01
   3  -2   7   41.72    2.24
   3  -2   7   35.70    2.00
   3  -2   8    1.90    1.04
   3  -2   8    0.14    0.90
  -3   2  -8    0.58    0.89
   3  -2   8    0.93    0.82
  -3   2  -8    1.43    0.80
   3  -2   9   31.88    2.38
  -3   2  -9   31.18    1.91
   3  -2   9   29.52    2.03
  -3   2  -9   33.67    2.11
   3  -2  10    0.76    1.42
  -3   2 -10    1.93    1.19
   3  -2  10    2.30    1.20
  -3   2 -10    0.34    0.90
   3  -2  11   52.19    3.26
   3  -2  11   62.26    3.19
  -3   2 -11   56.97    2.78
  -3   2 -11   51.73    2.82
   3  -2  12    7.15    1.83
  -3   2 -12    7.46    1.35
   3  -2  12    5.10    1.40
  -3   2 -12    6.49    1.44
   3  -2  13    1.41    1.35
   3  -2  13    0.44    1.03
   3  -2  13   -2.13    1.70
  -3   2 -13    2.41    1.31
  -3   2 -13   -0.24    1.21
   3  -2  14    2.85    1.11
   3  -2  15    9.47    1.63
   3  -2  16    3.80    1.29
   3  -1 -15    2.40    1.67
   3  -1 -14   -0.24    1.21
   3  -1 -14   -0.59    1.59
  -3   1  13    3.38    2.00
   3  -1 -13    6.30    1.69
   3  -1 -13    9.49    1.65
  -3   1  12   25.56    2.97
  -3   1  12   24.40    0.94
   3  -1 -12   25.20    2.50
   3  -1 -12   26.22    2.21
  -3   1  11    3.74    1.74
  -3   1  11    0.86    0.40
   3  -1 -11    2.58    1.38
   3  -1 -11    1.87    1.07
   3  -1 -10    3.78    1.12
   3  -1 -10    0.57    1.18
  -3   1  10    1.49    0.47
  -3   1  10    0.95    1.39
  -3   1   9   41.51    2.96
   3  -1  -9   41.58    2.48
  -3   1   9   44.74    1.44
   3  -1  -9   43.91    1.38
  -3   1   8    1.62    1.29
   3  -1  -8    2.61    1.11
   3  -1  -8    3.10    0.56
  -3   1   8    3.45    0.59
   3  -1  -7   68.73    2.78
  -3   1   7   69.71    1.74
   3  -1  -7   63.75    1.70
  -3   1   7   66.63    3.12
  -3   1   6    0.68    0.48
  -3   1   6   -0.19    0.94
   3  -1  -6   -0.71    0.87
   3  -1  -6    0.06    0.40
   3  -1  -5    0.97    0.83
  -3   1   5    1.71    0.51
   3  -1  -5    1.46    0.53
  -3   1   5    2.20    0.94
  -3   1   4   38.55    1.30
   3  -1  -4   38.49    1.76
   3  -1  -4   42.25    1.44
  -3   1   3   44.67    1.39
   3  -1  -3   46.16    1.82
   3  -1  -3   48.78    1.89
   3  -1  -3   42.53    1.67
   3  -1  -3   47.69    1.53
  -3   1   2   82.11    1.85
   3  -1  -2   80.75    2.02
   3  -1  -2   77.23    2.18
   3  -1  -2   78.38    2.17
   3  -1  -2   77.00    1.91
  -3   1   1  139.69    2.74
   3  -1  -1  143.20    2.59
   3  -1  -1  142.06    2.58
  -3   1   1  143.66    2.82
   3  -1  -1  137.73    2.58
  -3   1   0    0.12    0.54
   3  -1   0   -0.62    0.56
  -3   1   0    0.52    0.59
   3  -1   0   -1.16    0.66
   3  -1   0    0.00    0.54
  -3   1  -1    1.66    0.63
  -3   1  -1    1.90    0.60
   3  -1   1    0.63    0.60
   3  -1   1    1.03    0.55
   3  -1   1    1.66    0.56
  -3   1  -2  150.20    2.69
  -3   1  -2  144.24    2.53
   3  -1   2  152.82    2.60
   3  -1   2  150.55    2.65
   3  -1   3   32.19    1.30
   3  -1   3   30.89    1.42
  -3   1  -3   32.04    1.31
   3  -1   3   34.78    1.43
  -3   1  -3   32.67    1.38
  -3   1  -4  394.75    4.66
  -3   1  -4  389.46    4.62
   3  -1   4  383.33    4.72
   3  -1   4  381.94    4.64
   3  -1   5   16.88    1.29
   3  -1   5   14.39    1.14
  -3   1  -5   16.07    1.18
  -3   1  -5   14.47    1.20
   3  -1   5   15.21    1.24
  -3   1  -6    2.32    0.79
   3  -1   6    2.72    0.83
   3  -1   6    2.80    0.92
  -3   1  -6    1.23    0.77
   3  -1   6    2.52    0.87
   3  -1   7    8.86    1.12
  -3   1  -7    8.62    1.10
  -3   1  -7    7.81    1.04
  -3   1  -7    8.34    1.26
   3  -1   7   10.31    1.33
   3  -1   7    7.03    1.10
   3  -1   8   11.15    1.46
  -3   1  -8   10.40    1.43
   3  -1   8   11.42    1.27
  -3   1  -8   10.73    1.15
   3  -1   8    8.32    1.20
  -3   1  -8   11.81    1.32
  -3   1  -9    6.50    1.38
   3  -1   9    6.57    1.42
  -3   1  -9    6.36    1.07
   3  -1   9    4.77    1.07
  -3   1  -9    6.20    1.16
  -3   1 -10   -1.32    1.11
   3  -1  10   -0.35    0.87
   3  -1  10    1.48    1.23
  -3   1 -10    1.15    0.97
  -3   1 -10   -0.46    1.01
   3  -1  11   11.13    1.84
  -3   1 -11   10.53    1.34
  -3   1 -11   13.79    2.06
   3  -1  11   10.21    1.57
  -3   1 -11   11.02    1.53
   3  -1  12    8.43    1.57
   3  -1  12    8.26    2.01
  -3   1 -12    6.34    1.33
  -3   1 -12    7.22    1.68
  -3   1 -12    5.63    1.50
  -3   1 -13    2.17    1.14
   3  -1  13    3.84    1.45
  -3   1 -13    4.41    1.62
   3  -1  13    4.13    1.81
  -3   1 -13    1.96    1.13
   3  -1  14   -0.08    0.85
  -3   1 -14   -0.43    1.16
  -3   1 -14   -0.19    1.62
   3  -1  14   -1.16    1.35
   3  -1  15    2.51    1.08
   3  -1  16    1.56    0.91
   3  -1  16    0.06    1.00
   3   0 -15    3.95    1.71
  -3   0  14    2.97    0.60
   3   0 -14    5.98    1.92
  -3   0  13    0.12    0.50
   3   0 -13    2.02    1.27
   3   0 -13    1.05    1.65
  -3   0  13   -1.32    1.73
   3   0 -12    4.31    1.31
  -3   0  12    5.31    1.90
   3   0 -12    2.90    1.48
  -3   0  12    4.24    0.75
  -3   0  11    1.58    1.66
   3   0 -11    1.11    1.11
   3   0 -11    2.05    1.37
  -3   0  11   -0.09    0.59
   3   0 -10   26.65    2.10
   3   0 -10   25.24    2.27
  -3   0  10   23.60    1.30
  -3   0  10   24.70    2.50
  -3   0   9   12.46    1.88
   3   0  -9   15.03    1.82
  -3   0   9   14.55    1.07
   3   0  -9   14.39    0.99
   3   0  -8   60.10    2.79
  -3   0   8   64.41    3.19
  -3   0   8   63.20    1.97
   3   0  -8   59.57    1.81
   3   0  -7   46.01    2.29
  -3   0   7   49.10    2.62
   3   0  -7   45.83    1.57
  -3   0   7   44.91    1.63
  -3   0   6   99.81    3.29
   3   0  -6   95.75    2.93
   3   0  -6   97.06    2.26
  -3   0   6   96.63    2.27
   3   0  -5   64.90    1.85
  -3   0   5   60.31    1.77
  -3   0   5   60.01    2.41
   3   0  -5   57.90    2.14
   3   0  -4    6.33    0.94
  -3   0   4    9.58    1.12
   3   0  -4    8.51    0.84
  -3   0   4    8.03    0.82
   3   0  -3    0.80    0.83
  -3   0   3    0.89    0.64
  -3   0   3    1.16    0.85
   3   0  -3    0.57    0.60
   3   0  -3    0.09    0.60
  -3   0   2  701.98    5.63
  -3   0   2  694.08    5.29
   3   0  -2  698.00    4.77
   3   0  -2  678.75    5.59
   3   0  -2  705.65    6.62
   3   0  -2  694.89    6.42
   3   0  -1    2.07    0.63
  -3   0   1    1.71    0.57
   3   0  -1    1.66    0.39
  -3   0   1    1.13    0.69
   3   0  -1    0.28    0.66
   3   0  -1    1.62    0.69
  -3   0   0  165.97    2.69
   3   0   0  152.70    2.66
  -3   0   0  160.20    2.86
   3   0   0  159.97    2.73
  -3   0   0  162.67    2.81
   3   0   0  159.29    2.79
   3   0   1    1.10    0.58
   3   0   1    0.13    0.50
  -3   0  -1    0.50    0.55
  -3   0  -1   -1.01    0.64
   3   0   1   -0.38    0.63
  -3   0  -1    0.24    0.54
   3   0   2  109.07    2.18
   3   0   2  109.99    1.60
  -3   0  -2  111.02    2.24
   3   0   2  111.66    2.20
  -3   0  -2  114.96    2.31
   3   0   3    3.24    0.71
   3   0   3    4.08    0.58
   3   0   3    3.59    0.67
  -3   0  -3    3.82    0.66
   3   0   3    3.81    0.66
  -3   0  -3    3.04    0.58
  -3   0  -3    4.12    0.71
  -3   0  -4  119.55    2.40
   3   0   4  122.81    2.53
   3   0   4  114.89    2.54
   3   0   4  120.22    2.45
  -3   0  -4  121.51    2.60
   3   0   4  126.03    2.51
  -3   0  -4  120.49    2.44
  -3   0  -5   63.25    1.94
   3   0   5   61.25    2.11
  -3   0  -5   64.26    2.09
   3   0   5   61.68    1.95
   3   0   5   64.37    1.92
   3   0   5   61.31    2.07
  -3   0  -5   62.97    2.05
  -3   0  -6   48.18    1.98
   3   0   6   48.07    2.07
  -3   0  -6   50.81    1.84
   3   0   6   46.70    1.82
   3   0   6   48.07    2.02
  -3   0  -6   47.81    2.04
  -3   0  -7    7.08    0.93
  -3   0  -7    6.61    1.06
   3   0   7    6.43    1.00
  -3   0  -7    6.26    1.05
   3   0   7    6.03    1.16
   3   0   7    5.85    1.05
   3   0   8    7.06    1.22
  -3   0  -8    6.98    0.93
   3   0   8    6.03    1.00
  -3   0  -8    7.35    1.10
  -3   0  -8    6.36    1.22
   3   0   8    8.69    1.22
  -3   0  -9   17.25    1.40
   3   0   9   19.51    1.54
   3   0   9   18.25    1.79
  -3   0  -9   19.19    1.64
   3   0   9   14.89    1.63
  -3   0  -9   16.48    1.67
   3   0  10   35.18    2.46
  -3   0 -10   33.79    1.94
  -3   0 -10   38.82    2.29
   3   0  10   34.52    2.03
  -3   0 -10   35.34    2.41
  -3   0 -11    2.12    1.07
   3   0  11    1.38    1.35
  -3   0 -11   -0.21    1.34
   3   0  11    0.42    0.97
  -3   0 -11    1.03    1.04
  -3   0 -12    9.82    1.47
  -3   0 -12    9.55    1.42
  -3   0 -12   11.65    2.03
   3   0  12   14.80    2.18
   3   0  12    7.97    1.48
   3   0  13    7.74    1.10
   3   0  13   10.73    2.16
  -3   0 -13    7.30    1.49
   3   0  13    7.74    1.55
  -3   0 -13    6.33    1.73
  -3   0 -13    5.45    1.27
   3   0  14   85.02    4.74
  -3   0 -14   78.84    4.27
  -3   0 -14   77.40    3.40
   3   0  14   83.09    2.88
   3   0  14   85.48    2.91
  -3   0 -14   72.15    3.72
   3   0  14   85.26    3.98
   3   0  15    5.80    0.96
  -3   0 -15    6.30    2.02
   3   0  15    7.30    1.20
   3   0  16   -0.12    0.72
  -3   0 -16    1.79    1.81
   3   0  16    0.13    0.80
  -3   0 -17   13.12    2.64
   3   1 -15    2.79    1.74
   3   1 -14    1.12    1.57
  -3  -1  14    5.18    0.91
   3   1 -13   11.63    2.09
  -3  -1  13    9.61    1.12
  -3  -1  12    2.10    0.85
  -3  -1  12    2.79    1.68
   3   1 -12    2.40    1.21
   3   1 -12    1.94    1.47
  -3  -1  11    9.30    1.07
   3   1 -11    8.08    1.59
   3   1 -11    9.82    1.83
  -3  -1  11   10.97    2.14
   3   1 -10   30.34    2.39
   3   1 -10   32.66    2.38
  -3  -1  10   33.83    1.74
  -3  -1  10   25.55    2.52
  -3  -1   9   37.64    2.67
   3   1  -9   37.83    2.51
   3   1  -9   32.33    1.56
   3   1  -9   33.85    2.25
  -3  -1   9   39.83    1.83
  -3  -1   8   32.86    2.32
   3   1  -8   29.75    2.10
   3   1  -8   29.65    1.48
  -3  -1   8   27.16    1.50
  -3  -1   7    6.59    1.24
   3   1  -7    6.51    1.21
   3   1  -7    8.28    0.90
  -3  -1   7    6.94    0.88
  -3  -1   6    2.01    1.02
   3   1  -6    1.06    0.62
   3   1  -6    0.38    0.82
  -3  -1   6    0.96    0.63
  -3  -1   5    0.19    0.83
   3   1  -5   -0.55    0.76
   3   1  -5    0.10    0.62
  -3  -1   5    0.69    0.62
   3   1  -4   17.23    1.23
  -3  -1   4   22.17    1.23
   3   1  -4   20.06    1.22
  -3  -1   4   18.97    1.39
  -3  -1   3    1.81    0.75
   3   1  -3    1.27    0.71
   3   1  -3    1.06    0.66
   3   1  -3    0.37    0.97
  -3  -1   3    3.26    0.80
   3   1  -2  246.39    2.86
  -3  -1   2  257.50    3.04
   3   1  -2  254.94    3.64
   3   1  -2  254.98    4.15
  -3  -1   2  253.24    3.57
  -3  -1   1   90.63    1.41
   3   1  -1   84.83    2.22
  -3  -1   1   88.78    2.13
   3   1   0  317.67    3.87
   3   1   0  320.35    4.01
  -3  -1   0  310.05    3.95
   3   1   0  316.60    3.88
  -3  -1   0  321.50    3.88
  -3  -1  -1  348.35    4.06
   3   1   1  354.63    3.86
   3   1   1  348.11    4.07
  -3  -1  -1  354.41    3.95
   3   1   2   22.46    1.09
  -3  -1  -2   20.22    1.12
  -3  -1  -2   20.82    1.09
   3   1   2   22.11    0.77
  -3  -1  -2   22.89    0.69
  -3  -1  -2   22.67    1.17
   3   1   2   20.38    1.01
   3   1   2   22.21    1.16
  -3  -1  -3   -0.32    0.51
  -3  -1  -3    0.80    0.47
  -3  -1  -3    0.57    0.58
   3   1   3    0.07    0.56
   3   1   3    0.82    0.60
   3   1   3    0.07    0.47
  -3  -1  -3    0.84    0.52
   3   1   3    1.01    0.63
   3   1   4    0.94    0.61
  -3  -1  -4    0.29    0.54
   3   1   4    0.42    0.57
  -3  -1  -4   -0.45    0.61
  -3  -1  -4    0.52    0.58
   3   1   4    0.21    0.71
   3   1   4   -0.37    0.58
   3   1   5  317.11    4.57
  -3  -1  -5  322.97    4.30
   3   1   5  332.92    4.01
   3   1   5  316.28    3.94
   3   1   5  314.40    4.39
  -3  -1  -5  323.90    4.37
  -3  -1  -5  315.10    3.88
   3   1   6   85.21    2.25
  -3  -1  -6   90.34    2.55
  -3  -1  -6   92.71    2.63
  -3  -1  -6   89.46    2.27
   3   1   6   90.00    2.76
   3   1   6   89.87    2.17
  -3  -1  -7   -0.61    0.88
   3   1   7    0.00    0.56
  -3  -1  -7   -1.72    0.76
  -3  -1  -7    0.56    0.88
   3   1   7   -0.61    0.66
   3   1   7    1.90    1.07
   3   1   7    0.70    0.80
   3   1   8   -0.77    0.84
   3   1   8    0.35    0.67
   3   1   8   -0.56    0.57
   3   1   8   -0.69    0.99
  -3  -1  -8   -0.21    0.97
  -3  -1  -8    0.75    0.76
  -3  -1  -8   -0.67    0.87
   3   1   9    7.12    0.84
   3   1   9    5.75    1.23
  -3  -1  -9    7.20    0.97
   3   1   9    5.62    1.02
   3   1   9    5.15    1.22
  -3  -1  -9    5.97    1.28
  -3  -1  -9    6.54    1.11
   3   1  10   16.06    1.12
  -3  -1 -10   16.23    1.32
  -3  -1 -10   16.43    1.76
   3   1  10   16.51    1.49
  -3  -1 -10   16.13    1.62
   3   1  10   15.94    1.92
   3   1  10   15.18    1.69
   3   1  11   47.85    3.06
   3   1  11   49.69    1.92
  -3  -1 -11   52.02    3.01
   3   1  11   48.87    2.45
  -3  -1 -11   49.36    2.62
  -3  -1 -11   49.38    2.26
   3   1  12   22.73    2.45
  -3  -1 -12   26.81    2.35
   3   1  12   23.78    1.44
  -3  -1 -12   21.30    1.68
   3   1  12   24.19    1.95
  -3  -1 -12   25.91    2.07
   3   1  13   -1.12    1.18
  -3  -1 -13    2.16    1.44
   3   1  13    2.28    1.78
  -3  -1 -13    1.79    1.05
  -3  -1 -13    3.36    1.33
   3   1  13    0.54    0.63
   3   1  14    1.10    1.18
   3   1  14   -1.07    1.89
  -3  -1 -14    2.11    1.77
   3   1  14    1.48    0.80
   3   1  14    0.92    0.68
  -3  -1 -14   -0.45    0.99
  -3  -1 -14    0.97    1.29
   3   1  15    5.01    0.97
  -3  -1 -15    5.34    1.27
   3   1  15    4.24    0.90
   3   1  16    5.59    0.90
   3   1  16    6.10    0.99
  -3  -1 -17    8.59    2.37
  -3  -2  14    1.73    0.93
  -3  -2  13   23.70    1.76
  -3  -2  12    4.61    1.74
   3   2 -12    5.01    1.52
  -3  -2  12    4.28    1.10
   3   2 -11    1.26    1.53
  -3  -2  11    1.48    1.57
  -3  -2  11   -0.43    0.92
   3   2 -11    1.48    1.34
   3   2 -10    4.40    1.43
   3   2 -10    1.70    1.27
  -3  -2  10    4.37    1.72
  -3  -2  10    2.84    0.98
   3   2  -9   26.92    2.25
  -3  -2   9   31.48    2.47
   3   2  -9   31.72    2.29
  -3  -2   9   35.38    1.95
  -3  -2   8    6.70    1.31
   3   2  -8    5.83    0.88
   3   2  -8    6.39    1.24
  -3  -2   8    6.43    1.01
  -3  -2   7   -0.58    1.00
   3   2  -7    2.03    1.05
   3   2  -7    0.98    0.71
  -3  -2   7    0.56    0.75
  -3  -2   6   10.09    1.08
  -3  -2   6    9.43    1.25
   3   2  -6    8.62    1.21
   3   2  -6    9.15    0.96
  -3  -2   5   75.47    2.61
   3   2  -5   69.41    2.22
   3   2  -5   68.48    2.45
  -3  -2   5   69.39    2.33
  -3  -2   4   67.05    2.24
  -3  -2   4   67.12    2.22
   3   2  -4   63.49    2.13
  -3  -2   3  148.74    2.88
   3   2  -3  143.83    2.98
  -3  -2   2    5.22    0.91
   3   2  -2    3.79    0.99
   3   2  -2    5.12    0.87
  -3  -2   2    5.60    0.71
  -3  -2   1   26.54    1.00
   3   2  -1   27.51    1.38
  -3  -2   1   26.19    1.36
   3   2  -1   26.14    1.48
   3   2   0   37.28    1.53
   3   2   0   36.10    1.48
  -3  -2   0   35.39    1.51
  -3  -2  -1   -0.25    0.67
  -3  -2  -1    0.87    0.64
   3   2   1    0.56    0.66
   3   2   1   -0.05    0.56
   3   2   1    0.53    0.64
   3   2   2   17.19    1.12
  -3  -2  -2   17.11    1.01
   3   2   2   15.66    0.91
  -3  -2  -2   16.90    1.02
   3   2   2   16.78    1.04
  -3  -2  -2   16.95    1.09
   3   2   3    1.14    0.69
  -3  -2  -3    1.32    0.62
  -3  -2  -3    1.25    0.56
  -3  -2  -3    0.60    0.49
   3   2   3    0.64    0.55
  -3  -2  -3    0.82    0.55
   3   2   3    0.63    0.48
   3   2   4   82.05    1.81
  -3  -2  -4   87.03    2.16
  -3  -2  -4   79.02    1.97
  -3  -2  -4   79.98    2.04
  -3  -2  -4   87.12    1.93
   3   2   4   80.67    2.02
   3   2   4   82.46    2.14
   3   2   5  112.31    2.98
  -3  -2  -5  118.07    2.32
   3   2   5  111.33    2.21
   3   2   5  113.23    2.37
  -3  -2  -5  112.98    2.75
  -3  -2  -5  114.78    2.28
   3   2   5  116.53    2.68
  -3  -2  -5  114.68    2.62
   3   2   6    1.08    0.61
   3   2   6    2.01    1.07
  -3  -2  -6    1.29    0.92
   3   2   6    0.88    0.78
  -3  -2  -6    1.80    0.63
  -3  -2  -6    1.29    0.92
   3   2   6    0.62    0.66
   3   2   7   36.05    1.44
  -3  -2  -7   34.76    1.46
  -3  -2  -7   34.47    1.73
   3   2   7   36.33    2.18
   3   2   7   35.93    1.52
  -3  -2  -7   31.26    1.88
   3   2   7   35.14    1.78
   3   2   8    3.64    0.90
   3   2   8    2.67    0.70
  -3  -2  -8    3.71    1.12
  -3  -2  -8    3.88    0.72
   3   2   8    4.22    0.71
  -3  -2  -8    5.70    1.07
   3   2   8    3.95    1.21
   3   2   9   16.80    1.80
  -3  -2  -9   15.88    1.63
  -3  -2  -9   16.74    1.21
   3   2   9   15.16    1.48
   3   2   9   17.56    1.35
  -3  -2  -9   16.12    1.46
   3   2   9   18.99    1.14
   3   2  10    2.24    0.96
   3   2  10    2.67    1.21
   3   2  10    3.36    0.70
   3   2  10    3.00    1.11
  -3  -2 -10    3.01    0.93
  -3  -2 -10    5.14    1.37
  -3  -2 -10    3.38    0.83
   3   2  11  379.49    8.18
   3   2  11  389.47    4.88
   3   2  11  393.16    6.28
  -3  -2 -11  394.45    5.76
  -3  -2 -11  385.67    6.72
  -3  -2 -11  391.68    7.48
   3   2  12   -0.62    1.33
  -3  -2 -12    1.31    1.51
   3   2  12    1.43    0.66
   3   2  12    1.58    1.06
  -3  -2 -12    0.38    0.83
  -3  -2 -12    1.29    1.12
   3   2  13    9.81    2.05
  -3  -2 -13    6.44    1.68
   3   2  13   10.51    1.55
   3   2  13    7.08    0.91
  -3  -2 -13    6.57    1.15
  -3  -2 -13    7.13    1.49
   3   2  14    2.92    1.70
  -3  -2 -14    5.90    1.90
   3   2  14    4.17    0.78
  -3  -2 -14    2.63    0.98
  -3  -2 -14    1.31    1.21
   3   2  15    0.03    0.59
  -3  -2 -15   -1.12    1.62
   3   2  15    0.26    0.60
  -3  -2 -15   -0.36    0.94
  -3  -2 -16    9.88    1.53
  -3  -2 -16   10.87    2.34
   3   2  16    9.82    0.97
   3   2  16    9.10    0.96
  -3  -2 -17   -0.50    1.65
  -3  -3  14    3.38    1.22
  -3  -3  13   -0.41    1.07
  -3  -3  12   11.29    2.23
  -3  -3  12    8.63    1.36
  -3  -3  11   -0.67    1.45
   3   3 -11    2.26    1.37
  -3  -3  11   -0.41    0.90
   3   3 -10    2.00    1.26
  -3  -3  10    1.66    1.02
  -3  -3  10   -1.27    1.55
  -3  -3   9    2.24    1.41
   3   3  -9    2.23    1.08
  -3  -3   9    2.05    0.95
   3   3  -8    2.67    1.12
  -3  -3   8    5.38    1.39
   3   3  -8    4.68    1.02
  -3  -3   8    5.42    1.06
  -3  -3   7   22.81    1.66
  -3  -3   7   21.09    1.88
   3   3  -7   24.41    1.61
  -3  -3   6    7.98    1.27
  -3  -3   6    9.59    1.15
   3   3  -6   10.02    1.06
   3   3  -5    0.29    0.74
  -3  -3   5    0.45    0.81
  -3  -3   5    0.52    0.77
  -3  -3   4   21.90    1.52
   3   3  -4   19.19    1.32
  -3  -3   4   20.07    1.42
  -3  -3   3   21.44    1.42
   3   3  -3   23.40    1.44
  -3  -3   3   21.60    1.43
   3   3  -2   26.26    1.63
  -3  -3   2   24.42    1.38
   3   3  -2   23.99    1.52
  -3  -3   2   20.60    1.44
   3   3  -1    2.68    0.79
   3   3  -1    1.56    0.75
  -3  -3   1    0.52    0.78
  -3  -3   0    1.21    0.74
   3   3   0    2.04    0.73
   3   3   0    1.38    0.75
  -3  -3   0   -0.29    0.78
  -3  -3  -1    0.62    0.57
   3   3   1    0.45    0.63
   3   3   1    0.22    0.70
  -3  -3  -1    0.37    0.62
   3   3   1    0.27    0.61
   3   3   2   62.00    1.94
  -3  -3  -2   58.15    1.89
   3   3   2   60.67    1.66
  -3  -3  -2   61.99    1.77
   3   3   2   57.77    1.69
  -3  -3  -3   84.48    2.18
   3   3   3   86.36    2.02
  -3  -3  -3   84.86    1.94
  -3  -3  -3   88.61    2.18
   3   3   3   85.21    1.81
   3   3   3   84.14    2.18
  -3  -3  -4   54.05    2.05
  -3  -3  -4   54.20    1.49
   3   3   4   48.36    1.70
   3   3   4   52.03    1.70
   3   3   4   48.59    1.37
  -3  -3  -4   49.22    1.70
  -3  -3  -4   54.30    1.73
  -3  -3  -5   41.19    1.53
  -3  -3  -5   39.46    1.96
   3   3   5   45.25    1.40
  -3  -3  -5   43.51    1.37
  -3  -3  -5   40.71    1.60
   3   3   5   44.99    1.57
   3   3   5   37.08    1.65
  -3  -3  -6   58.54    1.72
  -3  -3  -6   60.63    2.46
   3   3   6   59.37    1.78
   3   3   6   56.74    2.02
   3   3   6   61.13    1.68
  -3  -3  -6   59.56    2.01
  -3  -3  -6   60.92    1.69
   3   3   7    4.47    0.66
   3   3   7    5.85    1.29
  -3  -3  -7    3.95    1.23
   3   3   7    5.90    0.78
  -3  -3  -7    5.89    0.72
  -3  -3  -7    5.85    0.72
  -3  -3  -7    5.83    0.91
   3   3   7    5.70    1.02
   3   3   8   11.82    1.62
  -3  -3  -8    9.52    0.87
  -3  -3  -8    9.03    1.09
  -3  -3  -8    9.71    1.33
   3   3   8    9.73    0.92
   3   3   8    9.97    0.84
   3   3   8    9.77    1.23
   3   3   9   27.63    2.30
  -3  -3  -9   25.67    1.98
  -3  -3  -9   23.44    1.28
   3   3   9   24.07    1.40
  -3  -3  -9   21.11    1.55
   3   3   9   21.52    1.13
   3   3   9   23.78    1.77
  -3  -3 -10    9.65    1.52
   3   3  10    8.66    1.05
  -3  -3 -10    7.63    0.90
  -3  -3 -10    9.04    1.24
   3   3  10    8.64    0.85
   3   3  10    7.22    1.43
   3   3  10    9.14    1.35
  -3  -3 -11   53.49    2.13
   3   3  11   59.31    3.54
  -3  -3 -11   60.37    3.20
   3   3  11   54.38    2.34
   3   3  11   56.78    1.79
  -3  -3 -11   54.97    2.62
  -3  -3 -12  160.86    5.22
  -3  -3 -12  160.03    3.76
   3   3  12  158.93    2.96
   3   3  12  160.95    4.17
   3   3  12  150.73    5.73
  -3  -3 -12  159.19    4.54
   3   3  13   59.65    4.02
  -3  -3 -13   55.54    3.41
   3   3  13   52.13    1.73
  -3  -3 -13   51.37    2.89
  -3  -3 -13   54.41    2.39
   3   3  13   52.62    2.64
   3   3  14    2.40    0.56
   3   3  14    5.48    2.05
  -3  -3 -14    4.06    1.66
  -3  -3 -14    5.04    1.03
  -3  -3 -14    2.11    1.19
  -3  -3 -15   -1.77    1.63
  -3  -3 -15    0.79    0.97
   3   3  15   -0.20    0.44
   3   3  15   -0.96    0.47
  -3  -3 -15   -0.35    1.24
  -3  -3 -16    0.51    0.95
   3   3  16    0.81    0.40
   3   3  16    1.37    0.43
  -3  -3 -17    5.23    2.03
  -3  -3 -17    1.17    1.13
  -3  -4  13   16.02    1.98
  -3  -4  12    4.08    1.36
  -3  -4  11   32.17    2.99
  -3  -4  11   34.72    2.38
  -3  -4  10   -1.52    1.62
   3   4 -10    0.32    1.15
  -3  -4  10   -2.30    1.21
  -3  -4   9   -1.03    1.41
  -3  -4   9   -1.01    1.00
   3   4  -9   -0.11    1.17
  -3  -4   8   20.39    2.10
  -3  -4   8   19.52    1.79
   3   4  -8   24.66    2.15
  -3  -4   7    0.79    0.98
  -3  -4   7    3.40    1.43
   3   4  -7    2.99    1.00
   3   4  -7    2.62    0.89
   3   4  -6    0.27    0.93
  -3  -4   6   -0.47    1.07
   3   4  -6    0.24    0.90
  -3  -4   6   -0.13    0.87
  -3  -4   5   24.40    1.80
   3   4  -5   20.72    1.54
  -3  -4   5   21.59    1.66
   3   4  -4   71.46    2.49
  -3  -4   4   72.81    2.65
  -3  -4   4   69.29    2.59
   3   4  -3   46.81    2.04
  -3  -4   3   45.62    2.10
  -3  -4   3   49.04    2.10
   3   4  -2  294.18    4.72
   3   4  -2  289.77    4.82
  -3  -4   2  277.74    4.74
  -3  -4   1    8.38    1.09
   3   4  -1    9.75    1.09
   3   4  -1    7.68    1.10
   3   4   0   47.32    1.79
   3   4   0   51.50    1.97
  -3  -4   0   45.04    2.05
  -3  -4  -1    6.99    0.89
  -3  -4  -1    6.41    0.96
   3   4   1    7.24    0.92
   3   4   1    7.14    0.83
   3   4   2  235.71    3.32
  -3  -4  -2  230.14    3.38
   3   4   2  230.23    3.26
  -3  -4  -2  229.34    3.89
   3   4   2  224.24    3.73
   3   4   3   40.48    1.64
   3   4   3   38.04    1.42
   3   4   3   39.57    1.30
  -3  -4  -3   37.99    1.44
  -3  -4  -3   39.77    1.65
  -3  -4  -4   19.85    1.17
  -3  -4  -4   21.13    1.05
   3   4   4   20.24    0.94
  -3  -4  -4   21.33    1.30
   3   4   4   17.81    1.18
   3   4   4   19.70    1.25
   3   4   5    4.85    0.61
  -3  -4  -5    4.24    0.79
  -3  -4  -5    3.42    1.12
  -3  -4  -5    4.48    0.66
   3   4   5    5.36    0.81
  -3  -4  -5    4.99    0.81
   3   4   5    4.48    0.86
  -3  -4  -6  208.61    2.80
  -3  -4  -6  191.77    3.48
   3   4   6  201.49    2.68
   3   4   6  200.21    3.53
  -3  -4  -6  197.49    4.60
   3   4   6  204.30    3.34
  -3  -4  -6  197.41    3.26
  -3  -4  -7    0.14    0.48
  -3  -4  -7    0.05    1.19
  -3  -4  -7    0.38    0.52
   3   4   7    0.58    0.50
   3   4   7    0.66    0.57
  -3  -4  -7    0.49    0.71
   3   4   7    1.73    0.78
   3   4   8   53.46    1.66
  -3  -4  -8   53.12    2.76
  -3  -4  -8   52.07    1.57
  -3  -4  -8   51.82    2.10
   3   4   8   51.46    1.67
  -3  -4  -8   53.66    1.66
   3   4   8   51.64    2.18
  -3  -4  -9   18.49    1.08
  -3  -4  -9   21.56    1.99
   3   4   9   18.50    1.16
   3   4   9   18.25    1.54
   3   4   9   20.08    1.14
  -3  -4  -9   20.90    1.52
   3   4  10  146.53    3.17
  -3  -4 -10  148.91    3.86
   3   4  10  152.38    2.76
   3   4  10  150.03    4.11
  -3  -4 -10  157.56    3.12
  -3  -4 -10  151.13    4.67
  -3  -4 -11    9.15    0.97
   3   4  11   10.62    0.85
   3   4  11    9.35    1.14
  -3  -4 -11    8.75    1.24
   3   4  12  873.20    6.32
  -3  -4 -12  869.54   12.05
  -3  -4 -12  869.20    8.16
   3   4  12  878.25    9.04
  -3  -4 -12  868.71   10.27
  -3  -4 -13   25.87    1.64
   3   4  13   27.30    1.88
   3   4  13   24.15    1.07
  -3  -4 -13   27.87    2.16
  -3  -4 -13   29.21    2.67
  -3  -4 -14   40.32    3.15
   3   4  14   36.53    1.20
   3   4  14   32.10    1.06
  -3  -4 -14   36.62    2.03
  -3  -4 -14   38.25    2.56
  -3  -4 -15   -0.59    1.64
  -3  -4 -15   -0.33    1.16
   3   4  15    0.10    0.18
  -3  -4 -15    1.31    0.94
  -3  -4 -16    9.30    2.14
  -3  -4 -16    5.49    1.20
  -3  -4 -17    1.22    1.98
  -3  -4 -17    1.03    1.11
  -3  -5  13   33.37    2.73
  -3  -5  12   23.33    2.22
  -3  -5  11    4.03    1.29
   3   5 -10    4.57    1.49
  -3  -5  10    6.14    1.83
  -3  -5  10    5.65    1.41
  -3  -5   9    3.29    1.54
   3   5  -9    1.97    1.25
  -3  -5   9    0.95    1.07
  -3  -5   8    7.47    1.52
   3   5  -8    5.55    1.38
  -3  -5   8    7.96    1.47
   3   5  -7    0.46    1.12
  -3  -5   7   -0.09    1.12
  -3  -5   7    1.49    1.07
   3   5  -6    9.02    1.40
   3   5  -6    5.75    1.08
  -3  -5   6    8.24    1.30
  -3  -5   6    5.22    1.36
  -3  -5   5    1.33    1.03
   3   5  -5    0.03    0.84
  -3  -5   5    0.80    0.98
   3   5  -5    0.70    0.95
  -3  -5   4   10.71    1.31
   3   5  -4   12.47    1.30
  -3  -5   3  101.45    3.23
   3   5  -3  104.19    3.14
   3   5  -3  101.91    3.20
   3   5  -2   21.44    1.52
   3   5  -2   21.66    1.53
  -3  -5   2   21.49    1.59
   3   5  -1   25.72    1.48
   3   5  -1   25.69    1.61
   3   5   0   28.12    1.66
   3   5   0   27.28    1.42
  -3  -5   0   28.63    1.74
  -3  -5  -1   34.70    1.81
  -3  -5  -1   33.16    1.55
   3   5   1   31.71    1.66
   3   5   1   31.72    1.39
  -3  -5  -2   12.56    1.28
   3   5   2   12.05    1.14
  -3  -5  -2   14.09    1.03
   3   5   2   14.31    1.00
   3   5   3    3.16    0.67
  -3  -5  -3    2.08    0.67
   3   5   3    2.33    0.82
   3   5   3    0.89    0.53
  -3  -5  -3    3.57    0.92
  -3  -5  -4    0.36    0.72
   3   5   4   -0.59    0.75
   3   5   4    0.33    0.57
   3   5   4    0.43    0.43
  -3  -5  -4    0.06    0.53
  -3  -5  -5   93.92    2.27
  -3  -5  -5   89.42    2.43
   3   5   5   87.57    2.24
   3   5   5   95.09    2.45
   3   5   5   90.19    1.64
   3   5   6   15.06    0.76
  -3  -5  -6   14.68    1.57
   3   5   6   16.13    1.16
  -3  -5  -6   14.44    0.84
   3   5   6   14.56    1.05
  -3  -5  -6   13.02    1.04
  -3  -5  -6   15.74    1.11
   3   5   7   -0.20    0.55
  -3  -5  -7    0.68    1.20
   3   5   7    0.31    0.44
  -3  -5  -7    0.76    0.68
  -3  -5  -7    0.02    0.41
  -3  -5  -7    0.33    0.54
   3   5   7    0.84    0.71
  -3  -5  -8   57.27    2.99
  -3  -5  -8   55.97    1.79
   3   5   8   55.53    1.58
  -3  -5  -8   57.15    2.10
  -3  -5  -8   57.73    1.57
   3   5   8   54.40    1.75
   3   5   8   58.55    2.27
  -3  -5  -9   21.83    1.08
   3   5   9   22.46    1.15
   3   5   9   25.09    1.21
   3   5   9   23.48    1.64
  -3  -5  -9   26.49    1.19
  -3  -5  -9   23.49    2.24
  -3  -5  -9   24.52    1.59
   3   5  10  108.89    3.44
   3   5  10  110.56    2.30
  -3  -5 -10  108.95    3.30
  -3  -5 -10  114.87    4.39
  -3  -5 -10  105.42    2.37
   3   5  10  106.29    2.56
  -3  -5 -11   11.70    0.99
  -3  -5 -11   11.97    1.41
  -3  -5 -11   13.21    1.97
   3   5  11   10.22    0.84
   3   5  11   12.13    1.11
  -3  -5 -12   21.95    1.39
  -3  -5 -12   23.44    2.45
   3   5  12   20.95    0.95
  -3  -5 -12   22.50    1.84
   3   5  12   19.25    1.45
  -3  -5 -13   -0.47    1.56
  -3  -5 -13    1.19    0.65
  -3  -5 -13   -1.02    1.12
   3   5  13   -0.15    0.27
  -3  -5 -14   14.76    2.32
  -3  -5 -14   16.05    1.37
  -3  -5 -14   14.36    1.84
  -3  -5 -15   -1.57    1.92
  -3  -5 -15    0.07    1.20
  -3  -5 -15    0.21    0.77
  -3  -5 -16    3.44    1.98
  -3  -5 -16    6.36    1.11
  -3  -5 -17    1.83    2.05
  -3  -5 -17    4.65    1.20
  -3  -6  12    4.77    1.68
  -3  -6  11    1.70    1.35
  -3  -6  10   19.44    2.12
  -3  -6   9   -0.01    1.44
   3   6  -9    0.89    1.25
  -3  -6   8   -0.80    1.38
   3   6  -8    0.02    1.10
  -3  -6   8   -0.77    1.29
  -3  -6   7   33.11    2.38
  -3  -6   7   34.78    2.63
   3   6  -7   41.28    2.60
  -3  -6   6    1.46    1.16
  -3  -6   6    1.00    1.24
   3   6  -6    3.27    1.09
  -3  -6   5    0.18    1.04
   3   6  -5    0.94    0.88
   3   6  -5    2.02    1.00
  -3  -6   5    1.39    1.14
  -3  -6   4   -1.61    1.14
  -3  -6   4    0.45    1.11
   3   6  -4   -1.64    0.97
   3   6  -4    0.44    0.92
   3   6  -3   53.36    2.49
   3   6  -3   57.37    2.51
   3   6  -3   51.70    2.36
  -3  -6   3   54.23    2.60
   3   6  -2    6.59    1.06
   3   6  -2    6.61    1.16
  -3  -6   2    7.12    1.19
  -3  -6   1  105.18    3.33
   3   6  -1  100.64    2.81
   3   6  -1  108.85    3.24
   3   6   0    5.09    0.79
   3   6   0    5.18    0.95
  -3  -6   0    5.01    1.02
   3   6   1   31.38    1.40
   3   6   1   32.20    1.74
  -3  -6  -1   33.16    1.90
  -3  -6  -2    2.94    0.95
  -3  -6  -2    3.25    0.65
   3   6   2    1.57    0.82
   3   6   2    2.53    0.61
   3   6   3  161.66    2.71
  -3  -6  -3  159.13    3.62
   3   6   3  152.67    3.42
  -3  -6  -3  166.12    2.96
   3   6   3  156.21    2.66
   3   6   4    2.81    0.50
   3   6   4    3.51    0.84
  -3  -6  -4    3.81    0.66
   3   6   4    3.01    0.62
  -3  -6  -4    3.82    0.91
  -3  -6  -5  176.26    3.68
  -3  -6  -5  182.44    3.16
   3   6   5  177.54    3.47
   3   6   5  178.02    2.19
   3   6   5  175.78    3.01
   3   6   6   61.58    1.25
   3   6   6   60.36    2.06
  -3  -6  -6   60.31    1.90
   3   6   6   58.34    1.89
  -3  -6  -6   59.39    2.10
  -3  -6  -7  107.95    1.90
   3   6   7  105.78    2.59
  -3  -6  -7  104.13    2.61
   3   6   7  102.70    1.66
   3   6   7  100.08    2.64
  -3  -6  -7  107.86    4.07
  -3  -6  -7  105.29    2.64
  -3  -6  -8    2.27    0.64
   3   6   8    1.67    0.58
  -3  -6  -8    0.22    1.18
   3   6   8    1.81    0.43
  -3  -6  -8    1.96    0.66
  -3  -6  -8    2.19    0.47
   3   6   8    2.16    0.75
  -3  -6  -9   16.62    1.07
  -3  -6  -9   17.15    2.18
   3   6   9   17.74    1.07
  -3  -6  -9   16.32    0.88
   3   6   9   17.57    0.90
  -3  -6  -9   18.11    1.38
   3   6   9   16.53    1.46
  -3  -6 -10   29.72    1.21
   3   6  10   30.70    1.27
  -3  -6 -10   32.47    1.25
  -3  -6 -10   31.29    1.84
   3   6  10   30.43    1.30
  -3  -6 -10   33.02    2.75
   3   6  10   29.44    1.96
  -3  -6 -11   19.00    2.36
   3   6  11   20.42    0.99
  -3  -6 -11   20.06    1.11
  -3  -6 -11   19.03    1.62
  -3  -6 -12    1.78    0.66
  -3  -6 -12    1.06    1.51
   3   6  12    2.31    0.42
  -3  -6 -12    2.46    1.16
  -3  -6 -13   72.22    3.12
  -3  -6 -13   70.46    4.14
  -3  -6 -13   70.52    2.20
  -3  -6 -14    5.70    1.88
  -3  -6 -14    4.64    0.84
  -3  -6 -14    2.01    1.09
  -3  -6 -15    8.24    1.05
  -3  -6 -15    7.99    1.54
  -3  -6 -15    6.86    1.98
  -3  -6 -16    4.19    2.03
  -3  -6 -16    1.39    0.77
  -3  -6 -17    5.52    2.14
  -3  -7  11   -0.58    1.48
  -3  -7  10   -0.22    1.33
  -3  -7   9   -1.33    1.37
  -3  -7   8   43.63    3.15
   3   7  -8   43.96    2.87
  -3  -7   8   47.01    3.00
   3   7  -7    2.86    1.08
  -3  -7   7    4.83    1.62
  -3  -7   7    3.72    1.36
  -3  -7   6    3.00    1.56
   3   7  -6    2.77    1.20
  -3  -7   6    1.81    1.20
  -3  -7   5   16.63    1.96
  -3  -7   5   17.12    1.88
   3   7  -5   17.67    1.79
   3   7  -4    5.02    1.15
  -3  -7   4    4.43    1.38
   3   7  -4    4.20    1.15
  -3  -7   4    4.89    1.33
   3   7  -4    4.47    1.21
   3   7  -3    2.54    1.01
   3   7  -3    2.73    1.06
   3   7  -3    4.16    0.98
  -3  -7   3    2.47    1.29
   3   7  -2    4.06    0.97
   3   7  -2    3.29    0.88
   3   7  -2    3.32    1.15
  -3  -7   2    3.30    1.13
   3   7  -1   42.65    1.92
  -3  -7   1   43.60    2.45
   3   7  -1   44.03    2.06
  -3  -7   0    5.11    1.17
   3   7   0    4.24    0.77
   3   7   1   80.88    2.86
  -3  -7  -1   84.86    3.08
   3   7   1   81.96    2.20
   3   7   2   23.46    1.19
   3   7   2   22.71    1.61
  -3  -7  -2   24.16    1.74
   3   7   3    3.64    0.61
  -3  -7  -3    3.92    0.70
  -3  -7  -3    5.61    1.07
   3   7   3    4.21    0.65
   3   7   3    3.58    0.93
   3   7   4   62.63    2.31
   3   7   4   63.96    1.80
   3   7   4   64.52    1.60
  -3  -7  -4   62.19    1.84
  -3  -7  -4   64.99    2.50
   3   7   5   36.02    1.77
  -3  -7  -5   36.34    1.89
  -3  -7  -5   34.82    1.44
   3   7   5   36.35    1.42
   3   7   5   35.71    1.00
   3   7   6   12.83    0.96
   3   7   6   13.62    0.55
  -3  -7  -6   14.35    1.24
   3   7   6   11.58    1.12
  -3  -7  -6   13.54    1.02
  -3  -7  -7   -0.37    0.53
   3   7   7   -0.37    0.21
  -3  -7  -7   -0.85    0.68
   3   7   7   -0.50    0.59
   3   7   7   -0.14    0.60
   3   7   8   -0.28    0.71
   3   7   8    0.12    0.20
   3   7   8    0.77    0.65
  -3  -7  -8    0.72    0.65
  -3  -7  -8   -0.53    0.61
   3   7   9    2.32    0.90
  -3  -7  -9    0.49    0.55
  -3  -7  -9    3.10    1.76
  -3  -7  -9    0.66    0.31
  -3  -7  -9    1.68    0.81
   3   7   9    0.62    0.29
   3   7   9    0.78    0.67
   3   7  10    3.65    0.98
  -3  -7 -10    1.65    1.51
  -3  -7 -10    2.33    0.59
  -3  -7 -10    2.70    0.45
   3   7  10    1.37    0.54
  -3  -7 -10    1.90    0.84
  -3  -7 -11    0.24    0.45
   3   7  11   -0.95    0.50
  -3  -7 -11   -0.06    0.85
  -3  -7 -11    0.28    0.44
  -3  -7 -11    0.32    1.61
  -3  -7 -12   62.86    1.74
   3   7  12   59.54    1.42
  -3  -7 -12   59.50    3.81
  -3  -7 -12   61.71    2.72
  -3  -7 -13    6.27    0.75
  -3  -7 -13    8.83    1.32
  -3  -7 -14    3.35    1.25
  -3  -7 -14    6.62    2.19
  -3  -7 -14    4.25    0.76
  -3  -7 -15   11.51    1.05
  -3  -7 -15   13.60    1.77
  -3  -7 -15   15.61    2.51
  -3  -7 -16   -3.12    2.17
  -3  -7 -17   10.40    2.66
  -3  -8  10    3.63    1.67
  -3  -8   9    0.16    1.49
  -3  -8   8   -0.13    1.40
   3   8  -7    0.21    1.20
  -3  -8   7    0.93    1.41
  -3  -8   7    0.87    1.50
   3   8  -6    0.11    0.98
  -3  -8   6    2.02    1.54
  -3  -8   6   -0.60    1.17
  -3  -8   5    1.22    1.20
   3   8  -5    2.01    1.08
  -3  -8   5    2.05    1.25
   3   8  -5    3.04    1.22
   3   8  -4    9.18    1.43
   3   8  -4    6.81    1.29
  -3  -8   4    9.53    1.57
  -3  -8   3    3.89    1.21
   3   8  -3    5.57    1.13
   3   8  -3    4.52    1.27
   3   8  -3    7.84    1.34
   3   8  -2  138.71    4.20
   3   8  -2  128.00    3.52
   3   8  -2  132.72    3.76
   3   8  -1   27.93    1.77
  -3  -8   1   23.87    2.02
   3   8  -1   25.10    1.51
  -3  -8   0    7.55    1.41
   3   8   0    6.87    0.99
   3   8   0    7.56    1.21
   3   8   0    6.31    0.87
  -3  -8  -1    2.73    0.92
   3   8   1    4.67    0.86
   3   8   1    4.22    0.68
   3   8   2   14.75    0.99
   3   8   2   15.18    1.11
   3   8   2   14.73    1.42
  -3  -8  -2   12.51    1.47
  -3  -8  -3    1.55    0.98
   3   8   3    0.82    0.51
   3   8   3    0.94    0.57
   3   8   3   -0.47    0.98
  -3  -8  -4  186.82    3.22
   3   8   4  187.95    2.74
   3   8   4  180.05    2.70
   3   8   4  186.41    4.18
  -3  -8  -4  173.09    4.31
   3   8   4  177.83    2.83
   3   8   5    1.47    0.52
   3   8   5    2.91    0.93
   3   8   5    1.30    0.35
  -3  -8  -5    1.31    0.55
  -3  -8  -5    1.12    0.82
   3   8   5    0.97    0.32
   3   8   6    2.84    0.25
   3   8   6    1.67    0.24
   3   8   6    3.28    0.89
  -3  -8  -6    3.06    0.66
  -3  -8  -6    3.70    0.96
   3   8   6    2.20    0.63
   3   8   7    1.96    0.75
  -3  -8  -7    1.35    0.65
  -3  -8  -7    1.42    0.76
   3   8   7    1.48    0.69
  -3  -8  -8  101.00    2.94
   3   8   8  103.99    2.80
  -3  -8  -8  108.88    2.69
   3   8   8  101.90    2.74
   3   8   9   -0.33    0.75
  -3  -8  -9   -0.13    0.67
  -3  -8  -9    1.65    1.74
   3   8   9    1.43    0.71
  -3  -8  -9    0.93    0.69
  -3  -8 -10   -0.50    0.66
  -3  -8 -10    1.45    1.55
   3   8  10    0.08    0.55
  -3  -8 -10   -0.91    0.71
  -3  -8 -11   -0.18    0.54
  -3  -8 -11    1.68    1.85
   3   8  11    0.50    0.53
  -3  -8 -11   -0.52    0.78
  -3  -8 -12   14.99    1.48
  -3  -8 -12   13.78    0.63
  -3  -8 -13    3.12    0.46
  -3  -8 -13    3.44    1.92
  -3  -8 -13    1.95    1.01
  -3  -8 -14   -0.64    1.87
  -3  -8 -14    0.10    0.40
  -3  -8 -14    0.99    1.02
  -3  -8 -15   -0.45    1.95
  -3  -8 -15    2.06    1.06
  -3  -8 -16    7.23    2.40
  -3  -8 -16    4.13    1.44
  -3  -9   9    0.33    1.63
   3   9  -8    0.13    1.30
  -3  -9   8    4.13    1.71
  -3  -9   7   27.03    2.66
   3   9  -6    6.91    1.51
  -3  -9   6    5.39    1.73
  -3  -9   6    6.46    1.72
   3   9  -6    6.56    1.43
   3   9  -5    2.82    1.22
  -3  -9   5    0.53    1.43
  -3  -9   5    0.58    1.30
   3   9  -5    0.69    1.12
  -3  -9   4   12.70    1.87
   3   9  -4   10.43    1.53
   3   9  -4   14.22    1.60
  -3  -9   3   26.37    2.43
   3   9  -3   24.63    1.91
   3   9  -3   23.60    1.84
   3   9  -2    8.41    1.17
   3   9  -2    9.08    1.21
  -3  -9   2   10.47    1.67
   3   9  -1    9.64    1.09
   3   9  -1   12.93    1.37
  -3  -9   1    9.65    1.59
   3   9  -1   10.01    1.48
   3   9   0    5.71    0.86
   3   9   0    6.16    1.35
   3   9   0    5.98    1.01
  -3  -9   0    5.26    1.22
  -3  -9  -1   14.62    1.74
   3   9   1   12.15    1.01
   3   9   1   12.17    1.14
   3   9   2    3.34    0.97
  -3  -9  -2    3.04    1.17
   3   9   2    3.45    0.67
   3   9   2    4.79    0.83
   3   9   3    0.63    0.56
  -3  -9  -3    1.98    1.18
   3   9   3   -0.08    0.85
   3   9   3   -0.40    0.48
  -3  -9  -4    1.89    1.01
   3   9   4    2.77    0.57
   3   9   4    1.57    0.97
   3   9   4    2.44    0.51
   3   9   4    2.68    0.57
  -3  -9  -5    0.74    0.52
   3   9   5    0.99    0.84
  -3  -9  -5    1.82    0.97
   3   9   5    0.58    0.29
   3   9   5    1.04    0.53
   3   9   5    0.36    0.27
  -3  -9  -6    7.12    0.77
   3   9   6    8.87    1.25
  -3  -9  -6    8.26    1.27
   3   9   6    8.80    0.81
  -3  -9  -7   27.97    1.87
  -3  -9  -7   24.15    1.24
   3   9   7   22.46    1.57
   3   9   7   26.34    1.35
   3   9   8   -0.24    0.69
  -3  -9  -8   -0.48    0.62
   3   9   8    0.25    0.69
  -3  -9  -8   -0.53    0.74
  -3  -9  -9   27.17    1.52
   3   9   9   26.57    1.54
  -3  -9  -9   23.97    1.58
  -3  -9 -10    0.93    0.73
  -3  -9 -10   -0.26    1.79
  -3  -9 -10    1.25    0.71
  -3  -9 -11    2.54    1.86
  -3  -9 -11    0.54    0.59
  -3  -9 -11    1.56    0.79
  -3  -9 -12    0.16    0.81
  -3  -9 -12   -0.09    0.50
  -3  -9 -13    0.60    2.03
  -3  -9 -13    5.50    1.16
  -3  -9 -14    7.50    1.35
  -3  -9 -14    3.66    2.07
  -3  -9 -15    1.40    1.93
  -3  -9 -15   -0.02    1.09
  -3  -9 -16    0.18    2.06
  -3 -10   8   -0.63    1.54
   3  10  -8   -0.52    1.46
  -3 -10   7   12.48    2.18
   3  10  -7   11.60    1.89
   3  10  -7    7.79    1.54
   3  10  -6    0.80    1.25
  -3 -10   6    2.10    1.56
   3  10  -5   11.45    1.75
   3  10  -5   13.70    1.74
  -3 -10   5    7.99    1.93
  -3 -10   4    0.24    1.26
   3  10  -4   -0.74    1.04
   3  10  -4   -1.36    1.07
  -3 -10   3   20.93    2.36
   3  10  -3   15.10    1.60
   3  10  -3   21.44    1.75
   3  10  -2    1.33    0.88
   3  10  -2    0.32    0.93
   3  10  -1    7.43    1.17
   3  10  -1   11.47    1.16
  -3 -10   1   12.41    1.87
   3  10   0    0.09    0.62
  -3 -10   0    0.66    1.13
   3  10   0   -0.47    0.82
   3  10   1   30.45    1.64
   3  10   1   28.87    1.41
  -3 -10  -1   28.44    2.29
  -3 -10  -2    9.14    1.56
   3  10   2    9.66    0.98
   3  10   2    8.29    0.76
   3  10   3  155.44    2.95
  -3 -10  -3  150.88    4.72
   3  10   3  158.78    2.52
   3  10   4    0.19    0.41
   3  10   4    0.22    0.49
   3  10   4   -0.58    0.94
  -3 -10  -4   -0.69    0.96
   3  10   4   -0.27    0.41
   3  10   5    0.81    0.27
   3  10   5    0.36    0.85
   3  10   5    0.24    0.39
   3  10   5   -0.01    0.25
   3  10   6    0.76    0.87
  -3 -10  -6    1.52    1.00
  -3 -10  -6    0.67    0.46
   3  10   6    0.43    0.43
  -3 -10  -7   28.81    1.33
  -3 -10  -7   29.37    2.02
   3  10   7   31.31    1.29
  -3 -10  -8   18.23    1.70
  -3 -10  -8   18.20    1.12
  -3 -10  -9   19.44    1.57
  -3 -10  -9   18.86    1.25
  -3 -10 -10    0.06    0.73
  -3 -10 -10    2.37    1.87
  -3 -10 -10    1.48    0.76
  -3 -10 -11    3.88    0.81
  -3 -10 -11    1.78    1.95
  -3 -10 -11    4.67    0.86
  -3 -10 -12    2.56    2.21
  -3 -10 -12    0.98    0.60
  -3 -10 -12    0.51    0.84
  -3 -10 -13   -0.19    2.23
  -3 -10 -13    1.78    0.44
  -3 -10 -13    1.04    0.83
  -3 -10 -14    9.76    2.73
  -3 -10 -14    3.50    1.08
  -3 -10 -15   -2.59    2.09
   3  11  -6    0.11    1.25
  -3 -11   6   -2.66    1.83
   3  11  -6    0.71    1.01
   3  11  -5    9.41    1.57
  -3 -11   5   10.10    2.10
   3  11  -5   12.23    1.60
   3  11  -4    2.34    0.92
   3  11  -4    3.27    1.15
  -3 -11   4    2.89    1.56
   3  11  -4    2.94    1.38
   3  11  -3    1.51    0.88
   3  11  -3    1.26    1.04
  -3 -11   3    3.04    1.62
  -3 -11   2    0.32    1.37
   3  11  -2    1.44    1.06
   3  11  -2    3.23    0.97
   3  11  -1    7.40    1.22
  -3 -11   1    6.96    1.69
   3  11  -1    6.73    0.91
   3  11   0    0.38    0.80
  -3 -11   0    0.99    1.49
   3  11   0    0.11    0.60
   3  11   1    1.44    0.78
  -3 -11  -1    1.09    1.26
   3  11   1    2.39    0.55
  -3 -11  -2   -1.06    1.28
   3  11   2   -0.32    0.40
   3  11   2    0.39    0.64
  -3 -11  -3    2.40    1.35
   3  11   3    2.12    0.41
   3  11   3    1.99    0.62
   3  11   4    1.15    0.47
   3  11   4    1.45    0.51
   3  11   4    2.32    0.36
  -3 -11  -4    2.39    1.32
   3  11   5    3.03    0.36
  -3 -11  -5    5.25    1.31
   3  11   5    4.40    0.40
  -3 -11  -6   39.79    2.61
  -3 -11  -7   10.68    1.55
  -3 -11  -8    8.96    0.76
  -3 -11  -8    9.63    1.45
  -3 -11  -9    0.40    0.51
  -3 -11  -9    0.56    0.92
  -3 -11 -10    1.05    0.62
  -3 -11 -10   -0.24    0.80
  -3 -11 -11    5.96    1.00
  -3 -11 -11    6.51    2.51
  -3 -11 -11    4.49    0.83
  -3 -11 -12    0.58    0.73
  -3 -11 -12    1.80    0.71
  -3 -11 -12    1.56    2.28
  -3 -11 -13    3.37    2.35
  -3 -11 -14    1.64    2.12
   3  12  -5    1.43    1.20
  -3 -12   4    9.92    2.22
   3  12  -4    9.04    1.34
   3  12  -3    0.10    0.82
   3  12  -3    0.15    0.79
  -3 -12   3   -0.30    1.57
   3  12  -3   -0.72    1.14
   3  12  -2    1.53    1.07
   3  12  -2    2.52    0.88
  -3 -12   2    3.66    1.83
   3  12  -2    2.27    0.84
   3  12  -1    4.52    1.09
   3  12  -1    3.40    0.78
   3  12  -1    3.26    0.71
  -3 -12   1    4.81    1.80
   3  12   0   14.08    1.01
  -3 -12   0   13.17    2.05
   3  12   0   15.32    1.47
   3  12   0   14.97    1.06
   3  12   1   16.81    1.38
  -3 -12  -1   15.95    2.10
   3  12   1   16.38    0.94
   3  12   1   15.16    0.87
   3  12   2    9.84    1.07
   3  12   2    7.34    0.53
  -3 -12  -2    7.71    1.68
  -3 -12  -3    3.01    1.38
   3  12   3    2.11    0.63
   3  12   4    0.40    0.43
  -3 -12  -4    1.32    1.13
   3  12   4    1.32    0.55
  -3 -12  -5    2.79    1.11
  -3 -12  -6    0.70    1.18
  -3 -12  -7    3.24    1.18
  -3 -12  -8   -2.19    1.25
  -3 -12  -9    0.38    0.98
  -3 -12 -10   -0.23    0.92
  -3 -12 -11    0.73    0.89
  -3 -12 -11    2.62    2.34
  -3 -12 -12   -2.12    2.59
  -3 -12 -13    4.93    2.68
  -3 -13   2    1.40    1.55
   3  13  -2    0.40    1.03
   3  13  -1    0.02    0.98
  -3 -13   1    1.35    1.66
   3  13   0    7.57    1.24
  -3 -13   0    5.45    1.70
  -3 -13  -1   -0.72    1.61
   3  13   1    1.20    0.82
   3  13   2    0.58    0.68
  -3 -13  -2    0.84    1.45
   3  13   3   18.33    1.18
  -3 -13  -3   14.81    2.15
   3  13   4    0.03    0.41
  -3 -13  -4    1.71    1.29
  -3 -13  -5    3.95    1.44
  -3 -13  -6    0.05    1.17
  -3 -13  -7   -0.18    1.11
  -3 -13  -8    0.10    1.27
  -3 -13  -9    2.23    1.30
  -3 -13 -10    7.71    1.43
  -3 -13 -11    2.11    0.99
  -3 -13 -11    6.37    2.88
  -3 -14  -2   10.41    2.16
  -3 -14  -3   21.78    2.52
  -3 -14  -4    5.94    1.65
  -3 -14  -5   15.81    2.22
  -3 -14  -6    1.08    1.43
  -3 -14  -7   27.03    2.59
  -3 -14  -8    7.67    1.70
   4 -11  -7    0.35    0.93
   4 -11  -6    1.48    1.05
   4 -11  -5    0.30    1.05
   4 -11  -4    1.17    1.16
   4 -11  -4    1.50    0.71
   4 -11  -3    0.62    0.70
   4 -11  -3   -1.35    1.24
  -4  11   2    0.59    0.87
   4 -11  -2    0.87    0.82
   4 -11  -2    1.03    1.21
   4 -11  -1    1.00    0.90
   4 -11  -1    2.29    1.29
  -4  11   1   -0.20    0.78
   4 -11   0    4.27    1.44
   4 -11   0    6.21    1.16
  -4  11   0    6.45    1.20
   4 -11   1   11.72    2.03
  -4  11  -1    9.35    1.37
   4 -11   1   13.14    1.65
  -4  11  -2    2.65    1.19
   4 -11   2    2.02    1.13
   4 -11   2    3.34    1.64
  -4  11  -3    2.68    1.28
   4 -11   3    3.09    1.65
   4 -11   3    1.63    1.30
   4 -11   4   -0.43    1.31
   4 -10  -9    1.67    1.94
   4 -10  -8   69.49    4.76
   4 -10  -8   71.54    2.79
   4 -10  -7    1.93    0.94
   4 -10  -7    1.71    0.88
   4 -10  -6    0.22    0.85
   4 -10  -6   -0.02    0.51
   4 -10  -5    0.09    1.04
   4 -10  -5    0.99    0.57
   4 -10  -4    0.61    0.66
   4 -10  -4    1.37    0.93
   4 -10  -3    4.12    1.26
   4 -10  -3    4.31    0.90
  -4  10   3    2.64    0.89
   4 -10  -2   -0.25    0.73
  -4  10   2    0.04    0.76
   4 -10  -2    1.95    1.08
   4 -10  -1    1.46    1.22
   4 -10  -1    0.36    0.87
  -4  10   1    1.35    0.88
   4 -10   0    1.81    0.99
   4 -10   0    0.51    1.27
  -4  10   0   -0.67    0.91
   4 -10   1    5.37    1.49
   4 -10   1    8.82    1.32
  -4  10  -1    7.14    1.30
   4 -10   2    0.65    1.12
  -4  10  -2   -1.14    0.98
   4 -10   2    1.02    0.90
  -4  10  -2   -0.13    0.26
  -4  10  -3   18.36    1.00
   4 -10   3   19.11    2.25
   4 -10   3   21.76    2.04
  -4  10  -3   18.85    1.84
  -4  10  -4    0.22    1.00
   4 -10   4    2.30    1.62
   4 -10   4    1.38    1.10
   4 -10   5   -0.91    1.42
   4 -10   5    0.41    1.20
   4 -10   6   22.19    2.35
   4 -10   6   22.10    2.61
   4  -9 -11   -0.22    1.92
   4  -9 -10   18.07    2.90
   4  -9  -9    6.60    2.19
   4  -9  -9    8.14    0.75
   4  -9  -9    8.05    0.98
   4  -9  -9    9.00    1.03
   4  -9  -8   97.06    5.41
   4  -9  -8   96.32    3.02
   4  -9  -8   88.28    2.13
   4  -9  -8   92.41    2.93
   4  -9  -8   94.19    2.33
   4  -9  -7   21.95    1.59
   4  -9  -7   23.99    1.21
   4  -9  -7   21.52    1.65
   4  -9  -7   22.74    1.02
   4  -9  -7   22.25    1.03
   4  -9  -6    1.95    0.79
   4  -9  -6    3.35    0.96
   4  -9  -6    3.35    0.67
   4  -9  -6    3.24    0.38
   4  -9  -5    1.68    0.62
   4  -9  -5    0.96    0.84
   4  -9  -4    0.40    0.59
   4  -9  -3    2.88    0.80
  -4   9   3    3.33    0.93
  -4   9   2   42.67    2.15
   4  -9  -2   41.02    1.96
   4  -9  -1   97.30    3.09
  -4   9   1   96.84    3.14
  -4   9   0   12.24    1.37
   4  -9   0    9.27    1.20
   4  -9   1   22.44    1.76
  -4   9  -1   19.89    0.90
  -4   9  -1   19.14    1.64
   4  -9   2    2.55    1.07
  -4   9  -2    4.13    0.61
  -4   9  -3    3.33    1.10
   4  -9   3    2.62    1.17
  -4   9  -3    3.04    0.69
   4  -9   4    8.35    1.42
  -4   9  -4    8.66    1.00
  -4   9  -4    8.24    1.43
  -4   9  -5    6.50    1.39
   4  -9   5    5.95    1.64
   4  -9   5    6.45    1.51
  -4   9  -5    4.93    0.94
   4  -9   6    1.62    1.39
   4  -9   6    1.21    1.19
  -4   9  -6    0.21    0.80
  -4   9  -7   17.20    1.61
   4  -9   7   17.22    2.29
   4  -9   7   17.60    2.22
   4  -9   8    0.30    1.49
   4  -9   8    2.75    1.63
   4  -8 -12    0.98    2.06
   4  -8 -12   -0.14    0.97
   4  -8 -11   -0.86    1.69
   4  -8 -11    3.10    1.05
   4  -8 -10    0.61    0.79
   4  -8 -10    0.94    0.68
   4  -8 -10    0.66    1.89
   4  -8 -10   -0.26    0.40
   4  -8 -10   -0.02    0.70
   4  -8  -9    2.86    0.83
   4  -8  -9    2.07    0.74
   4  -8  -9    2.00    1.76
   4  -8  -9    3.74    0.68
   4  -8  -9    3.77    0.76
   4  -8  -9    1.32    0.74
   4  -8  -8   34.50    1.77
   4  -8  -8   34.99    1.52
   4  -8  -8   34.89    1.70
   4  -8  -8   33.56    1.72
   4  -8  -8   40.41    3.54
   4  -8  -7   36.15    3.22
   4  -8  -7   33.42    1.81
   4  -8  -7   35.90    1.55
   4  -8  -7   38.49    1.64
   4  -8  -6   13.09    0.90
   4  -8  -6   11.80    1.25
   4  -8  -6   12.29    0.98
   4  -8  -5   14.81    0.82
   4  -8  -5   14.80    1.08
   4  -8  -4    3.58    0.76
   4  -8  -4    3.43    0.45
  -4   8   3    4.74    0.97
   4  -8  -3    3.55    0.79
   4  -8  -3    3.49    0.42
   4  -8  -2   58.94    1.28
  -4   8   2   63.76    2.53
   4  -8  -2   66.89    2.34
  -4   8   1   26.82    1.68
   4  -8  -1   27.73    0.94
   4  -8  -1   26.08    1.63
   4  -8   0   -0.07    0.77
  -4   8   0    0.68    0.79
  -4   8  -1   -0.49    0.86
   4  -8   1    0.20    0.83
  -4   8  -1    0.21    0.45
  -4   8  -2   13.31    0.97
   4  -8   2   13.71    1.49
  -4   8  -2   13.32    1.46
   4  -8   3   14.92    1.54
  -4   8  -3   12.38    1.06
  -4   8  -3   11.25    1.39
   4  -8   4   13.24    1.62
  -4   8  -4   13.52    1.18
  -4   8  -4   13.48    1.56
   4  -8   5    5.37    1.26
  -4   8  -5    6.64    1.36
  -4   8  -5    7.41    1.05
   4  -8   6    0.73    1.15
   4  -8   6    4.40    1.54
  -4   8  -6    1.47    1.06
  -4   8  -6    3.06    0.88
  -4   8  -7   -0.49    0.85
   4  -8   7    0.81    1.16
   4  -8   8    0.51    1.49
  -4   8  -8   -2.15    1.09
   4  -8   8    1.69    1.51
   4  -8   9    0.19    1.53
   4  -8   9    4.47    1.74
  -4   8  -9    1.78    1.15
   4  -8  10    2.79    1.64
   4  -8  10   -1.93    1.56
  -4   8 -10    1.56    1.19
   4  -7 -13    0.15    1.08
   4  -7 -13   -0.56    1.75
   4  -7 -12    2.25    1.14
   4  -7 -12    2.73    1.72
   4  -7 -12    1.92    1.20
   4  -7 -12    0.81    0.72
   4  -7 -11    1.16    0.92
   4  -7 -11    2.87    1.62
   4  -7 -11    3.89    0.92
   4  -7 -11    3.66    0.97
   4  -7 -11    1.49    1.12
   4  -7 -10    3.61    1.90
   4  -7 -10    3.10    0.41
   4  -7 -10    4.70    1.15
   4  -7 -10    5.64    0.91
   4  -7 -10    2.77    0.43
   4  -7  -9    0.16    0.57
   4  -7  -9   -0.16    0.64
   4  -7  -9    0.04    0.45
   4  -7  -9   -0.52    0.89
   4  -7  -8  119.85    2.97
   4  -7  -8  112.98    3.29
   4  -7  -8  121.54    2.97
   4  -7  -7   70.00    2.39
   4  -7  -7   64.65    2.13
   4  -7  -7   67.16    2.38
   4  -7  -6   14.66    1.11
   4  -7  -6   13.19    1.20
   4  -7  -6   13.00    1.10
   4  -7  -5    0.68    0.61
   4  -7  -5    0.73    0.63
   4  -7  -5    1.55    0.62
   4  -7  -4    0.84    0.58
   4  -7  -4    1.25    0.57
  -4   7   3    2.49    0.83
   4  -7  -3    1.81    0.52
   4  -7  -3    1.04    0.56
  -4   7   2    6.69    1.04
   4  -7  -2    5.12    0.86
   4  -7  -2    6.62    0.63
   4  -7  -1    0.22    0.66
  -4   7   1    0.69    0.74
   4  -7  -1   -0.26    0.42
  -4   7   0   23.14    1.15
  -4   7   0   25.10    1.62
   4  -7   0   24.34    1.55
   4  -7   0   22.32    1.12
   4  -7   1    0.77    0.55
  -4   7  -1    1.73    0.93
   4  -7   1    1.33    0.84
  -4   7  -1    0.07    0.50
   4  -7   2    0.52    0.57
  -4   7  -2   -1.39    0.89
  -4   7  -2    0.52    0.56
   4  -7   2   -0.37    0.81
   4  -7   3   13.57    1.46
  -4   7  -3   14.95    1.20
  -4   7  -3   12.78    1.39
   4  -7   4   18.88    1.78
  -4   7  -4   18.05    1.32
  -4   7  -4   15.60    1.53
  -4   7  -5    7.74    1.29
  -4   7  -5    7.76    1.09
   4  -7   5   11.49    1.61
  -4   7  -6    8.56    1.18
   4  -7   6   13.71    1.98
   4  -7   6   11.11    1.63
  -4   7  -6    9.01    1.37
   4  -7   7    0.23    1.17
   4  -7   7   -0.47    1.37
  -4   7  -7    0.65    1.05
  -4   7  -7   -0.04    0.94
   4  -7   8    1.26    1.55
  -4   7  -8    0.02    1.19
   4  -7   8    0.60    1.24
  -4   7  -8    0.84    1.01
   4  -7   9    0.68    1.39
  -4   7  -9   -0.12    1.03
   4  -7  10    2.03    1.27
   4  -7  10    0.76    1.57
  -4   7 -10    2.15    1.20
   4  -7  11    9.72    2.07
   4  -7  11   13.00    2.12
   4  -6 -13    3.54    1.98
   4  -6 -13    3.04    1.09
   4  -6 -13    1.82    1.12
   4  -6 -13    3.83    1.36
   4  -6 -12    5.75    1.48
   4  -6 -12    6.10    1.74
   4  -6 -12    6.57    1.21
   4  -6 -12    5.34    1.06
   4  -6 -12    6.05    1.50
   4  -6 -11    1.10    1.55
   4  -6 -11    1.80    1.23
   4  -6 -11    1.54    0.89
   4  -6 -10    3.97    1.58
   4  -6 -10    3.18    1.17
   4  -6 -10    1.52    0.26
   4  -6 -10    3.63    0.91
   4  -6  -9    0.14    1.57
   4  -6  -9    0.40    0.93
   4  -6  -9   -0.90    0.73
   4  -6  -9    1.79    0.55
   4  -6  -8   82.36    4.21
   4  -6  -8   81.57    2.56
   4  -6  -8   80.17    2.25
   4  -6  -8   81.31    3.02
   4  -6  -7  147.10    3.27
   4  -6  -7  142.31    5.32
   4  -6  -7  142.69    3.66
   4  -6  -7  140.30    3.27
   4  -6  -6   39.69    1.83
   4  -6  -6   42.45    3.02
   4  -6  -6   40.73    1.87
   4  -6  -6   41.08    1.77
   4  -6  -5    0.91    0.63
   4  -6  -5   -0.26    0.58
   4  -6  -5    1.09    0.59
   4  -6  -4   -0.13    0.60
   4  -6  -4    0.05    0.60
   4  -6  -4    0.30    0.57
   4  -6  -3    3.23    0.73
  -4   6   3    2.10    0.76
   4  -6  -3    2.18    0.61
   4  -6  -2   11.58    1.02
  -4   6   2   13.55    1.27
   4  -6  -2   10.90    0.83
  -4   6   1   30.92    1.38
   4  -6  -1   28.00    1.54
  -4   6   1   30.07    1.66
   4  -6  -1   29.25    1.22
   4  -6   0   -0.58    0.71
  -4   6   0    1.28    0.57
  -4   6   0    1.16    0.76
   4  -6   0    1.47    0.58
   4  -6   1    2.06    0.61
  -4   6  -1    2.82    0.64
  -4   6  -1    2.36    0.85
   4  -6   1    2.92    0.83
  -4   6  -2    9.15    1.09
  -4   6  -2   10.26    0.99
   4  -6   2    7.92    1.08
   4  -6   2    9.75    0.98
  -4   6  -3   57.57    2.03
   4  -6   3   53.18    2.40
  -4   6  -3   53.83    2.33
   4  -6   3   60.26    2.13
   4  -6   4   23.63    1.78
  -4   6  -4   28.34    1.56
   4  -6   4   23.29    1.50
  -4   6  -4   25.09    1.78
   4  -6   5    0.96    0.83
   4  -6   5   -1.14    1.10
  -4   6  -5    2.19    1.04
  -4   6  -5    1.54    0.80
  -4   6  -6   65.33    2.96
   4  -6   6   70.48    3.50
   4  -6   6   76.11    3.26
  -4   6  -6   78.86    2.82
   4  -6   7   -1.40    1.31
  -4   6  -7   -0.85    1.00
  -4   6  -7   -2.41    1.05
   4  -6   7   -0.43    1.06
   4  -6   8    2.98    1.25
   4  -6   8    2.93    1.55
  -4   6  -8    2.16    0.96
  -4   6  -8    1.61    1.16
  -4   6  -9    0.80    1.12
   4  -6   9   -1.67    1.28
  -4   6  -9   -0.23    1.25
  -4   6 -10   10.00    1.58
   4  -6  10   12.30    1.99
   4  -6  11    2.17    1.45
   4  -6  11    0.39    1.39
  -4   6 -11    1.67    1.18
   4  -6  12   -2.09    1.48
   4  -6  12    0.87    1.40
   4  -5 -14    4.86    2.01
   4  -5 -14    1.61    1.07
   4  -5 -13    6.72    1.58
   4  -5 -13    6.82    1.76
   4  -5 -13    9.76    1.74
   4  -5 -13    5.26    1.19
   4  -5 -13    6.73    1.34
   4  -5 -12    2.08    1.58
   4  -5 -12    1.14    1.11
   4  -5 -12    1.24    1.04
   4  -5 -12   -0.94    0.91
   4  -5 -11    0.34    1.11
   4  -5 -11   -1.38    1.39
   4  -5 -11    1.67    1.04
   4  -5 -10   16.48    2.21
   4  -5 -10   12.98    1.46
   4  -5 -10   12.88    1.64
   4  -5  -9    0.30    1.02
   4  -5  -9   -0.92    1.31
   4  -5  -9    0.97    0.44
   4  -5  -9   -0.38    0.84
   4  -5  -8   17.63    2.10
   4  -5  -8   19.57    1.79
   4  -5  -8   19.95    1.50
   4  -5  -8   18.47    1.12
   4  -5  -7  366.85    7.86
   4  -5  -7  360.44    5.38
   4  -5  -7  359.75    6.11
   4  -5  -7  360.87    4.73
   4  -5  -6   15.80    2.02
   4  -5  -6   15.83    1.25
   4  -5  -6   15.56    1.40
   4  -5  -6   15.68    1.22
   4  -5  -5    1.19    0.65
   4  -5  -5    0.80    0.70
   4  -5  -5    0.85    0.68
   4  -5  -4   22.03    1.31
   4  -5  -4   24.65    1.36
   4  -5  -4   24.94    1.43
   4  -5  -3   -0.19    0.56
   4  -5  -3    0.02    0.53
   4  -5  -3    1.32    0.64
  -4   5   3    1.14    0.67
   4  -5  -2   24.96    1.36
  -4   5   2   22.36    1.47
   4  -5  -2   24.92    1.22
   4  -5  -1    3.05    0.56
  -4   5   1    4.70    0.84
  -4   5   1    3.98    0.73
   4  -5  -1    4.28    0.79
   4  -5   0   54.65    2.02
  -4   5   0   54.89    1.80
   4  -5   0   54.29    1.71
  -4   5   0   56.55    2.16
   4  -5   1    0.89    0.69
  -4   5  -1    1.33    0.56
   4  -5   1    1.20    0.59
  -4   5  -2    7.96    0.88
   4  -5   2    9.08    1.11
  -4   5  -2    7.80    1.05
   4  -5   2    8.30    0.88
   4  -5   3   14.25    1.20
  -4   5  -3   17.67    1.40
   4  -5   3   14.17    1.31
  -4   5  -3   15.97    1.18
   4  -5   4   36.84    2.02
   4  -5   4   36.57    1.80
  -4   5  -4   35.08    1.93
  -4   5  -4   35.51    1.70
   4  -5   5    1.06    0.76
   4  -5   5    0.64    0.90
   4  -5   5    0.50    1.08
  -4   5  -5    1.93    0.91
  -4   5  -5    1.68    0.79
   4  -5   6    0.80    0.92
   4  -5   6    3.42    1.07
  -4   5  -6    1.02    0.82
   4  -5   6    1.34    1.24
  -4   5  -6    3.15    1.17
   4  -5   7   24.90    2.26
  -4   5  -7   21.74    1.82
   4  -5   7   22.08    1.93
  -4   5  -7   22.98    1.71
  -4   5  -8    4.91    1.18
   4  -5   8    2.35    1.37
  -4   5  -8    4.52    1.23
   4  -5   8    4.71    1.25
   4  -5   9    0.33    1.00
   4  -5   9    0.17    1.38
  -4   5  -9    1.47    1.20
  -4   5  -9    0.27    1.00
   4  -5  10   -0.06    1.48
  -4   5 -10    0.49    1.02
   4  -5  10   -0.83    1.25
  -4   5 -10    2.23    1.15
  -4   5 -11    2.83    1.38
   4  -5  11    0.93    1.32
   4  -5  12    0.04    1.48
   4  -5  12    0.39    1.27
   4  -5  13   12.81    2.24
   4  -5  13   12.49    2.02
   4  -4 -14    2.88    1.76
   4  -4 -14    6.17    1.50
   4  -4 -13    1.84    1.55
   4  -4 -13    2.40    1.12
   4  -4 -13    4.70    1.44
   4  -4 -12   -0.17    1.00
   4  -4 -12    0.01    1.42
   4  -4 -12   -0.57    1.03
   4  -4 -11   34.75    2.26
   4  -4 -11   31.93    2.79
   4  -4 -10   13.05    1.98
   4  -4 -10    9.42    0.45
   4  -4  -9    5.81    1.55
   4  -4  -9    4.43    0.55
   4  -4  -9    5.39    1.15
   4  -4  -9    3.73    1.03
   4  -4  -8   22.97    2.26
   4  -4  -8   28.67    1.91
   4  -4  -8   27.09    2.03
   4  -4  -8   29.81    1.29
   4  -4  -7  100.92    4.01
   4  -4  -7  100.12    3.13
   4  -4  -7  107.09    3.52
   4  -4  -7   96.98    2.40
   4  -4  -6   18.93    1.91
   4  -4  -6   17.67    1.42
   4  -4  -6   17.58    1.51
   4  -4  -6   17.79    1.19
   4  -4  -5    0.83    0.77
   4  -4  -5   -0.33    0.64
   4  -4  -5    1.33    1.10
   4  -4  -5   -0.02    0.64
   4  -4  -4   34.31    1.58
   4  -4  -4   33.27    1.59
   4  -4  -4   34.46    1.69
   4  -4  -3    0.36    0.54
   4  -4  -3   -0.71    0.57
   4  -4  -3    0.50    0.58
   4  -4  -2  112.59    2.88
  -4   4   2  114.18    3.00
   4  -4  -2  105.58    2.61
   4  -4  -1    5.69    0.79
  -4   4   1    4.38    0.73
  -4   4   1    6.16    0.93
   4  -4  -1    4.93    0.71
   4  -4   0  291.83    4.40
   4  -4   0  296.10    3.89
  -4   4   0  291.98    4.08
  -4   4   0  297.62    4.63
  -4   4  -1    4.90    0.84
  -4   4  -1    3.64    0.75
   4  -4   1    4.69    0.84
   4  -4   1    5.55    0.75
  -4   4  -2   73.32    2.21
   4  -4   2   74.15    2.13
   4  -4   2   72.59    2.38
  -4   4  -2   74.67    2.45
   4  -4   3    1.29    0.81
  -4   4  -3    1.03    0.69
  -4   4  -3    1.53    0.66
   4  -4   3    1.83    0.66
   4  -4   4    2.82    0.82
  -4   4  -4    3.64    0.91
   4  -4   4    4.65    1.01
  -4   4  -4    3.80    0.80
  -4   4  -5   14.66    1.36
   4  -4   5   17.57    1.68
  -4   4  -5   16.32    1.33
   4  -4   5   14.34    1.42
   4  -4   5   16.10    1.35
   4  -4   6   -0.38    0.85
   4  -4   6    1.10    0.86
   4  -4   6    2.02    1.18
  -4   4  -6    0.34    0.82
  -4   4  -6   -0.08    0.76
   4  -4   7  172.08    4.83
   4  -4   7  162.53    4.46
  -4   4  -7  175.10    4.41
  -4   4  -7  168.51    4.12
   4  -4   7  165.29    4.34
   4  -4   8   60.45    3.25
  -4   4  -8   62.41    2.89
   4  -4   8   59.07    2.93
  -4   4  -8   63.61    2.76
   4  -4   9    7.27    1.67
  -4   4  -9    5.96    1.33
  -4   4  -9    7.32    1.32
   4  -4   9    7.53    1.46
   4  -4  10    0.01    1.11
   4  -4  10    0.33    1.31
  -4   4 -10    1.36    1.08
  -4   4 -10    0.46    1.06
   4  -4  11    0.73    1.30
   4  -4  11   -0.31    1.41
  -4   4 -11    2.10    1.22
  -4   4 -11   -0.09    1.10
  -4   4 -12    2.31    1.27
   4  -4  12    1.03    1.25
   4  -4  13   10.07    1.99
   4  -4  13   10.12    1.74
   4  -4  14    3.39    1.43
   4  -4  14    1.40    1.85
   4  -3 -14    4.37    1.82
   4  -3 -14    9.45    1.65
   4  -3 -13    2.65    1.33
   4  -3 -13    0.21    1.40
   4  -3 -12    0.77    1.04
   4  -3 -12    3.53    1.78
   4  -3 -11    4.67    1.62
   4  -3 -10   12.79    1.85
   4  -3 -10    8.53    0.58
   4  -3  -9   14.58    1.83
   4  -3  -9   14.34    0.86
   4  -3  -8    8.66    1.55
   4  -3  -8    6.44    1.19
   4  -3  -8    7.39    1.22
   4  -3  -8    9.51    0.83
   4  -3  -7    1.27    0.89
   4  -3  -7    1.11    0.82
   4  -3  -7   -0.36    0.54
   4  -3  -7   -0.01    1.09
   4  -3  -6    7.76    1.29
   4  -3  -6    5.65    1.05
   4  -3  -6    6.43    1.17
   4  -3  -6    7.39    0.87
   4  -3  -5    0.36    0.56
   4  -3  -5    1.49    1.04
   4  -3  -5   -0.20    0.72
   4  -3  -5    1.26    0.70
   4  -3  -4   17.20    1.16
   4  -3  -4   16.65    1.53
   4  -3  -4   18.04    1.28
   4  -3  -4   19.78    1.37
   4  -3  -3   16.29    1.13
   4  -3  -3   14.79    1.13
   4  -3  -3   13.09    1.07
   4  -3  -2  122.42    2.85
   4  -3  -2  118.37    2.78
  -4   3   2  116.25    3.00
   4  -3  -2  117.79    2.69
   4  -3  -1    7.51    0.90
  -4   3   1    9.52    1.06
   4  -3  -1    7.35    0.85
  -4   3   1    7.21    0.90
   4  -3  -1    9.86    0.92
  -4   3   0   95.95    2.60
   4  -3   0   99.90    2.32
   4  -3   0  102.79    2.53
  -4   3   0   97.07    2.42
   4  -3   1    8.55    0.97
   4  -3   1    8.43    0.88
  -4   3  -1    7.01    0.90
  -4   3  -1    7.04    0.81
   4  -3   2   32.88    1.57
  -4   3  -2   31.60    1.49
   4  -3   2   28.87    1.42
  -4   3  -2   29.69    1.58
  -4   3  -3    2.99    0.78
   4  -3   3    1.84    0.74
  -4   3  -3    2.12    0.73
   4  -3   3    2.21    0.80
   4  -3   4  107.54    3.08
   4  -3   4  107.55    2.97
  -4   3  -4  106.87    2.70
   4  -3   4  103.62    2.80
  -4   3  -4  105.83    2.92
  -4   3  -5   18.86    1.41
   4  -3   5   23.43    1.68
   4  -3   5   20.37    1.52
  -4   3  -5   21.09    1.44
   4  -3   5   21.60    1.53
  -4   3  -6   29.30    1.72
   4  -3   6   33.53    2.04
  -4   3  -6   30.92    1.82
   4  -3   6   32.14    1.88
   4  -3   6   29.56    1.85
   4  -3   7    6.99    1.16
  -4   3  -7    8.76    1.18
   4  -3   7    8.26    1.37
   4  -3   7    7.98    1.21
  -4   3  -7    8.89    1.25
  -4   3  -8   37.90    2.16
   4  -3   8   39.88    2.44
   4  -3   8   37.48    2.25
  -4   3  -8   41.17    2.29
   4  -3   8   41.10    2.38
   4  -3   9    2.93    1.10
   4  -3   9    4.62    1.52
  -4   3  -9    4.92    1.30
   4  -3   9    4.76    1.33
  -4   3  -9    5.50    1.29
   4  -3  10    0.68    1.14
   4  -3  10    2.09    1.52
  -4   3 -10    0.79    1.09
  -4   3 -10   -0.53    0.96
   4  -3  11    2.40    1.60
   4  -3  11    0.51    1.21
  -4   3 -11   -1.02    1.05
  -4   3 -11    1.54    1.21
   4  -3  12    4.76    1.77
   4  -3  12   11.69    2.05
  -4   3 -12    6.74    1.48
  -4   3 -12    9.33    1.75
   4  -3  13   27.01    2.67
   4  -3  14    1.37    1.11
   4  -3  14    3.54    1.74
   4  -3  15    3.91    1.47
   4  -3  15    3.14    1.78
   4  -2 -14    3.11    1.65
   4  -2 -13    8.13    1.85
   4  -2 -13    7.99    1.66
   4  -2 -12   -0.22    1.36
   4  -2 -12    0.24    1.10
   4  -2 -11    2.02    1.42
   4  -2 -10    7.77    1.52
   4  -2 -10    8.40    0.68
   4  -2  -9   20.75    2.06
   4  -2  -9   20.19    1.05
   4  -2  -8    2.50    1.10
   4  -2  -8    1.70    0.51
   4  -2  -7   13.55    1.54
   4  -2  -7   18.47    1.72
   4  -2  -7   16.95    1.06
   4  -2  -6    1.35    0.91
   4  -2  -6    1.77    0.76
   4  -2  -6    3.76    1.11
   4  -2  -6    2.03    0.61
   4  -2  -5   29.05    1.82
   4  -2  -5   26.28    1.63
   4  -2  -5   28.83    1.80
   4  -2  -5   24.08    1.32
   4  -2  -4   74.16    2.57
   4  -2  -4   74.32    2.59
   4  -2  -4   71.26    2.44
   4  -2  -4   75.27    2.18
   4  -2  -3    2.18    0.60
   4  -2  -3    2.51    0.76
   4  -2  -3    2.60    0.75
   4  -2  -3    2.10    0.65
   4  -2  -2    2.74    0.70
   4  -2  -2    3.16    0.71
   4  -2  -2    2.20    0.67
   4  -2  -1    0.00    0.68
  -4   2   1   -0.91    0.81
   4  -2  -1   -0.26    0.61
   4  -2  -1    0.92    0.66
   4  -2   0   33.29    1.56
  -4   2   0   32.94    1.62
  -4   2   0   32.91    1.51
   4  -2   0   34.49    1.46
   4  -2   0   33.98    1.59
   4  -2   1    4.86    0.84
   4  -2   1    4.27    0.76
  -4   2  -1    4.97    0.81
   4  -2   1    4.34    0.77
  -4   2  -1    5.83    0.95
   4  -2   2    9.51    1.01
  -4   2  -2    8.62    1.00
  -4   2  -2    9.34    1.02
   4  -2   2    7.39    0.89
   4  -2   3   23.66    1.40
  -4   2  -3   25.72    1.50
   4  -2   3   23.20    1.35
  -4   2  -3   27.23    1.42
   4  -2   4   40.52    1.81
   4  -2   4   40.38    1.80
  -4   2  -4   38.48    1.75
   4  -2   4   36.17    1.71
  -4   2  -4   38.08    1.69
  -4   2  -5   57.15    2.17
   4  -2   5   58.72    2.27
   4  -2   5   56.07    2.18
  -4   2  -5   58.49    2.20
   4  -2   5   57.10    2.21
  -4   2  -6   58.82    2.33
   4  -2   6   51.62    2.33
   4  -2   6   54.14    2.27
   4  -2   6   54.93    2.32
  -4   2  -6   55.84    2.23
  -4   2  -7    0.38    0.79
   4  -2   7    0.88    0.95
   4  -2   7    0.61    0.84
  -4   2  -7   -0.29    0.86
   4  -2   7    1.67    0.94
   4  -2   8   70.78    2.88
   4  -2   8   74.85    3.14
  -4   2  -8   67.86    2.70
  -4   2  -8   66.74    2.71
   4  -2   8   66.42    2.86
   4  -2   9   -1.05    1.06
   4  -2   9    1.52    1.16
   4  -2   9    1.59    0.98
  -4   2  -9    2.43    0.89
  -4   2  -9    1.38    0.96
  -4   2 -10    7.34    1.30
   4  -2  10    8.59    1.66
  -4   2 -10    9.43    1.55
   4  -2  10    8.31    1.37
   4  -2  11   55.36    3.38
  -4   2 -11   56.35    2.84
   4  -2  11   54.32    2.88
  -4   2 -11   56.41    2.98
   4  -2  12    0.34    1.46
  -4   2 -12    1.13    1.22
   4  -2  12    3.28    1.39
  -4   2 -12    3.05    1.23
   4  -2  13    2.58    1.68
   4  -2  13    2.44    1.34
  -4   2 -13    1.32    1.20
  -4   2 -13    0.99    1.27
   4  -2  14    2.62    1.64
   4  -2  15    5.24    1.66
   4  -2  15    6.82    1.41
   4  -2  16   10.19    1.65
   4  -1 -14    5.51    1.76
   4  -1 -13   11.18    1.86
  -4   1  13   14.08    2.78
   4  -1 -13   16.58    2.30
  -4   1  12   -0.36    1.68
  -4   1  12    1.23    0.42
   4  -1 -12   -0.17    1.33
   4  -1 -12    1.37    1.10
  -4   1  11   45.01    3.48
   4  -1 -11   51.32    3.18
   4  -1 -11   53.16    3.00
  -4   1  11   52.95    1.60
  -4   1  10   -0.16    1.46
  -4   1  10    0.83    0.52
   4  -1 -10    0.28    1.21
   4  -1 -10    0.50    0.51
  -4   1   9    8.53    0.85
  -4   1   9    5.03    1.58
   4  -1  -9    4.79    1.36
   4  -1  -9    7.81    0.81
  -4   1   8    7.44    0.77
  -4   1   8    7.10    1.48
   4  -1  -8    6.16    1.35
   4  -1  -8    7.72    0.88
  -4   1   7   40.68    1.57
   4  -1  -7   38.59    1.62
   4  -1  -6    8.63    1.24
  -4   1   6    8.04    0.81
   4  -1  -6    7.14    0.78
   4  -1  -6    7.90    1.26
  -4   1   5    5.64    0.75
   4  -1  -5    4.96    0.95
   4  -1  -5    5.23    0.75
   4  -1  -5    7.45    1.22
   4  -1  -4  537.08    6.02
  -4   1   4  555.24    5.40
   4  -1  -4  545.57    7.12
   4  -1  -4  552.35    6.89
   4  -1  -4  559.88    5.78
   4  -1  -3   86.74    2.30
  -4   1   3   87.61    2.25
   4  -1  -3   89.51    2.73
   4  -1  -3   93.90    2.44
   4  -1  -3   88.68    2.76
   4  -1  -2    3.38    0.72
  -4   1   2    2.84    0.75
   4  -1  -2    4.18    0.87
   4  -1  -2    4.15    0.83
   4  -1  -2    3.18    0.83
   4  -1  -1    0.74    0.72
  -4   1   1    0.56    0.78
   4  -1  -1    0.82    0.72
  -4   1   1    1.29    0.81
   4  -1  -1    0.48    0.76
   4  -1  -1    0.72    0.64
   4  -1   0    1.32    0.82
  -4   1   0    1.10    0.73
  -4   1   0    1.76    0.82
   4  -1   0    0.18    0.70
   4  -1   0    0.90    0.78
   4  -1   1   -1.04    0.74
   4  -1   1    0.05    0.73
  -4   1  -1   -0.46    0.72
   4  -1   1   -0.32    0.74
  -4   1  -1   -0.08    0.75
   4  -1   2   42.74    1.76
  -4   1  -2   40.77    1.69
   4  -1   2   40.51    1.63
   4  -1   2   42.55    1.68
  -4   1  -2   44.58    1.71
   4  -1   3   84.59    2.34
   4  -1   3   79.90    2.35
  -4   1  -3   89.84    2.50
   4  -1   3   79.76    2.26
  -4   1  -3   83.86    2.32
   4  -1   3   83.48    2.00
   4  -1   4    7.40    1.01
   4  -1   4    7.33    1.01
  -4   1  -4    6.82    0.90
  -4   1  -4    6.08    0.93
   4  -1   4    7.01    0.92
   4  -1   4    6.44    1.00
   4  -1   5   91.38    2.56
   4  -1   5   94.74    2.65
  -4   1  -5   88.22    2.54
   4  -1   5   97.65    2.74
  -4   1  -5   92.88    2.65
  -4   1  -6    4.09    0.91
   4  -1   6    3.02    0.79
   4  -1   6    3.13    0.98
  -4   1  -6    2.26    0.78
   4  -1   6    5.82    1.04
   4  -1   7    7.29    1.18
  -4   1  -7    5.93    1.00
   4  -1   7    6.26    0.98
  -4   1  -7    8.29    1.15
   4  -1   7    5.24    1.07
   4  -1   8   18.22    1.57
   4  -1   8   18.99    1.73
  -4   1  -8   16.11    1.40
  -4   1  -8   18.05    1.49
   4  -1   8   18.32    1.61
   4  -1   9   58.12    2.62
  -4   1  -9   63.81    2.61
  -4   1  -9   56.13    2.60
   4  -1   9   60.82    2.85
   4  -1   9   53.73    2.79
   4  -1  10    0.80    1.22
  -4   1 -10    0.50    1.04
  -4   1 -10   -0.62    1.04
   4  -1  10    0.65    1.14
   4  -1  10    1.52    1.10
   4  -1  11   44.32    2.99
  -4   1 -11   48.57    2.57
   4  -1  11   44.29    2.64
  -4   1 -11   38.47    2.51
   4  -1  12    5.76    1.74
   4  -1  12    3.19    1.25
  -4   1 -12    2.27    1.02
  -4   1 -12    1.19    1.25
  -4   1 -13   33.16    2.64
  -4   1 -13   35.23    2.42
   4  -1  13   33.36    2.98
   4  -1  13   33.00    2.71
   4  -1  14    6.79    1.24
   4  -1  14    7.54    1.53
   4  -1  15    3.99    1.11
   4  -1  15    6.84    1.85
   4  -1  15    3.00    1.10
   4  -1  16    0.62    1.00
   4  -1  16    1.74    1.09
   4   0 -14    1.85    1.69
  -4   0  13    0.60    0.58
   4   0 -13    0.60    1.51
  -4   0  12   -0.21    1.61
  -4   0  12    0.05    0.64
   4   0 -12    0.36    1.24
   4   0 -12    2.50    1.44
  -4   0  11    1.80    0.68
  -4   0  11    0.77    1.55
   4   0 -11   -0.50    1.30
   4   0 -11    3.00    1.34
  -4   0  10    4.28    0.83
  -4   0  10    4.26    1.66
   4   0 -10    5.79    0.86
  -4   0   9   22.45    2.27
   4   0  -9   19.57    1.88
   4   0  -9   22.71    1.35
  -4   0   9   19.41    1.31
  -4   0   8   30.42    2.45
   4   0  -8   27.22    1.42
   4   0  -8   31.63    2.15
  -4   0   8   26.33    1.46
  -4   0   7   -0.17    0.66
  -4   0   7   -0.37    1.11
   4   0  -7   -0.16    0.60
   4   0  -7   -0.49    0.92
  -4   0   6   28.87    2.00
   4   0  -6   28.80    1.75
   4   0  -6   29.89    1.50
  -4   0   6   28.61    1.46
  -4   0   5    7.45    1.14
   4   0  -5    9.22    1.08
   4   0  -5    9.59    1.30
   4   0  -5    9.75    0.98
  -4   0   5   10.21    0.97
  -4   0   4  875.12    7.38
  -4   0   4  876.63    8.15
   4   0  -4  896.31    9.34
   4   0  -4  878.80    7.50
  -4   0   3  143.75    2.99
   4   0  -3  145.81    2.66
   4   0  -3  143.56    3.05
   4   0  -3  141.74    3.48
   4   0  -3  145.02    3.59
   4   0  -2  130.09    2.13
   4   0  -2  130.68    3.19
  -4   0   2  122.73    2.73
   4   0  -2  126.69    2.84
   4   0  -2  119.48    3.06
   4   0  -1    3.42    0.44
   4   0  -1    4.19    0.90
  -4   0   1    4.32    0.84
   4   0  -1    3.79    0.87
   4   0  -1    2.14    0.85
  -4   0   1    3.47    0.96
  -4   0   0   92.24    2.32
  -4   0   0   87.86    2.54
   4   0   0   85.35    2.38
  -4   0   0   88.69    2.46
   4   0   0   91.35    2.42
   4   0   0   86.64    2.35
   4   0   1   13.11    1.19
  -4   0  -1   14.17    1.09
  -4   0  -1   13.96    1.17
   4   0   1   15.39    1.15
  -4   0  -1   13.89    1.11
   4   0   1   15.94    1.19
   4   0   2  110.12    2.72
   4   0   2  106.82    1.54
  -4   0  -2  110.00    2.60
  -4   0  -2  104.23    2.58
   4   0   2  106.12    2.51
   4   0   2  103.63    2.48
  -4   0  -3    1.47    0.85
   4   0   3    0.49    0.73
   4   0   3    0.45    0.52
   4   0   3    0.56    0.62
   4   0   3    0.08    0.74
  -4   0  -3    0.06    0.80
   4   0   4   86.66    2.44
   4   0   4   85.45    2.35
  -4   0  -4   84.79    2.40
   4   0   4   78.92    2.06
   4   0   4   82.81    2.37
  -4   0  -4   90.09    2.43
  -4   0  -5   -0.12    0.71
  -4   0  -5   -1.11    0.74
   4   0   5   -0.20    0.73
   4   0   5    0.15    0.67
   4   0   5    1.17    0.76
   4   0   5   -0.45    0.80
  -4   0  -5    0.80    0.80
   4   0   6  276.63    4.59
  -4   0  -6  268.47    4.59
  -4   0  -6  262.78    4.36
   4   0   6  276.89    4.42
   4   0   6  280.75    4.53
   4   0   6  274.65    4.69
  -4   0  -6  277.35    4.35
  -4   0  -7    6.88    0.99
   4   0   7    6.20    0.94
   4   0   7    4.37    0.95
  -4   0  -7    6.29    1.09
   4   0   7    4.17    0.89
   4   0   7    4.80    0.97
  -4   0  -7    5.32    0.97
   4   0   8  171.95    4.32
  -4   0  -8  170.37    3.83
  -4   0  -8  169.99    4.12
   4   0   8  175.35    3.72
   4   0   8  176.05    4.34
  -4   0  -8  172.79    4.07
   4   0   8  176.10    3.95
   4   0   9    7.66    1.30
   4   0   9    5.65    1.16
  -4   0  -9    7.56    1.33
   4   0   9    8.81    1.06
  -4   0  -9    7.48    1.27
  -4   0  -9    6.06    0.98
   4   0   9    7.59    1.16
   4   0  10    3.08    1.19
   4   0  10    2.24    1.30
   4   0  10    2.57    0.84
  -4   0 -10    2.56    1.14
  -4   0 -10    1.65    1.09
   4   0  10    4.38    1.21
  -4   0 -10    2.78    1.01
  -4   0 -11   14.56    1.55
   4   0  11   10.95    1.24
  -4   0 -11    8.62    1.68
  -4   0 -11    7.32    1.44
   4   0  11   11.60    1.93
   4   0  11    8.83    1.35
   4   0  11   14.00    1.74
   4   0  12   80.20    4.07
  -4   0 -12   72.65    3.64
   4   0  12   79.31    2.82
  -4   0 -12   83.12    3.24
   4   0  12   73.35    3.25
  -4   0 -12   81.39    3.56
   4   0  13   22.00    2.69
  -4   0 -13   19.63    2.25
   4   0  13   23.03    1.68
  -4   0 -13   19.72    1.87
  -4   0 -13   21.14    2.23
   4   0  13   19.62    2.03
   4   0  14    8.65    2.14
  -4   0 -14   10.48    1.59
  -4   0 -14    7.25    2.03
   4   0  14    7.68    1.24
   4   0  14    5.02    1.50
   4   0  15    3.94    1.52
   4   0  15    5.13    1.09
  -4   0 -15    6.68    2.06
   4   0  16    3.55    1.00
   4   0  16    5.94    1.80
   4   0  16    3.60    1.07
  -4   0 -16    4.79    2.03
   4   0  17    1.70    1.04
   4   1 -14    6.57    2.00
  -4  -1  13   -0.17    0.71
   4   1 -13    1.44    1.70
   4   1 -12    2.47    1.24
  -4  -1  12    4.10    0.97
  -4  -1  12    4.53    2.03
   4   1 -12    5.52    1.59
   4   1 -11   -1.00    1.27
  -4  -1  11    0.03    0.76
  -4  -1  11    1.57    1.62
   4   1 -11    1.10    1.35
  -4  -1  10   -0.13    0.73
  -4  -1  10    0.12    1.43
   4   1 -10    0.03    1.06
   4   1 -10    0.33    1.25
   4   1 -10   -0.09    0.69
  -4  -1   9    0.93    0.77
  -4  -1   9    3.60    1.47
   4   1  -9    1.21    1.33
   4   1  -9    2.00    0.74
   4   1  -8    8.55    1.43
  -4  -1   8    7.48    1.47
   4   1  -8    8.21    1.01
  -4  -1   8    8.19    1.02
  -4  -1   7   19.76    1.82
   4   1  -7   20.26    1.72
   4   1  -7   24.60    1.46
  -4  -1   7   20.13    1.37
  -4  -1   6    2.60    0.81
   4   1  -6    1.62    0.81
  -4  -1   6    1.17    0.94
   4   1  -6    0.51    0.65
  -4  -1   5    9.14    1.13
   4   1  -5    6.12    1.22
   4   1  -5    8.17    0.98
   4   1  -5    8.28    1.09
  -4  -1   5    9.36    1.01
  -4  -1   4  100.11    2.71
   4   1  -4   95.28    2.49
  -4  -1   4   94.99    2.62
   4   1  -4   94.34    2.60
   4   1  -4   97.39    3.24
  -4  -1   3  658.19    6.02
   4   1  -3  638.39    5.42
   4   1  -3  636.24    6.61
   4   1  -3  638.03    7.69
  -4  -1   3  645.13    6.46
  -4  -1   2   86.58    1.92
   4   1  -2   87.75    1.74
   4   1  -2   82.43    2.69
   4   1  -2   82.82    2.45
  -4  -1   2   83.71    2.39
  -4  -1   1   17.44    0.77
   4   1  -1   16.73    1.37
  -4  -1   1   20.50    1.50
   4   1  -1   19.72    1.42
   4   1  -1   18.89    1.27
  -4  -1   1   22.22    1.38
  -4  -1   0   69.31    2.21
   4   1   0   70.14    2.30
  -4  -1   0   72.33    2.33
   4   1   0   77.52    2.30
   4   1   0   71.39    2.20
   4   1   1    2.96    0.87
  -4  -1  -1    2.45    0.74
  -4  -1  -1    3.30    0.83
   4   1   1    2.98    0.79
  -4  -1  -1    4.24    0.85
   4   1   1    2.08    0.76
  -4  -1  -2   82.24    2.29
   4   1   2   79.87    2.16
  -4  -1  -2   84.11    2.34
  -4  -1  -2   84.53    2.36
   4   1   2   82.72    2.36
   4   1   2   83.72    2.30
  -4  -1  -3    0.83    0.69
   4   1   3    0.90    0.52
   4   1   3    1.56    0.65
  -4  -1  -3    1.42    0.80
  -4  -1  -3    0.97    0.45
   4   1   3    0.38    0.83
   4   1   3    1.14    0.70
  -4  -1  -3    0.96    0.73
   4   1   4 1764.99    9.66
   4   1   4 1712.99   10.56
   4   1   4 1756.07    9.09
  -4  -1  -4 1738.43    8.30
  -4  -1  -4 1755.76   10.09
   4   1   4 1713.06   10.37
  -4  -1  -4 1733.46    9.97
  -4  -1  -5   -0.46    0.75
   4   1   5   -0.29    0.72
   4   1   5    0.23    0.70
  -4  -1  -5   -0.12    0.64
   4   1   5    1.83    0.79
  -4  -1  -5   -0.27    0.75
   4   1   5   -0.14    0.91
   4   1   6   16.49    1.38
   4   1   6   16.49    1.23
   4   1   6   14.65    1.17
  -4  -1  -6   15.96    1.35
  -4  -1  -6   14.14    1.19
  -4  -1  -6   15.35    1.18
   4   1   6   15.61    1.40
   4   1   7    2.17    0.95
   4   1   7    4.03    0.82
   4   1   7    2.88    0.73
  -4  -1  -7    4.91    1.00
  -4  -1  -7    2.91    0.76
   4   1   7    2.85    0.91
  -4  -1  -7    2.86    0.92
   4   1   8    2.65    1.06
   4   1   8    1.66    0.70
  -4  -1  -8    1.88    0.92
  -4  -1  -8    0.88    0.70
   4   1   8    1.84    0.81
  -4  -1  -8    2.63    0.84
   4   1   8    1.60    0.84
   4   1   9   11.56    1.29
   4   1   9   10.79    1.64
  -4  -1  -9   11.61    1.24
   4   1   9   10.36    1.09
  -4  -1  -9    8.81    1.34
  -4  -1  -9    7.66    1.25
   4   1   9    8.49    1.34
   4   1  10    5.02    1.17
   4   1  10    5.34    0.89
  -4  -1 -10    5.18    1.10
   4   1  10    4.40    1.32
  -4  -1 -10    5.42    1.33
   4   1  10    4.78    1.11
  -4  -1 -10    6.15    1.36
   4   1  11    0.26    1.06
  -4  -1 -11    0.80    0.89
   4   1  11   -0.77    1.26
   4   1  11    1.11    0.79
  -4  -1 -11    1.01    1.37
   4   1  11    1.35    1.00
  -4  -1 -11    0.95    0.99
   4   1  12    0.41    1.07
   4   1  12    1.52    1.46
   4   1  12    0.11    0.66
  -4  -1 -12    1.75    1.39
  -4  -1 -12   -0.40    1.12
  -4  -1 -12   -0.04    0.92
   4   1  13    4.97    1.80
   4   1  13    4.67    0.91
  -4  -1 -13    7.00    1.62
   4   1  13    6.17    1.32
  -4  -1 -13    5.72    1.26
  -4  -1 -13    8.65    1.66
   4   1  14   -1.93    1.13
   4   1  14    1.16    0.87
  -4  -1 -14    1.40    1.13
   4   1  14    0.82    1.86
  -4  -1 -14   -2.08    1.51
  -4  -1 -14    0.68    1.31
   4   1  15   10.09    1.23
  -4  -1 -15   10.71    2.26
   4   1  15   11.71    1.94
  -4  -1 -15    9.13    1.50
   4   1  16   -0.22    0.81
  -4  -1 -16   -2.93    2.17
   4   1  16    0.96    0.79
   4   1  16   -0.06    1.38
  -4  -1 -17   -1.03    1.78
   4   1  17   -0.21    0.89
  -4  -2  13    1.35    0.93
  -4  -2  12   -2.41    1.83
  -4  -2  12   -0.16    0.85
   4   2 -11   10.96    1.83
  -4  -2  11   10.61    2.14
  -4  -2  11    8.11    1.26
  -4  -2  10    4.21    1.56
   4   2 -10    4.98    1.29
   4   2 -10    2.70    1.40
  -4  -2  10    2.70    0.95
   4   2  -9   24.81    1.66
  -4  -2   9   20.15    1.63
  -4  -2   9   24.93    2.33
  -4  -2   8    2.04    1.26
   4   2  -8    0.68    1.15
   4   2  -8    3.29    0.92
  -4  -2   8    2.11    0.90
   4   2  -7    0.77    0.78
  -4  -2   7   -0.30    1.10
   4   2  -7   -0.04    0.96
  -4  -2   7    0.25    0.74
  -4  -2   6    3.56    1.08
   4   2  -6    4.25    1.09
   4   2  -6    4.02    0.88
  -4  -2   6    2.89    0.88
  -4  -2   5    3.12    0.88
   4   2  -5    3.33    0.84
  -4  -2   5    4.59    0.95
   4   2  -4    5.55    0.94
   4   2  -4    3.53    1.03
  -4  -2   4    5.37    0.88
  -4  -2   4    4.09    0.91
  -4  -2   3 1206.38    8.20
  -4  -2   3 1202.59    9.39
  -4  -2   2    0.51    0.74
  -4  -2   2    1.19    0.58
   4   2  -2    1.18    0.85
   4   2  -2   -0.13    0.92
  -4  -2   1    1.57    0.88
  -4  -2   1    3.27    0.55
  -4  -2   1    3.03    0.92
   4   2  -1    2.54    0.94
   4   2  -1    1.88    0.90
   4   2   0   11.00    1.11
  -4  -2   0   11.75    0.56
  -4  -2   0   11.02    1.10
   4   2   0   14.38    1.30
   4   2   0   13.11    1.17
  -4  -2   0   11.25    1.20
  -4  -2  -1    1.32    0.82
   4   2   1    2.23    0.84
   4   2   1    3.50    0.94
  -4  -2  -1    0.63    0.71
   4   2   1    1.55    0.70
  -4  -2  -2    9.77    0.58
  -4  -2  -2    9.25    1.03
   4   2   2   12.13    1.09
  -4  -2  -2    9.33    1.01
   4   2   2    8.09    1.02
   4   2   2   12.24    1.10
  -4  -2  -2   10.68    1.13
  -4  -2  -3  365.99    4.83
  -4  -2  -3  362.06    3.43
   4   2   3  353.94    4.76
  -4  -2  -3  363.05    4.81
  -4  -2  -3  365.69    4.67
   4   2   3  363.91    4.39
   4   2   3  362.72    4.56
  -4  -2  -4    5.74    0.76
   4   2   4    5.63    1.00
  -4  -2  -4    5.33    0.92
  -4  -2  -4    5.67    0.95
  -4  -2  -4    4.46    0.79
   4   2   4    4.96    0.81
   4   2   4    5.78    0.95
   4   2   5  107.89    2.87
  -4  -2  -5  110.89    2.55
   4   2   5  106.14    2.45
  -4  -2  -5  105.41    2.58
   4   2   5  108.60    2.80
  -4  -2  -5  109.84    2.74
  -4  -2  -5  106.55    2.53
   4   2   5  110.53    2.70
  -4  -2  -6   -0.46    0.66
   4   2   6   -0.25    0.69
   4   2   6    0.22    0.86
  -4  -2  -6    0.80    0.88
   4   2   6    0.18    0.64
   4   2   6    2.15    0.97
  -4  -2  -6   -0.55    0.86
  -4  -2  -7   28.14    1.74
  -4  -2  -7   26.16    1.39
   4   2   7   28.29    1.48
  -4  -2  -7   26.51    1.61
   4   2   7   27.88    1.88
   4   2   7   28.32    1.72
   4   2   7   26.41    1.52
   4   2   8    9.59    1.04
   4   2   8   11.85    1.46
  -4  -2  -8   10.16    1.28
   4   2   8   10.16    1.05
  -4  -2  -8    9.62    1.12
   4   2   8    8.46    1.16
  -4  -2  -8   10.59    1.03
   4   2   9    3.46    1.10
   4   2   9    5.87    0.85
  -4  -2  -9    4.17    1.16
  -4  -2  -9    6.14    0.84
  -4  -2  -9    5.55    1.01
   4   2   9    6.78    1.03
   4   2   9    6.08    1.19
   4   2  10    1.02    0.92
  -4  -2 -10    2.32    0.99
   4   2  10    1.24    1.18
   4   2  10    2.52    0.79
   4   2  10    2.21    0.91
  -4  -2 -10    2.92    1.26
  -4  -2 -10    2.79    0.85
   4   2  11   -0.04    0.88
   4   2  11   -1.21    1.37
   4   2  11    0.18    0.72
  -4  -2 -11   -0.45    0.79
  -4  -2 -11   -1.56    1.19
   4   2  11    0.48    1.14
  -4  -2 -11    0.45    1.09
   4   2  12    0.14    1.22
   4   2  12    0.68    0.90
   4   2  12    3.65    1.50
   4   2  12    0.59    0.68
  -4  -2 -12    1.02    1.34
  -4  -2 -12    0.32    0.90
  -4  -2 -12    0.73    1.20
  -4  -2 -13    5.94    1.52
   4   2  13    5.80    1.90
   4   2  13    4.44    0.92
  -4  -2 -13    4.57    1.61
   4   2  13    4.73    1.21
  -4  -2 -13    2.86    0.95
   4   2  14    0.17    1.10
   4   2  14    1.96    1.87
   4   2  14    0.55    0.75
  -4  -2 -14    0.67    1.44
  -4  -2 -14   -0.43    0.91
  -4  -2 -14    2.13    1.27
   4   2  15   -0.09    0.70
   4   2  15    1.82    1.31
  -4  -2 -15   -0.64    1.56
  -4  -2 -15   -0.14    1.05
  -4  -2 -16    1.55    1.19
   4   2  16   -0.13    0.72
  -4  -2 -16    0.11    1.69
   4   2  16    0.73    0.73
  -4  -2 -17    7.27    2.36
  -4  -3  13   16.13    1.71
  -4  -3  12    2.00    1.14
  -4  -3  11    1.51    1.75
  -4  -3  11    3.30    1.17
   4   3 -10    7.53    1.70
  -4  -3  10    6.46    1.84
  -4  -3  10    5.15    1.20
   4   3  -9   33.45    1.98
  -4  -3   9   36.88    2.78
   4   3  -9   35.68    2.58
  -4  -3   9   35.16    2.21
   4   3  -8    0.02    0.82
  -4  -3   8    0.37    1.21
  -4  -3   8    0.46    0.87
  -4  -3   7   -0.13    1.07
   4   3  -7   -0.31    0.79
  -4  -3   7   -0.35    0.89
  -4  -3   6    0.12    0.90
   4   3  -6    0.75    0.76
  -4  -3   6    0.95    0.95
  -4  -3   5   17.68    1.49
   4   3  -5   15.77    1.40
  -4  -3   5   18.61    1.55
  -4  -3   4    0.31    0.79
  -4  -3   4    1.12    0.77
   4   3  -4    0.12    0.99
   4   3  -4    0.39    0.72
  -4  -3   3  463.90    5.48
   4   3  -3  453.64    6.03
   4   3  -3  459.92    6.85
  -4  -3   3  470.57    6.33
  -4  -3   2  173.81    3.03
  -4  -3   2  168.95    3.78
   4   3  -2  175.35    3.74
   4   3  -2  173.57    4.00
  -4  -3   1  284.51    3.51
   4   3  -1  281.24    4.69
  -4  -3   1  285.41    4.68
   4   3  -1  285.79    4.63
   4   3   0   24.39    1.53
   4   3   0   24.71    1.50
  -4  -3   0   25.99    1.65
   4   3   0   25.65    1.59
  -4  -3   0   23.61    1.50
  -4  -3  -1    0.44    0.74
  -4  -3  -1    1.54    0.88
   4   3   1   -0.64    0.78
   4   3   1    1.30    0.81
   4   3   1    1.44    0.81
  -4  -3  -2  202.98    3.58
   4   3   2  194.65    3.42
   4   3   2  206.65    3.61
   4   3   2  196.54    3.74
  -4  -3  -2  197.46    3.74
  -4  -3  -3   28.10    1.37
  -4  -3  -3   26.94    1.49
   4   3   3   27.00    1.49
   4   3   3   24.66    1.26
  -4  -3  -3   27.05    1.44
   4   3   3   25.66    1.53
  -4  -3  -3   24.55    1.44
  -4  -3  -4   10.39    1.00
   4   3   4    9.12    1.08
  -4  -3  -4    9.78    1.13
  -4  -3  -4   11.68    1.12
   4   3   4   10.91    0.99
   4   3   4    8.70    1.06
  -4  -3  -4    7.83    0.96
   4   3   5    0.44    0.71
   4   3   5    0.12    0.71
  -4  -3  -5   -0.11    0.83
  -4  -3  -5   -0.54    0.71
   4   3   5    0.21    0.59
  -4  -3  -5    1.92    0.75
  -4  -3  -5    0.83    0.63
  -4  -3  -6    1.15    0.62
   4   3   6    2.30    0.71
  -4  -3  -6    3.21    0.96
  -4  -3  -6    3.36    0.78
  -4  -3  -6    1.99    0.84
   4   3   6    1.99    0.66
   4   3   6    1.55    0.81
  -4  -3  -7   18.49    1.19
  -4  -3  -7   17.01    1.50
  -4  -3  -7   16.18    1.28
   4   3   7   16.73    1.12
  -4  -3  -7   16.32    1.10
   4   3   7   17.15    1.40
   4   3   7   16.24    1.16
   4   3   8   11.62    1.54
  -4  -3  -8   11.07    0.98
  -4  -3  -8   10.47    1.30
   4   3   8   13.12    1.08
  -4  -3  -8   12.26    1.32
   4   3   8    9.82    1.16
   4   3   8   11.43    1.01
   4   3   9  152.96    4.75
  -4  -3  -9  155.38    3.93
  -4  -3  -9  159.78    4.29
  -4  -3  -9  157.11    3.31
   4   3   9  155.65    3.41
   4   3   9  161.66    4.17
   4   3   9  150.92    3.24
   4   3  10   10.77    1.79
   4   3  10   11.72    1.22
  -4  -3 -10   12.64    1.49
  -4  -3 -10    9.85    1.06
  -4  -3 -10    9.28    1.60
   4   3  10    8.80    1.01
   4   3  10   12.91    1.57
   4   3  11   27.62    2.68
  -4  -3 -11   23.18    1.62
  -4  -3 -11   21.96    2.08
   4   3  11   22.86    1.70
  -4  -3 -11   22.82    1.80
   4   3  11   23.15    1.41
   4   3  11   22.98    2.08
   4   3  12   16.02    2.32
  -4  -3 -12   14.00    1.36
  -4  -3 -12   14.39    2.00
   4   3  12   13.94    1.48
  -4  -3 -12   13.31    1.63
   4   3  12   12.27    1.10
   4   3  12   15.02    1.90
   4   3  13   21.94    2.71
  -4  -3 -13   20.91    2.42
  -4  -3 -13   19.59    1.68
   4   3  13   18.10    1.76
  -4  -3 -13   19.88    1.93
   4   3  13   19.86    1.38
   4   3  14    3.60    0.80
   4   3  14    5.08    1.97
   4   3  14    5.26    1.34
  -4  -3 -14    2.43    1.62
  -4  -3 -14    3.02    1.26
  -4  -3 -14    5.67    1.17
   4   3  15    2.48    0.72
   4   3  15    4.45    1.39
  -4  -3 -15    5.46    1.23
  -4  -3 -16    6.78    2.18
   4   3  16    5.50    0.84
  -4  -3 -16    5.45    1.28
   4   3  16    4.32    0.85
  -4  -3 -17    0.96    1.96
  -4  -4  13   -1.72    1.30
  -4  -4  12   17.68    1.98
  -4  -4  11    1.65    1.73
  -4  -4  11    1.18    1.06
  -4  -4  10   21.85    2.42
   4   4 -10   23.88    2.29
  -4  -4  10   25.14    2.13
  -4  -4   9    6.96    1.79
   4   4  -9    2.78    1.23
  -4  -4   9    5.22    1.26
  -4  -4   8    3.72    1.35
   4   4  -8    5.79    1.18
   4   4  -8    7.60    1.50
  -4  -4   8    5.37    1.23
  -4  -4   7   69.31    3.22
   4   4  -7   68.75    2.80
  -4  -4   7   71.79    3.10
  -4  -4   6   10.15    1.46
   4   4  -6    9.43    1.30
  -4  -4   6   13.40    1.58
  -4  -4   5   -0.01    0.98
  -4  -4   5    0.71    0.98
   4   4  -5   -0.01    0.79
  -4  -4   4    0.98    0.84
   4   4  -4   -0.52    1.06
   4   4  -4    2.65    0.93
  -4  -4   4    1.22    0.84
  -4  -4   3   85.18    2.66
   4   4  -3   90.84    2.90
   4   4  -3   88.86    3.14
  -4  -4   3   88.19    3.01
   4   4  -2  850.28    8.87
  -4  -4   2  850.07    7.52
   4   4  -2  843.08    8.47
  -4  -4   2  841.62    8.77
   4   4  -1   30.04    1.74
   4   4  -1   31.05    1.76
  -4  -4   1   33.31    1.92
  -4  -4   0    1.26    0.81
   4   4   0    1.06    0.85
   4   4   0   -0.01    0.87
  -4  -4   0    2.03    0.99
   4   4   1    7.43    1.05
   4   4   1    8.24    1.09
  -4  -4  -1   10.33    1.12
   4   4   1    8.16    1.09
  -4  -4  -1   10.07    1.24
   4   4   2   79.51    2.32
   4   4   2   82.38    2.56
  -4  -4  -2   77.95    2.36
  -4  -4  -2   80.85    2.59
   4   4   2   85.26    2.47
   4   4   3   17.95    1.28
  -4  -4  -3   16.89    1.23
   4   4   3   15.64    1.06
   4   4   3   17.53    1.40
  -4  -4  -3   16.15    1.30
  -4  -4  -4  267.99    3.95
  -4  -4  -4  272.80    4.20
   4   4   4  266.05    3.65
   4   4   4  272.55    4.42
   4   4   4  263.32    4.10
  -4  -4  -4  273.89    4.41
  -4  -4  -5    0.64    0.72
  -4  -4  -5    0.59    0.98
   4   4   5    0.29    0.54
  -4  -4  -5    0.96    0.68
  -4  -4  -5   -0.30    0.67
   4   4   5   -0.27    0.77
   4   4   5   -0.16    0.72
  -4  -4  -6   27.87    1.84
   4   4   6   29.05    1.27
  -4  -4  -6   27.63    1.33
   4   4   6   30.97    1.60
  -4  -4  -6   32.24    1.63
  -4  -4  -6   32.49    1.59
   4   4   6   27.47    1.59
  -4  -4  -7    2.86    1.15
  -4  -4  -7    2.44    0.73
  -4  -4  -7    1.65    0.71
   4   4   7    3.20    0.89
   4   4   7    2.85    0.65
   4   4   7    2.18    0.75
  -4  -4  -7    2.66    0.64
  -4  -4  -8   74.28    3.05
  -4  -4  -8   71.46    2.13
  -4  -4  -8   72.96    2.15
  -4  -4  -8   68.98    2.50
   4   4   8   71.15    2.04
   4   4   8   65.71    2.19
   4   4   8   64.97    2.51
  -4  -4  -9   14.67    1.71
  -4  -4  -9   17.73    1.49
  -4  -4  -9   16.83    1.16
   4   4   9   18.44    1.28
   4   4   9   18.43    1.21
   4   4   9   18.14    1.56
   4   4  10    8.52    0.96
   4   4  10    8.29    0.98
  -4  -4 -10    8.65    1.63
  -4  -4 -10    7.26    1.17
  -4  -4 -10    8.92    0.99
   4   4  10    8.99    1.35
  -4  -4 -11  136.35    4.62
   4   4  11  139.18    4.29
   4   4  11  133.13    3.41
  -4  -4 -11  137.73    4.04
   4   4  11  134.41    3.06
  -4  -4 -11  133.14    3.23
   4   4  12    3.16    1.34
   4   4  12    4.39    1.00
  -4  -4 -12    5.03    1.50
  -4  -4 -12    3.85    0.88
  -4  -4 -12    4.19    1.27
   4   4  12    3.62    0.76
  -4  -4 -13    5.37    1.07
  -4  -4 -13    9.05    1.91
  -4  -4 -13    6.05    1.44
   4   4  13    6.09    1.17
   4   4  13    4.53    0.78
  -4  -4 -14    1.16    1.68
  -4  -4 -14    3.41    1.06
   4   4  14    1.69    0.93
  -4  -4 -14    5.25    1.51
   4   4  14    3.30    0.72
   4   4  15    7.17    1.39
   4   4  15    5.18    0.80
  -4  -4 -15    4.94    1.82
  -4  -4 -15    4.78    1.12
  -4  -4 -15    4.56    1.36
  -4  -4 -16   -0.49    1.69
   4   4  16    1.31    0.51
  -4  -4 -16    0.80    1.04
   4   4  16    0.38    0.49
  -4  -4 -17    4.12    2.12
  -4  -4 -17    0.71    1.01
  -4  -5  12    0.28    1.38
  -4  -5  11    8.18    1.55
  -4  -5  10   13.60    2.26
  -4  -5  10   14.23    1.86
   4   5  -9   -1.29    1.17
  -4  -5   9   -0.27    1.36
  -4  -5   9    0.54    1.26
   4   5  -8    3.37    1.23
  -4  -5   8    1.12    1.44
   4   5  -8    2.46    1.25
  -4  -5   8    1.33    1.20
  -4  -5   7   30.29    2.34
   4   5  -7   35.27    2.23
  -4  -5   7   30.49    2.25
   4   5  -7   31.68    2.47
  -4  -5   6    6.48    1.31
   4   5  -6    6.28    1.22
  -4  -5   6    5.29    1.38
  -4  -5   5    7.42    1.41
  -4  -5   5    7.31    1.35
   4   5  -5    9.38    1.30
   4   5  -5    7.49    1.47
  -4  -5   4    6.29    1.25
   4   5  -4    4.84    1.12
   4   5  -4    5.55    1.23
  -4  -5   4    6.83    1.22
   4   5  -3   25.01    1.78
   4   5  -3   28.36    1.98
  -4  -5   3   27.85    1.77
  -4  -5   3   30.47    2.03
   4   5  -2  351.63    5.79
  -4  -5   2  364.00    6.24
   4   5  -2  369.73    6.00
   4   5  -1  280.27    4.88
   4   5  -1  272.57    5.05
  -4  -5   1  286.53    5.38
   4   5   0   -0.44    0.92
   4   5   0    1.19    0.77
  -4  -5   0    0.46    0.93
   4   5   1   15.71    1.41
  -4  -5  -1   11.14    1.20
   4   5   1   12.13    1.17
  -4  -5  -1   17.12    1.44
  -4  -5  -2    0.19    0.68
   4   5   2   -0.02    0.72
   4   5   2    0.20    0.67
   4   5   2    0.78    0.73
  -4  -5  -2    0.03    0.88
  -4  -5  -3   26.83    1.63
  -4  -5  -3   26.82    1.45
   4   5   3   25.79    1.36
   4   5   3   22.15    1.45
   4   5   3   28.35    1.44
  -4  -5  -4   55.73    2.16
  -4  -5  -4   56.31    1.98
   4   5   4   53.24    2.12
   4   5   4   57.15    1.95
   4   5   4   53.81    1.69
  -4  -5  -5   -0.19    0.76
  -4  -5  -5    0.05    0.55
   4   5   5    0.42    0.74
  -4  -5  -5    0.64    0.70
   4   5   5   -0.52    0.78
   4   5   5   -0.38    0.51
  -4  -5  -6  105.31    3.55
   4   5   6  102.77    2.14
  -4  -5  -6  108.86    2.48
   4   5   6  108.19    2.86
  -4  -5  -6  110.97    2.82
   4   5   6  104.09    2.76
  -4  -5  -6  104.95    2.80
  -4  -5  -7   10.65    1.55
   4   5   7    9.49    1.06
   4   5   7    9.68    0.84
  -4  -5  -7   11.60    1.11
  -4  -5  -7   10.50    0.90
   4   5   7   10.63    1.17
  -4  -5  -7   12.32    1.06
  -4  -5  -8   32.58    2.25
  -4  -5  -8   27.98    1.48
   4   5   8   27.13    1.27
   4   5   8   25.78    1.48
  -4  -5  -8   29.29    1.67
   4   5   8   27.33    1.69
  -4  -5  -8   27.84    1.30
  -4  -5  -9   30.85    2.35
   4   5   9   28.83    1.52
  -4  -5  -9   27.86    1.45
  -4  -5  -9   28.08    1.38
  -4  -5  -9   28.24    1.75
   4   5   9   30.28    1.41
   4   5   9   29.98    1.96
   4   5  10   24.13    1.37
   4   5  10   26.61    1.47
  -4  -5 -10   27.12    1.84
  -4  -5 -10   25.31    1.38
   4   5  10   23.53    1.80
  -4  -5 -10   25.93    2.31
  -4  -5 -11   63.39    2.81
  -4  -5 -11   63.62    3.39
   4   5  11   65.85    2.29
   4   5  11   72.52    2.27
  -4  -5 -11   69.08    2.24
   4   5  11   67.26    2.98
   4   5  12    4.61    1.40
  -4  -5 -12    3.97    0.82
  -4  -5 -12    4.56    1.51
   4   5  12    6.08    0.99
  -4  -5 -12    1.72    1.04
   4   5  12    4.04    0.77
  -4  -5 -13    0.31    1.40
  -4  -5 -13    2.04    0.78
   4   5  13    1.72    0.66
  -4  -5 -13    2.70    1.17
   4   5  13    3.02    0.92
   4   5  14    5.25    1.14
  -4  -5 -14    4.02    1.76
  -4  -5 -14    3.00    0.85
   4   5  14    2.30    0.58
  -4  -5 -14    1.12    1.06
  -4  -5 -15    1.26    0.87
  -4  -5 -15    2.20    1.34
   4   5  15    2.65    0.56
  -4  -5 -16   -3.65    1.91
  -4  -5 -16    0.95    0.96
  -4  -5 -17    3.15    2.07
  -4  -5 -17    1.85    1.00
  -4  -6  12    1.68    1.37
  -4  -6  11   18.90    2.27
  -4  -6  10    0.65    1.28
  -4  -6   9    5.20    1.76
  -4  -6   9    4.35    1.27
  -4  -6   8    2.15    1.52
  -4  -6   8   -0.68    1.14
   4   6  -8    0.37    1.25
  -4  -6   7   -0.32    1.27
   4   6  -7    1.74    1.14
  -4  -6   7   -0.92    1.14
   4   6  -7   -1.15    1.28
  -4  -6   6    8.07    1.56
  -4  -6   6   12.25    1.73
   4   6  -6   12.73    1.56
   4   6  -6   13.87    1.75
  -4  -6   5   22.00    2.06
   4   6  -5   25.62    2.06
   4   6  -5   25.29    2.01
   4   6  -5   25.51    2.14
  -4  -6   5   22.97    2.00
  -4  -6   4   -0.91    1.09
   4   6  -4    0.39    0.88
   4   6  -4    1.06    1.10
  -4  -6   4    3.00    1.22
  -4  -6   3   30.08    2.14
  -4  -6   3   34.09    2.13
   4   6  -3   35.31    2.15
   4   6  -3   29.39    2.07
   4   6  -2    1.77    0.84
   4   6  -2    2.73    1.01
  -4  -6   2    1.01    1.02
   4   6  -1   13.45    1.32
   4   6  -1   12.59    1.34
  -4  -6   1   12.88    1.54
   4   6   0   -0.64    0.78
   4   6   0   -0.08    0.65
  -4  -6   0    0.47    0.89
   4   6   1   61.84    2.50
  -4  -6  -1   63.32    2.69
   4   6   1   61.01    2.18
   4   6   2    1.74    0.74
  -4  -6  -2    1.18    0.68
   4   6   2    1.94    0.74
   4   6   2    2.16    0.91
  -4  -6  -2    1.01    0.84
  -4  -6  -3  278.57    4.41
  -4  -6  -3  274.30    5.14
   4   6   3  287.58    4.17
   4   6   3  273.74    4.88
   4   6   3  288.18    4.19
   4   6   4    3.40    0.64
   4   6   4    3.67    0.85
   4   6   4    3.85    0.79
  -4  -6  -4    4.95    1.05
  -4  -6  -4    2.80    0.72
  -4  -6  -5  106.73    2.68
  -4  -6  -5  110.13    3.09
   4   6   5  111.86    2.26
   4   6   5  103.74    2.65
   4   6   5  111.94    3.07
   4   6   6   21.73    1.43
  -4  -6  -6   21.76    1.38
   4   6   6   19.07    1.33
  -4  -6  -6   17.80    1.43
   4   6   6   22.31    1.02
   4   6   7   58.79    1.60
  -4  -6  -7   62.45    1.85
  -4  -6  -7   62.75    2.23
  -4  -6  -7   57.67    3.07
   4   6   7   57.18    2.18
   4   6   7   59.08    2.20
  -4  -6  -7   57.98    2.18
  -4  -6  -8    5.55    0.91
   4   6   8    5.71    0.93
   4   6   8    6.24    0.67
  -4  -6  -8    5.04    0.74
  -4  -6  -8    7.00    1.54
   4   6   8    5.95    1.04
  -4  -6  -8    4.85    0.90
   4   6   9    0.24    0.50
  -4  -6  -9    2.37    1.55
  -4  -6  -9    0.12    0.64
   4   6   9   -0.03    0.85
  -4  -6  -9    1.15    0.56
  -4  -6  -9    1.52    0.87
   4   6   9    0.18    0.61
   4   6  10   -0.19    0.94
  -4  -6 -10    1.33    1.48
  -4  -6 -10    0.84    0.63
   4   6  10    0.51    0.54
   4   6  10    0.13    0.64
  -4  -6 -10    1.17    0.93
  -4  -6 -10   -0.07    0.54
   4   6  11    1.28    0.64
  -4  -6 -11    1.65    0.69
  -4  -6 -11    1.20    1.61
   4   6  11    0.91    0.59
   4   6  11    1.75    1.08
  -4  -6 -11    1.97    0.96
  -4  -6 -12   95.10    4.38
  -4  -6 -12   97.74    2.64
   4   6  12   98.96    2.47
   4   6  12   94.06    2.75
  -4  -6 -12   97.64    3.50
   4   6  12   94.36    3.66
  -4  -6 -13   23.46    2.44
   4   6  13   25.27    1.61
   4   6  13   25.61    1.25
  -4  -6 -13   24.70    1.47
  -4  -6 -13   26.09    2.09
  -4  -6 -14   15.58    2.39
   4   6  14   14.50    0.91
  -4  -6 -14   15.88    1.33
  -4  -6 -14   16.09    1.74
  -4  -6 -15    6.33    2.22
   4   6  15    4.60    0.45
  -4  -6 -15    5.81    1.00
  -4  -6 -15    7.66    1.46
  -4  -6 -16    0.67    0.78
  -4  -6 -16    1.74    1.95
  -4  -6 -17    0.22    2.01
  -4  -7  11    0.18    1.47
  -4  -7  10   11.25    2.14
  -4  -7   9   14.86    2.16
  -4  -7   8   -1.27    1.50
  -4  -7   8   -1.79    1.55
   4   7  -7    4.16    1.46
  -4  -7   7    2.14    1.41
  -4  -7   7    3.34    1.52
   4   7  -6    6.93    1.52
  -4  -7   6    6.58    1.64
   4   7  -6    4.61    1.38
   4   7  -6    5.76    1.53
  -4  -7   6    6.26    1.47
   4   7  -5   14.33    1.84
  -4  -7   5    8.38    1.58
   4   7  -5    9.86    1.55
   4   7  -5    9.79    1.66
  -4  -7   5   11.60    1.69
  -4  -7   4   10.69    1.64
   4   7  -4   14.39    1.77
   4   7  -4   13.64    1.62
   4   7  -4   17.23    1.76
  -4  -7   4   17.07    1.91
   4   7  -3   10.97    1.49
   4   7  -3   11.42    1.48
  -4  -7   3    9.95    1.53
   4   7  -2    1.09    0.89
   4   7  -2    1.43    1.01
  -4  -7   2    2.53    1.10
   4   7  -1    3.91    1.20
   4   7  -1    4.46    1.02
  -4  -7   1    3.15    1.10
   4   7   0   43.30    2.29
  -4  -7   0   43.95    2.45
   4   7   0   47.95    2.03
   4   7   1   38.68    2.12
   4   7   1   36.27    1.69
  -4  -7  -1   32.51    2.09
   4   7   2    5.20    0.87
  -4  -7  -2    3.42    1.04
   4   7   2    4.38    1.03
  -4  -7  -3   19.78    1.36
   4   7   3   17.52    1.20
   4   7   3   18.28    1.53
  -4  -7  -3   17.65    1.56
   4   7   3   18.68    1.20
  -4  -7  -4    1.39    0.69
  -4  -7  -4    1.14    0.95
   4   7   4    3.27    0.96
   4   7   4    1.63    0.58
   4   7   4    1.35    0.65
   4   7   5   89.47    2.90
   4   7   5   89.78    2.02
   4   7   5   88.79    2.44
  -4  -7  -5   90.95    2.52
  -4  -7  -5   93.29    3.09
   4   7   6   20.85    1.36
  -4  -7  -6   22.77    1.37
  -4  -7  -6   22.17    1.58
   4   7   6   21.64    1.50
   4   7   6   22.01    0.97
  -4  -7  -7    0.47    0.74
  -4  -7  -7    1.75    0.91
   4   7   7    1.08    0.74
   4   7   7    2.82    0.49
   4   7   7    1.19    0.79
  -4  -7  -8    8.07    1.02
   4   7   8    8.82    1.10
   4   7   8    9.11    0.68
  -4  -7  -8    8.79    1.88
   4   7   8    9.03    1.16
  -4  -7  -8    8.93    1.07
  -4  -7  -9   26.90    2.64
  -4  -7  -9   33.90    1.34
   4   7   9   29.62    1.62
  -4  -7  -9   28.37    1.69
   4   7   9   31.55    1.92
  -4  -7  -9   32.25    1.70
   4   7   9   33.36    1.21
  -4  -7 -10   -0.05    0.53
  -4  -7 -10    2.87    1.61
  -4  -7 -10    0.69    0.67
   4   7  10    0.30    0.95
  -4  -7 -10    1.53    0.83
   4   7  10   -0.11    0.49
   4   7  10    0.53    0.69
  -4  -7 -11   13.38    1.02
  -4  -7 -11   14.86    2.24
  -4  -7 -11   13.67    0.98
   4   7  11   15.30    1.15
  -4  -7 -11   16.76    1.55
   4   7  11   14.98    1.01
   4   7  11   14.20    1.56
  -4  -7 -12   38.58    3.17
   4   7  12   34.83    1.59
   4   7  12   39.31    1.59
  -4  -7 -12   36.25    1.56
  -4  -7 -12   39.03    2.30
   4   7  12   36.80    2.36
  -4  -7 -13   -0.73    0.62
   4   7  13   -0.35    0.53
  -4  -7 -14    1.18    0.70
  -4  -7 -14   -0.37    1.06
   4   7  14    0.15    0.37
  -4  -7 -15   10.41    2.38
  -4  -7 -15    8.20    1.69
  -4  -7 -15    7.64    1.05
  -4  -7 -16    6.91    2.28
  -4  -7 -17    7.30    2.51
  -4  -8  10    7.26    1.99
   4   8  -9    2.18    1.64
  -4  -8   9   -1.68    1.53
  -4  -8   8   12.86    2.07
   4   8  -8   11.54    2.06
   4   8  -7    7.02    1.81
  -4  -8   7    4.27    1.73
  -4  -8   7    4.52    1.64
   4   8  -6   -0.01    1.18
   4   8  -6    2.77    1.42
  -4  -8   6    2.06    1.50
  -4  -8   6    1.61    1.42
  -4  -8   5   33.42    2.65
   4   8  -5   30.68    2.40
  -4  -8   5   33.40    2.57
   4   8  -5   32.58    2.44
   4   8  -5   31.23    2.47
   4   8  -4   12.46    1.70
   4   8  -4    9.37    1.58
  -4  -8   4   11.97    1.84
   4   8  -4    7.39    1.39
  -4  -8   4   12.92    1.82
   4   8  -3    0.45    1.06
  -4  -8   3   -0.68    1.14
   4   8  -3   -1.63    1.12
   4   8  -3   -0.26    0.99
   4   8  -2   23.39    1.77
   4   8  -2   26.12    2.11
  -4  -8   2   25.44    2.24
   4   8  -2   23.20    1.87
   4   8  -1    9.28    1.50
  -4  -8   1   14.16    1.68
   4   8  -1   13.54    1.34
   4   8   0  127.35    4.04
  -4  -8   0  138.00    4.41
   4   8   0  125.97    3.24
   4   8   1   -0.54    0.61
   4   8   1    0.17    0.99
  -4  -8  -1    1.17    1.10
   4   8   2   36.15    1.68
   4   8   2   36.26    2.14
  -4  -8  -2   34.99    2.29
  -4  -8  -3   -0.31    0.93
  -4  -8  -3    1.91    0.78
   4   8   3    0.08    0.69
   4   8   3    0.65    0.88
   4   8   3    1.11    0.73
   4   8   4   13.52    1.04
   4   8   4   13.72    1.41
  -4  -8  -4   14.60    1.51
   4   8   4   12.58    1.12
  -4  -8  -4   15.63    1.23
   4   8   5    1.98    0.70
  -4  -8  -5    3.43    0.73
   4   8   5    3.78    0.58
   4   8   5    2.70    0.99
  -4  -8  -5    1.73    1.05
   4   8   6    8.41    1.15
  -4  -8  -6    9.73    1.31
  -4  -8  -6    9.06    1.01
   4   8   6    8.82    0.66
   4   8   6    9.97    1.06
   4   8   7    2.33    0.90
  -4  -8  -7    0.25    0.67
   4   8   7    1.07    0.40
   4   8   7    1.51    0.73
  -4  -8  -7   -0.42    0.84
   4   8   8    0.43    0.74
   4   8   8    0.77    0.35
  -4  -8  -8    0.44    0.76
  -4  -8  -8   -0.12    0.85
   4   8   8    2.24    0.84
  -4  -8  -9    5.46    0.98
   4   8   9    5.73    1.07
  -4  -8  -9    7.59    2.07
   4   8   9    4.48    0.48
   4   8   9    4.92    0.94
  -4  -8  -9    4.85    0.96
  -4  -8 -10   46.80    3.50
   4   8  10   44.29    2.22
   4   8  10   40.73    1.86
   4   8  10   43.37    1.20
  -4  -8 -10   45.53    2.19
  -4  -8 -10   43.04    1.97
   4   8  11    1.37    0.93
  -4  -8 -11   -0.54    1.67
  -4  -8 -11    0.76    0.63
   4   8  11    1.83    0.69
  -4  -8 -11    1.41    0.91
  -4  -8 -12    6.30    0.81
  -4  -8 -12    6.11    0.66
   4   8  12    6.37    0.81
  -4  -8 -12    5.73    1.12
  -4  -8 -13   -1.19    1.87
   4   8  13    0.02    0.49
  -4  -8 -13   -0.20    0.48
  -4  -8 -13    1.05    0.97
  -4  -8 -14   23.23    2.98
   4   8  14   17.25    0.87
  -4  -8 -14   23.21    1.21
  -4  -8 -14   25.51    2.12
  -4  -8 -15    1.16    1.91
  -4  -8 -15    2.60    1.29
  -4  -8 -16   34.03    3.52
   4   9  -9   -0.93    1.58
  -4  -9   9    1.70    1.77
   4   9  -8    1.95    1.59
  -4  -9   8    0.41    1.60
  -4  -9   7    2.46    1.67
   4   9  -7   -1.52    1.47
  -4  -9   6   21.70    2.51
   4   9  -6   19.19    2.07
  -4  -9   6   22.73    2.58
   4   9  -5   17.83    2.03
  -4  -9   5   17.09    2.25
   4   9  -5   19.75    1.96
  -4  -9   5   17.96    2.26
  -4  -9   4    5.51    1.61
  -4  -9   4    1.58    1.46
   4   9  -4    3.60    1.24
   4   9  -4    4.94    1.35
   4   9  -3    1.07    1.05
  -4  -9   3    0.67    1.43
   4   9  -3    0.82    1.03
   4   9  -3    0.04    0.93
   4   9  -2    3.42    1.15
   4   9  -2    4.02    1.32
   4   9  -2    5.09    1.13
  -4  -9   2    3.50    1.56
   4   9  -1   44.23    2.38
   4   9  -1   38.67    2.54
   4   9  -1   37.85    2.05
  -4  -9   1   41.53    2.73
   4   9   0    3.53    0.91
   4   9   0    4.29    1.36
  -4  -9   0    1.16    1.17
   4   9   0    2.19    0.87
   4   9   1   50.08    2.74
   4   9   1   50.97    2.06
   4   9   1   53.79    2.31
  -4  -9  -1   53.31    2.93
   4   9   2    5.29    0.94
  -4  -9  -2    3.12    1.21
   4   9   2    1.73    0.98
   4   9   2    2.49    0.73
   4   9   3    0.40    0.72
   4   9   3    0.58    0.86
  -4  -9  -3    0.74    1.05
   4   9   3    0.44    0.61
   4   9   4   -0.66    0.87
   4   9   4   -0.25    0.59
  -4  -9  -4    1.14    1.11
   4   9   4   -0.35    0.56
  -4  -9  -5    5.70    0.91
   4   9   5    5.75    1.16
   4   9   5    4.53    0.59
   4   9   5    5.26    0.78
  -4  -9  -5    6.42    1.32
   4   9   6    5.35    1.11
  -4  -9  -6    6.12    0.89
  -4  -9  -6    9.68    1.39
   4   9   6    7.78    0.61
   4   9   6    8.13    0.92
  -4  -9  -7   -0.35    0.66
   4   9   7   -0.01    0.25
  -4  -9  -7   -0.90    1.02
   4   9   7    0.89    0.94
   4   9   7    0.51    0.65
   4   9   8   48.88    2.01
   4   9   8   49.36    2.30
  -4  -9  -8   53.83    2.08
  -4  -9  -8   49.32    2.42
   4   9   9   -0.31    0.78
  -4  -9  -9    1.01    0.77
  -4  -9  -9   -1.56    1.67
   4   9   9    0.51    0.73
  -4  -9  -9   -0.16    0.75
  -4  -9 -10    3.11    0.89
  -4  -9 -10    0.17    1.71
   4   9  10    1.78    0.93
   4   9  10    2.22    0.79
  -4  -9 -10    1.85    0.77
  -4  -9 -11   37.05    1.87
  -4  -9 -11   34.67    3.31
  -4  -9 -11   35.89    2.02
   4   9  11   33.92    1.73
   4   9  11   32.55    2.09
  -4  -9 -12   -1.49    2.02
  -4  -9 -12    1.09    0.67
   4   9  12    0.35    0.56
  -4  -9 -12    1.21    0.94
  -4  -9 -13   13.17    2.59
   4   9  13   14.04    0.97
  -4  -9 -13   14.76    1.59
  -4  -9 -14    2.29    1.92
  -4  -9 -14    2.23    1.09
  -4  -9 -15    4.08    2.16
  -4  -9 -15    0.12    1.05
  -4  -9 -16   14.13    2.91
   4  10  -7    0.17    1.29
  -4 -10   7    0.51    1.59
   4  10  -6    3.46    1.45
  -4 -10   6   -0.32    1.47
  -4 -10   5    4.76    1.78
   4  10  -5    4.96    1.37
  -4 -10   4   14.88    2.27
   4  10  -4   18.21    1.99
  -4 -10   4   19.24    2.32
   4  10  -4   16.67    1.81
   4  10  -3    7.83    1.33
   4  10  -3    6.33    1.33
  -4 -10   3    6.08    1.62
   4  10  -2    0.93    1.03
  -4 -10   2    0.61    1.20
   4  10  -2    1.60    0.90
   4  10  -1    1.56    1.17
   4  10  -1    3.55    1.06
   4  10  -1    1.35    0.84
  -4 -10   1    3.67    1.47
   4  10   0    9.46    1.27
  -4 -10   0    7.86    1.67
   4  10   0    5.61    1.35
   4  10   0    6.72    1.04
   4  10   1  467.35    6.62
   4  10   1  484.01    6.04
   4  10   1  463.75    8.20
  -4 -10  -1  465.30    8.77
   4  10   2    1.79    1.04
   4  10   2    1.89    0.71
  -4 -10  -2   -0.88    1.24
   4  10   2    1.94    0.82
   4  10   3   46.34    1.77
   4  10   3   46.51    2.02
   4  10   3   45.99    2.64
  -4 -10  -3   47.45    2.89
   4  10   3   47.18    1.95
   4  10   4    0.76    1.01
   4  10   4    1.79    0.64
   4  10   4    1.39    0.59
  -4 -10  -4    0.67    1.18
   4  10   4    2.16    0.68
   4  10   5    3.35    1.03
   4  10   5    3.42    0.64
   4  10   5    4.78    0.74
   4  10   5    6.20    0.69
  -4 -10  -5    4.50    1.27
  -4 -10  -6    2.05    0.78
   4  10   6    1.28    0.34
   4  10   6    2.03    1.14
   4  10   6    1.38    0.36
  -4 -10  -6    1.02    1.09
   4  10   6    1.76    0.71
  -4 -10  -7    0.97    1.04
   4  10   7    2.15    0.98
   4  10   7    1.35    0.72
  -4 -10  -7    2.53    0.80
  -4 -10  -8   17.42    1.73
   4  10   8   19.08    1.65
   4  10   8   17.18    1.33
  -4 -10  -8   16.99    1.27
  -4 -10  -9   67.66    2.40
   4  10   9   71.34    2.79
  -4 -10  -9   64.65    2.82
   4  10   9   68.79    2.45
   4  10  10    1.52    0.90
  -4 -10 -10    2.73    1.00
  -4 -10 -10    3.12    2.08
   4  10  10    3.26    0.92
  -4 -10 -10    1.27    0.78
  -4 -10 -11   24.16    3.07
  -4 -10 -11   25.58    1.79
   4  10  11   26.04    1.61
  -4 -10 -11   21.11    1.57
  -4 -10 -12   -0.06    0.72
  -4 -10 -12    1.43    1.00
  -4 -10 -13    6.07    0.79
  -4 -10 -13    7.40    2.37
  -4 -10 -13    9.44    1.36
  -4 -10 -14    3.56    2.06
  -4 -10 -14    4.63    1.15
  -4 -10 -15   -1.51    2.22
  -4 -10 -15    1.69    1.12
   4  11  -6    0.38    1.36
  -4 -11   6   -1.88    1.98
   4  11  -5   -0.57    1.23
  -4 -11   5    2.60    1.79
   4  11  -4    0.97    1.17
  -4 -11   4    0.67    1.57
   4  11  -4    0.26    1.18
  -4 -11   3    6.96    1.77
   4  11  -3    1.49    0.96
   4  11  -3    5.03    1.38
  -4 -11   2   -1.21    1.52
   4  11  -2   -0.76    1.07
   4  11  -2    0.66    0.84
  -4 -11   1    1.30    1.43
   4  11  -1   -0.08    0.77
   4  11  -1    0.43    0.90
   4  11   0    2.84    0.85
   4  11   0    3.14    1.02
  -4 -11   0    2.87    1.44
   4  11   1    1.55    0.81
   4  11   1    2.54    0.78
   4  11   1    1.30    1.16
  -4 -11  -1    2.03    1.40
   4  11   2    4.91    1.46
   4  11   2    5.12    0.85
  -4 -11  -2    6.60    1.55
   4  11   2    5.69    0.95
   4  11   3    8.07    1.05
   4  11   3    9.26    1.55
   4  11   3    8.84    1.03
   4  11   3    8.56    0.89
  -4 -11  -3    7.60    1.51
   4  11   4    0.98    1.00
   4  11   4    0.46    0.55
  -4 -11  -4    0.44    1.13
   4  11   4    1.11    0.67
   4  11   4    0.79    0.55
   4  11   5    2.82    0.53
   4  11   5    3.57    1.29
   4  11   5    1.16    0.50
  -4 -11  -5    3.43    1.38
   4  11   5    1.79    0.60
   4  11   6    0.01    0.21
   4  11   6    0.24    1.05
   4  11   6   -0.02    0.23
   4  11   6   -0.47    0.57
   4  11   7    3.80    1.18
  -4 -11  -7    4.13    0.83
  -4 -11  -7    5.33    1.30
   4  11   7    6.60    0.82
   4  11   8    2.36    0.78
  -4 -11  -8    1.41    0.66
   4  11   8    1.96    1.00
  -4 -11  -8    4.54    1.21
  -4 -11  -9   43.38    1.88
   4  11   9   39.63    1.78
   4  11   9   37.98    2.21
  -4 -11  -9   43.43    2.48
  -4 -11 -10    7.92    0.99
  -4 -11 -10    9.56    2.53
  -4 -11 -10    8.46    1.33
  -4 -11 -11    0.09    0.83
  -4 -11 -11    0.56    2.02
  -4 -11 -11    0.15    0.74
  -4 -11 -12   -0.62    0.83
  -4 -11 -12    1.72    2.20
  -4 -11 -12   -0.13    0.79
  -4 -11 -13   13.09    1.18
  -4 -11 -13    9.48    2.60
  -4 -11 -13    9.31    1.37
  -4 -11 -14    2.52    2.40
   4  12  -4    7.48    1.49
  -4 -12   4    6.15    2.07
   4  12  -3    2.57    1.33
   4  12  -3    2.99    1.03
  -4 -12   3    0.37    1.71
   4  12  -2    0.88    1.08
   4  12  -2    0.26    0.80
  -4 -12   2   -0.81    1.71
   4  12  -1    2.28    1.21
   4  12  -1    2.23    0.86
  -4 -12   1    3.29    1.62
   4  12   0    1.32    0.98
   4  12   0    0.54    0.71
  -4 -12   0    0.96    1.36
  -4 -12  -1    4.29    1.50
   4  12   1    0.68    0.75
   4  12   1    2.78    0.78
   4  12   2  158.22    3.76
  -4 -12  -2  169.72    5.83
   4  12   2  162.96    3.08
   4  12   3   14.62    1.15
   4  12   3   17.20    1.39
  -4 -12  -3   13.59    1.97
   4  12   3   17.42    1.04
   4  12   4   12.92    1.10
  -4 -12  -4   13.81    1.97
   4  12   4   11.39    0.82
   4  12   4   10.99    0.94
   4  12   5    3.17    0.53
   4  12   5    3.95    0.52
  -4 -12  -5    4.47    1.51
   4  12   5    3.16    0.49
  -4 -12  -6   15.28    1.92
   4  12   6   14.31    0.90
   4  12   7    0.99    0.51
  -4 -12  -7    1.60    1.18
  -4 -12  -8    7.35    1.55
  -4 -12  -9    6.12    0.80
  -4 -12  -9    8.63    1.46
  -4 -12 -10   12.68    1.52
  -4 -12 -11    0.95    0.95
  -4 -12 -11    1.68    2.15
  -4 -12 -12   -1.75    2.19
  -4 -12 -12    0.18    0.86
  -4 -12 -13    7.46    2.84
   4  13  -1   -1.35    1.15
   4  13   0   -0.56    0.61
   4  13   0    1.02    0.91
   4  13   1    3.55    0.68
   4  13   1    3.22    0.98
  -4 -13  -2   10.48    2.16
   4  13   2   10.73    0.80
   4  13   2   12.95    1.30
   4  13   3  111.67    3.21
  -4 -13  -3  117.68    5.04
   4  13   3  105.46    2.81
   4  13   4   17.91    1.19
   4  13   4   15.38    1.02
  -4 -13  -4   16.49    2.18
  -4 -13  -5   -0.40    1.42
   4  13   5    0.78    0.36
  -4 -13  -6   -2.04    1.41
  -4 -13  -7    4.95    1.40
  -4 -13  -8    2.24    1.32
  -4 -13  -9    2.30    1.24
  -4 -13 -10    3.32    1.21
  -4 -13 -11    2.39    1.19
  -4 -13 -11    3.39    2.43
  -4 -14  -2    1.94    1.57
  -4 -14  -3   33.77    3.10
  -4 -14  -4   10.16    1.99
  -4 -14  -5    6.06    1.72
  -4 -14  -6    2.04    1.54
  -4 -14  -7   18.72    2.39
  -4 -14  -8    2.46    1.49
   5 -11  -4    8.93    1.68
   5 -11  -3   -0.70    1.13
   5 -11  -2    9.52    1.33
   5 -11  -2    6.75    1.56
   5 -11  -1    1.95    1.27
   5 -11  -1    1.72    1.04
   5 -11   0    2.53    1.05
   5 -11   0    5.26    1.50
   5 -11   1    5.44    1.36
   5 -11   1    7.18    1.72
   5 -10  -7    6.08    1.18
   5 -10  -6   21.19    1.87
   5 -10  -6   22.27    1.92
   5 -10  -5    0.62    0.93
   5 -10  -5    0.92    0.95
   5 -10  -5    0.62    0.65
   5 -10  -4    4.24    1.25
   5 -10  -4    6.16    1.02
   5 -10  -3    2.37    0.89
  -5  10   3    1.18    0.87
   5 -10  -2    4.01    0.97
  -5  10   2    4.08    1.08
  -5  10   1    0.44    0.87
   5 -10  -1    0.93    0.95
   5 -10   0    6.99    1.30
  -5  10   0    5.62    1.17
   5 -10   1    0.46    1.00
  -5  10  -1   -0.24    1.02
   5 -10   2   -0.73    1.12
  -5  10  -2    2.12    1.17
  -5  10  -3    0.05    1.13
   5 -10   3   -0.56    1.18
   5 -10   4    2.56    1.29
   5 -10   4    0.53    1.42
   5 -10   5    7.49    1.72
   5  -9  -9   -0.60    1.89
   5  -9  -8   33.92    3.48
   5  -9  -8   26.08    1.74
   5  -9  -7   18.57    2.74
   5  -9  -7   15.27    1.23
   5  -9  -7   14.15    1.44
   5  -9  -7   14.97    1.52
   5  -9  -6   21.02    1.77
   5  -9  -6   24.11    1.45
   5  -9  -6   20.59    1.03
   5  -9  -5    0.79    0.68
   5  -9  -5    0.45    0.76
   5  -9  -4    0.93    0.74
   5  -9  -4   -0.20    0.83
   5  -9  -4   -0.05    0.24
   5  -9  -3    0.74    0.80
  -5   9   3    0.97    0.93
  -5   9   2   19.09    1.69
   5  -9  -2   17.77    1.51
  -5   9   1    0.77    0.87
   5  -9  -1   -0.06    0.83
   5  -9   0    4.20    1.04
  -5   9   0    2.75    1.01
   5  -9   1    4.23    1.24
  -5   9  -1    4.10    1.15
  -5   9  -1    5.75    0.70
   5  -9   2    1.14    1.05
  -5   9  -2    1.53    0.56
  -5   9  -2    1.39    1.06
  -5   9  -3    0.74    1.06
  -5   9  -3   -0.27    0.59
   5  -9   3    2.08    1.18
  -5   9  -4    4.68    1.24
  -5   9  -4    5.45    0.89
   5  -9   4    6.19    1.42
   5  -9   5   21.37    2.15
  -5   9  -5   16.54    1.39
   5  -9   6   15.29    2.02
   5  -9   7   10.91    2.14
   5  -9   7    8.04    1.81
   5  -8 -10   -0.51    1.61
   5  -8 -10    0.73    0.91
   5  -8  -9    3.66    1.02
   5  -8  -9   -1.17    1.86
   5  -8  -9    0.65    0.66
   5  -8  -9    2.21    0.69
   5  -8  -8    3.85    0.97
   5  -8  -8    4.79    2.05
   5  -8  -8    3.77    0.81
   5  -8  -8    4.26    0.91
   5  -8  -7    3.62    1.98
   5  -8  -7    4.86    0.93
   5  -8  -7    4.63    1.04
   5  -8  -7    4.05    0.84
   5  -8  -6    6.93    0.94
   5  -8  -6    5.55    1.08
   5  -8  -6    7.24    0.90
   5  -8  -5    3.20    0.88
   5  -8  -5    5.06    0.76
   5  -8  -5    4.18    0.79
   5  -8  -4    5.76    0.73
   5  -8  -4    5.97    1.12
   5  -8  -4    5.00    0.84
   5  -8  -3    2.41    0.79
  -5   8   3    2.30    1.10
   5  -8  -3    2.05    0.50
   5  -8  -2   -0.45    0.75
  -5   8   2    0.40    0.88
   5  -8  -2    1.27    0.50
  -5   8   1   23.03    1.76
   5  -8  -1   25.24    1.72
   5  -8  -1   23.01    1.12
   5  -8   0    2.39    0.87
  -5   8   0    3.80    1.20
   5  -8   0    1.77    0.61
  -5   8  -1   21.50    1.79
  -5   8  -1   19.93    1.23
   5  -8   1   20.85    1.69
   5  -8   1   18.65    1.17
  -5   8  -2   -0.23    1.00
   5  -8   2   -0.54    0.62
  -5   8  -2   -0.16    0.60
   5  -8   2   -1.27    0.99
  -5   8  -3    4.12    1.28
   5  -8   3    3.00    1.11
  -5   8  -3    4.04    0.80
  -5   8  -4    6.59    1.27
   5  -8   4    9.51    1.52
  -5   8  -4    7.94    1.02
  -5   8  -5    2.64    1.27
   5  -8   5    1.78    1.36
  -5   8  -5    1.71    0.84
   5  -8   6   28.70    2.76
   5  -8   6   26.84    2.34
  -5   8  -6   29.48    1.88
  -5   8  -6   24.64    2.21
   5  -8   7    1.04    1.29
  -5   8  -7    1.45    0.95
   5  -8   8   20.00    2.34
  -5   8  -8   19.13    1.87
  -5   8  -9    1.99    1.20
   5  -8   9    2.66    1.54
   5  -7 -11    1.07    0.84
   5  -7 -11   -0.55    1.73
   5  -7 -11    3.76    1.29
   5  -7 -10   -1.12    1.66
   5  -7 -10   -0.10    0.78
   5  -7 -10    1.90    1.12
   5  -7  -9    2.26    0.78
   5  -7  -9    1.31    0.78
   5  -7  -9    0.29    1.62
   5  -7  -9    0.88    0.87
   5  -7  -8   34.91    3.07
   5  -7  -8   32.37    1.76
   5  -7  -8   33.53    2.02
   5  -7  -8   34.36    1.84
   5  -7  -7    5.36    1.10
   5  -7  -7    2.49    1.57
   5  -7  -7    4.60    0.87
   5  -7  -7    3.71    0.89
   5  -7  -6    1.32    1.57
   5  -7  -6    0.97    0.84
   5  -7  -6   -0.31    0.64
   5  -7  -6   -0.59    0.67
   5  -7  -5   18.30    1.37
   5  -7  -5   19.34    1.53
   5  -7  -5   21.07    1.35
   5  -7  -4   -0.07    0.63
   5  -7  -4   -0.45    0.74
   5  -7  -4   -0.10    0.57
   5  -7  -3   -0.41    0.75
   5  -7  -3    1.51    0.80
  -5   7   3   -0.61    0.86
   5  -7  -3    0.59    0.59
   5  -7  -2    0.42    0.53
  -5   7   2    0.44    0.82
   5  -7  -2    0.29    0.70
   5  -7  -1   13.68    1.31
  -5   7   1   14.03    1.49
   5  -7  -1   13.80    1.01
   5  -7   0    7.74    1.17
  -5   7   0    8.75    1.23
  -5   7   0    8.82    0.93
   5  -7   0    8.23    0.85
   5  -7   1    3.47    1.14
   5  -7   1    3.60    0.72
  -5   7  -1    2.31    0.73
  -5   7  -1    2.69    0.96
  -5   7  -2   -0.93    0.91
   5  -7   2   -1.20    0.96
  -5   7  -2    1.35    0.69
   5  -7   2   -0.46    0.66
  -5   7  -3    7.37    1.00
  -5   7  -3    7.25    1.31
   5  -7   3    7.72    1.27
   5  -7   3    8.95    1.06
   5  -7   4    1.84    1.07
  -5   7  -4    0.85    0.97
  -5   7  -4    1.87    0.80
   5  -7   4    2.06    0.86
   5  -7   5    8.58    1.45
  -5   7  -5    5.89    1.30
  -5   7  -5    8.76    1.21
   5  -7   6    0.40    1.18
  -5   7  -6    0.86    1.11
   5  -7   6   -0.05    1.30
  -5   7  -6    1.30    0.93
  -5   7  -7    1.95    1.11
   5  -7   7    0.54    1.47
  -5   7  -7   -0.02    0.95
   5  -7   7    3.70    1.35
   5  -7   8   23.46    2.45
  -5   7  -8   23.92    2.04
  -5   7  -9    7.89    1.53
   5  -7   9   10.76    1.92
  -5   7 -10   12.72    1.82
   5  -7  10   17.34    2.40
   5  -7  11    3.16    1.72
   5  -7  11   -0.41    1.61
   5  -6 -12    0.87    1.16
   5  -6 -12   -0.12    1.52
   5  -6 -12    0.22    0.90
   5  -6 -11    8.48    1.64
   5  -6 -11    7.95    1.92
   5  -6 -11    8.83    1.27
   5  -6 -10    0.87    1.68
   5  -6 -10    4.06    1.26
   5  -6 -10    1.46    0.50
   5  -6 -10    3.64    0.99
   5  -6  -9    8.79    1.96
   5  -6  -9    9.19    1.23
   5  -6  -9    7.70    1.35
   5  -6  -9    6.13    0.84
   5  -6  -8   16.67    2.24
   5  -6  -8   19.74    1.51
   5  -6  -8   18.34    1.66
   5  -6  -8   19.68    1.38
   5  -6  -7    3.76    0.95
   5  -6  -7    1.16    0.69
   5  -6  -7    2.21    1.56
   5  -6  -7    2.15    0.95
   5  -6  -6   12.09    1.32
   5  -6  -6   11.23    1.17
   5  -6  -6    8.32    1.79
   5  -6  -6   10.92    1.21
   5  -6  -5    2.42    0.77
   5  -6  -5    2.34    0.77
   5  -6  -5    0.91    0.77
   5  -6  -4   18.53    1.48
   5  -6  -4   18.48    1.33
   5  -6  -4   17.12    1.33
   5  -6  -3    0.30    0.77
   5  -6  -3   -0.31    0.64
   5  -6  -3    1.20    0.65
   5  -6  -2   22.00    1.49
   5  -6  -2   20.56    1.65
  -5   6   2   19.66    1.63
   5  -6  -2   18.35    1.18
   5  -6  -1   -1.06    0.79
  -5   6   1   -0.57    0.81
   5  -6  -1    0.12    0.54
   5  -6   0    8.02    1.15
  -5   6   0    8.71    1.23
   5  -6   0    7.50    0.88
  -5   6   0    8.31    1.02
   5  -6   1   10.04    1.24
  -5   6  -1    9.72    1.01
  -5   6  -1   10.97    1.38
   5  -6   1    9.73    1.02
  -5   6  -2    1.46    0.90
   5  -6   2    2.15    0.95
   5  -6   2    2.21    0.78
  -5   6  -2    2.01    0.71
   5  -6   3   12.71    1.46
  -5   6  -3   12.13    1.22
   5  -6   3   10.77    1.19
  -5   6  -3   12.08    1.43
  -5   6  -4    5.33    1.10
  -5   6  -4    3.63    0.90
   5  -6   4    5.76    1.19
   5  -6   4    5.48    1.02
   5  -6   5  186.53    5.48
  -5   6  -5  185.29    4.81
  -5   6  -5  198.27    4.28
   5  -6   5  186.04    4.93
   5  -6   5  182.04    4.38
   5  -6   6    1.50    1.08
   5  -6   6    3.50    1.21
  -5   6  -6    2.06    0.96
   5  -6   6    3.07    1.41
  -5   6  -6    1.36    1.05
   5  -6   7    5.08    1.42
  -5   6  -7    1.52    1.02
   5  -6   7    2.47    1.46
  -5   6  -7    3.08    0.96
  -5   6  -8    0.32    0.90
   5  -6   8    1.71    1.52
  -5   6  -8   -1.16    1.15
   5  -6   8    1.61    1.34
   5  -6   9    2.28    1.34
   5  -6   9    2.08    1.60
  -5   6  -9    1.21    1.04
   5  -6  10    1.45    1.46
  -5   6 -10    1.36    1.15
   5  -6  11   15.74    2.26
   5  -6  12    3.59    1.60
   5  -5 -13    1.86    1.68
   5  -5 -13    0.72    1.34
   5  -5 -13   -0.53    1.00
   5  -5 -12    0.43    1.42
   5  -5 -12    1.60    1.18
   5  -5 -12    3.27    1.17
   5  -5 -11    6.26    1.78
   5  -5 -11    4.61    1.19
   5  -5 -11    5.60    1.49
   5  -5 -10   30.07    2.78
   5  -5 -10   35.91    2.31
   5  -5 -10   39.05    2.65
   5  -5 -10   30.77    1.20
   5  -5  -9    3.01    1.43
   5  -5  -9    3.88    1.24
   5  -5  -9    4.60    0.76
   5  -5  -9    2.74    1.00
   5  -5  -8    0.85    0.88
   5  -5  -8    0.29    0.96
   5  -5  -8    2.45    0.81
   5  -5  -7    0.08    1.25
   5  -5  -7    0.22    0.68
   5  -5  -7    0.94    0.92
   5  -5  -7   -0.25    0.85
   5  -5  -6   16.20    1.97
   5  -5  -6   13.94    1.37
   5  -5  -6   16.28    1.40
   5  -5  -6   15.50    1.33
   5  -5  -5    2.62    0.84
   5  -5  -5    1.29    1.23
   5  -5  -5    3.18    0.90
   5  -5  -5    1.45    0.88
   5  -5  -4   12.11    1.22
   5  -5  -4   13.32    1.22
   5  -5  -4   12.75    1.18
   5  -5  -3   16.19    1.33
   5  -5  -3   17.55    1.34
   5  -5  -3   16.32    1.26
   5  -5  -2   -0.17    0.73
   5  -5  -2   -0.35    0.70
  -5   5   2   -0.03    0.89
   5  -5  -2    0.46    0.60
   5  -5  -1    6.33    1.05
   5  -5  -1    4.69    0.79
  -5   5   1    6.11    0.95
   5  -5  -1    5.09    0.94
  -5   5   1    6.08    1.08
  -5   5   0   16.77    1.28
  -5   5   0   17.99    1.50
   5  -5   0   16.89    1.19
  -5   5  -1    0.50    0.65
   5  -5   1    0.18    0.64
   5  -5   1    1.38    0.85
  -5   5  -1    1.01    0.89
  -5   5  -2   13.98    1.42
   5  -5   2   16.10    1.45
   5  -5   2   14.07    1.21
  -5   5  -2   11.57    1.10
   5  -5   3   12.22    1.19
  -5   5  -3   10.50    1.27
   5  -5   3   11.09    1.24
  -5   5  -3   11.10    1.12
  -5   5  -4   -0.08    0.91
   5  -5   4    1.81    0.98
  -5   5  -4    1.39    0.82
   5  -5   4    0.19    0.79
   5  -5   5  352.15    6.86
  -5   5  -5  365.41    5.85
   5  -5   5  354.34    6.42
  -5   5  -5  352.02    6.29
   5  -5   5  353.63    5.95
   5  -5   6  103.38    3.71
   5  -5   6  100.88    3.89
  -5   5  -6  104.31    3.27
   5  -5   6   97.02    3.34
  -5   5  -6   97.46    3.45
   5  -5   7   34.05    2.29
   5  -5   7   32.89    2.49
  -5   5  -7   36.21    2.14
   5  -5   7   34.52    2.23
  -5   5  -7   34.52    2.29
   5  -5   8    1.25    1.19
  -5   5  -8   -0.17    0.94
   5  -5   8    0.16    1.30
  -5   5  -8    1.00    1.16
   5  -5   8    2.29    1.08
   5  -5   9    1.40    1.36
  -5   5  -9    3.04    1.22
   5  -5   9    0.20    1.18
  -5   5  -9    1.20    1.13
   5  -5  10    0.08    1.30
   5  -5  10    0.91    1.50
  -5   5 -10    0.22    1.13
   5  -5  11    1.87    1.30
  -5   5 -11    2.31    1.37
   5  -5  12   -0.18    1.51
   5  -5  13   91.27    4.88
   5  -4 -13    2.46    1.35
   5  -4 -13    3.38    1.74
   5  -4 -13    2.43    1.30
   5  -4 -13    1.01    1.14
   5  -4 -12    0.78    1.36
   5  -4 -12    0.55    1.15
   5  -4 -12    0.59    1.20
   5  -4 -11    0.66    1.01
   5  -4 -11    0.64    1.36
   5  -4 -11    0.18    0.14
   5  -4 -11    1.45    1.09
   5  -4 -10    4.12    1.40
   5  -4 -10    1.79    1.04
   5  -4 -10    3.02    0.54
   5  -4 -10    1.84    0.95
   5  -4  -9   12.47    1.84
   5  -4  -9   13.13    1.63
   5  -4  -9    9.28    1.33
   5  -4  -9   12.18    1.00
   5  -4  -8   29.28    2.38
   5  -4  -8   30.16    2.13
   5  -4  -8   25.29    2.06
   5  -4  -8   28.22    1.53
   5  -4  -7    3.24    0.84
   5  -4  -7    5.69    1.45
   5  -4  -7    4.87    0.99
   5  -4  -7    4.52    1.09
   5  -4  -6    4.50    0.87
   5  -4  -6    4.34    1.30
   5  -4  -6    5.17    1.03
   5  -4  -6    3.87    1.08
   5  -4  -5    3.80    0.84
   5  -4  -5    4.06    1.24
   5  -4  -5    2.22    0.86
   5  -4  -5    2.98    0.85
   5  -4  -4    3.80    0.82
   5  -4  -4    6.54    0.97
   5  -4  -4    6.38    1.35
   5  -4  -4    5.96    0.96
   5  -4  -3    0.61    0.62
   5  -4  -3    2.65    0.83
   5  -4  -3    1.18    0.69
   5  -4  -2   10.96    1.18
  -5   4   2   12.27    1.32
   5  -4  -2   10.21    1.05
   5  -4  -2   10.29    1.07
   5  -4  -1    1.84    0.80
   5  -4  -1    0.77    0.76
  -5   4   1    1.50    0.79
  -5   4   1    2.37    1.00
   5  -4  -1    1.13    0.56
   5  -4   0   10.70    0.98
   5  -4   0   12.18    1.14
  -5   4   0   10.78    1.06
   5  -4   0   13.02    1.29
  -5   4   0   12.37    1.27
  -5   4  -1    3.34    0.77
   5  -4   1    3.70    0.85
   5  -4   1    3.56    0.82
  -5   4  -1    2.53    0.85
  -5   4  -2    0.38    0.73
   5  -4   2    0.23    0.72
   5  -4   2    0.70    0.68
  -5   4  -2   -0.97    0.67
  -5   4  -3   14.65    1.27
   5  -4   3   13.68    1.36
  -5   4  -3   12.90    1.35
   5  -4   3   12.45    1.20
   5  -4   4    3.32    0.99
  -5   4  -4    3.56    0.85
  -5   4  -4    5.12    1.10
   5  -4   4    5.19    0.98
   5  -4   5   32.39    2.10
   5  -4   5   30.00    1.96
  -5   4  -5   32.02    1.78
  -5   4  -5   30.17    1.93
   5  -4   5   30.02    1.85
   5  -4   6  903.66   10.51
  -5   4  -6  880.80    9.10
   5  -4   6  887.00   10.07
   5  -4   6  875.54    9.68
  -5   4  -6  900.21    9.90
   5  -4   7   10.17    1.60
  -5   4  -7   12.06    1.49
   5  -4   7    9.84    1.48
   5  -4   7   11.58    1.48
  -5   4  -7   12.56    1.58
  -5   4  -8   23.15    2.02
   5  -4   8   24.55    2.04
   5  -4   8   22.96    2.25
  -5   4  -8   26.84    2.02
   5  -4   8   23.62    1.99
   5  -4   9    1.09    1.35
  -5   4  -9   -0.24    0.99
   5  -4   9    0.76    1.12
  -5   4  -9    0.55    1.01
   5  -4   9    0.68    1.13
   5  -4  10   14.05    2.12
   5  -4  10   14.75    1.90
  -5   4 -10   11.50    1.65
   5  -4  11    3.81    1.46
   5  -4  11    5.15    1.57
  -5   4 -11    4.18    1.42
   5  -4  12   -0.24    1.49
   5  -4  13   15.67    2.48
   5  -4  14    0.67    1.70
   5  -3 -13   -2.16    1.30
   5  -3 -13    0.10    1.25
   5  -3 -13    0.13    1.17
   5  -3 -12    1.78    1.34
   5  -3 -12   -1.36    1.30
   5  -3 -12    1.62    1.43
   5  -3 -11    2.72    1.41
   5  -3 -11    2.76    0.44
   5  -3 -11    3.43    1.25
   5  -3 -11    4.24    1.46
   5  -3 -10    3.44    1.29
   5  -3 -10    3.54    1.37
   5  -3 -10    6.56    1.38
   5  -3 -10    4.84    0.64
   5  -3  -9   36.80    2.63
   5  -3  -9   40.17    2.43
   5  -3  -9   34.90    2.54
   5  -3  -9   38.12    1.57
   5  -3  -8   29.62    2.21
   5  -3  -8   30.27    2.11
   5  -3  -8   29.55    2.20
   5  -3  -8   29.55    1.51
   5  -3  -7    1.35    1.10
   5  -3  -7    4.66    1.13
   5  -3  -7    3.34    1.02
   5  -3  -7    2.66    0.77
   5  -3  -6    9.76    1.46
   5  -3  -6   12.48    1.36
   5  -3  -6   10.31    1.34
   5  -3  -6    7.36    0.98
   5  -3  -5    3.24    0.83
   5  -3  -5    4.72    1.11
   5  -3  -5    5.02    0.84
   5  -3  -5    2.80    0.80
   5  -3  -4   35.83    2.11
   5  -3  -4   35.25    1.90
   5  -3  -4   35.47    1.84
   5  -3  -4   32.97    1.71
   5  -3  -3   -0.05    0.87
   5  -3  -3    0.10    0.64
   5  -3  -3   -0.94    0.73
   5  -3  -3    1.07    0.67
   5  -3  -2   -0.09    0.65
   5  -3  -2    0.07    0.72
   5  -3  -2    0.36    0.57
   5  -3  -1    6.24    0.99
  -5   3   1    6.96    1.09
  -5   3   1    5.43    0.98
   5  -3  -1    6.06    0.87
   5  -3  -1    5.82    0.87
   5  -3   0  101.05    2.97
  -5   3   0   98.88    2.84
  -5   3   0  102.51    3.09
   5  -3   0  101.16    2.65
   5  -3   0  101.70    2.80
   5  -3   1   41.44    1.86
   5  -3   1   37.94    1.94
  -5   3  -1   37.86    1.92
  -5   3  -1   37.55    1.80
   5  -3   1   34.63    1.63
   5  -3   2   20.94    1.42
   5  -3   2   22.80    1.58
  -5   3  -2   21.95    1.49
  -5   3  -2   20.76    1.37
   5  -3   2   21.96    1.37
   5  -3   3   23.51    1.51
  -5   3  -3   24.78    1.61
   5  -3   3   20.26    1.37
  -5   3  -3   24.44    1.55
   5  -3   4  246.08    4.65
  -5   3  -4  246.17    4.46
   5  -3   4  254.59    4.75
  -5   3  -4  235.99    4.77
   5  -3   4  237.31    4.44
   5  -3   5   32.16    1.90
  -5   3  -5   32.86    1.83
   5  -3   5   30.85    1.89
  -5   3  -5   28.38    1.77
   5  -3   5   32.15    1.87
  -5   3  -6  224.09    4.78
   5  -3   6  218.69    4.80
   5  -3   6  214.78    4.66
  -5   3  -6  223.69    4.57
   5  -3   6  225.25    4.90
   5  -3   7   21.01    1.87
  -5   3  -7   23.76    1.72
   5  -3   7   23.06    1.87
   5  -3   7   19.76    1.73
  -5   3  -7   22.95    1.81
   5  -3   8   -0.11    1.00
  -5   3  -8    0.22    0.93
   5  -3   8    0.05    1.03
  -5   3  -8    1.65    1.01
   5  -3   8   -0.90    0.99
   5  -3   9    6.13    1.38
   5  -3   9    5.06    1.39
   5  -3   9    4.56    1.45
  -5   3  -9    3.32    1.17
  -5   3  -9    4.73    1.25
  -5   3 -10    0.55    1.17
   5  -3  10    2.20    1.16
   5  -3  10    2.30    1.39
  -5   3 -10    1.95    1.20
   5  -3  10   -1.52    1.43
  -5   3 -11    7.01    1.59
   5  -3  11    5.55    1.72
  -5   3 -11    2.28    1.18
   5  -3  11    5.48    1.52
   5  -3  12    2.09    1.34
   5  -3  12   -0.72    1.60
  -5   3 -12    1.75    1.34
   5  -3  13    2.77    1.60
   5  -3  14   59.65    3.88
   5  -2 -13   -1.28    1.60
   5  -2 -13    3.08    1.61
   5  -2 -12    1.98    1.43
   5  -2 -12    2.75    1.32
   5  -2 -11    2.60    1.35
   5  -2 -11    1.41    1.19
   5  -2 -11    2.27    0.55
   5  -2 -10   -0.35    0.56
   5  -2 -10    2.36    1.37
   5  -2 -10   -0.94    1.48
   5  -2  -9    2.51    1.30
   5  -2  -9    0.47    0.89
   5  -2  -9    0.12    0.57
   5  -2  -9    1.89    1.23
   5  -2  -8   48.65    2.68
   5  -2  -8   50.32    1.93
   5  -2  -8   48.45    2.64
   5  -2  -8   47.61    2.85
   5  -2  -7   80.10    3.15
   5  -2  -7   74.38    3.07
   5  -2  -7   76.70    3.39
   5  -2  -7   70.11    2.37
   5  -2  -6   11.40    1.36
   5  -2  -6    9.21    1.02
   5  -2  -6    7.57    1.14
   5  -2  -6    8.33    1.35
   5  -2  -5   23.29    1.63
   5  -2  -5   19.90    1.59
   5  -2  -5   22.21    1.40
   5  -2  -5   23.50    1.76
   5  -2  -4    0.92    0.63
   5  -2  -4    0.20    0.67
   5  -2  -4   -0.68    0.77
   5  -2  -4   -0.37    0.78
   5  -2  -3   39.32    1.84
   5  -2  -3   38.27    1.90
   5  -2  -3   38.11    1.90
   5  -2  -3   40.10    1.88
   5  -2  -2   17.61    1.37
   5  -2  -2   18.86    1.31
   5  -2  -2   14.62    1.25
   5  -2  -2   15.77    1.24
   5  -2  -1   75.57    2.54
  -5   2   1   81.00    2.76
  -5   2   1   74.14    2.58
   5  -2  -1   72.85    2.41
   5  -2  -1   68.11    2.36
   5  -2   0    3.04    0.82
   5  -2   0    2.89    0.84
   5  -2   0    4.80    0.88
  -5   2   0    3.83    0.90
  -5   2   0    3.23    0.95
  -5   2  -1   19.60    1.46
  -5   2  -1   20.77    1.40
   5  -2   1   19.62    1.30
   5  -2   1   18.62    1.32
   5  -2   2   45.99    1.94
   5  -2   2   44.61    1.88
   5  -2   2   43.87    2.03
  -5   2  -2   43.79    2.04
  -5   2  -2   44.34    1.88
   5  -2   3   35.41    1.60
   5  -2   3   33.12    1.74
   5  -2   3   38.45    1.92
  -5   2  -3   32.84    1.76
   5  -2   3   33.57    1.72
  -5   2  -3   38.30    1.87
   5  -2   4   38.11    1.72
   5  -2   4   42.49    1.99
  -5   2  -4   41.55    2.03
  -5   2  -4   41.70    1.92
   5  -2   4   39.05    1.89
   5  -2   5    9.85    1.20
   5  -2   5    9.32    1.18
  -5   2  -5    8.42    1.08
  -5   2  -5    7.45    1.03
   5  -2   5    6.89    1.07
   5  -2   6    0.05    0.70
  -5   2  -6    0.14    0.84
  -5   2  -6    0.74    0.79
   5  -2   6   -0.37    0.81
   5  -2   6    0.69    0.90
   5  -2   7   77.39    3.00
   5  -2   7   77.32    2.91
  -5   2  -7   76.84    2.86
   5  -2   7   79.05    2.97
  -5   2  -8    7.39    1.25
   5  -2   8    8.79    1.45
  -5   2  -8    9.09    1.40
   5  -2   8    7.87    1.38
   5  -2   8    7.75    1.31
  -5   2  -9   23.69    1.92
   5  -2   9   24.26    1.96
   5  -2   9   20.48    2.01
  -5   2  -9   24.38    1.94
   5  -2   9   21.29    1.95
   5  -2  10    0.40    1.05
   5  -2  10   -0.23    1.18
   5  -2  10   -0.31    1.14
  -5   2 -10   -1.21    1.04
  -5   2 -10   -0.40    1.08
   5  -2  11    2.00    1.18
   5  -2  11    1.90    1.29
  -5   2 -11    2.77    1.16
   5  -2  11    3.21    1.29
  -5   2 -11    4.49    1.32
   5  -2  12    7.22    1.62
  -5   2 -12    9.62    1.53
  -5   2 -12   11.03    1.79
   5  -2  13    1.04    1.61
   5  -2  13    0.87    0.98
   5  -2  13    3.04    1.39
   5  -2  14    1.50    1.09
   5  -2  14    0.61    1.34
   5  -2  15    2.29    1.74
   5  -2  15   -0.90    1.24
   5  -1 -13    2.66    1.55
   5  -1 -12    1.62    1.39
   5  -1 -12   -0.08    1.34
  -5   1  11    0.62    0.55
   5  -1 -11    0.78    1.23
   5  -1 -11   -0.54    0.54
   5  -1 -10    1.23    0.60
  -5   1  10    1.13    0.62
   5  -1 -10    1.69    1.22
   5  -1 -10    1.26    1.32
   5  -1  -9    1.59    0.75
   5  -1  -9    3.20    1.40
  -5   1   9    2.26    0.68
   5  -1  -9    0.67    1.14
   5  -1  -8    2.85    0.78
  -5   1   8    3.77    0.82
   5  -1  -8    3.50    1.07
   5  -1  -8    4.09    1.39
   5  -1  -7    9.79    1.33
   5  -1  -7    9.96    1.05
  -5   1   7    9.19    0.92
   5  -1  -7   12.56    1.73
   5  -1  -6   -0.75    0.99
   5  -1  -6    0.81    0.80
  -5   1   6    1.01    0.66
   5  -1  -6    0.81    0.87
   5  -1  -6    0.21    0.61
   5  -1  -5   36.66    1.86
  -5   1   5   32.36    1.59
   5  -1  -5   36.45    2.18
   5  -1  -5   35.00    2.19
   5  -1  -5   36.35    1.81
   5  -1  -4   67.43    2.21
  -5   1   4   67.30    2.22
   5  -1  -4   66.89    2.74
   5  -1  -4   66.62    2.79
   5  -1  -4   72.36    2.42
   5  -1  -3    3.53    0.78
   5  -1  -3    3.37    0.68
  -5   1   3    2.53    0.68
   5  -1  -3    5.58    1.05
   5  -1  -3    3.18    0.99
   5  -1  -2    1.27    0.71
   5  -1  -2    1.54    0.55
  -5   1   2    1.28    0.73
   5  -1  -2   -0.12    0.72
   5  -1  -2    1.34    0.81
   5  -1  -1  151.60    2.54
   5  -1  -1  148.39    3.49
  -5   1   1  153.87    3.76
   5  -1  -1  151.76    3.47
   5  -1  -1  143.56    3.47
   5  -1   0   -0.23    0.71
   5  -1   0    1.24    0.87
   5  -1   0   -1.19    0.80
  -5   1   0   -1.10    0.85
  -5   1   0   -0.46    0.78
   5  -1   1   28.89    1.68
   5  -1   1   27.66    1.49
  -5   1  -1   28.68    1.68
  -5   1  -1   25.45    1.55
   5  -1   1   28.72    1.58
   5  -1   2   94.99    2.81
   5  -1   2   87.36    1.82
  -5   1  -2   88.31    2.64
  -5   1  -2   88.73    2.69
   5  -1   2   86.36    2.54
   5  -1   2   89.93    2.57
   5  -1   3   78.78    2.43
   5  -1   3   79.39    1.93
  -5   1  -3   81.73    2.60
  -5   1  -3   81.45    2.59
   5  -1   3   80.76    2.47
   5  -1   3   73.76    2.56
  -5   1  -4    0.20    0.81
   5  -1   4    0.01    0.75
   5  -1   4   -0.80    0.63
   5  -1   4   -0.94    0.82
  -5   1  -4    0.44    0.75
   5  -1   4    0.49    0.75
  -5   1  -5    0.05    0.77
   5  -1   5   -0.72    0.77
   5  -1   5    0.44    0.84
  -5   1  -5   -0.16    0.77
   5  -1   5   -0.68    0.70
   5  -1   5    0.14    0.76
   5  -1   6   29.57    1.72
   5  -1   6   30.91    1.80
   5  -1   6   26.42    1.77
  -5   1  -6   29.28    1.75
  -5   1  -6   30.44    1.79
   5  -1   7    0.15    0.83
   5  -1   7    2.00    0.91
  -5   1  -7   -0.34    0.80
   5  -1   7   -0.89    0.78
  -5   1  -7    0.69    0.82
   5  -1   7   -0.96    1.03
   5  -1   8    6.94    1.14
   5  -1   8    7.21    1.28
   5  -1   8    5.89    1.18
  -5   1  -8    6.31    1.19
   5  -1   8    6.17    1.23
  -5   1  -8    7.59    1.15
   5  -1   9    0.76    1.13
   5  -1   9    0.29    0.89
   5  -1   9    0.35    0.84
  -5   1  -9    1.49    0.96
  -5   1  -9    0.86    0.95
   5  -1   9   -0.05    1.03
   5  -1  10   -1.34    1.15
   5  -1  10    0.89    1.22
   5  -1  10    0.70    0.84
  -5   1 -10    1.93    1.04
  -5   1 -10    0.00    0.95
   5  -1  10   -0.74    1.03
   5  -1  11    2.05    1.24
   5  -1  11    7.55    1.50
   5  -1  11    4.50    1.49
   5  -1  11    4.49    1.12
  -5   1 -11    5.68    1.31
  -5   1 -11    3.64    1.33
   5  -1  12    1.10    1.21
   5  -1  12   -0.50    1.41
   5  -1  12    0.81    0.93
  -5   1 -12    1.42    1.05
  -5   1 -12   -1.10    1.16
   5  -1  12    0.10    1.16
   5  -1  13   23.74    2.68
  -5   1 -13   21.77    2.02
   5  -1  13   22.35    1.95
   5  -1  13   22.45    2.21
  -5   1 -13   20.51    2.22
   5  -1  14    0.94    1.37
   5  -1  14    1.16    0.96
   5  -1  15   13.46    2.29
   5  -1  15    7.79    1.50
   5  -1  16   -0.64    1.12
   5  -1  16    0.96    1.65
   5   0 -13   11.23    2.02
  -5   0  12    8.10    0.97
   5   0 -12    7.81    1.83
  -5   0  11    3.55    1.80
  -5   0  11    2.19    0.72
   5   0 -11    3.85    1.38
   5   0 -11    3.35    0.77
  -5   0  10    2.26    1.61
  -5   0  10   -0.03    0.67
   5   0 -10    0.09    1.19
   5   0 -10   -0.32    0.66
  -5   0   9   16.60    2.16
  -5   0   9   18.56    1.42
   5   0  -9   20.07    1.95
   5   0  -9   18.51    1.34
   5   0  -9   17.59    2.10
  -5   0   8   62.09    2.30
   5   0  -8   56.13    2.73
   5   0  -8   58.00    2.23
   5   0  -8   59.60    3.32
  -5   0   7    8.57    1.05
   5   0  -7    9.23    1.66
   5   0  -7    9.60    1.33
  -5   0   7    7.47    1.44
   5   0  -7    8.99    1.10
  -5   0   6   14.39    1.64
  -5   0   6   16.79    1.32
   5   0  -6   18.74    1.53
   5   0  -6   18.62    1.88
   5   0  -6   16.00    1.34
  -5   0   5   37.26    1.81
   5   0  -5   38.98    1.85
   5   0  -5   35.99    2.26
   5   0  -5   40.35    1.93
  -5   0   4   14.73    1.19
   5   0  -4   13.02    1.24
   5   0  -4   15.35    1.54
   5   0  -4   13.69    1.07
   5   0  -4   13.94    1.47
  -5   0   3    0.29    0.68
   5   0  -3    0.28    0.47
   5   0  -3   -0.40    0.89
   5   0  -3    0.47    0.84
   5   0  -3    0.89    0.73
   5   0  -2  345.66    3.38
  -5   0   2  346.34    5.00
   5   0  -2  346.09    5.61
   5   0  -2  348.46    5.55
   5   0  -2  341.92    5.15
   5   0  -1   68.48    1.21
  -5   0   1   73.85    2.39
   5   0  -1   74.24    2.61
   5   0  -1   69.79    2.45
  -5   0   1   70.71    2.63
   5   0  -1   70.45    2.44
   5   0   0    0.33    0.80
  -5   0   0    1.65    0.77
  -5   0   0   -0.48    0.76
   5   0   0   -0.15    0.76
  -5   0   0    1.28    0.85
   5   0   0   -0.65    0.77
  -5   0  -1   16.21    1.23
  -5   0  -1   19.37    1.43
   5   0   1   14.85    1.23
   5   0   1   17.87    1.32
  -5   0  -1   15.41    1.37
   5   0   1   14.88    1.31
  -5   0  -2  199.49    3.87
   5   0   2  191.44    1.98
   5   0   2  203.72    4.15
  -5   0  -2  191.26    3.99
   5   0   2  199.02    3.80
   5   0   2  199.13    3.80
   5   0   3   43.70    2.02
   5   0   3   44.95    1.26
  -5   0  -3   44.39    1.94
   5   0   3   44.08    1.90
   5   0   3   41.83    1.83
  -5   0  -3   44.13    1.96
   5   0   4    5.16    0.92
   5   0   4    6.72    1.03
   5   0   4    5.81    0.72
  -5   0  -4    5.83    1.02
   5   0   4    5.60    0.99
  -5   0  -4    5.40    0.95
   5   0   5   39.74    1.68
   5   0   5   44.06    2.05
   5   0   5   46.10    1.98
  -5   0  -5   44.00    2.04
  -5   0  -5   46.23    2.02
   5   0   5   41.13    2.00
   5   0   6   43.86    1.95
   5   0   6   43.37    2.04
  -5   0  -6   46.70    2.13
   5   0   6   46.00    2.02
  -5   0  -6   48.37    2.11
   5   0   6   44.22    2.11
   5   0   7   16.32    1.44
   5   0   7   16.59    1.37
   5   0   7   18.93    1.48
   5   0   7   16.68    1.51
  -5   0  -7   16.28    1.43
  -5   0  -7   18.32    1.44
   5   0   8   16.91    1.64
   5   0   8   15.67    1.48
   5   0   8   16.49    1.40
  -5   0  -8   14.34    1.41
  -5   0  -8   21.41    1.74
   5   0   8   15.12    1.54
  -5   0  -8   15.19    1.36
  -5   0  -9    7.78    1.12
   5   0   9    9.51    1.24
   5   0   9    6.09    1.28
  -5   0  -9    7.23    1.37
   5   0   9    7.26    1.29
  -5   0  -9    7.92    1.30
   5   0   9    7.22    1.46
   5   0  10   51.85    2.62
  -5   0 -10   45.99    2.40
   5   0  10   44.16    2.80
  -5   0 -10   44.70    2.63
   5   0  10   46.18    2.29
  -5   0 -10   42.53    2.51
   5   0  10   50.25    2.80
   5   0  11   37.65    2.84
  -5   0 -11   37.70    2.25
  -5   0 -11   35.64    2.64
   5   0  11   39.12    2.18
   5   0  11   38.41    2.30
  -5   0 -11   45.02    2.65
   5   0  11   38.06    2.68
   5   0  12   19.26    2.24
  -5   0 -12   18.65    1.82
   5   0  12   19.59    1.67
  -5   0 -12   17.54    2.16
   5   0  12   19.58    1.91
  -5   0 -12   17.82    1.97
   5   0  12   19.87    2.17
   5   0  13    2.30    1.23
   5   0  13    0.09    1.53
   5   0  13    2.56    1.03
  -5   0 -13   -1.42    1.51
  -5   0 -13    1.86    1.12
  -5   0 -13   -0.45    1.32
   5   0  14   15.47    2.53
  -5   0 -14   11.65    1.68
   5   0  14   11.61    1.46
  -5   0 -14   11.81    2.10
   5   0  14   12.46    1.93
   5   0  15    6.12    1.33
  -5   0 -15    5.38    1.71
   5   0  15    6.37    1.75
   5   0  16   13.44    1.66
   5   0  16   18.30    2.38
   5   1 -13    2.85    1.56
  -5  -1  13    5.78    1.07
  -5  -1  12    1.45    0.91
  -5  -1  12    1.23    1.81
   5   1 -12    0.39    1.36
  -5  -1  11    3.48    0.97
  -5  -1  11    5.61    1.93
   5   1 -11    2.67    1.34
   5   1 -11    5.65    0.98
   5   1 -11    5.95    1.55
  -5  -1  10   12.44    1.99
   5   1 -10   11.68    1.18
  -5  -1  10   10.81    1.26
  -5  -1   9    0.19    0.84
  -5  -1   9   -1.01    1.45
   5   1  -9    0.34    1.13
   5   1  -9    1.04    0.84
  -5  -1   8   35.96    2.70
   5   1  -8   38.53    2.41
   5   1  -8   40.88    2.04
   5   1  -8   39.06    2.84
  -5  -1   8   42.01    2.08
  -5  -1   7    3.50    0.91
  -5  -1   7    3.96    1.17
   5   1  -7    2.67    1.01
   5   1  -7    4.30    1.48
   5   1  -7    2.93    0.81
   5   1  -6    2.94    1.23
  -5  -1   6    2.71    0.86
  -5  -1   6    3.13    1.08
   5   1  -6    2.58    0.98
   5   1  -6    2.77    0.90
  -5  -1   5    2.12    0.81
  -5  -1   5    2.24    1.00
   5   1  -5    2.07    0.85
   5   1  -5    3.94    1.27
   5   1  -5    1.18    0.76
  -5  -1   4   26.12    1.55
   5   1  -4   26.13    1.92
   5   1  -4   28.47    1.42
   5   1  -4   31.08    1.74
  -5  -1   4   27.67    1.66
  -5  -1   3  100.24    2.52
   5   1  -3  102.88    2.20
   5   1  -3  107.31    3.05
   5   1  -3  101.96    3.33
   5   1  -3  102.43    3.35
  -5  -1   3  104.08    2.96
  -5  -1   2   65.46    2.40
   5   1  -2   64.34    2.60
   5   1  -2   68.56    2.63
   5   1  -2   62.68    2.37
  -5  -1   1   30.19    1.66
   5   1  -1   33.65    1.77
   5   1  -1   27.47    1.71
  -5  -1   1   29.84    1.86
   5   1  -1   30.95    1.73
  -5  -1   0   13.30    1.25
   5   1   0   14.54    1.36
  -5  -1   0   11.38    1.29
   5   1   0   14.65    1.25
   5   1   0   11.74    1.21
  -5  -1  -1    6.20    1.08
   5   1   1    4.81    0.88
  -5  -1  -1    6.50    1.08
   5   1   1    8.85    1.18
  -5  -1  -1    6.40    1.00
   5   1   1    7.00    1.14
  -5  -1  -2  118.78    2.99
  -5  -1  -2  129.65    3.30
  -5  -1  -2  129.55    3.18
   5   1   2  131.59    3.08
   5   1   2  129.13    3.11
   5   1   2  121.69    3.14
   5   1   3  273.01    2.85
  -5  -1  -3  276.04    4.58
  -5  -1  -3  272.99    4.49
   5   1   3  278.53    4.45
  -5  -1  -3  289.08    4.71
   5   1   3  283.22    4.41
   5   1   3  273.74    4.73
   5   1   4    4.98    0.71
  -5  -1  -4    5.71    0.65
   5   1   4    4.83    1.05
  -5  -1  -4    7.80    1.03
  -5  -1  -4    6.88    1.15
  -5  -1  -4    4.85    0.90
   5   1   4    5.07    0.98
   5   1   4    6.16    0.94
   5   1   5   14.63    1.35
   5   1   5   13.09    1.05
   5   1   5   13.51    1.18
  -5  -1  -5   12.47    0.97
  -5  -1  -5   13.59    1.25
  -5  -1  -5   13.76    1.21
   5   1   5   13.74    1.28
   5   1   6   33.06    1.90
   5   1   6   33.37    1.83
  -5  -1  -6   33.74    1.76
  -5  -1  -6   30.40    1.53
   5   1   6   34.29    1.74
  -5  -1  -6   32.41    1.79
   5   1   7    0.74    0.76
  -5  -1  -7    1.39    0.82
   5   1   7    1.78    0.92
   5   1   7    1.14    0.79
  -5  -1  -7    0.72    0.77
  -5  -1  -7    1.07    0.94
   5   1   7    1.73    0.91
   5   1   8    8.08    1.24
   5   1   8    7.33    1.07
  -5  -1  -8    9.49    1.26
   5   1   8    6.94    1.10
  -5  -1  -8    6.42    1.02
   5   1   8    8.09    1.32
   5   1   9    3.61    1.28
   5   1   9    3.26    0.92
  -5  -1  -9    3.66    0.94
  -5  -1  -9    2.95    1.12
   5   1   9    2.13    0.90
  -5  -1  -9    2.75    1.10
   5   1   9    2.49    0.97
   5   1  10   32.01    2.39
   5   1  10   35.00    1.98
  -5  -1 -10   37.47    2.32
  -5  -1 -10   32.71    2.18
   5   1  10   28.16    2.17
   5   1  10   32.01    2.08
  -5  -1 -10   30.07    1.89
  -5  -1 -11   11.70    1.43
   5   1  11   11.64    1.87
   5   1  11   10.90    1.28
   5   1  11   11.99    1.50
  -5  -1 -11    9.78    1.61
  -5  -1 -11   11.97    1.60
   5   1  11   10.21    1.73
   5   1  12    2.87    1.28
   5   1  12    3.48    1.57
   5   1  12    2.53    1.00
  -5  -1 -12    1.40    1.29
  -5  -1 -12    2.37    1.02
   5   1  12    0.90    1.02
  -5  -1 -12    3.58    1.32
   5   1  13    3.32    1.47
   5   1  13    4.11    1.82
   5   1  13    2.36    1.01
  -5  -1 -13    2.69    1.29
  -5  -1 -13    3.80    1.21
  -5  -1 -13    2.38    1.05
   5   1  13    1.90    1.10
   5   1  14   -0.07    1.58
   5   1  14    2.08    0.94
  -5  -1 -14   -0.77    1.60
   5   1  14    1.31    1.29
  -5  -1 -14   -0.90    0.97
   5   1  15   -0.26    0.94
  -5  -1 -15   -0.78    1.63
   5   1  15    0.94    1.29
   5   1  16    1.37    0.97
  -5  -1 -16    1.16    1.85
   5   1  16    4.20    1.64
   5   1  17    3.62    1.63
  -5  -1 -17   -0.49    1.82
  -5  -2  13    1.52    0.92
  -5  -2  12    1.01    0.92
  -5  -2  12    1.43    1.66
  -5  -2  11   16.28    2.49
  -5  -2  11   14.91    1.59
  -5  -2  10    3.01    1.07
  -5  -2  10    2.21    1.61
   5   2 -10    1.75    0.97
   5   2  -9   21.13    1.68
  -5  -2   9   24.03    1.85
  -5  -2   9   23.39    2.45
  -5  -2   8    4.87    1.11
   5   2  -8    6.45    1.10
  -5  -2   8    5.67    1.45
   5   2  -8    1.98    1.38
  -5  -2   7   60.66    2.96
   5   2  -7   58.74    2.50
   5   2  -7   60.81    3.41
  -5  -2   7   58.15    2.53
  -5  -2   6   -0.20    0.89
  -5  -2   6   -0.15    0.96
   5   2  -6    1.74    1.25
   5   2  -6    0.42    0.78
  -5  -2   5   12.58    1.33
   5   2  -5   14.97    1.37
   5   2  -5   14.31    1.78
  -5  -2   5   11.72    1.27
  -5  -2   4    8.06    1.01
   5   2  -4    7.93    1.12
   5   2  -4    8.24    1.35
  -5  -2   4    6.82    1.06
  -5  -2   3  169.97    3.18
   5   2  -3  169.08    3.88
   5   2  -3  167.54    4.35
  -5  -2   3  163.29    3.86
  -5  -2   2   -0.51    0.81
  -5  -2   2   -0.62    0.51
   5   2  -2   -1.03    0.87
   5   2  -2    0.81    0.95
   5   2  -2   -1.15    0.87
  -5  -2   1   22.36    0.87
   5   2  -1   20.26    1.55
   5   2  -1   18.65    1.51
  -5  -2   1   22.27    1.67
   5   2  -1   19.65    1.47
  -5  -2   1   20.54    1.47
   5   2   0   19.78    1.50
  -5  -2   0   22.67    1.58
   5   2   0   22.35    1.58
   5   2   0   22.61    1.54
  -5  -2   0   22.29    1.52
  -5  -2  -1  153.44    3.60
  -5  -2  -1  152.11    3.60
   5   2   1  155.15    3.51
   5   2   1  158.02    3.62
   5   2   1  151.92    3.46
  -5  -2  -2   33.72    1.85
   5   2   2   37.30    1.82
  -5  -2  -2   37.94    1.86
   5   2   2   36.55    1.85
   5   2   2   36.18    1.72
  -5  -2  -2   35.73    1.78
   5   2   3    2.27    0.78
   5   2   3    0.21    0.69
  -5  -2  -3    1.90    0.41
  -5  -2  -3    1.90    0.80
  -5  -2  -3    1.43    0.76
  -5  -2  -3    0.95    0.78
   5   2   3    0.86    0.78
   5   2   4    2.15    0.93
   5   2   4    0.55    0.65
  -5  -2  -4    0.48    0.73
  -5  -2  -4    1.85    0.73
  -5  -2  -4    0.80    0.56
  -5  -2  -4    2.61    0.87
   5   2   4    0.96    0.80
   5   2   5   -1.11    0.77
   5   2   5   -1.16    0.81
   5   2   5   -1.04    0.74
  -5  -2  -5    0.14    0.65
  -5  -2  -5   -0.04    0.68
   5   2   5   -0.16    0.69
  -5  -2  -5   -0.63    0.85
  -5  -2  -5   -0.02    0.70
   5   2   6   10.67    1.25
  -5  -2  -6   11.60    1.02
   5   2   6    9.79    1.04
  -5  -2  -6    9.88    1.10
  -5  -2  -6   10.91    1.24
   5   2   6    9.28    1.23
   5   2   6   11.98    1.24
   5   2   7    5.69    0.98
   5   2   7    5.43    1.16
  -5  -2  -7    3.76    0.93
  -5  -2  -7    5.81    0.94
  -5  -2  -7    4.33    0.97
   5   2   7    4.52    0.88
   5   2   7    4.62    1.03
   5   2   8    9.64    1.48
  -5  -2  -8   11.54    1.27
   5   2   8    9.40    1.12
  -5  -2  -8   12.25    1.34
  -5  -2  -8   11.42    1.15
   5   2   8   10.07    1.35
   5   2   8   10.24    1.21
   5   2   9   12.47    1.32
   5   2   9   13.12    1.70
  -5  -2  -9   12.07    1.42
  -5  -2  -9   17.75    1.61
   5   2   9   11.44    1.23
  -5  -2  -9   13.43    1.29
   5   2   9   13.77    1.53
   5   2  10    0.86    1.21
   5   2  10    1.53    0.84
  -5  -2 -10   -0.84    0.85
  -5  -2 -10   -0.22    1.15
   5   2  10    0.26    0.88
  -5  -2 -10    0.25    1.02
   5   2  10   -0.24    1.05
   5   2  11   40.64    2.17
   5   2  11   41.36    2.93
   5   2  11   38.77    2.20
  -5  -2 -11   39.78    2.61
  -5  -2 -11   42.39    2.56
   5   2  11   44.18    2.68
  -5  -2 -11   35.36    2.04
   5   2  12    7.64    1.14
   5   2  12    8.49    1.89
   5   2  12    7.42    1.33
  -5  -2 -12    5.30    1.49
  -5  -2 -12    7.13    1.19
  -5  -2 -12    7.14    1.26
   5   2  12    9.78    1.67
   5   2  13   46.91    2.34
  -5  -2 -13   41.21    2.39
   5   2  13   42.01    3.39
  -5  -2 -13   41.23    2.97
   5   2  13   39.08    2.50
  -5  -2 -13   42.84    2.77
   5   2  13   40.28    2.86
  -5  -2 -14   10.55    1.47
   5   2  14   12.80    2.29
  -5  -2 -14    8.71    1.96
   5   2  14   13.13    1.74
  -5  -2 -14    7.79    1.55
   5   2  14   12.48    1.37
   5   2  15    0.85    0.79
  -5  -2 -15    0.29    1.46
  -5  -2 -15    1.66    1.04
   5   2  15    0.98    1.30
  -5  -2 -16    7.44    2.14
   5   2  16    8.05    1.70
   5   2  16    8.22    1.23
  -5  -2 -17   59.66    4.19
   5   2  17   68.27    3.94
  -5  -3  13    1.06    1.26
  -5  -3  12   -0.04    1.10
  -5  -3  11    1.97    1.13
  -5  -3  11    3.41    1.84
  -5  -3  10    4.60    1.19
   5   3 -10    5.18    1.16
  -5  -3   9    9.81    1.91
   5   3  -9   11.58    1.37
  -5  -3   9   10.77    1.45
  -5  -3   8    6.41    1.25
  -5  -3   8    8.72    1.62
   5   3  -8    8.49    1.29
   5   3  -8    8.51    1.84
  -5  -3   7    0.02    1.07
   5   3  -7    2.10    1.33
   5   3  -7    1.87    0.93
  -5  -3   7    1.95    0.99
  -5  -3   6   14.12    1.55
   5   3  -6   13.75    1.46
   5   3  -6   17.03    2.04
  -5  -3   6   12.62    1.47
  -5  -3   5    0.66    0.91
   5   3  -5    1.39    0.83
   5   3  -5    0.86    1.14
  -5  -3   5    0.48    0.85
  -5  -3   4    7.79    1.15
  -5  -3   4    9.04    1.08
   5   3  -4    9.80    1.27
   5   3  -4    8.72    1.42
  -5  -3   3  227.41    3.84
   5   3  -3  217.15    5.03
   5   3  -3  222.33    4.63
  -5  -3   3  212.66    4.59
  -5  -3   2    3.91    1.01
  -5  -3   2    4.95    0.73
   5   3  -2    4.65    0.99
   5   3  -2    3.93    1.14
  -5  -3   1   14.92    0.91
   5   3  -1   11.52    1.23
   5   3  -1   13.79    1.36
   5   3  -1   11.55    1.31
  -5  -3   1   12.08    1.32
  -5  -3   0  133.88    2.02
   5   3   0  137.13    3.56
   5   3   0  138.50    3.43
   5   3   0  139.17    3.59
  -5  -3   0  142.49    3.71
  -5  -3   0  134.51    3.47
  -5  -3  -1    1.83    0.94
   5   3   1    5.25    1.06
   5   3   1    4.03    0.95
  -5  -3  -1    6.32    1.18
   5   3   1    3.93    1.02
   5   3   2   17.76    1.30
  -5  -3  -2   16.25    1.31
  -5  -3  -2   16.67    1.35
   5   3   2   19.78    1.41
   5   3   2   19.81    1.49
  -5  -3  -3   -1.52    0.88
  -5  -3  -3    1.10    0.88
  -5  -3  -3   -0.35    0.56
  -5  -3  -3   -0.47    0.80
   5   3   3    0.88    0.72
   5   3   3    0.79    0.68
   5   3   3    0.88    0.90
   5   3   4   -0.61    0.70
  -5  -3  -4    0.04    0.61
  -5  -3  -4    0.65    0.91
   5   3   4   -0.04    0.78
   5   3   4    0.43    0.80
  -5  -3  -4   -0.74    0.79
  -5  -3  -4    0.46    0.73
  -5  -3  -5   19.05    1.21
  -5  -3  -5   19.06    1.39
  -5  -3  -5   18.64    1.41
  -5  -3  -5   18.03    1.32
   5   3   5   19.18    1.24
   5   3   5   19.97    1.50
   5   3   5   17.30    1.39
  -5  -3  -6    7.19    0.96
   5   3   6    7.83    0.90
  -5  -3  -6    5.94    0.92
  -5  -3  -6    8.60    1.11
  -5  -3  -6    6.34    0.92
   5   3   6    8.38    1.18
   5   3   6    7.31    1.00
  -5  -3  -7   17.49    1.27
  -5  -3  -7   15.54    1.35
  -5  -3  -7   15.89    1.27
   5   3   7   17.62    1.48
   5   3   7   14.30    1.16
  -5  -3  -7   17.07    1.42
   5   3   7   16.34    1.36
   5   3   8    0.96    0.76
  -5  -3  -8    0.21    0.66
   5   3   8    0.24    0.71
   5   3   8    0.75    0.96
  -5  -3  -8    0.92    0.86
  -5  -3  -8    0.92    0.79
   5   3   8    0.94    0.88
   5   3   9    3.91    0.88
  -5  -3  -9    1.89    0.79
   5   3   9    5.81    1.37
  -5  -3  -9    3.69    1.15
   5   3   9    2.66    0.87
  -5  -3  -9    2.78    0.94
   5   3   9    3.80    1.17
   5   3  10   -0.40    0.71
   5   3  10    1.10    1.26
  -5  -3 -10   -0.42    0.73
  -5  -3 -10   -0.54    1.16
   5   3  10    0.30    0.78
  -5  -3 -10   -0.10    1.07
   5   3  10    0.77    1.12
   5   3  11   37.83    2.81
   5   3  11   40.10    2.15
  -5  -3 -11   41.65    2.64
  -5  -3 -11   36.82    2.34
  -5  -3 -11   38.23    2.02
   5   3  11   33.82    2.44
   5   3  11   38.76    1.99
   5   3  12    1.88    1.23
   5   3  12    2.95    0.88
   5   3  12    2.44    1.61
  -5  -3 -12    2.97    1.00
  -5  -3 -12    0.43    1.24
  -5  -3 -12    4.40    1.37
   5   3  12    2.01    0.86
   5   3  13   12.80    2.31
  -5  -3 -13   14.47    1.97
   5   3  13   13.87    1.68
  -5  -3 -13   14.73    1.71
   5   3  13   15.17    1.40
   5   3  13   18.54    2.11
  -5  -3 -13   14.47    1.53
   5   3  14    0.70    0.73
   5   3  14    1.44    1.74
   5   3  14    0.66    0.99
  -5  -3 -14   -1.34    1.60
  -5  -3 -14    1.08    0.98
  -5  -3 -14    3.78    1.37
   5   3  15    3.07    0.91
  -5  -3 -15    1.41    1.55
  -5  -3 -15    2.89    1.11
   5   3  15    2.41    1.26
   5   3  16    8.82    1.19
   5   3  16   10.56    1.83
  -5  -3 -16   10.82    2.38
  -5  -3 -16    6.70    1.29
   5   3  17   58.43    3.57
  -5  -3 -17   53.34    3.96
  -5  -4  12   -1.24    1.23
  -5  -4  11    0.13    1.55
  -5  -4  11    0.10    1.24
  -5  -4  10    2.95    1.70
   5   4 -10    1.38    1.01
  -5  -4  10    3.33    1.26
   5   4  -9    1.83    1.44
  -5  -4   9    1.60    1.43
   5   4  -9    0.54    1.00
  -5  -4   9    3.29    1.24
  -5  -4   8    0.87    1.44
   5   4  -8    1.48    1.05
   5   4  -8   -0.09    1.39
  -5  -4   8   -0.18    1.01
  -5  -4   7    9.60    1.60
   5   4  -7    9.43    1.40
   5   4  -7   14.03    2.01
  -5  -4   7   10.78    1.51
  -5  -4   6   48.04    2.55
   5   4  -6   47.12    2.48
   5   4  -6   45.22    3.00
  -5  -4   6   49.63    2.65
  -5  -4   5   29.04    1.95
   5   4  -5   30.02    2.01
   5   4  -5   32.91    2.47
  -5  -4   5   28.01    2.01
  -5  -4   4    7.79    1.13
   5   4  -4    7.30    1.22
   5   4  -4   10.57    1.63
  -5  -4   4   10.63    1.45
  -5  -4   3    8.07    1.06
   5   4  -3    8.70    1.31
   5   4  -3    6.94    1.28
  -5  -4   3    7.60    1.23
  -5  -4   2    0.60    0.67
   5   4  -2    2.20    1.02
   5   4  -2    2.03    0.85
  -5  -4   2    1.94    0.94
   5   4  -1    4.63    0.98
  -5  -4   1    3.72    0.71
   5   4  -1    2.13    0.92
  -5  -4   1    4.56    1.18
  -5  -4   0    9.90    1.24
   5   4   0    9.08    1.19
   5   4   0    8.98    1.26
  -5  -4   0   10.43    1.29
   5   4   0    9.88    1.18
   5   4   1   22.26    1.64
   5   4   1   21.48    1.55
  -5  -4  -1   20.46    1.55
   5   4   1   22.09    1.49
  -5  -4  -1   21.02    1.57
   5   4   2   16.10    1.39
  -5  -4  -2   13.64    1.30
   5   4   2   11.95    1.21
   5   4   2   11.90    1.33
  -5  -4  -2   11.68    1.20
   5   4   3   11.33    1.10
  -5  -4  -3   12.48    1.21
   5   4   3   11.40    1.17
   5   4   3   12.77    1.35
  -5  -4  -3   12.02    1.24
  -5  -4  -4   35.02    1.71
  -5  -4  -4   35.83    1.77
  -5  -4  -4   35.63    1.76
   5   4   4   36.06    1.62
   5   4   4   35.71    1.77
   5   4   4   39.48    1.98
  -5  -4  -4   35.63    1.88
  -5  -4  -5   15.97    1.37
  -5  -4  -5   14.25    1.28
   5   4   5   14.03    1.09
  -5  -4  -5   13.39    1.19
   5   4   5   14.94    1.33
   5   4   5   15.08    1.28
  -5  -4  -5   15.44    1.34
  -5  -4  -6    1.99    0.95
  -5  -4  -6    1.25    0.77
   5   4   6    0.14    0.56
  -5  -4  -6    1.51    0.71
  -5  -4  -6    0.91    0.75
   5   4   6    1.84    0.84
   5   4   6    1.89    0.76
  -5  -4  -7    6.21    1.20
  -5  -4  -7    5.33    0.93
   5   4   7    4.09    1.00
   5   4   7    5.16    0.81
  -5  -4  -7    3.56    0.92
  -5  -4  -7    4.12    0.82
   5   4   7    3.78    0.85
   5   4   8    4.49    0.92
  -5  -4  -8    4.26    1.10
  -5  -4  -8    4.21    0.78
   5   4   8    5.21    0.87
  -5  -4  -8    3.70    0.87
   5   4   8    2.97    0.92
  -5  -4  -8    4.15    0.78
  -5  -4  -9    9.58    1.40
   5   4   9   10.60    1.08
  -5  -4  -9   11.45    1.15
  -5  -4  -9   12.11    1.33
   5   4   9   10.08    1.14
   5   4   9   10.81    1.38
  -5  -4 -10  938.91   10.97
   5   4  10  967.09    8.80
  -5  -4 -10  940.56    8.80
   5   4  10  958.88    9.00
   5   4  10  975.48   10.83
  -5  -4 -10  944.21   10.22
   5   4  11    5.68    1.07
  -5  -4 -11   11.66    1.70
  -5  -4 -11    8.16    1.44
  -5  -4 -11    8.45    1.12
   5   4  11    9.51    1.18
   5   4  11   11.60    1.67
   5   4  12    0.30    1.08
   5   4  12    0.54    0.75
  -5  -4 -12   -0.04    0.76
  -5  -4 -12    0.97    1.40
   5   4  12   -1.03    0.87
  -5  -4 -12    0.25    1.15
   5   4  13    0.73    1.24
   5   4  13    1.48    0.89
  -5  -4 -13    1.42    0.88
  -5  -4 -13    0.95    1.40
  -5  -4 -13    1.86    1.13
   5   4  13    3.24    1.05
   5   4  14   14.35    2.09
  -5  -4 -14   12.84    2.03
   5   4  14   15.61    1.73
  -5  -4 -14   16.75    1.94
   5   4  14   12.91    1.30
  -5  -4 -14   14.87    1.52
  -5  -4 -15    2.36    0.94
   5   4  15    3.76    1.33
   5   4  15    3.36    0.86
  -5  -4 -16    3.27    1.85
  -5  -4 -16    3.97    1.19
   5   4  16    3.27    1.31
   5   4  16    3.23    0.81
   5   4  17   14.84    1.93
  -5  -4 -17   12.50    2.54
  -5  -4 -17   14.93    1.72
  -5  -5  11    1.02    1.34
  -5  -5  10    4.87    1.74
  -5  -5  10    4.46    1.42
  -5  -5   9   -0.02    1.40
   5   5  -9    1.79    1.16
   5   5  -9    3.24    1.70
  -5  -5   9    2.90    1.47
  -5  -5   8    4.11    1.42
   5   5  -8    1.85    1.00
   5   5  -8    2.70    1.70
   5   5  -8    1.22    1.30
  -5  -5   8    4.52    1.40
  -5  -5   7    2.98    1.31
   5   5  -7    4.25    1.23
   5   5  -7    4.42    1.54
  -5  -5   7    5.07    1.45
   5   5  -6    1.71    1.02
  -5  -5   6    1.55    1.12
   5   5  -6    2.42    1.44
  -5  -5   6    1.77    1.17
  -5  -5   5   39.76    2.35
  -5  -5   5   42.98    2.57
   5   5  -5   39.66    2.35
   5   5  -5   44.95    2.87
   5   5  -4    1.62    1.03
  -5  -5   4    0.84    0.89
   5   5  -4    0.31    1.17
  -5  -5   4   -1.35    1.17
   5   5  -3    2.40    0.98
  -5  -5   3    2.90    0.89
   5   5  -3    1.27    1.15
  -5  -5   3    1.67    1.11
  -5  -5   2   40.16    1.89
   5   5  -2   36.57    2.14
   5   5  -2   42.80    2.31
  -5  -5   2   42.17    2.45
   5   5  -1    6.05    1.10
   5   5  -1    6.73    1.19
  -5  -5   1    6.31    1.19
   5   5   0    0.13    0.81
   5   5   0    0.40    0.85
  -5  -5   0   -0.41    0.80
  -5  -5  -1    6.63    1.05
   5   5   1    8.56    1.13
   5   5   1    8.67    1.15
   5   5   1    6.10    1.06
  -5  -5  -1    7.28    1.16
   5   5   2   24.91    1.59
   5   5   2   24.34    1.58
  -5  -5  -2   20.79    1.54
   5   5   2   20.92    1.65
  -5  -5  -2   25.22    1.79
  -5  -5  -3    6.29    1.07
  -5  -5  -3    6.04    0.94
   5   5   3    6.79    0.96
   5   5   3    5.52    1.06
   5   5   3    6.61    0.97
  -5  -5  -4    4.76    0.91
   5   5   4    6.37    1.00
   5   5   4    5.70    0.81
   5   5   4    5.16    1.08
  -5  -5  -4    5.20    1.05
  -5  -5  -5   82.37    2.91
  -5  -5  -5   90.41    2.65
  -5  -5  -5   87.62    2.71
   5   5   5   86.20    2.92
   5   5   5   84.07    2.33
   5   5   5   87.77    2.71
  -5  -5  -5   85.09    2.83
   5   5   6   28.79    1.73
  -5  -5  -6   29.04    1.95
  -5  -5  -6   32.03    1.66
   5   5   6   28.99    1.69
   5   5   6   32.06    1.44
  -5  -5  -6   31.51    1.87
  -5  -5  -6   32.37    1.80
  -5  -5  -7    1.46    1.11
  -5  -5  -7    0.41    0.69
   5   5   7   -0.43    0.59
  -5  -5  -7    1.48    0.76
  -5  -5  -7    0.42    0.66
   5   5   7    1.19    0.80
   5   5   7    0.18    0.78
  -5  -5  -8   49.38    2.60
  -5  -5  -8   47.82    2.05
   5   5   8   41.00    1.71
  -5  -5  -8   45.30    1.89
  -5  -5  -8   49.50    2.26
   5   5   8   45.53    2.11
   5   5   8   50.16    2.34
   5   5   9   10.78    1.20
  -5  -5  -9   15.37    1.82
  -5  -5  -9   10.93    1.13
   5   5   9   11.16    1.04
  -5  -5  -9   12.63    1.43
  -5  -5  -9   11.11    1.16
   5   5   9   12.11    1.46
  -5  -5 -10  102.86    3.94
  -5  -5 -10  100.89    2.84
  -5  -5 -10  103.57    3.42
   5   5  10  105.86    3.10
   5   5  10  109.47    2.88
   5   5  10  102.61    3.61
   5   5  11   38.12    1.88
  -5  -5 -11   40.10    2.70
  -5  -5 -11   38.92    1.90
  -5  -5 -11   36.99    2.28
   5   5  11   38.83    2.41
   5   5  11   36.04    1.95
  -5  -5 -12   88.66    4.05
   5   5  12   78.50    2.81
  -5  -5 -12   79.93    2.76
   5   5  12   87.31    2.82
  -5  -5 -12   88.42    3.51
   5   5  12   83.28    3.66
  -5  -5 -13    3.18    0.96
  -5  -5 -13    1.09    1.45
  -5  -5 -13    3.86    1.35
   5   5  13    3.32    0.94
   5   5  13    3.93    1.08
   5   5  13    1.52    1.25
   5   5  14   -0.09    1.35
  -5  -5 -14    0.27    0.85
  -5  -5 -14   -2.85    1.77
   5   5  14    1.13    0.90
  -5  -5 -14    1.17    1.08
   5   5  14    0.27    0.71
   5   5  15   -1.13    1.12
  -5  -5 -15    0.19    0.82
  -5  -5 -15   -0.64    1.60
   5   5  15    0.23    0.65
  -5  -5 -16    1.28    0.94
  -5  -5 -16   -1.70    1.76
   5   5  16    1.27    1.21
   5   5  16    0.67    0.62
  -5  -5 -17    2.92    1.09
  -5  -5 -17    1.12    1.99
   5   6 -11    1.93    1.80
  -5  -6  11    0.08    1.48
   5   6 -10    0.38    1.54
  -5  -6  10    2.43    1.60
   5   6  -9   -0.21    1.49
  -5  -6   9   -1.02    1.52
  -5  -6   9    2.27    1.51
  -5  -6   8    2.09    1.39
   5   6  -8   -0.16    1.04
   5   6  -8    1.64    1.62
  -5  -6   8   -0.93    1.42
  -5  -6   7    1.80    1.25
   5   6  -7    0.97    1.35
   5   6  -7    0.42    1.08
   5   6  -7   -0.88    1.30
  -5  -6   7    4.27    1.56
  -5  -6   6    2.01    1.16
   5   6  -6    3.56    1.23
   5   6  -6    0.99    1.26
  -5  -6   6    2.53    1.22
  -5  -6   5   28.42    2.17
   5   6  -5   23.66    2.10
   5   6  -5   25.94    2.37
  -5  -6   5   23.16    2.12
  -5  -6   4    0.50    1.00
   5   6  -4    0.47    1.13
   5   6  -4    1.03    0.96
  -5  -6   4    0.62    1.20
  -5  -6   3  210.84    4.78
   5   6  -3  202.71    5.03
  -5  -6   3  222.39    5.53
   5   6  -3  209.19    5.23
   5   6  -2    0.67    0.98
  -5  -6   2    0.51    0.86
   5   6  -2    1.38    0.99
  -5  -6   2    0.41    1.11
   5   6  -1   16.30    1.59
   5   6  -1   16.12    1.60
  -5  -6   1   14.71    1.63
   5   6   0    4.25    0.95
   5   6   0    5.58    1.21
  -5  -6   0    2.87    1.22
   5   6   1  100.37    3.32
   5   6   1  101.95    3.20
  -5  -6  -1  104.72    3.58
  -5  -6  -1  103.99    3.32
   5   6   1   95.31    2.93
   5   6   2    1.49    0.77
   5   6   2    2.16    1.02
   5   6   2    2.63    0.81
  -5  -6  -2    2.26    0.83
  -5  -6  -2    2.10    0.94
   5   6   3    9.17    1.25
   5   6   3    7.23    1.02
  -5  -6  -3    8.62    1.13
   5   6   3    8.50    1.03
  -5  -6  -3    7.96    1.16
   5   6   4   42.71    2.17
   5   6   4   39.07    1.76
  -5  -6  -4   46.10    2.05
   5   6   4   42.39    1.91
  -5  -6  -4   46.61    2.30
   5   6   5   58.39    2.48
  -5  -6  -5   61.14    2.33
   5   6   5   59.04    1.96
   5   6   5   59.08    2.28
  -5  -6  -5   60.36    2.50
  -5  -6  -6    2.17    0.85
  -5  -6  -6    2.08    1.17
   5   6   6    2.26    0.67
   5   6   6    2.05    0.94
  -5  -6  -6    2.55    0.87
   5   6   6    2.11    0.86
  -5  -6  -7   13.32    1.72
   5   6   7    9.92    0.92
  -5  -6  -7   12.45    1.13
   5   6   7   12.09    1.28
  -5  -6  -7   10.32    1.27
   5   6   7    8.95    1.15
  -5  -6  -7    8.40    1.12
  -5  -6  -8    9.00    1.16
  -5  -6  -8   10.72    1.64
   5   6   8   10.24    0.93
  -5  -6  -8   11.94    1.14
   5   6   8    9.23    1.15
  -5  -6  -8    9.47    1.18
   5   6   8    9.10    1.17
  -5  -6  -9  106.21    4.11
  -5  -6  -9  110.97    3.11
  -5  -6  -9  114.26    3.42
  -5  -6  -9  114.54    2.93
   5   6   9  108.91    2.63
   5   6   9  112.65    3.20
   5   6   9  113.97    3.52
  -5  -6 -10    9.76    1.13
  -5  -6 -10    8.79    1.61
  -5  -6 -10    8.78    1.04
   5   6  10    9.98    1.21
  -5  -6 -10    8.95    1.24
   5   6  10    9.84    1.01
   5   6  10    8.20    1.35
   5   6  11  647.55    6.86
  -5  -6 -11  646.92   10.42
   5   6  11  644.03    7.42
  -5  -6 -11  645.96    8.56
  -5  -6 -11  643.93    7.00
   5   6  11  653.73    9.18
  -5  -6 -12   25.11    2.55
   5   6  12   23.66    1.54
  -5  -6 -12   24.93    1.55
   5   6  12   24.40    1.56
  -5  -6 -12   22.71    2.01
   5   6  12   26.21    2.23
  -5  -6 -13   31.00    2.81
   5   6  13   32.85    1.87
   5   6  13   33.53    1.76
  -5  -6 -13   29.56    2.22
  -5  -6 -13   37.93    1.95
   5   6  13   33.70    2.53
   5   6  14    4.51    1.43
  -5  -6 -14    5.39    1.00
  -5  -6 -14    4.70    1.98
   5   6  14    4.07    0.82
  -5  -6 -14    3.27    1.28
   5   6  14    6.73    1.22
  -5  -6 -15    2.39    0.89
  -5  -6 -15    1.27    1.73
  -5  -6 -15    3.03    1.33
   5   6  15    1.40    0.61
   5   6  15    3.13    1.11
  -5  -6 -16    0.26    0.95
  -5  -6 -16    3.38    1.97
  -5  -6 -17    3.58    1.89
   5   7 -10    6.67    2.19
  -5  -7  10    7.59    1.91
   5   7  -9    2.69    1.68
  -5  -7   9   -0.40    1.45
  -5  -7   8   -0.51    1.39
   5   7  -8    0.49    1.50
  -5  -7   8   -1.16    1.34
   5   7  -7    6.39    1.84
  -5  -7   7    7.92    1.78
   5   7  -7    6.33    1.47
  -5  -7   7    8.63    1.79
  -5  -7   6    2.97    1.50
   5   7  -6   -0.31    1.08
   5   7  -6   -0.55    1.26
   5   7  -6    1.68    1.25
  -5  -7   6   -0.15    1.21
  -5  -7   5   -0.75    1.18
   5   7  -5    2.09    1.12
   5   7  -5    1.70    1.16
  -5  -7   5   -0.67    1.20
  -5  -7   4   27.15    2.13
   5   7  -4   25.48    2.16
   5   7  -4   29.17    2.36
  -5  -7   4   27.29    2.38
  -5  -7   3    1.89    1.17
   5   7  -3    5.03    1.41
   5   7  -3    0.59    1.04
  -5  -7   3    4.90    1.39
   5   7  -2   24.34    1.95
   5   7  -2   23.43    1.90
  -5  -7   2   24.40    2.25
   5   7  -1   73.68    2.90
   5   7  -1   71.43    3.09
  -5  -7   1   76.06    3.40
   5   7   0    5.44    1.06
   5   7   0    4.19    1.12
  -5  -7   0    5.80    1.40
   5   7   1    0.43    0.97
   5   7   1    1.29    0.86
  -5  -7  -1   -0.65    1.03
   5   7   2    2.91    0.96
  -5  -7  -2    0.86    0.90
   5   7   2    2.68    1.09
   5   7   2    1.47    0.73
  -5  -7  -2    1.05    1.02
   5   7   3    1.45    0.96
  -5  -7  -3    2.15    0.80
   5   7   3    1.50    0.76
   5   7   3    2.78    0.87
  -5  -7  -3    3.07    1.15
  -5  -7  -4    3.46    0.85
   5   7   4    3.62    1.02
   5   7   4    4.33    0.94
   5   7   4    4.11    0.81
  -5  -7  -4    4.32    1.19
   5   7   5   25.21    1.35
   5   7   5   25.78    1.79
  -5  -7  -5   26.12    1.60
   5   7   5   25.35    1.54
  -5  -7  -5   26.98    1.90
   5   7   6   20.50    1.57
   5   7   6   19.81    1.17
   5   7   6   17.22    1.40
  -5  -7  -6   20.30    1.44
  -5  -7  -6   15.67    1.50
   5   7   7   36.39    1.43
  -5  -7  -7   41.02    2.05
   5   7   7   35.55    1.90
   5   7   7   36.76    2.04
  -5  -7  -7   38.53    2.14
  -5  -7  -8    8.57    1.75
   5   7   8   10.89    0.89
  -5  -7  -8   12.93    1.37
   5   7   8    8.48    1.22
   5   7   8   12.59    1.31
  -5  -7  -8    9.75    1.22
  -5  -7  -9   76.77    2.78
  -5  -7  -9   71.06    3.74
  -5  -7  -9   72.99    2.27
   5   7   9   72.71    2.04
   5   7   9   69.21    2.65
  -5  -7  -9   67.19    2.77
   5   7   9   69.06    2.77
  -5  -7 -10   -0.85    1.51
  -5  -7 -10   -0.51    0.76
   5   7  10    0.27    0.57
  -5  -7 -10    0.36    0.64
   5   7  10    1.65    0.88
  -5  -7 -10    0.01    0.99
   5   7  10   -0.46    0.94
  -5  -7 -11   13.86    2.18
   5   7  11   11.27    1.02
  -5  -7 -11   11.07    1.18
  -5  -7 -11   10.26    1.05
   5   7  11   10.36    1.18
  -5  -7 -11   11.58    1.40
   5   7  11   10.05    1.52
   5   7  12    0.29    1.06
   5   7  12    1.24    0.79
  -5  -7 -12    1.29    0.72
  -5  -7 -12    0.85    0.95
   5   7  12    0.02    0.64
   5   7  13    5.87    1.38
  -5  -7 -13    7.33    2.03
  -5  -7 -13    5.70    0.97
   5   7  13    5.23    0.92
   5   7  13    6.46    1.00
  -5  -7 -13    6.02    1.35
   5   7  14    0.90    0.79
  -5  -7 -14    2.29    1.80
   5   7  14    0.31    0.66
  -5  -7 -14    2.20    1.27
  -5  -7 -14   -0.97    0.69
  -5  -7 -15    0.12    1.56
   5   7  15    0.47    0.55
   5   7  15    0.29    0.79
  -5  -7 -15    0.98    1.17
  -5  -7 -15   -0.39    0.76
  -5  -7 -16    2.83    1.91
  -5  -7 -17    2.38    2.04
   5   8  -9    2.86    1.79
  -5  -8   9    1.35    1.60
   5   8  -8    2.42    1.51
  -5  -8   8    3.32    1.72
  -5  -8   7   -0.13    1.46
   5   8  -7    3.35    1.61
  -5  -8   7    3.62    1.68
  -5  -8   6    1.31    1.30
   5   8  -6    1.80    1.27
   5   8  -6    1.14    1.31
  -5  -8   6    2.35    1.59
   5   8  -6    0.19    1.36
   5   8  -5    3.38    1.35
  -5  -8   5    6.11    1.58
   5   8  -5    3.59    1.34
   5   8  -5    4.87    1.46
  -5  -8   5    3.18    1.35
  -5  -8   4    1.45    1.31
   5   8  -4    1.18    1.16
   5   8  -4    1.33    1.13
   5   8  -4    3.46    1.28
  -5  -8   4    2.24    1.36
  -5  -8   3    8.23    1.50
   5   8  -3   12.05    1.69
   5   8  -3   11.25    1.56
  -5  -8   3   12.01    1.79
   5   8  -2   52.06    2.92
   5   8  -2   55.67    2.73
  -5  -8   2   55.47    3.29
   5   8  -1    1.49    1.09
   5   8  -1    3.67    1.05
  -5  -8   1    4.02    1.41
   5   8   0   10.63    1.55
   5   8   0   11.56    1.33
  -5  -8   0   12.39    1.72
   5   8   1   -0.17    0.78
   5   8   1   -1.27    0.91
  -5  -8  -1    0.15    1.04
   5   8   2   61.21    2.56
   5   8   2   61.66    2.84
  -5  -8  -2   68.71    3.19
   5   8   2   69.94    2.61
   5   8   3   -0.41    0.76
   5   8   3    0.97    0.74
  -5  -8  -3   -0.27    0.85
   5   8   3    0.74    0.92
  -5  -8  -3    1.17    1.02
  -5  -8  -4   33.36    1.88
   5   8   4   36.52    1.74
   5   8   4   37.77    2.33
   5   8   4   35.32    1.75
  -5  -8  -4   37.09    2.32
   5   8   5    9.56    1.16
   5   8   5   11.63    1.03
   5   8   5    8.74    1.22
  -5  -8  -5    8.73    1.36
  -5  -8  -5   10.02    1.22
  -5  -8  -6    1.45    1.04
   5   8   6    1.09    0.58
   5   8   6    0.36    0.86
  -5  -8  -6   -0.21    0.68
   5   8   6    0.39    0.79
  -5  -8  -7    2.13    0.92
   5   8   7    2.59    0.57
   5   8   7    3.60    1.05
  -5  -8  -7    3.05    0.89
   5   8   7    4.87    0.93
  -5  -8  -8   36.27    2.99
   5   8   8   35.10    1.32
   5   8   8   32.98    1.98
  -5  -8  -8   33.33    1.89
   5   8   8   32.63    1.91
  -5  -8  -8   31.49    1.99
   5   8   9    3.21    0.61
  -5  -8  -9    3.86    1.01
   5   8   9    2.55    0.96
  -5  -8  -9    3.73    1.10
   5   8   9    3.09    1.09
  -5  -8 -10    4.76    1.92
  -5  -8 -10    5.07    1.01
   5   8  10    3.51    0.98
  -5  -8 -10    4.43    0.97
   5   8  10    3.03    0.62
   5   8  10    2.73    1.08
   5   8  11    2.97    0.87
  -5  -8 -11    5.08    1.86
  -5  -8 -11    3.13    0.84
  -5  -8 -11    0.84    0.59
   5   8  11    2.14    0.57
  -5  -8 -11    3.02    1.09
   5   8  11    2.22    1.09
   5   8  12    3.81    1.16
  -5  -8 -12    4.64    1.73
  -5  -8 -12    4.25    0.87
  -5  -8 -12    2.78    0.73
  -5  -8 -12    3.75    1.11
   5   8  12    3.36    0.84
   5   8  12    4.71    0.75
   5   8  13    2.02    1.30
   5   8  13    0.85    0.78
  -5  -8 -13    3.28    1.90
  -5  -8 -13    0.97    0.70
  -5  -8 -13    0.72    0.98
   5   8  13   -1.06    0.70
  -5  -8 -14    5.04    2.01
   5   8  14    6.39    0.94
  -5  -8 -14    3.31    1.15
  -5  -8 -14    3.11    0.76
  -5  -8 -15    1.43    1.69
  -5  -8 -15    0.60    1.08
  -5  -8 -16    3.34    1.93
   5   9  -8    8.82    2.10
  -5  -9   8    8.53    2.01
   5   9  -7    2.03    1.65
  -5  -9   7    0.75    1.55
  -5  -9   6    3.84    1.47
   5   9  -6    7.55    1.70
  -5  -9   6    7.22    1.98
  -5  -9   5    0.62    1.43
   5   9  -5    3.44    1.39
  -5  -9   5    2.60    1.37
   5   9  -5    0.93    1.34
  -5  -9   4    2.62    1.63
   5   9  -4    2.61    1.20
   5   9  -4    2.07    1.17
   5   9  -4    3.21    1.33
  -5  -9   4    3.85    1.59
   5   9  -3    6.53    1.50
   5   9  -3    5.99    1.53
   5   9  -3    6.94    1.40
  -5  -9   3    5.92    1.67
   5   9  -2   11.16    1.59
   5   9  -2    5.04    1.40
   5   9  -2    8.41    1.50
  -5  -9   2    7.19    1.67
   5   9  -1    9.61    1.64
   5   9  -1   13.72    1.47
  -5  -9   1    9.26    1.61
   5   9   0   13.31    1.67
   5   9   0   10.47    1.37
  -5  -9   0   11.78    1.81
  -5  -9  -1   44.59    2.83
   5   9   1   49.46    2.78
   5   9   1   48.45    2.24
  -5  -9  -2    2.00    1.25
   5   9   2    1.40    1.16
   5   9   2    5.01    1.04
   5   9   3   19.13    1.49
   5   9   3   17.51    1.77
   5   9   3   18.60    1.39
  -5  -9  -3   16.71    1.87
   5   9   4   51.66    2.07
   5   9   4   50.79    2.71
  -5  -9  -4   52.42    2.39
   5   9   4   50.93    2.06
  -5  -9  -4   53.29    2.88
  -5  -9  -5   11.13    1.22
   5   9   5   11.86    1.16
   5   9   5   10.85    1.47
   5   9   5    8.82    0.90
   5   9   6    0.46    0.55
   5   9   6    1.02    1.02
  -5  -9  -6    0.03    0.87
   5   9   6    0.26    0.78
  -5  -9  -6    0.59    1.05
  -5  -9  -7   16.43    1.64
   5   9   7   13.32    1.46
  -5  -9  -7   16.51    1.48
   5   9   7   16.96    1.41
   5   9   7   15.04    0.91
   5   9   8   13.97    0.82
   5   9   8   15.34    1.48
  -5  -9  -8   12.59    1.21
   5   9   8   15.73    1.43
  -5  -9  -8   14.41    1.54
  -5  -9  -9    0.08    0.97
  -5  -9  -9    0.78    1.59
   5   9   9    1.37    0.44
   5   9   9    0.35    0.85
  -5  -9  -9    1.04    0.82
   5   9   9    0.66    0.85
   5   9  10    5.86    0.56
  -5  -9 -10    5.32    2.02
   5   9  10    6.76    1.11
  -5  -9 -10    8.07    1.23
  -5  -9 -10    5.73    1.17
   5   9  10    5.18    1.17
   5   9  11    4.59    1.28
  -5  -9 -11    3.05    1.94
  -5  -9 -11    4.58    1.04
   5   9  11    3.55    0.50
   5   9  11    3.14    0.89
  -5  -9 -11    3.57    0.99
   5   9  12   -0.80    1.03
  -5  -9 -12    0.30    0.68
   5   9  12   -0.38    0.41
   5   9  12   -0.69    0.76
  -5  -9 -12   -0.10    0.97
   5   9  13   -0.01    1.21
  -5  -9 -13   -0.18    1.78
  -5  -9 -13   -0.41    0.62
   5   9  13   -0.64    0.72
  -5  -9 -13   -0.35    1.01
  -5  -9 -14    2.60    1.96
   5   9  14    4.83    0.82
  -5  -9 -14    5.22    1.25
  -5  -9 -15   17.73    3.03
  -5  -9 -15   21.26    2.06
  -5  -9 -16   12.85    2.85
   5  10  -7    2.74    1.53
  -5 -10   7    0.24    1.82
   5  10  -6    2.04    1.35
  -5 -10   6   -0.10    1.55
   5  10  -5    5.38    1.47
  -5 -10   5    7.49    1.89
  -5 -10   4    4.11    1.65
   5  10  -4    5.40    1.44
   5  10  -4    4.34    1.53
  -5 -10   4    3.94    1.59
   5  10  -3   38.76    2.76
  -5 -10   3   43.52    3.22
   5  10  -3   39.62    2.53
   5  10  -2    1.09    1.12
   5  10  -2    1.72    1.38
   5  10  -2    1.08    0.98
  -5 -10   2   -1.75    1.53
   5  10  -1    2.60    1.06
   5  10  -1    2.39    1.44
   5  10  -1    0.81    1.15
  -5 -10   1    2.53    1.37
   5  10   0    9.05    1.35
   5  10   0    8.18    1.51
   5  10   0    8.69    1.21
  -5 -10   0    9.16    1.89
   5  10   1   53.41    2.60
   5  10   1   53.58    3.07
   5  10   1   52.41    2.40
  -5 -10  -1   57.33    3.45
   5  10   2    2.00    1.20
   5  10   2   -0.01    0.73
  -5 -10  -2    0.44    1.22
   5  10   3   52.72    2.32
   5  10   3   58.84    3.09
   5  10   3   59.38    2.23
  -5 -10  -3   55.80    3.22
   5  10   4    1.01    1.14
   5  10   4   -0.17    0.70
   5  10   4    0.65    0.76
  -5 -10  -4   -0.18    1.21
   5  10   5    0.54    0.60
   5  10   5    0.45    1.04
  -5 -10  -5    0.90    0.81
   5  10   5    1.33    0.77
  -5 -10  -5    0.70    1.12
   5  10   6   14.79    1.71
  -5 -10  -6   15.11    1.40
   5  10   6   16.43    1.05
  -5 -10  -6   17.78    1.88
   5  10   6   16.93    1.31
   5  10   7   70.36    3.10
  -5 -10  -7   69.87    2.63
  -5 -10  -7   74.17    3.33
   5  10   7   64.29    2.41
   5  10   7   69.00    1.65
  -5 -10  -8    1.83    1.11
  -5 -10  -8    0.59    0.72
   5  10   8    2.56    1.06
   5  10   8    1.02    0.36
   5  10   8    1.15    0.78
   5  10   9    0.90    0.25
  -5 -10  -9    0.74    1.04
   5  10   9    1.10    0.94
  -5 -10  -9    0.18    0.78
   5  10   9    0.04    0.85
  -5 -10 -10    1.60    1.03
   5  10  10   -0.06    0.84
  -5 -10 -10    1.81    0.87
   5  10  10   -0.11    0.84
  -5 -10 -11   26.28    3.08
  -5 -10 -11   27.15    1.89
   5  10  11   22.59    1.71
   5  10  11   23.70    1.86
  -5 -10 -11   24.75    1.81
  -5 -10 -12    8.50    1.21
  -5 -10 -12   14.01    2.60
   5  10  12    9.13    1.17
   5  10  12    9.48    1.47
  -5 -10 -12   13.11    1.50
  -5 -10 -13   -0.93    1.92
  -5 -10 -13    0.61    0.78
   5  10  13    0.84    0.78
  -5 -10 -13   -0.03    1.01
  -5 -10 -14    5.29    2.42
  -5 -10 -14    0.48    1.01
  -5 -10 -15    6.53    2.31
  -5 -10 -15    4.37    1.39
   5  11  -5    3.11    1.48
  -5 -11   5    1.41    1.70
   5  11  -4    6.04    1.46
  -5 -11   4    6.59    1.94
   5  11  -3    4.39    1.33
   5  11  -3    3.22    1.21
  -5 -11   3    1.60    1.60
   5  11  -2    6.29    1.39
  -5 -11   2    6.14    1.72
   5  11  -2    6.96    1.39
   5  11  -1    0.96    1.15
   5  11  -1    1.05    1.03
  -5 -11   1    0.55    1.37
   5  11   0    1.74    0.92
   5  11   0    2.86    1.12
  -5 -11   0    2.60    1.36
   5  11   1   12.55    1.46
   5  11   1   16.03    1.99
   5  11   1   15.00    1.47
  -5 -11  -1   14.11    2.10
   5  11   2    0.90    0.80
   5  11   2    0.33    1.27
   5  11   2    1.15    0.78
  -5 -11  -2   -0.01    1.16
   5  11   3    0.63    0.77
   5  11   3    1.76    1.38
   5  11   3    0.83    0.84
   5  11   3    0.92    0.72
  -5 -11  -3   -1.25    1.55
   5  11   4    0.97    0.75
   5  11   4    0.55    1.21
   5  11   4   -0.51    0.76
   5  11   4    0.31    0.72
  -5 -11  -4    1.12    1.37
   5  11   5    5.83    0.84
   5  11   5    5.52    0.81
   5  11   5    5.85    1.36
   5  11   5    5.91    0.96
  -5 -11  -5    5.93    1.46
   5  11   6    1.37    0.49
   5  11   6    2.95    1.21
   5  11   6    2.64    0.58
   5  11   6    0.96    0.72
  -5 -11  -6    1.20    1.12
   5  11   7   10.38    0.65
   5  11   7   12.01    1.69
  -5 -11  -7   12.98    1.34
  -5 -11  -7   14.48    1.85
   5  11   7   10.40    0.69
   5  11   7    9.28    1.07
   5  11   8    3.09    1.18
  -5 -11  -8    1.40    0.87
   5  11   8    2.37    0.80
  -5 -11  -8    3.06    1.13
   5  11   9    6.48    1.23
  -5 -11  -9    6.79    1.06
  -5 -11  -9    9.71    1.50
   5  11   9    6.08    1.06
  -5 -11 -10    3.67    1.18
   5  11  10    4.66    1.04
   5  11  10    4.06    1.17
  -5 -11 -10    4.46    0.99
   5  11  11   -0.58    1.00
  -5 -11 -11    1.20    0.96
   5  11  11    1.78    0.87
  -5 -11 -11    1.24    0.84
  -5 -11 -12    0.71    0.97
   5  11  12    0.62    0.81
  -5 -11 -12   -1.05    0.92
  -5 -11 -13    1.13    2.13
  -5 -11 -13    1.41    0.91
  -5 -11 -13   -0.60    0.92
  -5 -11 -14    5.09    2.39
   5  12  -3    0.55    1.08
  -5 -12   3    3.51    1.96
  -5 -12   2   27.85    2.97
   5  12  -2   23.92    2.18
   5  12  -2   24.65    2.00
   5  12  -1    8.66    1.28
   5  12  -1   10.44    1.55
  -5 -12   1    8.43    1.91
   5  12   0    7.61    1.27
   5  12   0    7.61    1.15
  -5 -12   0    9.84    2.01
   5  12   1    1.38    0.93
   5  12   1    3.93    1.00
   5  12   2   35.97    2.05
  -5 -12  -2   37.38    3.14
   5  12   2   38.19    1.89
   5  12   3    1.05    0.72
   5  12   3    0.52    0.83
   5  12   3    0.36    0.67
  -5 -12  -3   -0.27    1.28
   5  12   4   -0.75    0.70
   5  12   4    1.77    1.29
   5  12   4    0.17    0.71
   5  12   4    0.28    0.65
  -5 -12  -4    0.51    1.30
   5  12   5    0.79    1.06
   5  12   5    1.51    0.61
   5  12   5    0.42    0.57
   5  12   5    0.80    0.62
  -5 -12  -5    0.99    1.36
   5  12   6   12.65    0.82
   5  12   6   10.25    1.63
   5  12   6    9.18    0.73
   5  12   6   12.43    1.05
  -5 -12  -6   10.39    1.77
   5  12   7    9.36    1.55
   5  12   7    6.93    0.95
   5  12   7    6.85    0.43
  -5 -12  -7    7.27    1.63
  -5 -12  -8    1.29    0.82
   5  12   8    1.50    1.19
  -5 -12  -8    2.03    1.25
   5  12   8    1.81    0.78
   5  12   9    1.46    0.78
  -5 -12  -9    0.97    1.06
   5  12   9    1.84    1.07
  -5 -12  -9   -0.53    0.79
   5  12  10    0.69    0.80
  -5 -12 -10    2.16    1.16
  -5 -12 -10    0.49    2.18
   5  12  10   -1.91    1.09
  -5 -12 -10    0.30    0.75
  -5 -12 -11    2.23    1.05
  -5 -12 -11   -0.60    2.27
   5  12  11   -0.28    1.03
  -5 -12 -12    1.08    0.96
  -5 -12 -12    4.69    2.50
  -5 -12 -13    2.49    2.35
   5  13  -1    0.27    0.86
   5  13   0    0.49    1.01
   5  13   0    1.04    0.89
  -5 -13   0   -0.54    1.68
   5  13   1    2.33    1.08
   5  13   1    3.96    1.00
  -5 -13  -1    1.10    1.57
   5  13   2    8.76    1.42
   5  13   2    4.33    1.03
   5  13   2    6.83    0.93
  -5 -13  -2    7.40    1.98
   5  13   3    2.65    0.88
   5  13   3    1.70    0.96
   5  13   3    3.30    0.73
  -5 -13  -3    1.51    1.41
   5  13   4   -0.38    0.72
  -5 -13  -4    1.20    1.32
   5  13   4    1.17    0.62
   5  13   5   28.20    1.38
  -5 -13  -5   28.18    2.66
   5  13   5   25.59    1.33
  -5 -13  -6    0.56    1.29
   5  13   6    0.76    0.58
  -5 -13  -7    1.20    1.27
   5  13   7    0.80    0.56
  -5 -13  -8    3.02    1.41
  -5 -13  -9    0.28    1.15
  -5 -13 -10    1.24    1.29
  -5 -13 -11    1.87    1.12
  -5 -13 -11   -1.59    2.24
  -5 -14  -3    9.72    2.04
  -5 -14  -4    1.85    1.58
  -5 -14  -5   -0.08    1.58
  -5 -14  -6    3.54    1.66
  -5 -14  -7    7.21    1.97
   6 -10  -3    2.23    0.96
   6 -10  -2   22.21    1.84
   6 -10  -1    2.02    1.04
  -6  10   1    0.67    1.05
   6 -10   0    0.81    0.94
  -6  10   0    0.58    1.09
   6 -10   1    1.65    1.15
  -6  10  -1    2.45    1.23
   6 -10   2   -0.34    1.01
   6  -9  -7    1.64    1.84
   6  -9  -6    3.32    1.86
   6  -9  -6    2.39    1.16
   6  -9  -6    1.03    0.66
   6  -9  -5    1.11    0.75
   6  -9  -5    0.61    0.92
   6  -9  -4    8.46    1.42
   6  -9  -4    9.84    1.26
   6  -9  -3    1.80    0.93
   6  -9  -3   -0.39    1.16
  -6   9   2    1.23    1.04
   6  -9  -2    0.16    1.06
   6  -9  -2    1.26    0.84
   6  -9  -2   -0.49    0.42
  -6   9   1   11.68    1.62
   6  -9  -1   11.68    1.44
   6  -9  -1    9.34    0.80
  -6   9   0   17.60    1.96
   6  -9   0   19.27    1.76
   6  -9   0   22.78    1.21
   6  -9   1   -0.63    0.57
   6  -9   1    1.06    1.01
  -6   9  -1   -0.23    1.05
   6  -9   2   12.97    1.68
  -6   9  -2   12.48    1.79
   6  -9   3   11.42    1.71
  -6   9  -3    8.95    1.57
   6  -9   4    2.20    1.38
   6  -9   5   34.13    2.74
   6  -9   6    2.22    1.66
   6  -8  -9   58.84    4.10
   6  -8  -8    0.75    1.89
   6  -8  -8    0.11    0.82
   6  -8  -8   -0.05    0.76
   6  -8  -7    2.12    1.78
   6  -8  -7   -0.13    0.93
   6  -8  -7   -0.65    0.79
   6  -8  -7   -0.76    0.79
   6  -8  -6    1.18    1.71
   6  -8  -6   -0.19    0.93
   6  -8  -6    1.71    0.82
   6  -8  -6    1.76    0.76
   6  -8  -5    1.24    0.91
   6  -8  -5   -0.28    0.74
   6  -8  -5    0.43    0.62
   6  -8  -4    9.46    1.37
   6  -8  -4    9.01    1.17
   6  -8  -4    9.12    0.96
   6  -8  -3    1.82    1.03
   6  -8  -3    1.19    0.57
   6  -8  -3    1.15    0.76
   6  -8  -2    4.24    1.06
  -6   8   2    4.55    1.32
   6  -8  -2    2.96    1.16
   6  -8  -2    4.04    0.74
   6  -8  -1    6.25    1.23
  -6   8   1    7.08    1.43
   6  -8  -1    7.60    0.90
   6  -8   0   10.07    1.37
  -6   8   0    7.82    1.47
   6  -8   0    8.75    1.00
  -6   8  -1    9.72    1.50
  -6   8  -1    8.70    1.09
   6  -8   1   12.16    1.15
   6  -8   1   10.44    1.46
  -6   8  -2   19.07    1.45
  -6   8  -2   20.88    1.99
   6  -8   2   17.75    1.75
   6  -8   2   16.70    1.38
   6  -8   3    1.33    0.80
  -6   8  -3    1.23    0.84
   6  -8   3    0.46    1.05
  -6   8  -3    0.65    1.16
   6  -8   4    1.94    0.91
  -6   8  -4    1.27    1.27
   6  -8   4    1.84    1.22
  -6   8  -4    0.21    0.75
   6  -8   5   34.01    2.94
   6  -8   5   36.53    2.64
  -6   8  -5   39.27    2.17
   6  -8   6   11.89    1.85
  -6   8  -6   12.38    1.43
  -6   8  -7   -0.09    0.91
   6  -8   7    0.60    1.32
   6  -8   8    0.03    1.33
   6  -7 -10   20.78    2.68
   6  -7 -10   19.63    1.93
   6  -7 -10   19.54    1.69
   6  -7  -9   30.31    3.06
   6  -7  -9   29.91    1.95
   6  -7  -9   27.93    2.11
   6  -7  -8    9.81    2.09
   6  -7  -8   10.08    1.37
   6  -7  -8   10.35    1.26
   6  -7  -8   10.51    1.31
   6  -7  -7    0.27    0.80
   6  -7  -7   -1.64    1.56
   6  -7  -7   -1.66    0.90
   6  -7  -7    0.54    0.95
   6  -7  -6    1.11    0.83
   6  -7  -6    2.13    1.56
   6  -7  -6    0.01    0.87
   6  -7  -6    2.31    0.90
   6  -7  -5    4.34    1.64
   6  -7  -5    4.10    0.97
   6  -7  -5    4.14    0.93
   6  -7  -5    5.34    1.06
   6  -7  -4    0.34    0.85
   6  -7  -4    1.62    0.72
   6  -7  -4    0.89    0.71
   6  -7  -3    8.23    1.31
   6  -7  -3    7.22    1.11
   6  -7  -3    7.61    0.98
   6  -7  -2   55.67    2.83
   6  -7  -2   57.46    2.57
  -6   7   2   62.92    2.99
   6  -7  -2   62.76    2.17
   6  -7  -1    7.24    1.39
  -6   7   1    5.12    1.29
   6  -7  -1    5.73    0.86
   6  -7  -1    3.86    1.04
  -6   7   0   11.11    1.52
   6  -7   0   12.13    1.51
  -6   7   0    9.11    1.06
   6  -7   0   12.32    1.11
   6  -7   1    8.09    1.22
  -6   7  -1    7.25    1.37
  -6   7  -1    8.45    1.07
   6  -7   1    9.38    1.10
   6  -7   2    0.04    0.96
  -6   7  -2    0.44    0.72
  -6   7  -2   -0.26    1.05
   6  -7   2    0.19    0.70
  -6   7  -3    2.75    0.84
   6  -7   3    1.86    1.04
  -6   7  -3    2.36    1.25
   6  -7   3    1.37    0.81
   6  -7   4    0.55    0.88
  -6   7  -4    2.25    1.14
  -6   7  -4   -0.13    0.74
   6  -7   4    0.25    0.98
   6  -7   5   12.66    1.81
   6  -7   5   10.44    1.83
  -6   7  -5   11.47    1.36
  -6   7  -5   10.29    1.60
   6  -7   5   10.50    1.35
   6  -7   6   22.64    2.18
   6  -7   6   22.62    2.40
  -6   7  -6   20.12    1.72
   6  -7   6   22.25    1.91
   6  -7   7    2.39    1.62
   6  -7   7    0.42    1.27
  -6   7  -7    0.51    0.91
  -6   7  -8    0.16    1.04
   6  -7   8   -0.44    1.28
   6  -7   9    4.63    1.64
  -6   7  -9    5.26    1.33
   6  -7  10   -1.17    1.56
   6  -6 -11   -1.04    1.45
   6  -6 -11    0.85    1.12
   6  -6 -11    1.56    1.01
   6  -6 -10   10.56    2.05
   6  -6 -10    6.53    1.56
   6  -6 -10    8.14    1.35
   6  -6  -9    4.34    1.09
   6  -6  -9    2.88    1.65
   6  -6  -9    5.27    1.28
   6  -6  -8    1.78    0.85
   6  -6  -8    1.90    1.13
   6  -6  -8    1.28    0.82
   6  -6  -7   -0.77    0.73
   6  -6  -7    0.27    0.89
   6  -6  -7    0.82    1.46
   6  -6  -7   -0.01    0.86
   6  -6  -6   10.04    1.77
   6  -6  -6    7.85    1.24
   6  -6  -6    7.07    1.09
   6  -6  -6    8.18    1.30
   6  -6  -5   -0.41    1.29
   6  -6  -5    0.73    0.78
   6  -6  -5    0.97    0.74
   6  -6  -5    1.81    0.94
   6  -6  -4   13.79    1.45
   6  -6  -4   13.60    1.27
   6  -6  -4   14.21    1.33
   6  -6  -3    0.88    0.81
   6  -6  -3    1.78    0.89
   6  -6  -3    1.70    0.79
   6  -6  -2   72.16    2.73
   6  -6  -2   67.88    2.94
  -6   6   2   72.87    3.11
   6  -6  -2   70.17    2.37
   6  -6  -1    5.16    1.22
  -6   6   1    5.94    1.20
   6  -6  -1    3.91    0.83
   6  -6  -1    4.21    0.93
   6  -6   0    7.81    1.35
   6  -6   0    8.64    1.23
  -6   6   0    7.02    1.23
   6  -6   0    7.98    1.03
  -6   6   0    7.06    1.09
   6  -6   1   22.77    1.73
  -6   6  -1   23.71    1.91
   6  -6   1   23.64    1.52
  -6   6  -1   22.74    1.59
   6  -6   2   38.95    2.28
  -6   6  -2   37.43    2.37
  -6   6  -2   36.06    1.95
   6  -6   2   37.60    1.90
  -6   6  -3    5.48    1.03
   6  -6   3    6.44    1.28
   6  -6   3    4.41    1.02
  -6   6  -3    6.97    1.28
  -6   6  -4    1.04    1.04
   6  -6   4    0.09    1.04
  -6   6  -4    1.23    0.79
   6  -6   4    0.75    0.92
  -6   6  -5    0.15    1.07
   6  -6   5   -0.47    1.07
   6  -6   5    0.64    1.21
  -6   6  -5    0.23    0.94
   6  -6   5    0.22    0.83
   6  -6   6    0.93    1.05
  -6   6  -6    2.13    1.21
   6  -6   6   -0.83    1.32
  -6   6  -6   -0.61    0.89
   6  -6   6    0.79    1.12
   6  -6   7    0.35    0.95
   6  -6   7    0.24    1.11
  -6   6  -7   -0.69    1.10
   6  -6   7    0.94    1.29
  -6   6  -7    1.46    1.06
   6  -6   8    2.22    1.21
   6  -6   8    1.69    1.52
   6  -6   8    1.40    1.10
  -6   6  -8    2.10    1.11
   6  -6   9    1.89    1.70
   6  -6   9    3.40    1.41
  -6   6  -9    3.01    1.28
  -6   6 -10    3.01    1.34
   6  -6  10   -1.53    1.24
   6  -6  11    3.05    1.67
   6  -5 -11    0.21    1.30
   6  -5 -11    1.50    1.01
   6  -5 -11    1.96    1.09
   6  -5 -10    9.74    1.97
   6  -5 -10   13.70    1.67
   6  -5 -10   13.19    1.80
   6  -5  -9   59.00    3.48
   6  -5  -9   58.38    2.84
   6  -5  -9   59.95    3.17
   6  -5  -9   60.33    2.32
   6  -5  -8    1.14    1.26
   6  -5  -8    0.19    0.91
   6  -5  -8   -0.16    0.88
   6  -5  -8    0.27    0.80
   6  -5  -7    9.12    1.72
   6  -5  -7    6.55    1.26
   6  -5  -7    6.85    1.11
   6  -5  -7    7.01    1.19
   6  -5  -6   11.79    1.73
   6  -5  -6   12.98    1.45
   6  -5  -6    9.97    1.27
   6  -5  -6    7.41    1.09
   6  -5  -5    0.53    0.87
   6  -5  -5   -0.38    0.84
   6  -5  -5   -0.30    1.06
   6  -5  -5   -0.30    0.86
   6  -5  -4   13.07    1.68
   6  -5  -4   11.69    1.34
   6  -5  -4   10.72    1.23
   6  -5  -4   11.77    1.29
   6  -5  -3   11.38    1.38
   6  -5  -3   11.82    1.27
   6  -5  -3   13.19    1.32
   6  -5  -2   19.71    1.68
  -6   5   2   20.55    1.84
   6  -5  -2   19.31    1.42
   6  -5  -2   21.76    1.61
  -6   5   1    1.35    0.90
   6  -5  -1    4.25    1.06
   6  -5  -1    2.12    0.94
  -6   5   1    0.38    0.85
   6  -5  -1    2.39    0.77
   6  -5   0    1.40    0.98
  -6   5   0    0.69    0.90
  -6   5   0    0.07    1.12
   6  -5   0    0.63    0.90
   6  -5   0    0.36    0.69
   6  -5   1    4.53    1.13
  -6   5  -1    2.74    0.92
   6  -5   1    4.29    0.98
  -6   5  -1    3.95    1.13
   6  -5   1    2.86    0.84
   6  -5   2   13.51    1.48
  -6   5  -2   11.97    1.51
  -6   5  -2   12.36    1.30
   6  -5   2   11.58    1.29
   6  -5   3   63.78    2.87
  -6   5  -3   60.24    2.83
   6  -5   3   65.76    2.55
  -6   5  -3   63.57    2.51
  -6   5  -4    2.07    1.04
   6  -5   4    1.84    0.95
  -6   5  -4    1.23    0.86
   6  -5   4    0.94    0.88
  -6   5  -5   35.89    2.17
   6  -5   5   37.56    2.46
   6  -5   5   40.26    2.42
  -6   5  -5   38.76    2.45
   6  -5   5   42.81    2.30
   6  -5   6   14.56    1.70
  -6   5  -6   13.64    1.47
  -6   5  -6   15.50    1.77
   6  -5   6   15.19    1.73
   6  -5   6   18.87    1.75
   6  -5   7   16.14    1.92
  -6   5  -7   15.78    1.62
  -6   5  -7   14.87    1.76
   6  -5   7   15.13    1.67
   6  -5   7   16.15    1.88
   6  -5   8   -1.41    1.07
   6  -5   8    1.40    1.19
  -6   5  -8    0.67    1.13
   6  -5   8   -0.97    1.43
  -6   5  -8   -0.22    0.96
   6  -5   9    0.55    1.16
   6  -5   9    1.58    1.51
   6  -5   9   -0.25    1.28
  -6   5  -9    0.96    1.00
   6  -5  10    6.42    1.71
   6  -5  10    6.94    1.60
  -6   5 -10    7.04    1.53
   6  -5  11   11.69    1.90
   6  -5  12    6.65    1.81
   6  -4 -12   -2.00    1.48
   6  -4 -12   -1.43    1.36
   6  -4 -11    6.43    1.76
   6  -4 -11    2.52    1.23
   6  -4 -11    5.43    1.46
   6  -4 -10    0.17    1.54
   6  -4 -10   -0.28    1.01
   6  -4 -10    0.41    0.51
   6  -4 -10   -1.18    0.98
   6  -4  -9   71.01    3.65
   6  -4  -9   71.92    2.47
   6  -4  -9   71.60    3.35
   6  -4  -9   71.18    3.55
   6  -4  -8   36.83    2.60
   6  -4  -8   34.33    2.25
   6  -4  -8   34.28    2.36
   6  -4  -8   32.82    1.87
   6  -4  -7   37.96    2.01
   6  -4  -7   37.53    2.56
   6  -4  -7   38.65    2.27
   6  -4  -7   36.12    2.38
   6  -4  -6    1.07    0.83
   6  -4  -6    1.59    0.80
   6  -4  -6   -0.75    0.97
   6  -4  -6    0.89    0.89
   6  -4  -5    0.85    0.74
   6  -4  -5    0.04    1.01
   6  -4  -5   -0.34    0.78
   6  -4  -5    0.25    0.73
   6  -4  -4    0.20    0.72
   6  -4  -4    0.83    0.83
   6  -4  -4   -0.11    0.87
   6  -4  -4    0.96    0.76
   6  -4  -3   28.18    2.04
   6  -4  -3   26.54    1.83
   6  -4  -3   26.07    1.70
   6  -4  -3   26.89    1.79
   6  -4  -2   80.11    3.00
   6  -4  -2   81.97    2.76
   6  -4  -2   75.42    2.81
   6  -4  -1    2.44    0.90
   6  -4  -1    1.94    0.86
  -6   4   1    2.25    1.02
  -6   4   1    2.41    0.97
   6  -4  -1    2.56    0.85
   6  -4   0   21.64    1.57
   6  -4   0   23.01    1.77
  -6   4   0   28.15    1.96
  -6   4   0   26.64    1.72
   6  -4   0   27.52    1.57
   6  -4   1    2.27    0.90
   6  -4   1    2.25    1.00
  -6   4  -1    2.29    0.87
  -6   4  -1    2.40    1.01
   6  -4   1    2.36    0.93
   6  -4   2   43.14    2.37
   6  -4   2   40.32    2.22
  -6   4  -2   36.86    2.17
  -6   4  -2   41.02    2.05
   6  -4   2   36.69    1.91
   6  -4   3   -0.13    0.92
  -6   4  -3   -0.05    0.88
   6  -4   3    0.77    0.91
   6  -4   3    0.40    0.78
  -6   4  -3    0.11    0.93
  -6   4  -4    2.18    0.97
   6  -4   4    2.76    1.01
   6  -4   4    0.92    1.01
  -6   4  -4    2.11    0.92
   6  -4   4    1.35    0.85
   6  -4   5  169.54    4.46
   6  -4   5  176.19    4.60
  -6   4  -5  176.18    4.32
  -6   4  -5  177.45    4.72
   6  -4   5  168.42    4.26
  -6   4  -6    3.38    1.20
   6  -4   6    3.59    1.18
   6  -4   6    5.47    1.30
  -6   4  -6    5.33    1.13
   6  -4   6    2.60    1.07
   6  -4   7    7.38    1.43
   6  -4   7    6.97    1.43
  -6   4  -7    5.29    1.14
  -6   4  -7    7.34    1.53
   6  -4   7    7.63    1.33
   6  -4   8   -0.69    1.01
  -6   4  -8   -0.81    1.02
   6  -4   8   -1.07    1.25
  -6   4  -8    0.50    0.99
   6  -4   8    0.27    1.06
   6  -4   9   11.87    1.81
  -6   4  -9   11.25    1.58
  -6   4  -9    9.57    1.60
   6  -4   9    8.61    1.74
   6  -4   9   11.38    1.59
   6  -4  10    2.88    1.25
   6  -4  10    5.76    1.65
   6  -4  10    3.50    1.36
  -6   4 -10    4.89    1.40
   6  -4  11    3.03    1.75
   6  -4  11    1.16    1.36
  -6   4 -11    3.63    1.39
   6  -4  12    4.71    1.68
   6  -4  13    6.32    1.73
   6  -3 -12    0.39    1.34
   6  -3 -12    0.21    1.11
   6  -3 -12    0.28    1.24
   6  -3 -11    3.69    1.38
   6  -3 -11    6.42    1.58
   6  -3 -11    4.33    1.46
   6  -3 -10   -1.63    1.24
   6  -3 -10    1.55    1.20
   6  -3 -10   -0.77    1.01
   6  -3 -10    0.91    0.63
   6  -3  -9   21.87    2.13
   6  -3  -9   17.63    2.10
   6  -3  -9   16.89    1.81
   6  -3  -9   17.37    1.30
   6  -3  -8  148.84    4.59
   6  -3  -8  148.91    4.61
   6  -3  -8  154.50    5.01
   6  -3  -8  151.81    3.70
   6  -3  -7   -0.04    0.94
   6  -3  -7    0.01    0.93
   6  -3  -7    0.14    0.94
   6  -3  -7    0.47    0.73
   6  -3  -6    2.72    1.03
   6  -3  -6    4.00    1.12
   6  -3  -6    2.17    0.96
   6  -3  -6    1.46    0.65
   6  -3  -5   11.94    1.38
   6  -3  -5   14.39    1.43
   6  -3  -5   14.57    1.48
   6  -3  -5   13.62    1.36
   6  -3  -4    8.56    1.23
   6  -3  -4    7.38    1.17
   6  -3  -4    7.62    1.20
   6  -3  -4    7.94    1.12
   6  -3  -3    8.53    1.22
   6  -3  -3    7.59    1.18
   6  -3  -3    8.13    1.15
   6  -3  -3    8.77    1.17
   6  -3  -2    5.67    1.03
   6  -3  -2    7.10    1.13
   6  -3  -2    7.10    1.12
   6  -3  -2   10.10    1.20
   6  -3  -1   14.64    1.42
  -6   3   1   14.65    1.53
  -6   3   1   17.11    1.55
   6  -3  -1   16.18    1.34
   6  -3  -1   15.54    1.43
  -6   3   0    5.38    1.00
   6  -3   0    5.77    1.10
  -6   3   0    7.99    1.33
   6  -3   0    7.30    1.06
   6  -3   0    6.23    1.07
   6  -3   1    3.59    0.94
   6  -3   1    3.97    0.92
  -6   3  -1    2.93    0.99
  -6   3  -1    3.73    1.00
   6  -3   1    4.98    0.89
   6  -3   2    1.76    0.88
   6  -3   2    0.90    0.85
  -6   3  -2    0.89    0.80
  -6   3  -2    1.60    0.94
   6  -3   2    0.51    0.72
   6  -3   3   13.26    1.40
   6  -3   3   12.09    1.33
  -6   3  -3   13.34    1.41
  -6   3  -3   10.43    1.22
   6  -3   3   12.76    1.33
  -6   3  -4    1.14    1.03
   6  -3   4    1.50    1.02
   6  -3   4   -0.39    0.77
  -6   3  -4    1.54    0.82
   6  -3   4   -0.10    0.88
   6  -3   4    0.44    0.91
  -6   3  -5    5.62    1.27
   6  -3   5    7.15    1.13
   6  -3   5    4.71    1.15
   6  -3   5    8.00    1.35
  -6   3  -5    3.96    1.03
   6  -3   5    7.50    1.19
   6  -3   6   41.44    2.26
   6  -3   6   47.33    2.57
   6  -3   6   40.53    2.33
  -6   3  -6   47.68    2.41
  -6   3  -6   40.49    2.36
   6  -3   6   40.12    2.29
   6  -3   7    9.02    1.42
   6  -3   7    9.41    1.50
  -6   3  -7    8.55    1.34
  -6   3  -7   11.42    1.53
   6  -3   7   11.49    1.54
   6  -3   8    1.61    1.13
  -6   3  -8    2.41    1.18
   6  -3   8    2.82    1.26
  -6   3  -8    2.26    1.13
   6  -3   8    0.05    1.04
   6  -3   9    1.36    1.19
   6  -3   9    0.21    1.30
  -6   3  -9    1.04    1.04
  -6   3  -9    1.63    1.00
   6  -3   9    2.99    1.35
   6  -3  10    4.15    1.49
   6  -3  10    1.30    1.33
   6  -3  10    0.24    1.38
  -6   3 -10    0.90    1.20
  -6   3 -10    1.06    1.13
   6  -3  11   14.11    2.08
   6  -3  11   12.27    1.74
  -6   3 -11   12.88    1.82
   6  -3  11   12.72    1.98
   6  -3  12   10.59    2.05
   6  -3  12   14.07    2.08
   6  -3  13    1.24    1.45
   6  -3  14    4.69    1.74
   6  -2 -12    4.91    1.50
   6  -2 -12    3.87    1.38
   6  -2 -12    5.67    1.83
   6  -2 -11   -1.05    1.24
   6  -2 -11    0.06    0.98
   6  -2 -11    2.28    1.45
   6  -2 -10    8.85    1.63
   6  -2 -10   12.27    1.69
   6  -2 -10   13.01    1.14
   6  -2 -10    9.50    1.86
   6  -2  -9    5.64    1.49
   6  -2  -9    6.12    1.63
   6  -2  -9    6.19    0.97
   6  -2  -9    5.33    1.28
   6  -2  -8   59.20    2.93
   6  -2  -8   63.39    3.18
   6  -2  -8   63.83    3.41
   6  -2  -8   61.18    2.41
   6  -2  -7   32.89    2.17
   6  -2  -7   39.16    2.57
   6  -2  -7   34.67    2.51
   6  -2  -7   35.78    1.93
   6  -2  -6   58.77    2.59
   6  -2  -6   61.93    2.92
   6  -2  -6   59.73    3.04
   6  -2  -6   58.86    2.53
   6  -2  -5   -0.42    0.71
   6  -2  -5    1.42    1.04
   6  -2  -5    0.99    0.95
   6  -2  -5    0.33    0.67
   6  -2  -4    7.38    1.07
   6  -2  -4    5.76    1.15
   6  -2  -4    5.54    1.13
   6  -2  -4    6.51    1.11
   6  -2  -3   20.43    1.40
   6  -2  -3   18.03    1.57
   6  -2  -3   21.07    1.67
   6  -2  -3   19.54    1.52
   6  -2  -2    3.16    0.88
   6  -2  -2    3.20    0.80
   6  -2  -2    1.53    0.80
   6  -2  -2    1.35    0.80
   6  -2  -1   53.87    2.47
   6  -2  -1   56.23    2.41
   6  -2  -1   47.44    1.88
  -6   2   1   50.67    2.50
  -6   2   1   56.27    2.51
   6  -2  -1   52.42    2.39
   6  -2   0    1.05    0.71
   6  -2   0    2.04    0.88
  -6   2   0    2.28    0.92
  -6   2   0    0.77    0.80
   6  -2   0    1.05    0.77
   6  -2   1   12.90    1.44
  -6   2  -1   10.86    1.37
  -6   2  -1   10.17    1.20
   6  -2   1    9.72    1.18
   6  -2   1    9.52    1.16
   6  -2   2   17.00    1.39
   6  -2   2   15.95    1.49
  -6   2  -2   16.31    1.49
  -6   2  -2   18.98    1.46
   6  -2   2   18.44    1.40
   6  -2   3    2.12    1.03
   6  -2   3    0.21    0.61
   6  -2   3   -0.17    0.85
  -6   2  -3    0.40    0.76
   6  -2   3    0.78    0.76
  -6   2  -3    0.89    0.85
   6  -2   4    0.45    0.88
   6  -2   4    3.06    0.86
   6  -2   4    1.83    0.87
  -6   2  -4    0.56    0.83
   6  -2   4    1.64    0.85
  -6   2  -4   -0.92    1.02
   6  -2   5   20.39    1.47
   6  -2   5   22.25    1.75
   6  -2   5   20.74    1.61
  -6   2  -5   19.07    1.58
  -6   2  -5   19.01    1.64
   6  -2   5   19.52    1.62
   6  -2   6   90.78    3.02
   6  -2   6   93.77    3.37
   6  -2   6   91.15    3.24
  -6   2  -6   92.38    3.19
  -6   2  -6   83.26    3.27
   6  -2   6   86.52    3.19
   6  -2   7   24.62    1.80
   6  -2   7   28.56    2.11
   6  -2   7   28.93    1.98
  -6   2  -7   24.25    1.83
  -6   2  -7   24.69    1.92
   6  -2   7   23.04    1.88
   6  -2   8    7.76    1.31
  -6   2  -8    6.29    1.35
   6  -2   8    7.29    1.44
   6  -2   8    6.03    1.32
  -6   2  -8    9.01    1.39
   6  -2   8    4.60    1.27
   6  -2   9    4.07    1.43
   6  -2   9    6.64    1.26
   6  -2   9    5.16    1.38
  -6   2  -9    4.53    1.23
  -6   2  -9    5.80    1.38
   6  -2   9    3.95    1.35
   6  -2  10   10.33    1.65
   6  -2  10    7.47    1.55
   6  -2  10    8.13    1.44
   6  -2  10    9.63    1.67
  -6   2 -10    9.74    1.65
  -6   2 -10   11.49    1.55
   6  -2  11   10.46    1.77
   6  -2  11    9.09    1.51
   6  -2  11    5.21    1.59
   6  -2  11    8.88    1.61
  -6   2 -11    8.57    1.61
  -6   2 -11   10.26    1.59
   6  -2  12    8.47    1.63
   6  -2  12    8.72    1.95
   6  -2  12    6.42    1.45
   6  -2  12   10.04    1.69
  -6   2 -12    7.66    1.60
   6  -2  13   13.21    1.78
   6  -2  13   10.02    2.00
   6  -2  13   15.37    2.12
   6  -2  14   20.83    2.43
   6  -2  15   -0.26    1.71
   6  -1 -12    0.19    1.33
   6  -1 -12    1.66    1.52
   6  -1 -11    4.93    1.43
   6  -1 -11    6.26    1.80
   6  -1 -11    4.47    0.86
   6  -1 -10    0.43    1.16
   6  -1 -10    0.54    1.13
   6  -1 -10    1.05    1.44
   6  -1 -10    1.40    0.82
  -6   1   9    6.02    0.95
   6  -1  -9    6.89    1.41
   6  -1  -9    3.59    1.32
   6  -1  -9    4.48    1.48
   6  -1  -9    5.77    0.94
   6  -1  -8    2.31    1.09
  -6   1   8    0.96    0.77
   6  -1  -8    1.14    1.18
   6  -1  -8    1.08    1.16
   6  -1  -8    4.14    0.97
   6  -1  -7   19.27    1.62
  -6   1   7   16.82    1.36
   6  -1  -7   17.34    1.95
   6  -1  -7   19.16    1.94
   6  -1  -7   17.16    1.47
   6  -1  -6  120.05    3.43
  -6   1   6  123.05    3.22
   6  -1  -6  117.63    4.05
   6  -1  -6  122.88    4.33
   6  -1  -6  122.18    3.54
   6  -1  -5   13.31    1.25
  -6   1   5   14.87    1.34
   6  -1  -5   14.95    1.47
   6  -1  -5   15.15    1.68
   6  -1  -5   14.62    1.62
   6  -1  -4    1.83    0.69
  -6   1   4   -0.16    0.75
   6  -1  -4    2.50    1.16
   6  -1  -4    0.79    0.98
   6  -1  -4    1.39    0.86
   6  -1  -3   68.69    1.97
  -6   1   3   68.87    2.47
   6  -1  -3   70.45    2.85
   6  -1  -3   66.62    2.85
   6  -1  -3   67.97    2.65
   6  -1  -2    4.16    1.02
   6  -1  -2    3.21    0.96
   6  -1  -2    3.17    0.60
   6  -1  -2    2.12    0.89
   6  -1  -1    7.18    0.65
   6  -1  -1    6.19    1.02
   6  -1  -1    6.70    1.14
  -6   1   1    8.13    1.31
   6  -1  -1    8.06    1.17
   6  -1   0    5.37    1.07
   6  -1   0    5.47    0.57
   6  -1   0    6.22    1.12
  -6   1   0    7.84    1.23
  -6   1   0    6.81    1.16
   6  -1   0    7.52    1.12
   6  -1   1   31.43    1.96
  -6   1  -1   29.11    1.93
  -6   1  -1   28.73    1.79
   6  -1   1   28.18    1.68
   6  -1   1   27.76    1.74
   6  -1   2    0.55    0.82
   6  -1   2    1.84    0.79
   6  -1   2    0.71    0.40
  -6   1  -2    0.70    0.72
  -6   1  -2    0.47    0.85
   6  -1   2    0.54    0.75
   6  -1   3   33.99    1.85
   6  -1   3   34.99    2.05
   6  -1   3   38.82    1.39
  -6   1  -3   35.79    2.03
  -6   1  -3   35.49    1.93
   6  -1   3   33.88    1.86
   6  -1   4   27.91    1.81
   6  -1   4   29.63    1.37
   6  -1   4   26.74    1.69
  -6   1  -4   30.95    1.91
  -6   1  -4   32.45    1.92
   6  -1   4   28.30    1.77
  -6   1  -5    3.80    1.03
   6  -1   5    3.09    0.94
   6  -1   5    3.04    0.77
   6  -1   5    2.00    0.86
  -6   1  -5    2.74    0.97
   6  -1   5    3.08    0.88
  -6   1  -6    0.99    0.89
   6  -1   6    1.78    0.80
   6  -1   6    2.46    0.99
  -6   1  -6    1.41    0.88
   6  -1   6    2.35    0.94
   6  -1   6    1.20    0.95
   6  -1   7    0.12    0.91
  -6   1  -7    0.24    0.80
   6  -1   7   -0.55    0.88
   6  -1   7    0.38    0.86
  -6   1  -7   -0.50    0.94
   6  -1   7    0.44    0.97
  -6   1  -8    1.78    1.00
   6  -1   8    1.02    0.98
   6  -1   8    0.76    0.85
   6  -1   8    0.96    0.95
  -6   1  -8   -1.01    0.98
   6  -1   8    0.51    1.03
  -6   1  -9    5.57    1.27
   6  -1   9    4.56    1.30
   6  -1   9    6.05    1.28
   6  -1   9    6.12    1.32
  -6   1  -9    7.38    1.41
   6  -1   9    6.31    1.40
   6  -1  10    0.44    1.14
  -6   1 -10    0.97    1.08
   6  -1  10    0.56    0.99
   6  -1  10   -0.82    1.03
  -6   1 -10    1.82    1.25
   6  -1  10    0.18    1.20
   6  -1  11   22.88    2.25
   6  -1  11   23.67    2.20
   6  -1  11   22.15    1.96
  -6   1 -11   26.46    2.32
   6  -1  11   24.48    2.30
  -6   1 -11   21.95    1.93
   6  -1  12   22.23    2.45
   6  -1  12   23.84    2.08
   6  -1  12   21.46    2.06
  -6   1 -12   20.44    2.07
   6  -1  12   18.28    2.06
  -6   1 -12   17.39    1.83
   6  -1  13    6.77    1.59
   6  -1  13    8.01    1.98
   6  -1  13    5.38    1.33
   6  -1  13   10.03    1.79
   6  -1  14    1.16    1.51
   6  -1  14    1.92    1.13
   6  -1  15    2.86    1.25
   6  -1  15    2.49    1.60
  -6   0  12    2.94    0.83
   6   0 -12    2.02    1.41
   6   0 -12    2.84    1.75
  -6   0  11   20.48    1.47
   6   0 -11   18.45    2.21
   6   0 -11   24.36    1.68
   6   0 -11   25.00    2.75
  -6   0  10    2.71    0.85
   6   0 -10    1.77    1.14
   6   0 -10    2.65    0.92
  -6   0   9   11.04    1.22
   6   0  -9   12.03    1.63
   6   0  -9   11.13    1.33
   6   0  -9   12.39    1.95
  -6   0   8    2.58    0.85
   6   0  -8    3.26    1.07
   6   0  -8    1.28    1.22
   6   0  -8    2.48    0.85
  -6   0   7   10.22    1.16
   6   0  -7    8.41    1.27
   6   0  -7    8.78    1.54
   6   0  -7   10.00    1.67
   6   0  -7    8.73    1.18
   6   0  -6   56.05    2.50
  -6   0   6   53.55    2.28
   6   0  -6   47.84    2.16
   6   0  -6   54.16    2.90
   6   0  -6   54.97    3.07
  -6   0   5  133.20    3.52
   6   0  -5  135.31    3.24
   6   0  -5  135.20    4.32
   6   0  -5  138.28    4.47
   6   0  -5  138.51    3.77
  -6   0   4    0.21    0.74
   6   0  -4    0.67    0.59
   6   0  -4    0.64    1.01
   6   0  -4    0.67    1.04
   6   0  -4    0.14    0.80
   6   0  -3   29.60    1.26
  -6   0   3   32.15    1.77
   6   0  -3   28.41    2.01
   6   0  -3   27.91    2.04
   6   0  -3   30.04    1.85
   6   0  -2    5.70    1.03
   6   0  -2    6.89    0.55
  -6   0   2    6.93    1.11
   6   0  -2    8.33    1.22
   6   0  -2    7.05    1.16
   6   0  -1   11.74    0.46
  -6   0   1   11.43    1.20
   6   0  -1   13.26    1.34
  -6   0   1   11.78    1.40
   6   0  -1   12.26    1.35
   6   0  -1   16.10    1.47
  -6   0   0   54.31    2.26
   6   0   0   54.46    2.35
  -6   0   0   53.86    2.46
   6   0   0   54.97    2.36
   6   0   0   58.77    2.46
   6   0   1    4.93    0.96
   6   0   1    4.62    1.01
  -6   0  -1    5.63    1.03
  -6   0  -1    5.19    1.06
   6   0   1    5.08    0.98
  -6   0  -1    4.47    1.05
  -6   0  -2  109.55    3.37
  -6   0  -2  111.23    3.24
   6   0   2  110.23    3.12
   6   0   2  109.19    3.17
   6   0   2  109.87    3.37
   6   0   3   78.97    2.92
   6   0   3   74.22    1.51
  -6   0  -3   76.89    2.72
   6   0   3   75.54    2.61
   6   0   3   76.62    2.65
   6   0   4   53.08    2.19
   6   0   4   55.57    2.50
  -6   0  -4   51.13    2.33
   6   0   4   56.21    1.63
  -6   0  -4   53.83    2.37
   6   0   4   51.20    2.28
   6   0   5   28.16    1.86
   6   0   5   28.04    1.41
   6   0   5   27.27    1.73
  -6   0  -5   26.05    1.73
  -6   0  -5   27.88    1.80
   6   0   5   25.38    1.72
   6   0   6   28.73    1.62
   6   0   6   28.09    1.84
   6   0   6   30.63    1.86
  -6   0  -6   27.06    1.83
  -6   0  -6   27.21    1.84
   6   0   6   23.23    1.75
  -6   0  -7   -1.25    0.98
   6   0   7   -0.18    0.85
   6   0   7   -0.84    0.98
  -6   0  -7    2.01    0.95
   6   0   7    1.67    1.02
   6   0   7    0.50    0.86
   6   0   8    7.49    1.27
   6   0   8    4.69    1.11
   6   0   8    9.82    1.36
  -6   0  -8    8.93    1.39
  -6   0  -8    9.18    1.25
   6   0   8    7.92    1.40
  -6   0  -9    2.23    1.11
   6   0   9    2.86    1.23
   6   0   9    3.68    1.05
   6   0   9    5.08    1.23
  -6   0  -9    1.20    1.03
   6   0   9    4.29    1.14
   6   0  10   41.98    2.75
   6   0  10   47.90    2.55
  -6   0 -10   47.13    2.67
   6   0  10   45.86    2.59
  -6   0 -10   44.23    2.44
   6   0  10   43.90    2.73
   6   0  11    4.60    1.33
   6   0  11    4.01    1.40
   6   0  11    6.23    1.31
  -6   0 -11    7.72    1.40
  -6   0 -11    5.77    1.36
   6   0  11    6.52    1.41
   6   0  12    8.08    1.50
   6   0  12    7.65    1.42
   6   0  12    8.03    1.53
   6   0  12    5.53    1.54
  -6   0 -12    9.43    1.61
  -6   0 -12    7.44    1.37
   6   0  13    1.70    1.35
   6   0  13    2.75    1.72
   6   0  13    1.14    0.98
  -6   0 -13    1.92    1.17
   6   0  13    3.35    1.42
   6   0  14    8.97    1.48
   6   0  14    7.61    1.95
   6   0  14    9.49    1.74
   6   0  15    0.60    1.10
   6   0  15    1.65    1.47
   6   0  16    1.07    1.23
   6   0  16   -0.57    1.52
  -6  -1  12    6.93    1.16
  -6  -1  12    6.35    2.13
   6   1 -12    3.07    1.73
  -6  -1  11   -1.34    1.78
  -6  -1  11    1.19    0.98
   6   1 -11   -2.02    1.51
   6   1 -11    0.33    0.90
   6   1 -11    2.54    1.56
  -6  -1  10    3.91    1.67
  -6  -1  10    5.52    1.15
   6   1 -10    6.59    1.51
   6   1 -10    6.09    1.11
   6   1 -10    8.55    1.88
  -6  -1   9    8.24    1.23
  -6  -1   9    9.07    1.95
   6   1  -9    7.81    1.52
   6   1  -9    9.44    1.26
   6   1  -9    9.09    1.80
  -6  -1   8   12.73    1.45
  -6  -1   8   12.49    1.88
   6   1  -8   14.56    1.60
   6   1  -8   12.90    1.47
   6   1  -8   11.67    1.82
  -6  -1   7    8.43    1.23
  -6  -1   7    7.24    1.68
   6   1  -7    5.07    1.18
   6   1  -7    7.08    1.57
   6   1  -7    5.62    1.07
  -6  -1   6   30.76    1.96
  -6  -1   6   29.63    2.10
   6   1  -6   29.84    1.81
   6   1  -6   32.21    2.51
   6   1  -6   32.51    1.96
  -6  -1   5  274.04    5.26
  -6  -1   5  249.75    5.01
   6   1  -5  263.79    4.48
   6   1  -5  262.74    6.08
   6   1  -5  272.64    6.30
   6   1  -5  265.66    5.24
  -6  -1   4   17.93    1.54
   6   1  -4   19.51    1.25
   6   1  -4   18.89    1.77
   6   1  -4   17.76    1.71
   6   1  -4   19.55    1.65
  -6  -1   3    0.84    0.87
   6   1  -3    1.38    1.13
   6   1  -3   -0.06    0.92
   6   1  -3   -0.46    0.83
  -6  -1   2    7.62    1.11
   6   1  -2    6.71    1.24
   6   1  -2    9.03    1.28
   6   1  -2    6.81    1.19
  -6  -1   1    6.88    1.07
   6   1  -1    8.63    1.32
  -6  -1   1    7.12    1.24
   6   1  -1    7.80    1.16
   6   1  -1    7.29    1.14
   6   1   0    3.24    0.88
  -6  -1   0    4.02    0.97
   6   1   0    3.25    0.95
   6   1   0    4.30    0.99
  -6  -1  -1   12.12    1.21
  -6  -1  -1   12.65    1.41
  -6  -1  -1   11.87    1.32
   6   1   1   12.52    1.32
   6   1   1   13.70    1.42
   6   1   1   10.99    1.27
  -6  -1  -2  172.74    3.91
  -6  -1  -2  172.07    4.21
  -6  -1  -2  166.92    3.96
   6   1   2  180.70    3.99
   6   1   2  179.82    4.17
  -6  -1  -3   11.18    1.20
  -6  -1  -3   12.54    1.29
  -6  -1  -3   11.21    1.23
   6   1   3   11.46    1.22
   6   1   3   13.51    1.32
   6   1   3   11.55    1.35
   6   1   4   82.69    1.89
  -6  -1  -4   76.36    2.76
  -6  -1  -4   78.66    2.82
   6   1   4   84.81    2.89
   6   1   4   84.07    2.69
   6   1   4   78.46    2.91
   6   1   5    6.11    0.79
   6   1   5    8.66    1.09
   6   1   5    5.97    1.03
  -6  -1  -5    8.19    1.15
   6   1   5    6.41    1.08
  -6  -1  -5    5.94    1.02
   6   1   6    5.37    1.12
   6   1   6    4.75    0.94
  -6  -1  -6    5.34    1.02
   6   1   6    3.90    0.99
  -6  -1  -6    4.41    0.96
   6   1   6    5.00    1.13
  -6  -1  -7    2.30    0.91
   6   1   7    2.38    0.94
   6   1   7    1.58    0.87
  -6  -1  -7    2.78    0.84
  -6  -1  -7    1.27    0.99
   6   1   7    1.57    0.85
   6   1   7    2.21    0.98
   6   1   8  127.15    3.78
   6   1   8  123.15    3.76
  -6  -1  -8  122.30    3.42
   6   1   8  119.60    3.57
  -6  -1  -8  128.00    3.81
  -6  -1  -8  127.37    3.71
   6   1   8  127.03    3.93
  -6  -1  -9    0.72    0.82
   6   1   9    0.13    1.03
   6   1   9   -0.04    0.83
   6   1   9   -1.29    0.95
  -6  -1  -9   -0.45    0.95
  -6  -1  -9   -0.35    0.91
   6   1   9   -0.83    1.09
   6   1  10   47.15    2.48
   6   1  10   43.35    2.77
  -6  -1 -10   47.98    2.57
  -6  -1 -10   50.40    2.74
   6   1  10   45.80    2.47
  -6  -1 -10   45.42    2.42
   6   1  10   49.64    2.79
   6   1  11    3.96    1.47
   6   1  11    2.52    1.02
  -6  -1 -11    4.92    1.23
  -6  -1 -11    3.93    1.38
   6   1  11    3.15    1.08
  -6  -1 -11    3.80    1.28
   6   1  11    4.06    1.26
   6   1  12   47.38    3.30
   6   1  12   47.21    2.58
   6   1  12   38.22    2.53
  -6  -1 -12   43.20    2.77
  -6  -1 -12   44.35    2.85
  -6  -1 -12   44.52    2.54
   6   1  12   47.25    3.01
   6   1  13    3.63    1.38
   6   1  13    2.79    1.79
   6   1  13    1.76    1.11
  -6  -1 -13   -2.10    1.35
  -6  -1 -13    1.76    1.46
   6   1  13    2.21    1.27
  -6  -1 -13    0.24    1.37
   6   1  14    4.17    1.70
   6   1  14   -1.67    1.75
   6   1  14    2.26    1.15
  -6  -1 -14    3.72    1.29
  -6  -1 -14    3.94    1.73
   6   1  14    3.18    1.19
   6   1  15    1.92    1.33
   6   1  15    0.96    1.09
  -6  -1 -15   -1.24    1.77
   6   1  16    3.59    1.26
  -6  -1 -16    5.56    2.09
   6   1  16    4.13    1.75
  -6  -2  12   -0.24    1.01
   6   2 -12   -2.45    1.71
  -6  -2  11   -0.31    0.94
  -6  -2  11    1.16    1.59
   6   2 -11    0.98    0.95
   6   2 -11   -0.28    1.67
  -6  -2  10    1.41    1.04
  -6  -2  10   -0.18    1.80
   6   2 -10    1.63    1.02
   6   2 -10    3.46    1.67
  -6  -2   9    2.30    0.95
  -6  -2   9    2.36    1.73
   6   2  -9    2.69    1.01
   6   2  -9    4.14    1.57
  -6  -2   8    4.55    1.05
  -6  -2   8    1.06    1.31
   6   2  -8    4.67    1.23
   6   2  -8    0.24    1.35
  -6  -2   7    0.26    0.92
  -6  -2   7    0.17    1.19
   6   2  -7    1.88    1.19
   6   2  -7    2.05    1.04
  -6  -2   6    0.69    0.96
  -6  -2   6   -0.17    1.02
   6   2  -6   -0.08    1.13
   6   2  -6    1.72    1.01
  -6  -2   5  180.18    4.27
   6   2  -5  186.76    5.41
   6   2  -5  179.63    4.47
  -6  -2   5  186.17    4.47
   6   2  -4    6.88    1.42
  -6  -2   4    9.69    1.15
   6   2  -4    8.19    1.24
  -6  -2   4    9.57    1.22
  -6  -2   3   66.71    2.14
   6   2  -3   66.20    3.05
   6   2  -3   63.61    2.94
   6   2  -3   69.36    2.80
  -6  -2   3   66.80    2.73
  -6  -2   2    3.10    0.97
  -6  -2   2    1.98    0.57
   6   2  -2    1.78    0.94
   6   2  -2    3.11    1.11
   6   2  -2    3.24    1.02
   6   2  -1   20.62    1.72
  -6  -2   1   16.24    1.63
   6   2  -1   16.38    1.57
   6   2  -1   20.08    1.63
  -6  -2   1   17.67    1.52
   6   2   0    2.99    0.95
  -6  -2   0    1.25    0.91
   6   2   0    1.46    0.88
  -6  -2   0    1.77    0.99
   6   2   0    1.50    0.88
  -6  -2  -1   30.12    1.85
   6   2   1   27.89    1.73
  -6  -2  -1   25.10    1.80
   6   2   1   27.17    1.78
   6   2   1   24.86    1.71
  -6  -2  -2   19.92    1.55
  -6  -2  -2   19.05    1.57
  -6  -2  -2   14.82    1.39
   6   2   2   20.27    1.52
   6   2   2   19.57    1.54
   6   2   2   18.12    1.52
  -6  -2  -3   49.03    2.22
  -6  -2  -3   45.78    2.24
  -6  -2  -3   39.85    2.02
   6   2   3   44.56    2.04
   6   2   3   47.97    2.14
   6   2   3   44.37    2.22
  -6  -2  -4   18.34    0.79
  -6  -2  -4   16.79    1.39
  -6  -2  -4   19.23    1.58
  -6  -2  -4   15.05    1.39
   6   2   4   17.14    1.44
   6   2   4   18.03    1.39
   6   2   4   15.96    1.51
  -6  -2  -5  153.86    2.61
  -6  -2  -5  162.95    3.86
  -6  -2  -5  158.34    3.83
   6   2   5  160.09    3.86
   6   2   5  161.83    4.04
   6   2   5  157.67    3.59
   6   2   6   17.81    1.40
   6   2   6   19.73    1.47
  -6  -2  -6   17.44    1.15
  -6  -2  -6   20.13    1.54
  -6  -2  -6   20.05    1.60
   6   2   6   16.76    1.55
   6   2   6   17.93    1.53
   6   2   7  152.26    3.89
  -6  -2  -7  152.84    3.35
   6   2   7  151.93    3.69
  -6  -2  -7  154.74    3.81
  -6  -2  -7  157.16    4.12
   6   2   7  155.25    4.15
   6   2   7  158.54    4.04
  -6  -2  -8    3.47    0.93
   6   2   8    3.19    0.97
   6   2   8    2.19    1.05
  -6  -2  -8    5.25    1.09
  -6  -2  -8    3.23    1.01
   6   2   8    4.11    0.97
   6   2   8    6.13    1.33
  -6  -2  -9    4.05    1.02
   6   2   9    3.58    1.02
   6   2   9    4.03    1.09
   6   2   9    1.95    1.10
  -6  -2  -9    1.28    0.94
  -6  -2  -9    2.76    1.10
   6   2   9    2.34    1.05
   6   2  10   22.54    2.19
  -6  -2 -10   22.91    1.86
   6   2  10   20.66    1.68
  -6  -2 -10   23.67    1.95
  -6  -2 -10   24.93    1.83
   6   2  10   22.02    2.01
   6   2  10   23.18    1.81
   6   2  11   54.03    3.27
  -6  -2 -11   58.63    3.03
  -6  -2 -11   58.04    3.04
  -6  -2 -11   62.95    2.77
   6   2  11   63.51    2.82
   6   2  11   64.65    3.30
   6   2  11   62.01    2.79
   6   2  12    1.61    1.37
   6   2  12    4.78    1.19
   6   2  12    2.17    1.42
   6   2  12    2.75    1.09
  -6  -2 -12    1.64    0.96
  -6  -2 -12    2.36    1.43
  -6  -2 -12    3.22    1.35
   6   2  13    1.27    1.33
   6   2  13    2.24    1.64
   6   2  13    2.86    1.00
  -6  -2 -13    1.22    0.98
  -6  -2 -13    2.47    1.47
   6   2  13   -0.07    1.09
  -6  -2 -13    1.99    1.06
   6   2  14   10.98    2.42
  -6  -2 -14   17.42    2.32
   6   2  14   16.56    1.99
  -6  -2 -14    9.79    1.45
   6   2  14   12.34    1.89
   6   2  14   13.24    1.56
   6   2  15    0.41    1.28
   6   2  15    2.00    0.94
  -6  -2 -15    2.23    1.68
   6   2  16    1.35    1.01
  -6  -2 -16    2.81    1.78
   6   2  16    1.85    1.35
   6   2  17    3.80    1.63
  -6  -2 -17    4.04    1.94
  -6  -3  12   -0.27    1.06
  -6  -3  11    7.43    1.44
  -6  -3  11   10.39    2.20
   6   3 -11    8.41    1.42
   6   3 -11   10.90    2.30
  -6  -3  10   -0.37    1.12
  -6  -3  10    0.15    1.53
   6   3 -10    1.19    0.94
   6   3 -10    1.10    1.49
  -6  -3   9    2.54    1.08
  -6  -3   9    1.77    1.42
   6   3  -9    1.53    1.00
   6   3  -9   -0.09    1.33
  -6  -3   8   -2.10    1.13
  -6  -3   8   -0.13    1.40
   6   3  -8    1.96    1.17
   6   3  -8   -0.64    1.34
  -6  -3   7    3.53    1.11
  -6  -3   7    3.78    1.30
   6   3  -7    6.61    1.74
   6   3  -7    4.72    1.19
  -6  -3   6    0.51    1.03
   6   3  -6    1.43    0.98
  -6  -3   6   -0.35    0.95
   6   3  -6   -0.86    1.47
  -6  -3   5  104.94    3.32
   6   3  -5  105.92    3.59
   6   3  -5   96.15    4.02
  -6  -3   5  103.65    3.58
   6   3  -4    6.19    1.21
  -6  -3   4    5.14    1.20
  -6  -3   4    5.58    0.98
   6   3  -4    4.73    1.48
  -6  -3   3    8.30    1.01
   6   3  -3    8.65    1.36
   6   3  -3    7.75    1.29
  -6  -3   3    9.18    1.33
  -6  -3   2   -1.40    0.92
   6   3  -2    0.76    0.95
  -6  -3   2    0.98    0.57
   6   3  -2    1.07    0.99
   6   3  -2   -0.98    0.87
  -6  -3   1    4.03    1.07
  -6  -3   1    2.49    0.48
   6   3  -1    2.94    1.01
   6   3  -1    2.73    0.92
   6   3  -1    4.96    1.20
  -6  -3   0   62.19    1.18
   6   3   0   66.66    2.78
  -6  -3   0   64.76    2.84
   6   3   0   66.45    2.76
  -6  -3   0   62.70    2.62
  -6  -3  -1    4.05    1.09
   6   3   1    7.21    1.17
   6   3   1    7.35    1.16
   6   3   1    7.50    1.25
  -6  -3  -1    5.59    1.19
  -6  -3  -2    2.17    0.91
  -6  -3  -2    4.44    0.96
   6   3   2    3.13    1.03
   6   3   2    3.83    0.92
   6   3   2    2.73    0.95
  -6  -3  -3  334.59    5.73
  -6  -3  -3  316.29    2.72
   6   3   3  319.01    5.16
  -6  -3  -3  326.81    5.65
  -6  -3  -3  327.54    5.58
   6   3   3  328.73    5.44
   6   3   3  317.75    5.63
  -6  -3  -4    0.96    0.82
   6   3   4    1.38    0.74
   6   3   4    0.97    0.73
  -6  -3  -4    0.21    0.70
  -6  -3  -4    0.22    0.44
  -6  -3  -4    0.61    0.82
   6   3   4   -0.62    0.80
  -6  -3  -5   17.02    1.05
  -6  -3  -5   17.31    1.45
  -6  -3  -5   19.15    1.57
   6   3   5   19.07    1.59
   6   3   5   20.26    1.67
   6   3   5   17.39    1.36
  -6  -3  -5   18.67    1.59
   6   3   6    6.91    0.98
  -6  -3  -6    6.04    0.84
  -6  -3  -6    7.65    1.05
  -6  -3  -6    7.37    1.04
  -6  -3  -6    5.62    1.10
   6   3   6    6.65    1.15
   6   3   6    8.17    1.16
  -6  -3  -7   40.50    1.87
   6   3   7   37.55    1.87
  -6  -3  -7   37.44    1.97
  -6  -3  -7   36.00    1.92
  -6  -3  -7   33.32    2.11
   6   3   7   38.98    2.17
   6   3   7   34.50    2.04
   6   3   8    3.60    0.95
  -6  -3  -8    3.07    0.97
  -6  -3  -8    3.80    1.06
   6   3   8    3.00    0.89
   6   3   8    3.67    1.12
  -6  -3  -8    3.63    0.92
   6   3   9    8.58    1.52
  -6  -3  -9    7.37    1.36
  -6  -3  -9    6.30    1.18
   6   3   9    8.33    1.12
  -6  -3  -9    6.61    1.16
   6   3   9    6.11    1.14
   6   3   9    5.07    1.13
   6   3  10    3.17    0.97
   6   3  10    6.60    1.55
  -6  -3 -10    5.07    1.22
   6   3  10    4.60    1.12
  -6  -3 -10    5.51    1.14
  -6  -3 -10    3.51    1.13
   6   3  10    4.08    1.35
   6   3  11   -0.36    0.92
  -6  -3 -11    0.98    0.96
   6   3  11   -0.67    1.34
  -6  -3 -11    1.84    1.22
  -6  -3 -11    0.16    0.94
   6   3  11   -0.18    0.86
   6   3  11   -0.71    1.25
   6   3  12    0.82    0.90
   6   3  12    0.03    1.48
  -6  -3 -12   -0.86    0.96
  -6  -3 -12    1.72    1.35
  -6  -3 -12    1.36    1.21
   6   3  12    0.68    0.97
   6   3  12    3.15    1.41
   6   3  13    1.62    0.92
   6   3  13    2.57    1.84
  -6  -3 -13    3.01    0.99
  -6  -3 -13    1.39    1.37
   6   3  13    1.85    1.06
  -6  -3 -13    4.77    1.41
   6   3  14   21.03    2.78
  -6  -3 -14   20.66    2.33
   6   3  14   21.66    2.01
  -6  -3 -14   17.85    1.77
   6   3  14   19.97    1.69
   6   3  14   25.33    2.49
   6   3  15    0.21    0.98
   6   3  15   -0.80    1.29
  -6  -3 -15   -1.76    1.22
  -6  -3 -15    0.97    1.59
   6   3  16    4.91    1.11
  -6  -3 -16    3.51    1.75
   6   3  16    5.41    1.59
   6   3  17   -0.80    1.39
  -6  -3 -17    0.62    1.68
  -6  -4  11    0.32    1.18
   6   4 -11   -1.19    1.73
  -6  -4  10    4.80    1.43
  -6  -4  10   -0.39    1.48
   6   4 -10    2.83    1.20
   6   4 -10    4.35    1.88
  -6  -4   9   31.14    2.75
   6   4  -9   28.08    2.17
   6   4  -9   29.87    2.99
  -6  -4   9   28.90    2.35
  -6  -4   8    2.35    1.16
  -6  -4   8    0.13    1.27
   6   4  -8    1.29    1.09
   6   4  -8    0.18    1.40
  -6  -4   7   -1.00    1.15
  -6  -4   7   -0.80    1.17
   6   4  -7    2.44    1.02
   6   4  -7    0.46    1.45
  -6  -4   6   -0.03    0.99
  -6  -4   6   -0.33    0.97
   6   4  -6    1.48    1.40
   6   4  -6    1.68    1.08
  -6  -4   5   43.27    2.25
   6   4  -5   42.90    2.49
  -6  -4   5   40.37    2.49
   6   4  -5   43.49    2.89
  -6  -4   4  115.41    3.31
   6   4  -4  117.03    3.82
   6   4  -4  113.88    4.23
  -6  -4   4  105.04    3.74
  -6  -4   3   24.90    1.55
   6   4  -3   22.89    1.78
   6   4  -3   21.05    1.94
  -6  -4   3   24.59    1.96
  -6  -4   2    1.57    1.02
  -6  -4   2    2.19    0.67
   6   4  -2    2.53    1.20
   6   4  -2    1.60    0.93
  -6  -4   1    0.36    0.88
  -6  -4   1    0.59    0.54
   6   4  -1    0.57    0.97
   6   4  -1    0.62    0.89
   6   4  -1    1.17    0.98
  -6  -4   0   29.08    1.16
   6   4   0   31.30    2.03
  -6  -4   0   29.70    2.10
   6   4   0   27.48    1.91
   6   4   0   26.61    1.86
  -6  -4   0   27.30    1.91
   6   4   1   20.62    1.61
  -6  -4  -1   18.11    1.67
   6   4   1   21.79    1.71
   6   4   1   14.44    1.51
  -6  -4  -1   16.75    1.62
  -6  -4  -2    1.81    0.89
  -6  -4  -2    1.90    0.98
   6   4   2    1.70    1.01
   6   4   2    2.20    0.86
   6   4   2    0.73    0.85
  -6  -4  -3   38.22    1.48
   6   4   3   35.13    1.90
  -6  -4  -3   37.66    2.07
   6   4   3   38.10    2.02
   6   4   3   40.79    2.21
  -6  -4  -3   39.17    2.13
  -6  -4  -4  165.82    4.22
  -6  -4  -4  168.29    3.13
  -6  -4  -4  162.89    3.98
  -6  -4  -4  162.32    3.97
   6   4   4  169.67    3.70
   6   4   4  161.81    3.85
   6   4   4  168.63    4.24
  -6  -4  -5    4.68    0.89
   6   4   5    4.21    0.86
  -6  -4  -5    3.17    1.00
  -6  -4  -5    4.54    0.95
  -6  -4  -5    5.59    1.11
   6   4   5    3.43    1.00
   6   4   5    3.12    0.89
   6   4   6    9.69    1.28
  -6  -4  -6    9.83    1.11
  -6  -4  -6   10.09    1.20
  -6  -4  -6   10.08    1.21
  -6  -4  -6    8.42    1.22
   6   4   6    8.14    1.21
   6   4   6    8.38    1.06
  -6  -4  -7   20.88    1.51
   6   4   7   17.27    1.31
  -6  -4  -7   18.62    1.48
  -6  -4  -7   17.88    1.49
  -6  -4  -7   18.28    1.62
   6   4   7   15.84    1.50
   6   4   7   16.27    1.48
   6   4   8    1.02    0.88
   6   4   8    0.93    0.78
  -6  -4  -8    1.04    0.86
  -6  -4  -8    2.22    0.80
  -6  -4  -8   -0.57    0.96
  -6  -4  -8   -0.56    0.85
   6   4   8    0.38    0.99
  -6  -4  -9   57.05    2.65
   6   4   9   57.35    2.34
  -6  -4  -9   51.39    2.30
  -6  -4  -9   52.90    2.63
   6   4   9   59.72    2.56
   6   4   9   53.85    2.67
   6   4  10   52.33    2.29
  -6  -4 -10   56.62    2.86
  -6  -4 -10   49.18    2.59
  -6  -4 -10   50.84    2.36
   6   4  10   59.03    2.58
   6   4  10   56.67    2.94
   6   4  11    0.30    0.87
  -6  -4 -11    1.29    0.84
  -6  -4 -11    0.90    1.24
   6   4  11    0.73    0.83
  -6  -4 -11    1.82    1.03
   6   4  11    2.47    1.28
  -6  -4 -12   17.63    2.02
  -6  -4 -12   12.76    1.42
  -6  -4 -12   14.85    1.71
   6   4  12   13.82    1.44
   6   4  12   15.51    1.97
   6   4  12   14.94    1.57
   6   4  13    3.64    1.33
   6   4  13    2.72    0.97
  -6  -4 -13    2.75    1.08
  -6  -4 -13    3.19    1.33
   6   4  13    1.22    1.06
  -6  -4 -13    2.46    1.37
   6   4  14    3.13    1.39
   6   4  14    0.78    0.84
  -6  -4 -14    1.94    1.01
  -6  -4 -14    0.37    1.40
   6   4  14    1.40    1.02
  -6  -4 -14    0.42    1.23
   6   4  15    5.16    1.09
   6   4  15    3.25    1.54
   6   4  15    4.39    1.40
  -6  -4 -15    5.27    1.17
  -6  -4 -15    5.66    1.90
   6   4  16    5.00    1.05
  -6  -4 -16    7.86    2.19
   6   4  16    8.46    1.55
  -6  -4 -16    7.89    1.49
   6   4  17    2.81    1.37
  -6  -4 -17    5.20    2.30
  -6  -5  11    3.07    1.43
  -6  -5  10   11.66    2.15
   6   5 -10    7.95    1.49
   6   5 -10   13.04    2.50
  -6  -5  10   12.89    1.93
  -6  -5   9    5.97    1.77
   6   5  -9    2.75    1.13
   6   5  -9    6.40    1.96
  -6  -5   9    5.72    1.54
  -6  -5   8    2.58    1.41
   6   5  -8    0.49    1.05
   6   5  -8    0.91    1.53
  -6  -5   8    1.17    1.35
  -6  -5   7    2.98    1.31
   6   5  -7    5.00    1.58
   6   5  -7    5.57    1.35
  -6  -5   7    2.76    1.27
  -6  -5   6    2.64    1.25
   6   5  -6    4.06    1.30
   6   5  -6    5.27    1.65
  -6  -5   6    4.45    1.35
  -6  -5   5    5.11    1.26
   6   5  -5    3.95    1.09
   6   5  -5    6.25    1.68
  -6  -5   5    4.75    1.35
  -6  -5   4  148.44    3.95
   6   5  -4  153.17    4.52
  -6  -5   4  146.95    4.67
   6   5  -4  156.40    5.03
  -6  -5   3   86.51    2.84
   6   5  -3   78.27    3.33
   6   5  -3   82.62    3.56
  -6  -5   3   87.42    3.51
  -6  -5   2   50.15    2.05
   6   5  -2   50.52    2.61
   6   5  -2   43.05    2.48
  -6  -5   2   44.64    2.56
  -6  -5   1    6.07    1.23
  -6  -5   1    8.95    1.00
   6   5  -1    9.54    1.43
   6   5  -1    6.96    1.27
  -6  -5   0    6.36    1.30
   6   5   0    3.40    1.01
   6   5   0    5.32    1.08
   6   5   0    5.28    1.18
   6   5   1   78.35    2.99
  -6  -5  -1   75.64    3.07
   6   5   1   75.57    3.04
   6   5   1   74.87    2.83
   6   5   2   69.72    2.74
  -6  -5  -2   69.09    2.86
   6   5   2   71.79    2.91
   6   5   2   77.63    2.93
  -6  -5  -2   71.17    2.98
   6   5   3   16.28    1.40
  -6  -5  -3   14.43    1.44
   6   5   3   18.99    1.66
   6   5   3   17.67    1.52
  -6  -5  -3   17.12    1.57
   6   5   4   49.05    2.11
  -6  -5  -4   44.57    2.20
   6   5   4   47.77    2.39
   6   5   4   47.82    2.21
  -6  -5  -4   47.67    2.39
   6   5   5    0.93    0.71
  -6  -5  -5    2.35    0.98
  -6  -5  -5    1.55    0.92
  -6  -5  -5    0.90    0.81
   6   5   5    1.21    0.91
   6   5   5    0.33    0.93
  -6  -5  -6   20.06    1.69
  -6  -5  -6   21.90    1.63
   6   5   6   24.03    1.83
  -6  -5  -6   22.91    1.62
  -6  -5  -6   20.54    1.63
   6   5   6   21.19    1.58
   6   5   6   20.47    1.36
  -6  -5  -7    5.31    1.21
  -6  -5  -7    2.81    0.95
   6   5   7    2.48    0.77
  -6  -5  -7    2.91    0.84
  -6  -5  -7    2.76    0.92
   6   5   7    3.81    1.01
   6   5   7    2.57    1.03
  -6  -5  -8  182.49    4.54
  -6  -5  -8  178.42    4.19
   6   5   8  177.18    3.71
  -6  -5  -8  190.37    4.56
   6   5   8  183.81    4.49
   6   5   8  180.35    4.50
  -6  -5  -9    1.72    1.06
  -6  -5  -9    4.01    1.00
  -6  -5  -9    3.63    1.11
  -6  -5  -9    2.42    0.81
   6   5   9    2.68    0.86
   6   5   9    1.58    1.05
   6   5   9    2.26    0.90
   6   5  10    1.99    0.89
  -6  -5 -10    4.20    1.43
  -6  -5 -10    3.47    0.91
  -6  -5 -10    3.45    1.16
  -6  -5 -10    2.93    1.00
   6   5  10    2.12    1.01
   6   5  10    5.05    1.33
  -6  -5 -11   15.93    1.82
  -6  -5 -11   17.00    1.54
  -6  -5 -11   21.19    1.95
   6   5  11   18.59    1.52
   6   5  11   16.91    1.63
   6   5  11   19.52    1.93
  -6  -5 -12   36.04    2.71
  -6  -5 -12   32.35    1.98
  -6  -5 -12   28.84    2.24
   6   5  12   26.07    1.91
   6   5  12   32.73    2.54
   6   5  12   29.64    1.93
   6   5  13    2.89    1.50
  -6  -5 -13    0.11    0.87
  -6  -5 -13    4.03    1.63
   6   5  13    0.39    1.01
  -6  -5 -13    0.52    1.04
   6   5  13    0.46    0.79
   6   5  14   -0.59    1.38
  -6  -5 -14    2.76    1.05
  -6  -5 -14    2.54    1.49
   6   5  14    3.02    1.19
  -6  -5 -14    3.02    1.37
   6   5  14    1.06    0.82
   6   5  15    1.02    1.41
  -6  -5 -15    1.79    0.98
   6   5  15    2.73    1.19
  -6  -5 -15   -0.65    1.52
   6   5  15    1.44    0.95
  -6  -5 -16    6.75    1.39
   6   5  16    5.49    1.39
   6   5  16    5.31    1.05
  -6  -5 -17    1.95    1.15
  -6  -5 -17    3.13    2.04
   6   5  17    0.85    1.31
   6   6 -10    0.27    1.60
  -6  -6  10    3.52    1.56
  -6  -6   9    1.32    1.48
   6   6  -9   -0.11    1.21
   6   6  -9   -1.88    1.66
  -6  -6   9    2.69    1.44
  -6  -6   8   13.85    2.14
   6   6  -8   14.99    1.91
   6   6  -8   11.80    2.25
  -6  -6   8   17.03    2.08
  -6  -6   7    0.39    1.31
   6   6  -7    2.26    1.18
   6   6  -7    3.69    1.65
  -6  -6   7    3.39    1.36
  -6  -6   6   -0.94    1.13
   6   6  -6   -1.61    1.17
   6   6  -6    2.40    1.44
  -6  -6   6    2.09    1.34
  -6  -6   5    0.82    1.02
   6   6  -5    0.54    1.10
   6   6  -5   -0.90    1.43
  -6  -6   5    1.19    1.29
  -6  -6   4   38.67    2.39
   6   6  -4   33.71    2.38
  -6  -6   4   40.57    2.66
   6   6  -4   34.55    2.54
   6   6  -3  175.88    5.10
  -6  -6   3  174.87    4.28
   6   6  -3  164.02    4.84
  -6  -6   3  173.86    5.11
  -6  -6   2    4.20    1.01
   6   6  -2    6.10    1.33
   6   6  -2    3.35    1.09
  -6  -6   2    2.40    1.11
  -6  -6   1    2.72    0.93
   6   6  -1    2.05    1.08
   6   6  -1    3.52    1.06
  -6  -6   1    2.71    1.23
   6   6   0    1.03    1.05
   6   6   0    2.26    1.02
   6   6   0    0.61    0.86
  -6  -6   0   -0.62    1.13
   6   6   1   19.18    1.73
   6   6   1   20.66    1.73
  -6  -6  -1   21.17    1.85
   6   6   1   24.41    1.75
  -6  -6  -1   19.44    1.82
  -6  -6  -2    7.84    1.25
   6   6   2    6.62    1.21
   6   6   2    8.51    1.34
  -6  -6  -2    6.55    1.22
   6   6   2    6.30    1.10
   6   6   3  135.71    3.58
  -6  -6  -3  134.38    3.88
   6   6   3  135.64    4.08
   6   6   3  142.49    3.70
  -6  -6  -3  127.52    4.04
  -6  -6  -4    0.09    0.88
  -6  -6  -4    1.18    0.84
   6   6   4   -0.02    0.82
   6   6   4    0.56    0.85
   6   6   4   -1.11    0.73
   6   6   5   10.26    1.08
   6   6   5    9.30    1.29
   6   6   5    8.98    1.18
  -6  -6  -5    8.98    1.20
  -6  -6  -5    7.65    1.29
  -6  -6  -6    2.78    1.08
   6   6   6    3.49    0.88
  -6  -6  -6    3.20    1.12
  -6  -6  -6    3.05    0.98
   6   6   6    1.91    0.87
   6   6   6    3.20    1.00
  -6  -6  -7   48.43    2.41
  -6  -6  -7   42.78    2.51
  -6  -6  -7   46.67    2.16
  -6  -6  -7   47.65    2.34
   6   6   7   47.23    2.42
   6   6   7   44.98    2.28
   6   6   7   44.63    1.84
  -6  -6  -8    4.58    1.39
  -6  -6  -8    2.67    0.95
   6   6   8    4.27    0.83
  -6  -6  -8    4.21    0.89
  -6  -6  -8    3.61    1.07
   6   6   8    2.54    1.05
   6   6   8    4.06    1.16
  -6  -6  -9    2.42    1.28
  -6  -6  -9    2.60    0.92
  -6  -6  -9    2.34    0.91
  -6  -6  -9    3.42    1.14
   6   6   9    2.35    0.75
   6   6   9    3.73    1.06
   6   6   9    1.39    1.04
  -6  -6 -10  218.37    5.86
  -6  -6 -10  222.50    4.68
  -6  -6 -10  216.61    4.51
   6   6  10  232.42    4.31
  -6  -6 -10  227.66    5.27
   6   6  10  218.01    4.88
   6   6  10  221.73    5.31
  -6  -6 -11    1.84    1.35
  -6  -6 -11    3.09    1.00
   6   6  11    0.20    0.71
  -6  -6 -11    0.06    1.15
  -6  -6 -11    2.60    0.89
   6   6  11    0.03    0.85
   6   6  11   -0.25    1.09
  -6  -6 -12    4.03    1.43
  -6  -6 -12    4.88    1.30
   6   6  12    4.93    1.10
  -6  -6 -12    3.94    1.02
   6   6  12    4.15    1.01
   6   6  12    5.63    1.46
   6   6  13    0.19    1.23
  -6  -6 -13    0.99    1.50
   6   6  13    0.39    0.88
  -6  -6 -13    2.42    1.14
   6   6  13    0.65    0.81
  -6  -6 -13    0.35    0.80
   6   6  14    2.97    1.40
  -6  -6 -14    2.02    1.63
  -6  -6 -14    1.67    1.27
   6   6  14    3.10    0.94
   6   6  14    2.69    1.07
  -6  -6 -14    4.41    1.07
  -6  -6 -15    4.90    1.22
   6   6  15    6.31    1.68
   6   6  15    6.61    1.35
   6   6  15    5.58    1.06
   6   6  16    6.80    1.50
  -6  -6 -16    5.10    1.97
  -6  -6 -16    6.46    1.27
   6   6  17    1.08    1.15
  -6  -6 -17    2.83    1.95
   6   7  -9    6.37    2.05
  -6  -7   9    6.65    2.04
  -6  -7   8   -0.81    1.42
   6   7  -8   -1.31    1.63
  -6  -7   8    1.73    1.45
  -6  -7   7    0.81    1.35
   6   7  -7    1.72    1.32
   6   7  -7    3.64    1.61
  -6  -7   7    2.76    1.58
  -6  -7   6    2.69    1.42
   6   7  -6    0.22    1.14
   6   7  -6   -2.30    1.52
  -6  -7   6   -0.58    1.29
  -6  -7   5    3.70    1.37
   6   7  -5    6.32    1.44
   6   7  -5    5.41    1.63
  -6  -7   4    1.83    1.18
   6   7  -4    3.71    1.30
   6   7  -4    3.58    1.30
  -6  -7   4    2.42    1.37
  -6  -7   3  116.44    3.88
   6   7  -3  106.34    4.08
   6   7  -3  109.44    4.05
  -6  -7   3  111.85    4.45
  -6  -7   2    1.10    0.97
   6   7  -2    1.38    1.00
   6   7  -2    0.41    1.16
  -6  -7   2    0.82    1.24
   6   7  -1    1.95    0.99
   6   7  -1    4.99    1.31
  -6  -7   1    4.43    1.37
   6   7   0    1.93    1.09
   6   7   0   -0.05    1.03
  -6  -7   0    1.12    1.06
   6   7   1    5.43    1.20
   6   7   1    7.08    1.23
   6   7   1    5.72    1.39
  -6  -7  -1    6.51    1.37
  -6  -7  -2   -0.02    0.92
   6   7   2    0.83    1.00
   6   7   2   -0.04    0.94
   6   7   2   -0.46    0.91
  -6  -7  -2    1.00    1.07
  -6  -7  -3    1.48    1.01
   6   7   3    3.10    0.99
   6   7   3    3.17    1.22
  -6  -7  -3    0.18    0.89
   6   7   3    1.44    0.90
  -6  -7  -4    1.09    0.90
  -6  -7  -4    0.69    0.84
   6   7   4    1.89    1.11
   6   7   4    2.01    0.93
   6   7   4    1.75    0.79
  -6  -7  -5   15.47    1.53
   6   7   5   15.52    1.65
   6   7   5   15.30    1.41
   6   7   5   14.12    1.22
  -6  -7  -5   15.67    1.59
  -6  -7  -6    1.47    0.91
   6   7   6    1.18    0.62
  -6  -7  -6    2.03    0.95
   6   7   6    0.86    0.93
   6   7   6    0.81    0.85
  -6  -7  -7    4.86    1.11
  -6  -7  -7    9.49    1.62
  -6  -7  -7    7.14    1.21
   6   7   7    6.05    1.27
   6   7   7    6.98    1.10
   6   7   7    7.47    0.92
   6   7   8    4.19    0.89
  -6  -7  -8    1.81    1.43
  -6  -7  -8    4.54    1.19
  -6  -7  -8    1.94    0.99
   6   7   8    5.34    1.13
   6   7   8    3.84    1.14
  -6  -7  -9    1.66    1.53
  -6  -7  -9   -0.85    0.95
  -6  -7  -9   -0.44    0.73
   6   7   9   -0.05    0.88
   6   7   9    0.17    0.66
   6   7   9   -1.23    1.01
  -6  -7  -9    0.48    0.94
  -6  -7 -10   66.51    3.58
  -6  -7 -10   60.22    2.87
  -6  -7 -10   61.79    2.62
  -6  -7 -10   58.95    2.37
   6   7  10   65.46    2.29
   6   7  10   64.49    2.78
   6   7  10   58.95    2.84
  -6  -7 -11    2.63    1.41
  -6  -7 -11    1.76    0.80
   6   7  11    2.65    0.85
  -6  -7 -11    2.70    0.89
  -6  -7 -11    1.70    1.08
   6   7  11    1.85    0.95
   6   7  11    2.07    1.14
  -6  -7 -12    1.93    1.64
  -6  -7 -12    0.63    0.72
  -6  -7 -12    0.37    0.72
  -6  -7 -12    1.83    1.11
   6   7  12    1.75    0.99
   6   7  12    1.10    0.80
   6   7  12    0.25    1.10
  -6  -7 -13   16.41    2.31
   6   7  13   18.85    1.50
  -6  -7 -13   17.00    1.48
   6   7  13   17.41    1.52
  -6  -7 -13   16.76    1.87
   6   7  13   18.33    2.06
   6   7  14    1.17    0.89
   6   7  14    0.76    1.23
  -6  -7 -14   -0.55    1.48
   6   7  14    0.84    0.91
  -6  -7 -14    0.65    1.08
  -6  -7 -14    0.00    0.87
   6   7  15    2.61    1.43
  -6  -7 -15    0.67    1.66
   6   7  15    1.41    0.91
   6   7  15    1.13    0.80
  -6  -7 -15    2.16    1.01
  -6  -7 -16    7.25    2.32
   6   7  16    6.78    1.28
   6   8  -8    2.84    1.83
  -6  -8   8    2.59    1.71
  -6  -8   7    7.19    1.71
   6   8  -7    5.20    1.71
  -6  -8   7    6.27    1.87
  -6  -8   6    0.80    1.34
   6   8  -6    2.90    1.66
  -6  -8   6    3.97    1.60
  -6  -8   5    1.54    1.40
   6   8  -5    2.28    1.34
   6   8  -5    5.17    1.59
  -6  -8   5    2.83    1.48
  -6  -8   4   13.23    1.84
   6   8  -4    9.87    1.65
   6   8  -4   11.00    1.81
  -6  -8   4    9.97    2.00
  -6  -8   3    5.76    1.38
   6   8  -3    6.13    1.49
  -6  -8   3    3.07    1.44
   6   8  -3    4.27    1.42
  -6  -8   2   84.11    3.47
   6   8  -2   84.08    3.76
   6   8  -2   89.71    3.63
  -6  -8   2   94.10    4.17
   6   8  -1   12.79    1.66
  -6  -8   1   16.27    1.98
   6   8  -1   15.59    1.69
   6   8   0   23.81    1.86
   6   8   0   25.20    2.20
  -6  -8   0   21.71    2.10
   6   8   1    6.64    1.37
   6   8   1    4.88    1.16
   6   8   1    5.50    1.37
  -6  -8  -1    6.75    1.53
   6   8   2   36.55    2.23
   6   8   2   33.77    2.30
   6   8   2   40.60    2.30
  -6  -8  -2   33.89    2.52
  -6  -8  -3    0.44    0.91
   6   8   3   -0.88    1.11
   6   8   3    0.50    0.90
   6   8   3   -0.37    0.86
  -6  -8  -3    0.08    1.14
  -6  -8  -4    3.93    1.19
  -6  -8  -4    4.09    1.05
   6   8   4    3.39    1.03
   6   8   4    3.76    1.26
   6   8   4    2.71    0.86
  -6  -8  -5    0.92    0.98
  -6  -8  -5    2.22    0.93
   6   8   5    1.71    1.01
   6   8   5    0.92    0.83
   6   8   5    2.11    0.73
  -6  -8  -6    4.09    1.20
   6   8   6    4.29    0.82
  -6  -8  -6    4.63    1.09
   6   8   6    4.96    1.15
   6   8   6    4.60    1.01
   6   8   7   15.65    1.58
  -6  -8  -7   12.22    1.37
   6   8   7   10.55    1.32
   6   8   7   13.19    1.07
  -6  -8  -7   14.84    1.68
  -6  -8  -8    2.57    1.00
  -6  -8  -8    4.75    1.50
   6   8   8    2.06    0.65
   6   8   8    0.64    0.90
  -6  -8  -8    1.21    0.93
   6   8   8    1.89    0.96
  -6  -8  -9   11.91    2.01
   6   8   9   12.09    1.03
   6   8   9   10.77    1.39
  -6  -8  -9   12.58    1.46
   6   8   9   12.68    1.54
  -6  -8  -9   12.29    1.47
  -6  -8 -10   11.80    1.46
  -6  -8 -10   12.96    2.09
   6   8  10   10.36    1.01
   6   8  10   10.30    1.37
  -6  -8 -10   10.40    1.51
   6   8  10   12.83    1.55
  -6  -8 -11   14.28    2.27
  -6  -8 -11    9.86    1.34
  -6  -8 -11   12.62    1.59
  -6  -8 -11   10.00    1.19
   6   8  11   12.49    1.40
   6   8  11   12.31    1.09
   6   8  11   12.79    1.64
   6   8  12    1.34    0.74
  -6  -8 -12   -0.27    1.66
  -6  -8 -12    2.38    0.88
  -6  -8 -12    0.80    0.81
   6   8  12   -0.20    0.81
  -6  -8 -12    1.21    0.99
   6   8  12    1.59    1.30
   6   8  13    2.38    1.16
  -6  -8 -13    2.05    1.62
  -6  -8 -13    3.96    0.90
   6   8  13    2.16    0.84
   6   8  13    2.07    0.80
  -6  -8 -13    1.38    1.09
   6   8  14   10.00    1.75
  -6  -8 -14   12.95    2.42
  -6  -8 -14    9.02    1.10
   6   8  14    8.26    1.13
   6   8  14    7.02    1.05
  -6  -8 -14    7.91    1.52
   6   8  15   16.15    1.43
  -6  -8 -15   17.44    2.62
   6   8  15   14.31    2.09
  -6  -8 -16    4.05    2.03
   6   8  16    0.56    0.82
   6   9  -7    0.98    1.56
  -6  -9   7    1.08    1.63
  -6  -9   6    3.30    1.60
   6   9  -6    4.32    1.65
  -6  -9   6    4.07    1.82
  -6  -9   5   13.25    1.98
   6   9  -5   13.82    2.06
  -6  -9   5   18.38    2.47
   6   9  -4    4.58    1.48
  -6  -9   4    6.92    1.65
   6   9  -4    5.99    1.58
  -6  -9   4    6.20    1.75
  -6  -9   3   -0.95    1.35
   6   9  -3    2.49    1.50
   6   9  -3    1.75    1.29
  -6  -9   3   -1.93    1.41
   6   9  -2    1.08    1.38
   6   9  -2   -0.14    1.00
  -6  -9   2    2.11    1.42
   6   9  -1  104.72    4.23
   6   9  -1  101.78    3.66
   6   9   0   14.32    1.80
   6   9   0   11.77    1.46
  -6  -9   0   14.10    1.86
   6   9   1    2.43    1.13
   6   9   1    4.38    1.28
   6   9   1    3.39    1.08
  -6  -9  -1    6.26    1.47
   6   9   2    9.56    1.38
   6   9   2   10.07    1.37
  -6  -9  -2   10.46    1.76
   6   9   2    8.65    1.42
   6   9   3    1.14    1.13
   6   9   3    1.25    0.95
   6   9   3    1.08    1.06
  -6  -9  -3    0.90    1.15
  -6  -9  -4    1.66    0.98
   6   9   4    5.09    1.38
   6   9   4    2.99    0.98
   6   9   4    2.69    0.90
  -6  -9  -4    1.95    1.06
  -6  -9  -5    5.83    1.19
   6   9   5    3.99    1.16
   6   9   5    6.42    1.08
   6   9   5    4.91    0.91
  -6  -9  -5    6.46    1.35
   6   9   6   46.94    2.71
  -6  -9  -6   45.87    2.39
   6   9   6   43.63    1.87
   6   9   6   44.24    2.21
  -6  -9  -6   47.59    2.71
   6   9   7    8.18    1.43
  -6  -9  -7    7.65    1.25
   6   9   7    7.35    1.23
   6   9   7    5.44    0.83
  -6  -9  -7    9.47    1.49
   6   9   8    8.58    0.90
  -6  -9  -8   10.99    2.06
   6   9   8   11.19    1.56
  -6  -9  -8    8.83    1.25
   6   9   8   11.14    1.33
  -6  -9  -8   10.43    1.50
  -6  -9  -9   -0.55    0.96
  -6  -9  -9   -1.32    1.55
   6   9   9    0.65    1.06
  -6  -9  -9    0.95    0.88
   6   9   9    0.46    0.55
   6   9   9    0.45    0.90
   6   9  10    0.55    1.02
   6   9  10   -0.41    0.53
  -6  -9 -10    0.60    1.64
  -6  -9 -10   -0.38    0.91
  -6  -9 -10   -0.87    0.88
   6   9  10   -0.12    1.08
  -6  -9 -11    0.63    1.90
  -6  -9 -11    3.77    1.09
   6   9  11    4.12    1.10
  -6  -9 -11    2.17    1.07
   6   9  11    4.56    0.74
   6   9  11    2.27    1.09
  -6  -9 -12    2.44    1.95
  -6  -9 -12    3.80    0.99
   6   9  12    3.56    0.69
   6   9  12    2.53    0.98
  -6  -9 -12    4.79    1.30
   6   9  12    4.20    1.35
   6   9  13    1.09    1.22
   6   9  13    0.78    0.60
   6   9  13   -0.25    0.79
  -6  -9 -13    2.23    1.86
  -6  -9 -13    0.50    0.77
  -6  -9 -13   -0.44    1.00
   6   9  14   16.96    1.26
  -6  -9 -14   18.05    2.75
   6   9  14   18.55    1.53
  -6  -9 -14   17.57    1.96
   6   9  14   15.13    1.97
  -6  -9 -15   -1.16    1.80
  -6  -9 -16   12.65    2.69
   6  10  -6   21.78    2.51
  -6 -10   6   17.57    2.70
   6  10  -5    7.13    1.73
  -6 -10   5    3.98    1.74
  -6 -10   4    0.77    1.46
   6  10  -4   -1.07    1.20
  -6 -10   4    1.17    1.51
   6  10  -3    2.83    1.46
  -6 -10   3    3.05    1.46
   6  10  -3    4.90    1.42
  -6 -10   3    4.02    1.70
   6  10  -2   16.52    2.02
   6  10  -2   14.57    1.74
  -6 -10   2   15.78    2.35
   6  10  -1  106.29    3.87
  -6 -10   1  104.22    4.65
   6  10   0    4.34    1.17
   6  10   0    1.37    1.34
  -6 -10   0    3.89    1.61
   6  10   1   16.46    2.01
   6  10   1   16.10    1.57
  -6 -10  -1   13.14    2.11
   6  10   2    4.29    1.16
   6  10   2    2.38    0.96
   6  10   2    0.90    1.09
  -6 -10  -2    4.07    1.40
   6  10   3    5.92    1.39
   6  10   3    9.14    1.36
   6  10   3   10.29    1.29
  -6 -10  -3   11.51    1.96
   6  10   4    0.90    1.18
   6  10   4    0.12    0.84
   6  10   4    0.60    0.75
  -6 -10  -4   -1.26    1.41
   6  10   5   29.64    2.24
   6  10   5   28.88    1.67
  -6 -10  -5   29.67    2.09
   6  10   5   29.78    1.85
  -6 -10  -5   30.54    2.49
   6  10   6    3.00    0.77
  -6 -10  -6    5.51    1.23
   6  10   6    6.43    1.29
   6  10   6    6.50    1.15
  -6 -10  -6    5.21    1.30
  -6 -10  -7    1.75    1.23
   6  10   7   -0.45    0.59
   6  10   7   -0.91    1.05
  -6 -10  -7    1.20    1.04
   6  10   7   -1.21    0.92
  -6 -10  -8    4.95    1.36
   6  10   8    2.94    0.64
   6  10   8    1.49    1.12
  -6 -10  -8    4.12    1.06
   6  10   8    2.98    1.15
  -6 -10  -9   23.33    2.85
  -6 -10  -9   23.39    1.83
   6  10   9   25.15    1.15
   6  10   9   22.07    1.85
   6  10   9   24.15    1.83
  -6 -10  -9   27.46    2.14
  -6 -10 -10   -1.30    0.95
  -6 -10 -10    3.93    1.99
   6  10  10    1.64    0.49
   6  10  10    1.29    0.99
  -6 -10 -10    1.90    0.90
   6  10  10    1.24    0.98
   6  10  11    1.81    0.46
  -6 -10 -11    3.85    1.91
  -6 -10 -11    3.02    1.14
   6  10  11    1.41    1.03
  -6 -10 -11    2.02    0.94
   6  10  11    2.69    1.10
  -6 -10 -12    9.63    2.38
  -6 -10 -12    7.97    1.28
   6  10  12   10.44    1.41
   6  10  12    9.45    0.73
  -6 -10 -12   12.29    1.57
   6  10  12   11.81    1.60
  -6 -10 -13   14.72    1.49
   6  10  13   11.90    0.81
  -6 -10 -13   12.64    2.64
   6  10  13   12.16    1.37
  -6 -10 -13   13.16    1.69
   6  10  13   12.80    1.78
   6  10  14    1.47    1.20
  -6 -10 -14   -2.24    1.89
  -6 -10 -14   -0.13    0.74
  -6 -10 -14   -0.47    1.17
  -6 -10 -15   32.64    3.61
   6  11  -4   -0.78    1.23
  -6 -11   4    2.02    1.90
   6  11  -3    7.77    1.54
  -6 -11   3    5.19    1.87
   6  11  -2    7.74    1.49
   6  11  -2    2.33    1.50
  -6 -11   2    4.65    1.92
   6  11  -1    1.13    1.12
   6  11  -1    1.77    1.05
  -6 -11   1    3.24    1.73
   6  11   0    5.78    1.33
   6  11   0    6.15    1.22
  -6 -11   0    5.18    1.86
   6  11   1    2.19    1.14
   6  11   1    2.38    1.13
  -6 -11  -1   -0.80    1.46
   6  11   2    3.36    1.19
   6  11   2    3.46    1.00
  -6 -11  -2    4.90    1.61
   6  11   3    2.03    1.35
   6  11   3    3.96    1.15
   6  11   3    2.80    0.91
  -6 -11  -3    3.39    1.34
   6  11   4   18.46    2.10
   6  11   4   18.29    1.47
  -6 -11  -4   17.31    2.17
   6  11   5    2.34    1.21
   6  11   5    2.56    0.96
   6  11   5    2.53    0.83
  -6 -11  -5    2.36    1.34
   6  11   6    0.13    0.61
   6  11   6    0.67    1.28
  -6 -11  -6   -0.02    0.95
   6  11   6   -1.37    1.05
  -6 -11  -6    0.63    1.13
   6  11   7   38.41    2.70
  -6 -11  -7   42.97    2.37
  -6 -11  -7   43.57    2.87
   6  11   7   49.23    2.31
   6  11   7   44.68    1.65
  -6 -11  -8    1.52    1.21
   6  11   8   -0.38    0.45
   6  11   8   -0.31    1.02
  -6 -11  -8   -0.06    0.83
   6  11   8    0.83    0.88
  -6 -11  -9    6.92    1.52
   6  11   9    7.42    0.60
   6  11   9    7.24    1.36
  -6 -11  -9    6.11    1.17
   6  11   9    5.67    1.18
  -6 -11 -10   12.80    2.67
   6  11  10   10.11    1.51
  -6 -11 -10   13.01    1.53
   6  11  10   12.50    1.46
  -6 -11 -10   12.95    1.74
  -6 -11 -11   11.24    2.48
   6  11  11    9.10    1.43
  -6 -11 -11    8.47    1.35
   6  11  11    9.71    1.45
  -6 -11 -11   13.30    1.71
   6  11  12    1.05    1.01
  -6 -11 -12    5.04    2.14
  -6 -11 -12    0.70    1.05
   6  11  12    2.79    1.11
  -6 -11 -12    2.07    0.96
  -6 -11 -13   13.92    1.54
  -6 -11 -13   11.17    1.64
   6  11  13   11.90    1.77
  -6 -11 -14   -2.12    2.09
   6  12  -2   -0.67    1.11
  -6 -12   2   -0.42    1.66
   6  12  -1    1.00    1.17
   6  12  -1    4.29    1.24
  -6 -12   1    0.46    1.68
   6  12   0  115.82    3.99
  -6 -12   0  107.51    5.24
   6  12   0  105.68    4.14
   6  12   1    1.29    1.19
   6  12   1    0.12    0.95
  -6 -12  -1    1.20    1.60
   6  12   1    0.35    1.02
   6  12   2   12.97    1.54
  -6 -12  -2   16.24    2.25
   6  12   2   15.07    1.74
   6  12   2   13.41    1.49
   6  12   3    2.89    0.97
   6  12   3    1.79    1.03
   6  12   3    2.08    0.94
  -6 -12  -3    0.28    1.37
   6  12   4    0.27    0.76
   6  12   4    0.73    0.85
   6  12   4   -0.92    0.83
  -6 -12  -4   -1.76    1.49
   6  12   5    0.52    0.69
   6  12   5    0.01    0.66
   6  12   5   -0.57    0.75
  -6 -12  -5    0.05    1.20
   6  12   6    0.32    0.61
   6  12   6   -0.03    0.64
   6  12   6    0.28    1.13
   6  12   6    1.87    0.90
  -6 -12  -6    0.98    1.21
   6  12   7    3.51    0.59
   6  12   7    1.29    1.32
   6  12   7    2.46    1.01
   6  12   7    2.21    0.63
  -6 -12  -7    2.36    1.25
   6  12   8   42.56    1.24
   6  12   8   42.58    2.81
  -6 -12  -8   48.92    2.51
  -6 -12  -8   48.62    3.15
   6  12   8   42.37    1.36
   6  12   8   46.96    2.24
  -6 -12  -9   -0.81    1.12
   6  12   9    0.15    1.25
  -6 -12  -9   -1.63    0.95
   6  12   9    0.88    0.92
  -6 -12 -10    7.70    1.61
  -6 -12 -10    3.77    2.16
   6  12  10    7.45    1.42
  -6 -12 -10    8.17    1.31
   6  12  10    8.33    1.35
   6  12  11    5.11    1.20
  -6 -12 -11    3.45    1.35
  -6 -12 -11    6.29    2.43
   6  12  11    3.10    1.12
   6  12  12    3.04    1.10
  -6 -12 -12    4.47    1.23
   6  13   0   14.70    1.65
   6  13   1   29.33    2.41
   6  13   1   22.10    2.00
   6  13   1   27.42    1.94
  -6 -13  -1   30.83    3.16
   6  13   2    4.73    1.16
   6  13   2   11.06    1.63
  -6 -13  -2   13.88    2.46
   6  13   2    6.05    1.09
   6  13   3    4.66    1.18
   6  13   3    1.30    0.85
  -6 -13  -3    5.05    1.68
   6  13   4    0.01    0.85
   6  13   4   -1.63    0.90
   6  13   5    7.56    1.04
   6  13   5    4.82    0.97
  -6 -13  -5    4.61    1.55
   6  13   6    0.37    0.53
   6  13   6   -0.30    0.75
   6  13   7    0.47    0.78
  -6 -13  -7    0.24    1.34
  -6 -13  -8    0.74    1.27
   6  13   8    3.40    0.90
  -6 -13  -9   13.06    2.00
   6  13   9   11.11    1.28
  -6 -13 -10   -0.22    1.31
  -6 -13 -10    3.07    2.55
   6  13  10    2.12    1.24
   7  -9  -4    4.45    1.12
   7  -9  -3   18.60    1.75
  -7   9   2   10.02    1.62
   7  -9  -2   17.82    1.78
   7  -9  -1    3.66    1.27
  -7   9   1    3.48    1.32
   7  -9   0    7.11    1.36
  -7   9   0   13.47    2.06
   7  -9   1    4.11    1.35
   7  -9   2    8.20    1.57
   7  -9   3    4.75    1.49
   7  -8  -6    0.65    1.50
   7  -8  -6    0.10    0.75
   7  -8  -5    2.18    0.97
   7  -8  -5    3.16    1.73
   7  -8  -5    2.77    1.17
   7  -8  -5    2.98    0.85
   7  -8  -4    0.38    0.95
   7  -8  -4    1.32    0.87
   7  -8  -4    0.40    0.64
   7  -8  -3    0.78    1.10
   7  -8  -3   -0.07    0.64
   7  -8  -3    0.37    0.82
   7  -8  -2    0.40    0.89
  -7   8   2    0.32    1.12
   7  -8  -2   -1.29    0.76
  -7   8   1   11.92    1.73
   7  -8  -1   11.98    1.55
   7  -8  -1   11.91    1.24
   7  -8   0    1.69    1.13
  -7   8   0    1.19    1.12
   7  -8   0    0.94    0.75
   7  -8   1    2.67    1.09
  -7   8  -1    2.23    0.93
  -7   8  -1    0.90    1.14
   7  -8   1    2.01    0.84
   7  -8   2    0.21    1.09
  -7   8  -2    0.54    0.83
  -7   8  -2   -0.49    1.16
   7  -8   2    0.27    0.75
   7  -8   3   -0.45    0.83
  -7   8  -3   -0.40    0.80
   7  -8   3    0.58    1.06
   7  -8   4   11.52    1.78
   7  -8   4    9.86    1.36
   7  -8   5    3.47    1.12
   7  -8   5    4.11    1.53
   7  -8   6    4.90    1.50
   7  -7  -8   15.62    2.45
   7  -7  -8   18.87    1.82
   7  -7  -8   15.81    1.64
   7  -7  -7   22.67    2.49
   7  -7  -7   25.28    1.99
   7  -7  -7   25.55    1.90
   7  -7  -6    4.92    1.28
   7  -7  -6    4.64    1.65
   7  -7  -6    4.95    1.08
   7  -7  -6    3.53    1.03
   7  -7  -5    0.69    1.17
   7  -7  -5    2.85    1.19
   7  -7  -5   -0.69    0.86
   7  -7  -5    1.61    0.82
   7  -7  -4   10.59    1.54
   7  -7  -4   11.34    1.37
   7  -7  -4    9.94    1.18
   7  -7  -3   14.35    1.70
   7  -7  -3   12.71    1.45
   7  -7  -3   15.15    1.37
   7  -7  -2    1.23    1.11
  -7   7   2    2.83    1.28
   7  -7  -2    1.38    0.87
   7  -7  -2    1.42    0.72
   7  -7  -1    0.41    1.10
  -7   7   1    1.55    1.14
   7  -7  -1   -0.45    0.79
   7  -7  -1    1.96    0.99
   7  -7   0    5.26    1.29
   7  -7   0    4.81    1.38
  -7   7   0    4.90    1.32
   7  -7   0    4.75    1.00
   7  -7   1    4.24    1.19
   7  -7   1    1.40    1.09
  -7   7  -1    4.76    1.07
  -7   7  -1    1.56    1.09
   7  -7   1    4.30    1.02
   7  -7   2    2.08    1.18
  -7   7  -2    0.82    0.91
  -7   7  -2    0.27    1.16
   7  -7   2    1.57    0.90
   7  -7   3    6.47    1.35
  -7   7  -3    3.31    1.02
  -7   7  -3    3.35    1.29
   7  -7   3    3.08    1.15
  -7   7  -4   18.98    2.08
  -7   7  -4   19.33    1.76
   7  -7   4   20.36    2.02
   7  -7   4   22.55    1.82
   7  -7   5   10.86    1.86
  -7   7  -5   13.06    1.52
   7  -7   5   12.24    1.61
   7  -7   5   10.53    1.50
   7  -7   6   13.16    1.97
   7  -7   6   11.66    2.05
  -7   7  -6    8.31    1.44
   7  -7   6   10.55    1.54
   7  -7   7    3.47    1.23
   7  -7   7    3.69    1.39
  -7   7  -7    5.92    1.40
   7  -7   8    0.41    1.28
  -7   7  -8    2.07    1.22
   7  -6  -9    1.48    1.08
   7  -6  -9    1.88    1.54
   7  -6  -9    2.55    1.20
   7  -6  -8    6.05    1.27
   7  -6  -8    6.55    1.78
   7  -6  -8    6.63    1.34
   7  -6  -7    0.28    0.94
   7  -6  -7    0.09    0.89
   7  -6  -7    0.90    1.28
   7  -6  -7    1.13    1.11
   7  -6  -6   10.29    1.81
   7  -6  -6   15.96    1.65
   7  -6  -6   11.19    1.45
   7  -6  -6   13.10    1.58
   7  -6  -5    3.30    1.04
   7  -6  -5    2.82    0.89
   7  -6  -5    2.78    0.89
   7  -6  -4   -1.37    1.20
   7  -6  -4   -0.12    0.97
   7  -6  -4    0.91    0.81
   7  -6  -4   -0.32    0.84
   7  -6  -3    1.41    1.01
   7  -6  -3    2.69    0.98
   7  -6  -3    2.26    0.81
   7  -6  -2    2.21    1.15
   7  -6  -2    3.06    1.00
   7  -6  -2    0.58    0.68
   7  -6  -1   -0.13    1.01
  -7   6   1    1.46    1.05
   7  -6  -1    0.26    0.79
   7  -6  -1    0.52    0.94
   7  -6   0    3.76    1.31
  -7   6   0    2.90    1.02
  -7   6   0    3.82    1.34
   7  -6   0    2.28    1.07
   7  -6   0    3.13    0.96
   7  -6   1    2.02    1.27
  -7   6  -1    3.47    1.19
   7  -6   1    4.50    1.02
   7  -6   1    3.72    1.03
  -7   6  -1    4.08    1.08
   7  -6   2    0.22    0.96
  -7   6  -2    2.64    0.95
   7  -6   2    2.83    1.28
  -7   6  -2    0.76    1.05
   7  -6   2    0.44    0.80
   7  -6   3    3.49    1.26
   7  -6   3    1.90    1.12
  -7   6  -3    2.52    0.88
  -7   6  -3    1.44    1.08
   7  -6   3    1.85    0.89
   7  -6   4   56.67    3.09
  -7   6  -4   57.46    3.13
  -7   6  -4   54.57    2.61
   7  -6   4   59.23    3.03
   7  -6   4   54.98    2.65
   7  -6   5   12.19    1.77
  -7   6  -5   18.82    1.74
  -7   6  -5   16.86    1.98
   7  -6   5   18.05    1.96
   7  -6   5   17.72    1.73
   7  -6   6   -0.97    1.26
  -7   6  -6   -0.21    0.97
   7  -6   6   -0.35    1.15
   7  -6   6    0.33    1.07
   7  -6   7   -0.01    1.06
   7  -6   7    2.43    1.38
  -7   6  -7    1.08    1.10
   7  -6   7    1.36    1.17
   7  -6   8   -0.22    1.19
   7  -6   8    1.98    1.50
  -7   6  -8    2.12    1.08
   7  -6   9    4.22    1.31
   7  -6   9    5.92    1.71
  -7   6  -9    4.36    1.36
   7  -6  10   14.76    2.18
   7  -5 -10    4.67    1.59
   7  -5 -10    3.76    1.31
   7  -5 -10    2.78    1.25
   7  -5  -9   13.89    1.90
   7  -5  -9   19.38    2.01
   7  -5  -9   15.64    1.73
   7  -5  -8    0.32    1.24
   7  -5  -8   -0.43    0.98
   7  -5  -8    0.31    0.81
   7  -5  -8    1.19    0.94
   7  -5  -7    2.45    0.94
   7  -5  -7    1.05    1.00
   7  -5  -7    1.87    1.15
   7  -5  -7    1.76    1.03
   7  -5  -6    0.24    0.76
   7  -5  -6   -0.24    0.83
   7  -5  -6   -1.05    1.08
   7  -5  -6   -0.58    0.91
   7  -5  -5    0.33    0.81
   7  -5  -5    0.57    0.78
   7  -5  -5   -0.79    1.12
   7  -5  -5    1.11    0.93
   7  -5  -4   -0.09    0.86
   7  -5  -4    1.15    1.12
   7  -5  -4    0.17    0.81
   7  -5  -4    0.71    0.78
   7  -5  -3    2.75    1.23
   7  -5  -3    2.80    1.26
   7  -5  -3    2.86    0.85
   7  -5  -3    1.29    0.74
   7  -5  -2    3.42    0.90
   7  -5  -2    3.37    1.13
   7  -5  -2    4.01    1.14
   7  -5  -1    2.08    1.07
   7  -5  -1    1.13    0.84
  -7   5   1    1.02    1.18
   7  -5  -1   -0.35    0.75
   7  -5   0    8.59    1.31
   7  -5   0    5.19    1.26
  -7   5   0    5.35    1.12
  -7   5   0    6.29    1.38
   7  -5   0    6.45    1.07
   7  -5   1    1.71    0.98
  -7   5  -1   -0.72    0.93
  -7   5  -1    0.85    1.10
   7  -5   1    2.43    1.06
   7  -5   1    0.45    0.80
   7  -5   2    9.65    1.39
   7  -5   2    6.72    1.37
  -7   5  -2    5.77    1.29
  -7   5  -2    6.82    1.42
   7  -5   2    5.94    1.10
   7  -5   3   41.86    2.70
   7  -5   3   46.63    2.60
  -7   5  -3   48.52    2.79
  -7   5  -3   43.94    2.36
   7  -5   3   43.62    2.24
   7  -5   4  114.90    3.95
   7  -5   4  121.24    4.48
   7  -5   4  117.51    4.09
  -7   5  -4  116.20    4.18
  -7   5  -4  121.84    3.84
   7  -5   4  117.20    3.72
   7  -5   5    0.97    1.12
   7  -5   5   -0.14    1.09
   7  -5   5    0.72    1.10
  -7   5  -5    0.20    1.03
   7  -5   5    1.74    1.12
  -7   5  -5    0.79    1.08
  -7   5  -6    0.19    1.11
   7  -5   6    2.59    1.20
   7  -5   6   -0.32    1.02
   7  -5   6    0.28    1.13
  -7   5  -6   -0.56    1.06
   7  -5   6    0.73    0.95
   7  -5   7   11.31    1.75
   7  -5   7    7.26    1.46
  -7   5  -7    6.25    1.30
   7  -5   7    8.27    1.44
   7  -5   8   -0.58    1.11
   7  -5   8    2.92    1.38
  -7   5  -8    0.62    1.01
   7  -5   8   -0.35    1.20
   7  -5   9    1.89    1.14
   7  -5   9    5.05    1.53
   7  -5   9    6.87    1.78
  -7   5  -9    5.58    1.49
   7  -5  10    8.31    1.71
   7  -5  10   12.07    1.84
   7  -5  11  152.38    5.86
   7  -4 -10   -0.42    1.41
   7  -4 -10   -1.43    1.21
   7  -4 -10    0.04    1.10
   7  -4  -9   21.58    2.22
   7  -4  -9   17.16    1.90
   7  -4  -9   19.02    2.09
   7  -4  -8   12.58    1.67
   7  -4  -8   11.22    1.56
   7  -4  -8   11.57    1.60
   7  -4  -8    9.42    1.25
   7  -4  -7    4.73    1.21
   7  -4  -7    3.81    1.17
   7  -4  -7    0.69    1.00
   7  -4  -7    2.19    0.89
   7  -4  -6    4.67    1.05
   7  -4  -6    3.88    1.09
   7  -4  -6    3.84    1.05
   7  -4  -6    6.58    1.19
   7  -4  -5    3.16    0.95
   7  -4  -5    3.56    0.98
   7  -4  -5    2.87    1.09
   7  -4  -5    2.95    0.93
   7  -4  -4    0.48    0.95
   7  -4  -4    1.59    0.99
   7  -4  -4    0.96    0.99
   7  -4  -4    2.11    0.85
   7  -4  -3   11.10    1.47
   7  -4  -3    8.06    1.22
   7  -4  -3    9.28    1.32
   7  -4  -3    8.46    1.43
   7  -4  -2    1.04    1.00
   7  -4  -2    1.33    0.91
   7  -4  -2    3.34    1.00
   7  -4  -1    8.43    1.40
  -7   4   1    7.18    1.42
  -7   4   1    9.46    1.35
   7  -4  -1    8.23    1.17
   7  -4  -1    9.37    1.35
   7  -4   0    8.20    1.23
   7  -4   0    6.63    1.31
   7  -4   0    5.79    1.19
  -7   4   0    6.51    1.16
  -7   4   0    4.99    1.33
   7  -4   1    5.73    1.22
   7  -4   1    4.60    1.07
  -7   4  -1    3.65    1.10
  -7   4  -1    3.82    1.25
   7  -4   1    4.42    1.06
   7  -4   2    7.92    1.33
   7  -4   2    8.34    1.33
  -7   4  -2   10.89    1.50
  -7   4  -2    8.19    1.30
   7  -4   2   10.24    1.29
   7  -4   3   -1.06    1.02
  -7   4  -3   -0.81    0.93
   7  -4   3   -0.54    0.96
  -7   4  -3    1.33    1.01
   7  -4   3   -1.11    0.89
   7  -4   4  214.75    4.84
   7  -4   4  224.40    5.71
   7  -4   4  208.27    5.19
  -7   4  -4  211.37    5.42
  -7   4  -4  217.79    5.04
   7  -4   4  219.18    5.01
   7  -4   5    8.45    1.47
   7  -4   5    7.29    1.36
   7  -4   5    7.11    1.24
  -7   4  -5    6.35    1.29
   7  -4   5    6.39    1.30
  -7   4  -5    8.85    1.39
  -7   4  -6    3.55    1.32
   7  -4   6    5.63    1.35
   7  -4   6    2.75    1.22
   7  -4   6    4.90    1.26
  -7   4  -6    3.59    1.26
   7  -4   6    2.61    1.13
  -7   4  -7    7.51    1.48
   7  -4   7    7.03    1.46
   7  -4   7    8.27    1.62
   7  -4   7    6.23    1.37
  -7   4  -7    8.02    1.47
   7  -4   7    8.62    1.54
   7  -4   8   15.54    1.91
   7  -4   8   15.58    1.91
  -7   4  -8   15.43    1.76
  -7   4  -8   12.95    1.82
   7  -4   8   17.95    2.00
   7  -4   8   16.16    1.78
   7  -4   9   -0.87    1.18
   7  -4   9    0.80    1.16
  -7   4  -9   -0.07    1.12
   7  -4   9    1.70    1.34
   7  -4  10   20.34    2.37
   7  -4  10   19.69    2.23
  -7   4 -10   20.99    2.13
   7  -4  10   23.03    2.27
   7  -4  11   -0.27    1.24
   7  -4  11    0.50    1.44
   7  -4  11    0.88    1.52
   7  -4  12    4.08    1.66
   7  -3 -11   28.46    2.57
   7  -3 -11   21.91    2.26
   7  -3 -11   22.68    2.58
   7  -3 -10    1.32    1.29
   7  -3 -10    0.49    1.41
   7  -3 -10    1.62    1.14
   7  -3  -9    0.17    1.10
   7  -3  -9    0.51    1.12
   7  -3  -9    0.30    0.94
   7  -3  -9    0.61    0.77
   7  -3  -8    0.55    0.98
   7  -3  -8    2.56    1.23
   7  -3  -8    0.58    1.01
   7  -3  -8    0.20    0.77
   7  -3  -7    2.88    1.06
   7  -3  -7    1.96    1.05
   7  -3  -7    2.51    1.01
   7  -3  -7    3.90    1.08
   7  -3  -6    0.47    0.97
   7  -3  -6   -1.13    0.94
   7  -3  -6   -1.23    0.84
   7  -3  -6    0.51    0.78
   7  -3  -5    0.94    0.81
   7  -3  -5    2.08    1.01
   7  -3  -5    0.39    0.90
   7  -3  -5   -0.36    0.93
   7  -3  -4    8.46    1.21
   7  -3  -4    9.52    1.36
   7  -3  -4   12.24    1.48
   7  -3  -4   10.25    1.39
   7  -3  -3    0.23    0.95
   7  -3  -3    0.39    0.87
   7  -3  -3    2.15    0.97
   7  -3  -3    0.17    0.90
   7  -3  -2   14.54    1.39
   7  -3  -2   16.35    1.60
   7  -3  -2   13.98    1.56
   7  -3  -2   14.35    1.65
   7  -3  -1   16.16    1.75
  -7   3   1   14.58    1.70
  -7   3   1   15.98    1.68
   7  -3  -1   17.50    1.56
   7  -3  -1   16.25    1.58
   7  -3   0   -0.68    1.09
  -7   3   0    0.22    0.90
   7  -3   0    0.08    0.86
  -7   3   0    0.08    1.16
   7  -3   0    2.92    0.97
   7  -3   1    9.46    1.28
   7  -3   1   12.04    1.65
  -7   3  -1   10.59    1.47
  -7   3  -1   11.39    1.40
   7  -3   1    9.72    1.30
   7  -3   2   10.09    1.40
   7  -3   2    8.26    1.42
  -7   3  -2    8.52    1.38
  -7   3  -2   10.55    1.40
   7  -3   2    8.54    1.29
   7  -3   3   17.52    1.78
   7  -3   3   18.13    1.39
   7  -3   3   18.93    1.73
  -7   3  -3   16.00    1.73
  -7   3  -3   22.43    1.76
   7  -3   3   16.73    1.61
   7  -3   4  422.62    6.10
   7  -3   4  435.85    7.65
   7  -3   4  444.04    7.17
  -7   3  -4  425.68    7.49
  -7   3  -4  437.04    7.06
   7  -3   4  432.23    6.90
   7  -3   5   54.27    2.42
   7  -3   5   60.27    3.05
   7  -3   5   53.52    2.67
  -7   3  -5   54.03    2.81
  -7   3  -5   54.83    2.68
   7  -3   5   53.95    2.64
   7  -3   6   56.01    2.64
   7  -3   6   56.07    2.99
   7  -3   6   57.19    2.90
  -7   3  -6   57.07    2.95
  -7   3  -6   55.75    2.81
   7  -3   6   53.41    2.71
  -7   3  -7    3.63    1.30
   7  -3   7    3.69    1.25
   7  -3   7    3.87    1.13
   7  -3   7    4.39    1.37
  -7   3  -7    3.71    1.09
   7  -3   7    4.07    1.19
  -7   3  -8    8.39    1.55
   7  -3   8    8.77    1.61
   7  -3   8    5.03    1.36
   7  -3   8    6.53    1.45
  -7   3  -8    6.39    1.39
   7  -3   8    4.96    1.37
  -7   3  -9    0.58    1.07
   7  -3   9    1.07    1.22
   7  -3   9    0.52    1.16
   7  -3   9   -0.56    1.33
  -7   3  -9   -0.50    1.11
   7  -3   9   -1.20    1.33
   7  -3  10   -0.03    1.13
   7  -3  10   -0.41    1.31
   7  -3  10    1.38    1.24
  -7   3 -10   -0.92    1.14
   7  -3  10    0.62    1.06
   7  -3  11   -0.03    1.17
   7  -3  11   -1.79    1.47
   7  -3  11   -0.84    1.52
   7  -3  12   71.49    4.16
   7  -3  12   75.44    4.03
   7  -3  12   72.55    4.05
   7  -3  13    1.94    1.79
   7  -2 -11    1.33    1.36
   7  -2 -11   -0.09    1.11
   7  -2 -11    0.67    1.54
   7  -2 -10   11.13    1.83
   7  -2 -10   13.40    2.21
   7  -2  -9   47.40    2.81
   7  -2  -9   43.80    2.96
   7  -2  -9   50.97    3.34
   7  -2  -9   41.39    2.18
   7  -2  -8   18.09    1.80
   7  -2  -8   16.62    1.89
   7  -2  -8   16.66    2.00
   7  -2  -8   17.77    1.56
   7  -2  -7    7.14    1.27
   7  -2  -7   11.29    1.78
   7  -2  -7   11.24    1.38
   7  -2  -7    7.85    1.35
   7  -2  -6    2.08    1.24
   7  -2  -6   -0.97    0.86
   7  -2  -6    1.56    1.05
   7  -2  -6    0.20    0.89
   7  -2  -5   18.43    1.43
   7  -2  -5   19.64    1.84
   7  -2  -5   22.30    1.76
   7  -2  -5   20.83    1.93
   7  -2  -4   10.42    1.12
   7  -2  -4   13.93    1.63
   7  -2  -4    9.99    1.43
   7  -2  -4   11.76    1.44
   7  -2  -3    7.93    0.98
   7  -2  -3    5.61    1.15
   7  -2  -3    6.91    1.27
   7  -2  -3    8.13    1.35
   7  -2  -2   19.94    1.26
   7  -2  -2   17.90    1.69
   7  -2  -2   19.82    1.76
   7  -2  -2   19.15    1.70
   7  -2  -1   -0.14    0.90
   7  -2  -1    0.78    1.07
   7  -2  -1    0.42    0.62
  -7   2   1   -1.05    1.05
   7  -2  -1    0.78    0.90
   7  -2   0   39.51    2.40
  -7   2   0   36.08    2.38
  -7   2   0   39.03    2.35
   7  -2   0   37.11    2.16
   7  -2   0   38.06    2.22
   7  -2   1    1.00    0.92
   7  -2   1    2.14    1.03
  -7   2  -1    0.92    1.04
  -7   2  -1    1.64    0.97
   7  -2   1   -0.35    0.94
   7  -2   2    3.93    1.11
   7  -2   2    2.98    0.62
   7  -2   2    3.08    0.98
  -7   2  -2    3.08    1.03
  -7   2  -2    2.95    1.07
   7  -2   2    3.18    0.97
   7  -2   3   10.68    1.35
   7  -2   3    9.67    0.97
   7  -2   3    7.79    1.32
  -7   2  -3    9.54    1.47
  -7   2  -3    8.28    1.27
   7  -2   3    9.37    1.27
   7  -2   4   93.33    3.59
   7  -2   4   91.31    2.62
   7  -2   4   92.81    3.32
  -7   2  -4   91.36    3.45
  -7   2  -4   91.75    3.28
   7  -2   4   97.39    3.34
   7  -2   5  320.83    5.10
   7  -2   5  328.88    6.72
   7  -2   5  322.34    6.12
  -7   2  -5  335.49    6.52
  -7   2  -5  325.20    6.21
   7  -2   5  318.15    6.08
   7  -2   6    2.99    1.22
   7  -2   6    3.03    0.98
  -7   2  -6    1.47    1.11
   7  -2   6    2.02    1.06
   7  -2   6    1.20    0.94
  -7   2  -6    0.71    0.91
   7  -2   7   25.98    1.97
   7  -2   7   28.72    2.24
   7  -2   7   28.75    2.23
  -7   2  -7   32.69    2.32
  -7   2  -7   28.85    2.14
   7  -2   7   25.83    2.08
  -7   2  -8    1.58    1.17
   7  -2   8   -0.64    1.08
   7  -2   8    1.01    1.04
   7  -2   8    1.95    1.04
  -7   2  -8    2.33    1.11
   7  -2   8    0.44    0.99
  -7   2  -9   -1.52    1.08
  -7   2  -9    0.67    1.11
   7  -2   9    0.56    1.10
   7  -2   9    0.72    1.09
   7  -2   9   -0.45    1.02
   7  -2   9   -0.59    1.16
  -7   2 -10    1.33    1.14
   7  -2  10   -0.42    1.21
   7  -2  10   -0.88    1.11
   7  -2  10   -0.38    1.17
  -7   2 -10    0.63    1.17
   7  -2  10   -1.29    1.28
   7  -2  11    9.89    1.75
   7  -2  11    7.34    1.60
   7  -2  11    7.14    1.71
   7  -2  11    7.82    1.59
  -7   2 -11    9.47    1.70
   7  -2  12    2.74    1.49
   7  -2  12    1.52    1.34
   7  -2  12    0.10    1.23
   7  -2  13    2.34    1.42
   7  -2  13    1.50    1.41
   7  -2  14    2.33    1.54
   7  -1 -11    3.06    1.41
   7  -1 -11    1.30    1.36
   7  -1 -11    3.32    1.54
   7  -1 -10    2.76    1.45
   7  -1 -10    3.37    1.32
   7  -1 -10    3.31    1.41
   7  -1  -9   11.83    1.58
   7  -1  -9   13.63    1.97
   7  -1  -9   12.86    1.43
   7  -1  -9   13.94    2.18
   7  -1  -8    7.47    1.38
   7  -1  -8    2.83    1.32
   7  -1  -8    2.10    1.20
   7  -1  -8    5.70    1.12
   7  -1  -7    2.27    0.94
   7  -1  -7    3.01    1.39
   7  -1  -7    1.77    1.31
   7  -1  -7    4.09    1.04
   7  -1  -6   17.78    1.49
   7  -1  -6   21.09    2.08
   7  -1  -6   20.51    2.15
   7  -1  -6   18.42    1.65
   7  -1  -5    7.14    0.96
   7  -1  -5    5.65    1.39
   7  -1  -5    7.10    1.49
   7  -1  -5    6.09    1.14
   7  -1  -4    6.93    0.86
   7  -1  -4    6.43    1.40
   7  -1  -4    7.08    1.36
   7  -1  -4    5.77    1.11
   7  -1  -3    0.88    0.91
   7  -1  -3    0.45    0.51
   7  -1  -3    0.19    0.93
   7  -1  -3    1.59    1.11
   7  -1  -2    0.70    0.90
   7  -1  -2    1.20    0.44
   7  -1  -2    2.28    1.05
   7  -1  -2    0.77    1.09
   7  -1  -1   45.31    1.15
  -7   1   1   49.37    2.69
   7  -1  -1   50.18    2.56
   7  -1  -1   48.25    2.48
   7  -1  -1   42.37    2.34
   7  -1   0    2.29    1.00
   7  -1   0    2.17    0.31
   7  -1   0    3.19    0.95
  -7   1   0    4.44    1.14
  -7   1   0    2.86    1.06
   7  -1   0    3.70    1.02
   7  -1   1    0.33    0.84
   7  -1   1    0.46    0.29
   7  -1   1    0.36    0.95
   7  -1   1    0.49    0.25
  -7   1  -1    2.21    1.16
  -7   1  -1    2.39    1.14
   7  -1   1    2.28    1.04
   7  -1   2    2.36    0.42
   7  -1   2    1.28    1.14
   7  -1   2    2.99    1.03
  -7   1  -2    2.21    1.01
  -7   1  -2    2.30    0.84
   7  -1   2    3.13    0.86
   7  -1   3  144.81    4.28
   7  -1   3  133.44    2.35
  -7   1  -3  127.24    4.03
  -7   1  -3  133.12    3.91
   7  -1   3  137.87    3.85
   7  -1   3  126.91    3.70
   7  -1   4   43.60    2.52
   7  -1   4   37.97    2.11
   7  -1   4   38.79    1.55
  -7   1  -4   39.66    2.31
  -7   1  -4   35.25    2.12
   7  -1   4   36.13    2.17
   7  -1   5  175.02    4.80
   7  -1   5  171.11    3.46
   7  -1   5  182.40    4.53
  -7   1  -5  186.78    4.80
  -7   1  -5  181.47    4.64
   7  -1   5  176.32    4.49
   7  -1   6   27.09    1.65
   7  -1   6   22.84    1.90
   7  -1   6   25.29    1.88
  -7   1  -6   25.24    2.01
   7  -1   6   20.82    1.86
  -7   1  -7    2.82    1.13
   7  -1   7    3.66    0.97
   7  -1   7    3.50    1.09
  -7   1  -7    3.81    1.22
   7  -1   7    4.76    1.34
   7  -1   7    3.27    1.02
  -7   1  -8    4.41    1.20
   7  -1   8    3.84    1.26
   7  -1   8    3.43    1.04
   7  -1   8    4.02    1.20
  -7   1  -8    6.39    1.34
   7  -1   8    2.72    1.26
  -7   1  -9    6.05    1.28
   7  -1   9    6.27    1.42
   7  -1   9    6.25    1.30
   7  -1   9    7.68    1.33
  -7   1  -9    5.37    1.29
   7  -1   9    7.59    1.50
  -7   1 -10    0.98    1.06
   7  -1  10    1.21    1.30
   7  -1  10    3.21    1.11
   7  -1  10   -0.36    1.21
  -7   1 -10    2.31    1.30
   7  -1  10    1.33    1.20
  -7   1 -11    0.88    1.15
   7  -1  11    0.47    1.28
   7  -1  11    0.75    1.14
  -7   1 -11   -0.63    1.27
   7  -1  11    0.46    1.33
   7  -1  11    1.04    1.39
   7  -1  12   -0.75    1.30
   7  -1  12    1.57    1.37
   7  -1  12    2.91    1.53
   7  -1  12    1.33    1.23
   7  -1  13    2.16    1.43
   7  -1  13    2.82    1.67
   7  -1  13    1.35    1.14
   7  -1  13    2.13    1.48
   7  -1  14   -0.79    1.36
   7  -1  14    2.72    1.60
   7  -1  15   11.18    2.21
  -7   0  11   -0.47    0.83
   7   0 -11   -1.11    1.48
   7   0 -11    0.48    1.26
   7   0 -11    0.81    1.59
  -7   0  10    0.49    0.84
   7   0 -10    2.29    1.22
   7   0 -10    1.29    1.50
   7   0 -10   -0.31    0.89
   7   0 -10   -0.17    1.40
   7   0  -9   24.79    2.13
  -7   0   9   27.34    1.79
   7   0  -9   25.35    2.48
   7   0  -9   25.55    1.91
   7   0  -9   29.71    2.87
   7   0  -8   42.62    3.11
   7   0  -8   42.97    2.50
  -7   0   8   46.15    2.28
   7   0  -8   44.75    3.03
   7   0  -8   43.15    2.38
   7   0  -7   17.34    1.54
  -7   0   7   19.79    1.66
   7   0  -7   17.14    2.09
   7   0  -7   14.80    2.05
   7   0  -7   14.73    1.56
  -7   0   6    4.27    1.00
   7   0  -6    4.40    0.99
   7   0  -6    2.44    1.30
   7   0  -6    5.75    1.46
   7   0  -6    4.65    1.17
   7   0  -5    6.96    0.94
  -7   0   5    8.43    1.30
   7   0  -5    6.61    1.50
   7   0  -5    7.76    1.53
   7   0  -5    6.06    1.26
   7   0  -4   48.04    1.72
  -7   0   4   46.52    2.32
   7   0  -4   50.61    2.83
   7   0  -4   51.79    2.63
   7   0  -3   10.42    0.77
  -7   0   3   10.03    1.33
   7   0  -3    9.59    1.54
   7   0  -3    9.06    1.39
   7   0  -3   12.31    1.48
   7   0  -2    3.30    1.00
  -7   0   2    2.68    0.89
   7   0  -2    2.84    1.14
   7   0  -2    3.37    1.03
   7   0  -1    0.69    0.99
  -7   0   1    1.58    0.98
  -7   0   1    0.04    1.06
   7   0  -1    0.36    0.89
   7   0  -1    1.05    1.04
   7   0   0    0.86    0.97
  -7   0   0   -0.46    0.91
  -7   0   0   -0.04    1.03
   7   0   0   -0.53    0.99
   7   0   0    0.74    0.89
  -7   0  -1   73.59    3.13
  -7   0  -1   77.47    3.11
   7   0   1   76.62    3.00
   7   0   1   72.89    2.93
   7   0   1   77.27    3.07
  -7   0  -2   16.61    1.71
  -7   0  -2   15.44    1.61
   7   0   2   15.79    1.54
   7   0   2   15.40    1.47
   7   0   2   20.36    1.79
   7   0   3   12.37    0.54
  -7   0  -3   18.23    1.71
  -7   0  -3   11.81    1.45
   7   0   3   15.10    1.49
   7   0   3   15.73    1.44
   7   0   3   12.63    1.57
   7   0   4   12.29    1.48
   7   0   4   11.38    0.81
  -7   0  -4   11.35    1.48
  -7   0  -4   14.43    1.53
   7   0   4   12.67    1.48
   7   0   4   10.20    1.29
   7   0   5   33.96    2.23
   7   0   5   36.14    1.55
   7   0   5   30.98    1.94
  -7   0  -5   37.76    2.23
  -7   0  -5   34.95    2.19
   7   0   5   35.98    2.20
   7   0   6    2.68    0.86
   7   0   6    1.67    0.99
   7   0   6    2.07    0.91
  -7   0  -6    3.69    1.24
   7   0   6    3.24    1.11
  -7   0  -6    2.69    1.07
   7   0   7   -0.45    0.83
   7   0   7    0.61    1.08
  -7   0  -7   -0.32    0.98
   7   0   7    0.01    1.00
   7   0   7    1.08    0.94
  -7   0  -7    0.07    0.91
   7   0   8   17.29    1.62
   7   0   8   20.23    1.88
   7   0   8   14.98    1.58
  -7   0  -8   15.41    1.65
  -7   0  -8   17.87    1.79
   7   0   8   18.77    1.92
  -7   0  -9    2.38    1.11
   7   0   9    1.87    1.00
   7   0   9    3.13    1.18
   7   0   9    2.43    1.10
  -7   0  -9    4.00    1.29
   7   0   9    3.13    1.15
   7   0  10   43.53    2.78
   7   0  10   40.55    2.60
   7   0  10   43.14    2.61
  -7   0 -10   44.96    2.76
  -7   0 -10   41.53    2.61
   7   0  10   37.05    2.59
   7   0  11    8.57    1.58
   7   0  11    8.73    1.69
  -7   0 -11   13.02    1.74
  -7   0 -11    7.82    1.57
   7   0  11   10.44    1.58
   7   0  11   12.95    1.73
   7   0  12    3.50    1.48
   7   0  12    6.02    1.60
  -7   0 -12    5.17    1.43
   7   0  12    3.09    1.69
   7   0  12    7.36    1.54
  -7   0 -12    4.82    1.50
   7   0  13    5.52    1.55
   7   0  13    4.61    1.76
   7   0  13    4.51    1.45
   7   0  13    7.34    1.73
   7   0  14    7.75    1.94
   7   0  14    6.66    1.96
   7   0  14    6.70    1.57
   7   0  14    8.46    1.77
   7   0  15    3.73    1.34
  -7  -1  11    5.15    1.18
   7   1 -11    5.55    2.02
  -7  -1  10    0.51    0.91
   7   1 -10    0.20    1.00
   7   1 -10    0.48    1.48
  -7  -1   9   -0.02    0.93
   7   1  -9   -1.42    1.35
   7   1  -9    0.20    1.44
   7   1  -9   -0.11    1.00
  -7  -1   8    3.64    1.13
   7   1  -8    1.73    0.99
   7   1  -8    2.29    1.37
   7   1  -8    5.28    1.64
  -7  -1   7    2.09    0.99
   7   1  -7    4.13    1.49
   7   1  -7    0.84    1.28
   7   1  -7    2.73    1.06
  -7  -1   6    1.24    0.93
   7   1  -6    0.29    1.19
   7   1  -6    0.81    0.92
  -7  -1   5   56.30    2.69
   7   1  -5   57.20    3.07
   7   1  -5   60.22    3.23
   7   1  -5   61.99    2.87
  -7  -1   4    5.22    1.17
   7   1  -4    6.06    1.44
   7   1  -4    6.20    1.46
   7   1  -4    5.69    1.33
  -7  -1   3   20.72    1.78
   7   1  -3   18.99    1.99
   7   1  -3   22.29    1.95
   7   1  -3   19.47    1.76
  -7  -1   2   61.22    2.68
   7   1  -2   64.51    3.05
   7   1  -2   62.26    2.92
   7   1  -2   60.78    2.82
  -7  -1   1    1.93    0.90
   7   1  -1    0.31    1.07
   7   1  -1    1.29    1.04
   7   1  -1    1.13    0.97
   7   1   0    3.13    1.04
  -7  -1   0    1.60    0.90
  -7  -1   0    3.82    1.18
   7   1   0    1.41    0.99
   7   1   0    2.75    1.04
  -7  -1  -1   76.67    2.88
  -7  -1  -1   81.46    3.22
   7   1   1   83.72    3.09
   7   1   1   81.15    3.14
   7   1   1   74.76    3.09
   7   1   2  109.28    3.46
  -7  -1  -2  108.62    3.45
  -7  -1  -2  108.19    3.73
  -7  -1  -2  108.12    3.58
   7   1   2  107.46    3.42
   7   1   2  104.40    3.56
   7   1   3    1.08    0.83
   7   1   3    1.83    0.95
  -7  -1  -3    1.58    0.95
  -7  -1  -3    1.52    0.99
  -7  -1  -3    3.03    1.00
   7   1   3    1.24    0.91
   7   1   4    0.22    0.94
   7   1   4   -1.08    0.87
  -7  -1  -4   -0.54    0.81
  -7  -1  -4   -0.39    0.84
   7   1   4   -1.16    1.01
   7   1   5    1.59    0.93
   7   1   5    1.67    0.65
   7   1   5    1.77    0.97
  -7  -1  -5    1.12    1.03
  -7  -1  -5    3.22    1.15
   7   1   5    3.01    1.10
   7   1   6    4.72    1.14
   7   1   6    5.01    0.92
   7   1   6    2.83    1.05
  -7  -1  -6    4.72    1.19
  -7  -1  -6    4.08    1.13
   7   1   7    6.17    1.43
   7   1   7    6.33    1.10
  -7  -1  -7    6.48    1.24
   7   1   7    5.46    1.20
  -7  -1  -7    5.67    1.18
   7   1   7    4.80    1.23
   7   1   8    3.74    1.07
   7   1   8    3.31    1.20
  -7  -1  -8    6.05    1.33
   7   1   8    5.46    1.18
   7   1   8    4.40    1.35
  -7  -1  -8    3.87    1.15
  -7  -1  -9   -0.49    0.99
   7   1   9    1.49    1.06
   7   1   9    0.80    1.10
   7   1   9    0.87    1.05
  -7  -1  -9    0.82    1.01
   7   1   9    0.86    1.20
  -7  -1 -10    2.57    1.09
   7   1  10    1.26    1.20
   7   1  10    3.60    1.29
   7   1  10    3.05    1.16
  -7  -1 -10    1.60    1.11
   7   1  10   -0.30    1.23
  -7  -1 -11    3.91    1.20
   7   1  11    5.98    1.59
   7   1  11    3.81    1.31
   7   1  11    6.33    1.33
  -7  -1 -11    4.90    1.48
   7   1  11    6.09    1.65
   7   1  12   25.99    2.24
   7   1  12   24.17    2.55
  -7  -1 -12   20.52    2.17
  -7  -1 -12   22.34    2.16
  -7  -1 -12   25.01    2.15
   7   1  12   23.85    2.34
   7   1  12   30.50    2.41
   7   1  13    0.41    1.23
   7   1  13   -0.79    1.23
  -7  -1 -13    0.95    1.14
   7   1  13    3.36    1.68
   7   1  13    1.45    1.22
   7   1  14   16.65    1.94
   7   1  14   16.33    2.53
   7   1  14   20.23    2.26
   7   1  14   20.43    2.36
   7   1  15    3.92    1.78
   7   1  15    0.10    1.14
   7   1  15    1.91    1.56
   7   1  16    3.49    1.69
  -7  -2  11    1.17    1.76
  -7  -2  11    1.76    1.10
   7   2 -11    1.37    1.54
  -7  -2  10    5.14    1.85
  -7  -2  10    4.59    1.34
   7   2 -10    2.93    1.14
   7   2 -10    5.72    1.96
  -7  -2   9   29.41    2.19
  -7  -2   9   27.94    2.67
   7   2  -9   27.00    2.06
   7   2  -9   31.60    3.01
  -7  -2   8    2.60    1.25
  -7  -2   8    0.15    1.10
   7   2  -8    0.25    1.33
   7   2  -8   -0.38    1.10
  -7  -2   7   -1.07    1.08
  -7  -2   7    1.09    1.03
   7   2  -7    4.16    1.57
   7   2  -7    2.43    1.29
  -7  -2   6    2.96    1.23
  -7  -2   6    0.15    0.96
   7   2  -6   -0.19    1.13
   7   2  -6    1.15    1.38
   7   2  -6    0.65    0.95
  -7  -2   5    1.14    0.94
  -7  -2   5    0.06    0.93
   7   2  -5    0.61    1.12
   7   2  -5   -0.01    1.20
   7   2  -5   -0.39    0.98
  -7  -2   4    1.18    0.83
  -7  -2   4   -1.80    1.04
   7   2  -4   -0.65    1.24
   7   2  -4   -0.96    1.27
   7   2  -4    0.20    0.94
  -7  -2   3   40.36    2.37
   7   2  -3   37.06    2.56
   7   2  -3   45.61    2.66
   7   2  -3   41.99    2.45
  -7  -2   2    5.06    1.16
   7   2  -2    7.14    1.29
   7   2  -2    7.33    1.39
   7   2  -2    6.50    1.30
  -7  -2   1    1.79    1.00
   7   2  -1    2.62    1.08
   7   2  -1    4.37    1.18
   7   2  -1    3.41    1.11
  -7  -2   0    2.41    1.01
  -7  -2   0    2.80    1.10
   7   2   0    2.49    1.08
   7   2   0    1.02    1.02
   7   2   0    1.68    0.99
  -7  -2  -1   32.08    2.10
   7   2   1   31.44    2.01
  -7  -2  -1   34.16    2.25
   7   2   1   37.24    2.32
   7   2   1   35.12    2.25
  -7  -2  -2   12.98    1.46
  -7  -2  -2   11.46    1.46
   7   2   2   11.43    1.36
   7   2   2   12.78    1.43
   7   2   2   11.38    1.33
   7   2   3   -0.03    0.86
   7   2   3    1.26    0.85
  -7  -2  -3    1.71    1.07
  -7  -2  -3    0.92    0.97
  -7  -2  -3    0.20    0.97
   7   2   3   -0.60    0.99
  -7  -2  -4   22.17    1.75
  -7  -2  -4   22.79    1.85
  -7  -2  -4   18.41    1.62
   7   2   4   23.45    1.74
   7   2   4   24.52    1.76
   7   2   4   23.67    1.87
  -7  -2  -5   51.89    2.48
  -7  -2  -5   47.05    2.48
  -7  -2  -5   52.71    2.56
   7   2   5   50.57    2.51
   7   2   5   51.64    2.58
   7   2   5   53.42    2.40
   7   2   6    2.95    1.08
  -7  -2  -6    3.22    0.71
   7   2   6    1.06    0.89
  -7  -2  -6    2.06    0.97
  -7  -2  -6    2.68    0.94
   7   2   6    3.67    1.08
   7   2   7    1.25    0.92
   7   2   7    1.70    0.85
  -7  -2  -7    0.65    0.71
   7   2   7    0.92    0.90
  -7  -2  -7    0.10    1.04
  -7  -2  -7    1.74    1.01
   7   2   7    0.56    1.00
   7   2   8    2.06    1.16
   7   2   8    0.18    0.99
  -7  -2  -8    0.50    0.82
  -7  -2  -8   -1.15    1.15
   7   2   8   -0.61    0.98
   7   2   8    1.02    1.09
  -7  -2  -8   -0.36    0.86
   7   2   9   46.81    2.67
  -7  -2  -9   44.98    2.26
   7   2   9   49.60    2.50
  -7  -2  -9   39.07    2.41
  -7  -2  -9   47.86    2.52
   7   2   9   44.73    2.65
   7   2   9   44.59    2.53
   7   2  10   31.80    2.50
  -7  -2 -10   36.87    2.25
   7   2  10   33.83    2.17
  -7  -2 -10   32.20    2.20
  -7  -2 -10   33.18    2.36
   7   2  10   35.39    2.42
   7   2  10   36.67    2.39
  -7  -2 -11    4.48    1.26
   7   2  11    2.72    1.07
   7   2  11    3.63    1.48
  -7  -2 -11    3.61    1.23
   7   2  11    3.77    1.14
  -7  -2 -11    3.34    1.27
   7   2  11    2.17    1.11
  -7  -2 -12    0.56    1.05
   7   2  12   -0.19    1.00
   7   2  12    0.23    1.36
  -7  -2 -12   -0.35    1.24
   7   2  12   -0.41    1.09
  -7  -2 -12    0.59    1.39
   7   2  12    0.09    1.18
   7   2  13    0.31    1.40
   7   2  13   -0.61    1.27
  -7  -2 -13    4.05    1.32
   7   2  13    2.16    1.14
   7   2  13    2.00    1.64
  -7  -2 -13   -0.92    1.28
   7   2  14    0.92    1.40
   7   2  14    4.22    1.31
  -7  -2 -14    4.51    1.35
   7   2  14    2.20    1.63
  -7  -2 -14    3.42    1.44
   7   2  14    2.93    1.29
  -7  -2 -15   13.94    2.24
   7   2  15   14.69    2.01
   7   2  15   11.42    1.72
   7   2  15   13.25    2.37
   7   2  16   -0.69    1.50
   7   2  16    0.81    1.19
  -7  -2 -16    0.97    1.71
  -7  -3  10   -0.53    1.06
  -7  -3  10   -0.79    1.43
   7   3 -10    1.33    1.13
   7   3 -10   -0.53    1.59
   7   3  -9   22.11    2.02
   7   3  -9   23.43    2.68
  -7  -3   9   24.05    2.17
  -7  -3   8    2.21    1.15
  -7  -3   8    4.93    1.50
   7   3  -8    3.68    1.21
   7   3  -8    3.39    1.69
  -7  -3   7   12.14    1.71
   7   3  -7    9.65    1.54
   7   3  -7   10.85    1.95
  -7  -3   7    9.91    1.55
  -7  -3   6   -1.57    1.17
  -7  -3   6    0.71    1.05
   7   3  -6    1.84    1.36
   7   3  -6    1.70    1.15
  -7  -3   5   39.77    2.18
   7   3  -5   39.69    2.47
   7   3  -5   40.11    2.80
  -7  -3   5   40.46    2.47
  -7  -3   4    0.91    0.96
  -7  -3   4    1.92    0.88
   7   3  -4    3.85    1.44
   7   3  -4    0.92    1.25
   7   3  -4    2.39    1.09
  -7  -3   3   58.19    2.05
   7   3  -3   55.43    3.10
   7   3  -3   62.36    3.15
   7   3  -3   63.25    3.01
  -7  -3   3   64.70    3.00
  -7  -3   2   14.52    0.96
   7   3  -2   11.36    1.56
   7   3  -2   13.51    1.58
   7   3  -2   16.25    1.75
  -7  -3   2   13.90    1.56
  -7  -3   1    6.86    0.52
   7   3  -1   12.07    1.64
   7   3  -1   10.24    1.42
   7   3  -1    8.52    1.37
  -7  -3   1    9.48    1.47
  -7  -3   0   -0.70    1.15
  -7  -3   0   -0.34    0.95
   7   3   0    0.87    1.00
   7   3   0    1.45    1.04
   7   3   0    1.63    1.12
  -7  -3  -1   93.31    3.42
   7   3   1   94.78    3.33
  -7  -3  -1   91.40    3.52
   7   3   1   85.21    3.23
   7   3   1   98.94    3.55
  -7  -3  -2    5.16    1.23
   7   3   2    5.30    1.16
  -7  -3  -2    7.15    1.17
   7   3   2    4.92    1.21
   7   3   2    2.60    1.08
  -7  -3  -3   -1.45    0.93
  -7  -3  -3    0.71    0.91
   7   3   3   -0.02    0.95
   7   3   3   -0.61    0.88
   7   3   3    0.51    0.88
   7   3   4    2.90    1.14
   7   3   4    1.41    0.91
  -7  -3  -4    1.95    0.30
  -7  -3  -4    0.96    0.93
  -7  -3  -4    3.94    1.17
  -7  -3  -4    1.48    0.87
   7   3   4    1.75    1.10
  -7  -3  -5   12.64    0.78
  -7  -3  -5   12.02    1.38
  -7  -3  -5   15.12    1.62
  -7  -3  -5   13.63    1.53
   7   3   5   12.96    1.50
   7   3   5   16.67    1.51
   7   3   5   11.53    1.43
   7   3   6    0.18    0.99
  -7  -3  -6   -0.76    0.83
  -7  -3  -6    0.00    0.60
   7   3   6   -0.95    0.89
  -7  -3  -6    0.07    0.90
  -7  -3  -6    0.42    0.98
   7   3   6    0.68    0.94
   7   3   7   16.35    1.50
  -7  -3  -7   17.31    1.30
  -7  -3  -7   16.60    1.56
  -7  -3  -7   15.60    1.56
  -7  -3  -7   16.84    1.73
   7   3   7   13.91    1.62
   7   3   7   15.91    1.62
  -7  -3  -8   46.55    2.10
   7   3   8   44.62    2.27
  -7  -3  -8   46.68    2.43
  -7  -3  -8   43.25    2.63
   7   3   8   43.04    2.53
   7   3   8   44.21    2.51
  -7  -3  -9   11.27    1.40
   7   3   9   11.92    1.43
  -7  -3  -9    8.83    1.35
  -7  -3  -9    9.47    1.51
   7   3   9    8.72    1.63
   7   3   9   10.27    1.46
   7   3  10    1.17    1.05
   7   3  10   -0.42    0.98
  -7  -3 -10    2.15    1.13
  -7  -3 -10   -0.34    1.12
   7   3  10    1.95    1.33
  -7  -3 -10    0.46    0.90
  -7  -3 -11    1.23    0.93
   7   3  11    1.03    1.07
   7   3  11    1.07    1.50
  -7  -3 -11   -0.75    1.10
   7   3  11   -0.23    0.93
  -7  -3 -11    0.40    1.17
   7   3  11    2.17    1.17
  -7  -3 -12    1.83    1.15
   7   3  12    0.66    1.02
   7   3  12    0.08    1.48
  -7  -3 -12    2.50    1.44
   7   3  12   -0.83    1.06
  -7  -3 -12    0.57    1.14
   7   3  12   -0.59    1.47
  -7  -3 -13    1.25    1.06
   7   3  13    1.33    1.19
   7   3  13    2.57    1.62
  -7  -3 -13   -0.71    1.29
  -7  -3 -13    0.40    1.16
   7   3  13    1.70    1.25
   7   3  13    0.42    1.32
   7   3  14   -0.31    1.43
   7   3  14    0.31    1.01
  -7  -3 -14   -1.35    1.12
   7   3  14    1.37    1.24
  -7  -3 -14    1.73    1.32
  -7  -3 -15   58.48    3.70
   7   3  15   53.89    3.20
   7   3  15   50.32    2.87
   7   3  15   58.44    3.84
   7   3  16   -0.02    1.82
   7   3  16    3.15    1.50
   7   3  16    1.60    1.11
  -7  -3 -16    1.97    1.75
  -7  -4  10    2.70    1.41
  -7  -4  10    1.05    1.69
   7   4 -10    2.36    1.30
   7   4 -10    0.48    1.84
  -7  -4   9    2.69    1.37
  -7  -4   9    0.10    1.46
   7   4  -9    1.93    1.20
   7   4  -9    0.66    1.64
  -7  -4   8   35.02    2.81
   7   4  -8   37.94    2.56
   7   4  -8   43.72    3.47
  -7  -4   8   38.54    2.71
  -7  -4   7    0.31    1.08
  -7  -4   7    1.23    1.15
   7   4  -7    1.65    1.11
   7   4  -7    1.81    1.58
  -7  -4   6    6.93    1.51
  -7  -4   6    4.88    1.18
   7   4  -6    6.52    1.50
   7   4  -6    8.63    1.95
  -7  -4   5   29.36    1.96
   7   4  -5   31.55    2.31
   7   4  -5   28.25    2.64
  -7  -4   5   31.07    2.31
  -7  -4   4   41.04    2.03
   7   4  -4   40.60    2.57
   7   4  -4   43.19    2.87
  -7  -4   4   39.20    2.57
  -7  -4   3    7.46    1.01
   7   4  -3   10.85    1.62
   7   4  -3    9.17    1.53
   7   4  -3    6.65    1.38
  -7  -4   3    8.45    1.50
  -7  -4   2   -0.03    0.97
  -7  -4   2    0.10    0.63
   7   4  -2    0.72    1.07
   7   4  -2    0.41    1.09
   7   4  -2   -0.63    1.18
  -7  -4   1   23.89    1.12
   7   4  -1   22.57    2.05
   7   4  -1   27.68    2.14
   7   4  -1   30.11    2.23
  -7  -4   1   27.00    2.12
  -7  -4   0   22.12    0.88
   7   4   0   21.91    1.94
  -7  -4   0   20.24    1.97
   7   4   0   20.00    1.83
   7   4   0   23.58    1.95
  -7  -4   0   23.72    1.94
  -7  -4  -1    0.33    1.01
  -7  -4  -1    1.14    0.28
  -7  -4  -1    0.98    0.99
   7   4   1    4.28    1.29
   7   4   1    1.87    1.04
   7   4   1    1.12    1.16
  -7  -4  -2   27.67    0.84
  -7  -4  -2   28.16    0.77
   7   4   2   31.42    1.99
  -7  -4  -2   31.00    2.10
   7   4   2   31.01    2.16
   7   4   2   31.02    2.08
  -7  -4  -3   12.76    1.52
  -7  -4  -3   11.84    0.65
  -7  -4  -3   15.10    1.54
   7   4   3   11.32    1.37
   7   4   3   10.80    1.39
   7   4   3   11.39    1.59
   7   4   4    3.01    1.01
  -7  -4  -4    3.37    1.03
  -7  -4  -4    2.61    0.51
  -7  -4  -4    2.42    0.91
   7   4   4    1.33    0.93
   7   4   4    5.37    1.23
   7   4   5    2.36    0.93
  -7  -4  -5    1.65    0.64
  -7  -4  -5    2.98    1.00
  -7  -4  -5    2.32    0.99
  -7  -4  -5    2.86    0.99
   7   4   5    2.95    1.06
   7   4   5    1.95    1.02
  -7  -4  -6    5.38    0.86
   7   4   6    5.50    1.06
  -7  -4  -6    4.64    1.09
  -7  -4  -6    6.00    1.08
  -7  -4  -6    4.72    1.08
   7   4   6    5.92    1.16
   7   4   6    5.96    1.22
  -7  -4  -7    7.67    1.06
  -7  -4  -7    9.09    1.29
   7   4   7    5.90    1.07
  -7  -4  -7    9.85    1.47
  -7  -4  -7    6.49    1.25
   7   4   7    8.21    1.36
   7   4   7    6.79    1.26
  -7  -4  -8  201.89    4.28
   7   4   8  201.04    4.39
  -7  -4  -8  200.01    4.73
  -7  -4  -8  186.88    4.67
  -7  -4  -8  209.81    5.26
   7   4   8  201.59    5.05
   7   4   8  201.80    5.00
  -7  -4  -9   29.41    1.97
   7   4   9   25.82    1.82
  -7  -4  -9   28.04    1.97
  -7  -4  -9   27.81    2.10
   7   4   9   29.61    2.11
   7   4   9   25.59    2.11
  -7  -4 -10   67.85    2.94
   7   4  10   68.07    2.76
  -7  -4 -10   61.56    2.78
  -7  -4 -10   66.79    3.15
   7   4  10   63.46    2.96
   7   4  10   66.10    3.19
   7   4  11    2.02    0.99
   7   4  11   -0.47    0.89
  -7  -4 -11   -0.14    1.13
  -7  -4 -11    0.88    1.06
  -7  -4 -11    1.52    0.99
   7   4  11   -0.03    1.10
   7   4  12   -0.83    1.11
  -7  -4 -12    0.15    1.20
   7   4  12   -0.42    0.96
  -7  -4 -12    1.63    1.09
   7   4  12    0.96    1.28
  -7  -4 -12    0.61    0.91
  -7  -4 -13   14.19    1.96
  -7  -4 -13   12.93    1.62
  -7  -4 -13   11.38    1.75
   7   4  13   15.39    1.69
   7   4  13   14.18    2.00
   7   4  13   15.20    1.74
   7   4  14    5.28    1.62
   7   4  14    3.21    1.15
  -7  -4 -14    4.56    1.20
   7   4  14    5.90    1.28
  -7  -4 -14    5.18    1.80
   7   4  15    0.73    1.70
   7   4  15    0.60    0.90
  -7  -4 -15    0.67    1.06
  -7  -4 -15    2.23    1.58
   7   4  15   -0.92    1.29
  -7  -4 -16   32.98    2.95
   7   4  16   32.37    2.60
   7   4  16   28.15    2.10
   7   4  16   38.30    3.35
  -7  -5  10    3.67    1.61
  -7  -5   9    8.70    1.79
  -7  -5   9    4.95    1.66
   7   5  -9    7.33    1.60
   7   5  -9    8.74    2.20
  -7  -5   8    2.45    1.30
  -7  -5   8    5.89    1.60
   7   5  -8    4.05    1.28
   7   5  -8    5.51    1.83
  -7  -5   7   27.66    2.41
   7   5  -7   23.39    2.14
   7   5  -7   25.72    2.65
  -7  -5   7   25.92    2.39
  -7  -5   6    1.49    1.23
  -7  -5   6    1.73    1.23
   7   5  -6    0.54    1.02
   7   5  -6    0.23    1.37
  -7  -5   5    0.27    1.14
  -7  -5   5    1.96    1.11
   7   5  -5    3.32    1.53
   7   5  -5    2.38    1.18
  -7  -5   4   43.69    2.29
   7   5  -4   37.62    2.55
   7   5  -4   48.08    3.06
  -7  -5   4   44.53    2.82
  -7  -5   3   13.85    1.36
   7   5  -3    9.41    1.54
   7   5  -3   14.07    1.78
  -7  -5   3   12.05    1.74
  -7  -5   2    1.57    1.05
  -7  -5   2    0.43    0.71
   7   5  -2   -0.89    1.15
   7   5  -2    1.09    1.16
   7   5  -2    2.03    1.20
  -7  -5   1   16.21    1.15
   7   5  -1   17.95    1.93
   7   5  -1   16.14    1.75
   7   5  -1   13.53    1.66
  -7  -5   1   14.68    1.80
  -7  -5   0   -2.11    1.22
  -7  -5   0   -0.25    0.55
   7   5   0    0.41    1.00
   7   5   0    0.77    1.03
   7   5   0    0.64    1.08
  -7  -5  -1    1.13    1.15
  -7  -5  -1    0.03    0.52
  -7  -5  -1   -0.75    1.17
   7   5   1   -0.36    1.10
   7   5   1    2.40    1.14
   7   5   1   -1.77    1.22
   7   5   2   12.08    1.52
  -7  -5  -2   10.69    1.44
   7   5   2   13.59    1.55
   7   5   2   13.23    1.70
  -7  -5  -2   13.75    1.58
   7   5   3   17.21    1.54
  -7  -5  -3   15.31    1.61
   7   5   3   18.01    1.62
   7   5   3   17.79    1.76
  -7  -5  -3   17.23    1.75
  -7  -5  -4    2.86    1.27
  -7  -5  -4    3.20    0.79
  -7  -5  -4    2.67    0.99
   7   5   4    5.26    1.18
   7   5   4    3.58    1.13
   7   5   4    4.06    0.99
  -7  -5  -5    6.12    1.26
  -7  -5  -5    5.44    0.95
  -7  -5  -5    8.63    1.35
   7   5   5    7.06    1.17
   7   5   5    5.31    1.17
   7   5   5    5.07    1.14
  -7  -5  -6   27.68    2.02
  -7  -5  -6   25.79    1.59
  -7  -5  -6   25.40    1.86
  -7  -5  -6   25.46    1.98
   7   5   6   27.16    2.04
   7   5   6   29.90    2.04
   7   5   6   24.79    1.70
  -7  -5  -7   17.00    1.46
  -7  -5  -7   14.81    1.53
  -7  -5  -7   16.21    1.57
  -7  -5  -7   13.23    1.57
   7   5   7   13.06    1.54
   7   5   7   14.96    1.65
   7   5   7   15.81    1.37
  -7  -5  -8   49.02    2.42
   7   5   8   42.44    2.13
  -7  -5  -8   43.79    2.36
  -7  -5  -8   37.02    2.24
   7   5   8   42.90    2.53
   7   5   8   44.20    2.54
  -7  -5  -8   48.36    2.65
  -7  -5  -9   16.89    1.66
  -7  -5  -9   18.22    1.66
   7   5   9   17.68    1.48
  -7  -5  -9   16.86    1.69
  -7  -5  -9   21.24    1.97
   7   5   9   17.02    1.68
   7   5   9   17.64    1.87
  -7  -5 -10   43.88    2.67
  -7  -5 -10   40.67    2.39
   7   5  10   43.67    2.20
  -7  -5 -10   45.35    2.35
   7   5  10   40.63    2.42
   7   5  10   45.50    2.68
  -7  -5 -11    9.64    1.63
  -7  -5 -11    6.31    1.28
   7   5  11    8.98    1.26
  -7  -5 -11    9.28    1.62
   7   5  11    9.94    1.60
   7   5  11    8.11    1.31
  -7  -5 -12    5.52    1.52
   7   5  12    8.21    1.37
  -7  -5 -12    6.79    1.43
  -7  -5 -12    4.10    1.13
   7   5  12    6.40    1.25
   7   5  12    6.14    1.49
  -7  -5 -13   -1.72    1.49
  -7  -5 -13    0.15    1.16
   7   5  13   -0.85    0.95
  -7  -5 -13   -0.76    0.98
   7   5  13    0.29    0.99
   7   5  13    0.49    1.19
   7   5  14   -0.25    1.33
   7   5  14    2.23    1.33
  -7  -5 -14    1.41    1.47
   7   5  14    1.89    0.98
  -7  -5 -14    0.30    0.97
  -7  -5 -15    2.54    1.12
   7   5  15    6.62    1.73
  -7  -5 -15    2.55    1.62
   7   5  15    3.72    1.38
   7   5  15    3.20    1.13
  -7  -5 -16  153.44    6.02
   7   5  16  157.03    5.02
  -7  -5 -16  137.52    4.69
   7   5  16  153.87    6.07
  -7  -6   9   -2.14    1.77
  -7  -6   9    1.15    1.62
   7   6  -9    0.70    1.72
  -7  -6   8    4.44    1.73
  -7  -6   8    3.63    1.48
   7   6  -8    6.30    2.01
  -7  -6   7    8.62    1.71
  -7  -6   7    9.55    1.68
   7   6  -7    6.05    1.59
   7   6  -7   12.53    2.27
  -7  -6   6    2.39    1.37
  -7  -6   6    1.85    1.23
   7   6  -6    1.03    1.15
   7   6  -6    2.48    1.49
  -7  -6   5    6.02    1.64
   7   6  -5    6.54    1.64
  -7  -6   5    6.05    1.31
   7   6  -5    5.86    1.49
  -7  -6   4    2.98    1.33
  -7  -6   4    2.60    1.10
   7   6  -4    4.86    1.33
   7   6  -4    3.11    1.41
  -7  -6   3    7.56    1.43
  -7  -6   3    8.23    1.26
   7   6  -3    7.10    1.49
   7   6  -3    9.17    1.58
  -7  -6   2    0.92    1.28
   7   6  -2   -0.42    1.06
  -7  -6   2    0.02    0.80
   7   6  -2    1.91    1.20
  -7  -6   1    0.62    1.06
  -7  -6   1    1.33    0.83
   7   6  -1   -0.64    1.24
   7   6  -1   -0.67    1.06
   7   6  -1    1.45    1.02
  -7  -6   0    2.02    1.26
  -7  -6   0    1.61    0.76
   7   6   0    2.08    1.15
   7   6   0   -0.41    0.96
   7   6   0    1.30    1.09
   7   6   1   15.25    1.72
  -7  -6  -1   15.83    1.76
   7   6   1   15.25    1.68
   7   6   1   15.31    1.66
  -7  -6  -1   13.36    1.66
  -7  -6  -2    6.01    1.30
  -7  -6  -2    3.31    1.30
   7   6   2    3.72    1.12
   7   6   2    7.64    1.38
   7   6   2    5.01    1.19
   7   6   3   29.65    1.99
  -7  -6  -3   35.26    2.33
   7   6   3   36.65    2.40
   7   6   3   31.35    2.05
  -7  -6  -3   32.81    2.35
  -7  -6  -4   -0.43    1.07
  -7  -6  -4    2.80    1.03
   7   6   4    0.83    0.88
   7   6   4    0.15    1.05
   7   6   4    1.09    0.89
  -7  -6  -5    4.74    1.28
  -7  -6  -5    6.33    1.16
   7   6   5    6.24    1.10
  -7  -6  -5    5.03    1.16
   7   6   5    6.56    1.21
   7   6   5    6.47    1.34
   7   6   6    2.86    0.87
  -7  -6  -6    1.40    1.03
  -7  -6  -6    3.46    1.08
  -7  -6  -6    2.10    0.99
   7   6   6    2.44    1.08
   7   6   6    3.42    1.24
  -7  -6  -7    1.13    0.95
  -7  -6  -7    0.52    1.00
   7   6   7   -0.03    0.76
  -7  -6  -7    0.84    0.96
  -7  -6  -7    2.23    1.00
   7   6   7   -0.12    0.95
   7   6   7   -0.72    1.08
  -7  -6  -8   10.16    1.47
   7   6   8    7.13    1.08
  -7  -6  -8    7.88    1.32
  -7  -6  -8    6.12    1.09
  -7  -6  -8    7.65    1.39
   7   6   8    8.35    1.38
   7   6   8    7.15    1.35
  -7  -6  -9  549.77    8.38
  -7  -6  -9  545.13    8.00
   7   6   9  539.58    6.98
  -7  -6  -9  530.41    7.67
   7   6   9  546.69    8.36
   7   6   9  542.07    8.35
  -7  -6 -10    9.54    1.29
  -7  -6 -10    8.48    1.52
   7   6  10    9.73    1.18
  -7  -6 -10    9.22    1.34
  -7  -6 -10    9.26    1.55
   7   6  10   10.72    1.47
   7   6  10   11.21    1.70
   7   6  11    0.75    0.83
  -7  -6 -11    0.33    1.17
  -7  -6 -11    1.28    1.02
  -7  -6 -11   -0.48    1.03
  -7  -6 -11   -0.25    1.01
   7   6  11    0.54    1.00
   7   6  11    2.77    1.38
  -7  -6 -12    7.51    1.60
  -7  -6 -12   10.98    1.44
   7   6  12   10.34    1.48
   7   6  12   12.11    1.38
  -7  -6 -12   10.54    1.63
   7   6  12    9.78    1.74
  -7  -6 -13    8.28    1.96
  -7  -6 -13    9.96    1.63
   7   6  13    7.45    1.40
  -7  -6 -13    6.50    1.28
   7   6  13    5.57    1.18
   7   6  13    9.77    1.84
   7   6  14    0.62    1.31
   7   6  14    0.45    1.05
  -7  -6 -14    1.08    1.47
  -7  -6 -14   -0.75    1.08
   7   6  14   -0.21    0.90
   7   6  15    2.15    1.48
  -7  -6 -15    2.60    1.60
   7   6  15    3.56    1.17
   7   6  15    3.97    1.10
  -7  -6 -15    0.99    0.98
  -7  -6 -16   13.26    2.38
  -7  -6 -16   14.28    1.73
   7   6  16   15.00    1.78
   7   6  16   15.56    2.41
  -7  -7   8    4.32    1.81
  -7  -7   8    2.73    1.61
  -7  -7   7    2.18    1.52
   7   7  -7    6.63    2.06
  -7  -7   7    2.28    1.63
  -7  -7   6   12.66    1.81
   7   7  -6   13.37    2.16
  -7  -7   6   14.19    2.21
  -7  -7   5    3.56    1.41
   7   7  -5    4.28    1.42
   7   7  -5    3.08    1.46
  -7  -7   5    1.81    1.41
  -7  -7   4    0.87    1.13
   7   7  -4    2.67    1.27
   7   7  -4    3.73    1.45
  -7  -7   4    1.57    1.35
  -7  -7   3   39.00    2.36
   7   7  -3   44.94    2.96
   7   7  -3   44.65    2.89
  -7  -7   3   38.94    2.88
  -7  -7   2   11.14    1.46
   7   7  -2   10.23    1.72
   7   7  -2   10.15    1.69
  -7  -7   2   10.78    1.85
  -7  -7   1    3.67    1.43
  -7  -7   1    5.69    1.20
   7   7  -1    4.31    1.36
   7   7  -1    3.31    1.25
   7   7  -1    4.75    1.34
  -7  -7   0   -0.21    1.22
   7   7   0    0.64    1.14
   7   7   0    0.32    1.32
   7   7   0   -0.15    0.96
   7   7   1   19.00    1.90
   7   7   1   18.55    2.01
   7   7   1   19.09    1.84
  -7  -7  -1   15.36    1.86
  -7  -7  -2   -0.10    1.10
  -7  -7  -2   -1.03    1.15
   7   7   2    1.72    1.09
   7   7   2    2.85    1.26
   7   7   2    0.83    1.01
  -7  -7  -3    7.03    1.32
   7   7   3    9.76    1.30
   7   7   3    6.22    1.40
   7   7   3    6.04    1.25
  -7  -7  -3    6.81    1.40
  -7  -7  -4    2.46    1.19
  -7  -7  -4    1.99    1.03
   7   7   4    0.88    1.02
   7   7   4    2.96    1.08
   7   7   4    3.05    1.01
  -7  -7  -5   11.34    1.48
   7   7   5   11.68    1.53
   7   7   5   12.48    1.34
   7   7   5   11.62    1.44
  -7  -7  -5    7.87    1.45
   7   7   6   -0.14    0.80
  -7  -7  -6    0.92    0.93
  -7  -7  -6   -0.31    1.20
  -7  -7  -6   -0.64    0.96
   7   7   6   -1.06    1.19
   7   7   6    0.13    0.98
  -7  -7  -7   21.46    1.96
  -7  -7  -7   20.77    1.77
   7   7   7   22.47    1.97
   7   7   7   20.33    1.84
   7   7   7   20.34    1.51
  -7  -7  -7   21.56    1.93
  -7  -7  -8    5.56    1.41
   7   7   8    7.16    1.04
  -7  -7  -8    7.48    1.59
  -7  -7  -8    5.14    1.22
   7   7   8    5.08    1.36
   7   7   8    6.64    1.35
  -7  -7  -9  183.73    5.29
  -7  -7  -9  162.47    4.60
   7   7   9  171.99    3.83
  -7  -7  -9  166.94    4.32
  -7  -7  -9  174.69    4.84
   7   7   9  167.83    4.71
   7   7   9  166.94    4.68
  -7  -7 -10   57.22    3.17
  -7  -7 -10   54.75    2.74
   7   7  10   59.22    2.34
  -7  -7 -10   54.37    2.58
   7   7  10   60.64    2.92
   7   7  10   58.78    3.04
  -7  -7 -11   71.32    3.62
  -7  -7 -11   67.93    2.88
  -7  -7 -11   70.80    2.94
   7   7  11   64.72    2.57
   7   7  11   66.11    3.04
  -7  -7 -11   72.54    3.41
   7   7  11   70.12    3.37
  -7  -7 -12    0.26    1.40
  -7  -7 -12    2.08    0.88
   7   7  12    0.56    0.83
  -7  -7 -12    0.05    0.93
  -7  -7 -12   -1.32    1.20
   7   7  12    1.17    1.00
   7   7  12    0.09    1.32
  -7  -7 -13    1.68    1.63
  -7  -7 -13    2.67    1.05
  -7  -7 -13    0.70    1.21
   7   7  13    0.03    0.98
   7   7  13    1.63    0.92
   7   7  13   -1.01    1.33
   7   7  14    0.75    1.33
  -7  -7 -14    0.80    1.56
   7   7  14    1.48    1.01
  -7  -7 -14    1.65    0.97
   7   7  14    1.37    1.03
   7   7  15   -1.93    1.51
  -7  -7 -15    0.64    1.66
   7   7  15    1.04    1.00
  -7  -7 -15    0.54    1.05
   7   7  15    1.81    1.11
   7   7  16    1.35    1.51
  -7  -7 -16    4.41    2.11
   7   7  16    3.39    1.24
  -7  -8   7    3.93    1.68
   7   8  -7    1.50    1.64
  -7  -8   7    1.00    1.55
  -7  -8   6    0.94    1.35
   7   8  -6   -0.13    1.42
  -7  -8   6   -1.17    1.43
  -7  -8   5    1.45    1.33
   7   8  -5    2.15    1.51
  -7  -8   5    2.85    1.65
  -7  -8   4  117.88    4.32
   7   8  -4  115.99    4.77
  -7  -8   4  115.91    4.98
  -7  -8   3   15.11    1.77
   7   8  -3   18.67    2.20
   7   8  -3   15.09    1.95
  -7  -8   3   17.21    2.17
  -7  -8   2    1.09    1.05
   7   8  -2    2.17    1.33
   7   8  -2    1.82    1.21
  -7  -8   2   -1.05    1.33
  -7  -8   1    0.04    0.95
   7   8  -1    1.34    1.21
   7   8  -1    0.86    1.17
  -7  -8   1    1.19    1.41
   7   8   0   50.29    2.99
   7   8   0   55.44    3.19
   7   8   0   55.88    2.87
  -7  -8   0   55.71    3.41
   7   8   1    5.69    1.41
   7   8   1    4.37    1.50
   7   8   1    3.72    1.11
  -7  -8  -1    3.68    1.32
  -7  -8  -2    1.47    1.29
   7   8   2    0.87    1.02
   7   8   2    1.29    1.24
   7   8   2    0.57    1.07
   7   8   3   15.34    1.61
   7   8   3   15.88    1.88
  -7  -8  -3   15.62    1.85
   7   8   3   12.67    1.47
  -7  -8  -3   12.74    1.82
  -7  -8  -4   -0.38    1.01
  -7  -8  -4    0.43    1.00
   7   8   4    0.65    1.08
   7   8   4    0.33    0.92
   7   8   4    0.56    0.94
   7   8   5   23.42    2.03
  -7  -8  -5   19.58    1.85
   7   8   5   24.08    1.68
   7   8   5   23.48    1.78
  -7  -8  -5   24.82    2.24
   7   8   6    1.02    0.83
  -7  -8  -6    0.23    1.10
  -7  -8  -6    0.95    1.01
   7   8   6   -0.24    1.08
   7   8   6   -0.16    1.06
  -7  -8  -7    0.89    1.08
  -7  -8  -7    1.97    1.26
   7   8   7    1.51    0.78
  -7  -8  -7    3.20    1.11
   7   8   7    2.01    1.12
   7   8   7    0.01    0.96
   7   8   8   53.42    2.13
  -7  -8  -8   59.95    3.38
   7   8   8   59.00    3.00
  -7  -8  -8   51.05    2.70
   7   8   8   48.36    2.58
  -7  -8  -8   60.12    3.05
  -7  -8  -9   13.47    1.69
  -7  -8  -9   10.79    1.95
   7   8   9   14.52    1.26
   7   8   9   13.15    1.69
  -7  -8  -9   11.89    1.56
   7   8   9   11.89    1.57
  -7  -8 -10  134.29    5.06
  -7  -8 -10  134.18    4.24
   7   8  10  134.22    3.31
   7   8  10  133.78    4.31
  -7  -8 -10  145.77    4.53
   7   8  10  126.24    4.21
   7   8  11    3.01    0.81
  -7  -8 -11    1.40    1.56
  -7  -8 -11    2.49    0.99
  -7  -8 -11    0.89    0.85
  -7  -8 -11    0.19    1.12
   7   8  11    1.31    1.04
   7   8  11    1.81    1.16
  -7  -8 -12   13.81    2.24
  -7  -8 -12   15.90    1.64
  -7  -8 -12   14.97    1.51
   7   8  12   17.18    1.73
  -7  -8 -12   16.33    1.86
   7   8  12   15.67    1.37
   7   8  12   13.59    1.84
   7   8  13    0.70    0.87
  -7  -8 -13    0.68    1.64
  -7  -8 -13    1.06    0.97
   7   8  13    1.80    1.09
  -7  -8 -13   -0.36    1.11
   7   8  13   -0.21    1.26
   7   8  14    5.16    1.67
  -7  -8 -14    5.84    2.00
   7   8  14    5.27    1.03
  -7  -8 -14    6.25    1.21
   7   8  14    6.21    1.20
   7   8  15    1.35    1.54
   7   8  15    1.08    0.92
  -7  -8 -15    1.52    1.70
   7   8  16    3.14    1.65
  -7  -8 -16   -1.35    1.90
   7   8  16    2.26    1.05
  -7  -9   6    0.29    1.49
   7   9  -6    2.68    1.61
  -7  -9   6    1.60    1.86
  -7  -9   5   -0.68    1.42
   7   9  -5    2.29    1.51
  -7  -9   5    0.19    1.63
  -7  -9   4    4.33    1.43
   7   9  -4    5.18    1.59
  -7  -9   4    4.72    1.74
  -7  -9   3   16.00    2.01
   7   9  -3   18.37    2.14
  -7  -9   2   15.99    2.00
   7   9  -2   17.11    1.99
  -7  -9   2   16.39    2.30
   7   9  -1   49.26    3.23
   7   9  -1   49.19    2.87
  -7  -9   1   56.23    3.62
   7   9   0    1.37    1.29
   7   9   0    0.49    1.21
   7   9   0    0.12    1.02
  -7  -9   0    1.35    1.32
   7   9   1    1.69    1.20
   7   9   1    2.61    1.26
   7   9   1    0.37    1.09
  -7  -9  -1    1.98    1.32
   7   9   2    9.12    1.53
   7   9   2   10.54    1.73
   7   9   2    7.77    1.29
  -7  -9  -2    9.55    1.67
  -7  -9  -3    7.33    1.71
   7   9   3    4.85    1.36
   7   9   3    3.16    1.19
   7   9   3    5.07    1.18
  -7  -9  -4    3.17    1.30
  -7  -9  -4    4.48    1.30
   7   9   4    3.71    1.40
   7   9   4    4.42    1.08
   7   9   4    4.32    1.11
   7   9   5   35.90    2.57
  -7  -9  -5   35.82    2.42
   7   9   5   34.82    2.02
   7   9   5   38.78    2.27
  -7  -9  -5   30.73    2.44
   7   9   6    0.28    0.73
  -7  -9  -6   -0.26    1.03
  -7  -9  -6   -0.18    0.92
   7   9   6    1.41    1.24
   7   9   6    1.22    1.08
  -7  -9  -7    0.74    1.25
   7   9   7    0.14    0.82
  -7  -9  -7    1.79    1.06
   7   9   7   -1.68    1.12
   7   9   7    3.00    1.16
  -7  -9  -8   22.61    2.61
   7   9   8   15.97    1.84
  -7  -9  -8   14.66    1.62
   7   9   8   18.74    1.76
  -7  -9  -8   17.20    1.93
   7   9   8   18.99    1.35
  -7  -9  -9   14.00    2.28
   7   9   9   10.66    1.10
   7   9   9   11.18    1.60
  -7  -9  -9    9.10    1.47
   7   9   9   11.74    1.55
  -7  -9  -9   11.54    1.69
  -7  -9 -10   20.71    1.94
  -7  -9 -10   19.62    2.45
   7   9  10   18.98    1.32
   7   9  10   20.68    1.95
  -7  -9 -10   20.21    1.91
   7   9  10   22.10    1.93
  -7  -9 -11    8.06    1.99
  -7  -9 -11    7.91    1.36
   7   9  11    7.79    0.97
  -7  -9 -11    9.44    1.49
   7   9  11    7.42    1.40
   7   9  11    8.18    1.50
  -7  -9 -12    1.82    1.64
  -7  -9 -12   -0.78    0.88
   7   9  12    0.11    0.73
   7   9  12   -0.27    0.96
  -7  -9 -12    1.12    1.18
   7   9  12   -1.74    1.22
   7   9  13    9.29    1.06
  -7  -9 -13   10.85    1.34
  -7  -9 -13   10.77    2.24
   7   9  13    9.95    1.46
  -7  -9 -13   11.28    1.76
   7   9  13   10.63    1.79
   7   9  14    1.40    1.29
  -7  -9 -14    1.40    1.79
   7   9  14   -0.82    1.00
   7   9  14    0.21    0.73
   7   9  15   -0.90    1.36
  -7  -9 -15   -1.21    1.97
   7  10  -5    0.10    1.47
  -7 -10   5    1.29    1.55
  -7 -10   4    1.42    1.53
   7  10  -4    1.46    1.43
  -7 -10   4    1.91    1.72
  -7 -10   3   20.62    2.41
   7  10  -3   23.76    2.28
  -7 -10   3   24.73    2.74
  -7 -10   2   11.12    1.89
   7  10  -2   13.68    1.86
  -7 -10   2   15.77    2.29
   7  10  -1   10.88    1.66
  -7 -10   1    8.77    1.93
   7  10   0   -0.10    1.23
   7  10   0    1.26    1.10
  -7 -10   0    1.47    1.41
   7  10   1   21.47    2.09
   7  10   1   23.25    2.06
  -7 -10  -1   23.21    2.56
   7  10   2    2.74    1.44
   7  10   2    2.41    1.33
   7  10   2    0.41    1.01
  -7 -10  -2    1.31    1.53
   7  10   3    2.38    1.38
   7  10   3    2.03    1.07
   7  10   3   -0.26    0.94
  -7 -10  -3   -0.27    1.30
  -7 -10  -4    5.25    1.53
   7  10   4    5.32    1.49
   7  10   4    3.54    1.13
   7  10   4    4.59    1.17
  -7 -10  -5   -0.96    1.22
  -7 -10  -5    1.51    1.19
   7  10   5    2.69    1.08
   7  10   5    1.06    1.08
   7  10   5    1.56    0.94
   7  10   6    2.02    0.84
  -7 -10  -6    2.42    1.25
  -7 -10  -6    2.20    1.12
   7  10   6    2.16    1.19
   7  10   6    2.52    1.02
   7  10   7   13.59    1.73
  -7 -10  -7   14.15    1.67
   7  10   7   15.82    1.33
   7  10   7   17.65    1.67
  -7 -10  -7   14.60    1.95
  -7 -10  -8    0.57    1.18
  -7 -10  -8   -0.67    1.55
   7  10   8    0.01    0.64
  -7 -10  -8   -0.34    1.03
   7  10   8    1.91    1.21
   7  10   8    0.12    0.98
  -7 -10  -9    0.87    1.11
  -7 -10  -9    5.47    2.03
   7  10   9    4.32    0.81
   7  10   9    1.07    1.08
  -7 -10  -9    3.13    1.07
   7  10   9    5.22    1.30
  -7 -10 -10    7.95    1.44
  -7 -10 -10   10.86    2.27
   7  10  10    8.94    0.95
  -7 -10 -10   10.77    1.57
   7  10  10    7.79    1.51
   7  10  10    9.73    1.43
  -7 -10 -11    9.26    1.50
  -7 -10 -11    9.20    2.21
  -7 -10 -11    8.70    1.47
   7  10  11    8.54    0.89
   7  10  11    9.10    1.49
   7  10  11    8.49    1.55
  -7 -10 -12    3.50    2.01
  -7 -10 -12    2.33    1.23
   7  10  12    3.08    1.19
  -7 -10 -12    0.78    1.01
   7  10  12    1.24    0.66
   7  10  12    0.17    1.12
   7  10  13    6.74    1.57
   7  10  13    6.70    0.90
  -7 -10 -13    7.01    2.03
  -7 -10 -13    7.43    1.28
   7  10  13    7.47    1.43
  -7 -10 -13    6.25    1.56
   7  10  14    8.27    1.75
  -7 -10 -14    8.61    2.32
  -7 -10 -14    6.05    1.21
   7  11  -3    3.60    1.39
  -7 -11   3    1.70    1.85
  -7 -11   2    1.64    1.54
   7  11  -2    0.49    1.20
  -7 -11   2    3.02    2.04
   7  11  -1    4.46    1.50
   7  11  -1    6.10    1.42
  -7 -11   1    8.65    2.32
   7  11   0   14.37    2.05
   7  11   0   13.69    1.75
  -7 -11   0   10.48    2.09
   7  11   1    3.02    1.40
   7  11   1    2.53    1.19
  -7 -11  -1    2.51    1.62
   7  11   2    1.36    1.14
   7  11   2    0.71    1.04
  -7 -11  -2    0.42    1.28
   7  11   3   23.39    1.99
   7  11   3   23.53    1.85
  -7 -11  -3   24.54    2.61
   7  11   4    4.47    1.14
   7  11   4    4.83    1.10
  -7 -11  -4    4.06    1.67
  -7 -11  -5    4.76    1.44
   7  11   5    4.91    1.53
   7  11   5    7.55    1.23
   7  11   5    5.48    1.12
   7  11   6    0.29    0.80
  -7 -11  -6    1.69    1.33
  -7 -11  -6    0.80    1.09
   7  11   6   -0.15    1.18
   7  11   6    0.74    0.89
   7  11   7   26.59    2.44
  -7 -11  -7   27.78    2.15
   7  11   7   29.49    1.62
   7  11   7   31.97    2.09
  -7 -11  -7   25.62    2.48
  -7 -11  -8    1.32    1.18
   7  11   8    1.93    0.65
   7  11   8    0.86    1.16
  -7 -11  -8    2.13    1.02
   7  11   8    2.23    1.09
  -7 -11  -9    3.12    1.32
  -7 -11  -9    3.63    2.01
   7  11   9    3.84    1.28
  -7 -11  -9    3.21    1.22
   7  11   9    2.90    0.67
   7  11   9    3.49    1.24
   7  11  10    2.11    0.60
  -7 -11 -10    2.66    1.19
  -7 -11 -10    5.18    2.28
   7  11  10    2.33    1.27
  -7 -11 -10    1.25    1.12
   7  11  10    4.67    1.34
  -7 -11 -11    3.59    2.24
  -7 -11 -11    2.61    1.25
   7  11  11    1.35    1.10
  -7 -11 -11    2.82    1.18
   7  11  11    1.94    1.08
  -7 -11 -12    3.22    2.08
  -7 -11 -12    3.34    1.23
   7  11  12    1.83    1.11
  -7 -11 -12    2.54    1.08
   7  11  12    0.53    1.21
   7  11  13    0.65    1.16
  -7 -11 -13    1.14    2.07
  -7 -11 -13    0.11    0.96
  -7 -11 -13    1.21    1.20
   7  12  -1    0.11    1.20
  -7 -12   1   -1.15    1.91
   7  12   0   13.93    1.96
   7  12   0   10.99    1.92
   7  12   0   11.45    1.73
  -7 -12   0   12.60    2.26
   7  12   1    0.71    1.23
   7  12   1    1.56    1.30
   7  12   1    0.55    1.01
  -7 -12  -1    1.56    1.44
   7  12   2    7.96    1.51
   7  12   2   10.96    1.70
   7  12   2    9.60    1.46
  -7 -12  -2    9.24    1.89
   7  12   3    2.90    1.16
   7  12   3    3.68    1.02
  -7 -12  -3    0.91    1.58
   7  12   4   -0.03    1.02
   7  12   4    0.68    0.96
  -7 -12  -4   -0.90    1.45
   7  12   5    6.92    1.16
   7  12   5    7.97    1.26
  -7 -12  -6    5.62    1.69
   7  12   6    6.72    1.03
   7  12   6    6.97    1.29
  -7 -12  -7    3.69    1.56
   7  12   7    3.58    0.81
  -7 -12  -7    1.82    1.17
   7  12   7    5.12    1.18
  -7 -12  -8   -0.68    1.21
   7  12   8    0.04    0.58
  -7 -12  -8    2.12    1.15
   7  12   8    0.51    0.97
  -7 -12  -9    3.63    1.47
  -7 -12  -9    0.17    1.06
   7  12   9    0.66    0.50
   7  12   9    1.76    1.13
  -7 -12 -10   14.04    2.86
   7  12  10    9.40    1.66
  -7 -12 -10   10.36    1.58
   7  12  10   10.64    1.48
  -7 -12 -10   14.26    1.89
  -7 -12 -11    1.15    1.11
   7  12  11    1.04    1.19
   7  12  11   -1.36    1.12
  -7 -12 -12   15.65    1.92
  -7 -12 -12   17.62    3.28
   7  12  12   18.29    1.92
   7  13   2    5.55    1.40
   7  13   2    7.77    1.33
  -7 -13  -2    4.96    1.82
   7  13   3    2.23    1.17
   7  13   3    0.61    0.92
  -7 -13  -3    0.58    1.67
   7  13   4    1.83    1.00
   7  13   4   -0.38    0.91
  -7 -13  -4    1.44    1.45
   7  13   5    3.42    1.00
   7  13   5    2.02    0.88
  -7 -13  -5    4.04    1.57
   7  13   6    9.32    1.31
  -7 -13  -6   10.83    1.95
  -7 -13  -7    4.02    1.47
   7  13   7    4.33    1.07
  -7 -13  -8    0.39    1.39
   7  13   8    1.39    0.92
  -7 -13  -9    1.94    1.38
   7  13   9    2.58    1.09
   8  -8  -2    0.31    0.99
   8  -8  -1   11.84    1.75
   8  -8   0    3.35    1.30
   8  -8   1    0.22    1.12
   8  -8   2    2.54    1.20
   8  -8   3    8.84    1.71
   8  -7  -5    0.76    1.36
   8  -7  -5    0.67    0.91
   8  -7  -5    1.16    0.89
   8  -7  -4    0.75    1.37
   8  -7  -4    1.63    1.34
   8  -7  -4   -0.05    0.88
   8  -7  -4   -0.39    0.80
   8  -7  -3   -0.17    1.03
   8  -7  -3   -0.31    0.78
   8  -7  -2    1.96    1.16
   8  -7  -2    2.43    0.90
   8  -7  -1   12.70    1.64
  -8   7   1   12.69    1.94
   8  -7  -1   13.28    1.43
  -8   7   0    4.07    1.52
   8  -7   0    3.93    1.04
   8  -7   0    3.67    1.26
  -8   7  -1    5.39    1.24
   8  -7   1    8.08    1.53
   8  -7   1    9.39    1.43
   8  -7   2    5.44    1.32
  -8   7  -2    6.12    1.31
   8  -7   2    5.68    1.28
   8  -7   3    4.56    1.47
  -8   7  -3    2.68    1.15
   8  -7   3    5.47    1.19
  -8   7  -4   18.90    1.81
   8  -7   4   20.67    2.17
   8  -7   4   17.27    1.72
   8  -7   5    1.49    1.49
  -8   7  -5    0.70    1.07
   8  -7   5    0.12    1.24
   8  -7   5    0.36    1.03
   8  -7   6   10.08    1.84
   8  -7   6   13.50    1.70
   8  -6  -7    0.14    0.86
   8  -6  -7    1.01    1.09
   8  -6  -7    0.55    1.11
   8  -6  -6    3.51    1.15
   8  -6  -6    5.98    1.51
   8  -6  -6    5.29    1.21
   8  -6  -6    4.06    1.23
   8  -6  -5    0.25    1.01
   8  -6  -5   -0.11    1.15
   8  -6  -5   -0.55    0.92
   8  -6  -5    0.72    0.90
   8  -6  -4   16.28    1.69
   8  -6  -4   16.90    2.03
   8  -6  -4   11.72    1.45
   8  -6  -4   12.59    1.76
   8  -6  -3    2.13    1.34
   8  -6  -3    1.93    1.32
   8  -6  -3   -0.58    1.02
   8  -6  -3    0.24    0.77
   8  -6  -2   11.76    1.85
   8  -6  -2   14.83    1.62
   8  -6  -2   14.20    1.47
   8  -6  -1   12.35    1.79
   8  -6  -1   10.47    1.54
  -8   6   1   13.44    1.93
   8  -6  -1   13.46    1.43
   8  -6   0   16.24    2.05
   8  -6   0   19.38    1.94
  -8   6   0   25.16    2.43
  -8   6   0   23.90    2.01
   8  -6   0   25.78    1.86
   8  -6   1   26.45    2.16
  -8   6  -1   27.11    2.47
  -8   6  -1   24.99    2.09
   8  -6   1   28.70    1.99
   8  -6   2    7.21    1.50
  -8   6  -2    9.25    1.76
  -8   6  -2    9.42    1.46
   8  -6   2    7.14    1.24
   8  -6   3    3.49    1.51
   8  -6   3    1.37    1.22
  -8   6  -3    1.51    1.06
   8  -6   3    2.58    1.01
   8  -6   4   28.57    2.35
  -8   6  -4   23.92    1.99
   8  -6   4   24.56    2.19
   8  -6   4   28.76    2.13
   8  -6   5    7.05    1.60
   8  -6   5    5.55    1.40
  -8   6  -5    7.18    1.39
   8  -6   5    9.78    1.58
   8  -6   6   17.55    2.13
  -8   6  -6   16.53    1.93
   8  -6   6   22.06    2.28
   8  -6   6   19.38    2.07
   8  -6   7   -1.43    1.18
   8  -6   7    0.43    1.39
  -8   6  -7    0.36    1.17
   8  -6   7   -0.05    1.28
   8  -6   8   20.89    2.42
   8  -6   8   14.51    2.13
  -8   6  -8   15.64    1.96
   8  -6   8   17.02    1.98
   8  -5  -8    6.72    1.45
   8  -5  -8    6.68    1.54
   8  -5  -8    5.80    1.35
   8  -5  -7    1.13    1.01
   8  -5  -7    2.95    1.21
   8  -5  -7    0.34    0.95
   8  -5  -6    3.96    1.12
   8  -5  -6    2.43    0.97
   8  -5  -6    3.80    1.29
   8  -5  -6    5.90    1.27
   8  -5  -5    1.01    1.07
   8  -5  -5    2.20    1.07
   8  -5  -5    1.15    1.04
   8  -5  -5    2.29    1.08
   8  -5  -4    1.01    1.04
   8  -5  -4    1.71    1.10
   8  -5  -4    1.82    0.88
   8  -5  -4    1.01    0.94
   8  -5  -3   21.43    2.01
   8  -5  -3   20.13    1.74
   8  -5  -3   20.07    1.84
   8  -5  -3   15.57    1.83
   8  -5  -2   13.79    1.78
   8  -5  -2   15.09    1.65
   8  -5  -2   16.87    1.86
   8  -5  -2   16.89    1.56
   8  -5  -1    6.96    1.39
   8  -5  -1    6.45    1.53
  -8   5   1    3.92    1.35
   8  -5  -1    3.26    0.96
   8  -5   0    0.16    1.13
  -8   5   0    1.61    1.26
  -8   5   0    1.68    1.12
   8  -5   0    1.74    1.09
   8  -5   0    1.03    0.88
   8  -5   1    6.02    1.47
  -8   5  -1    5.80    1.29
  -8   5  -1    3.83    1.41
   8  -5   1    4.19    1.16
   8  -5   1    5.84    1.18
   8  -5   2    3.83    1.30
  -8   5  -2    5.89    1.35
  -8   5  -2    6.57    1.58
   8  -5   2    5.79    1.35
   8  -5   2    6.09    1.22
   8  -5   3   57.24    2.81
   8  -5   3   55.42    2.98
  -8   5  -3   57.41    3.42
  -8   5  -3   55.37    2.86
   8  -5   3   58.52    2.82
   8  -5   4   63.78    3.00
   8  -5   4   67.49    3.35
  -8   5  -4   56.23    2.92
   8  -5   4   59.71    2.92
   8  -5   5    6.99    1.44
   8  -5   5    7.34    1.44
  -8   5  -5   10.34    1.50
   8  -5   5   10.64    1.63
   8  -5   6    1.03    1.17
   8  -5   6    0.23    1.22
  -8   5  -6    0.11    1.01
   8  -5   6   -0.70    1.08
   8  -5   7    4.42    1.54
   8  -5   7    6.90    1.47
  -8   5  -7    6.97    1.48
   8  -5   7    5.70    1.50
   8  -5   8    2.29    1.43
  -8   5  -8    0.77    1.15
   8  -5   8   -0.02    1.21
   8  -5   8    1.84    1.30
   8  -5   9    2.11    1.36
   8  -5   9    3.57    1.59
   8  -5   9    3.29    1.59
   8  -5  10    0.27    1.31
   8  -5  10    1.34    1.44
   8  -4  -9    1.30    1.32
   8  -4  -9   -0.04    1.06
   8  -4  -9    0.89    1.04
   8  -4  -8    1.39    1.21
   8  -4  -8   -0.83    1.03
   8  -4  -8   -0.07    0.93
   8  -4  -7    2.33    1.01
   8  -4  -7    2.41    1.12
   8  -4  -7    2.05    1.03
   8  -4  -7    1.12    0.96
   8  -4  -6    2.32    1.09
   8  -4  -6    1.31    1.01
   8  -4  -6    1.16    0.95
   8  -4  -6    1.63    1.02
   8  -4  -5   13.86    1.54
   8  -4  -5   13.26    1.59
   8  -4  -5   15.03    1.76
   8  -4  -5   13.46    1.60
   8  -4  -4    6.17    1.43
   8  -4  -4    4.65    1.24
   8  -4  -4    6.43    1.11
   8  -4  -4    4.26    1.28
   8  -4  -3   45.15    2.39
   8  -4  -3   44.09    2.55
   8  -4  -3   39.33    2.49
   8  -4  -3   41.76    2.69
   8  -4  -2   15.45    1.52
   8  -4  -2   15.86    1.72
   8  -4  -2   18.60    1.75
   8  -4  -2   18.43    2.06
   8  -4  -1    7.04    1.45
   8  -4  -1    6.04    1.24
   8  -4  -1    6.36    1.15
   8  -4   0   19.62    2.01
   8  -4   0   19.45    1.82
  -8   4   0   16.66    1.95
  -8   4   0   20.41    1.92
   8  -4   0   17.04    1.58
   8  -4   1   -0.09    1.16
   8  -4   1    1.82    1.05
  -8   4  -1    1.75    1.14
  -8   4  -1    2.45    1.21
   8  -4   1    3.07    1.05
   8  -4   2    8.88    1.46
   8  -4   2    5.17    1.29
  -8   4  -2    6.88    1.32
  -8   4  -2    6.40    1.51
   8  -4   2    5.98    1.21
   8  -4   3    1.54    1.28
   8  -4   3    1.61    1.01
  -8   4  -3    3.27    1.25
  -8   4  -3    4.54    1.39
   8  -4   3    2.39    1.13
   8  -4   3    2.72    1.18
   8  -4   4    0.44    1.28
   8  -4   4   -0.03    0.92
  -8   4  -4    0.39    1.07
  -8   4  -4   -0.30    1.25
   8  -4   4    0.53    0.92
   8  -4   4    0.54    1.12
   8  -4   5    0.56    1.12
   8  -4   5    3.95    1.32
   8  -4   5    2.44    1.13
  -8   4  -5    3.32    1.31
  -8   4  -5    2.39    1.15
   8  -4   5    1.92    1.15
   8  -4   6   -3.40    1.32
   8  -4   6    0.24    1.00
  -8   4  -6   -0.45    1.00
  -8   4  -6   -0.97    1.28
   8  -4   6    0.57    1.08
   8  -4   7    1.67    1.30
   8  -4   7    0.46    1.19
  -8   4  -7    0.37    1.06
   8  -4   7    0.29    1.03
   8  -4   8    3.95    1.29
   8  -4   8    8.64    1.65
  -8   4  -8    7.75    1.54
   8  -4   8    4.68    1.24
   8  -4   9    4.45    1.49
  -8   4  -9    5.98    1.46
   8  -4   9    8.07    1.65
   8  -4   9   10.24    1.88
   8  -4  10   -0.72    1.26
   8  -4  10   -2.67    1.59
   8  -4  10   -0.27    1.38
   8  -4  11    8.10    1.74
   8  -4  11    7.93    1.89
   8  -3  -9   -0.40    1.34
   8  -3  -9    0.37    1.17
   8  -3  -9    0.38    1.03
   8  -3  -8    4.18    1.18
   8  -3  -8    5.58    1.49
   8  -3  -8    4.61    1.17
   8  -3  -8    5.40    1.29
   8  -3  -7    2.77    1.01
   8  -3  -7    3.63    1.32
   8  -3  -7    2.67    1.18
   8  -3  -7    3.06    1.05
   8  -3  -6    4.35    1.10
   8  -3  -6    3.22    1.12
   8  -3  -6    4.21    1.19
   8  -3  -6    1.98    1.00
   8  -3  -5    2.94    1.16
   8  -3  -5    2.11    0.87
   8  -3  -5    0.56    0.94
   8  -3  -5    3.89    1.16
   8  -3  -4    3.94    1.15
   8  -3  -4    5.02    1.35
   8  -3  -4    4.69    1.05
   8  -3  -4    5.01    1.22
   8  -3  -3    5.26    1.37
   8  -3  -3    3.83    0.92
   8  -3  -3    8.45    1.50
   8  -3  -3    6.53    1.40
   8  -3  -2    3.41    1.21
   8  -3  -2    3.00    1.14
   8  -3  -2    4.07    0.88
   8  -3  -2    5.14    1.31
   8  -3  -1    1.26    1.05
   8  -3  -1    0.22    0.75
   8  -3  -1    1.91    1.20
  -8   3   1    0.55    1.07
   8  -3  -1    1.15    0.95
   8  -3   0    0.33    1.14
   8  -3   0   -0.68    1.07
  -8   3   0    1.43    1.29
  -8   3   0   -0.81    1.24
   8  -3   0   -0.80    0.88
   8  -3   1    7.47    1.48
   8  -3   1    5.47    1.29
  -8   3  -1    7.06    1.52
  -8   3  -1    6.59    1.44
   8  -3   1    5.62    1.22
   8  -3   2   19.85    2.08
   8  -3   2   16.75    1.74
   8  -3   2   20.44    1.34
  -8   3  -2   18.33    2.05
  -8   3  -2   17.85    1.77
   8  -3   2   19.64    1.75
   8  -3   3    7.76    0.97
   8  -3   3    9.23    1.46
   8  -3   3    6.96    1.52
  -8   3  -3    8.42    1.39
  -8   3  -3    8.60    1.62
   8  -3   3    5.75    1.20
   8  -3   4  122.48    4.50
   8  -3   4  110.01    3.11
   8  -3   4  108.19    3.95
  -8   3  -4  107.35    4.19
  -8   3  -4  108.25    3.90
   8  -3   4  114.71    3.95
   8  -3   5   18.09    1.50
   8  -3   5   16.35    1.96
   8  -3   5   12.01    1.64
  -8   3  -5   15.62    1.89
  -8   3  -5   18.41    1.87
   8  -3   5   15.50    1.73
   8  -3   6    9.18    1.39
   8  -3   6    9.95    1.57
   8  -3   6   14.45    1.83
  -8   3  -6   14.52    1.93
  -8   3  -6   11.49    1.58
   8  -3   6    9.36    1.58
   8  -3   7    2.17    1.26
   8  -3   7    4.11    1.32
   8  -3   7    1.61    1.20
  -8   3  -7    2.77    1.18
   8  -3   7    3.50    1.32
  -8   3  -7    5.22    1.45
   8  -3   8    1.04    1.14
   8  -3   8    0.44    1.35
  -8   3  -8   -0.15    1.10
   8  -3   8   -1.29    1.13
   8  -3   9    1.71    1.20
   8  -3   9    1.95    1.24
  -8   3  -9    2.80    1.17
   8  -3   9    4.27    1.39
   8  -3  10    8.42    1.75
   8  -3  10    9.70    1.88
   8  -3  10   13.97    1.99
   8  -3  11    0.85    1.44
   8  -3  11   -0.42    1.28
   8  -3  11    0.68    1.33
   8  -3  12   28.65    2.75
   8  -3  12   37.89    3.06
   8  -2  -9    9.19    1.55
   8  -2  -9   11.67    1.94
   8  -2  -9   13.15    2.09
   8  -2  -8    1.09    1.12
   8  -2  -8    0.95    1.36
   8  -2  -8    2.07    1.31
   8  -2  -8    1.15    0.99
   8  -2  -7    5.68    1.16
   8  -2  -7    4.70    1.51
   8  -2  -7    5.18    1.39
   8  -2  -7    4.92    1.35
   8  -2  -6    1.17    0.75
   8  -2  -6    0.33    1.17
   8  -2  -6    2.00    1.22
   8  -2  -6    0.42    1.03
   8  -2  -5    0.64    0.69
   8  -2  -5    1.18    1.19
   8  -2  -5    1.75    1.08
   8  -2  -5   -0.29    1.03
   8  -2  -4    4.72    1.27
   8  -2  -4    5.86    0.96
   8  -2  -4    5.76    1.35
   8  -2  -4    6.35    1.30
   8  -2  -3   15.73    1.09
   8  -2  -3   17.22    1.74
   8  -2  -3   17.15    1.82
   8  -2  -3   15.47    1.71
   8  -2  -2    9.34    0.80
   8  -2  -2    8.85    1.54
   8  -2  -2    8.35    1.47
   8  -2  -2    7.89    1.43
   8  -2  -1    1.16    1.11
   8  -2  -1    2.82    1.08
   8  -2  -1    2.07    0.54
  -8   2   1    0.74    1.07
   8  -2  -1    0.75    0.95
   8  -2   0   -0.33    1.10
   8  -2   0    1.13    0.93
   8  -2   0    0.86    0.46
  -8   2   0    0.78    1.17
  -8   2   0    1.95    1.11
   8  -2   0    2.59    1.09
   8  -2   1   15.44    0.96
   8  -2   1   18.81    0.92
  -8   2  -1   21.19    2.12
  -8   2  -1   18.23    1.93
   8  -2   1   14.81    1.61
   8  -2   1   16.51    1.59
   8  -2   1   15.32    1.94
   8  -2   2   31.84    2.39
   8  -2   2   28.11    1.20
  -8   2  -2   29.87    2.41
  -8   2  -2   29.98    2.25
   8  -2   2   31.49    2.11
   8  -2   2   29.97    2.14
   8  -2   3   -0.48    1.16
   8  -2   3   -0.62    0.63
   8  -2   3    0.71    1.12
  -8   2  -3    2.67    1.23
  -8   2  -3    1.02    1.09
   8  -2   3    0.90    0.96
   8  -2   4   55.67    3.09
   8  -2   4   59.87    2.07
   8  -2   4   57.21    2.82
  -8   2  -4   56.65    3.08
  -8   2  -4   62.06    3.02
   8  -2   4   58.96    2.90
   8  -2   5    3.54    1.29
   8  -2   5    3.15    0.90
  -8   2  -5    3.36    1.20
   8  -2   5    1.97    1.17
  -8   2  -5    3.39    1.30
   8  -2   5    2.38    0.96
   8  -2   6   12.94    1.34
   8  -2   6    7.03    1.60
   8  -2   6    9.36    1.47
  -8   2  -6    9.44    1.60
   8  -2   6    8.99    1.53
  -8   2  -6    9.08    1.42
   8  -2   7    1.50    1.18
   8  -2   7    0.40    0.96
   8  -2   7    2.14    1.35
  -8   2  -7    0.06    1.04
   8  -2   7    1.08    1.17
  -8   2  -7    0.52    1.07
   8  -2   8   -1.81    1.20
   8  -2   8   -0.26    0.99
   8  -2   8    0.28    1.30
  -8   2  -8    0.35    1.20
   8  -2   8   -0.56    1.22
  -8   2  -8    0.47    1.04
   8  -2   9    7.90    1.66
   8  -2   9    7.67    1.43
   8  -2   9    9.45    1.65
  -8   2  -9    5.10    1.41
   8  -2   9   10.11    1.76
   8  -2  10    5.28    1.40
  -8   2 -10    7.00    1.58
   8  -2  10    5.32    1.44
   8  -2  11    0.10    1.31
   8  -2  11   -0.81    1.22
   8  -2  11   -0.77    1.44
   8  -2  12    3.66    1.67
   8  -2  12    0.92    1.46
   8  -2  12    2.16    1.54
   8  -2  13    2.97    1.72
   8  -2  13    1.59    1.63
   8  -1 -10    2.97    1.33
   8  -1 -10    7.89    1.80
   8  -1 -10    5.06    1.77
   8  -1  -9   77.43    3.42
   8  -1  -9   79.20    4.23
   8  -1  -9   70.71    4.22
   8  -1  -8   26.97    1.94
   8  -1  -8   26.69    2.52
   8  -1  -8   26.12    2.59
   8  -1  -8   27.95    2.16
   8  -1  -7    8.25    1.30
   8  -1  -7    9.68    1.76
   8  -1  -7    6.43    1.60
   8  -1  -7    5.87    1.30
   8  -1  -6   -0.07    0.75
   8  -1  -6    1.44    1.26
   8  -1  -6    2.69    1.48
   8  -1  -6    1.60    1.10
   8  -1  -5    2.94    0.71
   8  -1  -5    3.74    1.40
   8  -1  -5    5.13    1.48
   8  -1  -5    2.78    1.16
   8  -1  -4    0.47    0.52
   8  -1  -4    2.50    1.12
   8  -1  -4   -0.34    1.06
   8  -1  -4   -0.38    1.11
   8  -1  -3    7.50    0.65
   8  -1  -3    8.15    1.46
   8  -1  -3    7.99    1.35
   8  -1  -3    8.56    1.44
   8  -1  -2   -0.24    0.97
   8  -1  -2   -0.03    0.22
   8  -1  -2    0.97    1.05
   8  -1  -2   -1.25    1.19
   8  -1  -1    2.28    1.04
   8  -1  -1    1.43    1.08
  -8   1   1    2.33    1.23
   8  -1  -1    1.21    1.16
   8  -1   0    7.57    1.27
  -8   1   0    7.67    1.59
   8  -1   0    8.54    1.51
   8  -1   0    8.66    1.55
   8  -1   1    5.17    1.26
   8  -1   1    6.72    1.28
  -8   1  -1    4.71    1.36
  -8   1  -1    5.39    1.35
   8  -1   1    6.83    1.31
  -8   1  -2   41.63    2.72
  -8   1  -2   39.05    2.52
   8  -1   2   42.46    2.40
   8  -1   2   41.99    2.43
   8  -1   2   41.79    2.66
   8  -1   3   20.68    0.83
  -8   1  -3   17.56    1.78
   8  -1   3   21.22    1.88
   8  -1   3   22.16    1.86
   8  -1   3   22.10    2.03
   8  -1   4   17.84    1.93
   8  -1   4   19.12    1.83
   8  -1   4   20.88    1.08
  -8   1  -4   20.68    2.07
  -8   1  -4   20.49    1.91
   8  -1   4   21.27    1.89
   8  -1   5    0.23    1.22
   8  -1   5    0.75    0.65
   8  -1   5    0.52    0.97
  -8   1  -5    0.15    1.03
  -8   1  -5   -0.04    1.12
   8  -1   5   -0.05    1.05
   8  -1   6   -0.56    1.16
   8  -1   6   -0.41    0.74
  -8   1  -6   -0.14    1.02
   8  -1   6    2.82    1.29
  -8   1  -6    0.89    1.06
   8  -1   6   -0.68    1.09
   8  -1   7   16.18    1.95
   8  -1   7   13.20    1.42
   8  -1   7   13.19    1.62
  -8   1  -7   12.94    1.74
  -8   1  -7   11.76    1.69
   8  -1   7   11.27    1.60
   8  -1   8    1.82    1.20
   8  -1   8    0.75    1.02
   8  -1   8    5.80    1.37
  -8   1  -8    5.32    1.50
   8  -1   8    3.42    1.29
  -8   1  -8    2.33    1.21
  -8   1  -9    6.12    1.35
   8  -1   9    8.61    1.60
   8  -1   9    6.67    1.37
   8  -1   9    5.46    1.50
  -8   1  -9    7.64    1.52
   8  -1   9    6.33    1.51
   8  -1  10   13.60    1.86
   8  -1  10   18.13    2.09
  -8   1 -10   16.91    1.99
   8  -1  10   13.32    1.77
   8  -1  10   13.32    1.88
   8  -1  11    2.95    1.37
   8  -1  11    1.67    1.43
   8  -1  11    2.96    1.37
   8  -1  12    3.94    1.60
   8  -1  12    6.74    1.99
   8  -1  12    4.52    1.55
   8  -1  13   -1.91    1.57
   8  -1  13   -1.42    1.54
   8  -1  13    0.29    1.72
   8  -1  14    1.34    1.56
   8  -1  14    2.36    1.59
   8   0 -10    3.51    1.57
   8   0 -10    5.15    1.94
   8   0  -9   22.65    2.04
  -8   0   9   25.47    1.95
   8   0  -9   26.37    2.67
   8   0  -9   21.90    1.93
   8   0  -9   26.05    2.69
   8   0  -8   14.47    1.57
  -8   0   8   16.59    1.68
   8   0  -8   17.62    2.25
   8   0  -8   12.63    1.61
   8   0  -8   15.86    2.24
   8   0  -7   83.72    3.01
  -8   0   7   82.86    3.29
   8   0  -7   88.43    4.31
   8   0  -7   92.70    4.41
   8   0  -7   90.46    3.65
  -8   0   6    1.11    0.91
   8   0  -6    0.33    0.80
   8   0  -6   -0.05    1.20
   8   0  -6    1.58    1.35
   8   0  -6    0.89    1.02
  -8   0   5   10.57    1.41
   8   0  -5   12.14    1.79
   8   0  -5   13.64    1.82
   8   0  -5   11.76    1.68
  -8   0   4    4.87    1.15
   8   0  -4    5.71    1.44
   8   0  -4    3.52    1.31
   8   0  -4    4.54    1.30
  -8   0   3    4.57    1.20
   8   0  -3    5.82    1.35
   8   0  -3    4.40    1.38
   8   0  -3    3.87    1.25
  -8   0   2    0.76    0.96
   8   0  -2   -0.11    1.12
   8   0  -2    1.96    1.22
   8   0  -2    0.55    0.94
   8   0  -1   -1.25    1.10
  -8   0   1    0.85    0.98
  -8   0   1   -0.31    1.33
   8   0  -1   -0.46    1.08
   8   0  -1    0.19    1.07
  -8   0   0   10.73    1.61
   8   0   0   12.01    1.59
   8   0   0   12.13    1.68
   8   0   0   10.16    1.43
  -8   0  -1   24.05    2.12
   8   0   1   28.18    2.10
   8   0   1   30.91    2.21
   8   0   1   31.41    2.31
   8   0   2    0.16    1.07
   8   0   2    1.59    0.95
  -8   0  -2    1.26    1.07
  -8   0  -2    2.73    1.23
   8   0   2    1.09    1.00
   8   0   3    4.31    1.33
   8   0   3    5.49    1.27
  -8   0  -3    3.20    1.20
  -8   0  -3    4.52    1.24
   8   0   3    2.83    1.06
   8   0   4   27.28    0.88
  -8   0  -4   31.29    2.32
  -8   0  -4   28.82    2.17
   8   0   4   31.30    2.21
   8   0   4   32.32    2.40
   8   0   4   30.16    2.02
   8   0   5    7.04    0.79
   8   0   5    8.50    1.37
   8   0   5    5.88    1.46
  -8   0  -5    5.61    1.30
  -8   0  -5    6.12    1.41
   8   0   5    8.96    1.53
   8   0   6   12.94    1.85
   8   0   6   12.94    1.19
   8   0   6   11.88    1.50
  -8   0  -6   11.52    1.61
  -8   0  -6   11.60    1.70
   8   0   6   11.53    1.61
   8   0   7   15.03    1.83
   8   0   7   12.44    1.28
   8   0   7   15.17    1.67
  -8   0  -7   16.03    1.86
  -8   0  -7   16.24    1.90
   8   0   7   15.30    1.73
   8   0   8    3.40    1.07
   8   0   8    2.70    1.37
  -8   0  -8    7.27    1.48
   8   0   8    4.88    1.42
  -8   0  -8    2.78    1.23
   8   0   8    5.40    1.30
   8   0   9   25.58    2.32
   8   0   9   17.55    1.85
   8   0   9   22.86    2.14
  -8   0  -9   23.39    2.04
  -8   0  -9   20.93    2.11
   8   0   9   15.27    1.94
  -8   0 -10    3.81    1.36
   8   0  10    1.59    1.23
   8   0  10    2.61    1.39
   8   0  10    1.77    1.19
  -8   0 -10    1.58    1.15
   8   0  10    0.44    1.19
   8   0  11    1.52    1.37
   8   0  11   -1.49    1.33
   8   0  11    0.28    1.12
   8   0  12   16.76    2.09
   8   0  12   18.61    2.30
   8   0  12   17.35    2.02
   8   0  12   19.72    2.36
   8   0  13   13.54    2.30
   8   0  13   11.45    1.90
   8   0  13   14.73    2.22
   8   0  14   -1.77    1.49
   8   0  14   -0.41    1.40
  -8  -1  10    6.12    1.31
   8   1 -10    3.65    1.53
   8   1 -10    3.62    1.73
  -8  -1   9    0.72    0.93
   8   1  -9    0.98    1.52
   8   1  -9   -0.87    1.57
   8   1  -9    1.08    1.06
  -8  -1   8   26.60    2.08
   8   1  -8   29.48    2.75
   8   1  -8   25.85    2.17
   8   1  -8   26.11    2.65
  -8  -1   7   59.69    2.97
   8   1  -7   64.16    3.73
   8   1  -7   58.83    3.04
   8   1  -7   66.02    3.88
  -8  -1   6    6.64    1.35
   8   1  -6    8.03    1.83
   8   1  -6    5.48    1.49
   8   1  -6    4.09    1.18
  -8  -1   5    0.44    0.96
   8   1  -5    1.62    1.23
   8   1  -5   -0.63    1.18
  -8  -1   4   20.84    1.84
   8   1  -4   18.75    2.13
   8   1  -4   19.18    2.04
   8   1  -4   19.94    1.99
  -8  -1   3    1.03    0.95
   8   1  -3    1.13    1.08
   8   1  -3    1.83    1.11
   8   1  -3   -0.84    1.05
  -8  -1   2   -0.91    1.09
   8   1  -2   -0.46    1.07
   8   1  -2    0.81    1.16
   8   1  -2    2.05    1.18
  -8  -1   1    8.65    1.34
   8   1  -1    8.17    1.43
   8   1  -1    6.60    1.30
   8   1  -1   10.35    1.55
  -8  -1   0   47.99    2.58
  -8  -1   0   41.78    2.78
   8   1   0   48.25    2.66
   8   1   0   45.52    2.68
   8   1   0   44.42    2.65
   8   1   1   -0.55    1.11
  -8  -1  -1   -1.69    1.05
  -8  -1  -1   -2.00    1.30
   8   1   1   -0.01    1.00
   8   1   1   -1.07    1.02
   8   1   2    3.42    1.19
   8   1   2    3.33    1.18
  -8  -1  -2    6.27    1.32
  -8  -1  -2    6.30    1.49
  -8  -1  -2    3.17    1.32
   8   1   2    6.03    1.33
  -8  -1  -3   42.48    2.62
  -8  -1  -3   40.54    2.54
   8   1   3   42.94    2.46
   8   1   3   40.27    2.31
   8   1   3   43.83    2.73
  -8  -1  -4   11.22    1.66
  -8  -1  -4    9.58    1.44
   8   1   4    9.76    1.44
   8   1   4   10.77    1.37
   8   1   4   10.01    1.47
   8   1   5    9.35    1.30
  -8  -1  -5    6.44    1.28
  -8  -1  -5    9.26    1.40
   8   1   5    8.70    1.52
   8   1   5    8.47    1.44
   8   1   6   32.68    1.57
   8   1   6   35.34    2.23
  -8  -1  -6   37.79    2.47
  -8  -1  -6   30.71    2.22
   8   1   6   33.52    2.30
   8   1   6   32.20    2.27
   8   1   7    0.46    1.16
   8   1   7    0.37    0.81
   8   1   7   -0.30    1.08
  -8  -1  -7    0.17    1.11
  -8  -1  -7   -0.74    1.00
   8   1   7    0.88    1.08
   8   1   8    5.78    1.45
   8   1   8    6.25    1.23
   8   1   8    6.73    1.35
  -8  -1  -8    8.61    1.73
  -8  -1  -8    6.59    1.39
   8   1   8    3.94    1.22
   8   1   9    1.42    1.20
   8   1   9    0.90    1.20
   8   1   9    1.30    1.15
  -8  -1  -9    2.35    1.30
   8   1   9    0.10    1.17
  -8  -1  -9    1.88    1.04
   8   1  10   26.82    2.36
   8   1  10   21.78    2.17
   8   1  10   22.84    2.04
  -8  -1 -10   24.83    2.15
  -8  -1 -10   25.96    2.28
   8   1  10   27.35    2.42
  -8  -1 -11   -1.17    1.16
   8   1  11    0.07    1.39
   8   1  11   -0.97    1.25
   8   1  11    0.97    1.11
  -8  -1 -11    0.15    1.08
   8   1  11   -0.54    1.19
   8   1  12   22.84    2.26
   8   1  12   21.55    2.55
   8   1  12   24.44    2.23
   8   1  12   23.07    2.50
   8   1  13   -0.03    1.48
   8   1  13    1.93    1.35
   8   1  13    1.11    1.27
   8   1  13    0.70    1.28
   8   1  14   -0.20    1.47
   8   1  14    1.63    1.96
   8   1  14   -0.41    1.48
   8   1  15    2.77    1.71
   8   1  15    0.18    1.38
  -8  -2   9    2.30    1.19
   8   2  -9    2.14    1.49
   8   2  -9    1.24    1.18
   8   2  -9    3.16    1.81
  -8  -2   8    1.32    1.16
   8   2  -8    1.05    1.47
   8   2  -8   -1.45    1.42
   8   2  -8    3.83    1.32
  -8  -2   7    8.22    1.47
   8   2  -7    8.60    1.71
   8   2  -7    8.69    2.00
   8   2  -7    8.67    1.52
  -8  -2   6   14.43    1.72
   8   2  -6   13.78    2.00
   8   2  -6   15.29    1.83
   8   2  -6   16.15    2.24
  -8  -2   5    3.30    1.19
   8   2  -5    1.23    1.49
   8   2  -5    2.82    1.45
   8   2  -5    5.07    1.32
  -8  -2   4    9.42    1.48
   8   2  -4   10.25    1.77
   8   2  -4   12.29    1.83
   8   2  -4   10.98    1.65
  -8  -2   3   -0.20    1.11
   8   2  -3    2.89    1.45
   8   2  -3    0.78    1.16
   8   2  -3    3.15    1.29
  -8  -2   2   22.17    1.98
   8   2  -2   25.54    2.26
   8   2  -2   23.60    2.10
   8   2  -2   22.63    2.10
  -8  -2   1   38.92    2.40
   8   2  -1   37.61    2.46
   8   2  -1   40.05    2.55
   8   2  -1   40.50    2.63
  -8  -2   0    3.72    1.17
  -8  -2   0    6.67    1.35
   8   2   0    5.47    1.17
   8   2   0    4.87    1.29
   8   2   0    5.93    1.28
  -8  -2  -1   23.06    1.95
  -8  -2  -1   19.19    2.05
   8   2   1   17.37    1.68
   8   2   1   20.74    1.97
   8   2   1   24.61    2.10
  -8  -2  -2   18.91    1.73
  -8  -2  -2   20.87    1.96
   8   2   2   21.94    1.92
   8   2   2   19.63    1.80
   8   2   2   18.99    1.95
  -8  -2  -3    6.43    1.28
  -8  -2  -3    7.35    1.43
  -8  -2  -3    8.08    1.49
   8   2   3    7.09    1.28
   8   2   3    7.28    1.28
   8   2   3    8.08    1.53
   8   2   4    4.71    1.21
   8   2   4    5.29    1.14
  -8  -2  -4    7.04    1.34
  -8  -2  -4    5.91    1.39
  -8  -2  -4    5.62    1.27
   8   2   4    5.90    1.31
  -8  -2  -5   68.82    3.00
  -8  -2  -5   69.06    3.22
  -8  -2  -5   63.71    3.08
   8   2   5   63.08    2.95
   8   2   5   60.10    3.10
   8   2   5   59.55    2.66
   8   2   6   -1.27    1.28
   8   2   6    1.69    1.04
  -8  -2  -6    0.10    1.03
  -8  -2  -6    3.28    1.24
   8   2   6   -0.25    1.20
   8   2   7   -0.81    0.98
   8   2   7   -0.53    1.06
  -8  -2  -7   -1.23    1.13
  -8  -2  -7   -0.49    1.07
   8   2   7   -0.32    1.12
   8   2   8    6.63    1.40
   8   2   8    5.01    1.14
  -8  -2  -8    5.05    1.38
  -8  -2  -8    7.16    1.28
   8   2   8    5.43    1.36
   8   2   9   26.33    2.11
   8   2   9   26.98    1.99
  -8  -2  -9   28.34    2.22
  -8  -2  -9   26.79    2.30
   8   2   9   26.89    2.35
   8   2   9   28.09    2.24
   8   2  10    1.27    1.16
   8   2  10   -0.24    1.08
   8   2  10    0.58    1.22
  -8  -2 -10    0.74    1.16
  -8  -2 -10    0.70    1.08
   8   2  10   -1.06    1.21
   8   2  11   12.56    1.86
  -8  -2 -11   16.23    1.86
  -8  -2 -11   14.82    1.75
   8   2  11   16.22    1.82
  -8  -2 -11   14.21    1.87
   8   2  11   15.32    1.99
   8   2  11   16.28    1.89
   8   2  12    8.88    2.06
   8   2  12    6.44    1.53
  -8  -2 -12    7.12    1.53
   8   2  12    7.78    1.41
  -8  -2 -12    8.36    1.55
   8   2  12    9.42    1.79
   8   2  13   -1.39    1.19
   8   2  13   -0.73    1.73
  -8  -2 -13    1.29    1.38
   8   2  13    0.42    1.19
   8   2  13    0.79    1.26
   8   2  14    0.95    1.32
   8   2  14    0.61    1.34
   8   2  14    1.30    1.32
   8   2  14   -0.11    1.60
  -8  -2 -14    1.01    1.43
   8   2  15    1.41    1.49
   8   2  15    0.42    1.30
  -8  -3   9   -0.06    1.24
   8   3  -9    4.09    1.87
   8   3  -9    0.17    1.28
   8   3  -9    2.36    1.73
  -8  -3   8    2.13    1.34
  -8  -3   8   -0.33    1.30
   8   3  -8   -0.82    1.38
   8   3  -8   -0.74    1.14
   8   3  -8   -1.58    1.64
  -8  -3   7   18.76    1.97
  -8  -3   7   15.61    1.89
   8   3  -7   19.30    2.50
   8   3  -7   16.51    1.89
   8   3  -7   20.35    2.48
  -8  -3   6   13.43    1.54
   8   3  -6   17.67    2.31
   8   3  -6   16.18    1.88
   8   3  -6   15.37    2.16
  -8  -3   6   18.75    2.07
  -8  -3   5    6.96    1.19
  -8  -3   5    8.11    1.56
   8   3  -5    8.42    1.84
   8   3  -5    6.18    1.67
   8   3  -5    8.37    1.54
  -8  -3   4    0.36    0.75
  -8  -3   4   -0.42    1.09
   8   3  -4   -1.33    1.48
   8   3  -4    0.81    1.31
   8   3  -4    2.37    1.30
  -8  -3   3    6.36    1.47
   8   3  -3    5.79    1.47
   8   3  -3    5.44    1.53
   8   3  -3    3.06    1.28
  -8  -3   2   24.70    2.13
   8   3  -2   21.86    2.21
   8   3  -2   23.29    2.20
   8   3  -2   28.32    2.27
  -8  -3   1    0.74    0.99
   8   3  -1    2.86    1.42
   8   3  -1    0.86    1.07
   8   3  -1   -1.43    1.25
  -8  -3   0    0.97    1.09
  -8  -3   0    0.86    1.20
   8   3   0    1.57    1.21
   8   3   0    0.49    1.06
   8   3   0    0.33    1.01
  -8  -3  -1   16.67    1.73
   8   3   1   19.73    1.82
  -8  -3  -1   20.33    2.09
   8   3   1   21.43    2.09
   8   3   1   19.67    1.97
  -8  -3  -2   11.23    1.57
  -8  -3  -2   10.08    1.60
   8   3   2   10.40    1.51
   8   3   2   10.54    1.51
   8   3   2   14.36    1.80
  -8  -3  -3   22.13    1.91
  -8  -3  -3   28.23    2.26
   8   3   3   25.12    1.93
   8   3   3   23.78    1.97
   8   3   3   29.16    2.26
   8   3   4    0.26    1.02
   8   3   4    0.39    0.98
  -8  -3  -4    0.85    1.00
  -8  -3  -4   -0.52    1.04
  -8  -3  -4   -1.54    1.26
   8   3   4   -0.28    1.13
  -8  -3  -5   38.83    2.38
  -8  -3  -5   33.54    2.32
  -8  -3  -5   36.73    2.45
   8   3   5   29.16    2.12
   8   3   5   35.32    2.20
   8   3   5   32.51    2.31
   8   3   6    4.01    1.22
   8   3   6    3.97    1.16
  -8  -3  -6    4.75    1.20
  -8  -3  -6    2.15    1.12
  -8  -3  -6    3.32    1.12
   8   3   6    1.60    1.06
   8   3   7   22.60    1.88
  -8  -3  -7   18.71    1.19
  -8  -3  -7   23.93    2.01
  -8  -3  -7   23.21    2.10
   8   3   7   23.58    2.03
   8   3   7   20.02    1.90
  -8  -3  -8   23.15    1.51
   8   3   8   23.54    1.83
  -8  -3  -8   23.80    1.93
  -8  -3  -8   24.12    2.16
   8   3   8   24.86    2.25
   8   3   8   23.47    2.05
  -8  -3  -9   13.93    1.35
   8   3   9   14.45    1.59
  -8  -3  -9   14.79    1.70
  -8  -3  -9   16.93    1.92
   8   3   9   13.46    1.76
   8   3   9   16.30    1.85
   8   3  10    4.98    1.25
   8   3  10    4.30    1.29
  -8  -3 -10    4.92    1.13
  -8  -3 -10    3.48    1.30
  -8  -3 -10    2.74    1.16
   8   3  10    4.49    1.59
  -8  -3 -11   30.45    2.23
   8   3  11   28.30    2.19
  -8  -3 -11   27.78    2.24
  -8  -3 -11   24.89    2.18
   8   3  11   29.57    2.48
   8   3  11   29.01    2.37
   8   3  12    7.17    1.50
  -8  -3 -12   10.03    1.62
   8   3  12    8.07    1.54
   8   3  12    9.13    1.96
  -8  -3 -12    7.60    1.44
   8   3  13    2.88    1.21
   8   3  13    2.99    1.22
   8   3  13    4.33    1.70
  -8  -3 -13    4.23    1.36
   8   3  14    6.74    1.86
   8   3  14    4.95    1.37
   8   3  14    3.27    1.45
  -8  -3 -14    3.01    1.60
   8   3  15    3.54    1.85
   8   3  15    1.99    1.24
  -8  -3 -15    0.44    1.52
   8   3  15    2.94    1.46
  -8  -3 -16    0.01    1.58
   8   3  16   -0.23    1.33
  -8  -4   9    7.05    1.74
  -8  -4   8    3.27    1.51
  -8  -4   8    2.44    1.66
   8   4  -8    0.77    1.23
   8   4  -8    1.92    1.66
  -8  -4   7    8.22    1.62
  -8  -4   7    6.19    1.46
   8   4  -7   11.03    1.83
   8   4  -7   12.21    2.17
  -8  -4   6   26.34    2.12
   8   4  -6   30.99    2.90
   8   4  -6   25.69    2.27
   8   4  -6   32.49    2.90
  -8  -4   6   25.85    2.38
  -8  -4   5    7.46    1.55
  -8  -4   5    5.55    1.12
   8   4  -5    5.99    1.68
   8   4  -5    7.25    1.58
   8   4  -5    5.69    1.69
  -8  -4   4   24.62    1.66
   8   4  -4   25.95    2.48
   8   4  -4   27.64    2.34
   8   4  -4   28.98    2.60
  -8  -4   4   29.68    2.38
  -8  -4   3    7.51    0.95
  -8  -4   3    8.54    1.55
   8   4  -3   11.37    1.84
   8   4  -3    9.72    1.64
   8   4  -3    9.70    1.76
  -8  -4   2    5.35    0.70
  -8  -4   2    7.16    1.47
   8   4  -2    8.66    1.75
   8   4  -2    7.33    1.54
   8   4  -2    5.19    1.34
  -8  -4   1    9.70    0.58
  -8  -4   1    7.65    1.45
   8   4  -1   14.47    1.86
   8   4  -1   12.27    1.75
   8   4  -1   13.68    1.72
  -8  -4   0    2.99    1.35
  -8  -4   0   -0.36    1.17
   8   4   0    2.34    1.28
   8   4   0    3.44    1.39
   8   4   0    0.87    1.03
  -8  -4  -1   23.11    2.17
   8   4   1   25.33    2.14
  -8  -4  -1   22.51    2.17
   8   4   1   24.36    2.19
   8   4   1   24.07    2.15
  -8  -4  -2   62.98    3.22
   8   4   2   68.00    3.07
  -8  -4  -2   64.02    3.23
   8   4   2   70.72    3.21
   8   4   2   64.25    3.14
  -8  -4  -3   28.74    2.16
  -8  -4  -3   32.61    2.37
   8   4   3   36.74    2.31
   8   4   3   33.32    2.33
   8   4   3   37.21    2.50
  -8  -4  -4   57.97    2.94
  -8  -4  -4   51.49    2.85
   8   4   4   52.23    2.64
   8   4   4   54.98    2.76
   8   4   4   53.33    2.93
  -8  -4  -5   12.06    1.57
  -8  -4  -5   10.99    0.65
  -8  -4  -5   10.35    1.52
  -8  -4  -5   12.85    1.62
   8   4   5   14.53    1.64
   8   4   5   13.11    1.56
   8   4   5   14.67    1.79
  -8  -4  -6  100.57    2.23
  -8  -4  -6  101.60    3.69
  -8  -4  -6   99.81    3.76
  -8  -4  -6  108.24    3.91
   8   4   6  100.23    3.72
   8   4   6   98.31    3.85
   8   4   6  103.51    3.43
   8   4   7   42.64    2.27
  -8  -4  -7   42.53    1.77
  -8  -4  -7   38.41    2.38
  -8  -4  -7   41.94    2.56
  -8  -4  -7   42.06    2.60
   8   4   7   41.41    2.52
   8   4   7   40.58    2.60
  -8  -4  -8   24.59    1.61
   8   4   8   29.64    1.98
  -8  -4  -8   24.08    1.96
  -8  -4  -8   28.40    2.20
  -8  -4  -8   23.82    2.20
   8   4   8   27.14    2.21
   8   4   8   29.97    2.30
  -8  -4  -9   23.98    1.70
   8   4   9   21.21    1.77
  -8  -4  -9   21.38    1.91
  -8  -4  -9   23.71    2.28
   8   4   9   25.04    2.16
   8   4   9   19.91    1.92
  -8  -4 -10   41.79    2.35
   8   4  10   41.44    2.38
  -8  -4 -10   37.44    2.39
  -8  -4 -10   37.64    2.69
   8   4  10   38.14    2.54
   8   4  10   39.31    2.75
   8   4  11    3.38    1.19
   8   4  11    4.95    1.30
  -8  -4 -11    5.81    1.32
  -8  -4 -11    6.57    1.53
  -8  -4 -11    4.21    1.34
   8   4  11    4.34    1.50
   8   4  12    3.03    1.34
  -8  -4 -12    4.67    1.34
   8   4  12    3.41    1.22
  -8  -4 -12    4.32    1.48
  -8  -4 -12    4.35    1.23
   8   4  12    4.45    1.48
   8   4  13   -1.21    1.34
  -8  -4 -13    0.54    1.19
   8   4  13    1.68    1.09
  -8  -4 -13    0.18    1.19
   8   4  13    0.70    1.40
   8   4  14   11.47    1.77
  -8  -4 -14    5.69    1.61
   8   4  14    9.20    1.65
  -8  -4 -14    9.65    1.55
   8   4  14    9.96    1.99
   8   4  15    9.06    2.13
   8   4  15    1.95    1.14
   8   4  15    6.27    1.50
  -8  -4 -15    4.58    1.71
   8   4  16    0.01    1.62
  -8  -4 -16    0.58    1.60
   8   4  16    2.67    1.54
  -8  -5   8    1.77    1.43
   8   5  -8    0.57    1.72
  -8  -5   7    2.18    1.30
  -8  -5   7    5.56    1.42
   8   5  -7    3.88    1.47
   8   5  -7    6.99    2.01
  -8  -5   6   44.63    2.65
   8   5  -6   50.96    3.18
   8   5  -6   50.23    3.48
  -8  -5   6   49.42    3.15
  -8  -5   5    0.06    1.28
  -8  -5   5    1.89    1.08
   8   5  -5    2.06    1.41
   8   5  -5    1.70    1.30
   8   5  -5    3.87    1.44
  -8  -5   4    5.05    1.52
  -8  -5   4    2.60    0.92
   8   5  -4    5.08    1.66
   8   5  -4    1.75    1.41
   8   5  -4    5.45    1.56
  -8  -5   3    2.69    1.36
  -8  -5   3    1.61    0.79
   8   5  -3    2.76    1.44
   8   5  -3    2.71    1.43
   8   5  -3    1.63    1.11
  -8  -5   2    0.59    1.18
  -8  -5   2   -0.69    0.63
   8   5  -2   -1.38    1.30
   8   5  -2    0.92    1.17
   8   5  -2    2.98    1.37
  -8  -5   1   35.20    1.39
   8   5  -1   37.64    2.73
   8   5  -1   33.79    2.51
   8   5  -1   34.21    2.56
  -8  -5   1   38.33    2.73
  -8  -5   0    3.31    1.40
  -8  -5   0    0.77    0.43
   8   5   0    0.11    1.21
   8   5   0   -0.06    1.17
   8   5   0    3.21    1.33
  -8  -5  -1    4.48    0.47
  -8  -5  -1    5.10    1.36
  -8  -5  -1    5.74    1.49
   8   5   1    3.83    1.23
   8   5   1    6.55    1.53
   8   5   1    5.54    1.32
  -8  -5  -2   30.25    1.04
  -8  -5  -2   32.60    0.89
   8   5   2   34.31    2.26
  -8  -5  -2   34.62    2.56
   8   5   2   33.80    2.38
   8   5   2   38.00    2.64
  -8  -5  -2   30.67    2.43
  -8  -5  -3    1.60    1.18
  -8  -5  -3   -0.09    0.36
  -8  -5  -3    2.08    1.31
   8   5   3   -0.56    1.12
   8   5   3    0.57    1.14
   8   5   3    1.75    1.13
  -8  -5  -4    4.77    0.57
  -8  -5  -4    6.28    1.38
  -8  -5  -4    6.32    1.44
   8   5   4    4.51    1.22
   8   5   4    5.43    1.41
   8   5   4    6.81    1.27
   8   5   5   -0.16    0.94
  -8  -5  -5    1.09    0.99
  -8  -5  -5    0.53    0.57
  -8  -5  -5   -0.50    1.21
   8   5   5    0.40    0.95
   8   5   5    1.76    1.11
  -8  -5  -6   42.57    2.59
  -8  -5  -6   39.38    1.65
  -8  -5  -6   41.83    2.52
  -8  -5  -6   40.47    2.57
   8   5   6   36.15    2.53
   8   5   6   41.39    2.53
   8   5   6   39.23    2.20
  -8  -5  -7   -0.86    0.80
  -8  -5  -7   -0.75    0.99
   8   5   7    0.41    0.89
  -8  -5  -7   -0.17    0.98
  -8  -5  -7   -0.50    0.98
   8   5   7    0.83    1.13
   8   5   7    1.21    1.23
   8   5   8  116.95    3.64
  -8  -5  -8  113.90    3.26
  -8  -5  -8  111.82    3.93
  -8  -5  -8  118.84    4.06
  -8  -5  -8  118.88    4.19
   8   5   8  111.11    4.17
   8   5   8  112.58    4.06
  -8  -5  -9   25.88    1.81
   8   5   9   21.36    1.75
  -8  -5  -9   23.58    1.96
  -8  -5  -9   20.29    1.95
  -8  -5  -9   22.40    2.03
   8   5   9   28.07    2.18
   8   5   9   24.52    2.11
  -8  -5 -10   -1.10    1.00
  -8  -5 -10    1.13    1.08
  -8  -5 -10   -0.62    1.17
   8   5  10   -1.75    1.07
   8   5  10    0.97    1.13
   8   5  10    0.37    1.03
   8   5  11    0.64    1.02
  -8  -5 -11   -1.13    1.03
  -8  -5 -11   -0.69    1.15
  -8  -5 -11    0.07    0.96
   8   5  11    1.38    1.35
   8   5  11   -1.76    1.23
  -8  -5 -12   10.44    1.61
  -8  -5 -12    9.02    1.54
   8   5  12    8.18    1.40
  -8  -5 -12   10.93    1.79
   8   5  12    7.21    1.74
   8   5  12    6.13    1.48
  -8  -5 -13   -2.13    1.33
   8   5  13    0.51    1.07
  -8  -5 -13    1.74    1.25
   8   5  13    1.05    1.12
   8   5  13    0.10    1.37
  -8  -5 -14    8.93    1.98
  -8  -5 -14    4.42    1.34
   8   5  14    8.39    1.47
   8   5  14   10.28    1.73
   8   5  14    9.65    2.00
   8   5  15    2.80    1.85
   8   5  15    0.42    1.24
  -8  -5 -15    2.50    1.65
  -8  -5 -15    2.23    1.36
   8   5  15    1.31    1.20
   8   5  16    4.86    1.93
  -8  -5 -16    3.14    1.76
   8   5  16    8.34    1.77
  -8  -6   8   -0.29    1.59
   8   6  -8    0.63    1.70
  -8  -6   7   -1.81    1.46
  -8  -6   7    1.25    1.34
   8   6  -7   -1.38    1.62
  -8  -6   6   23.76    2.18
   8   6  -6   22.32    2.81
  -8  -6   6   27.02    2.68
  -8  -6   5   29.53    2.16
   8   6  -5   23.26    2.34
   8   6  -5   29.87    2.88
  -8  -6   5   30.79    2.70
  -8  -6   4    0.19    1.23
  -8  -6   4    0.59    0.90
   8   6  -4   -0.42    1.36
   8   6  -4    2.29    1.45
   8   6  -4    2.05    1.50
  -8  -6   3   -1.68    1.43
  -8  -6   3    0.80    0.83
   8   6  -3    0.42    1.40
   8   6  -3    0.71    1.23
   8   6  -3    0.32    1.25
  -8  -6   2    2.22    1.40
  -8  -6   2    0.48    0.72
   8   6  -2   -0.49    1.44
   8   6  -2    2.52    1.25
   8   6  -2    1.89    1.20
  -8  -6   1    6.44    1.52
  -8  -6   1    7.70    0.94
   8   6  -1    8.12    1.60
   8   6  -1    7.15    1.66
   8   6  -1    7.20    1.42
  -8  -6   0    6.19    1.63
  -8  -6   0    7.07    0.91
   8   6   0    6.25    1.51
   8   6   0    4.47    1.38
   8   6   0    5.92    1.35
  -8  -6  -1    7.68    0.90
   8   6   1    6.31    1.45
   8   6   1    7.66    1.57
   8   6   1    8.21    1.49
  -8  -6  -1    7.99    1.58
   8   6   2   14.31    1.68
  -8  -6  -2   14.88    1.90
   8   6   2   13.62    1.78
   8   6   2   13.13    1.68
  -8  -6  -2   13.27    1.80
   8   6   3   70.69    3.09
  -8  -6  -3   74.29    3.54
   8   6   3   70.96    3.43
   8   6   3   71.97    3.18
  -8  -6  -3   72.46    3.44
  -8  -6  -4   -0.54    1.02
  -8  -6  -4    0.90    0.80
  -8  -6  -4   -0.36    1.20
   8   6   4   -0.66    1.08
   8   6   4    2.26    1.39
   8   6   4   -0.15    0.94
  -8  -6  -5   13.86    1.79
  -8  -6  -5   13.44    1.20
  -8  -6  -5   15.15    1.74
   8   6   5   12.06    1.46
   8   6   5   15.09    1.91
   8   6   5   14.87    1.68
   8   6   6    3.76    1.05
  -8  -6  -6    4.24    0.95
  -8  -6  -6    4.02    1.21
  -8  -6  -6    3.10    1.31
   8   6   6    6.37    1.37
   8   6   6    3.79    1.23
  -8  -6  -7   -0.48    0.88
  -8  -6  -7    2.31    1.22
   8   6   7    0.26    0.82
  -8  -6  -7    0.33    1.09
   8   6   7   -0.10    1.01
   8   6   7   -0.19    1.11
   8   6   8   94.57    3.20
  -8  -6  -8   92.56    3.17
  -8  -6  -8   89.30    3.60
  -8  -6  -8   88.22    3.56
  -8  -6  -8   86.87    3.66
   8   6   8   93.73    3.84
   8   6   8   90.67    3.64
  -8  -6  -9   49.30    2.58
  -8  -6  -9   57.21    2.86
   8   6   9   55.57    2.57
  -8  -6  -9   45.68    2.63
  -8  -6  -9   49.87    2.87
   8   6   9   47.24    2.85
   8   6   9   52.79    2.96
  -8  -6 -10    1.39    1.12
  -8  -6 -10    1.04    1.01
  -8  -6 -10   -0.36    0.98
  -8  -6 -10   -0.45    1.17
   8   6  10    0.61    0.95
   8   6  10    0.18    1.19
   8   6  10    1.18    1.19
  -8  -6 -11   15.68    1.85
   8   6  11   16.43    1.65
  -8  -6 -11   17.51    1.88
  -8  -6 -11   15.34    1.90
   8   6  11   19.36    2.01
   8   6  11   14.90    1.81
   8   6  12    1.46    1.02
  -8  -6 -12    1.80    1.22
  -8  -6 -12    2.53    1.15
  -8  -6 -12    2.21    1.22
   8   6  12    0.90    1.14
   8   6  12    1.21    1.36
  -8  -6 -13   11.94    1.99
  -8  -6 -13    9.96    1.44
   8   6  13   13.58    1.79
   8   6  13   14.52    1.57
   8   6  13   12.56    1.97
  -8  -6 -14   18.65    2.34
  -8  -6 -14   15.99    1.81
   8   6  14   17.99    1.96
   8   6  14   18.65    2.38
   8   6  14   20.38    1.94
   8   6  15    3.01    1.73
   8   6  15    0.42    1.14
  -8  -6 -15    1.08    1.61
  -8  -6 -15    1.58    1.09
   8   6  15    2.54    1.26
   8   6  16   -0.21    1.49
  -8  -6 -16    0.21    1.73
   8   6  16    1.12    1.21
  -8  -7   7    2.11    1.73
   8   7  -7    1.16    1.66
  -8  -7   6    9.61    1.93
  -8  -7   6    3.08    1.41
   8   7  -6    6.46    1.90
  -8  -7   5   64.81    3.20
   8   7  -5   68.38    3.95
  -8  -7   5   71.52    4.04
  -8  -7   4    3.69    1.60
  -8  -7   4   -1.27    1.12
   8   7  -4    2.01    1.33
  -8  -7   3    7.24    1.66
  -8  -7   3    7.06    1.27
   8   7  -3    7.33    1.78
   8   7  -3    5.59    1.47
   8   7  -3    6.14    1.65
  -8  -7   2    6.35    1.71
  -8  -7   2    6.39    1.13
   8   7  -2    7.84    1.89
   8   7  -2    3.13    1.29
   8   7  -2    5.91    1.51
  -8  -7   1    6.16    1.63
  -8  -7   1    5.48    1.03
   8   7  -1    8.04    1.70
   8   7  -1    5.19    1.34
   8   7  -1    5.13    1.54
  -8  -7   0    5.26    1.56
  -8  -7   0    3.21    0.86
   8   7   0    2.54    1.23
   8   7   0    7.24    1.66
   8   7   0    3.44    1.26
   8   7   1   15.93    1.90
   8   7   1   15.62    1.98
   8   7   1   12.99    1.78
  -8  -7  -1   15.37    1.95
  -8  -7  -2    4.05    1.48
  -8  -7  -2    5.87    1.44
   8   7   2    3.34    1.20
   8   7   2    3.53    1.44
   8   7   2    1.17    1.10
  -8  -7  -3    4.35    1.52
  -8  -7  -3    2.28    1.27
   8   7   3    7.31    1.43
   8   7   3    4.58    1.36
   8   7   3    5.19    1.32
  -8  -7  -4    1.53    1.13
  -8  -7  -4    0.80    1.12
   8   7   4    0.78    1.15
   8   7   4    0.60    0.97
   8   7   4    0.19    0.98
  -8  -7  -5    5.21    1.37
  -8  -7  -5    6.83    1.30
  -8  -7  -5    7.09    1.45
   8   7   5    4.30    1.25
   8   7   5    4.27    1.27
   8   7   5    7.10    1.26
   8   7   6    2.85    0.96
  -8  -7  -6    4.62    1.41
  -8  -7  -6    5.16    1.22
  -8  -7  -6    3.38    1.17
   8   7   6    6.36    1.57
   8   7   6    2.67    1.15
  -8  -7  -7   42.57    2.76
  -8  -7  -7   38.26    2.33
  -8  -7  -7   42.05    2.68
   8   7   7   37.15    2.60
   8   7   7   38.12    2.53
   8   7   7   39.23    2.16
  -8  -7  -8   -0.76    1.18
  -8  -7  -8   -0.05    1.17
   8   7   8    0.39    0.90
  -8  -7  -8    2.77    1.21
   8   7   8    0.71    1.18
   8   7   8    1.15    1.05
  -8  -7  -9   12.80    1.69
  -8  -7  -9   14.57    1.70
   8   7   9   14.41    1.42
  -8  -7  -9   12.51    1.59
  -8  -7  -9   12.78    1.72
   8   7   9   13.71    1.77
   8   7   9   14.00    1.80
  -8  -7 -10    1.18    1.31
  -8  -7 -10    1.82    0.98
  -8  -7 -10    0.37    1.15
  -8  -7 -10    1.70    1.17
   8   7  10    1.05    0.94
   8   7  10    0.60    1.16
   8   7  10   -1.06    1.18
   8   7  11    3.61    1.00
  -8  -7 -11    5.57    1.49
  -8  -7 -11    4.00    1.13
  -8  -7 -11    2.87    1.14
  -8  -7 -11    5.14    1.56
   8   7  11    3.65    1.26
   8   7  11    3.38    1.38
   8   7  12    3.19    1.02
  -8  -7 -12    5.32    1.59
  -8  -7 -12    5.24    1.37
  -8  -7 -12    3.46    1.37
   8   7  12    4.21    1.22
   8   7  12    3.76    1.37
  -8  -7 -13    1.89    1.50
   8   7  13    1.94    1.02
  -8  -7 -13    3.45    1.15
   8   7  13    1.40    1.16
   8   7  13    3.07    1.36
  -8  -7 -14    9.39    1.82
  -8  -7 -14    8.57    1.59
   8   7  14    8.75    1.53
   8   7  14   10.55    1.45
   8   7  14    8.32    1.76
   8   7  15   12.73    1.72
  -8  -7 -15    9.38    2.02
  -8  -7 -15    8.98    1.62
   8   7  15    9.08    1.64
   8   7  15   12.67    2.13
  -8  -8   6   -0.93    1.64
   8   8  -6    0.14    1.52
  -8  -8   5    4.62    1.79
  -8  -8   5    1.73    1.33
   8   8  -5    7.07    1.84
  -8  -8   4   68.31    3.27
   8   8  -4   72.80    3.98
  -8  -8   4   73.77    4.13
  -8  -8   3   12.58    2.11
  -8  -8   3   10.39    1.54
   8   8  -3    9.72    1.89
  -8  -8   2    3.50    1.67
  -8  -8   2   -0.13    1.03
   8   8  -2    4.15    1.64
   8   8  -2    3.77    1.56
  -8  -8   1    6.01    1.80
  -8  -8   1    6.54    1.24
   8   8  -1    6.26    1.72
   8   8  -1    5.23    1.54
  -8  -8   0    7.29    1.78
  -8  -8   0    5.05    1.14
   8   8   0    5.75    1.61
   8   8   0    5.41    1.48
   8   8   0    5.89    1.47
  -8  -8  -1   -1.26    1.26
   8   8   1    0.17    1.24
   8   8   1    1.11    1.11
   8   8   1   -0.24    1.04
   8   8   2   11.64    1.58
   8   8   2   13.99    1.90
   8   8   2   12.59    1.77
  -8  -8  -2   11.31    1.83
  -8  -8  -3   -0.08    1.11
  -8  -8  -3    0.25    1.13
   8   8   3   -1.64    1.28
   8   8   3   -0.75    1.09
   8   8   3    0.13    1.05
  -8  -8  -4    3.25    1.25
  -8  -8  -4    0.92    1.28
   8   8   4    1.40    1.18
   8   8   4    1.10    1.16
   8   8   4    2.66    1.07
  -8  -8  -5   11.79    1.59
   8   8   5   14.27    1.87
   8   8   5   12.66    1.51
   8   8   5   13.27    1.59
  -8  -8  -5   15.16    1.92
  -8  -8  -6   37.57    2.52
  -8  -8  -6   37.04    2.53
   8   8   6   36.27    2.59
   8   8   6   34.45    2.10
   8   8   6   34.30    2.40
  -8  -8  -6   32.75    2.51
  -8  -8  -7   25.73    2.20
  -8  -8  -7   25.52    2.18
   8   8   7   24.01    2.21
   8   8   7   27.75    2.13
   8   8   7   31.43    1.93
  -8  -8  -7   27.40    2.45
  -8  -8  -8    0.93    1.20
  -8  -8  -8    1.57    1.21
   8   8   8    1.90    0.82
  -8  -8  -8    3.38    1.22
   8   8   8   -0.42    1.11
   8   8   8   -0.13    1.13
  -8  -8  -9   43.15    2.77
  -8  -8  -9   45.14    2.89
   8   8   9   44.14    2.21
  -8  -8  -9   43.08    2.73
   8   8   9   42.06    2.79
   8   8   9   43.80    2.71
  -8  -8 -10    9.20    1.49
  -8  -8 -10    7.70    1.70
   8   8  10    8.76    1.22
  -8  -8 -10    7.94    1.62
   8   8  10   10.37    1.60
   8   8  10    6.10    1.47
  -8  -8 -11   -0.86    1.25
  -8  -8 -11    0.70    1.07
  -8  -8 -11    0.70    1.21
   8   8  11   -1.12    1.05
   8   8  11   -0.50    1.21
   8   8  11   -0.29    0.84
   8   8  12   -0.55    0.87
  -8  -8 -12   -0.31    1.54
  -8  -8 -12    0.59    0.99
  -8  -8 -12    1.76    1.05
  -8  -8 -12    1.68    1.28
   8   8  12    1.12    1.20
   8   8  12   -1.86    1.43
  -8  -8 -13    3.41    1.52
   8   8  13    3.70    1.06
  -8  -8 -13    4.24    1.19
   8   8  13    2.10    1.08
   8   8  13    4.30    1.64
  -8  -8 -14    2.32    1.86
  -8  -8 -14    2.94    1.17
   8   8  14    2.45    1.26
   8   8  14    1.94    1.04
   8   8  14    2.16    1.50
   8   8  15    1.58    1.51
  -8  -8 -15    2.72    2.01
   8   8  15    1.43    1.12
  -8  -9   5   -1.13    1.66
   8   9  -5   -1.87    1.61
  -8  -9   4   56.72    3.24
   8   9  -4   64.57    3.86
  -8  -9   4   61.22    4.06
  -8  -9   3   21.08    2.10
   8   9  -3   23.41    2.44
  -8  -9   3   23.98    2.61
  -8  -9   2    2.70    1.20
   8   9  -2    0.00    1.48
   8   9  -2    3.39    1.48
  -8  -9   1    0.48    1.30
  -8  -9   1    0.25    0.95
   8   9  -1    0.81    1.32
   8   9  -1   -2.04    1.27
  -8  -9   0    1.88    1.40
  -8  -9   0    2.85    1.08
   8   9   0    5.41    1.58
   8   9   0    3.53    1.42
  -8  -9  -1   -0.02    1.27
   8   9   1   -0.37    1.23
   8   9   1    1.81    1.35
  -8  -9  -2    4.68    1.65
   8   9   2    4.33    1.57
   8   9   2    4.73    1.36
   8   9   2    3.43    1.22
  -8  -9  -3   -0.37    1.29
   8   9   3    4.12    1.58
   8   9   3    2.97    1.29
   8   9   3    1.19    1.14
  -8  -9  -4    7.95    1.59
   8   9   4    6.96    1.71
   8   9   4    7.54    1.45
   8   9   4    6.06    1.27
  -8  -9  -4    9.81    1.79
  -8  -9  -5   -0.77    1.23
  -8  -9  -5   -0.38    1.23
   8   9   5   -0.40    1.09
   8   9   5    0.56    1.06
   8   9   5    0.47    0.88
   8   9   6    0.43    0.92
  -8  -9  -6   -0.09    1.11
  -8  -9  -6    1.31    1.16
   8   9   6    0.15    1.27
   8   9   6   -0.63    1.08
  -8  -9  -7   12.16    1.93
  -8  -9  -7   11.76    1.58
   8   9   7    5.60    1.49
   8   9   7   11.60    1.65
   8   9   7   11.91    1.37
  -8  -9  -7   10.06    1.70
  -8  -9  -8    5.92    1.72
  -8  -9  -8    8.62    1.52
   8   9   8    6.43    1.57
   8   9   8    9.05    1.53
   8   9   8    8.98    1.19
  -8  -9  -8   10.04    1.68
  -8  -9  -9    9.98    1.75
   8   9   9   10.81    1.26
  -8  -9  -9    6.75    1.71
  -8  -9  -9   11.11    1.63
   8   9   9    7.83    1.64
   8   9   9    7.37    1.50
  -8  -9 -10   27.62    2.33
  -8  -9 -10   29.00    2.67
   8   9  10   34.48    2.00
   8   9  10   25.02    2.28
  -8  -9 -10   28.94    2.36
   8   9  10   26.38    2.29
  -8  -9 -11    1.29    1.47
  -8  -9 -11    2.41    1.11
  -8  -9 -11    1.55    1.14
   8   9  11    3.63    1.48
   8   9  11    2.95    1.23
   8   9  11    1.80    0.81
  -8  -9 -12   31.30    2.95
  -8  -9 -12   29.91    2.30
   8   9  12   25.11    2.25
   8   9  12   28.91    1.78
  -8  -9 -12   28.04    2.45
   8   9  12   25.59    2.40
  -8  -9 -13   -0.67    1.69
  -8  -9 -13    1.16    1.14
   8   9  13    0.21    0.82
   8   9  13    0.82    1.20
   8   9  13   -0.02    1.29
   8   9  14    8.43    1.27
  -8  -9 -14    9.99    2.19
   8   9  14    4.20    1.22
   8   9  14    6.09    1.76
  -8 -10   3   55.14    3.30
   8  10  -3   60.86    3.74
  -8 -10   3   56.59    4.10
  -8 -10   2   11.07    1.72
   8  10  -2   12.33    2.16
   8  10  -2   11.91    1.94
  -8 -10   2   10.38    2.23
  -8 -10   1    6.54    1.36
   8  10  -1    5.26    1.63
   8  10  -1    5.34    1.52
  -8 -10   1    7.18    1.99
   8  10   0    1.59    1.33
   8  10   0    6.70    1.60
  -8 -10   0    4.04    1.71
   8  10   1    6.19    1.56
   8  10   1    8.22    1.68
  -8 -10  -1    9.16    1.88
  -8 -10  -2   -0.30    1.30
   8  10   2    0.37    1.22
   8  10   2   -0.25    1.07
  -8 -10  -3    4.56    1.63
   8  10   3    2.98    1.19
   8  10   3    0.78    1.15
  -8 -10  -4   -1.87    1.47
   8  10   4    0.23    1.06
   8  10   4   -1.13    1.13
  -8 -10  -5   -0.35    1.35
  -8 -10  -5   -0.56    1.08
   8  10   5   -0.97    1.11
   8  10   5    2.62    1.10
  -8 -10  -6    8.04    1.67
   8  10   6    9.83    1.83
  -8 -10  -6    7.53    1.51
   8  10   6   10.55    1.48
   8  10   6    9.06    1.57
  -8 -10  -7    2.61    1.42
   8  10   7    2.94    0.96
  -8 -10  -7   -0.43    1.28
   8  10   7    2.64    1.44
   8  10   7    1.79    1.15
  -8 -10  -8    1.06    1.23
  -8 -10  -8    2.92    1.66
   8  10   8    1.62    0.87
  -8 -10  -8   -1.40    1.12
   8  10   8    2.39    1.29
   8  10   8    2.45    1.24
  -8 -10  -9   37.10    3.14
   8  10   9   38.51    2.01
   8  10   9   36.13    2.71
  -8 -10  -9   33.04    2.47
   8  10   9   38.38    2.56
  -8 -10  -9   41.08    2.87
  -8 -10 -10    1.78    1.68
  -8 -10 -10    0.77    1.39
  -8 -10 -10    3.32    1.30
   8  10  10    0.69    1.19
   8  10  10    2.41    0.84
   8  10  10    0.93    1.16
   8  10  11    3.50    0.91
  -8 -10 -11    0.56    1.63
  -8 -10 -11    5.73    1.41
  -8 -10 -11    3.33    1.33
   8  10  11    2.35    1.19
   8  10  11    3.78    1.38
  -8 -10 -12    1.29    1.82
  -8 -10 -12    4.68    1.44
   8  10  12    1.80    0.80
   8  10  12    4.40    1.46
  -8 -10 -12    2.70    1.39
   8  10  12    2.65    1.28
  -8 -10 -13   12.07    2.44
  -8 -10 -13   10.00    1.46
   8  10  13    7.55    1.49
   8  10  13   10.88    1.86
   8  10  13   10.36    1.20
  -8 -10 -14   23.42    2.05
   8  10  14   19.21    2.36
   8  11  -2   14.72    2.28
   8  11  -2   16.85    2.22
  -8 -11   1   -0.40    1.44
   8  11  -1    1.97    1.59
   8  11  -1    2.75    1.55
  -8 -11   1    1.83    1.88
   8  11   0    1.69    1.44
   8  11   0   -3.16    1.40
  -8 -11   0   -0.29    1.54
   8  11   1    2.17    1.43
   8  11   1    1.20    1.20
  -8 -11  -1    2.54    1.72
  -8 -11  -2    3.01    1.77
   8  11   2    2.17    1.38
   8  11   2    3.65    1.15
  -8 -11  -3    1.47    1.42
   8  11   3    1.21    1.18
   8  11   3   -0.11    1.04
  -8 -11  -4    0.99    1.41
   8  11   4   -0.32    1.03
   8  11   4   -0.39    0.98
   8  11   5   45.30    2.48
   8  11   5   49.91    2.76
  -8 -11  -5   51.39    3.50
   8  11   6    3.13    0.99
  -8 -11  -6    1.23    1.30
  -8 -11  -6    2.98    1.35
   8  11   6    3.30    1.28
  -8 -11  -7   -0.70    1.20
   8  11   7    0.67    0.85
  -8 -11  -7    1.15    1.27
   8  11   7    1.34    1.07
  -8 -11  -8    3.38    1.48
  -8 -11  -8   -0.51    1.65
   8  11   8    2.44    0.89
  -8 -11  -8    1.64    1.24
   8  11   8    1.36    1.11
  -8 -11  -9    0.17    1.19
  -8 -11  -9    2.01    1.92
   8  11   9    1.28    0.79
  -8 -11  -9    1.92    1.30
   8  11   9   -1.05    1.10
  -8 -11 -10    1.11    1.19
  -8 -11 -10    2.31    1.79
  -8 -11 -10    0.79    1.14
   8  11  10    2.67    0.80
   8  11  10    2.88    1.36
  -8 -11 -11   14.95    1.95
  -8 -11 -11   13.22    2.59
   8  11  11   15.29    1.25
   8  11  11   10.89    1.81
  -8 -11 -11   11.69    1.75
   8  11  11   17.81    2.03
  -8 -11 -12    4.67    2.14
  -8 -11 -12    3.76    1.38
   8  11  12    1.67    1.23
  -8 -11 -12    2.82    1.37
   8  11  12    2.08    1.33
   8  12   1   -0.06    1.43
   8  12   1    0.33    1.11
  -8 -12  -1    0.47    1.45
   8  12   2    1.71    1.40
   8  12   2    1.46    1.11
  -8 -12  -2    0.06    1.53
  -8 -12  -3   -0.85    1.42
   8  12   3    0.72    1.14
   8  12   3    1.90    1.04
   8  12   4   15.93    1.74
   8  12   4   14.81    1.68
  -8 -12  -4   16.63    2.22
  -8 -12  -5   -1.36    1.45
   8  12   5    0.72    1.10
   8  12   5   -0.22    0.96
   8  12   6    2.53    1.05
  -8 -12  -6    5.54    1.82
   8  12   6    3.00    1.07
  -8 -12  -7    0.11    1.34
   8  12   7    0.60    0.80
  -8 -12  -7    0.57    1.25
   8  12   7   -0.13    1.04
  -8 -12  -8    0.60    1.45
   8  12   8    0.27    0.70
  -8 -12  -8    1.11    1.30
   8  12   8   -0.24    1.10
  -8 -12  -9    2.40    1.45
  -8 -12  -9    2.98    2.22
  -8 -12  -9    4.25    1.52
   8  12   9    2.88    1.34
  -8 -12 -10   10.93    2.64
   8  12  10   10.63    1.68
  -8 -12 -10   13.63    2.03
   9  -6  -3   -0.03    1.02
   9  -6  -3   -0.15    0.98
   9  -6  -2   -2.56    1.35
   9  -6  -2    1.65    1.16
   9  -6  -2   -0.75    0.97
   9  -6  -1    1.64    1.07
   9  -6  -1    0.87    0.95
   9  -6   0    1.13    1.09
   9  -6   0    1.69    1.13
  -9   6  -1    0.64    1.18
   9  -6   1    0.84    1.10
   9  -6   1    0.75    0.95
   9  -6   2   29.67    2.45
  -9   6  -2   32.66    2.54
   9  -6   2   34.89    2.37
   9  -6   3    3.81    1.52
  -9   6  -3    1.91    1.15
   9  -6   3    0.93    0.99
   9  -6   4   -0.12    1.15
  -9   6  -4    0.62    1.18
   9  -6   4   -0.06    1.18
   9  -6   5    1.03    1.21
  -9   6  -5   -0.54    1.13
   9  -6   5    0.50    1.20
   9  -6   6   -0.06    1.23
   9  -6   6    1.95    1.17
   9  -5  -5    4.24    1.26
   9  -5  -5    6.53    1.42
   9  -5  -4    1.05    1.26
   9  -5  -4    2.33    1.18
   9  -5  -4    4.11    1.27
   9  -5  -3    0.44    1.01
   9  -5  -3    1.51    1.18
   9  -5  -3   -0.25    0.92
   9  -5  -2    8.07    1.40
   9  -5  -2    6.77    1.42
   9  -5  -2    8.97    1.41
   9  -5  -1    3.87    1.25
   9  -5  -1    5.51    1.36
   9  -5  -1    6.42    1.30
   9  -5   0    9.76    1.63
   9  -5   0   10.64    1.52
   9  -5   1   16.36    1.95
  -9   5  -1   21.04    2.22
   9  -5   1   20.57    1.88
   9  -5   2   50.26    2.49
   9  -5   2   51.43    3.06
  -9   5  -2   43.31    2.85
   9  -5   2   47.91    2.71
   9  -5   3    2.70    1.08
  -9   5  -3    1.76    1.16
   9  -5   3    1.07    0.99
   9  -5   3    1.04    1.22
   9  -5   4    1.99    1.26
   9  -5   4    2.61    1.15
  -9   5  -4    4.13    1.43
   9  -5   4    2.21    1.24
   9  -5   5    0.17    1.15
   9  -5   5    0.74    1.04
  -9   5  -5   -0.14    1.08
   9  -5   5    0.25    1.03
   9  -5   6   -2.03    1.40
  -9   5  -6   -0.25    1.13
   9  -5   6    1.49    1.39
   9  -5   7    0.19    1.18
   9  -5   7    1.15    1.24
   9  -5   8    7.15    1.75
   9  -5   8    8.58    1.65
   9  -4  -6    0.68    1.08
   9  -4  -6    1.12    1.05
   9  -4  -6   -0.44    1.10
   9  -4  -5   -0.06    1.15
   9  -4  -5    0.67    1.06
   9  -4  -5    0.78    1.25
   9  -4  -4    1.38    1.19
   9  -4  -4   -0.11    1.12
   9  -4  -4    0.95    0.85
   9  -4  -4    0.20    1.04
   9  -4  -3    1.24    1.23
   9  -4  -3    2.27    1.17
   9  -4  -3    0.49    0.80
   9  -4  -3   -0.40    1.05
   9  -4  -2    2.41    1.30
   9  -4  -2    1.08    0.80
   9  -4  -2    0.21    0.98
   9  -4  -2    0.22    0.94
   9  -4  -1    1.19    1.21
   9  -4  -1    0.05    0.87
   9  -4  -1   -0.92    0.99
   9  -4  -1   -1.10    1.12
   9  -4   0    2.04    0.93
   9  -4   0    1.48    1.36
   9  -4   0    1.64    1.13
  -9   4   0    2.23    1.51
  -9   4   0    4.42    1.51
   9  -4   0    2.28    1.20
   9  -4   1    0.99    0.79
  -9   4  -1   -0.07    1.37
   9  -4   1    1.59    1.12
  -9   4  -1   -0.88    1.26
   9  -4   1    0.45    1.00
   9  -4   2    2.42    0.87
  -9   4  -2    1.50    1.21
   9  -4   2    3.03    1.24
   9  -4   2    4.21    1.31
   9  -4   3   89.23    2.95
   9  -4   3   89.91    3.87
  -9   4  -3   86.34    3.88
   9  -4   3   94.96    3.73
   9  -4   4   23.69    1.81
   9  -4   4   22.77    2.15
  -9   4  -4   17.32    1.95
   9  -4   4   17.28    1.94
   9  -4   5   -1.11    1.23
   9  -4   5    1.42    1.02
   9  -4   5   -0.55    1.15
   9  -4   6    1.19    1.10
   9  -4   6    0.79    1.07
  -9   4  -6   -0.30    1.13
   9  -4   6   -0.29    1.11
   9  -4   7    4.22    1.42
   9  -4   7    5.65    1.48
  -9   4  -7    5.64    1.57
   9  -4   7    4.47    1.35
   9  -4   8    8.04    1.58
   9  -4   8    9.46    1.73
   9  -4   8    9.50    1.72
   9  -4   9   23.78    2.54
   9  -4   9   21.72    2.35
   9  -4  10    6.69    1.91
   9  -3  -7   -2.16    1.37
   9  -3  -7    0.60    1.22
   9  -3  -6   -0.85    1.18
   9  -3  -6    0.46    1.17
   9  -3  -6   -1.34    1.30
   9  -3  -5   -0.65    1.09
   9  -3  -5    0.12    0.72
   9  -3  -5    0.29    1.18
   9  -3  -5    0.98    1.26
   9  -3  -4   19.13    1.32
   9  -3  -4   24.49    2.26
   9  -3  -4   18.81    1.97
   9  -3  -4   21.27    2.23
   9  -3  -3    5.81    1.60
   9  -3  -3    5.76    0.78
   9  -3  -3    6.01    1.45
   9  -3  -3    7.46    1.52
   9  -3  -2    0.32    1.12
   9  -3  -2    1.87    1.00
   9  -3  -2   -0.28    0.48
   9  -3  -2   -1.37    1.19
   9  -3  -1    3.05    0.69
   9  -3  -1    3.18    1.33
   9  -3  -1    6.68    1.36
   9  -3  -1    8.28    1.56
   9  -3   0    2.70    1.46
   9  -3   0    1.14    0.58
   9  -3   0    4.03    1.28
   9  -3   0    1.04    0.50
  -9   3   0   -0.14    1.21
   9  -3   0    2.10    1.11
   9  -3   1   -0.26    0.60
   9  -3   1    2.42    1.25
   9  -3   1   -0.09    0.51
   9  -3   1    1.60    1.11
  -9   3  -1    1.61    1.29
  -9   3  -1    0.07    1.14
   9  -3   1    0.24    0.98
   9  -3   2   78.16    3.95
   9  -3   2   84.98    3.72
   9  -3   2   82.91    2.24
  -9   3  -2   84.65    4.11
  -9   3  -2   79.13    3.72
   9  -3   2   87.10    3.55
   9  -3   3   28.66    2.53
   9  -3   3   32.79    1.57
   9  -3   3   29.98    2.31
  -9   3  -3   28.83    2.67
  -9   3  -3   33.54    2.51
   9  -3   3   35.76    2.48
   9  -3   4   -0.02    0.79
  -9   3  -4   -0.66    1.14
  -9   3  -4    1.34    1.41
   9  -3   4   -0.55    1.11
   9  -3   4    0.76    1.06
   9  -3   5    2.33    0.94
  -9   3  -5    0.01    1.12
   9  -3   5    1.09    1.20
   9  -3   5    2.73    1.17
   9  -3   6    1.81    1.23
   9  -3   6    1.31    1.04
  -9   3  -6    1.16    1.18
   9  -3   6    1.78    1.28
   9  -3   7    1.79    1.17
   9  -3   7    0.93    1.04
  -9   3  -7    0.98    1.18
   9  -3   7   -0.03    1.11
   9  -3   8    2.60    1.22
   9  -3   8    5.17    1.41
   9  -3   8    2.40    1.25
   9  -3   9    5.46    1.45
   9  -3   9    9.03    1.75
   9  -3   9    4.11    1.55
   9  -3  10  139.44    5.12
   9  -3  10  141.45    5.45
   9  -3  11   -0.36    1.34
   9  -2  -8    4.97    1.64
   9  -2  -8    5.23    1.42
   9  -2  -7    0.24    1.26
   9  -2  -7    2.77    1.31
   9  -2  -7   -0.96    1.27
   9  -2  -6    1.00    0.72
   9  -2  -6   -0.66    1.20
   9  -2  -6   -2.59    1.38
   9  -2  -6    0.40    1.20
   9  -2  -5    2.34    0.66
   9  -2  -5    3.13    1.29
   9  -2  -5   -0.08    1.32
   9  -2  -5    2.64    1.28
   9  -2  -4    2.70    0.59
   9  -2  -4    3.07    1.38
   9  -2  -4    2.25    1.26
   9  -2  -4    4.54    1.35
   9  -2  -3    0.63    1.08
   9  -2  -3    1.47    1.14
   9  -2  -3    0.08    0.34
   9  -2  -3   -0.03    1.14
   9  -2  -2    0.26    1.24
   9  -2  -2    2.00    1.11
   9  -2  -2    1.07    1.22
   9  -2  -1    1.09    1.14
   9  -2  -1    2.28    1.20
   9  -2  -1    4.42    1.38
   9  -2   0    0.49    1.19
   9  -2   0    1.65    1.22
  -9   2   0    2.70    1.47
   9  -2   0    0.80    1.14
   9  -2   1   -0.05    1.30
   9  -2   1    0.15    1.09
  -9   2  -1    0.29    1.28
  -9   2  -1    2.18    1.40
   9  -2   1    2.00    1.15
   9  -2   2    7.76    1.49
   9  -2   2    6.04    0.43
   9  -2   2    7.02    1.44
  -9   2  -2    7.46    1.62
  -9   2  -2    4.61    1.27
   9  -2   2    6.19    1.35
   9  -2   3   64.80    3.74
   9  -2   3   67.55    3.28
   9  -2   3   68.82    1.68
  -9   2  -3   68.72    3.66
  -9   2  -3   66.06    3.35
   9  -2   3   68.98    3.32
   9  -2   4    2.54    1.34
   9  -2   4    4.69    0.71
   9  -2   4    4.75    1.37
  -9   2  -4    5.79    1.41
  -9   2  -4    1.30    1.17
   9  -2   4    4.71    1.35
   9  -2   5   10.12    1.85
   9  -2   5    8.60    1.03
   9  -2   5    9.43    1.66
  -9   2  -5   10.88    1.78
  -9   2  -5    7.18    1.63
   9  -2   5    7.40    1.39
   9  -2   6    6.70    1.13
  -9   2  -6    5.81    1.51
   9  -2   6    5.66    1.35
   9  -2   6    6.17    1.35
   9  -2   7    2.54    1.38
   9  -2   7    3.10    1.02
  -9   2  -7    4.87    1.40
   9  -2   7    4.51    1.31
   9  -2   8    6.53    1.60
   9  -2   8    6.51    1.33
  -9   2  -8    5.79    1.50
   9  -2   8    6.39    1.55
   9  -2   9    0.47    1.12
   9  -2   9    0.70    1.20
   9  -2   9    2.13    1.41
   9  -2  10   11.74    1.79
   9  -2  10   13.86    2.05
   9  -2  10   10.16    1.92
   9  -2  11    2.61    1.52
   9  -2  11    1.28    1.25
   9  -2  11    2.52    1.59
   9  -2  12    4.44    1.75
   9  -1  -8    3.59    1.50
   9  -1  -8    3.20    1.55
   9  -1  -7    3.49    1.51
   9  -1  -7    1.82    1.12
   9  -1  -6    6.63    0.94
   9  -1  -6    4.28    1.63
   9  -1  -6    7.23    1.60
   9  -1  -6    7.31    1.57
   9  -1  -5    4.66    1.50
   9  -1  -5    2.41    1.25
   9  -1  -5    2.16    1.33
   9  -1  -4   -0.26    1.14
   9  -1  -4    0.86    1.20
   9  -1  -4    0.71    1.20
   9  -1  -3   16.55    1.89
   9  -1  -3   23.37    2.19
   9  -1  -3   20.91    2.16
   9  -1  -2   -1.16    1.20
   9  -1  -2    0.11    1.09
   9  -1  -2    0.11    1.21
   9  -1  -1   11.07    1.69
   9  -1  -1   10.60    1.65
   9  -1  -1    9.95    1.72
   9  -1   0    0.56    1.14
   9  -1   0    1.23    1.15
  -9   1   0   -1.82    1.27
   9  -1   0    0.47    1.09
   9  -1   1    5.68    1.40
  -9   1  -1    9.65    1.67
   9  -1   1    9.34    1.55
   9  -1   1    8.98    1.55
  -9   1  -2   48.69    3.15
  -9   1  -2   40.55    2.78
   9  -1   2   42.62    2.62
   9  -1   2   39.96    2.57
   9  -1   2   42.54    2.90
  -9   1  -3  212.80    6.15
  -9   1  -3  215.47    5.90
   9  -1   3  216.66    5.64
   9  -1   3  217.89    6.12
   9  -1   3  206.33    5.50
   9  -1   4    2.14    1.45
   9  -1   4    1.49    0.33
   9  -1   4    3.91    1.30
  -9   1  -4    1.61    1.24
  -9   1  -4    1.90    1.29
   9  -1   4    2.55    1.28
   9  -1   5   14.82    1.93
   9  -1   5    9.13    0.99
   9  -1   5   15.55    1.83
  -9   1  -5   16.57    2.11
  -9   1  -5   16.98    1.84
   9  -1   5   16.05    1.79
   9  -1   6    7.03    1.00
   9  -1   6    7.45    1.79
  -9   1  -6   10.71    1.65
   9  -1   6    7.82    1.54
  -9   1  -6    6.91    1.55
   9  -1   6    5.74    1.34
   9  -1   7   -0.98    1.17
   9  -1   7    0.55    0.86
  -9   1  -7    2.93    1.32
  -9   1  -7   -0.12    1.30
   9  -1   7   -1.40    1.19
   9  -1   7    1.98    1.36
   9  -1   8    3.30    1.46
   9  -1   8    7.31    1.31
  -9   1  -8    7.41    1.64
   9  -1   8    5.30    1.30
   9  -1   9    1.17    1.32
   9  -1   9    1.54    1.09
   9  -1   9    0.04    1.20
   9  -1  10    3.19    1.32
   9  -1  10    3.06    1.56
   9  -1  10    1.94    1.40
   9  -1  11    4.42    1.52
   9  -1  11    7.01    1.75
   9  -1  11    5.45    1.70
   9  -1  12    3.04    1.59
   9  -1  12    0.02    1.37
   9  -1  12    1.08    1.59
   9  -1  13   -0.96    1.60
   9   0  -8    0.79    1.57
   9   0  -8    1.89    1.42
   9   0  -7   14.03    2.14
   9   0  -7   11.43    2.04
   9   0  -7    7.03    1.56
   9   0  -6   17.20    2.21
   9   0  -6   24.24    2.44
   9   0  -6   20.66    2.21
   9   0  -5   11.08    1.78
   9   0  -5    9.60    1.79
   9   0  -5    8.69    1.64
   9   0  -4    0.43    1.23
   9   0  -4   -0.70    1.31
   9   0  -4    3.10    1.36
   9   0  -3    0.92    1.16
   9   0  -3    2.26    1.12
   9   0  -3    2.11    1.31
   9   0  -2    3.77    1.31
   9   0  -2    0.97    1.09
   9   0  -2    2.08    1.20
   9   0  -1   45.87    2.79
   9   0  -1   48.09    3.02
   9   0  -1   40.20    2.76
   9   0   0    0.53    1.18
   9   0   0   -0.44    1.17
  -9   0   0   -0.05    1.21
   9   0   0    1.78    1.20
   9   0   1   -1.36    1.14
   9   0   1    1.38    1.27
  -9   0  -1   -1.42    1.26
   9   0   1   -1.85    1.30
   9   0   2    4.78    1.40
   9   0   2    2.57    1.13
  -9   0  -2    6.20    1.60
  -9   0  -2    2.44    1.23
   9   0   2    4.30    1.34
  -9   0  -3  155.83    5.22
  -9   0  -3  152.86    5.02
   9   0   3  143.53    4.57
   9   0   3  156.50    4.71
   9   0   3  149.37    5.05
  -9   0  -4   80.37    3.87
  -9   0  -4   83.09    3.73
   9   0   4   78.71    3.53
   9   0   4   78.76    3.75
   9   0   4   81.29    3.49
   9   0   5   25.62    2.21
  -9   0  -5   23.02    2.27
  -9   0  -5   22.69    2.13
   9   0   5   22.74    2.01
   9   0   5   24.10    2.25
   9   0   6    9.76    0.96
   9   0   6    9.47    1.60
  -9   0  -6    9.81    1.82
  -9   0  -6   10.98    1.68
   9   0   6   10.90    1.62
   9   0   6   11.60    1.93
   9   0   7    5.63    1.07
   9   0   7    5.86    1.43
  -9   0  -7    4.51    1.37
   9   0   7    5.75    1.33
  -9   0  -7    5.83    1.51
   9   0   7    7.57    1.50
   9   0   8    4.35    1.41
   9   0   8    3.20    1.10
  -9   0  -8    1.65    1.42
  -9   0  -8    3.89    1.43
   9   0   8    2.82    1.30
   9   0   8    4.58    1.38
   9   0   9    1.79    1.39
   9   0   9    1.73    1.24
   9   0   9    1.69    1.04
  -9   0  -9    2.17    1.50
   9   0   9    1.14    1.41
   9   0  10   16.07    1.95
   9   0  10   14.55    1.91
   9   0  10   21.28    2.25
   9   0  11    0.61    1.43
   9   0  11   -1.42    1.32
   9   0  11   -1.52    1.42
   9   0  12   16.92    2.33
   9   0  12   18.46    2.26
   9   0  12   17.77    2.32
   9   0  13   -0.06    1.50
   9   0  13    0.94    1.58
   9   0  13    1.69    1.56
  -9  -1   8    0.32    1.08
   9   1  -8   -2.58    1.76
   9   1  -8   -0.93    1.52
   9   1  -8    1.32    1.19
  -9  -1   7   13.48    1.69
   9   1  -7   18.45    2.46
   9   1  -7   15.84    1.95
   9   1  -7   11.96    2.01
  -9  -1   6   12.43    1.65
   9   1  -6   12.16    2.12
   9   1  -6   10.15    1.72
   9   1  -6    8.51    1.84
  -9  -1   5   14.19    1.77
   9   1  -5   16.39    2.27
   9   1  -5   13.75    2.10
   9   1  -5   12.01    1.72
  -9  -1   4    5.76    1.36
   9   1  -4    4.21    1.52
   9   1  -4    3.59    1.46
   9   1  -4    3.02    1.19
  -9  -1   3    1.30    1.04
   9   1  -3    1.91    1.33
   9   1  -3    1.14    1.20
   9   1  -3    2.92    1.23
  -9  -1   2    0.15    1.05
   9   1  -2    2.66    1.39
   9   1  -2   -0.28    1.13
   9   1  -2   -0.51    1.22
  -9  -1   1    3.12    1.23
   9   1  -1    6.29    1.50
   9   1  -1    4.91    1.29
   9   1  -1    5.96    1.55
  -9  -1   0    3.73    1.37
  -9  -1   0    3.44    1.41
   9   1   0    3.65    1.44
   9   1   0    4.35    1.30
   9   1   0    0.86    1.14
   9   1   1    2.40    1.34
   9   1   1    2.53    1.27
  -9  -1  -1    5.24    1.25
  -9  -1  -1    2.77    1.27
   9   1   1    1.24    1.19
  -9  -1  -2   48.79    3.09
   9   1   2   56.42    3.08
   9   1   2   56.05    2.97
   9   1   2   60.84    3.31
  -9  -1  -3   29.53    2.51
  -9  -1  -3   26.91    2.30
   9   1   3   22.30    2.09
   9   1   3   27.85    2.21
   9   1   3   26.06    2.24
  -9  -1  -4   87.42    3.93
  -9  -1  -4   83.57    3.75
   9   1   4   89.09    3.63
   9   1   4   86.62    3.94
   9   1   4   84.73    3.51
   9   1   5   13.29    1.63
  -9  -1  -5   14.25    1.88
  -9  -1  -5   16.61    1.91
   9   1   5   15.32    1.78
   9   1   5   12.49    1.73
   9   1   6   10.86    1.58
  -9  -1  -6   12.64    1.95
  -9  -1  -6   14.48    1.84
   9   1   6   14.37    1.79
   9   1   6   11.47    1.77
   9   1   7    7.29    1.64
   9   1   7    6.00    1.50
  -9  -1  -7    8.09    1.71
  -9  -1  -7    7.50    1.54
   9   1   7    7.15    1.54
   9   1   8   20.20    1.61
   9   1   8   18.34    1.95
  -9  -1  -8   23.46    2.30
  -9  -1  -8   23.48    2.24
   9   1   8   18.01    2.08
   9   1   8   21.04    2.18
   9   1   9    7.06    1.68
   9   1   9    5.87    1.30
  -9  -1  -9    5.62    1.52
  -9  -1  -9    5.15    1.45
   9   1   9    4.72    1.44
   9   1   9    6.15    1.48
   9   1  10   -0.31    1.12
   9   1  10    1.02    1.22
   9   1  10   -1.40    1.24
   9   1  10    1.00    1.29
   9   1  11    3.64    1.54
   9   1  11    1.71    1.29
   9   1  11    0.46    1.45
   9   1  12    3.41    1.65
   9   1  12    3.82    1.50
   9   1  12    4.80    1.74
   9   1  13   -3.36    1.81
   9   1  13   -0.56    1.37
   9   1  13   -0.50    1.43
   9   1  14   11.12    2.02
   9   1  14   15.00    2.37
  -9  -2   8    2.34    1.29
   9   2  -8    3.10    1.73
   9   2  -8    4.25    1.81
  -9  -2   7    5.58    1.43
   9   2  -7    7.25    1.93
   9   2  -7    2.62    1.32
  -9  -2   6    4.06    1.46
   9   2  -6    5.48    1.79
   9   2  -6    1.45    1.26
   9   2  -6    1.74    1.22
  -9  -2   5    4.92    1.41
   9   2  -5    0.11    1.24
   9   2  -5    1.93    1.48
   9   2  -5    1.69    1.21
  -9  -2   4   -0.84    1.10
   9   2  -4   -1.46    1.38
   9   2  -4   -0.61    1.37
   9   2  -4    1.61    1.29
  -9  -2   3   -1.13    1.20
   9   2  -3   -1.53    1.30
   9   2  -3    0.08    1.28
   9   2  -3    2.27    1.25
  -9  -2   2    5.90    1.42
   9   2  -2    5.60    1.47
   9   2  -2    3.95    1.42
   9   2  -2    5.28    1.42
  -9  -2   1    2.62    1.13
   9   2  -1    1.94    1.31
   9   2  -1    2.33    1.28
   9   2  -1   -0.63    1.29
  -9  -2   0    1.93    1.21
  -9  -2   0    0.64    1.24
   9   2   0    2.45    1.15
   9   2   0    0.36    1.13
   9   2   0    1.92    1.14
  -9  -2  -1    3.99    1.40
  -9  -2  -1    1.64    1.24
   9   2   1    4.61    1.43
   9   2   1    4.81    1.44
   9   2   1    2.01    1.18
  -9  -2  -2   17.32    1.84
  -9  -2  -2   22.30    2.25
   9   2   2   19.66    2.03
   9   2   2   20.31    2.00
   9   2   2   20.30    2.03
   9   2   3    3.07    1.36
   9   2   3    0.70    1.12
  -9  -2  -3    1.35    1.05
  -9  -2  -3    2.31    1.20
   9   2   3    2.10    1.18
  -9  -2  -4   21.66    1.95
  -9  -2  -4   22.35    2.23
  -9  -2  -4   22.71    2.21
   9   2   4   20.19    1.91
   9   2   4   24.30    2.00
   9   2   4   22.88    2.13
   9   2   5    0.19    1.13
   9   2   5   -0.40    1.07
  -9  -2  -5    2.51    1.33
  -9  -2  -5   -0.33    1.10
   9   2   5    0.53    1.17
   9   2   6   12.24    1.60
  -9  -2  -6   15.13    1.93
  -9  -2  -6   13.63    1.80
   9   2   6   13.73    1.87
   9   2   6   12.10    1.68
   9   2   7   12.16    1.69
  -9  -2  -7   17.54    2.00
  -9  -2  -7   11.94    1.71
   9   2   7   15.35    1.95
   9   2   7   15.38    1.98
   9   2   8    0.74    1.13
   9   2   8    1.98    1.21
  -9  -2  -8   -0.24    1.15
  -9  -2  -8    2.49    1.42
   9   2   8   -0.47    1.21
   9   2   9   30.40    2.33
  -9  -2  -9   27.04    2.36
  -9  -2  -9   33.52    2.74
   9   2   9   31.18    2.62
   9   2   9   26.75    2.41
   9   2  10   -0.84    1.18
   9   2  10    1.18    1.29
  -9  -2 -10   -1.19    1.32
   9   2  10    2.21    1.22
   9   2  11    1.47    1.23
   9   2  11    1.20    1.12
   9   2  11    0.83    1.41
   9   2  11    2.51    1.47
   9   2  12    6.68    1.77
   9   2  12    9.17    1.74
   9   2  12    6.58    1.76
   9   2  13    5.14    1.85
   9   2  13    5.43    1.66
   9   2  13    0.35    1.59
   9   2  14    6.46    1.97
   9   2  14   10.98    1.98
   9   2  14    8.01    2.03
  -9  -3   8    0.98    1.42
   9   3  -8    4.61    2.05
  -9  -3   7    0.21    1.26
   9   3  -7    2.79    1.80
   9   3  -7    4.97    1.84
   9   3  -7    1.77    1.39
  -9  -3   6    5.80    1.65
   9   3  -6   10.08    2.04
   9   3  -6    7.06    1.56
  -9  -3   5   11.00    1.74
   9   3  -5   10.29    1.76
   9   3  -5   10.05    2.01
   9   3  -5    9.56    1.90
  -9  -3   4    5.70    1.46
   9   3  -4    8.23    1.76
   9   3  -4    3.66    1.53
   9   3  -4    6.80    1.81
  -9  -3   3   30.03    2.46
   9   3  -3   24.33    2.51
   9   3  -3   23.91    2.43
   9   3  -3   23.98    2.33
  -9  -3   2    1.16    1.26
   9   3  -2    0.00    1.18
   9   3  -2    1.00    1.31
   9   3  -2   -2.09    1.30
  -9  -3   1   11.74    1.76
   9   3  -1   12.80    1.73
   9   3  -1   13.24    1.90
   9   3  -1   13.08    1.72
  -9  -3   0    6.33    1.41
  -9  -3   0    6.21    1.59
   9   3   0    5.97    1.60
   9   3   0    6.57    1.52
   9   3   0    9.15    1.74
  -9  -3  -1   26.61    2.33
  -9  -3  -1   31.33    2.66
   9   3   1   32.81    2.44
   9   3   1   31.99    2.56
   9   3   1   33.28    2.65
  -9  -3  -2    3.45    1.22
  -9  -3  -2   -0.47    1.37
   9   3   2    0.22    1.18
   9   3   2    0.31    1.25
   9   3   2    1.01    1.02
   9   3   3    0.14    1.00
  -9  -3  -3   -0.62    1.29
  -9  -3  -3    0.22    1.13
   9   3   3    1.01    1.15
   9   3   3    0.93    1.23
   9   3   4   -1.27    1.21
  -9  -3  -4   -0.50    1.21
  -9  -3  -4    0.61    1.26
   9   3   4    1.04    1.19
   9   3   4    1.64    1.23
   9   3   5    0.42    1.16
   9   3   5   -0.03    0.97
  -9  -3  -5   -0.48    1.07
  -9  -3  -5   -1.65    1.25
  -9  -3  -5    1.62    1.34
   9   3   5    0.51    1.13
  -9  -3  -6   43.44    2.66
  -9  -3  -6   40.38    2.73
   9   3   6   42.02    2.70
   9   3   6   37.00    2.72
   9   3   6   40.94    2.47
   9   3   7   -1.06    1.23
   9   3   7    0.39    1.07
  -9  -3  -7    0.58    1.10
  -9  -3  -7    0.33    1.17
   9   3   7    0.75    1.25
   9   3   8    2.42    1.45
   9   3   8    1.39    1.05
  -9  -3  -8    1.56    1.33
  -9  -3  -8    3.04    1.35
   9   3   8    2.54    1.28
   9   3   9    3.36    1.44
  -9  -3  -9    2.32    1.34
  -9  -3  -9    2.74    1.43
   9   3   9    2.98    1.26
   9   3   9    2.46    1.35
   9   3  10   -0.58    1.26
  -9  -3 -10    0.92    1.38
  -9  -3 -10    0.84    1.21
   9   3  10    1.13    1.06
   9   3  10    1.59    1.37
  -9  -3 -11   15.15    1.71
   9   3  11   15.47    1.80
  -9  -3 -11   10.96    1.72
   9   3  11   12.65    1.99
   9   3  11   11.35    1.77
   9   3  12   -0.25    1.20
   9   3  12    2.54    1.24
  -9  -3 -12    1.46    1.12
  -9  -3 -13    4.14    1.37
   9   3  13    3.30    1.32
   9   3  13    5.63    1.81
  -9  -3 -14    3.68    1.63
   9   3  14    3.68    1.52
   9   3  14    0.54    1.60
   9   3  15    1.45    1.39
  -9  -3 -15    1.86    1.50
   9   4  -7    2.62    1.65
   9   4  -7    0.83    1.53
  -9  -4   6   -0.62    1.31
   9   4  -6   -0.65    1.45
   9   4  -6   -1.79    1.63
  -9  -4   5    3.90    1.01
  -9  -4   5    4.70    1.53
   9   4  -5    3.02    1.44
   9   4  -5    2.34    1.64
   9   4  -5    3.86    1.56
  -9  -4   4    1.18    1.27
   9   4  -4    3.28    1.68
   9   4  -4   -0.29    1.30
   9   4  -4    0.67    1.35
  -9  -4   3   -1.77    1.31
   9   4  -3    2.76    1.49
   9   4  -3    1.59    1.39
   9   4  -3    0.29    1.15
  -9  -4   2    2.45    1.44
   9   4  -2    2.72    1.44
   9   4  -2    1.18    1.36
   9   4  -2    1.06    1.30
  -9  -4   1    0.54    1.25
   9   4  -1    0.74    1.25
   9   4  -1    1.07    1.46
   9   4  -1    0.15    1.18
  -9  -4   0   -0.03    1.27
   9   4   0   -0.71    1.12
   9   4   0    0.69    1.31
   9   4   0    0.85    1.17
  -9  -4  -1   47.12    2.93
   9   4   1   45.51    2.81
  -9  -4  -1   44.40    3.17
   9   4   1   50.55    3.08
  -9  -4  -2    3.78    1.31
  -9  -4  -2    3.13    1.40
   9   4   2    3.67    1.34
   9   4   2    5.02    1.59
   9   4   2    3.50    1.23
  -9  -4  -3    3.75    1.28
  -9  -4  -3    1.97    1.33
   9   4   3    2.49    1.25
   9   4   3    0.46    1.31
   9   4   3    2.02    1.14
  -9  -4  -4   29.87    2.38
  -9  -4  -4   23.57    2.28
   9   4   4   25.51    2.09
   9   4   4   31.24    2.43
   9   4   4   30.78    2.50
  -9  -4  -5   11.25    1.57
  -9  -4  -5   12.11    1.81
   9   4   5    9.25    1.61
   9   4   5   11.98    1.62
   9   4   5   11.02    1.53
  -9  -4  -6   22.84    2.08
  -9  -4  -6   26.21    2.30
  -9  -4  -6   23.62    2.22
   9   4   6   24.47    2.20
   9   4   6   19.49    2.17
   9   4   6   19.14    1.77
   9   4   7   25.84    2.04
  -9  -4  -7   23.54    1.15
  -9  -4  -7   28.95    2.32
  -9  -4  -7   22.59    2.16
  -9  -4  -7   26.97    2.28
   9   4   7   20.22    2.01
   9   4   7   27.85    2.44
   9   4   8   46.09    2.66
  -9  -4  -8   41.11    1.74
  -9  -4  -8   48.35    2.81
  -9  -4  -8   41.04    2.81
  -9  -4  -8   42.41    2.85
   9   4   8   43.66    2.88
   9   4   8   43.10    2.85
   9   4   9    2.06    1.14
  -9  -4  -9    4.21    1.02
   9   4   9    1.92    1.20
  -9  -4  -9    2.22    1.28
  -9  -4  -9    3.15    1.27
   9   4   9    2.25    1.36
   9   4  10    0.84    1.14
  -9  -4 -10    0.84    0.97
  -9  -4 -10    0.33    1.15
  -9  -4 -10    0.19    1.25
   9   4  10    1.90    1.14
   9   4  10    0.41    1.26
   9   4  11    1.35    1.21
   9   4  11   -0.80    1.20
  -9  -4 -11    0.59    0.98
  -9  -4 -11    0.06    1.13
   9   4  11   -0.90    1.34
   9   4  12    3.78    1.39
   9   4  12    1.41    1.16
  -9  -4 -12    2.12    1.18
  -9  -4 -12   -0.21    1.10
   9   4  12    2.35    1.49
   9   4  13   -0.69    1.18
  -9  -4 -13    1.06    1.22
   9   4  13   -0.98    1.34
   9   4  13   -1.12    1.39
  -9  -4 -14   -0.67    1.32
   9   4  14   -0.60    1.18
   9   4  14   -3.36    1.90
   9   4  15    0.90    1.66
   9   4  15   -0.93    1.51
  -9  -4 -15   -0.96    1.45
  -9  -5   7    1.49    1.45
   9   5  -6   10.48    2.25
   9   5  -6   13.97    2.34
  -9  -5   6   12.15    2.07
  -9  -5   5    0.16    1.39
  -9  -5   5    1.16    1.04
   9   5  -5    1.32    1.58
   9   5  -5    1.44    1.66
  -9  -5   4   15.15    1.41
   9   5  -4   21.14    2.63
  -9  -5   4   17.96    2.19
  -9  -5   3    0.40    1.27
  -9  -5   3    1.14    0.70
   9   5  -3    1.36    1.51
   9   5  -3    0.00    1.28
   9   5  -3    1.57    1.27
  -9  -5   2    5.24    0.66
  -9  -5   2    5.27    1.57
   9   5  -2    5.80    1.61
   9   5  -2    4.90    1.49
   9   5  -2    4.22    1.48
  -9  -5   1   -0.92    1.33
   9   5  -1    0.54    1.47
   9   5  -1    2.77    1.31
   9   5  -1    2.29    1.35
  -9  -5   0    8.58    1.59
   9   5   0   10.66    1.87
   9   5   0   11.25    1.86
   9   5   0   10.66    1.74
  -9  -5  -1    2.79    1.49
  -9  -5  -1    1.48    1.36
   9   5   1    1.25    1.27
   9   5   1    2.68    1.32
   9   5   1    2.56    1.34
  -9  -5  -2   -0.23    1.21
  -9  -5  -2    0.91    1.22
   9   5   2    0.36    1.19
   9   5   2    1.58    1.21
   9   5   2    1.63    1.06
  -9  -5  -3    2.00    1.12
  -9  -5  -3    2.48    1.32
   9   5   3    3.49    1.44
   9   5   3    0.62    1.33
   9   5   3    2.35    1.19
   9   5   4    1.62    1.12
  -9  -5  -4    5.63    1.62
  -9  -5  -4    1.95    1.29
   9   5   4    3.14    1.31
   9   5   4    2.18    1.13
   9   5   5    0.28    1.00
  -9  -5  -5   -0.54    1.15
  -9  -5  -5    3.06    1.24
   9   5   5    1.31    1.06
   9   5   5    4.09    1.38
  -9  -5  -6   54.95    3.09
  -9  -5  -6   55.20    1.51
  -9  -5  -6   58.21    3.29
   9   5   6   53.80    3.19
   9   5   6   59.58    3.16
   9   5   6   52.34    2.75
  -9  -5  -7   61.44    1.94
  -9  -5  -7   62.45    3.20
  -9  -5  -7   66.60    3.45
  -9  -5  -7   64.89    3.40
   9   5   7   63.92    3.47
   9   5   7   60.13    3.28
   9   5   7   59.57    2.85
  -9  -5  -8    0.39    0.69
  -9  -5  -8   -0.38    0.97
   9   5   8    1.72    0.98
  -9  -5  -8    1.20    1.26
  -9  -5  -8    1.65    1.31
   9   5   8    2.62    1.48
   9   5   8   -0.70    1.14
  -9  -5  -9    1.28    0.96
  -9  -5  -9   -0.27    1.09
   9   5   9    0.32    0.97
  -9  -5  -9    2.04    1.18
  -9  -5  -9    0.89    1.24
   9   5   9    0.13    1.17
   9   5   9   -0.28    1.23
  -9  -5 -10    9.73    1.33
   9   5  10   12.54    1.60
  -9  -5 -10    8.63    1.74
  -9  -5 -10    7.86    1.56
   9   5  10    7.63    1.66
   9   5  10   11.52    1.75
  -9  -5 -11    0.70    0.98
  -9  -5 -11    0.76    1.22
   9   5  11   -1.58    1.40
   9   5  11    0.74    1.20
   9   5  11   -0.24    1.25
   9   5  12    2.59    1.16
  -9  -5 -12    3.46    1.31
  -9  -5 -12    2.27    1.25
   9   5  12    1.75    1.58
   9   5  12    3.25    1.18
  -9  -5 -13    2.42    1.38
   9   5  13    1.99    1.30
  -9  -5 -13   -0.66    1.14
   9   5  13   -0.89    1.63
   9   5  13   -0.49    1.37
  -9  -5 -14  138.19    5.02
   9   5  14  131.98    5.02
   9   5  14  157.59    5.08
   9   5  14  152.55    5.93
  -9  -5 -15   -0.10    1.55
   9   5  15   -0.33    1.26
   9   5  15    0.64    1.70
   9   6  -6   13.23    2.37
   9   6  -6   13.41    2.32
  -9  -6   6   17.82    2.34
   9   6  -5   42.31    3.55
   9   6  -5   38.41    3.26
  -9  -6   5   40.87    3.25
  -9  -6   4    7.25    1.90
  -9  -6   4    4.36    1.08
   9   6  -4    5.97    1.87
   9   6  -4    4.43    1.71
  -9  -6   3   -1.04    1.36
  -9  -6   3   -0.38    0.72
   9   6  -3    1.36    1.59
   9   6  -3    0.53    1.38
  -9  -6   2    5.89    1.71
  -9  -6   2    3.57    0.80
   9   6  -2    4.36    1.61
   9   6  -2    4.76    1.64
  -9  -6   1    5.75    1.65
  -9  -6   1    1.86    0.56
   9   6  -1    4.77    1.58
   9   6  -1    4.80    1.54
   9   6  -1    3.64    1.49
  -9  -6   0    5.21    0.59
  -9  -6   0    8.05    1.75
   9   6   0    7.04    1.77
   9   6   0    5.03    1.48
   9   6   0    7.53    1.70
  -9  -6  -1    8.63    0.60
   9   6   1   14.09    1.99
   9   6   1    9.01    1.73
   9   6   1    8.35    1.62
  -9  -6  -1    9.71    1.71
  -9  -6  -2   -0.66    1.29
  -9  -6  -2   -0.23    0.29
  -9  -6  -2   -0.26    0.24
  -9  -6  -2    0.17    1.35
   9   6   2    0.37    1.19
   9   6   2    1.67    1.42
   9   6   2    1.91    1.29
  -9  -6  -3    0.54    1.30
  -9  -6  -3    0.57    0.31
  -9  -6  -3    0.18    0.27
  -9  -6  -3    0.15    1.21
   9   6   3   -0.43    1.12
   9   6   3    1.09    1.25
   9   6   3   -0.64    1.17
  -9  -6  -4    4.30    0.57
  -9  -6  -4    2.25    1.39
  -9  -6  -4    6.74    1.59
   9   6   4    2.35    1.26
   9   6   4    2.97    1.23
   9   6   4    4.00    1.20
   9   6   5    1.36    1.04
  -9  -6  -5    0.28    1.07
  -9  -6  -5    0.52    0.48
   9   6   5    1.58    1.08
   9   6   5    1.28    1.15
  -9  -6  -6    3.03    0.76
   9   6   6    1.11    0.96
  -9  -6  -6    2.46    1.32
  -9  -6  -6    1.85    1.39
   9   6   6    2.45    1.35
   9   6   6    3.86    1.49
  -9  -6  -7  110.74    2.89
  -9  -6  -7  118.14    4.41
  -9  -6  -7  112.65    4.41
   9   6   7  123.05    4.72
   9   6   7  116.05    4.25
   9   6   7  114.03    3.81
   9   6   8   21.71    1.84
  -9  -6  -8   18.58    1.49
  -9  -6  -8   20.76    2.09
  -9  -6  -8   21.15    2.11
  -9  -6  -8   20.50    2.12
   9   6   8   20.28    2.20
   9   6   8   18.76    2.02
  -9  -6  -9   53.69    2.44
   9   6   9   53.53    2.70
  -9  -6  -9   54.32    3.04
  -9  -6  -9   53.39    3.10
  -9  -6  -9   52.15    3.16
   9   6   9   50.97    3.13
   9   6   9   53.26    3.14
  -9  -6 -10    2.94    1.12
  -9  -6 -10    2.24    1.16
  -9  -6 -10    0.81    1.09
  -9  -6 -10    2.28    1.27
   9   6  10    0.81    1.00
   9   6  10    2.54    1.38
   9   6  10    4.71    1.50
  -9  -6 -11    0.51    1.09
  -9  -6 -11    0.04    1.19
   9   6  11    0.35    0.99
   9   6  11    1.97    1.34
   9   6  11    2.46    1.51
   9   6  12    4.76    1.27
  -9  -6 -12    3.77    1.38
  -9  -6 -12    5.18    1.44
   9   6  12    2.42    1.45
   9   6  12    3.58    1.53
  -9  -6 -13    2.51    1.41
   9   6  13    2.70    1.23
  -9  -6 -13    1.67    1.25
   9   6  13    4.51    1.56
   9   6  13    1.98    1.49
  -9  -6 -14    2.06    1.41
   9   6  14    0.69    1.16
  -9  -6 -14    1.92    1.31
   9   6  14   -0.61    1.35
   9   6  14   -1.41    1.55
   9   6  15   17.28    1.99
  -9  -6 -15   14.82    2.32
   9   6  15   17.59    2.51
   9   7  -5   14.61    2.54
   9   7  -5   12.27    2.16
  -9  -7   5   14.21    2.37
  -9  -7   4   -0.37    1.60
   9   7  -4    1.21    1.66
   9   7  -4    2.58    1.58
  -9  -7   3    4.77    1.55
  -9  -7   3    1.43    0.90
   9   7  -3    3.12    1.63
  -9  -7   2    2.29    1.36
  -9  -7   2    2.48    1.55
   9   7  -2    1.25    1.38
   9   7  -2    2.82    1.37
  -9  -7   1   -0.65    1.35
  -9  -7   1    0.42    0.76
   9   7  -1    0.98    1.34
   9   7  -1   -0.72    1.31
  -9  -7   0    0.95    1.40
  -9  -7   0   -0.20    0.61
   9   7   0   -0.32    1.43
   9   7   0    0.08    1.30
  -9  -7  -1   28.94    1.42
   9   7   1   29.18    2.53
   9   7   1   29.83    2.64
   9   7   1   34.97    2.84
  -9  -7  -1   30.44    2.69
  -9  -7  -2    1.71    1.46
  -9  -7  -2    0.11    0.57
  -9  -7  -2    0.78    1.37
   9   7   2    0.84    1.22
   9   7   2    0.70    1.21
   9   7   2   -1.64    1.24
  -9  -7  -3    3.77    1.40
  -9  -7  -3    2.11    0.81
  -9  -7  -3    0.46    1.21
   9   7   3    3.52    1.31
   9   7   3    4.58    1.61
   9   7   3    3.27    1.29
  -9  -7  -4    1.92    1.38
  -9  -7  -4    0.60    0.70
  -9  -7  -4    2.65    1.32
   9   7   4    1.15    1.14
   9   7   4   -0.81    1.39
   9   7   4   -0.77    1.02
  -9  -7  -5   16.37    2.13
  -9  -7  -5   13.70    1.28
  -9  -7  -5   13.07    1.88
   9   7   5   14.97    2.08
   9   7   5   13.10    1.66
   9   7   5   10.13    1.58
  -9  -7  -6   10.23    1.79
  -9  -7  -6    9.72    1.20
  -9  -7  -6    8.30    1.56
   9   7   6    8.61    1.74
   9   7   6   11.16    1.47
   9   7   6   11.74    1.71
  -9  -7  -7   68.21    3.54
  -9  -7  -7   68.77    2.71
  -9  -7  -7   68.06    3.52
   9   7   7   68.98    3.69
   9   7   7   63.53    3.36
   9   7   7   57.87    2.81
  -9  -7  -8    4.24    1.11
  -9  -7  -8    4.21    1.38
   9   7   8    3.05    1.08
  -9  -7  -8    5.64    1.49
   9   7   8    5.45    1.59
   9   7   8    3.46    1.42
  -9  -7  -9   16.23    1.62
   9   7   9   20.54    1.77
  -9  -7  -9   17.96    2.05
  -9  -7  -9   19.27    2.10
   9   7   9   19.27    2.12
   9   7   9   17.55    2.03
  -9  -7 -10   -0.45    1.18
  -9  -7 -10    1.73    1.18
  -9  -7 -10    1.97    1.27
   9   7  10   -0.22    0.91
  -9  -7 -10    1.57    1.31
   9   7  10    2.86    1.40
   9   7  10    0.62    1.26
  -9  -7 -11    0.55    1.08
  -9  -7 -11   -0.12    1.14
  -9  -7 -11    3.12    1.35
   9   7  11    4.51    1.47
   9   7  11    1.31    1.03
   9   7  11    2.51    1.35
   9   7  12    3.64    1.12
  -9  -7 -12    3.61    1.58
  -9  -7 -12    5.02    1.38
   9   7  12    1.51    1.28
   9   7  12    2.86    1.58
  -9  -7 -13    0.70    1.34
   9   7  13    1.57    1.11
  -9  -7 -13    0.09    1.16
   9   7  13    1.09    1.29
   9   7  13    1.76    1.43
  -9  -7 -14    0.90    1.56
   9   7  14   -0.36    1.15
  -9  -7 -14   -0.11    1.08
   9   7  14    1.85    1.58
   9   7  14    0.45    1.49
   9   8  -4   14.83    2.62
   9   8  -4   14.21    2.28
  -9  -8   4   14.15    2.31
  -9  -8   3   10.40    2.11
   9   8  -3   13.84    2.30
   9   8  -3    5.81    1.81
  -9  -8   2    5.32    1.20
   9   8  -2    3.22    1.53
   9   8  -2    4.15    1.71
  -9  -8   1    2.76    1.47
  -9  -8   1    0.62    0.87
   9   8  -1   -1.11    1.48
   9   8  -1    2.17    1.44
  -9  -8   0    4.64    1.64
  -9  -8   0    1.48    0.80
   9   8   0    2.49    1.43
   9   8   0    0.93    1.33
  -9  -8  -1    0.99    1.35
  -9  -8  -1    1.07    0.78
   9   8   1    1.33    1.33
   9   8   1    2.37    1.36
  -9  -8  -2    6.07    1.72
   9   8   2    4.02    1.30
   9   8   2    2.44    1.19
   9   8   3   16.56    1.92
  -9  -8  -3   19.16    2.28
   9   8   3   16.14    1.88
  -9  -8  -3   17.39    2.14
  -9  -8  -4    0.71    1.12
  -9  -8  -4    0.90    1.36
   9   8   4    1.93    1.22
   9   8   4    1.92    1.26
   9   8   4   -0.74    1.06
  -9  -8  -5    1.69    1.38
  -9  -8  -5    2.76    1.19
  -9  -8  -5    2.06    1.32
   9   8   5    1.32    1.37
   9   8   5    0.54    1.26
   9   8   5    1.27    1.04
   9   8   6    5.10    1.25
  -9  -8  -6    3.85    1.53
  -9  -8  -6    3.54    1.26
  -9  -8  -6    3.11    1.35
   9   8   6    1.76    1.30
   9   8   6    1.68    1.10
  -9  -8  -7   12.49    1.95
  -9  -8  -7   12.29    1.58
  -9  -8  -7   16.90    2.12
   9   8   7   14.52    2.20
   9   8   7   12.99    1.78
   9   8   7   15.72    1.65
  -9  -8  -8  128.70    4.90
  -9  -8  -8  119.71    4.16
  -9  -8  -8  119.92    4.64
   9   8   8  127.29    4.91
   9   8   8  126.04    4.52
   9   8   8  124.50    3.86
  -9  -8  -9    2.78    1.32
  -9  -8  -9    0.51    1.16
   9   8   9   -0.08    1.01
  -9  -8  -9   -0.06    1.29
   9   8   9    2.44    1.34
   9   8   9    2.91    1.31
  -9  -8 -10    0.93    1.18
  -9  -8 -10    0.77    1.27
   9   8  10    1.15    0.95
  -9  -8 -10   -1.19    1.17
   9   8  10    0.88    1.21
   9   8  10    1.50    1.34
  -9  -8 -11    0.90    1.29
  -9  -8 -11    1.40    1.17
   9   8  11    0.44    1.16
   9   8  11   -0.31    0.96
   9   8  11    0.64    1.24
   9   8  12    0.48    0.90
  -9  -8 -12    0.76    1.33
  -9  -8 -12    0.14    1.04
  -9  -8 -12    0.83    1.10
   9   8  12    0.63    1.25
   9   8  12   -0.97    1.48
  -9  -8 -13    2.95    1.49
   9   8  13    2.48    1.08
  -9  -8 -13    1.01    1.14
   9   8  13    4.21    1.61
   9   8  13    1.19    1.49
  -9  -8 -14    3.38    1.67
   9   8  14    1.85    1.14
   9   8  14    0.94    1.42
   9   9  -3   27.37    2.90
   9   9  -3   28.15    2.76
  -9  -9   3   26.15    3.06
  -9  -9   2    5.12    1.87
   9   9  -2    2.29    1.66
   9   9  -2    0.30    1.41
  -9  -9   1    2.93    1.79
  -9  -9   1   -0.27    1.04
   9   9  -1    1.64    1.47
   9   9  -1   -1.14    1.32
  -9  -9   0    9.92    2.13
  -9  -9   0   10.16    1.40
   9   9   0   10.25    1.94
   9   9   0   11.23    1.90
  -9  -9  -1    8.08    2.07
  -9  -9  -1    4.73    1.14
   9   9   1    4.44    1.48
   9   9   1    8.34    1.79
  -9  -9  -2    0.99    1.53
   9   9   2   -0.54    1.30
  -9  -9  -3    5.86    1.67
   9   9   3    4.50    1.52
   9   9   3    5.11    1.34
  -9  -9  -4   -1.69    1.26
  -9  -9  -4   -1.32    1.39
   9   9   4    0.03    1.14
   9   9   4    0.75    1.09
  -9  -9  -5   -0.42    1.18
  -9  -9  -5    0.63    1.29
   9   9   5    0.20    1.10
   9   9   5    0.80    1.05
   9   9   6    3.64    1.25
  -9  -9  -6    4.42    1.60
  -9  -9  -6    5.09    1.44
  -9  -9  -6    6.00    1.59
   9   9   6    2.97    1.33
   9   9   7    1.25    1.01
  -9  -9  -7    2.07    1.29
  -9  -9  -7    2.33    1.29
  -9  -9  -7    0.23    1.20
   9   9   7    2.47    1.37
  -9  -9  -8   90.93    4.28
  -9  -9  -8   90.52    3.89
  -9  -9  -8   92.09    4.14
   9   9   8   93.47    3.92
   9   9   8   92.16    3.31
  -9  -9  -9   58.70    3.47
   9   9   9   57.39    2.66
  -9  -9  -9   60.92    3.40
  -9  -9  -9   60.27    3.44
   9   9   9   57.34    3.48
   9   9   9   60.37    3.30
  -9  -9 -10   23.65    2.32
  -9  -9 -10   28.02    2.45
   9   9  10   24.81    1.89
   9   9  10   27.00    2.45
  -9  -9 -11    1.02    1.45
  -9  -9 -11   -0.12    1.10
   9   9  11    0.74    1.37
   9   9  11    0.17    0.88
   9   9  11    1.58    1.37
   9   9  12   -1.05    0.92
  -9  -9 -12    0.47    1.42
  -9  -9 -12    1.67    1.18
   9   9  12    0.46    1.24
   9   9  12    1.99    1.47
  -9  -9 -13    5.06    1.87
   9   9  13    3.66    1.12
  -9  -9 -13    3.18    1.20
   9   9  13    4.80    1.66
   9  10  -2   -1.22    1.75
   9  10  -2    2.63    1.55
   9  10  -1   13.00    2.25
   9  10  -1   19.60    2.42
  -9 -10   1   18.27    2.66
  -9 -10   0    3.10    1.92
  -9 -10   0    3.86    1.57
   9  10   0    2.60    1.54
   9  10   0    1.98    1.45
  -9 -10  -1    2.62    1.75
  -9 -10  -1    0.71    1.05
   9  10   1   -0.15    1.37
   9  10   1   -0.22    1.29
  -9 -10  -2    0.26    1.45
   9  10   2   -0.53    1.42
   9  10   2    1.84    1.24
  -9 -10  -3    3.52    1.75
   9  10   3    2.16    1.26
   9  10   3   -0.85    1.13
  -9 -10  -4    9.51    1.93
   9  10   4   10.60    1.66
   9  10   4    8.51    1.54
  -9 -10  -5   -0.73    1.56
  -9 -10  -5    2.82    1.59
   9  10   5   -0.63    1.10
   9  10   5    0.30    0.98
   9  10   6   -0.14    1.03
  -9 -10  -6    1.86    1.47
  -9 -10  -6    2.48    1.52
  -9 -10  -6   -1.02    1.23
   9  10   6    1.40    1.28
  -9 -10  -7   24.05    2.46
  -9 -10  -7   24.86    2.42
   9  10   7   23.00    1.86
   9  10   7   21.62    2.21
  -9 -10  -7   24.67    2.51
  -9 -10  -8   25.25    2.56
  -9 -10  -8   26.50    2.51
   9  10   8   30.97    2.51
   9  10   8   27.67    1.99
  -9 -10  -8   33.19    2.81
  -9 -10  -9   40.50    3.03
   9  10   9   38.77    2.17
  -9 -10  -9   47.04    3.26
  -9 -10  -9   38.71    2.90
   9  10   9   42.96    2.87
  -9 -10 -10   -0.98    1.58
  -9 -10 -10    2.37    1.43
   9  10  10    0.92    0.98
   9  10  10    0.69    1.32
  -9 -10 -11    7.66    1.93
  -9 -10 -11    5.18    1.51
   9  10  11    5.47    1.16
   9  10  11    7.61    1.71
   9  10  12    6.72    1.20
  -9 -10 -12    4.93    1.74
  -9 -10 -12    4.59    1.31
   9  10  12    7.11    1.68
   9  11   0    0.39    1.46
   9  11   0    2.05    1.46
  -9 -11  -1    8.46    2.06
   9  11   1    4.91    1.71
   9  11   1    5.98    1.67
  -9 -11  -2    0.71    1.59
   9  11   2    3.00    1.73
   9  11   2    1.73    1.16
  -9 -11  -3    4.37    1.80
   9  11   3    2.72    1.48
   9  11   3    3.98    1.46
  -9 -11  -4    0.98    1.46
   9  11   4    4.24    1.34
   9  11   4    5.01    1.38
  -9 -11  -5    1.13    1.28
   9  11   5    2.76    1.24
   9  11   5    1.32    1.07
   9  11   6    2.32    1.11
  -9 -11  -6    0.26    1.35
  -9 -11  -6    2.36    1.46
   9  11   6    0.22    1.20
  -9 -11  -7    5.85    1.85
  -9 -11  -7    6.76    2.05
  -9 -11  -7    9.26    1.86
   9  11   7    9.79    1.40
   9  11   7    9.98    1.72
  -9 -11  -8    5.10    1.58
  -9 -11  -8    2.21    1.67
   9  11   8    3.77    1.03
  -9 -11  -8    3.76    1.53
   9  11   8    1.98    1.26
  -9 -11  -9   16.12    2.53
   9  11   9   13.83    1.38
   9  11   9   14.59    1.94
  -9 -11  -9   13.50    2.10
  -9 -11 -10    1.16    1.71
  -9 -11 -10    1.30    1.43
   9  11  10    1.33    0.87
   9  11  10   -0.59    1.26
  -9 -11 -11    0.40    1.75
  -9 -11 -11    3.05    1.40
   9  11  11    2.44    1.37
  -9 -12  -4    1.94    1.72
   9  12   4    0.42    1.15
   9  12   4    3.01    1.29
  -9 -12  -5    4.86    1.97
   9  12   5    4.46    1.40
   9  12   5    3.18    1.11
   9  12   6    4.30    1.25
  -9 -12  -6    3.74    1.69
   9  12   6    5.93    1.50
  -9 -12  -7   -1.03    1.62
   9  12   7   -0.01    0.94
   9  12   7    1.03    1.27
  -9 -12  -8   -2.04    1.49
  -9 -12  -8    2.59    2.03
   9  12   8    0.37    0.83
   9  12   8    3.25    1.37
  10  -5  -1    0.11    1.16
  10  -5  -1    1.96    1.26
  10  -5   0   17.17    2.04
  10  -5   0   17.29    1.98
  10  -5   1    7.39    1.68
  10  -5   1    8.74    1.61
  10  -5   2   24.86    2.41
  10  -5   2   27.79    2.37
  10  -5   3   10.99    1.65
  10  -5   3    9.30    1.74
  10  -5   4    4.56    1.57
  10  -5   4    6.38    1.61
  10  -4  -3    7.00    1.57
  10  -4  -3    9.67    1.67
  10  -4  -2    9.26    1.59
  10  -4  -2    9.56    1.59
  10  -4  -1    2.48    1.29
  10  -4  -1    3.52    1.29
  10  -4   0   14.82    1.97
  10  -4   0   12.10    1.76
  10  -4   1    2.48    1.38
 -10   4  -1    3.51    1.51
  10  -4   1    5.29    1.30
  10  -4   2   18.71    2.19
 -10   4  -2   13.84    2.09
  10  -4   2   16.22    1.94
 -10   4  -3    4.21    1.55
  10  -4   3    4.25    1.38
  10  -4   3    3.45    1.21
  10  -4   4    9.98    1.82
  10  -4   4    5.79    1.54
  10  -4   5   12.25    1.89
  10  -4   5    8.33    1.51
  10  -4   6    2.99    1.52
  10  -4   6    1.57    1.49
  10  -4   7    4.56    1.64
  10  -4   7    1.96    1.28
  10  -3  -4   15.44    2.03
  10  -3  -4   11.36    1.76
  10  -3  -3    6.77    1.59
  10  -3  -3    6.79    1.49
  10  -3  -2    5.33    1.56
  10  -3  -2   12.69    1.76
  10  -3  -1    0.40    1.07
  10  -3  -1   -0.59    1.20
  10  -3   0   -0.51    1.24
  10  -3   0    1.31    1.18
  10  -3   1    6.85    1.45
 -10   3  -1    8.62    1.84
  10  -3   1    8.90    1.67
  10  -3   2   92.37    4.04
 -10   3  -2   79.81    4.10
  10  -3   2   89.81    3.87
  10  -3   3   64.82    3.51
 -10   3  -3   53.21    3.37
  10  -3   3   63.20    3.35
  10  -3   4    9.43    1.76
 -10   3  -4    8.23    1.81
  10  -3   4   12.45    1.82
  10  -3   5    3.88    1.42
  10  -3   5    2.84    1.49
  10  -3   6    0.88    1.31
  10  -3   6    5.07    1.55
  10  -3   7    3.31    1.44
  10  -3   7    4.99    1.49
  10  -3   8   13.04    2.11
  10  -3   8   10.24    1.81
  10  -3   9   -0.46    1.29
  10  -2  -5    3.33    1.35
  10  -2  -5    3.95    1.57
  10  -2  -4    7.17    1.71
  10  -2  -4   12.86    2.02
  10  -2  -3    4.67    1.58
  10  -2  -3    3.49    1.33
  10  -2  -2    5.22    1.40
  10  -2  -2    2.27    1.28
  10  -2  -1    7.37    1.65
  10  -2  -1    6.93    1.59
  10  -2   0    1.85    1.27
 -10   2   0    2.47    1.52
  10  -2   0    0.94    1.21
  10  -2   1    1.36    1.17
 -10   2  -1   -1.70    1.36
  10  -2   1    2.13    1.26
  10  -2   2    8.46    1.58
 -10   2  -2    6.61    1.57
  10  -2   2    9.26    1.63
  10  -2   3    0.15    1.23
 -10   2  -3   -0.13    1.28
  10  -2   3   -1.07    1.26
  10  -2   4   -1.10    1.26
 -10   2  -4   -0.71    1.27
  10  -2   4   -0.47    1.21
  10  -2   5    3.64    0.64
  10  -2   5    2.52    1.37
  10  -2   5    5.03    1.43
  10  -2   6    8.13    1.59
  10  -2   6    8.35    1.66
  10  -2   7   11.36    1.92
  10  -2   7   12.27    2.06
  10  -2   8   15.85    2.02
  10  -2   8   17.68    2.21
  10  -2   9    3.57    1.56
  10  -2   9    2.86    1.40
  10  -2  10    2.32    1.38
  10  -1  -6   -0.68    1.36
  10  -1  -6   -0.61    1.32
  10  -1  -5    2.05    1.58
  10  -1  -5    1.35    1.31
  10  -1  -4    1.59    1.36
  10  -1  -4    0.99    1.32
  10  -1  -4    3.25    1.51
  10  -1  -3   10.61    1.75
  10  -1  -3   12.13    2.12
  10  -1  -3    9.33    1.84
  10  -1  -2    3.55    1.40
  10  -1  -2    2.80    1.39
  10  -1  -2    2.86    1.35
  10  -1  -1    6.86    1.69
  10  -1  -1    9.15    1.69
  10  -1  -1    6.19    1.55
 -10   1   0   26.19    2.58
  10  -1   0   31.70    2.54
  10  -1   0   24.68    2.38
  10  -1   1    1.53    1.14
 -10   1  -1    0.96    1.32
  10  -1   1    0.81    1.17
  10  -1   2    3.03    1.35
 -10   1  -2    1.25    1.42
  10  -1   2    3.40    1.21
  10  -1   3   32.16    2.52
 -10   1  -3   32.67    2.80
  10  -1   3   35.21    2.63
  10  -1   4   -0.41    1.26
 -10   1  -4   -0.07    1.24
  10  -1   4   -0.66    1.17
  10  -1   5    2.34    1.36
 -10   1  -5    1.11    1.23
  10  -1   5    2.99    1.39
  10  -1   6    0.51    0.49
  10  -1   6    0.52    1.25
  10  -1   6   -0.51    1.33
  10  -1   7    3.49    0.90
  10  -1   7    1.62    1.13
  10  -1   7    3.23    1.32
  10  -1   8    2.37    0.97
  10  -1   8    3.35    1.43
  10  -1   8    1.67    1.28
  10  -1   9    0.14    1.35
  10  -1   9    1.89    1.39
  10  -1  10    2.48    1.44
  10  -1  10    3.24    1.38
  10  -1  11    4.63    1.64
  10  -1  11    7.58    1.81
  10   0  -6    0.35    1.53
  10   0  -6   -1.13    1.48
  10   0  -5   -0.65    1.29
  10   0  -5   -1.35    1.36
  10   0  -4   -0.87    1.37
  10   0  -4    1.91    1.38
  10   0  -4   -0.96    1.45
  10   0  -3    0.81    1.44
  10   0  -3    3.13    1.50
  10   0  -3    1.99    1.43
  10   0  -2    3.91    1.57
  10   0  -2    3.77    1.43
  10   0  -2    1.60    1.31
  10   0  -1    8.02    1.54
  10   0  -1    5.01    1.57
  10   0  -1    4.05    1.56
  10   0   0    0.84    1.22
  10   0   0    2.24    1.38
 -10   0   0    2.93    1.52
  10   0   0    3.11    1.38
  10   0   1    4.23    1.56
  10   0   1    4.24    1.39
 -10   0  -1    2.67    1.55
  10   0   1    3.80    1.42
  10   0   2    0.86    1.35
  10   0   2    2.10    1.27
 -10   0  -2    1.21    1.44
  10   0   2    1.00    1.31
  10   0   3    1.51    1.35
  10   0   3    1.46    1.16
 -10   0  -3    1.96    1.31
  10   0   3    1.82    1.35
  10   0   4   11.30    1.65
 -10   0  -4   12.39    1.91
  10   0   4    9.25    1.63
  10   0   5    0.95    1.09
 -10   0  -5    1.59    1.30
  10   0   5   -0.38    1.16
  10   0   6    3.99    1.39
 -10   0  -6    4.48    1.40
  10   0   6    4.27    1.46
  10   0   7    1.12    1.18
  10   0   7    0.52    1.18
  10   0   8    2.58    0.97
  10   0   8    2.61    1.30
  10   0   8    2.41    1.18
  10   0   9    2.97    1.54
  10   0   9    1.17    1.11
  10   0   9    0.71    1.32
  10   0  10    0.73    1.38
  10   0  10    2.43    1.60
  10   0  11   -0.49    1.26
  10   0  11    1.78    1.57
  10   0  12    0.78    1.40
  10   0  12    0.79    1.57
 -10  -1   6    1.64    1.28
  10   1  -6    0.09    1.37
  10   1  -6    0.63    1.40
 -10  -1   5   -0.46    1.27
  10   1  -5    0.07    1.36
  10   1  -5    1.24    1.39
 -10  -1   4    7.41    1.61
  10   1  -4    2.93    1.42
  10   1  -4    3.81    1.48
  10   1  -4    3.72    1.54
 -10  -1   3    2.10    1.37
  10   1  -3    0.77    1.27
  10   1  -3    0.53    1.26
  10   1  -3    2.01    1.44
 -10  -1   2    3.07    1.31
  10   1  -2    0.39    1.26
  10   1  -2    1.61    1.47
  10   1  -2    3.98    1.45
 -10  -1   1    1.54    1.18
  10   1  -1    4.73    1.58
  10   1  -1    3.64    1.44
  10   1  -1    4.02    1.40
 -10  -1   0    8.78    1.94
  10   1   0   10.67    1.79
  10   1   0    9.72    1.70
  10   1   0    8.10    1.69
 -10  -1  -1   34.53    2.96
  10   1   1   42.91    2.99
  10   1   1   41.06    2.90
  10   1   1   38.74    2.83
  10   1   2    4.00    1.38
  10   1   2    4.47    1.33
 -10  -1  -2    4.40    1.63
  10   1   2    5.62    1.46
 -10  -1  -3   17.13    2.16
  10   1   3   24.49    2.21
  10   1   3   20.81    2.06
  10   1   3   18.77    2.28
 -10  -1  -4   35.06    2.91
 -10  -1  -4   31.40    2.69
  10   1   4   30.85    2.51
  10   1   4   31.76    2.81
  10   1   4   30.16    2.40
  10   1   5    3.53    1.70
  10   1   5    4.28    1.39
 -10  -1  -5    1.31    1.37
 -10  -1  -5    3.20    1.54
  10   1   5    1.33    1.31
  10   1   6    4.92    1.49
 -10  -1  -6    7.30    1.61
  10   1   6    5.04    1.44
  10   1   7   -1.99    1.36
  10   1   7    2.41    1.45
  10   1   8   16.73    2.03
  10   1   8   13.58    2.01
  10   1   9    0.28    1.30
  10   1   9   -0.37    1.27
  10   1  10    6.51    1.72
  10   1  10    5.26    1.60
  10   1  11    2.27    1.32
  10   1  11    6.50    1.79
  10   1  12    2.53    1.59
  10   1  12    3.32    1.64
  10   1  13    0.37    1.44
 -10  -2   6    6.10    1.49
  10   2  -6    9.93    2.14
  10   2  -6    8.79    2.02
 -10  -2   5    1.46    1.21
  10   2  -5    0.76    1.47
  10   2  -5    0.11    1.50
 -10  -2   4   -1.43    1.17
  10   2  -4   -0.99    1.27
  10   2  -4    1.57    1.44
 -10  -2   3    0.11    1.17
  10   2  -3    5.41    1.68
  10   2  -3    2.37    1.47
  10   2  -3    2.21    1.41
 -10  -2   2    2.86    1.47
  10   2  -2    2.59    1.35
  10   2  -2    2.57    1.42
  10   2  -2    3.58    1.56
 -10  -2   1    2.96    1.32
  10   2  -1    1.38    1.37
  10   2  -1    2.08    1.44
  10   2  -1    4.27    1.37
 -10  -2   0    7.69    1.61
  10   2   0    8.60    1.69
  10   2   0    6.70    1.61
  10   2   0    8.31    1.92
  10   2   1    1.65    1.27
 -10  -2  -1    1.27    1.23
 -10  -2  -1    1.06    1.40
  10   2   1    2.14    1.44
  10   2   1    2.20    1.35
 -10  -2  -2   30.35    2.43
 -10  -2  -2   25.44    2.58
  10   2   2   29.17    2.61
  10   2   2   24.09    2.37
  10   2   2   28.97    2.58
 -10  -2  -3   65.14    3.38
 -10  -2  -3   67.39    3.77
  10   2   3   72.35    3.59
  10   2   3   76.19    3.62
  10   2   3   61.07    3.57
  10   2   4    7.24    1.55
 -10  -2  -4    5.01    1.42
 -10  -2  -4    6.65    1.74
  10   2   4    8.38    1.60
  10   2   4    8.29    1.53
  10   2   5    4.15    1.44
  10   2   5    4.38    1.29
 -10  -2  -5    4.56    1.50
 -10  -2  -5    7.24    1.72
  10   2   5    5.46    1.49
  10   2   6   17.82    1.90
  10   2   6   10.94    1.86
 -10  -2  -6   12.26    2.01
 -10  -2  -6   12.46    1.93
  10   2   6   11.28    1.84
 -10  -2  -7    7.90    1.75
  10   2   7   12.50    1.87
  10   2   8    1.29    1.21
  10   2   8    2.75    1.45
  10   2   9    1.21    1.22
  10   2   9   -0.50    1.37
  10   2  10   13.41    1.90
  10   2  10   14.55    2.10
  10   2  11    5.46    1.63
  10   2  11    4.38    1.71
  10   2  12   18.84    2.19
  10   2  12   15.18    2.19
  10   2  13    0.59    1.37
  10   2  13    0.29    1.40
 -10  -3   6   -0.72    1.28
  10   3  -6    1.11    1.58
 -10  -3   5    7.29    1.71
  10   3  -5   12.31    2.15
  10   3  -5    8.70    1.94
 -10  -3   4    6.26    1.65
  10   3  -4    6.54    1.74
  10   3  -4    5.62    1.74
 -10  -3   3    1.10    1.33
  10   3  -3    1.74    1.30
 -10  -3   2    1.13    1.15
  10   3  -2    2.29    1.31
  10   3  -2    1.53    1.33
 -10  -3   1    7.07    1.59
  10   3  -1    9.60    1.66
  10   3  -1    9.10    1.64
  10   3  -1   10.90    1.93
 -10  -3   0    0.52    1.09
  10   3   0    2.01    1.40
  10   3   0    2.46    1.45
 -10  -3  -1    4.03    1.52
 -10  -3  -1    3.55    1.59
  10   3   1    5.77    1.66
  10   3   1    6.99    1.74
  10   3   1    3.46    1.48
  10   3   2    2.94    1.45
 -10  -3  -2    3.13    1.33
 -10  -3  -2    1.47    1.56
  10   3   2   -0.33    1.19
  10   3   2    4.35    1.52
  10   3   3    2.11    1.25
 -10  -3  -3    2.34    1.36
 -10  -3  -3   -0.25    1.35
  10   3   3    3.56    1.43
  10   3   3   -1.86    1.37
 -10  -3  -4   14.38    1.97
 -10  -3  -4   11.65    1.98
  10   3   4   14.74    1.86
  10   3   4   16.87    1.90
  10   3   4   14.86    1.99
  10   3   5    4.74    1.37
  10   3   5    4.24    1.31
 -10  -3  -5    3.86    1.29
 -10  -3  -5    3.54    1.54
 -10  -3  -5    2.19    1.37
  10   3   5    4.38    1.37
 -10  -3  -6   15.25    1.94
 -10  -3  -6   17.76    2.21
  10   3   6   20.10    2.17
  10   3   6   15.11    2.01
  10   3   6   18.00    1.90
  10   3   7    2.39    1.43
  10   3   7    0.80    1.20
 -10  -3  -7   -0.92    1.37
  10   3   7    1.73    1.24
  10   3   8    3.09    1.18
 -10  -3  -8   -0.78    1.44
  10   3   8    2.36    1.42
  10   3   9   11.23    1.80
  10   3   9   16.01    2.25
  10   3  10    2.94    1.29
  10   3  10    3.48    1.55
  10   3  11   16.39    1.96
  10   3  11   18.29    2.33
  10   3  12   -1.00    1.41
  10   3  12    0.88    1.31
  10   3  13    4.20    1.54
  10   3  13    5.21    1.71
 -10  -4   5    3.93    1.63
  10   4  -5    2.04    1.61
  10   4  -5    2.45    1.60
 -10  -4   4    3.39    1.44
  10   4  -4    1.90    1.34
  10   4  -4    3.17    1.70
 -10  -4   3   20.44    2.39
  10   4  -3   19.30    2.31
  10   4  -3   21.03    2.42
 -10  -4   2    3.65    1.53
  10   4  -2    1.44    1.37
  10   4  -2    4.24    1.68
 -10  -4   1   12.27    1.87
  10   4  -1   15.88    2.09
  10   4  -1   10.69    1.75
 -10  -4   0   -0.90    1.18
  10   4   0    2.50    1.53
  10   4   0    0.24    1.37
 -10  -4  -1   -1.32    1.40
  10   4   1    3.65    1.52
  10   4   1   -0.30    1.44
  10   4   1    1.02    1.26
 -10  -4  -2    1.55    1.18
 -10  -4  -2    1.19    1.44
  10   4   2    0.16    1.20
  10   4   2   -0.16    1.22
  10   4   2   -2.14    1.41
  10   4   3    8.47    1.56
 -10  -4  -3    5.22    1.44
 -10  -4  -3    9.78    1.97
  10   4   3    7.52    1.68
  10   4   3    5.88    1.57
 -10  -4  -4   79.27    3.80
 -10  -4  -4   79.90    4.22
  10   4   4   81.47    3.83
  10   4   4   82.43    3.75
  10   4   4   75.40    4.01
 -10  -4  -5   16.87    1.89
 -10  -4  -5   20.08    2.24
  10   4   5   17.09    2.09
  10   4   5   18.42    2.32
  10   4   5   21.06    2.08
  10   4   6   -1.30    1.23
 -10  -4  -6    0.27    1.17
 -10  -4  -6   -0.02    1.28
 -10  -4  -6   -0.91    1.32
  10   4   6   -0.03    1.17
  10   4   6   -1.31    1.32
 -10  -4  -7    1.57    1.16
  10   4   7   -0.19    1.05
 -10  -4  -7   -0.24    1.36
  10   4   7   -1.00    1.44
  10   4   7    0.50    1.38
  10   4   8   27.50    2.30
 -10  -4  -8   24.08    2.39
  10   4   8   25.26    2.43
  10   4   8   27.43    2.60
  10   4   9   11.05    1.68
 -10  -4  -9    8.60    1.64
  10   4   9   10.95    1.83
  10   4  10    7.08    1.54
  10   4  10    4.87    1.73
  10   4  11   -0.04    1.49
  10   4  11    3.36    1.41
  10   4  12    0.98    1.27
  10   4  12    0.19    1.56
  10   4  13    1.18    1.36
 -10  -4 -13    1.61    1.30
  10   4  13    3.27    1.77
  10   4  14    1.03    1.41
 -10  -5   5    0.36    1.48
  10   5  -5    3.01    1.85
  10   5  -5    1.39    1.74
 -10  -5   4    2.11    1.65
  10   5  -4    1.60    1.61
  10   5  -4    2.57    1.64
 -10  -5   3   10.00    1.99
  10   5  -3   12.11    2.28
  10   5  -3   11.03    2.20
 -10  -5   2    1.06    1.31
  10   5  -2    1.28    1.69
  10   5  -2    0.33    1.41
 -10  -5   1    0.07    1.28
  10   5  -1    1.26    1.52
 -10  -5   0    0.30    1.40
  10   5   0    4.19    1.70
  10   5   0    4.58    1.65
 -10  -5  -1    5.42    1.69
  10   5   1   11.06    1.99
  10   5   1   10.19    1.87
 -10  -5  -2    2.42    1.63
  10   5   2    0.75    1.37
  10   5   2    0.32    1.20
 -10  -5  -3    0.74    1.21
 -10  -5  -3    1.68    1.43
  10   5   3   -1.58    1.44
  10   5   3   -0.01    1.40
  10   5   3    0.92    1.24
 -10  -5  -4   12.62    1.89
 -10  -5  -4   10.74    1.93
  10   5   4   13.17    1.82
  10   5   4   14.08    1.93
  10   5   4   11.64    2.02
  10   5   5    3.74    1.32
 -10  -5  -5    4.77    1.42
 -10  -5  -5    1.75    1.33
  10   5   5    5.19    1.55
  10   5   5    4.27    1.57
 -10  -5  -6   26.84    2.39
 -10  -5  -6   27.66    2.52
  10   5   6   27.98    2.72
  10   5   6   29.97    2.57
  10   5   6   27.52    2.26
 -10  -5  -7   59.26    3.35
  10   5   7   58.67    3.59
  10   5   7   63.54    3.51
  10   5   7   60.95    3.09
  10   5   8   10.45    1.63
 -10  -5  -8    6.04    0.72
 -10  -5  -8    5.61    1.39
 -10  -5  -8    7.78    1.59
  10   5   8    7.59    1.74
 -10  -5  -9   -0.22    0.72
 -10  -5  -9    0.58    1.32
  10   5   9   -0.91    1.21
  10   5   9    1.16    1.30
 -10  -5 -10    5.83    1.01
 -10  -5 -10    5.31    1.58
  10   5  10    5.60    1.40
  10   5  10    6.21    1.71
 -10  -5 -11    0.53    0.91
  10   5  11    0.16    1.09
  10   5  11   -0.96    1.48
 -10  -5 -12   16.29    1.77
  10   5  12   20.76    2.14
  10   5  12   16.80    2.30
  10   5  13    2.12    1.34
 -10  -5 -13    1.44    1.37
  10   5  13   -2.34    1.90
 -10  -5 -14   22.23    2.29
  10   5  14   23.63    2.32
 -10  -6   4    2.26    1.60
  10   6  -4    3.67    1.93
  10   6  -4    1.89    1.58
 -10  -6   3    4.94    1.84
  10   6  -3    5.50    1.80
  10   6  -3    1.16    1.58
 -10  -6   2    5.11    1.57
  10   6  -2    8.75    2.05
  10   6  -2    5.55    1.66
 -10  -6   1    8.54    1.94
  10   6  -1    9.03    2.05
  10   6  -1    5.48    1.78
 -10  -6   0    6.27    1.80
  10   6   0    7.64    1.79
  10   6   0    9.23    1.82
 -10  -6  -1   26.02    2.69
  10   6   1   19.06    2.17
  10   6   1   25.97    2.51
  10   6   2   13.26    2.00
  10   6   2   12.00    1.96
  10   6   3   38.74    2.72
  10   6   3   46.49    3.06
  10   6   4    0.71    1.21
 -10  -6  -4    0.69    1.15
 -10  -6  -4    1.36    1.38
  10   6   4    2.94    1.45
 -10  -6  -5   19.77    2.15
 -10  -6  -5   19.25    2.33
  10   6   5   20.53    2.06
  10   6   5   20.66    2.12
 -10  -6  -6   47.52    3.18
  10   6   6   49.24    3.11
  10   6   6   49.63    2.84
 -10  -6  -7    8.65    0.72
 -10  -6  -7    7.65    1.56
  10   6   7    9.51    1.79
  10   6   7    9.15    1.57
 -10  -6  -8    8.04    0.92
 -10  -6  -8    8.40    1.51
  10   6   8    7.67    1.42
  10   6   8    8.01    1.68
  10   6   9    8.96    1.58
 -10  -6  -9    9.20    1.09
 -10  -6  -9    7.51    1.52
 -10  -6  -9    8.01    1.75
  10   6   9    8.86    1.66
 -10  -6 -10    8.23    1.19
  10   6  10   10.35    1.63
 -10  -6 -10    7.20    1.54
 -10  -6 -10    5.52    1.69
  10   6  10    4.94    1.59
 -10  -6 -11    9.12    1.43
 -10  -6 -11    4.33    1.48
  10   6  11    7.32    1.50
  10   6  11    7.38    1.82
  10   6  12    0.49    1.22
 -10  -6 -12    3.58    1.24
  10   6  12    3.16    1.68
  10   6  13    3.49    1.39
 -10  -6 -13    1.92    1.17
  10   6  13   -1.07    1.47
 -10  -7   3   -0.55    1.61
  10   7  -3   -0.66    1.68
  10   7  -3   -0.23    1.57
 -10  -7   2    5.05    1.78
  10   7  -2    5.77    1.89
  10   7  -2    4.56    1.82
 -10  -7   1    0.76    1.53
  10   7  -1    0.34    1.65
  10   7  -1   -0.46    1.44
 -10  -7   0    1.04    1.47
 -10  -7   0    0.42    0.30
  10   7   0    0.06    1.38
  10   7   0   -1.12    1.43
  10   7   1   15.75    2.13
  10   7   1    9.48    1.88
 -10  -7  -1   11.19    2.09
 -10  -7  -2    0.28    1.43
  10   7   2    0.92    1.35
  10   7   2    0.69    1.19
 -10  -7  -3    9.68    1.93
  10   7   3   11.06    1.87
  10   7   3    5.00    1.61
 -10  -7  -4    1.47    0.27
 -10  -7  -4    1.47    1.33
  10   7   4    2.56    1.44
  10   7   4    2.67    1.36
  10   7   5    4.54    1.35
 -10  -7  -5    2.88    1.47
 -10  -7  -5    2.55    0.45
  10   7   5    4.17    1.48
  10   7   6    2.36    1.26
 -10  -7  -6    3.55    1.39
 -10  -7  -6    0.34    0.53
  10   7   6    0.19    1.40
 -10  -7  -7   98.06    2.62
 -10  -7  -7   96.48    4.36
  10   7   7  100.20    4.28
  10   7   7  102.32    3.91
 -10  -7  -8    2.70    0.92
 -10  -7  -8    0.28    1.34
  10   7   8    4.14    1.27
  10   7   8    3.85    1.42
 -10  -7  -9    7.25    1.12
 -10  -7  -9    8.35    1.64
  10   7   9    8.16    1.47
  10   7   9    7.95    1.78
 -10  -7 -10    1.71    1.03
 -10  -7 -10   -1.30    1.19
  10   7  10    1.08    1.11
  10   7  10    0.48    1.33
 -10  -7 -11    3.68    1.17
 -10  -7 -11    6.60    1.53
 -10  -7 -11    3.74    1.59
  10   7  11    7.10    1.41
  10   7  11    3.26    1.48
  10   7  12    0.76    1.15
 -10  -7 -12   -0.49    1.15
 -10  -7 -12    2.50    1.38
  10   7  12    1.36    1.48
  10   7  13   16.50    1.89
  10   7  13   18.07    2.49
 -10  -8   2    4.14    1.79
  10   8  -2    5.01    1.94
  10   8  -2    1.88    1.55
 -10  -8   1   -0.50    1.70
  10   8  -1    3.05    1.89
  10   8  -1    0.83    1.37
 -10  -8   0    3.29    1.56
  10   8   0    2.53    1.49
  10   8   0    2.71    1.59
 -10  -8  -1    3.82    1.58
  10   8   1    4.17    1.59
  10   8   1    1.73    1.32
 -10  -8  -2    4.83    0.73
 -10  -8  -2    8.76    1.98
  10   8   2    7.24    1.77
  10   8   2    8.08    1.85
 -10  -8  -3    3.70    0.71
 -10  -8  -3    4.92    1.55
 -10  -8  -3    3.84    0.81
  10   8   3    1.09    1.33
  10   8   3    2.53    1.26
 -10  -8  -4   15.50    1.24
  10   8   4   17.65    1.96
  10   8   4   17.82    2.07
 -10  -8  -4   16.76    2.35
 -10  -8  -5   14.24    2.10
 -10  -8  -5   13.52    1.20
  10   8   5   14.06    1.89
  10   8   5   11.42    1.76
 -10  -8  -6    5.11    1.02
  10   8   6    5.83    1.45
 -10  -8  -6    5.59    1.75
  10   8   6    5.17    1.55
  10   8   7    3.29    1.27
 -10  -8  -7    5.65    1.04
 -10  -8  -7    4.39    1.50
  10   8   7    7.24    1.83
 -10  -8  -8   16.21    1.59
 -10  -8  -8   17.79    2.13
  10   8   8   15.08    1.99
  10   8   8   19.11    1.89
 -10  -8  -9    0.78    0.95
 -10  -8  -9    0.05    1.17
  10   8   9    0.00    0.94
  10   8   9    0.83    1.38
 -10  -8 -10   21.90    1.96
 -10  -8 -10   23.25    2.38
  10   8  10   25.98    2.17
  10   8  10   23.57    2.45
 -10  -8 -11    4.75    1.40
 -10  -8 -11    2.83    1.32
  10   8  11    7.34    1.44
  10   8  11    5.83    1.61
 -10  -8 -12   12.50    1.92
 -10  -8 -12    8.18    1.65
  10   8  12    6.91    1.83
  10   8  12    6.62    1.33
  10   8  13    5.00    1.30
 -10  -8 -13    2.51    1.39
  10   8  13    6.05    1.96
 -10  -9   1   -2.58    2.00
  10   9  -1   -1.80    1.74
  10   9  -1    0.62    1.37
 -10  -9   0   -0.28    1.72
  10   9   0   -1.66    1.50
  10   9   0    0.75    1.60
 -10  -9  -1    0.42    1.56
  10   9   1   -1.64    1.42
  10   9   1   -0.17    1.36
 -10  -9  -2    4.08    1.56
  10   9   2    1.86    1.39
  10   9   2    4.79    1.69
 -10  -9  -3    1.36    1.27
  10   9   3    2.17    1.38
  10   9   3   -1.30    1.33
 -10  -9  -4   -1.68    1.48
 -10  -9  -4    0.72    1.05
  10   9   4   -2.15    1.52
  10   9   4   -0.87    1.27
 -10  -9  -5   18.07    1.76
  10   9   5   17.15    1.95
  10   9   5   17.48    2.10
 -10  -9  -5   13.59    2.18
 -10  -9  -6    8.01    1.37
  10   9   6    6.61    1.36
 -10  -9  -6    4.78    1.83
  10   9   6    3.52    1.49
  10   9   7    1.73    1.12
 -10  -9  -7    0.62    1.05
 -10  -9  -7    0.21    1.37
  10   9   7    1.56    1.45
 -10  -9  -8    1.84    1.13
 -10  -9  -8    4.22    1.54
  10   9   8    0.67    1.06
  10   9   8    2.70    1.50
 -10  -9  -9    9.62    1.95
 -10  -9  -9    4.98    1.29
  10   9   9    6.52    1.31
  10   9   9    6.77    1.68
 -10  -9 -10    0.74    1.20
 -10  -9 -10    0.47    1.32
  10   9  10   -0.51    0.99
  10   9  10    1.47    1.58
 -10  -9 -11    1.16    1.20
 -10  -9 -11    0.33    1.29
  10   9  11    2.88    1.16
  10   9  11    1.37    1.42
 -10  -9 -12    4.81    1.61
 -10  -9 -12    6.08    1.53
  10   9  12    6.93    1.81
  10   9  12    4.26    1.26
  10  10   1   -0.04    1.44
  10  10   1    1.54    1.52
 -10 -10  -2    0.09    1.51
  10  10   2    0.60    1.36
  10  10   2    1.80    1.36
 -10 -10  -3    4.67    1.89
  10  10   3    6.09    1.74
  10  10   3    1.77    1.43
 -10 -10  -4    7.86    1.92
  10  10   4   13.32    1.85
  10  10   4   12.83    1.89
 -10 -10  -5   13.23    1.81
 -10 -10  -5    8.23    1.97
  10  10   5   10.28    1.83
  10  10   5    6.34    1.50
  10  10   6    6.48    1.45
 -10 -10  -6    8.21    1.97
 -10 -10  -6    7.80    1.51
  10  10   6    7.46    1.74
  10  10   7    4.50    1.26
 -10 -10  -7    4.50    1.47
 -10 -10  -7    4.50    1.85
  10  10   7    6.98    1.67
 -10 -10  -8   -1.03    1.41
 -10 -10  -8   -0.56    1.49
  10  10   8    1.16    1.05
  10  10   8    2.31    1.40
 -10 -10  -9   -0.59    1.42
 -10 -10  -9    4.37    1.83
  10  10   9    5.41    1.35
  10  10   9    4.65    1.65
 -10 -10 -10    2.56    1.46
 -10 -10 -10    2.44    1.53
  10  10  10    2.30    1.17
  10  10  10   -0.80    1.32
  10  11   4    1.19    1.36
  10  11   4    2.33    1.45
 -10 -11  -5    1.17    1.52
  10  11   5    1.43    1.35
  10  11   5    1.46    1.29
  10  11   6    4.33    1.40
 -10 -11  -6    3.88    1.81
 -10 -11  -6    1.92    1.49
  10  11   6    3.03    1.46
  10  11   7    0.70    1.24
 -10 -11  -7    0.73    1.58
 -10 -11  -7   -0.61    1.57
  10  11   7   -0.26    1.41
 -10 -11  -8    2.21    1.48
 -10 -11  -8    1.28    1.58
  10  11   8    3.91    1.18
  10  11   8    2.93    1.42
  11  -3   1   12.33    2.12
  11  -3   1   17.02    2.08
  11  -3   2    0.01    1.41
  11  -3   2    0.59    1.31
  11  -3   3    6.82    1.74
  11  -3   3    3.60    1.48
  11  -3   4    5.24    1.76
  11  -3   4    0.73    1.30
  11  -2  -1    1.11    1.35
  11  -2  -1    2.89    1.45
  11  -2   0   -0.84    1.36
  11  -2   0    0.54    1.20
  11  -2   1    0.11    1.30
  11  -2   1    1.03    1.22
  11  -2   2   13.42    2.03
  11  -2   2    9.52    1.85
  11  -2   3   19.73    2.32
  11  -2   3   14.57    2.07
  11  -2   4   -2.28    1.63
  11  -2   4   -1.22    1.34
  11  -2   5    3.64    1.60
  11  -2   5    0.86    1.25
  11  -2   6   -0.90    1.18
  11  -2   6    0.74    1.27
  11  -2   7    0.18    1.32
  11  -1  -3    7.26    1.80
  11  -1  -3    7.09    2.26
  11  -1  -2    2.70    1.40
  11  -1  -2    2.00    1.32
  11  -1  -1    4.51    1.58
  11  -1  -1    2.72    1.52
  11  -1   0   15.49    2.16
  11  -1   0   13.35    2.01
  11  -1   1   36.51    2.90
  11  -1   1   39.33    2.95
  11  -1   2    1.38    1.33
  11  -1   2    1.40    1.20
  11  -1   3    5.05    1.65
  11  -1   3    7.85    1.83
  11  -1   4    8.35    1.83
  11  -1   4    8.44    1.74
  11  -1   5   -0.95    1.22
  11  -1   5   -1.74    1.48
  11  -1   6    7.93    1.80
  11  -1   6    5.66    1.74
  11  -1   7    0.31    1.22
  11  -1   7   -1.52    1.48
  11  -1   8    1.08    1.52
  11  -1   8    2.72    1.49
  11  -1   9   43.11    3.28
  11   0  -3   12.01    2.02
  11   0  -3    9.43    1.87
  11   0  -2    0.49    1.30
  11   0  -2   -0.40    1.40
  11   0  -1   -0.11    1.15
  11   0  -1    3.09    1.58
  11   0   0    1.63    1.27
  11   0   0   -0.70    1.36
  11   0   1   21.90    2.37
  11   0   1   25.02    2.50
  11   0   2   28.31    2.54
  11   0   2   28.60    2.56
  11   0   3   10.81    1.82
  11   0   3   12.93    1.76
  11   0   4    2.31    1.30
  11   0   4   -0.16    1.27
  11   0   5    0.06    1.38
  11   0   5    0.71    1.29
  11   0   6    3.50    1.32
  11   0   6    3.93    1.54
  11   0   7   15.01    2.15
  11   0   7   12.74    2.01
  11   0   8    2.37    1.53
  11   0   8   -0.45    1.38
  11   0   9   13.72    2.08
  11   0   9   15.00    2.21
  11   0  10   13.55    2.15
  11   1  -3    0.39    1.66
  11   1  -3    1.61    1.51
  11   1  -2    3.51    1.70
  11   1  -2    4.36    1.62
  11   1  -1    1.61    1.33
  11   1  -1   -1.27    1.36
  11   1   0    3.30    1.39
  11   1   0    2.25    1.56
  11   1   1   35.27    2.86
  11   1   1   32.32    2.69
  11   1   2   82.68    4.05
  11   1   2   73.95    3.84
  11   1   3    1.41    1.37
  11   1   3    2.43    1.48
  11   1   4    1.92    1.15
  11   1   4    2.52    1.48
  11   1   5    5.78    1.69
  11   1   5    5.98    1.61
  11   1   6    1.95    1.32
  11   1   6    3.34    1.30
  11   1   7    4.07    1.45
  11   1   7    2.91    1.50
  11   1   8    1.11    1.44
  11   1   8    0.90    1.40
  11   1   9    0.34    1.24
  11   1   9   -1.88    1.59
  11   1  10    2.45    1.40
  11   1  10    1.40    1.49
 -11  -2   3    0.05    1.27
  11   2  -3   -0.59    1.46
  11   2  -3    1.92    1.61
 -11  -2   2    6.63    1.56
  11   2  -2    5.24    1.71
  11   2  -2    5.74    1.70
 -11  -2   1    2.54    1.29
  11   2  -1   -0.80    1.48
  11   2  -1   -1.39    1.55
  11   2   0   -0.21    1.26
 -11  -2   0    4.14    1.61
  11   2   0    1.92    1.34
  11   2   1   -1.47    1.43
 -11  -2  -1    0.43    1.25
  11   2   1   -0.52    1.39
  11   2   2   96.82    4.48
  11   2   2   99.36    4.39
  11   2   3   23.84    2.43
  11   2   3   22.57    2.31
  11   2   4   -1.30    1.33
  11   2   4    1.60    1.21
  11   2   5    2.21    1.33
  11   2   5    2.58    1.34
  11   2   6    3.51    1.49
  11   2   6    0.40    1.27
  11   2   7    2.41    1.22
  11   2   7    2.15    1.41
  11   2   8    0.16    1.36
  11   2   8   -1.64    1.40
  11   2   9    8.91    1.87
  11   2   9   10.87    2.04
  11   2  10   -2.43    1.52
  11   2  10   -2.30    1.57
  11   2  11    5.41    1.64
  11   2  11    8.68    2.17
 -11  -3   3    4.35    1.55
  11   3  -3    3.78    1.74
  11   3  -3    4.09    1.55
 -11  -3   2   -1.21    1.52
  11   3  -2    2.38    1.64
  11   3  -2    1.52    1.40
 -11  -3   1   -0.69    1.26
  11   3  -1   -1.18    1.50
  11   3  -1    0.72    1.35
 -11  -3   0    0.90    1.32
  11   3   0    0.47    1.26
  11   3   0   -0.65    1.23
 -11  -3  -1   11.94    1.95
  11   3   1   10.50    1.95
  11   3   1   12.51    2.04
  11   3   2    5.03    1.48
 -11  -3  -2    8.49    1.88
  11   3   2    9.49    1.78
 -11  -3  -3   70.10    3.85
  11   3   3   72.87    3.84
  11   3   3   73.50    3.88
  11   3   4    4.61    1.44
 -11  -3  -4    6.91    1.72
  11   3   4    6.78    1.57
  11   3   5    0.51    1.25
  11   3   5   -0.09    1.32
  11   3   6    1.98    1.28
  11   3   6    5.06    1.49
  11   3   7   12.59    1.94
  11   3   7   17.76    2.17
  11   3   8    0.93    1.19
  11   3   8    0.61    1.22
  11   3   9    1.02    1.32
  11   3   9    1.90    1.39
  11   3  10    1.15    1.26
  11   3  10    2.00    1.45
  11   3  11    2.55    1.46
  11   3  11    3.05    1.61
 -11  -4   3   -0.55    1.40
  11   4  -3    1.19    1.51
 -11  -4   2    3.23    1.48
  11   4  -2    2.88    1.49
  11   4  -2    4.67    1.83
 -11  -4   1    6.26    1.74
  11   4  -1    6.59    1.93
  11   4  -1    8.37    1.97
 -11  -4   0    1.98    1.44
  11   4   0    0.60    1.33
  11   4   0    1.84    1.44
 -11  -4  -1   19.32    2.33
  11   4   1   20.76    2.38
  11   4   1   17.77    2.28
  11   4   2    2.88    1.54
 -11  -4  -2    0.54    1.25
  11   4   2    0.57    1.38
  11   4   3    3.47    1.50
 -11  -4  -3    5.03    1.58
  11   4   3    6.88    1.56
  11   4   4   -1.48    1.26
 -11  -4  -4   -1.21    1.30
  11   4   4    0.30    1.34
 -11  -4  -5   51.91    3.33
  11   4   5   45.45    3.23
  11   4   5   52.49    3.16
 -11  -4  -6   14.19    1.96
  11   4   6   14.50    2.11
  11   4   6   14.52    2.00
  11   4   7    1.29    1.18
  11   4   7    2.06    1.56
  11   4   8   16.50    2.06
  11   4   8    8.79    1.85
  11   4   9    0.21    1.21
  11   4   9    2.76    1.73
  11   4  10    1.45    1.23
  11   4  10    4.44    1.86
  11   4  11    2.39    1.36
  11   4  11    3.60    1.76
  11   4  12    4.71    1.58
 -11  -5   2   -0.43    1.48
  11   5  -2   -2.14    1.79
  11   5  -2    0.66    1.77
 -11  -5   1    0.68    1.55
  11   5  -1    1.46    1.82
  11   5  -1    3.33    1.82
 -11  -5   0   11.31    1.92
  11   5   0   13.22    2.10
  11   5   0   12.59    2.18
 -11  -5  -1    3.57    1.62
  11   5   1   -0.41    1.39
  11   5   1    1.36    1.45
 -11  -5  -2    1.23    1.42
  11   5   2    3.69    1.48
  11   5   2    1.76    1.42
  11   5   3    0.43    1.27
 -11  -5  -3    0.90    1.35
  11   5   3    1.63    1.34
 -11  -5  -4   11.49    1.86
  11   5   4   13.54    2.09
  11   5   4   16.73    2.09
 -11  -5  -5   39.06    3.00
  11   5   5   37.88    2.95
  11   5   5   34.35    2.72
  11   5   6    1.17    1.24
 -11  -5  -6    0.63    1.20
  11   5   6    2.97    1.44
 -11  -5  -7    0.51    1.23
  11   5   7   -0.76    1.30
  11   5   7   -1.19    1.46
 -11  -5  -8    1.15    1.32
  11   5   8    1.34    1.20
  11   5   8    1.79    1.62
  11   5   9   -0.21    1.14
  11   5   9    2.78    1.66
  11   5  10    4.05    1.42
  11   5  10    3.52    1.80
  11   5  11   -1.25    1.27
  11   5  11   -1.21    1.42
  11   5  12   38.37    2.87
 -11  -6   2    4.95    1.83
 -11  -6   1    0.91    1.67
  11   6  -1    0.16    1.58
  11   6  -1   -2.09    1.73
 -11  -6   0   18.01    2.43
  11   6   0   15.24    2.21
  11   6   0   16.19    2.37
 -11  -6  -1    3.30    1.74
  11   6   1    2.67    1.73
  11   6   1    5.19    1.80
 -11  -6  -2    3.48    1.72
  11   6   2    1.67    1.38
  11   6   2    2.17    1.49
 -11  -6  -3    8.06    1.84
  11   6   3    7.10    1.85
  11   6   3    5.59    1.55
  11   6   4    2.57    1.47
 -11  -6  -4    4.72    1.58
  11   6   4    1.54    1.26
 -11  -6  -5    7.07    1.74
  11   6   5   10.59    1.82
  11   6   5    9.87    1.90
  11   6   6   10.02    1.70
 -11  -6  -6    6.66    1.62
  11   6   6    9.34    1.92
 -11  -6  -7   32.30    2.78
  11   6   7   29.62    2.85
  11   6   7   35.86    2.59
 -11  -6  -8    0.94    1.40
  11   6   8   -0.12    1.23
  11   6   8    1.14    1.54
 -11  -6  -9    0.33    1.27
  11   6   9    2.00    1.32
  11   6   9   -0.08    1.62
  11   6  10    2.16    1.42
  11   6  10    0.83    1.52
  11   6  11    4.90    1.47
  11   6  11   -1.67    1.77
  11   6  12    0.35    1.30
 -11  -7   1    3.50    1.90
  11   7  -1   -0.67    1.62
  11   7  -1    4.94    1.87
 -11  -7   0   -1.57    1.51
  11   7   0    2.08    1.87
  11   7   0    0.92    1.52
 -11  -7  -1    1.86    1.47
  11   7   1    1.84    1.52
  11   7   1    1.90    1.41
 -11  -7  -2    1.85    1.58
  11   7   2    4.39    1.76
  11   7   2   -0.45    1.39
 -11  -7  -3    4.08    1.84
  11   7   3    2.67    1.54
  11   7   3   -0.27    1.30
  11   7   4    2.08    1.36
 -11  -7  -4    3.37    1.71
  11   7   4    5.36    1.71
 -11  -7  -5   36.97    3.13
  11   7   5   39.09    2.91
  11   7   5   38.93    3.00
  11   7   6    3.35    1.50
 -11  -7  -6   -1.60    1.37
  11   7   6    1.17    1.45
  11   7   7   -1.24    1.22
 -11  -7  -7    0.31    1.33
  11   7   7    1.24    1.39
 -11  -7  -8    2.60    1.48
  11   7   8    1.32    1.21
  11   7   8    1.14    1.40
 -11  -7  -9    7.60    1.73
  11   7   9    9.57    1.67
  11   7   9    9.18    1.97
 -11  -7 -10    0.26    1.31
  11   7  10    2.09    1.26
  11   7  10    1.72    1.53
  11   7  11    2.02    1.25
  11   7  11    1.33    1.54
 -11  -8  -1    8.64    2.09
  11   8   1    7.70    1.98
  11   8   1   10.08    2.03
 -11  -8  -2    2.21    1.45
  11   8   2   -0.09    1.43
  11   8   2    3.60    1.69
 -11  -8  -3    4.75    1.71
  11   8   3    4.26    1.65
  11   8   3    4.65    1.62
 -11  -8  -4   -1.34    1.51
  11   8   4    1.56    1.53
  11   8   4    0.72    1.38
 -11  -8  -5    6.99    1.95
  11   8   5    9.89    1.87
  11   8   5   11.10    2.00
 -11  -8  -6   38.91    3.15
  11   8   6   38.44    3.08
  11   8   6   35.48    2.68
  11   8   7    0.48    1.15
 -11  -8  -7    1.26    1.29
  11   8   7    0.52    1.53
 -11  -8  -8   28.62    2.80
  11   8   8   29.34    2.82
  11   8   8   23.38    2.11
 -11  -8  -9    1.01    1.22
  11   8   9    1.69    1.18
  11   8   9    0.32    1.55
 -11  -8 -10    0.85    1.32
  11   8  10   -0.10    1.17
  11   8  10    2.29    1.57
  11   9   3    1.81    1.61
  11   9   3    2.80    1.58
 -11  -9  -4    5.70    1.83
  11   9   4    6.34    1.77
  11   9   4    4.42    1.56
 -11  -9  -5    9.13    2.07
  11   9   5   12.91    1.95
  11   9   5   12.20    2.05
 -11  -9  -6   36.95    3.28
  11   9   6   35.64    2.72
  11   9   6   30.10    2.74
 -11  -9  -7   16.18    2.46
  11   9   7   15.29    2.15
  11   9   7   19.48    2.06
 -11  -9  -8   -0.43    1.36
  11   9   8    0.85    1.21
  11   9   8    1.37    1.40
 -11  -9  -9    3.28    1.66
  11   9   9    0.44    1.06
  11   9   9    1.56    1.34
  12   0   3    4.27    1.73
  12   0   4    6.31    1.78
  12   0   5    9.88    2.12
  12   1   1    0.88    1.41
  12   1   2    3.17    1.52
  12   1   2    9.74    1.93
  12   1   3   -0.17    1.35
  12   1   3   -1.57    1.52
  12   1   4    1.48    1.28
  12   1   4   -0.30    1.55
  12   1   5    1.62    1.57
  12   1   5    1.35    1.40
  12   1   6    4.93    1.63
  12   1   7    1.17    1.50
  12   2   1    9.90    2.07
  12   2   1    6.30    1.82
  12   2   2    0.93    1.35
  12   2   2   -1.35    1.43
  12   2   3    7.57    1.68
  12   2   3   11.00    1.91
  12   2   4    1.72    1.46
  12   2   4    0.02    1.47
  12   2   5    1.00    1.46
  12   2   5    1.48    1.44
  12   2   6    1.50    1.63
  12   2   6    2.97    1.68
  12   2   7    2.36    1.54
  12   2   7    3.53    1.65
 -12  -3   0    4.62    1.68
  12   3   1    2.32    1.48
 -12  -3  -1   -1.49    1.67
  12   3   1   -1.63    1.48
 -12  -3  -2   30.67    2.86
  12   3   2   33.04    2.96
  12   3   2   29.41    2.91
  12   3   3    7.44    1.89
  12   3   3    4.66    1.59
  12   3   4    4.64    1.67
  12   3   4    6.07    1.68
  12   3   5    1.88    1.32
  12   3   5    0.40    1.48
  12   3   6   -0.57    1.44
  12   3   6    2.17    1.69
  12   3   7    6.77    1.69
  12   3   7    5.33    1.85
  12   3   8   -2.46    1.67
  12   3   8    1.72    1.68
 -12  -4  -1    9.34    1.93
  12   4   1   11.73    2.14
 -12  -4  -2   67.37    4.03
  12   4   2   71.61    4.12
  12   4   2   61.22    3.89
 -12  -4  -3   25.99    2.76
  12   4   3   23.01    2.54
  12   4   3   19.92    2.39
  12   4   4    1.89    1.45
 -12  -4  -4    1.69    1.70
  12   4   4    1.67    1.48
  12   4   5    0.90    1.51
  12   4   5   -0.06    1.39
  12   4   6   14.55    2.27
  12   4   6   14.15    2.11
  12   4   7    0.70    1.43
  12   4   7    4.59    1.58
  12   4   8    0.78    1.41
  12   4   8    0.83    1.61
  12   4   9    2.48    1.66
 -12  -5  -1    3.30    1.82
 -12  -5  -2   14.82    2.37
  12   5   2   10.87    2.19
  12   5   2   13.02    2.31
 -12  -5  -3   14.59    2.17
  12   5   3   18.08    2.44
  12   5   3   14.23    2.28
 -12  -5  -4   12.00    2.15
  12   5   4   10.71    2.10
  12   5   4   10.31    1.97
 -12  -5  -5   38.67    3.13
  12   5   5   40.73    3.36
  12   5   5   39.35    3.13
  12   5   6    4.39    1.49
 -12  -5  -6    3.37    1.40
  12   5   6    2.22    1.67
  12   5   7   -0.62    1.30
  12   5   7    0.75    1.56
  12   5   8    1.26    1.43
  12   5   8    2.71    1.79
  12   5   9   -0.13    1.29
  12   6   2    5.44    1.89
 -12  -6  -3   22.54    2.64
  12   6   3   21.09    2.57
  12   6   3   25.86    2.70
 -12  -6  -4   16.55    2.48
  12   6   4   15.40    2.30
  12   6   4   15.81    2.21
  12   6   5    2.37    1.54
 -12  -6  -5    4.45    1.64
  12   6   5    1.98    1.67
  12   6   6   -0.07    1.33
 -12  -6  -6   -1.67    1.26
  12   6   6    1.91    1.62
  12   6   7    1.55    1.46
 -12  -6  -7    1.56    1.49
  12   6   7    3.53    1.59
 -12  -6  -8    8.88    1.83
  12   6   8    7.16    1.70
  12   7   4    1.57    1.51
  12   7   5   33.47    2.97
  12   7   5   31.33    2.85
  12   7   6   11.95    2.19
  12   7   6   13.97    2.08
  12   7   7    8.92    1.76
   0   0   0    0.00    0.00

_computing_structure_solution     'SHELXT 2014/5 (Sheldrick, 2014)'
;
_shelx_hkl_checksum              53052
_shelx_shelxl_version_number     2014/7
_olex2_submission_special_instructions 'No special instructions were received'
_oxdiff_exptl_absorpt_empirical_details
;
Empirical correction (ABSPACK) includes:
- Absorption correction using spherical harmonics
- Frame scaling
- Detector area scaling
;
_oxdiff_exptl_absorpt_empirical_full_max 1.514
_oxdiff_exptl_absorpt_empirical_full_min 0.784
loop_
_space_group_symop_operation_xyz
'x, y, z'
'-x, -y, -z'
loop_
_atom_site_label
_atom_site_type_symbol
_atom_site_fract_x
_atom_site_fract_y
_atom_site_fract_z
_atom_site_U_iso_or_equiv
_atom_site_adp_type
_atom_site_occupancy
_atom_site_site_symmetry_order
_atom_site_calc_flag
_atom_site_refinement_flags_posn
F2 F 0.58088(11) 0.24070(10) 0.09204(8) 0.0259(2) Uani 1 1 d .
F1 F 0.45707(11) 0.48823(10) 0.40537(8) 0.0271(2) Uani 1 1 d .
O2 O -0.05927(13) 0.57709(11) -0.34256(9) 0.0209(3) Uani 1 1 d .
O1 O -0.13746(13) 0.76817(11) -0.29791(9) 0.0219(3) Uani 1 1 d .
H1 H -0.1814 0.7845 -0.3452 0.033 Uiso 1 1 calc GR
O4 O 1.11136(14) -0.01902(11) 0.83876(10) 0.0267(3) Uani 1 1 d .
O6 O 1.22766(14) 0.11286(11) 0.98318(9) 0.0251(3) Uani 1 1 d .
O3 O 1.08241(15) 0.18878(11) 0.83782(10) 0.0268(3) Uani 1 1 d .
H3 H 1.1264 0.1596 0.8855 0.040 Uiso 1 1 calc GR
O5 O -0.26800(14) 0.84986(12) -0.45289(10) 0.0277(3) Uani 1 1 d .
N1 N -0.35051(15) 0.80710(14) -0.57850(11) 0.0210(3) Uani 1 1 d .
N2 N 1.32987(15) -0.05301(14) 1.09844(11) 0.0226(3) Uani 1 1 d .
C13 C 0.60602(17) 0.32131(15) 0.32458(12) 0.0157(3) Uani 1 1 d .
C2 C 0.02454(17) 0.60990(15) -0.20401(12) 0.0155(3) Uani 1 1 d .
C1 C -0.06100(17) 0.64897(15) -0.28816(12) 0.0165(3) Uani 1 1 d .
C5 C 0.18789(17) 0.52856(16) -0.04914(12) 0.0171(3) Uani 1 1 d .
C21 C 0.99345(16) 0.13752(15) 0.71231(12) 0.0153(3) Uani 1 1 d .
C9 C 0.34598(18) 0.44943(16) 0.09452(13) 0.0194(3) Uani 1 1 d .
C24 C 1.06841(17) 0.09349(15) 0.80224(12) 0.0161(3) Uani 1 1 d .
C4 C 0.09120(17) 0.64847(16) -0.05931(12) 0.0178(3) Uani 1 1 d .
H4 H 0.0814 0.7012 -0.0141 0.021 Uiso 1 1 calc R
C15 C 0.54865(17) 0.30144(15) 0.17103(12) 0.0173(3) Uani 1 1 d .
C20 C 0.95498(17) 0.26772(15) 0.66721(13) 0.0173(3) Uani 1 1 d .
H20 H 0.9778 0.3295 0.6921 0.021 Uiso 1 1 calc R
C14 C 0.63508(17) 0.25788(15) 0.24395(12) 0.0176(3) Uani 1 1 d .
H14 H 0.7120 0.1870 0.2395 0.021 Uiso 1 1 calc R
C6 C 0.20062(17) 0.44947(16) -0.11697(13) 0.0193(3) Uani 1 1 d .
H6 H 0.2640 0.3695 -0.1105 0.023 Uiso 1 1 calc R
C23 C 0.88626(17) 0.08169(16) 0.59384(13) 0.0184(3) Uani 1 1 d .
H23 H 0.8631 0.0197 0.5695 0.022 Uiso 1 1 calc R
C7 C 0.11928(17) 0.49009(15) -0.19330(13) 0.0173(3) Uani 1 1 d .
H7 H 0.1278 0.4371 -0.2380 0.021 Uiso 1 1 calc R
C19 C 0.88294(17) 0.30510(16) 0.58548(13) 0.0184(3) Uani 1 1 d .
H19 H 0.8592 0.3918 0.5545 0.022 Uiso 1 1 calc R
C22 C 0.96094(17) 0.04502(15) 0.67409(12) 0.0173(3) Uani 1 1 d .
H22 H 0.9896 -0.0418 0.7027 0.021 Uiso 1 1 calc R
C12 C 0.48779(18) 0.42619(16) 0.32705(13) 0.0183(3) Uani 1 1 d .
C18 C 0.84569(17) 0.21221(16) 0.54933(12) 0.0168(3) Uani 1 1 d .
C16 C 0.69287(18) 0.28152(16) 0.40236(13) 0.0188(3) Uani 1 1 d .
C17 C 0.76444(18) 0.25038(16) 0.46788(13) 0.0195(3) Uani 1 1 d .
C27 C -0.28076(18) 0.77328(17) -0.50062(13) 0.0211(4) Uani 1 1 d .
H27 H -0.2388 0.6869 -0.4805 0.025 Uiso 1 1 calc R
C3 C 0.01031(17) 0.68865(15) -0.13638(12) 0.0168(3) Uani 1 1 d .
H3A H -0.0536 0.7683 -0.1430 0.020 Uiso 1 1 calc R
C11 C 0.40156(17) 0.46948(16) 0.25449(13) 0.0183(3) Uani 1 1 d .
H11 H 0.3239 0.5398 0.2594 0.022 Uiso 1 1 calc R
C10 C 0.43168(17) 0.40678(15) 0.17295(12) 0.0175(3) Uani 1 1 d .
C30 C 1.25444(18) -0.00372(17) 1.02399(13) 0.0206(4) Uani 1 1 d .
H30 H 1.2192 -0.0597 1.0007 0.025 Uiso 1 1 calc R
C8 C 0.27311(17) 0.48631(16) 0.02956(13) 0.0194(3) Uani 1 1 d .
C29 C 1.3852(2) 0.0288(2) 1.14097(14) 0.0295(4) Uani 1 1 d .
H29A H 1.3637 0.1162 1.1036 0.044 Uiso 1 1 calc GR
H29B H 1.4901 0.0008 1.1348 0.044 Uiso 1 1 calc GR
H29C H 1.3382 0.0232 1.2126 0.044 Uiso 1 1 calc GR
C25 C -0.4145(2) 0.94093(18) -0.61708(15) 0.0311(4) Uani 1 1 d .
H25A H -0.5202 0.9538 -0.5968 0.047 Uiso 1 1 calc GR
H25B H -0.3860 0.9617 -0.6912 0.047 Uiso 1 1 calc GR
H25C H -0.3795 0.9955 -0.5887 0.047 Uiso 1 1 calc GR
C28 C 1.3655(2) -0.19091(18) 1.13864(15) 0.0317(4) Uani 1 1 d .
H28A H 1.3156 -0.2337 1.1097 0.048 Uiso 1 1 calc GR
H28B H 1.3342 -0.2092 1.2126 0.048 Uiso 1 1 calc GR
H28C H 1.4702 -0.2209 1.1201 0.048 Uiso 1 1 calc GR
C26 C -0.3717(2) 0.7128(2) -0.62735(15) 0.0323(4) Uani 1 1 d .
H26A H -0.3237 0.6285 -0.5970 0.048 Uiso 1 1 calc GR
H26B H -0.3299 0.7327 -0.7001 0.048 Uiso 1 1 calc GR
H26C H -0.4754 0.7151 -0.6172 0.048 Uiso 1 1 calc GR
loop_
_atom_site_aniso_label
_atom_site_aniso_U_11
_atom_site_aniso_U_22
_atom_site_aniso_U_33
_atom_site_aniso_U_23
_atom_site_aniso_U_13
_atom_site_aniso_U_12
F2 0.0287(5) 0.0300(6) 0.0228(5) -0.0119(5) -0.0095(4) -0.0017(4)
F1 0.0314(6) 0.0289(6) 0.0246(5) -0.0128(5) -0.0116(4) 0.0009(4)
O2 0.0259(6) 0.0187(6) 0.0213(6) -0.0044(5) -0.0115(5) -0.0035(5)
O1 0.0263(6) 0.0175(6) 0.0251(7) -0.0033(5) -0.0171(5) 0.0007(5)
O4 0.0395(7) 0.0161(6) 0.0278(7) -0.0035(5) -0.0201(6) 0.0010(5)
O6 0.0316(7) 0.0227(6) 0.0228(7) -0.0038(5) -0.0139(5) -0.0011(5)
O3 0.0439(8) 0.0179(6) 0.0257(7) -0.0036(5) -0.0238(6) -0.0028(5)
O5 0.0300(7) 0.0251(7) 0.0307(7) -0.0035(6) -0.0164(6) -0.0024(5)
N1 0.0193(7) 0.0242(8) 0.0208(7) -0.0057(6) -0.0058(6) -0.0040(6)
N2 0.0210(7) 0.0268(8) 0.0165(7) -0.0013(6) -0.0044(6) -0.0018(6)
C13 0.0151(7) 0.0161(8) 0.0155(8) 0.0016(6) -0.0048(6) -0.0060(6)
C2 0.0145(7) 0.0169(8) 0.0152(8) 0.0000(6) -0.0039(6) -0.0062(6)
C1 0.0160(8) 0.0175(8) 0.0157(8) 0.0001(6) -0.0045(6) -0.0051(6)
C5 0.0143(7) 0.0217(8) 0.0157(8) 0.0025(7) -0.0059(6) -0.0080(6)
C21 0.0132(7) 0.0170(8) 0.0147(8) -0.0027(6) -0.0035(6) -0.0015(6)
C9 0.0179(8) 0.0217(8) 0.0185(8) -0.0009(7) -0.0047(7) -0.0066(6)
C24 0.0155(7) 0.0169(8) 0.0162(8) -0.0046(6) -0.0043(6) -0.0015(6)
C4 0.0192(8) 0.0206(8) 0.0153(8) -0.0036(7) -0.0043(6) -0.0064(6)
C15 0.0191(8) 0.0194(8) 0.0155(8) -0.0045(7) -0.0035(6) -0.0069(6)
C20 0.0180(8) 0.0157(8) 0.0196(8) -0.0040(7) -0.0067(6) -0.0027(6)
C14 0.0173(8) 0.0154(8) 0.0186(8) -0.0004(6) -0.0046(6) -0.0032(6)
C6 0.0166(8) 0.0176(8) 0.0220(9) -0.0008(7) -0.0069(6) -0.0012(6)
C23 0.0196(8) 0.0194(8) 0.0181(8) -0.0045(7) -0.0055(6) -0.0049(6)
C7 0.0178(8) 0.0176(8) 0.0174(8) -0.0043(6) -0.0045(6) -0.0036(6)
C19 0.0182(8) 0.0160(8) 0.0191(8) 0.0000(7) -0.0062(6) -0.0014(6)
C22 0.0185(8) 0.0150(8) 0.0184(8) -0.0023(6) -0.0065(6) -0.0021(6)
C12 0.0211(8) 0.0190(8) 0.0164(8) -0.0039(7) -0.0042(6) -0.0064(6)
C18 0.0136(7) 0.0224(8) 0.0138(8) -0.0038(7) -0.0031(6) -0.0023(6)
C16 0.0187(8) 0.0194(8) 0.0183(8) -0.0026(7) -0.0047(6) -0.0043(6)
C17 0.0177(8) 0.0208(8) 0.0191(8) -0.0030(7) -0.0044(6) -0.0030(6)
C27 0.0189(8) 0.0201(8) 0.0232(9) -0.0021(7) -0.0056(7) -0.0037(6)
C3 0.0148(7) 0.0170(8) 0.0182(8) -0.0024(7) -0.0041(6) -0.0033(6)
C11 0.0171(8) 0.0174(8) 0.0195(8) -0.0018(7) -0.0062(6) -0.0018(6)
C10 0.0163(8) 0.0196(8) 0.0177(8) 0.0005(7) -0.0059(6) -0.0078(6)
C30 0.0211(8) 0.0237(9) 0.0160(8) -0.0049(7) -0.0039(7) -0.0017(7)
C8 0.0170(8) 0.0214(8) 0.0194(8) -0.0009(7) -0.0050(7) -0.0053(6)
C29 0.0253(9) 0.0428(11) 0.0223(9) -0.0033(9) -0.0097(7) -0.0093(8)
C25 0.0341(10) 0.0318(10) 0.0259(10) -0.0053(8) -0.0160(8) 0.0052(8)
C28 0.0329(10) 0.0281(10) 0.0230(10) 0.0018(8) -0.0056(8) 0.0053(8)
C26 0.0377(11) 0.0366(11) 0.0277(10) -0.0129(9) -0.0051(8) -0.0121(9)
loop_
_atom_type_symbol
_atom_type_description
_atom_type_scat_dispersion_real
_atom_type_scat_dispersion_imag
_atom_type_scat_source
C C 0.0033 0.0016 'International Tables Vol C Tables 4.2.6.8 and 6.1.1.4'
H H 0.0000 0.0000 'International Tables Vol C Tables 4.2.6.8 and 6.1.1.4'
F F 0.0171 0.0103 'International Tables Vol C Tables 4.2.6.8 and 6.1.1.4'
N N 0.0061 0.0033 'International Tables Vol C Tables 4.2.6.8 and 6.1.1.4'
O O 0.0106 0.0060 'International Tables Vol C Tables 4.2.6.8 and 6.1.1.4'
loop_
_geom_angle_atom_site_label_1
_geom_angle_atom_site_label_2
_geom_angle_atom_site_label_3
_geom_angle
C1 O1 H1 109.5
C24 O3 H3 109.5
C27 N1 C25 121.31(14)
C27 N1 C26 122.14(15)
C25 N1 C26 116.52(14)
C30 N2 C29 121.19(15)
C30 N2 C28 121.59(15)
C28 N2 C29 117.19(15)
C14 C13 C12 117.34(14)
C14 C13 C16 121.93(14)
C12 C13 C16 120.72(14)
C7 C2 C1 118.21(14)
C3 C2 C1 121.97(14)
C3 C2 C7 119.81(14)
O2 C1 O1 123.53(14)
O2 C1 C2 122.83(14)
O1 C1 C2 113.64(13)
C4 C5 C8 120.81(15)
C6 C5 C4 119.35(14)
C6 C5 C8 119.84(15)
C20 C21 C24 121.65(14)
C22 C21 C24 118.45(14)
C22 C21 C20 119.90(14)
C8 C9 C10 179.15(19)
O4 C24 O3 123.53(14)
O4 C24 C21 123.02(14)
O3 C24 C21 113.45(13)
C5 C4 H4 119.9
C3 C4 C5 120.21(15)
C3 C4 H4 119.9
F2 C15 C14 118.33(14)
F2 C15 C10 118.22(14)
C14 C15 C10 123.44(15)
C21 C20 H20 120.0
C19 C20 C21 120.07(14)
C19 C20 H20 120.0
C13 C14 H14 120.4
C15 C14 C13 119.21(14)
C15 C14 H14 120.4
C5 C6 H6 120.0
C7 C6 C5 120.04(14)
C7 C6 H6 120.0
C22 C23 H23 120.1
C22 C23 C18 119.88(14)
C18 C23 H23 120.1
C2 C7 H7 119.7
C6 C7 C2 120.51(15)
C6 C7 H7 119.7
C20 C19 H19 120.0
C20 C19 C18 120.01(15)
C18 C19 H19 120.0
C21 C22 H22 119.8
C23 C22 C21 120.38(15)
C23 C22 H22 119.8
F1 C12 C13 118.16(14)
F1 C12 C11 118.40(14)
C11 C12 C13 123.44(15)
C23 C18 C19 119.71(14)
C23 C18 C17 119.82(14)
C19 C18 C17 120.46(15)
C17 C16 C13 178.81(18)
C16 C17 C18 177.95(18)
O5 C27 N1 124.10(16)
O5 C27 H27 117.9
N1 C27 H27 117.9
C2 C3 H3A 120.0
C4 C3 C2 120.06(15)
C4 C3 H3A 120.0
C12 C11 H11 120.4
C12 C11 C10 119.24(15)
C10 C11 H11 120.4
C15 C10 C9 121.36(15)
C15 C10 C11 117.32(14)
C11 C10 C9 121.32(15)
O6 C30 N2 124.14(16)
O6 C30 H30 117.9
N2 C30 H30 117.9
C9 C8 C5 178.88(19)
N2 C29 H29A 109.5
N2 C29 H29B 109.5
N2 C29 H29C 109.5
H29A C29 H29B 109.5
H29A C29 H29C 109.5
H29B C29 H29C 109.5
N1 C25 H25A 109.5
N1 C25 H25B 109.5
N1 C25 H25C 109.5
H25A C25 H25B 109.5
H25A C25 H25C 109.5
H25B C25 H25C 109.5
N2 C28 H28A 109.5
N2 C28 H28B 109.5
N2 C28 H28C 109.5
H28A C28 H28B 109.5
H28A C28 H28C 109.5
H28B C28 H28C 109.5
N1 C26 H26A 109.5
N1 C26 H26B 109.5
N1 C26 H26C 109.5
H26A C26 H26B 109.5
H26A C26 H26C 109.5
H26B C26 H26C 109.5
loop_
_geom_bond_atom_site_label_1
_geom_bond_atom_site_label_2
_geom_bond_distance
F2 C15 1.3514(18)
F1 C12 1.3544(18)
O2 C1 1.2199(19)
O1 H1 0.8200
O1 C1 1.3205(19)
O4 C24 1.2122(19)
O6 C30 1.244(2)
O3 H3 0.8200
O3 C24 1.3182(19)
O5 C27 1.243(2)
N1 C27 1.327(2)
N1 C25 1.455(2)
N1 C26 1.456(2)
N2 C30 1.322(2)
N2 C29 1.455(2)
N2 C28 1.452(2)
C13 C14 1.394(2)
C13 C12 1.397(2)
C13 C16 1.432(2)
C2 C1 1.496(2)
C2 C7 1.393(2)
C2 C3 1.392(2)
C5 C4 1.402(2)
C5 C6 1.400(2)
C5 C8 1.431(2)
C21 C24 1.496(2)
C21 C20 1.395(2)
C21 C22 1.394(2)
C9 C10 1.431(2)
C9 C8 1.197(2)
C4 H4 0.9300
C4 C3 1.385(2)
C15 C14 1.375(2)
C15 C10 1.392(2)
C20 H20 0.9300
C20 C19 1.384(2)
C14 H14 0.9300
C6 H6 0.9300
C6 C7 1.379(2)
C23 H23 0.9300
C23 C22 1.384(2)
C23 C18 1.399(2)
C7 H7 0.9300
C19 H19 0.9300
C19 C18 1.403(2)
C22 H22 0.9300
C12 C11 1.369(2)
C18 C17 1.438(2)
C16 C17 1.197(2)
C27 H27 0.9300
C3 H3A 0.9300
C11 H11 0.9300
C11 C10 1.399(2)
C30 H30 0.9300
C29 H29A 0.9600
C29 H29B 0.9600
C29 H29C 0.9600
C25 H25A 0.9600
C25 H25B 0.9600
C25 H25C 0.9600
C28 H28A 0.9600
C28 H28B 0.9600
C28 H28C 0.9600
C26 H26A 0.9600
C26 H26B 0.9600
C26 H26C 0.9600
loop_
_geom_torsion_atom_site_label_1
_geom_torsion_atom_site_label_2
_geom_torsion_atom_site_label_3
_geom_torsion_atom_site_label_4
_geom_torsion
F2 C15 C14 C13 178.36(14)
F2 C15 C10 C9 0.8(2)
F2 C15 C10 C11 -179.05(14)
F1 C12 C11 C10 179.91(14)
C13 C12 C11 C10 0.0(3)
C1 C2 C7 C6 -179.99(15)
C1 C2 C3 C4 179.75(15)
C5 C4 C3 C2 0.1(2)
C5 C6 C7 C2 0.3(2)
C21 C20 C19 C18 1.4(2)
C24 C21 C20 C19 -178.64(15)
C24 C21 C22 C23 177.32(15)
C4 C5 C6 C7 0.4(2)
C20 C21 C24 O4 -175.23(16)
C20 C21 C24 O3 5.0(2)
C20 C21 C22 C23 -2.2(2)
C20 C19 C18 C23 -2.2(2)
C20 C19 C18 C17 176.92(15)
C14 C13 C12 F1 179.39(14)
C14 C13 C12 C11 -0.6(2)
C14 C15 C10 C9 179.24(16)
C14 C15 C10 C11 -0.6(2)
C6 C5 C4 C3 -0.6(2)
C7 C2 C1 O2 5.4(2)
C7 C2 C1 O1 -174.35(14)
C7 C2 C3 C4 0.6(2)
C22 C21 C24 O4 5.3(2)
C22 C21 C24 O3 -174.44(14)
C22 C21 C20 C19 0.8(2)
C22 C23 C18 C19 0.9(2)
C22 C23 C18 C17 -178.26(15)
C12 C13 C14 C15 0.7(2)
C12 C11 C10 C9 -179.18(15)
C12 C11 C10 C15 0.7(2)
C18 C23 C22 C21 1.3(2)
C16 C13 C14 C15 -179.36(15)
C16 C13 C12 F1 -0.5(2)
C16 C13 C12 C11 179.42(16)
C3 C2 C1 O2 -173.75(15)
C3 C2 C1 O1 6.5(2)
C3 C2 C7 C6 -0.8(2)
C10 C15 C14 C13 -0.1(2)
C8 C5 C4 C3 179.45(15)
C8 C5 C6 C7 -179.65(16)
C29 N2 C30 O6 1.7(3)
C25 N1 C27 O5 2.2(3)
C28 N2 C30 O6 -176.12(16)
C26 N1 C27 O5 -175.58(17)
