#------------------------------------------------------------------------------
#$Date: 2017-06-16 01:41:29 +0300 (Fri, 16 Jun 2017) $
#$Revision: 197856 $
#$URL: file:///home/coder/svn-repositories/cod/cif/4/12/62/4126223.cif $
#------------------------------------------------------------------------------
#
# This file is available in the Crystallography Open Database (COD),
# http://www.crystallography.net/
#
# All data on this site have been placed in the public domain by the
# contributors.
#
data_4126223
loop_
_publ_author_name
'Oburn, Shalisa M.'
'Swenson, Dale C.'
'Mariappan, S. V. Santhana'
'MacGillivray, Leonard R.'
_publ_section_title
;
 Supramolecular Construction of an Aldehyde-Cyclobutane via the Solid
 State: Combining Reversible Imine Formation and Metal-Organic
 Self-Assembly.
;
_journal_name_full               'Journal of the American Chemical Society'
_journal_paper_doi               10.1021/jacs.7b04420
_journal_year                    2017
_chemical_formula_moiety         'C14 H12 Ag N2, C2 F3 O2'
_chemical_formula_sum            'C16 H12 Ag F3 N2 O2'
_chemical_formula_weight         429.15
_space_group_crystal_system      monoclinic
_space_group_IT_number           14
_space_group_name_Hall           '-P 2yn'
_space_group_name_H-M_alt        'P 1 21/n 1'
_symmetry_space_group_name_Hall  '-P 2yn'
_symmetry_space_group_name_H-M   'P 1 21/n 1'
_atom_sites_solution_hydrogens   geom
_atom_sites_solution_primary     direct
_cell_angle_alpha                90
_cell_angle_beta                 100.070(5)
_cell_angle_gamma                90
_cell_formula_units_Z            4
_cell_length_a                   6.9846(13)
_cell_length_b                   12.927(3)
_cell_length_c                   17.932(4)
_cell_measurement_reflns_used    1438
_cell_measurement_temperature    296(2)
_cell_measurement_theta_max      32.83
_cell_measurement_theta_min      5.588
_cell_volume                     1594.1(6)
_computing_cell_refinement       'apexII (Bruker AXS, 2010)'
_computing_data_collection       'apexII (Bruker AXS, 2010)'
_computing_data_reduction        'apexII (Bruker AXS, 2010)'
_computing_molecular_graphics    'Olex2 (Dolomanov et al., 2009)'
_computing_publication_material  'Olex2 (Dolomanov et al., 2009)'
_computing_structure_refinement  'ShelXL (Sheldrick, 2015)'
_computing_structure_solution    'ShelXT (Sheldrick, 2015)'
_diffrn_ambient_temperature      296.15
_diffrn_measured_fraction_theta_full 0.998
_diffrn_measured_fraction_theta_max 0.998
_diffrn_measurement_device_type  'Bruker Nonius Apex II Kappa'
_diffrn_measurement_method       'CCD phi and omega scans'
_diffrn_radiation_type           MoK\a
_diffrn_radiation_wavelength     0.71073
_diffrn_reflns_av_R_equivalents  0.1392
_diffrn_reflns_av_unetI/netI     0.0984
_diffrn_reflns_Laue_measured_fraction_full 0.998
_diffrn_reflns_Laue_measured_fraction_max 0.998
_diffrn_reflns_limit_h_max       5
_diffrn_reflns_limit_h_min       -7
_diffrn_reflns_limit_k_max       13
_diffrn_reflns_limit_k_min       -13
_diffrn_reflns_limit_l_max       19
_diffrn_reflns_limit_l_min       -19
_diffrn_reflns_number            18201
_diffrn_reflns_point_group_measured_fraction_full 0.998
_diffrn_reflns_point_group_measured_fraction_max 0.998
_diffrn_reflns_theta_full        22.491
_diffrn_reflns_theta_max         22.491
_diffrn_reflns_theta_min         2.307
_exptl_absorpt_coefficient_mu    1.307
_exptl_absorpt_correction_type   multi-scan
_exptl_absorpt_process_details
;
SADABS-2014/5 (Bruker,2014/5) was used for absorption correction.
The Ratio of minimum to maximum transmission is 0.872.
;
_exptl_crystal_colour            colorless
_exptl_crystal_density_diffrn    1.788
_exptl_crystal_description       needle-like
_exptl_crystal_F_000             848
_exptl_crystal_recrystallization_method '3:1 ethylacetate:acetonitrile'
_exptl_crystal_size_max          0.14
_exptl_crystal_size_mid          0.03
_exptl_crystal_size_min          0.02
_exptl_transmission_factor_max   0.900
_exptl_transmission_factor_min   0.772
_refine_diff_density_max         0.451
_refine_diff_density_min         -0.652
_refine_diff_density_rms         0.097
_refine_ls_extinction_method     none
_refine_ls_goodness_of_fit_ref   1.008
_refine_ls_hydrogen_treatment    constr
_refine_ls_matrix_type           full
_refine_ls_number_parameters     217
_refine_ls_number_reflns         2081
_refine_ls_number_restraints     0
_refine_ls_restrained_S_all      1.008
_refine_ls_R_factor_all          0.1292
_refine_ls_R_factor_gt           0.0533
_refine_ls_shift/su_max          0.000
_refine_ls_shift/su_mean         0.000
_refine_ls_structure_factor_coef Fsqd
_refine_ls_weighting_details
'w=1/[\s^2^(Fo^2^)+(0.0530P)^2^] where P=(Fo^2^+2Fc^2^)/3'
_refine_ls_weighting_scheme      calc
_refine_ls_wR_factor_gt          0.0968
_refine_ls_wR_factor_ref         0.1209
_reflns_Friedel_coverage         0.000
_reflns_number_gt                1125
_reflns_number_total             2081
_reflns_threshold_expression     'I > 2\s(I)'
_cod_data_source_file            ja7b04420_si_002.cif
_cod_data_source_block           '[Ag(cpi)CO2CF3]n'
_cod_database_code               4126223
_shelx_space_group_comment
;
The symmetry employed for this shelxl refinement is uniquely defined
by the following loop, which should always be used as a source of
symmetry information in preference to the above space-group names.
They are only intended as comments.
;
_shelx_estimated_absorpt_t_max   0.974
_shelx_estimated_absorpt_t_min   0.838
_olex2_refinement_description
;
1. Fixed Uiso
 At 1.2 times of:
  All C(H) groups
2.a Aromatic/amide H refined with riding coordinates:
 C4(H4), C5(H5), C7(H7), C8(H8), C9(H9), C10(H10), C11(H11), C13(H13),
 C14(H14), C15(H15), C16(H16), C17(H17)
;
_shelx_res_file
;
TITL mcg1531_a.res in P2(1)/n
    mcg1531.res
    created by SHELXL-2016/6 at 14:25:14 on 17-Feb-2017
REM Old TITL mcg1531 in P21/n #14
REM SHELXT solution in P2(1)/n
REM R1 0.243, Rweak 0.034, Alpha 0.089, Orientation as input
REM Formula found by SHELXT: C16 N3 O F22 Ag
CELL 0.71073 6.9846 12.927 17.932 90 100.07 90
ZERR 4 0.0013 0.003 0.004 0 0.005 0
LATT 1
SYMM 0.5-X,0.5+Y,0.5-Z
SFAC C H Ag F N O
UNIT 64 48 4 12 8 8

L.S. 4
PLAN  -20
SIZE 0.02 0.03 0.14
TEMP 23
LIST 4
MORE -1
CONF
BOND $H
fmap 2 53
acta
OMIT -2 45
OMIT 0 1 1
OMIT 0 2 0
REM <olex2.extras>
REM <HklSrc "%.\\mcg1531.hkl">
REM </olex2.extras>

WGHT    0.053000
FVAR       0.28874
AG1   3    0.799420    0.582087    0.363795    11.00000    0.09537    0.03866 =
         0.05497    0.00535    0.01814    0.00197
N2    5    0.741442    0.422820    0.399537    11.00000    0.03733    0.04438 =
         0.04135   -0.00519    0.00632    0.00144
N6    5    0.681981    0.191176    0.231804    11.00000    0.05749    0.03542 =
         0.05255    0.00034    0.00920    0.00356
C3    1    0.715612    0.341427    0.345024    11.00000    0.04161    0.03815 =
         0.03833   -0.00794    0.00404   -0.00102
C4    1    0.662568    0.365849    0.272328    11.00000    0.06490    0.03094 =
         0.05642   -0.00171    0.01932    0.00149
AFIX  43
H4    2    0.637280    0.434487    0.258467    11.00000   -1.20000
AFIX   0
C5    1    0.644819    0.290552    0.217550    11.00000    0.05542    0.05772 =
         0.04134    0.00885    0.00711    0.00248
AFIX  43
H5    2    0.604299    0.310416    0.167428    11.00000   -1.20000
AFIX   0
C7    1    0.737734    0.169317    0.304912    11.00000    0.08659    0.02996 =
         0.05239   -0.00452    0.00834    0.00129
AFIX  43
H7    2    0.768547    0.100767    0.317407    11.00000   -1.20000
AFIX   0
C8    1    0.753602    0.237851    0.362669    11.00000    0.06268    0.05922 =
         0.04380    0.00239    0.00348   -0.00678
AFIX  43
H8    2    0.788861    0.216349    0.412679    11.00000   -1.20000
AFIX   0
C9    1    0.725795    0.401108    0.468313    11.00000    0.03131    0.03762 =
         0.06159   -0.00873    0.00401   -0.00203
AFIX  43
H9    2    0.691851    0.334077    0.479614    11.00000   -1.20000
AFIX   0
C10   1    0.758546    0.476014    0.528196    11.00000    0.04485    0.03924 =
         0.04098    0.00117    0.00216   -0.00082
AFIX  43
H10   2    0.789890    0.543393    0.516698    11.00000   -1.20000
AFIX   0
C11   1    0.745959    0.453127    0.599454    11.00000    0.03990    0.04028 =
         0.05519   -0.00383    0.00412    0.00145
AFIX  43
H11   2    0.712002    0.385151    0.608043    11.00000   -1.20000
AFIX   0
C12   1    0.778066    0.519935    0.666026    11.00000    0.04167    0.04644 =
         0.05245    0.00243    0.01541   -0.00149
C13   1    0.793873    0.481065    0.737740    11.00000    0.07785    0.06419 =
         0.05669    0.00910    0.00795    0.00292
AFIX  43
H13   2    0.779638    0.410358    0.744629    11.00000   -1.20000
AFIX   0
C14   1    0.830582    0.545183    0.799897    11.00000    0.11535    0.09708 =
         0.04435   -0.00615    0.01442    0.00990
AFIX  43
H14   2    0.841993    0.516817    0.848134    11.00000   -1.20000
AFIX   0
C15   1    0.850212    0.647506    0.792405    11.00000    0.06114    0.11379 =
         0.05304   -0.02599   -0.00314    0.00739
AFIX  43
H15   2    0.873511    0.689469    0.835160    11.00000   -1.20000
AFIX   0
C16   1    0.835977    0.690469    0.721707    11.00000    0.06149    0.06677 =
         0.08601   -0.02267    0.02025   -0.00963
AFIX  43
H16   2    0.850791    0.761393    0.716129    11.00000   -1.20000
AFIX   0
C17   1    0.798344    0.625187    0.657232    11.00000    0.04839    0.06314 =
         0.04927   -0.00510    0.01270    0.00553
AFIX  43
H17   2    0.787316    0.653367    0.608951    11.00000   -1.20000
AFIX   0

O18   6    0.921192    0.730961    0.467302    11.00000    0.07237    0.08952 =
         0.06986    0.00129    0.00163    0.02749
O19   6    0.605339    0.713528    0.435425    11.00000    0.07823    0.06354 =
         0.10032   -0.00796   -0.00510   -0.01768
C20   1    0.751415    0.757828    0.464534    11.00000    0.08640    0.04466 =
         0.03950    0.00846    0.01080    0.01293
F3    4    0.723005    0.938119    0.455596    11.00000    0.32463    0.04762 =
         0.16019   -0.00050    0.01381    0.00515
F4    4    0.842964    0.882765    0.560187    11.00000    0.24190    0.13207 =
         0.15211   -0.10010   -0.07754    0.07387
C0AA  1    0.726999    0.861544    0.498968    11.00000    0.12454    0.07376 =
         0.08560   -0.03498    0.02308    0.01588
F6    4    0.558431    0.871758    0.518342    11.00000    0.20050    0.15098 =
         0.35341   -0.11836    0.16140    0.00501
HKLF 4




REM  mcg1531_a.res in P2(1)/n
REM R1 =  0.0533 for    1125 Fo > 4sig(Fo)  and  0.1292 for all    2081 data
REM    217 parameters refined using      0 restraints

END

WGHT      0.0534      0.0000

REM Highest difference peak  0.451,  deepest hole -0.652,  1-sigma level  0.097
Q1    1   0.9538  0.9178  0.4770  11.00000  0.05    0.45
Q2    1   1.0230  0.8827  0.5013  11.00000  0.05    0.37
Q3    1   0.7374  0.7785  0.5846  11.00000  0.05    0.35
Q4    1   0.6706  0.8315  0.5679  11.00000  0.05    0.35
Q5    1   0.6053  0.5407  0.5130  11.00000  0.05    0.35
Q6    1   0.5642  0.3526  0.6210  11.00000  0.05    0.34
Q7    1   0.9590  0.5166  0.3029  11.00000  0.05    0.34
Q8    1   0.5411  0.3802  0.5625  11.00000  0.05    0.33
Q9    1   0.6230  1.0381  0.3874  11.00000  0.05    0.32
Q10   1   1.0707  0.5733  0.3573  11.00000  0.05    0.32
Q11   1   0.9217  0.5825  0.2850  11.00000  0.05    0.32
Q12   1   0.5585  1.0384  0.4148  11.00000  0.05    0.31
Q13   1   0.8247  0.6447  0.4634  11.00000  0.05    0.29
Q14   1   0.6675  0.0834  0.2956  11.00000  0.05    0.29
Q15   1   0.9041  0.6486  0.8966  11.00000  0.05    0.28
Q16   1   0.6445  0.5974  0.2150  11.00000  0.05    0.28
Q17   1   1.0130  0.5404  0.4166  11.00000  0.05    0.28
Q18   1   0.8217  0.3570  0.6410  11.00000  0.05    0.27
Q19   1   0.7388  0.6616  0.7719  11.00000  0.05    0.27
Q20   1   0.4991  0.5763  0.4199  11.00000  0.05    0.27
;
_shelx_res_checksum              74297
_shelx_hkl_file
;
  -1   0   0  -13.50    2.80
   1   0   0   -9.40    7.60
   1   0   0   -7.80    3.00
  -1   0   0  -15.10    7.50
  -1   0   0  -10.70    2.80
  -1   0   0  -17.80    6.70
  -2   0   0 9817.22  311.07
   2   0   0 9999.00  373.16
   2   0   0 9655.13  310.27
  -2   0   0 9691.83  395.86
   2   0   0 9984.50  310.37
  -2   0   0 9575.44  372.46
  -2   0   0 9618.54  310.97
   3   0   0    0.90    4.30
  -3   0   0   -9.50   11.80
  -3   0   0  -10.70   18.70
  -3   0   0   -5.30    6.80
  -3   0   0  -12.70    6.60
   3   0   0   -7.70    4.20
  -4   0   0  245.18   16.10
  -4   0   0  294.87   39.70
  -4   0   0  249.18   30.40
  -5   0   0    2.60    8.70
  -5   0   0    6.80    8.60
  -5   0   0    1.20   18.10
  -5   0   0   -5.50   22.30
  -6   0   0   43.90   36.20
  -6   0   0   68.89   23.70
  -6   0   0  -13.40   19.30
  -6   0   0    8.70   30.70
  -6   0   0   -0.50    8.20
  -6   0   0   -7.50    7.20
  -7   0   0   23.30   35.30
  -7   0   0    6.80   27.20
  -7   0   0   22.30   41.00
  -7   0   0   86.39   31.60
  -8   0   0  -34.00   33.60
  -8   0   0   46.90   51.49
  -8   0   0  -16.40   45.20
   0  -1   0   -4.50    2.60
   0  -1   0   -1.90    2.10
   0  -1   0   -0.60    2.50
   0  -1   0    0.00    3.90
   0  -1   0    3.70    3.40
   0   1   0    0.00    3.10
   0   1   0    0.30    3.30
   0   1   0   -1.40    3.30
   0   1   0   -1.20    3.50
   0   1   0    0.80    2.00
   1  -1   0  443.16   20.90
   1  -1   0  442.16   24.40
  -1  -1   0  409.96   24.80
   1  -1   0  444.56   25.30
  -1  -1   0  430.06   17.70
   1  -1   0  458.55   17.80
   1  -1   0  455.45   17.70
   1   1   0  426.46   20.00
   1   1   0  423.16   17.70
  -1   1   0  461.45   24.80
   1   1   0  438.46   17.70
  -1   1   0  372.46   24.20
   1   1   0  399.26   24.60
  -1   1   0  470.55   18.20
   2  -1   0 1422.26   48.60
   2  -1   0 1481.95   48.60
  -2  -1   0 1280.27   64.99
  -2  -1   0 1363.56   57.89
  -2  -1   0 1385.66   49.40
  -2  -1   0 1285.17   49.00
   2  -1   0 1515.45   69.19
   2  -1   0 1513.65   62.39
  -2   1   0 1473.85   62.09
  -2   1   0 1486.75   49.50
  -2   1   0 1515.75   66.59
   2   1   0 1357.86   48.50
   2   1   0 1298.67   65.59
  -2   1   0 1492.55   49.70
   2   1   0 1346.97   48.40
  -2   1   0 1520.95   68.79
   3  -1   0  613.84   23.80
  -3  -1   0  652.83   45.10
  -3  -1   0  621.94   25.70
  -3  -1   0  617.64   26.20
  -3  -1   0  648.84   34.00
  -3  -1   0  672.43   41.70
   3   1   0  617.84   23.70
  -3   1   0  597.94   42.40
  -3   1   0  591.94   43.50
  -3   1   0  580.54   26.00
  -3   1   0  631.94   38.00
  -3   1   0  602.34   26.20
  -4  -1   0  415.66   45.90
  -4  -1   0  380.06   35.10
  -4  -1   0  364.46   21.00
  -4  -1   0  474.75   30.80
  -4  -1   0  383.16   20.10
  -4   1   0  377.66   32.10
  -4   1   0  412.46   41.00
  -4   1   0  444.26   39.70
  -4   1   0  359.76   20.30
  -4   1   0  429.96   21.30
  -5  -1   0  181.28   15.00
  -5  -1   0  160.98   31.00
  -5  -1   0  253.97   29.40
  -5  -1   0  198.78   16.00
  -5  -1   0  197.88   36.50
  -5   1   0  172.08   37.20
  -5   1   0  173.48   35.60
  -5   1   0  188.58   15.90
  -5   1   0  197.68   16.70
  -5   1   0  200.48   31.30
  -6  -1   0    4.70    8.60
  -6  -1   0   67.19   24.50
  -6  -1   0   22.10   30.70
  -6  -1   0   29.30   25.30
  -6   1   0   34.30   10.40
  -6   1   0   43.60   25.80
  -6   1   0   57.69   33.00
  -6   1   0   25.50   10.80
  -6   1   0   28.10   32.70
  -7  -1   0    4.60   39.60
  -7  -1   0   -5.50   28.20
  -7  -1   0   49.20   37.50
  -7   1   0   -4.40   37.60
  -7   1   0   80.89   29.10
  -7   1   0   43.00   43.00
  -7   1   0  -14.70   26.30
  -8  -1   0  -25.50   33.80
  -8  -1   0  -19.10   49.99
  -8  -1   0   -3.00   42.00
  -8   1   0   66.19   51.29
  -8   1   0  -90.59   47.10
  -8   1   0  -37.30   31.20
   0  -2   0   29.20    8.50
   0  -2   0    1.80    6.60
   0  -2   0   49.60   10.50
   0   2   0   -3.90    6.60
   0   2   0   18.80   10.40
   1  -2   0  260.77   16.20
  -1  -2   0  254.97   21.10
   1  -2   0  305.77   22.90
   1  -2   0  299.17   21.70
   1  -2   0  270.97   13.00
  -1  -2   0  255.17   16.20
  -1  -2   0  259.27   16.90
  -1  -2   0  261.37   21.50
  -1  -2   0  265.87   16.60
   1   2   0  284.07   17.20
  -1   2   0  268.17   16.40
  -1   2   0  338.37   22.80
   1   2   0  313.17   16.70
   1   2   0  245.48   20.20
  -1   2   0  284.07   18.00
  -1   2   0  265.17   22.30
  -1   2   0  273.87   21.80
  -2  -2   0  741.93   34.70
  -2  -2   0  769.92   31.60
   2  -2   0  777.82   44.60
  -2  -2   0  696.43   42.20
   2  -2   0  769.52   36.10
   2  -2   0  772.42   44.60
   2  -2   0  739.73   30.80
  -2  -2   0  713.13   31.20
   2  -2   0  737.63   30.80
  -2   2   0  751.42   31.60
  -2   2   0  747.23   31.70
  -2   2   0  768.62   36.00
  -2   2   0  734.73   42.40
   2   2   0  718.23   30.60
   2   2   0  711.53   30.40
   2   2   0  797.62   35.60
  -2   2   0  779.72   43.70
  -3  -2   0   49.99   10.80
  -3  -2   0   42.50   10.40
  -3  -2   0   39.70   13.10
  -3  -2   0   48.00   19.40
   3   2   0   36.10    8.90
  -4  -2   0  166.58   21.40
  -4  -2   0  156.18   15.90
  -4  -2   0  142.19   29.30
  -4  -2   0  154.28   15.20
  -4   2   0  115.59   30.80
  -4   2   0  173.28   31.90
  -4   2   0  173.48   16.00
  -4   2   0  136.39   24.70
  -4   2   0  165.48   16.20
  -5  -2   0   25.00   28.90
  -5  -2   0   52.39   18.90
  -5  -2   0   29.30   10.50
  -5  -2   0   35.80   12.00
  -5  -2   0   52.09   26.40
  -5   2   0   48.70   24.00
  -5   2   0   34.80   12.00
  -5   2   0   22.10   10.80
  -5   2   0   13.30   20.90
  -5   2   0   31.20   25.60
  -6  -2   0  -13.30   31.40
  -6  -2   0   30.70   27.90
  -6  -2   0   -3.30   10.10
  -6  -2   0    5.60   20.70
  -6  -2   0   -6.00   11.20
  -6   2   0   14.80   12.10
  -6   2   0   -2.10   10.70
  -6   2   0   15.10   31.00
  -6   2   0  -36.30   22.10
  -6   2   0    3.60   31.50
  -7  -2   0    4.70    8.10
  -7  -2   0   73.29   33.80
  -7  -2   0   13.10    8.10
  -7  -2   0   27.90   41.40
  -7   2   0  -53.79   27.30
  -7   2   0   26.60   39.20
  -7   2   0    3.70    9.30
  -7   2   0   69.49   43.60
  -7   2   0   10.80   10.40
  -8  -2   0   11.00   51.39
  -8  -2   0   60.19   50.09
  -8  -2   0   73.29   42.80
  -8   2   0  -15.30   40.80
  -8   2   0   49.99   53.09
   0  -3   0    9.80   14.80
   0  -3   0    8.20   15.20
   0  -3   0  -16.00   12.20
   0  -3   0    6.00    9.70
   0  -3   0   -3.00    9.70
   0  -3   0    2.80   11.50
   0   3   0   -0.40   11.20
   0   3   0    6.40   11.50
   0   3   0    3.20   15.10
   0   3   0  -20.30   15.40
   0   3   0    1.60    9.70
   1  -3   0  -14.40    9.50
  -1  -3   0    2.70   12.60
   1  -3   0    2.10   13.60
  -1  -3   0   28.80   11.60
   1  -3   0    3.20    8.00
  -1  -3   0   -1.90    9.30
   1  -3   0    0.00   14.80
  -1  -3   0    2.00   10.60
  -1  -3   0   -6.50   13.30
   1   3   0   12.80   10.80
   1   3   0  -22.90   12.60
  -1   3   0    9.40   15.60
   1   3   0   -0.50    5.60
  -1   3   0   -1.20   11.60
   1   3   0  -20.10   10.60
  -1   3   0    6.80   10.50
  -1   3   0   29.30   15.40
  -1   3   0    8.30   16.20
   2  -3   0  551.34   28.00
   2  -3   0  585.64   40.10
  -2  -3   0  493.95   28.80
   2  -3   0  586.94   38.00
  -2  -3   0  580.04   29.00
   2  -3   0  561.74   28.60
  -2  -3   0  581.94   37.60
  -2  -3   0  585.64   38.20
  -2  -3   0  602.54   28.80
   2  -3   0  555.44   27.30
  -2   3   0  572.84   27.50
  -2   3   0  552.64   38.40
  -2   3   0  642.54   39.90
  -2   3   0  592.14   29.70
   2   3   0  570.74   30.40
  -2   3   0  558.74   29.90
  -2   3   0  624.74   38.70
   2   3   0  581.74   28.10
   2   3   0  577.94   28.00
   3  -3   0   14.90   10.50
  -3  -3   0   10.30   10.30
  -3  -3   0   27.20   11.40
  -3  -3   0   50.79   21.90
  -3  -3   0   43.10   12.90
  -3   3   0    9.20   11.00
  -3   3   0   25.60   21.40
   3   3   0    7.70    9.80
  -3   3   0   35.20   14.30
   3   3   0   22.80   12.20
  -3   3   0   52.39   19.90
  -3   3   0   28.20   12.30
   4  -3   0  477.85   25.60
  -4  -3   0  502.35   28.10
  -4  -3   0  545.75   32.60
  -4  -3   0  430.16   41.10
  -4  -3   0  455.25   27.50
  -4   3   0  431.56   27.60
   4   3   0  470.45   24.70
  -4   3   0  490.55   34.60
  -4   3   0  496.05   28.70
  -4   3   0  519.75   42.80
  -4   3   0  463.95   43.10
  -5  -3   0    1.70   11.00
  -5  -3   0   15.20   16.80
  -5  -3   0  -23.10   11.90
  -5  -3   0    4.80   21.40
  -5   3   0   12.40   12.40
  -5   3   0    6.30   12.60
  -5   3   0   80.49   29.70
  -5   3   0   -7.10   26.00
  -5   3   0  -13.60   18.90
  -6  -3   0   50.89   23.40
  -6  -3   0   60.99   14.20
  -6  -3   0   61.89   31.50
  -6  -3   0   46.90   15.20
  -6  -3   0   57.39   37.20
  -6   3   0   59.89   15.80
  -6   3   0   53.79   31.40
  -6   3   0   34.60   26.60
  -6   3   0   51.59   31.30
  -6   3   0   49.10   15.00
  -7  -3   0    6.80   12.10
  -7  -3   0   30.90   35.90
  -7  -3   0    7.60   12.30
  -7  -3   0    6.60   41.80
  -7   3   0   13.20   13.40
  -7   3   0   64.29   43.80
  -7   3   0    5.70   14.70
  -7   3   0  -55.69   27.50
  -7   3   0  109.79   45.00
  -8  -3   0   -8.10   42.80
  -8  -3   0    0.20   50.69
  -8   3   0    5.30   49.20
  -8   3   0   69.39   52.89
   0  -4   0  535.75   30.30
   0  -4   0  541.15   30.40
   0  -4   0  523.95   34.50
   0  -4   0  589.24   38.10
   0  -4   0  545.45   40.20
   0  -4   0  562.84   31.30
   0   4   0  570.24   30.60
   0   4   0  574.64   31.30
   0   4   0  582.84   34.80
   0   4   0  559.94   40.20
   0   4   0  581.64   38.60
  -1  -4   0   21.00   12.80
   1  -4   0   21.80   13.20
   1  -4   0   23.20    7.80
  -1  -4   0   36.90   18.10
  -1  -4   0   20.60   17.90
  -1  -4   0   38.90   13.50
  -1  -4   0    8.10   19.90
   1  -4   0   18.80   16.40
   1  -4   0    1.90   13.70
   1  -4   0   20.10   17.90
   1  -4   0    5.20   16.80
  -1  -4   0   30.20   14.80
  -1   4   0   41.80   14.00
   1   4   0   36.70   13.00
  -1   4   0   19.20   17.60
  -1   4   0   14.10   17.90
   1   4   0   29.80   13.20
  -1   4   0   23.80   13.60
  -1   4   0    8.80   18.10
   1   4   0   16.70   14.50
   1   4   0    5.30   17.50
  -2  -4   0  232.88   28.70
   2  -4   0  182.88   26.20
  -2  -4   0  182.18   19.70
  -2  -4   0  221.28   19.50
  -2  -4   0  206.18   29.60
  -2  -4   0  190.68   20.10
   2  -4   0  186.78   19.20
   2   4   0  227.88   21.80
  -2   4   0  239.88   22.10
  -2   4   0  168.18   26.70
  -2   4   0  181.68   20.80
   2   4   0  232.08   20.90
  -2   4   0  158.38   25.80
  -3  -4   0   64.99   15.30
  -3  -4   0   77.59   15.20
  -3  -4   0   27.30   12.90
  -3  -4   0   44.10   20.40
   3  -4   0   85.09   14.60
  -3   4   0   65.99   23.10
   3   4   0   35.80   13.10
   3   4   0   78.59   16.00
  -3   4   0   48.40   13.40
  -3   4   0   90.79   24.40
  -3   4   0   46.40   14.10
  -3   4   0   37.00   14.70
  -4  -4   0  -27.20   20.10
  -4  -4   0   -4.70   12.50
  -4  -4   0  -44.80   10.70
   4  -4   0  -17.50   11.30
  -4  -4   0  -18.80   10.90
  -4   4   0  -11.10   12.90
  -4   4   0  -12.00   11.90
   4   4   0   11.70   10.90
  -4   4   0    3.30   20.80
  -4   4   0   -3.80   14.70
  -4   4   0   28.60   21.80
  -5  -4   0   28.90   15.50
  -5  -4   0    7.60   27.50
  -5  -4   0   24.20   16.50
  -5  -4   0   10.90   13.60
  -5   4   0   10.50   13.70
  -5   4   0   62.29   30.50
  -5   4   0   18.10   15.30
  -5   4   0  -52.49   17.40
  -5   4   0  -18.70   22.50
  -6  -4   0   -5.80   35.30
  -6  -4   0   10.70   15.80
  -6  -4   0   -2.80   29.60
  -6  -4   0   36.10   14.60
  -6  -4   0   15.70   20.20
  -6   4   0   26.80   33.00
  -6   4   0  -55.09   22.80
  -6   4   0  -13.80   32.30
  -6   4   0    3.60   14.50
  -6   4   0   28.60   17.30
  -7  -4   0   12.00   14.60
  -7  -4   0   20.10   16.80
  -7  -4   0    2.50   35.20
  -7  -4   0    1.30   35.60
  -7   4   0   26.00   42.60
  -7   4   0   22.00   42.20
  -7   4   0   23.00   16.40
  -8  -4   0   -6.00   49.40
  -8  -4   0   23.00   47.80
  -8   4   0   18.40   53.29
  -8   4   0   -0.10   14.10
   0  -5   0  -22.70   14.20
   0  -5   0  -19.40   12.50
   0  -5   0   -6.70   14.60
   0  -5   0   -8.00   12.00
   0  -5   0   -0.80   21.40
   0  -5   0   13.20   17.70
   0   5   0  -12.10   13.90
   0   5   0  -12.90   15.70
   0   5   0   10.40   18.70
   0   5   0   -1.40   18.30
   0   5   0  -17.40   12.40
  -1  -5   0   77.39   17.50
   1  -5   0   51.09   16.30
  -1  -5   0   51.99   16.60
  -1  -5   0   58.49   17.30
   1  -5   0   74.09   22.70
  -1  -5   0   39.30   20.50
   1  -5   0   43.50   19.90
   1  -5   0   65.39   10.60
   1  -5   0   56.39   16.50
  -1  -5   0   62.19   18.80
  -1   5   0   70.69   23.70
   1   5   0   58.89   19.70
   1   5   0   60.39   16.90
   1   5   0   47.40   17.50
  -1   5   0   55.69   15.90
  -1   5   0   51.49   21.80
  -1   5   0   55.69   17.50
   1   5   0   85.59   17.10
  -2  -5   0   44.70   14.50
  -2  -5   0   26.10   14.10
  -2  -5   0   27.60   17.60
  -2  -5   0   21.30   13.30
  -2   5   0   21.00   14.60
  -2   5   0   33.00   20.70
  -2   5   0   49.20   20.90
   2   5   0   34.50   15.00
   2   5   0   11.20   17.60
  -2   5   0   24.50   15.30
   2   5   0   -4.90    6.30
  -3  -5   0   81.59   16.70
  -3  -5   0   96.29   18.30
  -3  -5   0   95.79   17.20
  -3  -5   0  110.59   26.20
   3  -5   0   75.69   17.10
  -3   5   0   62.39   17.30
  -3   5   0  106.79   28.00
  -3   5   0   91.19   18.80
  -3   5   0   96.59   10.70
   3   5   0  114.99   19.10
   3   5   0  105.99   18.20
  -3   5   0   79.19   24.20
  -4  -5   0   -3.80   12.00
  -4  -5   0   13.00   13.40
   4  -5   0   24.70   14.60
  -4  -5   0   18.10   24.10
  -4  -5   0   13.00   14.50
  -4   5   0  -17.00   22.20
   4   5   0   26.50   16.10
   4   5   0    7.60   12.50
  -4   5   0   25.90   15.70
  -4   5   0   47.60   25.60
  -4   5   0    4.30   15.50
  -4   5   0  -43.00   11.50
  -5  -5   0  -20.90   25.90
  -5  -5   0   18.30   17.20
  -5  -5   0    6.60   15.30
  -5  -5   0    2.10   16.10
  -5   5   0  -18.30   17.40
  -5   5   0   53.89   19.80
  -5   5   0   32.30   16.40
  -5   5   0   10.30   29.10
  -5   5   0   65.79   30.70
  -6  -5   0    4.60   15.40
  -6  -5   0  -18.60   29.50
  -6  -5   0    5.70   18.60
  -6   5   0   25.90   19.10
  -6   5   0   72.39   38.30
  -6   5   0   20.90   17.00
  -6   5   0   11.80   30.40
  -7  -5   0    6.20   15.80
  -7  -5   0   73.49   43.10
  -7  -5   0   10.50   38.50
  -7   5   0  -11.30   17.90
  -7   5   0   -5.80   40.10
  -7   5   0   46.50   47.40
   0  -6   0 1254.07   56.39
   0  -6   0 1216.98   55.39
   0  -6   0 1184.18   56.99
   0  -6   0 1132.79   59.89
   0   6   0 1266.67   55.19
   0   6   0 1217.88   64.19
   0   6   0 1116.79   66.79
   0   6   0 1224.98   56.39
  -1  -6   0   84.29   18.80
   1  -6   0   99.29   13.60
  -1  -6   0  101.59   21.60
  -1  -6   0   90.89   23.00
   1  -6   0   85.29   23.60
   1  -6   0   90.59   19.10
  -1  -6   0   88.99   20.70
  -1   6   0  110.89   20.60
   1   6   0   57.89   18.10
  -1   6   0  110.99   19.70
  -1   6   0  115.89   26.30
   1   6   0   93.59   25.20
  -1   6   0  174.08   31.00
   1   6   0   66.99   21.10
  -2  -6   0  375.16   32.40
  -2  -6   0  336.47   29.20
  -2  -6   0  347.97   37.80
   2  -6   0  324.67   29.50
  -2  -6   0  416.06   30.30
  -2   6   0  376.46   32.00
  -2   6   0  335.07   39.20
   2   6   0  356.96   36.90
  -2   6   0  418.26   33.40
   2   6   0  346.27   29.90
  -2   6   0  297.37   37.60
  -3  -6   0   40.60   16.70
  -3  -6   0   56.19   16.70
  -3  -6   0   12.90   14.70
   3  -6   0   16.10   15.60
  -3  -6   0   25.70   22.90
  -3   6   0   30.50   25.50
  -3   6   0   70.49   26.20
   3   6   0   35.90   15.90
  -3   6   0   12.40   16.10
  -3   6   0   26.20   17.20
   3   6   0   24.10   16.00
  -4  -6   0   67.99   19.40
  -4  -6   0   26.20   16.00
  -4  -6   0   62.39   26.70
   4  -6   0   28.80   17.40
  -4  -6   0   68.39   18.20
   4   6   0   62.19   18.00
  -4   6   0   30.10   24.80
   4   6   0   22.20   17.20
  -4   6   0   96.09   21.80
  -4   6   0   76.49   29.20
  -4   6   0   64.29   11.60
  -4   6   0    6.80   16.50
  -5  -6   0    5.20   18.20
  -5  -6   0  -28.20   15.40
  -5  -6   0   11.00   15.70
  -5  -6   0   26.70   32.20
  -5   6   0   18.60   20.30
  -5   6   0   13.70   30.90
  -5   6   0   14.90   26.50
  -5   6   0    6.80   16.80
  -6  -6   0   15.00   31.40
  -6  -6   0   -5.80   16.00
  -6   6   0  -27.00   29.00
  -6   6   0   51.39   40.70
  -6   6   0   12.80   19.40
  -7  -6   0   11.60   42.50
  -7  -6   0   -4.20   17.90
  -7  -6   0   28.30   47.00
  -7   6   0  120.59   51.59
  -7   6   0  -27.90   33.10
  -7   6   0  -17.40   19.50
   0  -7   0    8.70   16.00
   0  -7   0    0.40   14.40
   0  -7   0    4.20   16.20
   0  -7   0  -53.59   16.10
   0   7   0  -23.90   22.50
   0   7   0   -5.40   16.90
   0   7   0   -2.60   15.70
   0   7   0   -6.10   22.50
  -1  -7   0    6.40   17.70
  -1  -7   0   45.40   19.20
   1  -7   0   16.20   16.20
   1  -7   0   30.20   19.10
   1  -7   0   20.90   11.90
  -1  -7   0  -16.40   16.70
  -1  -7   0   24.10   18.60
  -1   7   0  -22.40   20.10
   1   7   0   13.50   23.00
  -1   7   0   26.20   24.80
  -1   7   0   26.00   17.50
   1   7   0   35.00   19.00
  -1   7   0   29.80   18.20
  -2  -7   0   19.40   17.70
   2  -7   0   15.90   16.50
  -2  -7   0   57.29   18.80
  -2  -7   0   13.50   17.90
  -2  -7   0   46.10   23.30
  -2   7   0   23.30   17.70
  -2   7   0   15.50   26.40
   2   7   0   24.00   21.70
  -2   7   0   12.50   16.70
   2   7   0   15.80   17.90
  -2   7   0   32.70   23.20
   3  -7   0  151.38   23.20
  -3  -7   0  109.19   22.50
  -3  -7   0  154.58   24.00
  -3  -7   0  180.28   24.40
  -3  -7   0  156.88   33.50
  -3   7   0  165.18   34.80
   3   7   0  139.19   22.40
  -3   7   0  150.28   33.50
  -3   7   0  196.88   26.60
  -3   7   0  109.39   24.30
  -4  -7   0   49.20   20.60
  -4  -7   0   37.00   19.10
  -4  -7   0   23.00   29.00
  -4  -7   0   53.59   19.20
  -4   7   0   23.40   20.60
  -4   7   0    2.90   27.80
  -4   7   0   11.40   17.90
  -4   7   0    3.40   27.40
  -5  -7   0   79.19   21.50
  -5  -7   0   28.90   31.80
  -5  -7   0   36.30   20.00
  -5   7   0   41.70   20.80
  -5   7   0   94.39   38.10
  -5   7   0   66.69   35.30
  -6  -7   0    7.60   31.40
  -6  -7   0    6.20   21.30
  -6   7   0   30.30   34.50
  -6   7   0    8.80   41.60
  -6   7   0   28.90   22.10
  -7  -7   0   17.20   20.80
  -7  -7   0  -20.60   38.20
  -7   7   0   26.40   52.69
  -7   7   0   -4.50   22.50
  -7   7   0  -19.60   34.80
   0  -8   0  241.38   34.20
   0  -8   0  205.58   30.40
   0  -8   0  181.58   27.20
   0  -8   0  234.78   27.40
   0   8   0  239.68   37.90
   0   8   0  202.08   29.30
   0   8   0  218.18   37.80
  -1  -8   0  443.76   38.60
   1  -8   0  413.66   27.90
  -1  -8   0  450.85   40.70
  -1  -8   0  391.56   36.40
   1  -8   0  476.75   45.70
  -1  -8   0  486.85   40.70
   1  -8   0  434.96   38.50
   1   8   0  336.27   41.00
  -1   8   0  502.65   50.49
   1   8   0  542.15   39.40
  -1   8   0  426.86   40.40
  -1   8   0  463.25   35.80
  -1   8   0  462.55   50.99
   2  -8   0  135.19   26.70
  -2  -8   0  142.99   25.70
  -2  -8   0  131.09   25.50
  -2  -8   0  108.59   23.80
  -2  -8   0  138.29   29.80
   2   8   0  116.69   28.80
  -2   8   0  148.99   27.90
  -2   8   0  160.68   26.60
  -2   8   0  149.99   35.10
   2   8   0  116.99   24.40
  -2   8   0  116.69   31.60
  -3  -8   0   27.40   18.40
   3  -8   0    2.10    9.80
  -3  -8   0   55.09   27.30
  -3  -8   0  112.29   23.30
  -3  -8   0   45.30   21.90
   3   8   0   24.90   14.70
  -3   8   0   63.29   21.90
  -3   8   0   54.09   29.90
   3   8   0   83.59   28.90
  -3   8   0   47.70   22.80
  -3   8   0   61.09   30.10
  -4  -8   0  -27.30   25.40
  -4  -8   0    0.70   18.20
  -4  -8   0  -20.80   16.90
  -4   8   0   13.30   20.00
  -4   8   0  -39.90   24.40
  -4   8   0   36.00   34.10
  -5  -8   0    1.70   18.50
  -5  -8   0  -40.00   25.90
  -5   8   0   12.60   36.60
  -5   8   0   17.60   31.10
  -5   8   0   -3.50   20.10
  -6  -8   0   11.70   36.60
  -6  -8   0    5.90   22.90
  -6   8   0   43.10   48.30
  -6   8   0    6.10   22.50
  -6   8   0    8.20   34.20
  -7  -8   0  -27.30   40.70
  -7  -8   0    2.50   23.70
  -7   8   0   -2.90   43.60
  -7   8   0   16.70   25.80
  -7   8   0   -9.40   55.99
   0  -9   0   72.69   25.60
   0  -9   0   -4.60   16.20
   0  -9   0  -28.20   17.80
   0   9   0   -9.70   20.40
   0   9   0  -18.90   23.00
   0   9   0    3.70   24.80
   1  -9   0   26.10   21.80
  -1  -9   0   20.70   20.80
  -1  -9   0    4.40   20.20
  -1  -9   0    3.00   18.60
  -1  -9   0   14.60   20.50
   1  -9   0   -3.30   13.60
  -1   9   0   14.70   21.50
  -1   9   0   23.10   27.60
   1   9   0   12.50   26.90
  -1   9   0    7.10   22.10
   1   9   0   21.20   20.90
  -1   9   0  -27.90   26.50
  -2  -9   0  118.59   31.50
  -2  -9   0  132.59   29.20
  -2  -9   0  125.09   27.30
  -2  -9   0   77.59   23.40
   2  -9   0  127.79   27.20
  -2   9   0  117.59   25.50
   2   9   0  154.78   32.40
  -2   9   0   79.19   26.90
  -2   9   0  157.88   38.80
   2   9   0  136.39   29.00
  -2   9   0   74.79   30.50
  -3  -9   0   14.50   19.50
  -3  -9   0   38.10   21.50
  -3  -9   0   16.00   25.70
   3   9   0   34.10   28.30
  -3   9   0  -20.30   19.10
  -3   9   0   -1.70   36.00
  -3   9   0   12.60   28.20
  -4  -9   0  153.08   28.90
  -4  -9   0  148.89   41.00
  -4  -9   0   88.09   27.30
  -4   9   0  163.08   47.10
  -4   9   0   86.89   26.40
  -4   9   0  131.89   39.70
  -5  -9   0   -8.50   26.20
  -5  -9   0   -2.50   21.20
  -5   9   0   15.60   43.80
  -5   9   0   23.00   33.90
  -5   9   0   10.20   21.60
  -6  -9   0    2.60   33.90
  -6  -9   0   -3.50   23.80
  -6   9   0   28.80   26.90
  -6   9   0  -11.50   51.49
  -6   9   0   -0.40   35.30
   0 -10   0   55.49   23.70
   0 -10   0   25.50   24.70
   0 -10   0   41.40   20.50
   0  10   0   32.60   29.40
   0  10   0    5.30   21.40
   0  10   0   24.50   27.70
  -1 -10   0  291.87   39.30
   1 -10   0  289.77   27.90
  -1 -10   0  229.48   36.10
  -1 -10   0  298.07   38.60
   1 -10   0  369.06   42.00
  -1 -10   0  280.37   37.40
  -1  10   0  204.28   42.90
  -1  10   0  222.68   43.70
   1  10   0  211.38   38.90
  -1  10   0  217.68   35.70
   1  10   0  270.07   37.10
  -2 -10   0    7.30   20.70
   2 -10   0   12.40   22.70
  -2 -10   0   21.80   24.30
  -2 -10   0  -43.40   21.40
  -2  10   0   38.90   25.00
   2  10   0   23.60   29.50
   2  10   0   31.70   22.20
  -2  10   0    5.70   32.20
  -2  10   0   13.90   35.60
  -3 -10   0   86.19   27.80
  -3 -10   0  105.69   28.70
  -3 -10   0   67.99   34.00
  -3  10   0   41.00   26.80
   3  10   0   81.69   36.10
  -3  10   0   69.09   35.30
  -3  10   0   83.79   42.40
  -4 -10   0   16.60   24.80
  -4 -10   0  -34.00   28.50
  -4 -10   0   -8.10   23.90
  -4  10   0   10.80   25.80
  -4  10   0  -45.50   29.20
  -4  10   0    3.40   46.60
  -5 -10   0  -21.70   23.00
  -5 -10   0  -48.50   27.90
  -5  10   0  -12.20   37.20
  -5  10   0  -25.80   22.60
  -5  10   0  -64.49   42.20
  -6 -10   0   14.80   42.30
  -6 -10   0   33.10   26.90
  -6  10   0    0.50   27.00
  -6  10   0  -88.89   54.39
  -6  10   0  -36.20   43.80
   0 -11   0  -22.60   20.80
   0 -11   0  -18.90   24.90
   0 -11   0   -7.20   20.40
   0  11   0  -15.50   29.90
   0  11   0  -16.60   32.20
   0  11   0   19.60   26.20
  -1 -11   0  -11.30   23.50
   1 -11   0   14.20   18.20
  -1 -11   0   28.50   27.20
  -1 -11   0   31.80   26.80
   1 -11   0  -29.60   22.70
  -1  11   0   30.60   27.40
  -1  11   0   52.49   36.20
   1  11   0  -20.60   23.30
  -1  11   0   16.80   32.40
   1  11   0   44.80   33.90
  -2 -11   0    9.10   25.60
  -2 -11   0   45.10   29.80
  -2 -11   0  -27.40   22.10
  -2  11   0   -1.00   35.60
   2  11   0   21.80   30.80
  -2  11   0  -19.80   31.00
  -2  11   0   44.20   28.40
  -3 -11   0   72.59   36.30
  -3 -11   0   80.19   29.60
  -3 -11   0   26.10   28.00
  -3  11   0   53.99   43.40
  -3  11   0  130.09   33.40
   3  11   0   48.90   37.80
  -3  11   0   85.69   49.20
  -4 -11   0  -13.20   24.50
  -4 -11   0   -0.10   32.90
  -4  11   0  -13.20   48.50
  -4  11   0    9.80   27.70
  -4  11   0  -20.90   40.40
  -5 -11   0  -15.40   25.50
  -5 -11   0  -29.30   37.50
  -5  11   0  -25.70   26.30
  -5  11   0  -68.19   56.19
  -5  11   0   42.30   43.20
   0 -12   0  126.99   33.00
   0 -12   0  150.68   36.50
   0 -12   0  170.28   31.70
   0  12   0   74.69   40.70
   0  12   0  225.68   39.40
  -1 -12   0   -1.00   25.80
  -1 -12   0  -10.40   25.80
  -1 -12   0    7.00   27.10
  -1  12   0   34.30   40.40
  -1  12   0   21.80   29.00
  -1  12   0   37.20   39.80
   1  12   0  -56.39   32.30
  -2 -12   0  199.98   41.20
  -2 -12   0  134.59   36.10
  -2 -12   0  147.89   36.10
  -2  12   0  102.59   46.40
   2  12   0  130.79   43.10
  -2  12   0   79.49   41.40
  -2  12   0  113.99   36.10
  -3 -12   0    1.60   28.00
  -3 -12   0   67.09   36.80
  -3 -12   0  -17.70   27.40
   3  12   0    9.90   38.10
  -3  12   0   54.29   52.19
  -3  12   0  -82.59   34.60
  -3  12   0   18.00   29.60
  -4 -12   0   -0.90   29.90
  -4 -12   0    2.70   36.20
  -4  12   0    5.00   30.10
  -4  12   0    4.40   42.10
  -4  12   0  -78.89   51.39
  -5 -12   0   -9.80   42.30
  -5 -12   0    6.90   30.80
  -5  12   0 -170.78   56.49
  -5  12   0  -11.50   46.90
  -5  12   0   -8.00   30.80
   0  13   0   28.10   41.10
  -1 -13   0   32.00   30.80
  -1 -13   0   25.50   31.00
  -1 -13   0   21.90   29.40
  -1  13   0   -3.00   32.30
  -1  13   0   -3.20   37.00
  -1  13   0   25.80   37.30
   1  13   0   51.59   41.30
  -2 -13   0   20.50   32.40
  -2 -13   0   51.19   32.20
  -2 -13   0  -64.09   29.10
  -2  13   0  -22.80   31.20
  -2  13   0   46.80   45.10
   2  13   0  -16.50   38.60
  -2  13   0  -53.19   34.80
  -3 -13   0    3.40   35.40
  -3 -13   0  -49.00   29.40
  -3 -13   0   38.50   33.50
  -3  13   0  -13.20   30.90
  -3  13   0   42.50   51.59
   3  13   0  -22.40   41.10
  -3  13   0  -23.10   41.30
  -4 -13   0  -22.40   39.30
  -4 -13   0   -9.30   31.50
  -4  13   0   -0.80   57.29
  -4  13   0  -78.09   47.40
  -4  13   0   25.70   35.20
   0  14   0   12.70   43.30
  -1 -14   0   24.20   35.60
   1  14   0   78.39   42.40
  -1  14   0   94.19   52.29
  -1  14   0  -34.70   45.10
  -2 -14   0    7.60   32.70
  -2 -14   0  -30.60   30.40
  -2 -14   0   22.10   33.30
  -2  14   0   18.80   37.70
  -2  14   0  -18.20   48.60
   2  14   0  101.29   48.00
  -2  14   0   21.20   49.30
  -3 -14   0   42.10   43.00
  -3 -14   0  -42.50   34.50
  -3  14   0   -3.70   48.20
   3  14   0   24.60   46.90
  -3  14   0   75.99   55.89
  -3  14   0   34.70   38.20
   0  15   0    6.20   43.80
  -1  15   0  -44.30   45.60
   1  15   0  -15.60   45.30
  -1  15   0  -13.90   47.60
  -2 -15   0  -52.89   37.70
  -2  15   0   46.80   55.99
  -2  15   0  125.29   57.29
  -2  15   0   82.69   49.90
   2  15   0   34.00   43.90
  -8   0   1  -48.80   30.80
  -8   0   1  -10.40   45.60
  -8   0   1   25.20   50.49
  -7   0   1   29.20   28.60
  -7   0   1  -25.60   10.50
  -7   0   1    2.40   34.90
  -7   0   1  -39.60   36.90
  -7   0   1  -29.20   25.20
  -7   0   1    1.80   11.30
  -6   0   1   -2.80   31.30
  -6   0   1   12.50   21.70
  -6   0   1  -18.00   12.10
  -6   0   1   -3.20   10.30
  -6   0   1    4.10   27.70
  -6   0   1   31.10   19.60
  -5   0   1   98.99   14.10
  -5   0   1   75.79   31.70
  -5   0   1  102.79   24.90
  -4   0   1   -8.10   21.90
  -4   0   1   -7.60    8.60
  -4   0   1    5.00   14.00
  -4   0   1   -0.40    9.40
  -3   0   1  741.53   42.70
   3   0  -1  800.22   45.50
  -3   0   1  741.43   31.10
   3   0  -1  776.42   30.10
  -3   0   1  760.62   31.60
  -3   0   1  738.63   50.59
  -2   0   1    1.90    7.30
   2   0  -1    0.10    6.80
  -2   0   1  -12.80   11.00
  -2   0   1   -2.70    7.00
   2   0  -1   -9.50   13.60
  -2   0   1   -1.30   14.90
   2   0  -1  -15.10    6.60
   1   0  -1  984.10   49.50
  -1   0   1 1039.30   49.70
  -1   0   1 1227.28   38.10
   0   0  -1   -0.10    1.60
   0   0  -1   -1.40    1.50
   0   0   1    0.00    0.60
   0   0   1    0.00    0.60
   0   0   1   -0.80    1.90
   0   0  -1   -0.10    0.40
   0   0   1   -0.60    0.70
   0   0  -1    0.20    1.20
  -2   0  -1  -17.40   11.00
  -3   0  -1  -16.10   16.70
  -3   0  -1  -14.00   12.20
  -3   0  -1  -15.70    3.80
  -4   0  -1  -37.10   17.60
  -4   0  -1  -18.90   12.50
  -4   0  -1  -15.90    4.40
  -4   0  -1  -16.30    5.20
  -5   0  -1   12.80   25.10
  -5   0  -1   25.90   19.40
  -5   0  -1   37.20   17.30
  -5   0  -1   40.50   25.30
  -6   0  -1   18.50   31.00
  -6   0  -1    4.70   22.70
  -6   0  -1   71.99   24.80
  -6   0  -1    8.90   28.40
  -7   0  -1   14.40   28.80
  -7   0  -1   44.20   30.50
  -7   0  -1   61.69   42.80
  -7   0  -1   31.80   36.40
  -8   0  -1   -0.30   34.80
  -8   0  -1   21.80   52.29
  -8   0  -1   64.79   52.39
  -8  -1   1   49.50   44.30
  -8  -1   1   51.99   41.40
  -8  -1   1  -35.10   39.10
  -8   1   1   54.59   46.20
  -8   1   1  -42.50   48.10
  -8   1   1  -15.10   34.60
  -7  -1   1  -23.00   11.10
  -7  -1   1   37.90   30.90
  -7  -1   1   17.80   38.70
  -7  -1   1   19.30   35.80
  -7  -1   1   -0.70   11.00
  -7   1   1  115.79   30.30
  -7   1   1   -8.70   33.20
  -7   1   1    2.30   13.20
  -7   1   1   22.10   35.70
  -7   1   1   10.50   12.00
  -7   1   1    1.20   26.90
  -6  -1   1   19.40   24.30
  -6  -1   1  -65.49   29.20
  -6  -1   1   11.50   12.90
  -6  -1   1   52.09   22.70
  -6   1   1  -27.80   26.40
  -6   1   1   -1.00   11.10
  -6   1   1  -17.70   11.70
  -6   1   1   -6.70   21.90
  -6   1   1  -24.10   29.90
  -5  -1   1   55.69   12.00
  -5  -1   1   84.49   20.10
  -5  -1   1   35.10   29.60
  -5  -1   1  110.49   26.10
  -5  -1   1   44.70   13.20
  -5   1   1   10.10   26.80
  -5   1   1   37.90   26.10
  -5   1   1   59.19   12.40
  -5   1   1   10.50   19.20
  -5   1   1   27.60   12.30
  -4  -1   1   45.90   10.60
  -4  -1   1   53.49   20.80
  -4  -1   1   40.30   25.90
  -4  -1   1   89.39   16.30
   4  -1  -1   37.30    9.00
  -4  -1   1   61.89   12.20
  -4   1   1   54.19   23.60
  -4   1   1   35.70   17.20
  -4   1   1   49.80   25.30
  -4   1   1   63.39   11.70
  -4   1   1   38.30   11.30
   4   1  -1   44.10    9.40
  -3  -1   1  288.47   19.20
   3  -1  -1  312.07   28.10
  -3  -1   1  363.36   32.20
   3  -1  -1  306.87   17.90
  -3  -1   1  302.57   35.40
  -3  -1   1  409.86   23.60
  -3  -1   1  346.97   20.00
  -3   1   1  309.37   29.60
  -3   1   1  293.17   20.00
  -3   1   1  355.16   37.50
   3   1  -1  335.87   18.40
  -2  -1   1 1204.18   47.70
  -2  -1   1 1145.69   57.09
  -2  -1   1 1178.78   43.40
   2  -1  -1 1174.18   59.29
   2  -1  -1 1132.09   42.60
   2  -1  -1 1222.28   54.09
   2  -1  -1 1155.68   42.90
  -2  -1   1 1192.28   43.50
   2   1  -1 1179.28   42.90
   2   1  -1 1221.98   43.10
  -2   1   1 1160.38   43.60
   2   1  -1 1210.98   56.89
  -2   1   1 1130.89   60.19
  -2   1   1 1122.09   52.79
  -1  -1   1  462.85   20.10
   1  -1  -1  486.65   27.00
   1  -1  -1  489.25   22.80
   1  -1  -1  477.25   23.10
  -1  -1   1  458.65   25.90
  -1   1   1  463.75   25.60
   1   1  -1  448.26   25.20
  -1   1   1  468.25   20.20
   1   1  -1  410.36   18.00
  -1   1   1  430.96   23.50
  -1   1   1  475.75   26.80
   1   1  -1  500.15   19.90
   0  -1   1   -1.90    4.20
   0  -1   1    3.80    3.90
   0  -1   1   -1.80    3.80
   0  -1  -1   -2.20    4.80
   0  -1  -1    2.20    4.10
   0  -1   1   -1.50    4.70
   0  -1  -1   -0.60    2.80
   0  -1   1    4.50    3.50
   0  -1  -1   -3.60    3.20
   0  -1  -1    4.50    5.00
   0   1   1   -0.10    5.50
   0   1  -1    6.10    4.20
   0   1   1   -3.60    3.50
   0   1   1    1.10    5.00
   0   1  -1   -3.40    3.20
   0   1   1   -1.40    3.00
   0   1   1   -5.80    4.00
   0   1  -1   -2.10    4.60
   0   1  -1   -1.20    3.10
  -1  -1  -1 1101.99   45.90
   1  -1   1 1117.39   38.40
   1  -1   1 1115.29   38.50
   1  -1   1 1128.19   49.20
  -1  -1  -1 1123.99   38.50
   1  -1   1 1127.39   49.99
  -1  -1  -1 1139.79   38.60
  -1   1  -1 1115.19   38.70
  -1   1  -1 1126.59   49.80
   1   1   1 1168.18   46.60
  -1   1  -1 1124.09   38.70
   1   1   1 1108.89   38.30
  -1   1  -1 1101.49   49.20
   1   1   1 1125.49   38.30
  -2  -1  -1  871.31   41.60
   2  -1   1  847.42   48.50
  -2  -1  -1  885.81   46.90
   2  -1   1  928.71   31.50
   2  -1   1  897.81   31.30
  -2  -1  -1  916.31   32.30
  -2  -1  -1  898.01   32.10
   2   1   1  933.91   30.90
  -2   1  -1  897.31   47.30
  -2   1  -1  919.61   32.70
  -2   1  -1  936.21   47.60
   2   1   1  936.11   30.90
  -2   1  -1  902.71   32.70
  -2   1  -1  943.01   43.60
  -3  -1  -1    2.00    5.60
  -3  -1  -1   14.20   12.40
  -3  -1  -1   -0.80    6.00
  -3  -1  -1  -18.80   15.60
  -3   1  -1    4.90    6.40
  -3   1  -1   -3.40    6.50
  -3   1  -1    4.70   14.00
  -3   1  -1  -41.80   12.30
  -3   1  -1   -2.10   17.10
  -4  -1  -1  206.48   12.70
  -4  -1  -1  229.68   35.60
  -4  -1  -1  270.27   33.70
  -4  -1  -1  241.38   27.40
  -4  -1  -1  209.88   12.60
  -4   1  -1  210.68   13.70
  -4   1  -1  278.27   35.20
  -4   1  -1  276.57   31.80
  -4   1  -1  193.08   31.50
  -4   1  -1  223.98   13.50
  -5  -1  -1   75.89   21.40
  -5  -1  -1   38.50   29.70
  -5  -1  -1   24.00   20.70
  -5  -1  -1   37.10    6.40
  -5   1  -1   55.29   29.40
  -5   1  -1   11.30   20.10
  -5   1  -1   25.60    7.80
  -5   1  -1   14.40   21.30
  -5   1  -1   21.60    6.70
  -6  -1  -1   34.20   24.00
  -6  -1  -1   -0.20   23.10
  -6  -1  -1   10.10   31.60
  -6  -1  -1   24.20   29.30
  -6   1  -1   25.00   21.60
  -6   1  -1   46.20   34.00
  -6   1  -1   -3.00   21.10
  -6   1  -1   20.00   30.30
  -7  -1  -1  -22.20   32.70
  -7  -1  -1   42.20   30.00
  -7  -1  -1  -46.80   38.80
  -7  -1  -1  -10.20   24.60
  -7   1  -1   70.79   42.30
  -7   1  -1   -8.80   29.00
  -7   1  -1    2.80   34.80
  -7   1  -1   72.09   29.20
  -8  -1  -1  -15.10   34.50
  -8  -1  -1   19.70   54.79
  -8  -1  -1   27.80   43.00
  -8   1  -1  -45.30   46.00
  -8   1  -1  -37.00   34.10
  -8   1  -1   68.19   52.19
  -8  -2   1   67.29   49.80
  -8  -2   1   19.90   51.29
  -8  -2   1   97.49   44.00
  -8   2   1    5.50   46.30
  -8   2   1  -52.49   41.80
  -7  -2   1   -5.30   13.70
  -7  -2   1   -7.10   37.80
  -7  -2   1   27.90   31.50
  -7   2   1  -52.09   25.70
  -7   2   1  -10.60   13.00
  -7   2   1   76.59   43.90
  -7   2   1    0.90   14.40
  -7   2   1    4.20   33.80
  -6  -2   1   86.79   34.00
  -6  -2   1   44.40   31.00
  -6  -2   1   44.10   21.20
  -6  -2   1   81.19   17.50
  -6  -2   1   58.39   14.50
  -6   2   1   35.30   25.50
  -6   2   1   50.09   30.60
  -6   2   1   61.59   36.00
  -6   2   1   52.59   15.30
  -6   2   1   56.49   14.80
  -5  -2   1   -4.20   11.50
  -5  -2   1   30.80   16.00
  -5  -2   1    9.70   10.90
  -5  -2   1   32.80   25.90
  -5  -2   1   42.60   25.40
  -5   2   1  -42.00   17.10
  -5   2   1   11.50   23.80
  -5   2   1  -10.80   22.60
  -5   2   1   -6.30   11.10
  -5   2   1   34.70   13.20
  -4  -2   1  382.06   44.30
  -4  -2   1  453.35   45.50
  -4  -2   1  389.86   23.00
  -4  -2   1  436.06   24.90
   4  -2  -1  382.96   21.50
  -4  -2   1  346.47   26.20
   4   2  -1  381.56   21.60
  -4   2   1  287.47   39.10
  -4   2   1  383.66   43.70
  -4   2   1  393.26   25.00
  -4   2   1  376.06   23.70
  -4   2   1  321.07   30.70
  -3  -2   1   63.69   12.30
   3  -2  -1   68.99   11.60
  -3  -2   1   59.39   12.60
  -3  -2   1   56.59   20.40
   3  -2  -1   87.59   18.20
  -3  -2   1   59.09   12.40
  -3   2   1   38.40   15.90
   3   2  -1   64.49   11.50
  -3   2   1   36.70   11.50
  -3   2   1   54.59   23.10
  -3   2   1   57.69   21.20
  -3   2   1   84.19   13.90
  -3   2   1   71.59   19.20
  -2  -2   1  818.02   35.50
  -2  -2   1  846.42   35.10
   2  -2  -1  810.12   39.70
   2  -2  -1  811.22   34.40
  -2  -2   1  831.82   35.20
  -2  -2   1  804.92   47.00
   2  -2  -1  855.01   49.00
   2   2  -1  869.91   34.70
  -2   2   1  895.11   35.80
  -2   2   1  877.11   42.90
  -2   2   1  852.41   48.40
   2   2  -1  823.12   35.60
   2   2  -1  859.21   34.80
  -2   2   1  753.72   39.00
   2   2  -1  865.71   46.00
  -2   2   1  871.11   35.90
  -2   2   1  837.82   49.30
  -1  -2   1  117.69   10.00
   1  -2  -1   98.79   11.80
   1  -2  -1  112.19   11.10
  -1  -2   1   94.49   16.00
   1  -2  -1   63.09   14.80
   1  -2  -1  109.19   16.90
  -1  -2   1   82.89   12.00
   1  -2  -1   97.49   15.40
  -1  -2   1   94.79   12.30
  -1  -2   1   77.09   15.90
  -1   2   1   78.39   14.50
  -1   2   1   90.19   12.80
  -1   2   1  114.49   18.40
   1   2  -1   97.79   12.40
   1   2  -1  103.39   10.30
   1   2  -1   79.19   15.60
  -1   2   1  120.59   10.90
  -1   2   1   93.29   11.70
   1   2  -1   87.79   16.60
  -1   2   1   92.89   15.30
   0  -2   1  266.17   20.70
   0  -2   1  117.99   11.90
   0  -2   1  189.58   16.70
   0  -2  -1  165.88   13.60
   0  -2  -1  201.38   18.90
   0  -2  -1  177.98   15.10
   0  -2  -1  151.18   14.20
   0  -2   1  208.08   13.90
   0  -2   1  178.48   12.70
   0   2  -1  226.98   18.10
   0   2   1  204.78   18.90
   0   2   1  213.18   16.10
   0   2   1  188.18   15.00
   0   2  -1  187.48   14.90
   0   2  -1  127.39   15.00
   0   2  -1  167.08   13.90
   0   2   1  178.88   15.30
   1  -2   1  225.98   19.30
   1  -2   1  208.58   15.30
  -1  -2  -1  181.18   17.30
   1  -2   1  226.68   20.90
   1  -2   1  211.18   14.90
  -1  -2  -1  216.08   15.20
  -1  -2  -1  199.78   15.10
  -1  -2  -1  221.68   16.00
  -1   2  -1  206.08   18.00
   1   2   1  176.98   14.40
  -1   2  -1  215.08   15.20
  -1   2  -1  202.38   15.40
   1   2   1  194.28   17.80
   1   2   1  197.48   14.40
  -1   2  -1  212.38   21.10
   2  -2   1   -7.00    8.20
  -2  -2  -1   -3.40    9.40
   2  -2   1    6.50   17.30
  -2  -2  -1   17.60   16.50
  -2  -2  -1    2.90    8.20
  -2  -2  -1   17.90    8.40
   2  -2   1   14.40    7.80
   2  -2   1    7.80   14.40
   2   2   1   22.70   12.10
   2   2   1   11.00    7.40
  -2   2  -1    6.70   10.50
  -2   2  -1   14.10    9.10
  -2   2  -1   -3.20   11.60
  -2   2  -1   16.60   16.20
  -2   2  -1  -11.30    8.30
   2   2   1   22.60    8.00
  -3  -2  -1   76.59   11.10
  -3  -2  -1   61.49   10.10
   3  -2   1   84.49    9.60
   3  -2   1   76.19   22.50
  -3  -2  -1   86.79   16.20
  -3  -2  -1   60.89   23.40
  -3   2  -1   62.39   23.40
   3   2   1   71.69    8.80
  -3   2  -1   62.29   19.30
  -3   2  -1   92.59   17.70
  -3   2  -1   64.39   10.80
  -3   2  -1   76.39   11.10
  -4  -2  -1   37.00   21.20
  -4  -2  -1   38.30   10.20
  -4  -2  -1   43.20   16.70
  -4  -2  -1   43.30    9.60
  -4   2  -1   44.90   25.90
  -4   2  -1   80.89   20.90
  -4   2  -1   41.30   10.30
  -4   2  -1   56.09   11.00
  -4   2  -1   52.39   20.50
  -5  -2  -1   21.20   26.30
  -5  -2  -1   45.50   19.80
  -5  -2  -1   48.30   25.20
  -5  -2  -1   30.90    9.00
  -5  -2  -1   38.70    9.50
  -5   2  -1   20.00   22.60
  -5   2  -1   27.00    9.60
  -5   2  -1   55.19   25.40
  -5   2  -1    9.20    9.70
  -5   2  -1   45.60   26.30
  -6  -2  -1   32.20   36.00
  -6  -2  -1   44.80   23.90
  -6  -2  -1   63.79   32.50
  -6  -2  -1   55.29    8.40
  -6  -2  -1   46.10    8.00
  -6   2  -1   70.69   35.70
  -6   2  -1   29.30    9.60
  -6   2  -1  -15.00   26.20
  -6   2  -1   66.49   33.20
  -6   2  -1   37.60   10.20
  -7  -2  -1  -69.09   31.60
  -7  -2  -1   44.70   42.20
  -7  -2  -1   20.10   31.70
  -7   2  -1   16.80   26.80
  -7   2  -1   38.70   39.90
  -7   2  -1  -22.00   34.30
  -7   2  -1  -84.79   24.60
  -8  -2  -1   33.20   48.20
  -8  -2  -1   35.40   41.10
  -8  -2  -1  -68.39   41.10
  -8   2  -1    7.80   43.30
  -8   2  -1   77.49   53.49
  -8  -3   1   17.20   42.70
  -8  -3   1   25.50   45.60
  -8   3   1  -22.60   14.00
  -8   3   1    3.30   40.70
  -8   3   1   36.50   54.59
  -7  -3   1   47.30   17.90
  -7  -3   1   25.80   37.40
  -7  -3   1   38.40   15.20
  -7  -3   1   47.90   44.70
  -7   3   1   -3.20   16.80
  -7   3   1   34.40   35.60
  -7   3   1   33.40   16.10
  -7   3   1  -34.70   28.20
  -7   3   1   93.89   47.70
  -6  -3   1   27.90   30.30
  -6  -3   1    7.00   32.00
  -6  -3   1    4.50   15.70
  -6  -3   1   27.50   19.50
  -6  -3   1   -1.10   12.10
  -6   3   1  -57.59   20.40
  -6   3   1    5.30   15.40
  -6   3   1    5.80   13.50
  -6   3   1   58.89   36.80
  -6   3   1   25.00   29.90
  -5  -3   1  180.38   34.60
  -5  -3   1  117.89   36.60
  -5  -3   1  191.68   23.30
  -5  -3   1  153.58   18.40
  -5  -3   1  167.18   20.60
  -5   3   1  137.59   27.80
  -5   3   1  151.68   19.60
  -5   3   1  110.89   31.90
  -5   3   1  145.89   36.90
  -5   3   1  119.99   17.90
  -4  -3   1   31.00   12.60
   4  -3  -1   34.00   11.70
  -4  -3   1   30.40   13.10
  -4  -3   1   11.20   20.80
  -4  -3   1   23.90   12.90
   4  -3  -1   22.40   17.90
  -4   3   1   32.40   23.80
  -4   3   1   49.10   14.50
  -4   3   1    9.70   17.40
  -4   3   1   20.20   24.60
  -4   3   1   18.70   12.80
   4   3  -1    9.50   10.90
   3  -3  -1   23.70   11.30
  -3  -3   1   38.50   21.00
   3  -3  -1   33.90   15.00
  -3  -3   1   43.60   11.80
  -3  -3   1   34.80   12.20
  -3  -3   1   39.10   13.10
  -3   3   1   55.49   24.40
  -3   3   1   38.00   13.30
  -3   3   1   12.70   21.60
  -3   3   1   26.20   13.10
  -3   3   1   -9.50   12.60
   3   3  -1   12.30   10.60
  -2  -3   1   -1.10   17.50
   2  -3  -1   -2.50    9.60
   2  -3  -1   21.40   19.40
  -2  -3   1    3.70   15.00
  -2  -3   1   19.60   11.10
   2  -3  -1   10.80   16.50
  -2  -3   1   -5.10   10.60
   2  -3  -1   16.70   11.10
   2  -3  -1    8.20   11.10
   2   3  -1    4.40   10.80
  -2   3   1    4.20   12.00
   2   3  -1    7.30   10.50
   2   3  -1    6.90   17.90
  -2   3   1    2.80   14.80
  -2   3   1    5.20   17.00
   2   3  -1    2.50    8.80
  -2   3   1   -1.00   11.10
  -2   3   1  -15.10   16.10
   1  -3  -1  177.58   24.50
   1  -3  -1  150.38   19.80
   1  -3  -1  148.59   13.70
   1  -3  -1  144.59   22.10
  -1  -3   1  191.88   23.40
   1  -3  -1  167.08   16.20
  -1  -3   1  176.88   21.80
  -1  -3   1  178.08   17.70
   1  -3  -1  166.58   16.70
  -1  -3   1  194.58   16.60
  -1  -3   1  134.89   16.20
  -1   3   1  151.08   21.50
  -1   3   1  164.28   17.20
   1   3  -1  183.28   18.10
   1   3  -1  181.18   21.50
  -1   3   1  165.88   20.80
   1   3  -1  151.78   20.80
   1   3  -1  167.88   16.10
  -1   3   1  175.98   18.10
   1   3  -1  156.38   16.50
  -1   3   1  218.18   25.10
   0  -3   1  137.19   15.60
   0  -3   1  183.78   21.60
   0  -3   1  156.68   15.00
   0  -3   1  134.39   17.40
   0  -3  -1  137.29   18.80
   0  -3   1  160.68   21.40
   0  -3  -1  142.59   16.20
   0  -3   1  123.69   16.50
   0  -3  -1  145.59   15.40
   0   3   1  120.49   15.30
   0   3   1  247.18   21.60
   0   3   1  143.39   17.90
   0   3  -1  199.78   23.50
   0   3  -1  162.18   20.50
   0   3  -1  153.08   16.30
   0   3  -1  122.59   16.20
   0   3  -1  134.89   14.10
   0   3  -1  124.69   17.90
   0   3   1  138.29   15.40
  -1  -3  -1  634.84   30.20
  -1  -3  -1  657.43   34.80
  -1  -3  -1  677.03   33.70
   1  -3   1  602.54   29.50
  -1  -3  -1  618.44   30.30
   1  -3   1  628.14   38.40
   1  -3   1  650.93   37.40
  -1  -3  -1  655.73   40.70
  -1   3  -1  579.84   29.60
   1   3   1  638.84   34.90
   1   3   1  633.94   29.70
   1   3   1  650.73   34.00
  -1   3  -1  581.84   30.30
  -1   3  -1  671.33   36.20
  -1   3  -1  607.64   37.60
   2  -3   1  237.58   27.10
  -2  -3  -1  178.88   17.00
  -2  -3  -1  179.18   26.70
   2  -3   1  189.68   17.00
   2  -3   1  141.99   15.30
   2  -3   1  209.18   25.90
  -2  -3  -1  211.18   24.00
  -2  -3  -1  165.08   16.50
  -2  -3  -1  149.49   17.60
  -2   3  -1  142.79   14.10
  -2   3  -1  134.99   23.50
   2   3   1  160.48   16.00
  -2   3  -1  165.28   16.80
   2   3   1  203.28   16.40
  -2   3  -1  177.98   17.00
  -2   3  -1  189.98   23.00
   2   3   1  217.98   21.50
   3  -3   1  463.75   24.00
  -3  -3  -1  445.66   24.20
  -3  -3  -1  395.66   28.10
  -3  -3  -1  458.35   24.80
  -3  -3  -1  411.46   38.40
   3   3   1  406.66   22.80
   3   3   1  431.26   29.80
  -3   3  -1  444.26   35.20
  -3   3  -1  424.46   25.60
  -3   3  -1  393.36   36.80
  -3   3  -1  404.96   27.50
  -3   3  -1  437.06   25.40
  -4  -3  -1   41.00   15.70
  -4  -3  -1   44.20   11.20
  -4  -3  -1   34.80   11.70
  -4  -3  -1   67.09   26.80
  -4   3  -1   20.20   21.20
  -4   3  -1   49.10   21.00
  -4   3  -1   40.40   12.60
  -4   3  -1   26.10   11.70
  -4   3  -1   40.80   18.20
  -5  -3  -1   27.70   18.10
  -5  -3  -1   41.40   12.70
  -5  -3  -1    1.50   22.70
  -5  -3  -1   13.20   10.80
  -5   3  -1   -9.30   20.00
  -5   3  -1   10.90   22.90
  -5   3  -1   38.60   26.40
  -5   3  -1   25.30   12.90
  -5   3  -1   35.70   12.10
  -6  -3  -1    4.40   11.20
  -6  -3  -1  -14.70   28.90
  -6  -3  -1   -4.30    9.90
  -6  -3  -1   20.40   30.30
  -6  -3  -1    6.70   21.30
  -6   3  -1  -22.60   31.80
  -6   3  -1  -39.40   24.40
  -6   3  -1   -8.70   11.60
  -6   3  -1   -9.90   11.50
  -6   3  -1   -7.70   28.40
  -7  -3  -1   -5.70   41.70
  -7  -3  -1  -14.90   33.00
  -7   3  -1   16.00    9.60
  -7   3  -1  -16.80   40.30
  -7   3  -1   -6.10    8.30
  -7   3  -1   45.20   41.00
  -8  -3  -1  112.79   49.40
  -8  -3  -1  -66.79   49.50
  -8  -3  -1  -84.99   38.90
  -8   3  -1  128.99   57.39
  -8   3  -1    0.00   50.29
  -8  -4   1   46.50   47.40
  -8  -4   1  -21.60   15.80
  -8  -4   1  -27.10   45.60
  -8   4   1   11.30   17.50
  -8   4   1  -32.70   46.10
  -8   4   1   64.29   55.19
  -7  -4   1   17.60   36.80
  -7  -4   1   10.10   15.20
  -7  -4   1   -0.10   35.40
  -7   4   1   -8.00   16.00
  -7   4   1   29.70   36.40
  -7   4   1   -5.50   41.90
  -6  -4   1    5.80   16.70
  -6  -4   1    2.30   30.30
  -6  -4   1    5.20   29.40
  -6  -4   1  -17.10   13.90
  -6   4   1  -81.79   20.60
  -6   4   1    0.50   16.50
  -6   4   1   11.20   15.50
  -6   4   1   54.29   36.80
  -6   4   1  -27.00   26.80
  -5  -4   1    0.20   13.90
  -5  -4   1   18.70   15.50
  -5  -4   1  -19.80   23.00
  -5  -4   1   -4.30   12.70
  -5   4   1   34.60   28.40
  -5   4   1    0.60   15.80
  -5   4   1  -43.40   15.80
  -5   4   1    7.80   14.20
  -5   4   1   18.90   28.00
   4  -4  -1  107.19   17.20
  -4  -4   1  129.89   19.20
  -4  -4   1  148.79   33.00
  -4  -4   1  153.58   20.00
  -4  -4   1  121.19   17.50
  -4   4   1   97.49   26.80
  -4   4   1   86.99   18.90
  -4   4   1  109.99   18.10
  -4   4   1   90.49   28.30
  -4   4   1  108.69   19.40
   4   4  -1  148.59   17.70
   3  -4  -1  316.97   23.90
  -3  -4   1  313.57   25.40
   3  -4  -1  318.67   22.80
  -3  -4   1  276.07   21.10
  -3  -4   1  336.47   38.30
  -3  -4   1  307.17   25.40
  -3   4   1  271.87   34.40
  -3   4   1  363.16   26.80
  -3   4   1  251.17   21.10
  -3   4   1  322.67   39.60
  -3   4   1  326.37   26.20
   3   4  -1  327.97   22.80
   3   4  -1  395.56   25.10
  -2  -4   1  711.93   44.50
  -2  -4   1  648.84   35.60
  -2  -4   1  751.32   35.00
  -2  -4   1  681.03   35.50
  -2  -4   1  720.63   44.80
   2  -4  -1  727.33   46.10
   2  -4  -1  723.13   32.60
  -2   4   1  772.42   33.00
  -2   4   1  687.43   44.60
   2   4  -1  734.33   35.20
  -2   4   1  736.03   48.10
   2   4  -1  673.43   43.50
  -2   4   1  702.43   36.50
  -2   4   1  675.23   36.60
   1  -4  -1  222.98   17.20
  -1  -4   1  222.18   26.80
   1  -4  -1  210.08   20.90
  -1  -4   1  205.98   28.50
  -1  -4   1  236.88   28.10
   1  -4  -1  255.47   28.40
   1  -4  -1  243.08   25.70
   1  -4  -1  239.78   21.90
   1  -4  -1  276.67   29.80
  -1  -4   1  258.17   22.90
  -1  -4   1  194.18   21.30
  -1  -4   1  219.38   22.50
  -1   4   1  258.17   29.80
   1   4  -1  264.27   22.90
  -1   4   1  239.48   26.90
   1   4  -1  239.48   25.80
   1   4  -1  270.27   29.90
  -1   4   1  249.48   22.20
   1   4  -1  268.07   23.70
  -1   4   1  205.08   25.40
   1   4  -1  243.88   22.80
  -1   4   1  254.87   23.90
   0  -4  -1  575.24   31.50
   0  -4   1  559.44   30.80
   0  -4  -1  520.25   33.10
   0  -4  -1  533.25   39.20
   0  -4   1  566.74   37.10
   0  -4  -1  553.54   34.30
   0  -4   1  580.84   30.50
   0  -4   1  533.05   33.60
   0  -4   1  499.25   30.40
   0  -4  -1  577.24   32.10
   0  -4   1  565.54   38.10
   0   4  -1  513.55   33.90
   0   4  -1  533.05   30.00
   0   4  -1  539.75   37.90
   0   4   1  585.74   42.30
   0   4   1  591.74   32.10
   0   4   1  573.84   36.40
   0   4   1  574.44   31.40
   0   4  -1  560.14   31.70
   0   4  -1  527.35   39.20
   0   4   1  559.54   35.60
  -1  -4  -1  333.77   24.30
   1  -4   1  370.26   30.40
   1  -4   1  339.97   30.40
   1  -4   1  358.56   24.90
  -1  -4  -1  367.76   33.50
   1  -4   1  368.86   26.10
  -1  -4  -1  356.06   25.40
  -1  -4  -1  365.76   27.20
  -1  -4  -1  370.36   27.40
  -1   4  -1  366.36   25.80
   1   4   1  394.46   30.00
  -1   4  -1  397.36   32.20
   1   4   1  384.56   24.80
   1   4   1  357.26   24.40
  -1   4  -1  408.26   35.90
   1   4   1  364.66   27.80
  -1   4  -1  344.77   26.60
  -1   4  -1  352.66   29.60
  -2  -4  -1    5.30   11.80
   2  -4   1    2.50   16.60
  -2  -4  -1   41.50   13.10
  -2  -4  -1    8.20   16.40
  -2  -4  -1   -3.70   11.80
   2  -4   1   21.80   12.80
  -2  -4  -1   -1.10   17.30
  -2   4  -1   12.30   17.80
   2   4   1   -1.70   11.60
  -2   4  -1   -5.10   11.50
  -2   4  -1   49.80   17.80
   2   4   1   14.90   13.10
  -2   4  -1   -4.40   12.30
  -3  -4  -1   35.30   23.30
  -3  -4  -1   13.50   11.70
  -3  -4  -1   18.60   12.10
   3  -4   1   19.80   12.40
  -3  -4  -1   -7.10   11.20
  -3   4  -1   57.99   19.40
  -3   4  -1   22.00   13.00
  -3   4  -1   19.00   11.50
   3   4   1   25.30   11.80
   3   4   1   44.20   15.30
  -3   4  -1   11.80   21.00
  -3   4  -1   32.10   13.60
  -4  -4  -1   73.39   14.40
  -4  -4  -1   28.70   16.00
  -4  -4  -1   89.09   16.50
   4  -4   1   85.59   14.40
  -4  -4  -1   56.69   26.90
  -4   4  -1   49.70   14.40
  -4   4  -1   61.49   16.10
  -4   4  -1   80.09   26.00
   4   4   1  100.19   14.10
  -4   4  -1  111.19   27.00
  -4   4  -1   77.99   18.50
  -5  -4  -1  -19.00   15.30
  -5  -4  -1  -18.10   11.40
  -5  -4  -1  -36.30   23.20
  -5  -4  -1    1.40   13.40
  -5   4  -1   -9.50   12.00
  -5   4  -1   40.30   26.20
  -5   4  -1  -14.30   14.00
  -5   4  -1   28.50   25.30
  -5   4  -1    4.80   19.40
  -6  -4  -1   31.40   15.80
  -6  -4  -1   -9.00   20.50
  -6  -4  -1   45.60   32.00
  -6  -4  -1    5.80   12.40
  -6  -4  -1   29.70   39.10
  -6   4  -1   23.40   14.90
  -6   4  -1   24.10   31.10
  -6   4  -1   76.59   35.90
  -6   4  -1  -23.30   23.70
  -6   4  -1   18.50   16.20
  -7  -4  -1   34.10   41.30
  -7  -4  -1    1.10   11.80
  -7  -4  -1   -1.60   12.60
  -7  -4  -1  -26.70   35.50
  -7   4  -1   -4.10   13.70
  -7   4  -1  -19.40   39.20
  -7   4  -1   10.20   15.50
  -7   4  -1   90.39   42.00
  -7  -5   1  -13.10   35.90
  -7  -5   1    6.30   16.90
  -7  -5   1   53.49   41.00
  -7   5   1  -13.20   44.40
  -7   5   1   34.40   19.50
  -7   5   1   -0.10   39.30
  -6  -5   1   15.60   27.80
  -6  -5   1   28.20   18.10
  -6   5   1   39.70   32.70
  -6   5   1   37.20   32.20
  -6   5   1   12.80   17.70
  -5  -5   1   43.30   26.40
  -5  -5   1    9.30   17.10
  -5  -5   1   39.80   16.10
  -5  -5   1  -45.70   11.90
  -5   5   1   12.90   16.20
  -5   5   1  -40.30   15.40
  -5   5   1   17.60   17.90
  -5   5   1   50.69   30.70
  -5   5   1    3.50   28.50
   4  -5  -1   10.30   14.60
  -4  -5   1  -22.90   10.70
  -4  -5   1   21.10   14.50
  -4  -5   1   20.30   15.40
  -4  -5   1    9.50   20.40
   4   5  -1   12.90   13.90
  -4   5   1  -32.10   11.40
  -4   5   1   15.90   16.90
  -4   5   1   20.00   24.70
  -4   5   1   24.00   15.60
  -4   5   1   21.80   24.50
  -3  -5   1   30.80   14.90
   3  -5  -1   39.80   11.30
   3  -5  -1   31.10   15.10
  -3  -5   1   37.60   23.00
  -3  -5   1   42.40   15.90
  -3   5   1   40.70   16.60
  -3   5   1   77.49   12.00
  -3   5   1   29.90   16.10
   3   5  -1   65.99   15.00
  -3   5   1   44.60   23.90
  -3   5   1   55.09   24.00
   3   5  -1   35.60   14.90
  -2  -5   1    0.10   12.70
   2  -5  -1    7.00    9.40
  -2  -5   1   10.70   13.50
  -2  -5   1   38.10   13.60
  -2  -5   1    6.00   18.10
   2   5  -1   20.60   20.80
   2   5  -1   20.30   13.10
  -2   5   1   50.69   21.70
  -2   5   1   48.20   15.70
  -2   5   1   24.20   19.30
   2   5  -1   -5.40    5.40
  -2   5   1   47.50   16.40
   1  -5  -1   53.89   19.10
   1  -5  -1   53.19   16.10
   1  -5  -1   50.99   12.80
  -1  -5   1   66.49   17.10
  -1  -5   1   90.39   22.10
   1  -5  -1   54.69   16.30
  -1  -5   1   59.59   19.40
  -1  -5   1   55.29   16.70
   1  -5  -1   52.59   20.10
  -1  -5   1   73.89   24.10
  -1  -5   1   55.69   16.10
   1  -5  -1   61.09   23.40
   1   5  -1   49.99   17.20
   1   5  -1   27.60   16.20
  -1   5   1   31.20   16.50
   1   5  -1   40.20   16.30
  -1   5   1   46.20   22.50
   1   5  -1   22.50   18.60
  -1   5   1   48.00   20.00
  -1   5   1   57.79   17.00
   0  -5  -1   65.39   18.70
   0  -5  -1   96.89   20.60
   0  -5  -1   74.29   17.00
   0  -5   1   55.99   18.20
   0  -5   1   94.89   16.90
   0  -5   1   76.19   23.90
   0  -5   1   70.79   18.20
   0  -5  -1   87.99   24.00
   0  -5   1   92.19   17.00
   0  -5   1   82.29   22.20
   0  -5  -1   74.19   17.40
   0   5  -1  102.89   23.20
   0   5   1   63.89   20.30
   0   5  -1   86.49   18.70
   0   5   1   67.59   16.50
   0   5  -1   62.69   18.10
   0   5   1   72.89   17.70
   0   5   1  101.29   26.80
   0   5  -1   60.99   16.60
   0   5   1   65.79   21.70
   0   5  -1  123.99   24.30
   1  -5   1  207.28   21.50
  -1  -5  -1  182.78   22.00
  -1  -5  -1  209.18   27.90
   1  -5   1  185.38   13.10
  -1  -5  -1  161.18   20.40
  -1  -5  -1  184.88   24.40
  -1  -5  -1  176.28   23.80
   1  -5   1  227.28   28.40
   1  -5   1  191.68   22.00
   1   5   1  199.68   22.30
  -1   5  -1  200.38   22.90
   1   5   1  172.58   23.20
   1   5   1  231.68   27.40
  -1   5  -1  215.28   29.00
  -1   5  -1  240.28   24.70
   1   5   1  178.78   21.30
  -1   5  -1  191.18   27.30
  -2  -5  -1 1102.69   52.69
  -2  -5  -1 1089.09   56.99
   2  -5   1 1067.69   60.79
  -2  -5  -1 1138.39   49.30
  -2  -5  -1 1073.49   60.89
  -2  -5  -1 1028.00   48.40
   2  -5   1  820.02   45.20
   2   5   1 1026.70   52.29
  -2   5  -1  984.90   60.99
   2   5   1 1075.39   56.19
  -2   5  -1 1081.59   60.09
   2   5   1  999.90   46.70
  -2   5  -1 1145.19   49.30
  -2   5  -1 1139.29   49.40
  -3  -5  -1   26.20   14.20
  -3  -5  -1   20.60   13.60
  -3  -5  -1   -0.70   18.50
  -3  -5  -1   36.80   14.00
   3  -5   1   42.20   15.70
  -3   5  -1   28.70   14.90
   3   5   1   20.60   15.50
  -3   5  -1   24.60   23.80
  -3   5  -1   50.79   16.20
  -3   5  -1   69.49   22.90
   3   5   1    2.70   12.90
  -4  -5  -1  285.77   29.10
  -4  -5  -1  251.57   24.70
  -4  -5  -1  256.77   26.00
   4  -5   1  295.77   25.40
  -4  -5  -1  329.37   43.90
  -4   5  -1  230.98   24.50
  -4   5  -1  204.68   35.00
  -4   5  -1  339.37   42.10
  -4   5  -1  272.37   22.80
   4   5   1  291.97   24.80
  -4   5  -1  240.58   26.40
  -5  -5  -1   -4.30   13.20
  -5  -5  -1   54.89   33.30
  -5  -5  -1  -19.60   15.40
  -5  -5  -1   -4.00   15.80
  -5   5  -1   62.79   31.50
  -5   5  -1  -22.80   13.80
  -5   5  -1   15.90   19.20
  -5   5  -1   -6.90   24.60
  -5   5  -1   10.60   17.10
  -6  -5  -1  -27.00   16.10
  -6  -5  -1   26.90   33.20
  -6  -5  -1   -1.00   15.00
  -6   5  -1   19.20   16.40
  -6   5  -1  -24.00   27.70
  -6   5  -1    0.90   17.70
  -6   5  -1   76.29   38.10
  -7  -5  -1    0.40   34.70
  -7  -5  -1   -7.80   14.40
  -7  -5  -1    0.90   40.40
  -7   5  -1   25.00   17.60
  -7   5  -1  120.09   49.90
  -7   5  -1   18.50   36.30
  -7  -6   1  -39.70   31.20
  -7  -6   1   19.30   19.50
  -7  -6   1   20.10   48.00
  -7   6   1    3.50   20.20
  -7   6   1    6.80   43.40
  -7   6   1  100.19   48.70
  -6  -6   1  -13.90   16.50
  -6  -6   1   33.10   32.90
  -6   6   1  -20.50   18.20
  -6   6   1   -0.30   36.70
  -6   6   1   25.40   35.10
  -5  -6   1   -7.80   15.50
  -5  -6   1   33.10   29.20
  -5  -6   1   29.30   18.40
  -5  -6   1   80.59   23.30
  -5   6   1   74.19   23.30
  -5   6   1   28.20   18.70
  -5   6   1   19.80   29.40
  -5   6   1   61.39   33.50
  -5   6   1   13.50   16.10
   4  -6  -1   18.90   16.00
  -4  -6   1  -11.60   19.90
  -4  -6   1    9.90   15.30
  -4  -6   1   15.80   16.80
  -4  -6   1   23.40   13.70
   4   6  -1   -6.10   13.20
  -4   6   1    5.60   26.40
  -4   6   1   45.60   12.60
  -4   6   1   29.70   17.40
  -4   6   1   15.70   18.00
  -4   6   1   14.70   23.30
   4   6  -1    8.00   15.00
  -3  -6   1  536.45   35.10
   3  -6  -1  417.96   33.00
  -3  -6   1  500.85   30.60
  -3  -6   1  475.05   44.00
  -3  -6   1  398.46   32.70
  -3   6   1  452.65   45.80
   3   6  -1  460.05   32.80
   3   6  -1  470.35   30.60
  -3   6   1  499.45   34.90
  -3   6   1  393.16   35.00
  -3   6   1  462.65   42.70
  -2  -6   1   18.30   15.20
   2  -6  -1  -14.40   13.40
  -2  -6   1   -1.70   19.70
  -2  -6   1   27.30   16.40
   2  -6  -1   17.10    8.30
  -2  -6   1    5.10   14.20
  -2   6   1   -6.60   18.40
  -2   6   1   13.90   17.30
  -2   6   1   17.40   17.30
  -2   6   1    1.60   22.20
   2   6  -1   24.80   15.40
   2   6  -1  -13.60   18.60
   2   6  -1   18.70   15.90
   1  -6  -1 1495.65   72.69
  -1  -6   1 1479.25   68.99
   1  -6  -1 1552.44   64.89
   1  -6  -1 1420.16   63.49
  -1  -6   1 1395.76   63.89
  -1  -6   1 1479.95   63.79
  -1  -6   1 1520.75   72.39
  -1   6   1 1438.36   78.49
   1   6  -1 1520.45   64.79
   1   6  -1 1549.34   69.09
  -1   6   1 1317.87   62.79
   1   6  -1 1589.74   64.89
  -1   6   1 1502.35   76.09
   1   6  -1 1425.26   75.59
  -1   6   1 1448.06   64.39
   0  -6   1   45.20   17.80
   0  -6  -1   30.30   16.70
   0  -6   1   27.40   15.40
   0  -6   1   44.50   15.30
   0  -6  -1   43.10   18.60
   0  -6  -1   30.10   16.50
   0  -6   1   41.00   20.20
   0   6   1   38.60   18.00
   0   6   1   48.80   25.80
   0   6   1   58.69   23.20
   0   6   1   32.00   17.40
   0   6  -1   46.40   18.20
   0   6  -1   24.30   22.30
   0   6  -1   10.10   17.20
   0   6  -1   48.60   21.90
   1  -6   1  385.36   32.00
   1  -6   1  333.17   20.40
  -1  -6  -1  391.86   32.30
  -1  -6  -1  374.96   31.50
  -1  -6  -1  344.27   35.50
   1  -6   1  312.97   36.40
  -1  -6  -1  352.56   31.60
  -1   6  -1  342.77   37.90
  -1   6  -1  350.26   30.90
   1   6   1  356.26   28.30
  -1   6  -1  394.66   39.70
   1   6   1  382.46   35.60
  -1   6  -1  424.96   33.30
  -2  -6  -1   50.79   18.50
  -2  -6  -1   39.30   17.50
  -2  -6  -1   58.59   20.60
  -2  -6  -1   15.50   14.90
  -2   6  -1   14.70   22.70
  -2   6  -1   78.29   24.50
   2   6   1   46.10   17.70
  -2   6  -1   31.80   16.40
   2   6   1   53.89   22.60
  -2   6  -1   46.40   17.80
   3  -6   1   30.40   15.50
  -3  -6  -1   -7.10   13.60
  -3  -6  -1   13.70   16.30
  -3  -6  -1   10.60   19.60
  -3  -6  -1   29.20   16.40
  -3   6  -1   -7.60   15.50
  -3   6  -1   14.40   21.20
  -3   6  -1   16.60   15.10
  -3   6  -1   45.40   23.80
   3   6   1    5.30   14.50
  -4  -6  -1   22.60   17.40
  -4  -6  -1    1.00   21.70
  -4  -6  -1   -1.60   16.10
   4  -6   1    0.50   15.70
  -4  -6  -1    7.20   15.00
  -4   6  -1   -2.60   22.70
  -4   6  -1   -5.50   15.50
   4   6   1   -3.30   15.00
  -4   6  -1   -8.00   16.80
  -4   6  -1   56.49   26.80
  -5  -6  -1    6.30   18.50
  -5  -6  -1   51.19   21.00
  -5  -6  -1   -2.00   24.20
  -5  -6  -1  -12.30   14.90
  -5   6  -1   10.90   17.10
  -5   6  -1   27.40   21.10
  -5   6  -1    8.10   26.90
  -5   6  -1   82.39   34.70
  -6  -6  -1  -44.70   24.00
  -6  -6  -1    9.60   17.40
  -6   6  -1   31.30   39.10
  -6   6  -1   -2.60   17.50
  -6   6  -1   30.10   32.80
  -7  -6  -1  -26.60   39.60
  -7  -6  -1    2.00   16.90
  -7  -6  -1   -9.20   46.70
  -7   6  -1  -13.70   35.80
  -7   6  -1   85.09   50.99
  -7   6  -1   15.40   19.30
  -7  -7   1   33.00   21.80
  -7  -7   1  -11.00   40.40
  -7  -7   1  -57.79   29.50
  -7   7   1    0.80   37.50
  -7   7   1   54.29   52.49
  -7   7   1   33.40   23.50
  -6  -7   1   -7.80   19.00
  -6  -7   1  -13.80   29.20
  -6   7   1   46.40   38.10
  -6   7   1   45.30   42.20
  -6   7   1   18.20   20.80
  -5  -7   1   11.90   18.10
  -5  -7   1   14.10   26.10
  -5   7   1   -0.50   33.20
  -5   7   1   -4.60   26.70
  -5   7   1   -5.60   18.60
  -4  -7   1  123.49   23.80
  -4  -7   1   91.99   23.70
  -4  -7   1  142.39   21.40
  -4  -7   1  112.29   34.50
  -4   7   1   71.39   23.50
  -4   7   1  101.79   35.70
  -4   7   1   87.89   30.20
  -4   7   1   98.09   23.30
  -3  -7   1  -11.20   15.60
  -3  -7   1  -11.20   22.40
  -3  -7   1    9.00   16.80
   3  -7  -1   -3.20   10.30
  -3  -7   1   34.90   16.50
  -3   7   1    2.00   26.30
   3   7  -1   28.70   16.40
  -3   7   1   18.90   25.90
   3   7  -1    9.20   14.00
  -3   7   1   18.60   17.80
  -3   7   1   -1.90   16.90
  -2  -7   1   22.50   20.40
  -2  -7   1   28.20   17.20
  -2  -7   1   37.80   18.10
   2  -7  -1    1.50   16.30
   2  -7  -1   18.70    9.30
  -2  -7   1    7.80   16.70
   2   7  -1    4.50   17.00
   2   7  -1  -12.70   19.40
  -2   7   1    9.30   18.00
  -2   7   1    5.70   22.20
  -2   7   1   11.90   17.20
   2   7  -1   -6.20   15.70
  -2   7   1   -9.10   24.90
   1  -7  -1   64.49   20.80
  -1  -7   1  123.49   24.10
   1  -7  -1  142.29   29.30
  -1  -7   1  107.39   22.40
  -1  -7   1  107.09   24.20
  -1  -7   1  101.79   21.20
  -1   7   1  103.09   21.50
   1   7  -1  106.29   28.10
   1   7  -1  107.89   23.00
  -1   7   1  123.69   30.20
  -1   7   1  102.39   23.10
  -1   7   1  158.78   34.30
   0  -7   1  420.66   35.20
   0  -7   1  408.56   31.20
   0  -7  -1  425.06   39.30
   0  -7   1  502.85   38.00
   0  -7  -1  506.05   34.60
   0  -7  -1  537.05   37.30
   0  -7   1  530.65   36.90
   0  -7  -1  494.25   36.10
   0   7  -1  469.45   41.20
   0   7  -1  500.95   35.10
   0   7  -1  494.15   45.10
   0   7   1  463.45   43.20
   0   7   1  482.45   47.60
   0   7  -1  448.06   33.80
   0   7   1  507.35   35.00
   0   7   1  464.65   33.80
   1  -7   1  186.28   26.40
  -1  -7  -1  219.48   29.40
  -1  -7  -1  204.88   26.40
  -1  -7  -1  248.78   32.50
   1  -7   1  224.78   18.00
  -1  -7  -1  269.27   28.80
  -1   7  -1  295.47   38.20
  -1   7  -1  168.68   32.50
   1   7   1  213.78   28.60
  -1   7  -1  223.08   28.70
   1   7   1  252.27   34.30
  -1   7  -1  268.27   30.60
  -2  -7  -1  385.56   43.00
  -2  -7  -1  360.66   33.30
  -2  -7  -1  381.46   33.10
  -2  -7  -1  375.16   35.70
   2  -7   1  461.55   37.30
   2   7   1  380.96   33.50
  -2   7  -1  436.66   36.20
   2   7   1  403.36   41.00
  -2   7  -1  345.07   33.90
  -2   7  -1  482.95   47.40
  -2   7  -1  389.26   43.50
  -3  -7  -1   48.30   26.00
   3  -7   1   39.40   18.30
  -3  -7  -1   53.59   18.90
  -3  -7  -1   20.70   18.90
  -3  -7  -1   45.10   19.10
  -3   7  -1   19.70   18.80
  -3   7  -1   30.60   28.90
   3   7   1   11.70   16.30
  -3   7  -1   12.70   18.10
  -3   7  -1  100.39   29.70
  -4  -7  -1  157.38   24.70
  -4  -7  -1  128.09   25.20
  -4  -7  -1  125.69   35.20
  -4  -7  -1  207.18   28.40
  -4   7  -1  178.88   27.20
  -4   7  -1  101.69   26.40
  -4   7  -1  163.98   37.80
  -4   7  -1  163.78   38.60
  -5  -7  -1  -13.90   30.30
  -5  -7  -1   24.80   20.40
  -5  -7  -1   16.50   17.10
  -5   7  -1   14.20   20.40
  -5   7  -1   57.69   36.70
  -5   7  -1   30.70   35.30
  -6  -7  -1   33.10   20.50
  -6  -7  -1   70.49   39.50
  -6   7  -1   20.60   34.50
  -6   7  -1   87.59   45.00
  -6   7  -1    4.00   20.60
  -7  -7  -1  -17.20   33.50
  -7  -7  -1   10.00   20.70
  -7   7  -1   38.20   52.79
  -7   7  -1   11.00   20.70
  -7   7  -1  -18.30   44.00
  -7  -8   1   -1.00   22.70
  -7  -8   1    9.80   41.40
  -7   8   1  -41.20   36.00
  -7   8   1    4.50   25.10
  -7   8   1   50.59   55.79
  -6  -8   1    9.00   23.20
  -6  -8   1   20.10   35.90
  -6   8   1  -31.70   34.80
  -6   8   1  -22.50   20.40
  -6   8   1   20.00   45.50
  -5  -8   1   19.90   32.30
  -5  -8   1   17.70   20.20
  -5   8   1  -13.20   37.00
  -5   8   1  -10.60   27.60
  -5   8   1   58.29   24.00
  -4  -8   1  101.09   22.50
  -4  -8   1   23.90   26.80
  -4  -8   1   41.50   20.90
  -4   8   1   32.70   29.00
  -4   8   1   16.80   35.50
  -4   8   1   33.90   21.20
   3  -8  -1   13.60   14.10
  -3  -8   1   72.99   30.00
  -3  -8   1   52.79   22.30
  -3  -8   1  121.29   23.50
  -3  -8   1   98.99   24.60
   3   8  -1  139.39   35.00
  -3   8   1   99.89   32.10
  -3   8   1  104.49   36.00
  -3   8   1   38.80   21.40
  -3   8   1   46.70   23.00
   2  -8  -1  303.87   33.80
  -2  -8   1  258.87   37.20
  -2  -8   1  322.37   33.40
   2  -8  -1  246.98   17.60
  -2  -8   1  299.07   33.90
  -2  -8   1  261.97   31.30
   2  -8  -1  265.77   17.30
   2   8  -1  251.87   31.10
  -2   8   1  275.27   32.50
  -2   8   1  257.77   38.70
   2   8  -1  317.07   41.90
  -2   8   1  270.87   43.50
  -2   8   1  247.68   30.30
  -1  -8   1  352.96   36.00
  -1  -8   1  259.17   33.30
  -1  -8   1  276.37   31.60
  -1  -8   1  327.57   35.90
   1  -8  -1  242.98   29.70
   1  -8  -1  267.97   25.70
   1  -8  -1  238.88   37.10
   1   8  -1  308.97   34.60
  -1   8   1  353.06   34.80
  -1   8   1  257.57   37.10
   1   8  -1  263.77   36.40
  -1   8   1  233.58   37.40
  -1   8   1  257.67   30.70
   0  -8  -1  330.07   35.00
   0  -8  -1  375.46   36.50
   0  -8   1  355.16   30.50
   0  -8   1  396.86   38.50
   0  -8  -1  353.36   39.10
   0  -8  -1  324.37   30.90
   0  -8   1  375.66   39.40
   0   8   1  342.27   46.80
   0   8  -1  389.56   36.40
   0   8  -1  334.37   41.00
   0   8   1  345.17   42.50
   0   8  -1  300.27   33.50
   0   8   1  401.66   36.60
   0   8  -1  457.15   49.10
   1  -8   1  214.18   20.30
  -1  -8  -1  185.18   28.60
  -1  -8  -1  201.48   28.10
  -1  -8  -1  178.38   29.40
  -1  -8  -1  211.48   32.20
   1  -8   1  164.38   26.50
  -1   8  -1  225.28   31.20
   1   8   1  152.58   31.60
  -1   8  -1  187.08   34.00
   1   8   1  189.38   26.40
  -1   8  -1  212.08   37.70
  -1   8  -1  165.28   27.70
   2  -8   1   39.90   20.70
  -2  -8  -1   47.30   21.00
  -2  -8  -1   38.70   20.80
  -2  -8  -1   24.40   22.80
  -2  -8  -1    3.90   16.50
   2   8   1    5.90   17.20
  -2   8  -1   -9.80   26.30
  -2   8  -1   55.39   22.80
   2   8   1   26.90   22.50
  -2   8  -1   39.40   20.20
  -2   8  -1   25.10   25.60
  -3  -8  -1    1.90   23.90
  -3  -8  -1   26.90   20.20
   3  -8   1   13.30   17.70
  -3  -8  -1   12.10   19.50
  -3  -8  -1    3.60   15.50
  -3   8  -1   47.00   21.80
  -3   8  -1    1.20   25.30
  -3   8  -1   20.00   20.60
   3   8   1   29.00   18.80
  -3   8  -1   15.30   29.50
  -4  -8  -1   62.79   21.90
  -4  -8  -1   16.40   28.10
  -4  -8  -1   67.59   23.80
  -4   8  -1   23.70   33.80
  -4   8  -1   42.60   22.40
  -4   8  -1   18.60   29.40
  -5  -8  -1   -3.20   18.70
  -5  -8  -1    5.10   32.70
  -5   8  -1   16.80   21.90
  -5   8  -1   -2.40   35.20
  -5   8  -1   82.19   40.10
  -6  -8  -1   38.30   23.20
  -6  -8  -1   39.20   38.90
  -6   8  -1  -30.70   20.40
  -6   8  -1   65.19   49.20
  -6   8  -1   22.00   41.10
  -7  -8  -1    4.70   21.40
  -7  -8  -1   17.40   45.60
  -7   8  -1    8.30   42.50
  -7   8  -1  116.79   59.39
  -7   8  -1   23.40   25.20
  -6  -9   1    2.90   39.20
  -6  -9   1   19.50   24.60
  -6   9   1   16.20   42.00
  -6   9   1   10.50   26.50
  -6   9   1  -49.10   47.10
  -5  -9   1   41.80   24.00
  -5  -9   1   67.99   35.70
  -5   9   1   64.29   36.20
  -5   9   1   59.69   26.00
  -5   9   1   40.60   43.60
  -4  -9   1   21.60   20.80
  -4  -9   1   17.50   21.40
  -4  -9   1  -17.40   23.30
  -4   9   1  -22.90   20.90
  -4   9   1  -16.50   32.60
  -4   9   1  -12.40   35.90
  -3  -9   1   69.79   22.90
  -3  -9   1   19.20   27.60
  -3  -9   1   45.00   22.70
  -3   9   1    5.70   21.80
  -3   9   1   50.59   37.60
   3   9  -1   36.40   29.40
  -3   9   1   79.99   34.90
   2  -9  -1   17.70   19.90
   2  -9  -1    5.70   10.60
  -2  -9   1   26.20   20.60
   2  -9  -1    4.50    9.40
  -2  -9   1  -33.40   19.20
  -2  -9   1  -26.10   21.20
  -2  -9   1   -0.40   17.40
  -2   9   1  -11.00   22.30
  -2   9   1   -9.70   30.00
   2   9  -1   26.70   29.80
  -2   9   1  -14.00   24.30
  -2   9   1  -17.20   17.10
   2   9  -1   19.30   19.70
  -1  -9   1   31.20   22.60
  -1  -9   1   27.70   22.00
   1  -9  -1   53.89   17.10
  -1  -9   1   40.70   21.40
   1  -9  -1   72.99   24.80
  -1  -9   1   63.89   23.40
   1  -9  -1   33.50   21.50
  -1   9   1   85.49   26.40
  -1   9   1   35.30   31.20
  -1   9   1   63.49   24.40
   1   9  -1   76.39   30.50
   1   9  -1   13.00   20.50
  -1   9   1   18.80   28.80
   0  -9  -1    6.00   18.20
   0  -9  -1   21.60   19.90
   0  -9  -1   24.90   23.20
   0  -9   1   -0.40   20.70
   0  -9   1   -7.40   16.00
   0  -9   1  -27.90   19.00
   0   9  -1   -4.10   24.80
   0   9   1   21.30   28.00
   0   9  -1  -14.30   19.90
   0   9   1  -32.10   25.30
   0   9  -1  -17.90   24.70
   0   9   1   -5.10   19.20
  -1  -9  -1  315.57   36.70
   1  -9   1  318.37   24.70
   1  -9   1  409.76   39.30
  -1  -9  -1  335.87   38.50
  -1  -9  -1  306.87   37.20
  -1  -9  -1  272.27   33.80
   1   9   1  355.36   38.40
  -1   9  -1  322.27   37.10
  -1   9  -1  283.17   45.10
   1   9   1  300.57   42.70
  -1   9  -1  336.37   45.80
  -1   9  -1  303.57   36.00
  -2  -9  -1   26.10   23.50
  -2  -9  -1   -7.60   23.20
  -2  -9  -1    1.40   17.70
   2  -9   1   -4.10   17.60
  -2  -9  -1    7.10   20.90
   2   9   1    1.40   19.00
  -2   9  -1   -8.10   20.70
   2   9   1  -23.60   23.80
  -2   9  -1   21.20   31.80
  -2   9  -1    9.60   31.10
  -2   9  -1   11.10   21.90
  -3  -9  -1  160.78   29.80
  -3  -9  -1  161.68   29.00
  -3  -9  -1  115.89   34.80
   3   9   1  140.39   35.50
  -3   9  -1  217.78   46.10
  -3   9  -1  141.99   40.90
  -3   9  -1  163.88   30.70
  -4  -9  -1  -17.50   21.00
  -4  -9  -1   14.10   19.50
  -4  -9  -1   39.60   27.20
  -4   9  -1    0.50   39.10
  -4   9  -1  -31.70   19.80
  -4   9  -1   32.10   35.30
  -5  -9  -1   58.59   35.30
  -5  -9  -1   27.90   22.90
  -5   9  -1   71.79   45.90
  -5   9  -1   14.10   24.20
  -5   9  -1  -20.10   32.10
  -6  -9  -1  -37.60   18.00
  -6  -9  -1    9.50   40.40
  -6   9  -1  -14.80   22.60
  -6   9  -1    8.80   50.79
  -6   9  -1  -41.30   38.80
  -6 -10   1  -20.60   26.10
  -6 -10   1    9.00   41.80
  -6  10   1    5.80   28.40
  -6  10   1    1.20   56.09
  -6  10   1    3.40   40.00
  -5 -10   1  -53.29   20.80
  -5 -10   1  -28.80   26.30
  -5  10   1  -32.30   31.40
  -5  10   1   32.50   47.50
  -5  10   1   28.30   27.10
  -4 -10   1   51.39   32.40
  -4 -10   1   55.49   27.00
  -4  10   1   80.09   49.00
  -4  10   1   69.89   40.10
  -4  10   1   34.20   26.20
  -3 -10   1   39.10   29.50
  -3 -10   1  -11.40   22.10
  -3 -10   1   26.40   23.20
  -3  10   1   39.00   25.80
  -3  10   1   23.80   41.10
   3  10  -1   -5.10   30.70
  -3  10   1   27.20   35.70
  -2 -10   1  269.57   42.40
  -2 -10   1  304.57   38.30
  -2 -10   1  261.37   37.40
   2 -10  -1  242.98   33.70
  -2  10   1  223.78   36.30
  -2  10   1  192.58   46.00
   2  10  -1  264.97   46.10
  -2  10   1  227.88   46.90
   2  10  -1  212.58   35.70
   1 -10  -1   72.49   25.10
   1 -10  -1   53.59   28.60
  -1 -10   1  100.79   27.00
  -1 -10   1   57.49   26.10
   1 -10  -1   64.49   19.60
  -1 -10   1   71.79   25.00
   1  10  -1   71.39   31.30
   1  10  -1   33.90   24.40
  -1  10   1   87.79   38.00
  -1  10   1   67.99   24.20
  -1  10   1   29.50   34.10
   0 -10   1  202.78   28.90
   0 -10  -1  151.18   30.30
   0 -10   1  201.88   33.30
   0 -10  -1  234.98   32.10
   0 -10  -1  231.28   37.60
   0  10  -1  183.08   40.90
   0  10  -1  153.58   38.90
   0  10   1  225.18   45.80
   0  10   1  154.18   39.50
   0  10   1  247.18   36.50
   0  10  -1  220.48   35.40
  -1 -10  -1   31.90   23.40
   1 -10   1   18.20   15.20
  -1 -10  -1   66.89   26.80
  -1 -10  -1   36.70   25.70
   1 -10   1   14.30   24.70
  -1 -10  -1   -0.60   22.50
  -1  10  -1   20.30   29.80
  -1  10  -1    2.70   31.20
   1  10   1   34.00   27.20
   1  10   1   37.90   21.90
  -1  10  -1   51.09   26.10
  -1  10  -1   15.10   24.00
  -2 -10  -1   29.30   26.90
  -2 -10  -1  -18.60   22.80
  -2 -10  -1   -5.60   22.30
  -2  10  -1   38.60   25.30
   2  10   1   23.10   27.00
  -2  10  -1   25.70   35.30
  -2  10  -1   21.20   32.70
  -3 -10  -1    3.00   21.90
  -3 -10  -1   31.60   24.90
  -3 -10  -1   10.60   25.90
   3  10   1   -4.60   29.70
  -3  10  -1   93.99   30.00
  -3  10  -1   -2.00   30.20
  -3  10  -1   -0.40   38.70
  -4 -10  -1   32.50   25.60
  -4 -10  -1   81.29   39.00
  -4 -10  -1   38.30   26.50
  -4  10  -1   51.49   40.90
  -4  10  -1   76.79   49.80
  -4  10  -1   46.10   27.20
  -5 -10  -1  -11.40   37.30
  -5 -10  -1   32.70   26.10
  -5  10  -1  -18.10   35.30
  -5  10  -1   20.20   49.30
  -5  10  -1   17.50   26.30
  -6 -10  -1    8.50   25.90
  -6 -10  -1   20.20   38.80
  -6  10  -1  -47.60   24.40
  -6  10  -1  -29.10   57.09
  -6  10  -1   -8.10   39.90
  -5 -11   1   15.50   39.00
  -5 -11   1  -40.70   25.40
  -5  11   1    7.50   29.50
  -5  11   1   26.80   59.99
  -5  11   1   25.10   41.10
  -4 -11   1  -11.80   25.80
  -4 -11   1   34.20   35.00
  -4  11   1   39.40   44.30
  -4  11   1   -0.70   25.30
  -4  11   1  -57.99   46.40
  -3 -11   1   18.20   30.90
  -3 -11   1  -21.30   23.30
  -3 -11   1   28.10   24.60
   3  11  -1   14.90   34.90
  -3  11   1   16.80   25.20
  -3  11   1  -50.99   36.20
  -3  11   1  -29.70   42.30
  -2 -11   1   -2.50   24.30
  -2 -11   1   -0.60   25.70
  -2 -11   1   -2.20   28.20
   2  11  -1    7.20   33.60
  -2  11   1  -25.00   21.50
  -2  11   1   22.50   35.30
  -2  11   1  -31.50   29.40
   1 -11  -1    6.00   17.40
  -1 -11   1  -15.50   22.80
  -1 -11   1   -5.30   24.00
  -1 -11   1   22.20   23.70
   1 -11  -1   29.30   25.90
   1 -11  -1   25.10   26.00
  -1  11   1   22.00   25.80
  -1  11   1   -4.40   33.30
   1  11  -1   20.30   33.30
   1  11  -1   51.39   28.50
  -1  11   1   -2.50   35.20
   0 -11  -1  156.78   33.40
   0 -11   1  171.38   28.80
   0 -11  -1   73.09   25.50
   0 -11  -1  123.29   31.50
   0 -11   1   80.29   29.00
   0  11   1   63.29   37.40
   0  11  -1  127.99   37.80
   0  11   1  113.09   32.90
   0  11   1  119.29   41.50
   0  11  -1  154.08   32.70
  -1 -11  -1   74.99   30.00
   1 -11   1   37.90   25.10
  -1 -11  -1   80.09   29.50
  -1 -11  -1   65.79   29.30
  -1  11  -1    0.60   23.60
  -1  11  -1   73.49   37.70
   1  11   1   87.59   36.00
  -1  11  -1    8.20   32.60
   1  11   1   73.69   31.00
  -2 -11  -1  271.07   44.90
  -2 -11  -1  325.27   43.70
  -2 -11  -1  176.08   34.90
   2  11   1  237.48   46.90
  -2  11  -1  186.28   44.40
  -2  11  -1  196.58   35.50
  -2  11  -1  316.37   54.29
  -3 -11  -1   62.39   33.40
  -3 -11  -1  101.29   31.90
  -3 -11  -1   60.99   28.60
  -3  11  -1   26.00   42.50
  -3  11  -1    8.40   41.30
  -3  11  -1   58.29   29.30
   3  11   1   14.30   34.40
  -4 -11  -1   57.59   36.70
  -4 -11  -1   59.49   28.60
  -4  11  -1   75.59   53.09
  -4  11  -1   80.19   44.10
  -4  11  -1   66.99   30.30
  -5 -11  -1   -0.50   39.20
  -5 -11  -1   44.50   28.60
  -5  11  -1  -37.10   43.00
  -5  11  -1   -1.20   28.50
  -5  11  -1   25.90   61.29
  -5 -12   1   31.10   32.30
  -5 -12   1   69.69   46.10
  -5  12   1  -32.50   47.50
  -5  12   1  -36.00   56.99
  -5  12   1   61.69   36.70
  -4 -12   1   -0.80   27.80
  -4 -12   1  -49.60   32.70
  -4  12   1  -28.80   36.80
  -4  12   1  -47.50   54.69
  -4  12   1   47.40   32.90
  -3 -12   1  148.19   42.30
  -3 -12   1  154.78   37.60
  -3 -12   1  146.19   35.10
   3  12  -1  178.38   44.20
  -3  12   1  197.08   58.59
  -3  12   1  132.09   35.60
  -3  12   1   87.69   44.10
  -2 -12   1  -19.60   28.10
  -2 -12   1   12.20   26.80
  -2 -12   1    4.00   28.00
  -2  12   1   -1.00   35.70
   2  12  -1   14.20   36.90
  -2  12   1  -38.10   27.80
  -2  12   1   11.30   43.70
  -1 -12   1  247.18   40.60
  -1 -12   1  244.38   40.20
  -1 -12   1  159.78   38.30
  -1  12   1  237.28   48.10
   1  12  -1  252.27   50.69
  -1  12   1  192.48   40.90
  -1  12   1  184.18   44.70
   0 -12   1   18.00   22.30
   0 -12  -1    6.10   25.70
   0 -12  -1    1.20   24.90
   0 -12  -1    4.20   23.90
   0 -12   1   -8.60   27.20
   0  12  -1  -10.10   27.60
   0  12   1  -14.00   34.50
   0  12   1   35.00   38.30
   0  12   1  -21.60   27.80
   0  12  -1  -18.90   31.80
  -1 -12  -1   70.89   33.20
  -1 -12  -1   97.29   32.70
  -1 -12  -1   78.19   29.50
   1  12   1   79.49   39.80
  -1  12  -1   36.50   31.30
  -1  12  -1    7.30   34.00
  -1  12  -1   50.29   39.50
  -2 -12  -1   13.00   29.80
  -2 -12  -1   -3.00   29.20
  -2 -12  -1   -4.40   27.00
   2  12   1  -33.20   33.70
  -2  12  -1   49.60   42.30
  -2  12  -1   -9.10   28.10
  -2  12  -1  -21.40   34.60
  -3 -12  -1   13.70   31.00
  -3 -12  -1   13.80   28.60
  -3 -12  -1   33.00   35.60
   3  12   1   18.90   36.80
  -3  12  -1   48.70   41.60
  -3  12  -1   21.30   49.90
  -3  12  -1   13.40   28.10
  -4 -12  -1   29.80   39.60
  -4 -12  -1  -44.70   25.60
  -4  12  -1   -5.60   30.70
  -4  12  -1    7.90   40.70
  -4  12  -1    6.10   54.89
  -5 -12  -1   -6.00   28.30
  -5 -12  -1    9.80   41.40
  -5  12  -1  -25.80   42.50
  -5  12  -1  -96.99   58.49
  -5  12  -1   -4.20   32.20
  -4 -13   1   21.00   41.30
  -4 -13   1  -23.20   31.00
  -4  13   1  -71.09   47.10
  -4  13   1    7.80   58.29
  -4  13   1   -7.40   30.30
  -3 -13   1  -23.90   29.00
  -3 -13   1   24.50   36.60
   3  13  -1   73.69   44.70
  -3  13   1  -25.10   40.50
  -3  13   1   33.80   52.09
  -3  13   1   -1.10   32.70
  -2 -13   1   16.30   30.40
  -2 -13   1  -15.10   32.00
  -2 -13   1  -20.80   32.00
  -2  13   1  -15.70   37.60
  -2  13   1   26.80   46.40
  -2  13   1   17.00   33.70
   2  13  -1   18.80   39.30
  -1 -13   1  -19.70   26.70
  -1 -13   1  -16.50   29.40
  -1  13   1    0.30   41.20
   1  13  -1   26.10   38.30
  -1  13   1   40.90   41.80
  -1  13   1  -27.40   28.60
   0 -13  -1   79.39   36.30
   0 -13  -1   54.49   34.10
   0  13  -1   41.80   40.90
   0  13   1   -3.30   38.20
  -1 -13  -1  -28.20   29.70
  -1 -13  -1   25.40   33.70
  -1 -13  -1  -15.00   28.50
   1  13   1  -26.90   32.40
  -1  13  -1   14.60   33.20
  -1  13  -1  -46.00   36.90
  -1  13  -1   -0.30   41.40
  -2 -13  -1   80.39   38.80
  -2 -13  -1   48.80   32.70
  -2 -13  -1   50.39   33.70
   2  13   1   52.59   41.80
  -2  13  -1   75.09   48.50
  -2  13  -1  -12.30   44.00
  -2  13  -1   -8.00   32.70
  -3 -13  -1  -13.70   37.30
  -3 -13  -1  -19.80   30.60
  -3 -13  -1   37.10   34.90
  -3  13  -1   37.00   31.90
   3  13   1   -9.90   41.40
  -3  13  -1    7.40   47.60
  -3  13  -1  -12.70   41.40
  -4 -13  -1   27.30   34.90
  -4 -13  -1   58.59   43.30
  -4  13  -1    7.70   57.99
  -4  13  -1   34.10   37.40
  -4  13  -1   14.30   51.09
  -3 -14   1   64.49   42.30
  -3 -14   1  -43.00   34.20
  -3  14   1   24.70   54.99
   3  14  -1  -21.50   43.50
  -3  14   1  -19.10   34.20
  -3  14   1    1.20   51.69
  -2 -14   1   83.79   38.60
  -2 -14   1    0.70   36.90
   2  14  -1   47.80   46.40
  -2  14   1   14.40   44.50
  -2  14   1   61.49   35.70
  -2  14   1   79.59   54.79
  -1  14   1   52.39   49.10
   1  14  -1   10.10   39.10
  -1  14   1  -64.19   35.70
   0  14  -1    5.00   42.70
   0  14   1   58.39   45.20
  -1 -14  -1   -2.90   31.30
  -1 -14  -1   26.90   36.50
  -1  14  -1  -76.09   35.10
  -1  14  -1  -43.80   31.10
  -1  14  -1   43.60   48.60
   1  14   1   57.69   45.10
  -2 -14  -1   23.70   34.10
  -2 -14  -1   35.60   37.00
  -2 -14  -1   24.70   34.90
  -2  14  -1  -34.60   34.90
   2  14   1    5.40   44.20
  -2  14  -1  113.69   52.19
  -2  14  -1  -51.09   45.70
  -3 -14  -1  -15.50   33.30
  -3 -14  -1   10.90   41.90
  -3  14  -1   54.19   55.39
  -3  14  -1  -46.80   43.30
   3  14   1   10.10   46.70
  -3  14  -1   13.40   37.60
  -2 -15   1   -5.20   40.70
  -2  15   1  -21.20   44.30
   2  15  -1   61.09   50.49
  -2  15   1  155.58   63.69
   1  15  -1   48.80   46.30
  -1  15   1   39.20   50.49
  -1  15   1  -14.10   48.90
   0  15  -1  -10.60   46.70
   0  15   1   33.00   44.90
  -1 -15  -1   78.39   41.60
  -1  15  -1  -11.70   43.70
   1  15   1    5.10   44.60
  -2 -15  -1   -7.20   35.40
  -2 -15  -1  -14.10   38.10
  -2  15  -1   47.40   55.29
   2  15   1   72.39   50.39
  -2  15  -1   12.20   40.50
  -2  15  -1   -1.90   48.20
  -8   0   2   84.89   49.99
  -8   0   2   40.30   39.00
  -8   0   2    0.40   13.60
  -8   0   2   10.00   48.10
  -7   0   2   13.10   27.80
  -7   0   2   40.80   36.90
  -7   0   2   -1.50   13.10
  -7   0   2   -5.60   15.50
  -7   0   2   11.10   38.40
  -6   0   2   -0.60   19.20
  -6   0   2   45.90   33.60
  -6   0   2   -9.00   13.80
  -5   0   2    6.90   12.10
  -5   0   2   12.00   18.20
  -5   0   2    2.90   23.40
  -5   0   2   -3.20   11.00
  -4   0   2   23.80   21.80
  -4   0   2   36.00   11.20
  -4   0   2   21.70   16.60
  -4   0   2   21.40   11.60
   4   0  -2   11.20    9.90
   3   0  -2  -14.20   16.70
   3   0  -2   12.80    9.40
  -3   0   2    5.80   20.20
  -3   0   2   16.30   15.10
  -3   0   2    7.70    9.50
  -3   0   2  -17.00    9.00
  -2   0   2  897.61   36.30
   2   0  -2  940.91   46.70
  -2   0   2  959.50   51.89
  -2   0   2  916.01   36.60
   2   0  -2  938.01   35.80
   2   0  -2  932.81   51.39
  -2   0   2  867.61   39.10
   2   0  -2  921.41   36.50
  -2   0   2  896.41   46.20
   1   0  -2   11.70    6.70
  -1   0   2    8.30    5.90
  -1   0   2    1.60    6.60
   1   0  -2    8.20    9.30
   1   0  -2    7.80    9.60
  -1   0   2    0.80    6.50
  -1   0   2    6.80   11.10
   1   0  -2   -3.70    6.20
  -1   0   2   17.40   10.20
   1   0  -2   -1.20    1.60
   0   0   2    2.50    5.70
   0   0  -2   -3.00    3.60
   0   0  -2    7.40    3.50
   0   0   2   -0.80    4.30
   0   0   2    0.40    4.20
   0   0  -2    0.70    4.00
   0   0   2   -2.70    3.80
   0   0   2   -3.00    3.10
   0   0  -2    4.10    5.50
   0   0   2    3.60    4.60
   0   0  -2    1.50    5.40
   0   0  -2    2.20    4.90
  -1   0  -2   -6.30    9.60
  -1   0  -2    7.50    4.50
  -1   0  -2   11.50    8.60
   1   0   2    6.90    4.10
  -1   0  -2    3.70    4.60
  -2   0  -2  -43.10   11.80
  -2   0  -2  -29.90   12.20
  -3   0  -2  -43.10   10.80
  -3   0  -2  -25.80   12.20
  -4   0  -2  359.16   40.70
  -4   0  -2  341.27   39.00
  -4   0  -2  335.97   31.90
  -4   0  -2  325.47   34.00
  -5   0  -2   -5.50   17.60
  -5   0  -2  -20.00   14.80
  -5   0  -2  -26.90   20.10
  -5   0  -2  -40.40   18.80
  -6   0  -2  106.69   31.10
  -6   0  -2  143.49   39.60
  -6   0  -2  144.59   40.30
  -6   0  -2  103.49   28.20
  -7   0  -2    1.40   37.80
  -7   0  -2   13.40   36.10
  -7   0  -2    6.50   27.60
  -7   0  -2  -28.40   26.50
  -8   0  -2   60.19   49.70
  -8   0  -2  -19.00   35.40
  -8   0  -2   41.90   48.40
  -8  -1   2   43.70   39.30
  -8  -1   2   -1.60   44.80
  -8  -1   2   43.60   46.80
  -8  -1   2   -4.30   13.00
  -8   1   2   21.90   50.19
  -8   1   2   -0.80   34.50
  -8   1   2   11.30   39.50
  -8   1   2  -21.60   13.70
  -7  -1   2   23.80   39.00
  -7  -1   2  106.49   36.50
  -7  -1   2   20.20   16.50
  -7   1   2   24.70   36.10
  -7   1   2   10.10   34.20
  -7   1   2   -5.40   15.00
  -7   1   2   -8.20   24.80
  -7   1   2    0.40   14.40
  -6  -1   2   -8.10   14.10
  -6  -1   2   59.19   26.50
  -6  -1   2  -21.10   29.30
  -6  -1   2   -3.20   12.00
  -6  -1   2   24.10   20.50
  -6   1   2   24.30   30.20
  -6   1   2   -3.20   12.20
  -6   1   2    0.50   28.90
  -6   1   2    8.50   15.00
  -6   1   2   -1.30   20.50
  -5  -1   2   53.89   16.30
  -5  -1   2   53.29   13.50
  -5  -1   2   34.00   14.50
  -5  -1   2   16.80   26.90
  -5  -1   2   27.10   20.10
  -5   1   2   30.60   13.80
  -5   1   2   28.40   12.80
  -5   1   2   40.10   20.30
  -5   1   2   32.10   24.90
  -5   1   2   67.09   27.80
  -4  -1   2  222.08   32.30
   4  -1  -2  222.68   17.80
  -4  -1   2  191.38   19.30
  -4  -1   2  197.88   18.20
  -4  -1   2  206.58   33.90
  -4   1   2  205.28   24.30
  -4   1   2  192.28   18.70
   4   1  -2  221.38   17.50
  -4   1   2  214.28   27.70
  -4   1   2  196.58   34.00
  -3  -1   2   -7.40   16.20
   3  -1  -2   10.00   16.80
  -3  -1   2   13.30   10.50
  -3  -1   2   10.60   18.60
   3  -1  -2   37.20   10.40
  -3  -1   2   14.40   10.40
  -3   1   2   10.40   10.50
   3   1  -2    2.00    9.70
  -3   1   2  -13.10   12.60
  -3   1   2   25.90   19.70
  -3   1   2   24.30   10.50
  -3   1   2  -29.20   10.20
  -2  -1   2  481.05   24.20
   2  -1  -2  486.35   23.60
  -2  -1   2  488.05   24.10
  -2  -1   2  481.55   36.60
  -2  -1   2  430.46   33.20
   2  -1  -2  492.05   24.30
   2  -1  -2  463.05   29.40
   2  -1  -2  501.85   34.30
   2   1  -2  508.55   24.50
  -2   1   2  473.55   28.70
  -2   1   2  445.06   36.10
   2   1  -2  428.66   33.20
  -2   1   2  477.25   24.60
  -2   1   2  448.16   29.40
   2   1  -2  484.75   24.30
  -2   1   2  471.45   24.20
  -1  -1   2  929.61   43.70
  -1  -1   2  925.01   36.10
  -1  -1   2  910.21   36.60
   1  -1  -2  957.90   42.40
   1  -1  -2  962.40   36.50
   1  -1  -2  961.70   41.00
   1  -1  -2  978.20   46.70
  -1  -1   2  966.40   44.90
  -1   1   2  974.30   42.00
   1   1  -2  974.30   36.60
  -1   1   2  951.30   46.70
  -1   1   2  944.21   36.60
   1   1  -2  943.61   44.20
  -1   1   2  944.01   40.70
  -1  -1  -2 1443.36   48.80
  -1  -1  -2 1439.46   58.99
   1  -1   2 1375.46   60.99
   1  -1   2 1465.55   60.99
   1  -1   2 1407.96   48.70
   1  -1   2 1397.16   48.60
  -1  -1  -2 1403.16   48.80
   1   1   2 1420.56   48.60
  -1   1  -2 1407.76   60.59
  -1   1  -2 1385.76   48.80
  -1   1  -2 1398.66   60.99
  -1   1  -2 1445.26   48.90
   1   1   2 1477.75   59.29
   1   1   2 1457.25   48.60
  -2  -1  -2  344.97   15.30
   2  -1   2  362.36   13.70
  -2  -1  -2  279.07   23.40
  -2  -1  -2  363.26   15.30
   2  -1   2  375.26   13.70
  -2   1  -2  331.97   15.70
  -2   1  -2  368.66   16.10
  -2   1  -2  371.66   27.80
  -2   1  -2  371.06   27.30
  -3  -1  -2  307.67   25.60
  -3  -1  -2  334.77   13.50
  -3  -1  -2  301.97   13.40
  -3  -1  -2  333.47   35.40
  -3   1  -2  332.27   14.70
  -3   1  -2  378.26   29.20
  -3   1  -2  324.97   33.00
  -3   1  -2  334.97   14.80
  -3   1  -2  372.36   37.00
  -4  -1  -2  -29.90   12.50
  -4  -1  -2   24.80   14.70
  -4  -1  -2  -39.40   19.10
  -4   1  -2   17.10   24.00
  -4   1  -2   62.19   20.00
  -4   1  -2    0.90   16.80
  -5  -1  -2  -11.50   20.40
  -5  -1  -2  -12.80   17.10
  -5  -1  -2   -0.80   16.30
  -5   1  -2   -9.20   20.40
  -5   1  -2  -32.30   23.60
  -5   1  -2    5.40   20.80
  -6  -1  -2   19.60   26.10
  -6  -1  -2  -57.99   21.30
  -6  -1  -2   -8.40   27.00
  -6  -1  -2   17.90   24.10
  -6   1  -2    9.20   29.50
  -6   1  -2   31.80   28.20
  -6   1  -2   -1.40   23.20
  -6   1  -2   -3.10   21.70
  -7  -1  -2   12.00   29.50
  -7  -1  -2  -14.50   37.10
  -7  -1  -2  -57.19   32.20
  -7  -1  -2   15.00   31.00
  -7   1  -2    7.90   28.30
  -7   1  -2  -21.20   32.80
  -7   1  -2   -7.90   28.20
  -7   1  -2    0.00   38.80
  -8  -1  -2   67.19   53.79
  -8  -1  -2  -57.49   40.30
  -8  -1  -2   16.60   39.60
  -8   1  -2   23.20   51.19
  -8   1  -2   26.00   47.80
  -8  -2   2   63.89   44.50
  -8  -2   2  -14.90   13.80
  -8  -2   2   47.70   48.70
  -8   2   2   -2.20   15.50
  -8   2   2  -29.60   50.19
  -8   2   2   45.40   47.80
  -7  -2   2    6.00   17.70
  -7  -2   2   -9.90   14.10
  -7  -2   2  -39.20   36.20
  -7  -2   2   38.90   35.20
  -7   2   2  -15.90   16.20
  -7   2   2   -8.90   28.20
  -7   2   2   38.90   42.70
  -7   2   2   18.80   15.50
  -7   2   2   22.40   34.80
  -6  -2   2   -0.30   15.60
  -6  -2   2   29.00   14.00
  -6  -2   2   24.50   34.70
  -6  -2   2   41.90   29.40
  -6  -2   2   19.70   18.30
  -6   2   2   17.00   29.30
  -6   2   2    4.70   15.70
  -6   2   2  -18.20   21.40
  -6   2   2    6.20   14.10
  -6   2   2   51.39   34.10
  -5  -2   2  225.48   20.70
  -5  -2   2  164.08   35.90
  -5  -2   2  235.28   24.70
  -5  -2   2  188.78   34.80
  -5  -2   2  228.28   22.60
  -5   2   2  301.87   44.70
  -5   2   2  204.28   21.50
  -5   2   2  236.58   41.10
  -5   2   2  201.28   30.30
  -5   2   2  193.48   20.30
  -4  -2   2   75.09   23.00
  -4  -2   2  116.29   16.30
   4  -2  -2   76.49   14.00
  -4  -2   2   87.49   28.80
  -4  -2   2   97.69   14.60
  -4   2   2   30.00   18.00
  -4   2   2   41.60   22.80
   4   2  -2  127.29   14.20
  -4   2   2   78.09   26.60
  -4   2   2   87.39   14.80
  -4   2   2   69.59   15.00
  -3  -2   2 1184.38   47.20
   3  -2  -2 1131.19   45.30
  -3  -2   2 1105.19   46.20
   3  -2  -2 1137.99   55.89
  -3  -2   2 1118.99   60.59
  -3  -2   2 1112.39   46.60
  -3   2   2 1136.99   55.99
   3   2  -2 1204.48   46.00
  -3   2   2 1167.08   47.20
  -3   2   2 1061.39   54.69
  -3   2   2 1097.79   64.19
  -3   2   2 1116.29   46.70
  -3   2   2 1071.09   61.39
  -2  -2   2   -9.70   14.90
   2  -2  -2  -13.40   11.60
   2  -2  -2   13.70   10.30
  -2  -2   2    2.40   15.10
   2  -2  -2   14.80   11.00
  -2  -2   2    6.70   11.30
  -2  -2   2   -7.20    5.30
  -2  -2   2   11.40   10.70
   2  -2  -2   17.80   18.80
  -2   2   2    3.90   18.30
   2   2  -2   -2.30   10.60
   2   2  -2  -17.10    9.20
  -2   2   2   -3.70   10.50
  -2   2   2  -16.40    9.80
   2   2  -2    9.90   17.80
  -2   2   2   -5.40   10.70
  -2   2   2   16.60   19.20
  -2   2   2   16.80   15.40
  -1  -2   2 2528.85   87.89
   1  -2  -2 2525.95   87.89
   1  -2  -2 2560.64  103.29
   1  -2  -2 2491.25   99.79
   1  -2  -2 2481.55   99.99
  -1  -2   2 2631.34  104.59
  -1  -2   2 2552.94  103.89
  -1  -2   2 2559.94   87.89
   1  -2  -2 2540.45   87.99
   1  -2  -2 2509.15  109.99
  -1   2   2 2547.34  110.19
  -1   2   2 2571.94   88.09
   1   2  -2 2468.35  104.49
   1   2  -2 2585.54   93.99
  -1   2   2 2444.46  102.79
   1   2  -2 2511.75   87.89
   1   2  -2 2688.93  104.29
   1   2  -2 2575.54   87.89
  -1   2   2 2527.05   87.89
  -1   2   2 2456.95   99.39
  -1   2   2 2505.85  100.09
   0  -2   2    6.80    9.50
   0  -2   2   19.20    9.20
   0  -2   2   -1.20    9.00
   0  -2   2   -7.00    8.10
   0  -2   2   15.20   12.10
   0   2  -2   -3.50    8.60
   0   2  -2   -1.70    8.70
   0   2  -2   -6.70    8.30
   0   2   2    0.70   10.30
   0   2  -2   23.60   12.70
  -1  -2  -2  529.65   29.10
   1  -2   2  466.95   23.20
   1  -2   2  492.75   22.90
  -1  -2  -2  508.95   23.80
  -1  -2  -2  476.15   23.10
   1  -2   2  508.25   27.70
  -1  -2  -2  448.96   24.70
   1  -2   2  522.75   31.30
  -1   2  -2  505.55   23.50
   1   2   2  504.65   28.90
   1   2   2  520.85   23.70
   1   2   2  496.05   22.80
  -1   2  -2  447.56   23.10
  -1   2  -2  501.75   31.90
  -1   2  -2  438.36   26.20
  -1   2  -2  545.85   23.50
   2  -2   2  286.77   27.70
  -2  -2  -2  271.07   16.90
   2  -2   2  284.27   16.50
  -2  -2  -2  262.47   21.00
  -2  -2  -2  283.97   17.50
   2  -2   2  274.37   24.60
   2  -2   2  252.07   15.90
  -2   2  -2  290.17   26.50
  -2   2  -2  266.27   17.70
   2   2   2  255.27   15.40
   2   2   2  317.97   24.80
  -2   2  -2  303.97   29.30
   2   2   2  276.77   16.00
  -2   2  -2  310.17   17.90
  -3  -2  -2  125.89   19.10
   3  -2   2  119.59    9.60
  -3  -2  -2  110.79   11.00
  -3  -2  -2  116.89   11.80
  -3  -2  -2   96.79   25.60
  -3   2  -2   96.39   11.80
  -3   2  -2  110.29   12.20
  -3   2  -2   83.69   20.60
   3   2   2  105.99    8.70
  -3   2  -2  111.79   25.90
  -3   2  -2  160.58   20.90
  -4  -2  -2   73.39    9.70
  -4  -2  -2   80.59    9.60
  -4  -2  -2   44.80   23.80
  -4  -2  -2   66.99   17.70
  -4   2  -2   91.19   11.20
  -4   2  -2   60.09   10.90
  -4   2  -2   34.90   19.50
  -4   2  -2   67.09   24.50
  -4   2  -2   97.19   22.60
  -5  -2  -2   56.19    7.30
  -5  -2  -2   57.59   33.30
  -5  -2  -2   24.80   22.60
  -5  -2  -2   54.29    7.30
  -5  -2  -2   41.70   20.40
  -5   2  -2   63.09    9.90
  -5   2  -2   77.89   25.60
  -5   2  -2   71.29   30.80
  -5   2  -2   49.10    9.30
  -5   2  -2   34.40   23.00
  -6  -2  -2   25.40   23.50
  -6  -2  -2    4.10   32.20
  -6  -2  -2  -16.80   25.10
  -6   2  -2   29.20   27.40
  -6   2  -2  -19.80   29.70
  -6   2  -2  -26.50   24.40
  -7  -2  -2  -49.90   27.70
  -7  -2  -2   70.09   48.30
  -7  -2  -2  -65.89   30.60
  -7   2  -2  -52.99   29.50
  -7   2  -2   11.10   36.50
  -7   2  -2   39.30   39.40
  -7   2  -2  -39.80   23.60
  -8  -2  -2  -40.90   39.00
  -8  -2  -2   78.29   59.29
  -8  -2  -2  -63.69   33.90
  -8   2  -2  -29.80   49.99
  -8   2  -2   42.50   51.99
  -8  -3   2    5.60   43.40
  -8  -3   2   25.10   44.40
  -8   3   2    1.20   17.20
  -8   3   2   41.70   48.70
  -8   3   2   43.70   49.40
  -7  -3   2   42.30   43.20
  -7  -3   2   23.00   35.10
  -7  -3   2   21.70   15.80
  -7   3   2  -19.40   33.20
  -7   3   2    7.60   41.60
  -7   3   2  -48.10   28.20
  -7   3   2   -9.50   15.90
  -6  -3   2   18.30   29.10
  -6  -3   2   31.30   18.60
  -6  -3   2   -2.20   13.80
  -6  -3   2   11.30   26.10
  -6   3   2   19.10   30.20
  -6   3   2   37.00   35.00
  -6   3   2   30.60   16.60
  -6   3   2   30.40   17.50
  -6   3   2  -26.10   21.40
  -5  -3   2  -20.90   11.30
  -5  -3   2   -7.20   14.00
  -5  -3   2   19.60   25.00
  -5  -3   2   -9.80   24.40
  -5  -3   2   -2.80   12.30
  -5   3   2    2.40   13.90
  -5   3   2  -15.60   17.90
  -5   3   2  -13.10   14.20
  -5   3   2    4.10   26.80
  -5   3   2   -4.70   23.30
  -4  -3   2   92.89   13.60
  -4  -3   2   74.59   26.30
   4  -3  -2   64.39   14.20
  -4  -3   2   93.29   15.90
  -4  -3   2  122.09   17.90
   4  -3  -2   52.49   19.00
  -4   3   2   62.69   15.90
  -4   3   2   16.20   16.80
  -4   3   2   55.69   27.00
  -4   3   2   56.39   14.90
   4   3  -2   88.69   15.10
  -4   3   2   79.89   26.40
  -3  -3   2   -6.70   17.20
  -3  -3   2   11.40   12.50
  -3  -3   2    4.00   11.60
  -3  -3   2   19.20    8.60
   3  -3  -2   14.10   11.90
   3  -3  -2   15.00   14.10
   3   3  -2    5.10   11.20
  -3   3   2   10.30   13.00
  -3   3   2   23.90   13.20
  -3   3   2  -21.20   11.10
  -3   3   2   -9.00   17.90
  -3   3   2   -8.60   21.00
  -2  -3   2  688.63   34.10
   2  -3  -2  691.73   33.90
   2  -3  -2  668.73   35.40
  -2  -3   2  755.82   29.60
   2  -3  -2  705.23   41.20
   2  -3  -2  687.13   45.70
  -2  -3   2  632.34   33.50
   2  -3  -2  659.03   41.80
  -2  -3   2  727.23   44.10
  -2  -3   2  643.44   41.70
  -2   3   2  685.73   41.30
  -2   3   2  640.34   43.90
  -2   3   2  745.63   34.80
   2   3  -2  737.63   43.10
  -2   3   2  736.93   47.30
   2   3  -2  701.53   33.80
   2   3  -2  654.83   29.40
  -2   3   2  649.24   34.30
  -2   3   2  657.53   34.00
  -1  -3   2  145.89   14.80
   1  -3  -2  208.58   21.30
  -1  -3   2  175.98   22.40
  -1  -3   2  174.08   22.60
  -1  -3   2  176.68   19.00
   1  -3  -2  226.18   20.00
   1  -3  -2  216.68   18.80
  -1  -3   2  172.88   18.00
  -1   3   2  226.68   22.90
   1   3  -2  152.98   17.50
  -1   3   2  249.78   20.30
   1   3  -2  170.48   22.40
  -1   3   2  203.78   18.60
   1   3  -2  146.79   22.80
  -1   3   2  269.87   24.60
   1   3  -2  144.69   15.40
   1   3  -2  138.09   17.30
   0  -3   2 1072.39   46.50
   0  -3   2 1043.80   51.09
   0  -3  -2 1043.40   43.90
   0  -3  -2 1052.09   49.80
   0  -3  -2 1096.69   48.10
   0  -3   2 1033.10   43.70
   0  -3  -2 1003.70   54.39
   0  -3   2 1049.79   42.60
   0  -3  -2 1042.80   43.30
   0  -3   2 1063.29   51.79
   0   3  -2 1044.20   50.49
   0   3   2 1051.09   43.90
   0   3  -2  954.10   42.60
   0   3  -2 1067.49   53.19
   0   3   2 1058.69   49.10
   0   3   2 1051.19   43.30
   0   3  -2 1017.40   42.80
   0   3  -2 1030.90   46.00
   0   3   2 1042.50   56.19
   0   3   2 1087.39   48.70
  -1  -3  -2  110.89   23.70
   1  -3   2   80.89   13.20
   1  -3   2   89.29   19.30
  -1  -3  -2   59.79   12.80
  -1  -3  -2   76.69   14.20
  -1  -3  -2  103.49   14.80
   1  -3   2   92.99   16.10
  -1  -3  -2   90.79   17.80
  -1   3  -2   92.59   13.70
  -1   3  -2   88.59   21.60
  -1   3  -2  117.19   16.00
   1   3   2   65.89   13.20
  -1   3  -2   63.39   13.80
   1   3   2   65.49   14.20
  -1   3  -2   92.29    9.30
   1   3   2   76.99   17.10
  -2  -3  -2  853.41   36.10
   2  -3   2  860.31   35.70
   2  -3   2  859.01   45.70
  -2  -3  -2  784.92   35.40
  -2  -3  -2  753.72   42.40
   2  -3   2  783.82   46.90
  -2  -3  -2  839.82   41.60
  -2   3  -2  883.61   36.60
   2   3   2  846.42   35.20
  -2   3  -2  770.82   47.20
  -2   3  -2  794.12   45.00
   2   3   2  847.02   43.00
  -2   3  -2  809.82   37.10
  -2   3  -2  858.71   37.00
  -3  -3  -2    3.30    9.40
  -3  -3  -2   12.30   10.10
  -3  -3  -2   -4.40   11.30
  -3  -3  -2   23.60   22.10
   3  -3   2    6.50    9.60
   3  -3   2   12.10   17.80
   3   3   2    6.60    9.10
  -3   3  -2   12.90   21.20
  -3   3  -2    2.90   10.80
   3   3   2    9.10   13.90
  -3   3  -2  -13.60   13.70
  -3   3  -2   18.80   11.20
  -3   3  -2   20.50   13.70
  -4  -3  -2    8.00   14.80
  -4  -3  -2   41.20   22.60
  -4  -3  -2   43.50   10.80
  -4  -3  -2   28.40   11.50
  -4   3  -2   15.00   17.70
  -4   3  -2   37.20   18.40
  -4   3  -2   61.99   25.10
  -4   3  -2   36.70   12.30
  -4   3  -2   37.90   11.90
  -5  -3  -2   -0.10    9.30
  -5  -3  -2    7.30   25.10
  -5  -3  -2  -36.30   12.50
  -5  -3  -2   16.60   10.10
  -5   3  -2   18.10   21.60
  -5   3  -2   11.90   27.80
  -5   3  -2    3.80   10.40
  -5   3  -2  -14.70   20.50
  -5   3  -2  -10.50    9.90
  -6  -3  -2   -9.10   31.50
  -6  -3  -2   38.00   33.80
  -6  -3  -2   12.70    7.20
  -6  -3  -2  -15.10    7.20
  -6  -3  -2  -18.40   21.60
  -6   3  -2    1.50   10.50
  -6   3  -2    6.90   26.20
  -6   3  -2    4.90   30.20
  -6   3  -2   -9.60   10.00
  -6   3  -2    9.30   26.70
  -7  -3  -2   53.09   40.60
  -7  -3  -2  -43.00   40.90
  -7   3  -2   -1.20   35.50
  -7   3  -2  -28.30   37.40
  -8  -4   2  -46.00   41.60
  -8  -4   2  -21.40   42.40
  -8  -4   2  -11.70   17.40
  -8   4   2   60.49   57.09
  -8   4   2   45.40   44.60
  -8   4   2    6.70   18.30
  -7  -4   2   -2.70   16.20
  -7  -4   2   47.30   44.20
  -7  -4   2   40.10   39.40
  -7   4   2   37.30   43.40
  -7   4   2   41.00   36.90
  -7   4   2  -23.50   16.90
  -6  -4   2  -35.50   17.20
  -6  -4   2   16.30   15.90
  -6  -4   2  -25.00   30.50
  -6  -4   2   69.29   31.50
  -6   4   2    0.50   30.30
  -6   4   2   -1.80   28.30
  -6   4   2    4.90   16.40
  -6   4   2  -40.20   20.00
  -6   4   2    6.10   19.00
  -5  -4   2  148.69   23.30
  -5  -4   2  167.18   36.00
  -5  -4   2  179.38   19.20
  -5  -4   2  124.69   20.50
  -5   4   2  119.89   36.30
  -5   4   2  191.78   36.50
  -5   4   2   98.29   19.80
  -5   4   2   99.59   24.40
  -5   4   2  172.48   23.70
  -4  -4   2   16.70   13.80
  -4  -4   2  -17.80    9.50
   4  -4  -2   18.90   13.50
  -4  -4   2   -4.40   13.60
   4  -4  -2   13.40   16.60
  -4  -4   2    5.30   19.30
   4   4  -2   11.30   12.70
  -4   4   2  -11.90   13.50
  -4   4   2    4.10   14.20
  -4   4   2   -7.20   13.50
  -4   4   2    1.80   21.60
  -4   4   2   13.00   22.30
   3  -4  -2  410.26   27.20
  -3  -4   2  400.46   28.90
  -3  -4   2  337.77   21.40
  -3  -4   2  335.57   38.40
  -3  -4   2  391.26   28.00
   3  -4  -2  411.46   27.60
  -3   4   2  424.46   26.80
   3   4  -2  412.26   22.80
  -3   4   2  420.36   30.00
  -3   4   2  447.86   38.30
  -3   4   2  394.76   28.50
  -3   4   2  437.16   45.60
   3   4  -2  382.26   26.90
  -2  -4   2   54.99   20.80
   2  -4  -2   54.99   13.10
  -2  -4   2   20.20   14.10
  -2  -4   2   24.90   13.80
  -2  -4   2   65.89   11.90
   2  -4  -2   37.40   21.30
  -2   4   2   61.49   13.70
  -2   4   2   47.30   16.20
  -2   4   2   34.00   18.70
  -2   4   2   30.00   19.70
  -2   4   2   23.90   15.10
   2   4  -2   53.49   11.80
   2   4  -2   66.59   22.50
   1  -4  -2  705.43   41.20
   1  -4  -2  709.73   35.30
  -1  -4   2  714.73   35.50
   1  -4  -2  652.53   39.20
  -1  -4   2  685.43   35.90
   1  -4  -2  625.64   34.80
  -1  -4   2  774.82   37.60
  -1  -4   2  765.22   43.20
  -1  -4   2  709.83   40.90
   1  -4  -2  677.73   36.00
   1  -4  -2  700.13   44.80
  -1   4   2  653.33   44.30
  -1   4   2  761.82   37.10
  -1   4   2  737.53   37.70
   1   4  -2  743.43   37.10
   1   4  -2  684.93   36.20
  -1   4   2  694.23   41.90
   1   4  -2  728.13   35.60
   1   4  -2  684.23   44.90
  -1   4   2  671.13   40.10
   1   4  -2  684.23   40.50
   0  -4   2   12.20   16.20
   0  -4   2   11.00   12.20
   0  -4  -2    3.10   13.60
   0  -4  -2    4.70   16.90
   0  -4  -2  -11.10   14.30
   0  -4  -2    6.30   14.20
   0  -4   2    7.20   14.40
   0  -4   2   17.00   14.00
   0  -4   2  -15.00   16.70
   0  -4  -2   21.10   19.40
   0   4   2   32.60   16.20
   0   4  -2    9.90   13.40
   0   4   2    4.80   19.70
   0   4   2   10.70   14.10
   0   4  -2    4.10   17.80
   0   4   2   15.70   17.00
   0   4  -2  -21.30   12.30
   0   4   2   -5.60   12.40
   0   4  -2    7.20   13.20
   0   4  -2  -21.60   14.90
   0   4  -2    0.00   11.40
  -1  -4  -2   -3.70   14.30
   1  -4   2    0.40    9.90
  -1  -4  -2  -12.20   11.40
   1  -4   2    4.40   11.80
  -1  -4  -2   20.90   16.20
  -1  -4  -2   14.10   21.50
   1  -4   2  -17.10   14.20
  -1  -4  -2    5.90   12.70
   1  -4   2   13.20   17.50
   1  -4   2   11.50    7.20
   1   4   2   -1.70   12.00
  -1   4  -2   12.10   13.20
   1   4   2   16.90   14.70
  -1   4  -2   21.80   13.70
  -1   4  -2   17.20   15.90
  -1   4  -2    3.90    6.50
   1   4   2   -5.70   14.40
  -1   4  -2   -0.30   17.60
   1   4   2   -9.30    7.30
  -2  -4  -2   36.50   14.90
  -2  -4  -2    4.90   11.90
   2  -4   2   25.90   17.30
  -2  -4  -2   -3.20   13.60
   2  -4   2   29.70   12.80
  -2  -4  -2   11.60   12.20
  -2   4  -2   17.90   18.10
   2   4   2   22.50   14.30
  -2   4  -2    4.90   12.50
   2   4   2   10.70   11.50
  -2   4  -2    2.40   12.40
  -3  -4  -2  338.87   24.50
  -3  -4  -2  285.47   23.80
  -3  -4  -2  358.26   41.70
  -3  -4  -2  350.66   27.00
   3  -4   2  370.96   24.30
  -3   4  -2  336.27   22.50
  -3   4  -2  369.76   34.00
  -3   4  -2  301.17   36.10
   3   4   2  359.26   23.30
  -3   4  -2  349.67   24.80
  -3   4  -2  349.37   25.40
   3   4   2  342.47   29.00
  -4  -4  -2    6.60   13.80
  -4  -4  -2   45.10   23.10
  -4  -4  -2   25.30   13.50
  -4  -4  -2   28.40   12.60
  -4   4  -2    3.10   12.90
  -4   4  -2   15.10   24.40
  -4   4  -2   21.30   20.60
  -4   4  -2   28.60   15.90
  -4   4  -2   39.00   14.00
  -5  -4  -2    4.40   25.10
  -5  -4  -2   35.80   14.70
  -5  -4  -2   24.50   18.90
  -5  -4  -2   33.40   13.50
  -5   4  -2   48.00   14.20
  -5   4  -2   31.50   15.20
  -5   4  -2   55.59   22.90
  -5   4  -2   10.50   28.80
  -5   4  -2   17.90   25.50
  -6  -4  -2  -12.10   12.10
  -6  -4  -2   10.00   29.20
  -6  -4  -2  -16.40   11.00
  -6  -4  -2  -51.29   17.50
  -6   4  -2  -34.30   26.30
  -6   4  -2   55.39   27.60
  -6   4  -2    1.50   12.80
  -6   4  -2  -13.10   13.90
  -6   4  -2   20.90   31.60
  -7  -4  -2    7.40   45.80
  -7  -4  -2   43.60   45.00
  -7   4  -2  -13.90   38.80
  -7   4  -2  -21.90   10.90
  -7   4  -2   -7.10   11.00
  -7   4  -2   37.90   43.50
  -7  -5   2  -18.80   39.00
  -7  -5   2    2.50   17.20
  -7  -5   2   14.10   35.40
  -7   5   2   -5.90   18.80
  -7   5   2   58.99   39.40
  -7   5   2  -13.50   44.10
  -6  -5   2   -8.50   16.00
  -6  -5   2  -15.00   30.60
  -6  -5   2   19.70   31.20
  -6   5   2  -36.80   22.70
  -6   5   2    9.70   33.20
  -6   5   2    9.60   32.80
  -6   5   2   14.30   18.80
  -5  -5   2   -2.80   17.30
  -5  -5   2   13.00   15.40
  -5  -5   2   -1.50   25.00
  -5  -5   2  -37.20   10.90
  -5   5   2   26.50   19.90
  -5   5   2   52.49   32.70
  -5   5   2   -7.90   16.00
  -5   5   2  -10.70   23.50
  -5   5   2    3.70   17.70
   4  -5  -2   20.40   15.30
  -4  -5   2  -13.20    9.60
  -4  -5   2   29.10   24.70
  -4  -5   2   13.40   15.10
   4  -5  -2    8.10   13.70
  -4  -5   2   -6.00   15.40
  -4   5   2   19.30   15.50
  -4   5   2   42.50   15.00
  -4   5   2   14.90   15.80
  -4   5   2  -20.30   20.50
  -4   5   2   13.60   22.00
   4   5  -2    1.70   13.60
  -3  -5   2  336.07   38.70
  -3  -5   2  368.96   29.40
  -3  -5   2  359.96   28.90
   3  -5  -2  309.57   27.70
   3  -5  -2  337.77   24.10
  -3  -5   2  396.56   23.10
  -3   5   2  358.66   42.70
  -3   5   2  305.37   37.70
  -3   5   2  378.86   24.90
  -3   5   2  380.76   30.00
   3   5  -2  372.56   23.30
   3   5  -2  328.67   28.30
  -3   5   2  383.46   29.80
  -2  -5   2  561.84   35.00
  -2  -5   2  602.34   34.80
   2  -5  -2  536.05   29.30
   2  -5  -2  488.05   32.40
  -2  -5   2  550.64   31.10
  -2  -5   2  491.85   38.50
   2  -5  -2  515.45   39.00
   2   5  -2  592.34   31.90
   2   5  -2  539.25   42.90
   2   5  -2  637.14   34.80
  -2   5   2  480.25   42.20
  -2   5   2  579.74   35.40
  -2   5   2  536.45   42.50
  -2   5   2  587.84   36.10
   1  -5  -2 1329.47   59.19
  -1  -5   2 1357.76   59.79
   1  -5  -2 1312.17   64.79
  -1  -5   2 1315.77   64.39
   1  -5  -2 1292.37   57.59
   1  -5  -2 1333.27   65.69
  -1  -5   2 1407.76   71.39
  -1  -5   2 1424.26   58.29
  -1  -5   2 1351.46   58.29
   1  -5  -2 1361.26   57.89
  -1   5   2 1332.97   71.69
   1   5  -2 1297.27   56.99
   1   5  -2 1299.47   59.39
  -1   5   2 1350.06   58.89
   1   5  -2 1298.97   64.19
   1   5  -2 1419.26   70.09
  -1   5   2 1263.87   56.99
  -1   5   2 1293.47   65.29
   1   5  -2 1352.56   57.99
   0  -5  -2 1324.27   56.19
   0  -5  -2 1291.57   56.29
   0  -5   2 1377.06   56.79
   0  -5  -2 1261.87   62.89
   0  -5  -2 1340.07   63.09
   0  -5   2 1296.07   55.69
   0  -5   2 1274.17   66.39
   0  -5   2 1315.17   57.79
   0   5  -2 1334.57   56.19
   0   5   2 1297.87   55.39
   0   5   2 1274.07   62.29
   0   5   2 1196.78   62.79
   0   5   2 1233.98   69.89
   0   5  -2 1271.87   60.99
   0   5  -2 1291.17   66.29
   0   5  -2 1294.37   67.89
   0   5  -2 1227.68   57.49
   0   5   2 1238.28   55.39
   0   5  -2 1372.56   57.29
  -1  -5  -2 1019.10   53.39
   1  -5   2 1014.90   47.50
  -1  -5  -2 1000.60   47.20
  -1  -5  -2  960.80   52.59
  -1  -5  -2  983.30   46.60
   1  -5   2 1036.30   42.40
   1  -5   2 1024.30   56.19
   1  -5   2 1102.29   47.80
   1   5   2 1102.99   47.80
   1   5   2  979.10   46.60
  -1   5  -2  995.20   47.60
   1   5   2  977.10   52.99
  -1   5  -2 1082.49   57.49
   1   5   2 1096.79   54.39
  -1   5  -2  986.70   57.29
  -1   5  -2 1107.79   49.10
  -2  -5  -2  202.18   22.30
  -2  -5  -2  223.98   26.20
  -2  -5  -2  171.38   20.90
   2  -5   2  159.88   25.60
   2  -5   2  181.08   21.20
  -2  -5  -2  221.08   27.20
  -2   5  -2  145.29   28.70
   2   5   2  182.58   24.80
   2   5   2  188.28   27.30
  -2   5  -2  213.58   22.70
  -2   5  -2  183.28   22.80
  -2   5  -2  222.18   28.50
   2   5   2  164.58   19.90
  -3  -5  -2  271.67   28.50
  -3  -5  -2  279.57   25.70
  -3  -5  -2  222.38   23.30
   3  -5   2  243.28   23.50
  -3  -5  -2  296.47   40.80
   3   5   2  258.77   24.70
  -3   5  -2  309.97   34.70
  -3   5  -2  298.77   27.00
  -3   5  -2  246.08   24.70
  -3   5  -2  196.08   32.80
  -4  -5  -2   29.70   24.40
  -4  -5  -2    8.10   14.70
  -4  -5  -2    9.80   12.60
   4  -5   2   -6.10   13.30
  -4  -5  -2  -10.30   12.60
  -4   5  -2   38.00   26.80
  -4   5  -2   -1.30   13.40
   4   5   2   19.10   13.10
  -4   5  -2   -3.30   12.80
  -4   5  -2   55.09   24.20
  -4   5  -2   16.40   15.80
  -5  -5  -2  -30.00   11.50
  -5  -5  -2   16.40   16.00
  -5  -5  -2  -19.90   26.40
  -5  -5  -2  -20.10   15.10
  -5   5  -2   10.30   15.60
  -5   5  -2   -2.00   26.70
  -5   5  -2   22.50   17.00
  -5   5  -2   11.10   18.60
  -5   5  -2    0.50   25.70
  -6  -5  -2    0.10   16.40
  -6  -5  -2  -40.40   26.90
  -6  -5  -2  -19.70   19.50
  -6  -5  -2    9.80   14.70
  -6   5  -2    5.80   17.40
  -6   5  -2   13.80   31.20
  -6   5  -2   50.19   37.10
  -6   5  -2   -3.60   15.50
  -7  -5  -2   15.50   42.00
  -7  -5  -2   -5.30   13.50
  -7  -5  -2   16.20   47.00
  -7   5  -2   68.69   43.90
  -7   5  -2    9.60   15.70
  -7   5  -2   24.20   39.70
  -7  -6   2   27.60   43.80
  -7  -6   2   40.70   42.80
  -7  -6   2   14.90   19.50
  -7   6   2    0.80   45.30
  -7   6   2   40.40   38.30
  -7   6   2    2.80   21.40
  -6  -6   2   42.80   31.40
  -6  -6   2  -15.10   16.80
  -6   6   2   42.80   36.60
  -6   6   2   73.89   23.30
  -6   6   2   -7.70   28.40
  -5  -6   2  -21.40   16.40
  -5  -6   2    2.00   26.40
  -5  -6   2   -6.40   19.10
  -5   6   2   -8.10   16.50
  -5   6   2   -8.30   28.40
  -5   6   2   36.30   18.10
  -5   6   2   24.80   31.90
   4  -6  -2  236.78   27.20
  -4  -6   2  210.68   39.00
   4  -6  -2  236.68   23.30
  -4  -6   2  200.68   26.30
  -4  -6   2  216.38   27.80
  -4  -6   2  292.77   21.90
   4   6  -2  265.87   22.80
  -4   6   2  184.38   34.80
  -4   6   2  251.47   23.50
   4   6  -2  233.28   27.10
  -4   6   2  204.78   40.40
  -4   6   2  275.87   30.90
  -4   6   2  196.78   26.70
   3  -6  -2   21.20   12.20
   3  -6  -2   39.20   11.80
  -3  -6   2   24.60   16.10
  -3  -6   2   19.00   20.50
  -3  -6   2   43.80   17.70
  -3  -6   2   67.99   14.90
  -3   6   2   54.39   27.00
  -3   6   2   30.50   17.90
  -3   6   2   50.79   13.20
  -3   6   2   40.30   22.80
  -3   6   2   43.20   18.90
   3   6  -2   46.80   14.10
   3   6  -2   38.00   16.00
  -2  -6   2   94.19   20.40
  -2  -6   2  103.69   20.70
   2  -6  -2   87.59   20.30
   2  -6  -2   66.69   22.60
  -2  -6   2  145.29   27.40
   2  -6  -2  112.09   15.10
  -2  -6   2  124.79   19.40
   2   6  -2  116.99   20.80
  -2   6   2   79.59   27.70
  -2   6   2   91.79   21.10
   2   6  -2  103.79   25.70
  -2   6   2   98.99   24.60
   2   6  -2   94.69   19.00
  -2   6   2  136.39   22.50
   1  -6  -2   -7.50   17.50
  -1  -6   2  -20.70   14.20
   1  -6  -2   20.90   15.40
   1  -6  -2    8.90   13.80
  -1  -6   2   -9.60   15.00
   1  -6  -2   10.40   15.30
  -1  -6   2   -2.40   15.80
  -1  -6   2  -17.30   13.60
  -1   6   2   41.20   19.10
  -1   6   2    7.70   21.10
  -1   6   2   -1.60   20.60
   1   6  -2  -14.90   14.90
   1   6  -2   14.30   16.80
   1   6  -2  -17.50   15.20
  -1   6   2    6.90   17.30
   1   6  -2   -2.90   14.80
   1   6  -2  -12.40   21.40
   0  -6  -2  304.37   29.40
   0  -6   2  259.97   27.10
   0  -6   2  284.47   35.80
   0  -6  -2  319.27   29.10
   0  -6   2  301.77   25.20
   0  -6  -2  344.67   35.80
   0  -6   2  324.37   30.30
   0  -6  -2  310.67   33.50
   0   6  -2  303.87   30.40
   0   6   2  300.97   28.50
   0   6  -2  308.87   34.60
   0   6   2  293.77   28.90
   0   6   2  316.37   39.00
   0   6  -2  264.57   36.50
   0   6  -2  303.17   29.60
   0   6   2  318.37   32.50
  -1  -6  -2   27.80   14.90
   1  -6   2   31.80   20.60
  -1  -6  -2  -18.20   15.60
  -1  -6  -2   25.10   19.70
  -1  -6  -2   15.90   15.80
   1  -6   2    5.60    8.80
   1  -6   2   10.90   15.40
  -1   6  -2   19.30   16.70
   1   6   2   -3.20   18.20
  -1   6  -2   21.60   25.20
   1   6   2   12.10   14.90
  -1   6  -2   17.90   21.70
  -1   6  -2   13.40   16.90
  -2  -6  -2  401.86   31.20
  -2  -6  -2  407.46   30.80
  -2  -6  -2  374.36   32.80
  -2  -6  -2  441.36   40.60
  -2   6  -2  377.16   33.00
  -2   6  -2  481.65   40.40
   2   6   2  423.46   35.70
  -2   6  -2  394.56   31.90
  -2   6  -2  358.66   40.60
  -3  -6  -2   38.40   17.60
  -3  -6  -2   99.99   21.50
   3  -6   2   40.50   16.50
  -3  -6  -2   94.09   19.20
  -3  -6  -2  101.89   30.20
  -3   6  -2   95.19   20.60
  -3   6  -2   40.70   17.60
   3   6   2   66.49   17.50
  -3   6  -2   55.99   25.40
  -3   6  -2  155.58   28.50
  -4  -6  -2  202.88   40.10
   4  -6   2  196.28   24.00
  -4  -6  -2  207.28   24.50
  -4  -6  -2  202.78   25.90
  -4  -6  -2  210.48   28.80
  -4   6  -2  141.79   23.50
  -4   6  -2  186.98   35.30
  -4   6  -2  253.27   28.20
   4   6   2  243.98   25.10
  -4   6  -2  281.67   40.90
  -5  -6  -2  -18.00   17.20
  -5  -6  -2    2.00   14.90
  -5  -6  -2   -3.30   26.50
  -5  -6  -2   -4.00   17.90
  -5   6  -2   19.80   16.90
  -5   6  -2  107.99   34.70
  -5   6  -2   46.90   34.50
  -5   6  -2   13.50   19.40
  -6  -6  -2   39.90   19.20
  -6  -6  -2   60.59   35.40
  -6   6  -2   45.00   18.50
  -6   6  -2  124.49   42.80
  -6   6  -2   61.79   37.20
  -7  -6  -2    4.10   16.50
  -7  -6  -2   13.80   42.30
  -7   6  -2   -3.90   37.30
  -7   6  -2   92.99   49.90
  -7   6  -2    9.30   18.80
  -7  -7   2    3.30   44.60
  -7  -7   2  -10.00   36.80
  -7  -7   2   26.50   22.20
  -7   7   2    9.10   38.00
  -7   7   2   53.99   47.30
  -7   7   2  -30.10   19.90
  -6  -7   2   23.20   32.30
  -6  -7   2  -15.30   18.60
  -6   7   2   17.20   42.90
  -6   7   2    1.90   30.50
  -6   7   2  -14.60   20.50
  -5  -7   2  -12.70   28.30
  -5  -7   2  -19.40   18.30
  -5   7   2   19.30   27.70
  -5   7   2  -23.30   18.40
  -5   7   2   -8.80   30.00
  -4  -7   2  -12.80   18.30
  -4  -7   2   55.99   16.30
  -4  -7   2   11.20   17.60
  -4  -7   2   30.20   29.30
  -4   7   2   -2.10   20.70
  -4   7   2    8.80   24.30
  -4   7   2   15.50   31.40
  -4   7   2   11.30   18.60
   3  -7  -2   62.99   11.60
  -3  -7   2   79.79   21.40
  -3  -7   2   79.29   21.50
  -3  -7   2   52.79   17.30
  -3  -7   2   35.10   25.30
   3   7  -2   58.99   17.20
  -3   7   2   75.59   22.40
   3   7  -2   58.79   26.00
  -3   7   2   71.59   22.60
  -3   7   2   30.60   23.70
  -3   7   2   42.60   30.00
  -2  -7   2  125.09   23.20
   2  -7  -2  125.19   23.50
   2  -7  -2  109.29   16.10
  -2  -7   2  118.19   22.80
   2  -7  -2   58.69   22.60
  -2  -7   2   94.99   26.10
  -2  -7   2  111.59   20.70
  -2   7   2   95.19   29.20
  -2   7   2  105.79   29.10
   2   7  -2  124.39   22.90
  -2   7   2   53.29   20.80
   2   7  -2  113.19   31.20
   2   7  -2  144.69   23.90
  -2   7   2  109.89   22.80
  -1  -7   2  410.26   34.60
   1  -7  -2  420.96   38.20
   1  -7  -2  435.96   33.80
  -1  -7   2  391.96   36.60
  -1  -7   2  482.95   36.90
   1  -7  -2  430.56   30.90
  -1  -7   2  463.25   34.90
   1   7  -2  419.46   43.40
  -1   7   2  484.15   40.30
   1   7  -2  451.95   36.00
  -1   7   2  489.15   37.30
  -1   7   2  477.15   36.50
  -1   7   2  432.46   47.60
   0  -7  -2   50.09   19.00
   0  -7  -2   75.69   23.10
   0  -7  -2   95.29   20.10
   0  -7   2   60.19   21.10
   0  -7   2    5.40   17.70
   0  -7   2   77.19   18.20
   0   7  -2   75.09   24.20
   0   7   2   37.00   18.10
   0   7  -2   83.19   21.80
   0   7   2   70.39   26.30
   0   7   2   67.19   19.30
   0   7   2   67.19   24.30
   0   7  -2   77.59   26.80
   0   7  -2   59.99   21.30
   1  -7   2  603.34   30.90
   1  -7   2  635.54   41.00
  -1  -7  -2  657.83   40.60
  -1  -7  -2  627.94   39.30
  -1  -7  -2  574.14   40.90
  -1   7  -2  622.34   51.79
  -1   7  -2  613.34   47.40
   1   7   2  632.14   45.10
   1   7   2  647.24   40.30
  -1   7  -2  677.93   41.40
  -1   7  -2  609.24   41.00
  -2  -7  -2    9.50   18.10
  -2  -7  -2   17.90   16.20
   2  -7   2  -18.40   13.40
  -2  -7  -2   10.20   21.10
  -2  -7  -2    4.30   16.30
   2   7   2   15.90   10.80
  -2   7  -2   10.10   24.70
   2   7   2   -2.20   20.40
  -2   7  -2   -2.20   17.50
  -2   7  -2   25.50   17.70
  -2   7  -2   -3.80   22.60
  -3  -7  -2  128.19   24.20
  -3  -7  -2  126.29   30.70
   3  -7   2  139.59   23.00
  -3  -7  -2  149.29   26.60
  -3  -7  -2  144.29   24.40
   3   7   2  155.48   23.70
  -3   7  -2  139.29   25.00
  -3   7  -2  169.78   33.60
  -3   7  -2  108.29   23.00
  -3   7  -2   86.19   31.90
  -4  -7  -2   44.60   20.50
  -4  -7  -2  -20.40   17.90
  -4  -7  -2   -5.90   26.20
  -4  -7  -2    0.90   15.20
  -4   7  -2    7.70   28.20
  -4   7  -2   -9.30   19.40
  -4   7  -2  -18.80   27.70
  -4   7  -2   24.10   18.70
  -5  -7  -2   34.60   34.90
  -5  -7  -2   37.10   19.80
  -5  -7  -2    7.30   21.40
  -5   7  -2   27.10   33.90
  -5   7  -2   69.59   36.50
  -5   7  -2   13.90   19.20
  -6  -7  -2   -4.70   17.80
  -6  -7  -2    5.50   37.60
  -6   7  -2   -8.20   18.90
  -6   7  -2   79.09   44.00
  -6   7  -2   41.20   37.20
  -7  -7  -2   -1.30   19.70
  -7  -7  -2  -33.00   41.70
  -7   7  -2   43.40   49.30
  -7   7  -2   27.80   44.20
  -7   7  -2  -35.80   19.80
  -7  -8   2  -19.90   43.00
  -7  -8   2   -6.10   23.80
  -7   8   2  -11.70   43.90
  -7   8   2  -28.10   23.60
  -7   8   2  -11.60   52.39
  -6  -8   2   27.60   32.20
  -6  -8   2   -8.20   22.00
  -6   8   2   83.29   50.09
  -6   8   2   -6.50   32.80
  -6   8   2   35.00   24.40
  -5  -8   2   83.59   36.90
  -5  -8   2   90.89   25.30
  -5   8   2   54.29   41.30
  -5   8   2   45.80   32.10
  -5   8   2    8.30   21.70
  -4  -8   2   70.59   31.00
  -4  -8   2   83.79   23.80
  -4  -8   2  150.48   23.60
  -4   8   2  155.68   41.30
  -4   8   2  113.39   26.70
  -4   8   2   73.59   31.80
  -3  -8   2  159.68   34.50
  -3  -8   2  144.79   28.10
  -3  -8   2  208.38   26.40
  -3  -8   2  192.98   30.50
   3  -8  -2  188.68   29.10
  -3   8   2  187.88   31.20
   3   8  -2  224.08   40.00
  -3   8   2  168.08   34.60
  -3   8   2  195.98   30.30
  -3   8   2  119.69   34.10
   3   8  -2  157.08   26.80
  -2  -8   2  114.79   27.50
  -2  -8   2   64.99   20.80
   2  -8  -2  107.49   24.30
  -2  -8   2   71.59   23.00
   2  -8  -2   88.99   16.30
  -2  -8   2   83.19   21.70
   2  -8  -2   96.49   26.30
  -2   8   2  112.39   25.80
   2   8  -2  126.09   24.80
  -2   8   2   92.09   31.00
  -2   8   2  105.99   26.40
  -2   8   2   98.29   32.60
   2   8  -2   58.79   26.30
   1  -8  -2   71.49   21.00
   1  -8  -2   34.90   21.30
  -1  -8   2   30.00   20.80
  -1  -8   2   22.70   17.80
  -1  -8   2   12.80   17.40
  -1  -8   2   35.20   20.10
  -1   8   2   20.10   23.70
  -1   8   2   10.30   19.30
   1   8  -2   17.90   18.40
  -1   8   2   54.19   22.30
   1   8  -2   12.50   25.30
  -1   8   2   -5.70   23.20
   0  -8  -2   82.29   22.20
   0  -8  -2   55.69   19.80
   0  -8   2   58.29   18.50
   0  -8  -2   43.70   21.90
   0  -8   2   31.20   21.40
   0   8   2   57.79   20.00
   0   8  -2   87.39   28.40
   0   8  -2   60.79   22.90
   0   8   2   76.39   27.20
   0   8  -2   18.90   21.00
   0   8  -2   -1.10   23.70
   0   8   2   46.00   26.70
  -1  -8  -2   40.10   20.70
  -1  -8  -2   47.90   23.60
   1  -8   2   42.50   13.10
   1  -8   2   33.60   19.90
  -1  -8  -2   61.09   22.00
  -1  -8  -2   46.80   22.90
  -1   8  -2   16.10   17.90
   1   8   2   53.59   25.00
  -1   8  -2   39.30   26.70
  -1   8  -2   53.39   20.40
  -1   8  -2   32.10   25.00
   1   8   2    7.70   17.70
  -2  -8  -2   16.20   18.10
  -2  -8  -2   28.40   19.60
   2  -8   2   79.09   21.10
  -2  -8  -2   46.40   25.10
  -2  -8  -2   47.50   22.00
  -2   8  -2   28.30   27.10
   2   8   2   23.60   24.80
  -2   8  -2    5.50   27.90
   2   8   2   46.50   19.50
  -2   8  -2   17.50   19.40
  -2   8  -2   53.69   22.00
  -3  -8  -2   34.60   20.80
  -3  -8  -2   58.79   22.90
  -3  -8  -2   56.89   22.20
   3  -8   2   47.60   21.40
  -3  -8  -2   85.49   30.60
  -3   8  -2   32.40   31.30
  -3   8  -2   66.69   24.50
  -3   8  -2   45.30   33.20
  -3   8  -2   70.49   23.60
  -4  -8  -2   27.00   19.40
  -4  -8  -2   91.49   34.40
  -4  -8  -2   56.59   24.90
  -4   8  -2   43.00   35.70
  -4   8  -2   31.10   20.30
  -4   8  -2   69.99   35.50
  -5  -8  -2   62.39   26.10
  -5  -8  -2   49.90   22.40
  -5  -8  -2   16.50   33.20
  -5   8  -2   13.00   32.70
  -5   8  -2   18.40   22.00
  -5   8  -2   80.89   40.80
  -6  -8  -2  -11.30   32.80
  -6  -8  -2   13.30   20.80
  -6   8  -2   27.80   23.90
  -6   8  -2    2.10   38.90
  -6   8  -2  101.59   48.10
  -6  -9   2   22.90   26.40
  -6  -9   2  -16.40   37.70
  -6   9   2  -51.09   33.20
  -6   9   2   10.80   26.10
  -6   9   2   -4.70   46.80
  -5  -9   2   30.10   24.30
  -5  -9   2    5.30   32.70
  -5   9   2   32.10   43.60
  -5   9   2   -4.50   22.80
  -5   9   2   34.70   34.10
  -4  -9   2   19.30   20.00
  -4  -9   2   18.00   29.70
  -4  -9   2   21.10   21.90
  -4   9   2   40.30   30.70
  -4   9   2   -7.80   35.10
  -4   9   2    9.60   21.10
  -3  -9   2  -32.60   18.50
  -3  -9   2   35.30   27.50
  -3  -9   2   50.89   21.10
   3   9  -2   41.40   29.60
  -3   9   2   60.29   34.40
  -3   9   2   10.10   21.20
  -3   9   2   -4.20   25.80
   2  -9  -2  199.08   34.70
  -2  -9   2  153.98   31.80
  -2  -9   2  159.38   28.30
  -2  -9   2  169.88   30.50
  -2  -9   2  159.08   28.50
   2  -9  -2  134.59   19.70
   2  -9  -2  193.38   30.90
   2   9  -2  140.09   33.80
  -2   9   2   99.89   25.80
  -2   9   2  180.68   32.50
  -2   9   2  164.68   38.10
  -2   9   2  124.09   40.30
   2   9  -2  156.08   29.00
   1  -9  -2    0.40   18.40
  -1  -9   2   -5.80   19.10
  -1  -9   2   17.10   19.60
   1  -9  -2   -8.50   20.20
  -1  -9   2    6.40   20.20
  -1  -9   2  -28.20   18.20
   1   9  -2    3.30   19.50
   1   9  -2   -9.80   25.90
  -1   9   2  -23.40   18.90
  -1   9   2    4.50   29.20
  -1   9   2   18.20   20.70
  -1   9   2   -8.20   26.70
   0  -9  -2  604.94   43.10
   0  -9  -2  760.32   48.30
   0  -9   2  607.04   40.10
   0  -9   2  442.76   42.40
   0  -9  -2  614.24   47.70
   0   9  -2  587.84   46.90
   0   9  -2  725.83   56.19
   0   9   2  550.84   47.60
   0   9   2  564.84   53.89
   0   9  -2  614.74   56.19
   0   9   2  634.44   53.79
  -1  -9  -2   33.10   21.70
   1  -9   2   32.70   13.80
  -1  -9  -2    5.60   20.00
  -1  -9  -2  -20.70   21.60
  -1  -9  -2    1.40   22.00
   1  -9   2    8.20   19.80
  -1   9  -2    8.00   26.50
   1   9   2   28.70   24.90
  -1   9  -2   29.90   28.30
   1   9   2    0.10   20.60
  -1   9  -2    0.50   21.90
  -1   9  -2   31.80   21.00
  -2  -9  -2  311.77   43.80
  -2  -9  -2  292.07   35.60
   2  -9   2  278.97   33.80
  -2  -9  -2  234.28   32.60
  -2  -9  -2  311.17   38.80
   2   9   2  339.47   37.30
  -2   9  -2  222.78   41.10
  -2   9  -2  307.17   37.20
   2   9   2  292.57   40.50
  -2   9  -2  354.26   48.00
  -2   9  -2  248.88   34.50
  -3  -9  -2   -3.90   26.10
  -3  -9  -2  -14.10   18.70
  -3  -9  -2    3.10   21.60
  -3   9  -2   28.10   21.90
  -3   9  -2   -8.10   34.70
  -3   9  -2   28.10   29.70
  -4  -9  -2   35.90   31.70
  -4  -9  -2   27.60   22.60
  -4  -9  -2   38.10   25.50
  -4   9  -2   14.70   23.30
  -4   9  -2   15.20   31.00
  -4   9  -2   16.80   39.40
  -5  -9  -2    5.20   34.20
  -5  -9  -2  -10.30   20.70
  -5   9  -2  -49.90   20.50
  -5   9  -2   33.20   47.80
  -5   9  -2   -9.90   31.90
  -6  -9  -2    3.80   34.80
  -6  -9  -2    9.80   23.50
  -6   9  -2   38.30   42.00
  -6   9  -2   45.30   25.80
  -6   9  -2   77.09   56.99
  -6 -10   2   26.90   39.30
  -6 -10   2   14.70   28.70
  -6  10   2    2.90   28.40
  -6  10   2  -50.09   51.69
  -6  10   2   -2.60   39.70
  -5 -10   2    6.70   25.70
  -5 -10   2   -7.40   31.40
  -5  10   2  -14.80   33.90
  -5  10   2   51.09   53.09
  -5  10   2   -3.40   25.40
  -4 -10   2   50.99   35.20
  -4 -10   2   27.70   24.50
  -4  10   2   12.50   37.50
  -4  10   2  -20.20   43.80
  -4  10   2   45.00   26.40
  -3 -10   2  106.89   29.80
  -3 -10   2   82.29   31.70
  -3 -10   2   50.59   23.80
   3  10  -2   68.89   35.70
  -3  10   2   77.69   40.20
  -3  10   2   69.29   45.20
  -3  10   2   84.89   28.20
  -2 -10   2   68.79   26.70
   2 -10  -2   34.00   14.80
  -2 -10   2   40.70   23.40
   2 -10  -2   76.29   27.60
  -2 -10   2   29.20   26.50
   2 -10  -2    1.50   21.40
  -2  10   2   -2.50   35.90
  -2  10   2   50.29   23.50
   2  10  -2  -11.60   23.00
  -2  10   2   62.39   35.90
   2  10  -2   46.10   32.30
   1 -10  -2  128.29   30.10
  -1 -10   2   77.69   26.60
   1 -10  -2  139.89   24.20
  -1 -10   2  148.29   30.70
   1 -10  -2   83.59   31.40
  -1  10   2   75.99   32.30
  -1  10   2  185.38   32.60
  -1  10   2  163.48   41.60
   1  10  -2  153.18   32.30
   1  10  -2  107.79   33.30
   0 -10   2   35.10   20.10
   0 -10   2   23.90   21.80
   0 -10  -2   24.00   22.70
   0 -10  -2   26.40   21.90
   0 -10  -2   -6.60   24.90
   0  10   2  -23.50   19.00
   0  10   2   18.10   27.50
   0  10   2   10.40   29.90
   0  10  -2   36.60   25.60
   0  10  -2  -17.60   25.80
   1 -10   2    6.60   14.80
  -1 -10  -2   -9.90   23.00
  -1 -10  -2   -0.10   20.50
   1 -10   2    7.00   21.90
  -1 -10  -2   10.90   24.10
   1  10   2    0.30   22.20
  -1  10  -2  -10.50   31.80
   1  10   2    5.90   28.70
  -1  10  -2    0.30   23.20
  -1  10  -2    6.50   31.30
  -2 -10  -2   14.70   25.20
  -2 -10  -2  -11.70   21.10
  -2 -10  -2   33.50   25.70
  -2  10  -2   -0.30   30.30
  -2  10  -2   -7.10   33.00
  -2  10  -2  -15.20   21.70
   2  10   2  -11.60   27.10
  -3 -10  -2  133.99   32.80
  -3 -10  -2  179.08   42.90
  -3 -10  -2  116.19   27.40
  -3  10  -2  140.39   44.90
   3  10   2  119.69   36.00
  -3  10  -2  129.19   31.10
  -3  10  -2  146.69   47.40
  -4 -10  -2   45.10   29.70
  -4 -10  -2   19.20   33.90
  -4 -10  -2   52.99   25.80
  -4  10  -2   -2.80   34.00
  -4  10  -2   -4.60   24.90
  -4  10  -2  -25.80   43.80
  -5 -10  -2   75.79   44.00
  -5 -10  -2   71.79   26.80
  -5  10  -2   48.00   46.50
  -5  10  -2   27.40   48.40
  -5  10  -2   37.80   28.80
  -6 -10  -2  -55.39   32.10
  -6 -10  -2    8.90   25.40
  -6  10  -2  -19.80   25.50
  -6  10  -2   31.10   49.99
  -5 -11   2   -3.40   32.00
  -5 -11   2  -43.20   23.00
  -5  11   2  -45.50   51.79
  -5  11   2    3.80   29.00
  -5  11   2   39.30   39.30
  -4 -11   2   21.90   33.10
  -4 -11   2  -61.89   21.20
  -4  11   2   18.30   50.49
  -4  11   2  -43.20   37.40
  -4  11   2   24.20   27.40
  -3 -11   2   53.19   31.90
  -3 -11   2   27.50   24.90
  -3 -11   2    6.90   25.50
  -3  11   2   31.10   27.60
   3  11  -2    0.20   35.10
  -3  11   2   -6.50   41.60
  -3  11   2   54.99   41.10
  -2 -11   2   43.80   28.80
  -2 -11   2   53.69   26.60
  -2 -11   2   44.60   25.60
  -2  11   2  -11.80   33.20
  -2  11   2   31.00   35.80
   2  11  -2   78.39   39.40
  -2  11   2   25.80   25.20
   1 -11  -2  185.68   27.90
   1 -11  -2   66.39   28.00
  -1 -11   2  133.09   32.40
  -1 -11   2  169.28   32.60
   1 -11  -2  137.49   36.00
  -1  11   2  143.09   42.20
  -1  11   2  155.68   45.30
  -1  11   2   97.59   30.20
   1  11  -2  159.48   32.80
   1  11  -2   97.19   37.60
   0 -11  -2   36.20   26.50
   0 -11   2   88.79   25.00
   0 -11   2   53.99   27.50
   0 -11  -2  100.99   32.50
   0 -11  -2   55.19   25.80
   0  11   2   98.29   30.50
   0  11   2   -1.60   29.70
   0  11   2   96.59   38.10
   0  11  -2   80.99   30.60
   0  11  -2   34.60   31.60
   1 -11   2  329.47   41.00
  -1 -11  -2  286.27   44.00
  -1 -11  -2  292.17   39.90
  -1 -11  -2  331.37   44.60
   1  11   2  302.57   48.10
   1  11   2  250.57   44.80
  -1  11  -2  310.87   43.30
  -1  11  -2  297.27   49.70
  -1  11  -2  336.67   52.39
  -2 -11  -2   40.00   28.10
  -2 -11  -2   60.39   33.60
  -2 -11  -2   26.90   28.70
   2  11   2   36.90   32.70
  -2  11  -2   43.50   37.30
  -2  11  -2   35.60   28.20
  -2  11  -2   34.30   35.30
  -3 -11  -2  100.99   40.00
  -3 -11  -2  120.39   31.40
  -3 -11  -2  199.28   38.70
  -3  11  -2   97.59   46.30
  -3  11  -2  114.09   45.00
  -3  11  -2   92.89   31.30
   3  11   2  154.98   43.00
  -4 -11  -2    2.20   32.00
  -4 -11  -2  -20.60   28.50
  -4 -11  -2   24.10   25.60
  -4  11  -2  -38.70   48.10
  -4  11  -2  -36.00   34.80
  -4  11  -2   12.60   27.20
  -5 -11  -2   -3.20   37.00
  -5 -11  -2   -3.40   26.60
  -5  11  -2   -3.40   42.20
  -5  11  -2   49.10   31.60
  -5  11  -2  -33.10   55.09
  -5 -12   2  -20.30   39.20
  -5 -12   2    0.90   32.00
  -5  12   2  -30.70   60.69
  -5  12   2   21.50   32.90
  -5  12   2   48.00   51.39
  -4 -12   2  104.69   42.30
  -4 -12   2   58.39   32.60
  -4  12   2  -40.80   51.99
  -4  12   2   29.40   40.20
  -4  12   2   83.69   34.90
  -3 -12   2   50.49   31.20
  -3 -12   2  -24.30   28.50
  -3 -12   2   -9.00   25.50
   3  12  -2   10.50   38.80
  -3  12   2  -14.00   36.80
  -3  12   2   15.60   48.70
  -3  12   2   34.60   31.50
  -2 -12   2  109.69   34.70
  -2 -12   2   83.59   33.20
  -2  12   2   57.29   45.40
   2  12  -2   87.89   41.70
  -2  12   2   48.10   30.10
  -2  12   2    7.50   38.80
  -1 -12   2   -7.10   28.10
  -1 -12   2   -5.50   25.30
   1 -12  -2   12.10   30.40
   1  12  -2   22.90   35.10
  -1  12   2  -22.30   32.80
  -1  12   2   -5.30   30.80
  -1  12   2  -25.40   36.20
   0 -12  -2    2.50   29.30
   0 -12  -2  -53.29   25.30
   0 -12   2  -11.50   24.80
   0 -12  -2    0.90   24.30
   0  12  -2    3.80   29.10
   0  12   2  -15.10   30.10
   0  12   2   19.20   38.00
   0  12  -2  -35.50   33.90
   0  12   2  -14.80   24.00
  -1 -12  -2   68.39   28.70
  -1 -12  -2   -1.00   27.10
  -1 -12  -2   -7.10   26.10
  -1  12  -2    9.30   28.50
  -1  12  -2   40.00   38.20
  -1  12  -2  -20.10   32.30
   1  12   2   27.30   35.40
  -2 -12  -2   59.09   33.40
  -2 -12  -2   21.50   30.60
  -2 -12  -2   56.49   32.70
  -2  12  -2   65.69   41.60
   2  12   2   41.90   37.70
  -2  12  -2   -5.80   37.40
  -2  12  -2   33.00   30.20
  -3 -12  -2   -7.10   25.70
  -3 -12  -2   67.09   39.50
  -3 -12  -2   57.79   33.40
  -3  12  -2  -22.70   28.50
  -3  12  -2  -38.90   44.30
  -3  12  -2   14.90   41.40
   3  12   2   41.40   39.10
  -4 -12  -2   17.20   28.90
  -4 -12  -2   49.20   40.80
  -4  12  -2  -10.60   53.29
  -4  12  -2   -5.70   47.60
  -4  12  -2   -3.90   29.50
  -5 -12  -2   47.40   31.20
  -5 -12  -2    3.00   43.60
  -5  12  -2    4.30   31.60
  -5  12  -2  -45.20   43.60
  -4 -13   2    5.20   31.90
  -4 -13   2   50.79   40.80
  -4  13   2   14.10   51.79
  -4  13   2   -7.80   32.40
  -4  13   2  -19.00   56.09
  -3 -13   2   23.90   34.60
  -3 -13   2   71.89   40.50
  -3  13   2   26.70   32.60
   3  13  -2  -44.30   36.70
  -3  13   2   27.20   50.39
  -3  13   2   19.90   54.89
  -2 -13   2   37.20   35.50
  -2 -13   2   23.40   32.20
  -2  13   2    5.60   30.30
  -2  13   2   11.30   49.90
  -2  13   2   -0.70   44.50
   2  13  -2   33.00   37.30
   1 -13  -2  237.98   45.60
  -1 -13   2  192.18   38.70
  -1 -13   2  122.89   38.70
  -1  13   2   60.79   34.20
  -1  13   2  131.89   50.19
   1  13  -2  142.09   47.10
  -1  13   2   34.80   43.80
   0 -13  -2    0.20   28.90
   0 -13  -2   -5.80   26.90
   0  13   2    2.80   40.10
   0  13  -2   15.00   34.10
   0  13   2   38.30   37.90
   0  13  -2   33.40   33.90
  -1 -13  -2   82.69   34.80
  -1 -13  -2  142.69   36.70
  -1 -13  -2   83.09   36.60
  -1  13  -2  157.48   51.89
   1  13   2  203.38   48.70
  -1  13  -2   51.19   45.20
  -1  13  -2  121.39   39.00
  -2 -13  -2   36.70   32.00
  -2 -13  -2   67.99   36.10
  -2 -13  -2  -18.00   31.70
  -2  13  -2  -35.20   43.20
  -2  13  -2   36.30   34.70
  -2  13  -2   16.30   44.70
   2  13   2    2.30   36.50
  -3 -13  -2   20.40   28.80
  -3 -13  -2   48.20   39.40
  -3 -13  -2   26.80   34.80
  -3  13  -2   12.10   46.30
   3  13   2  -37.30   36.40
  -3  13  -2  102.39   38.90
  -3  13  -2  -41.90   37.60
  -4 -13  -2  -32.80   41.40
  -4 -13  -2   47.60   33.70
  -4  13  -2    5.40   34.20
  -4  13  -2  -74.19   54.69
  -4  13  -2  -41.00   49.50
  -3 -14   2   55.39   42.20
  -3 -14   2   22.90   40.80
   3  14  -2   75.49   50.09
  -3  14   2   55.49   41.40
  -3  14   2    8.80   53.09
  -3  14   2   30.30   55.09
  -2 -14   2  -19.30   33.00
  -2 -14   2    2.80   35.30
  -2  14   2  -94.89   45.80
  -2  14   2   40.20   40.10
   2  14  -2   20.20   46.80
  -2  14   2  -16.90   50.39
   1  14  -2    8.70   37.90
  -1  14   2  -61.89   41.30
  -1  14   2   80.09   48.80
   0 -14  -2    5.60   36.20
   0  14  -2  -38.00   35.70
   0  14   2  -15.70   42.60
  -1 -14  -2   12.10   32.80
  -1 -14  -2   -9.60   33.30
   1  14   2   16.50   41.60
  -1  14  -2  -17.90   45.70
  -1  14  -2   -1.20   37.30
  -2 -14  -2   42.80   34.80
  -2 -14  -2  -23.90   37.10
  -2 -14  -2  -31.20   32.30
   2  14   2   96.39   49.30
  -2  14  -2   39.60   45.70
  -2  14  -2    9.10   36.80
  -2  14  -2  -17.60   46.30
  -3 -14  -2   61.99   39.70
  -3 -14  -2  -24.80   40.10
   3  14   2   11.60   44.60
  -3  14  -2    0.70   48.00
  -3  14  -2  115.79   56.39
  -3  14  -2   -5.40   36.00
  -2  15   2   81.39   58.29
   2  15  -2  -21.40   45.70
  -2  15   2 -103.69   45.90
   1  15  -2   19.50   46.20
  -1  15   2  -48.20   45.70
  -1  15   2   60.09   56.49
   0 -15  -2   67.69   42.20
   0  15   2   62.79   50.19
   0  15  -2  122.69   52.19
  -1 -15  -2   14.10   36.90
  -1  15  -2  -51.09   46.60
   1  15   2  -15.40   43.70
  -8   0   3   56.39   39.40
  -8   0   3   16.20   48.00
  -8   0   3   11.10   16.30
  -8   0   3   -3.00   39.90
  -7   0   3    3.00   37.20
  -7   0   3   -8.80   33.50
  -7   0   3   23.20   19.70
  -7   0   3   59.89   31.50
  -7   0   3   18.20   16.20
  -6   0   3    1.10   15.90
  -6   0   3   47.10   26.00
  -6   0   3   44.60   29.70
  -5   0   3  120.29   19.00
  -5   0   3  126.09   21.80
  -5   0   3   92.49   30.30
  -5   0   3  170.28   29.40
  -5   0   3  126.39   18.10
  -4   0   3   36.00   18.10
   4   0  -3   12.30   10.90
  -4   0   3  -17.10   10.50
  -4   0   3  -12.20   19.20
  -4   0   3  -12.80   11.90
  -4   0   3  -38.90    9.40
  -3   0   3  118.09   15.70
   3   0  -3  135.59   25.00
  -3   0   3  138.59   16.40
  -3   0   3  133.19   28.30
   3   0  -3  121.09   15.30
  -3   0   3  160.58   23.80
  -3   0   3   97.09   15.40
   1   0  -3  349.47   25.00
  -1   0   3  401.16   19.30
   1   0  -3  380.86   20.50
   1   0  -3  397.46   20.20
  -1   0   3  373.76   21.20
   1   0  -3  376.26   21.40
  -1   0   3  362.36   24.20
  -1   0   3  384.46   20.90
  -1   0   3  363.66   26.20
   1   0  -3  348.87   24.10
   0   0   3    5.20    9.90
   0   0  -3    3.70    6.10
   0   0  -3   -0.30    6.80
   0   0   3  -10.20    6.70
   0   0   3    2.00    6.40
   0   0  -3   -8.50    6.40
   0   0  -3   -1.50    7.30
   0   0   3   11.50    7.80
   0   0  -3   -4.60    9.10
   0   0  -3   -6.40    9.10
   0   0   3   10.00    7.10
   0   0   3    7.50    7.60
   1   0   3 2006.10   66.99
  -1   0  -3 2024.50   67.39
   1   0   3 2046.70   80.19
  -1   0  -3 1910.41   67.09
   1   0   3 1964.70   66.99
  -1   0  -3 2003.10   81.99
  -1   0  -3 2025.90   80.09
  -2   0  -3  -15.50   14.80
  -2   0  -3  -24.00   10.70
  -2   0  -3    8.40    5.10
  -2   0  -3    0.60    5.10
  -3   0  -3  711.73   43.50
  -3   0  -3  744.63   46.80
  -3   0  -3  711.13   43.90
  -4   0  -3  -16.40   15.50
  -4   0  -3  -30.20   12.90
  -4   0  -3  -32.30   15.80
  -5   0  -3  169.58   32.70
  -5   0  -3  169.78   29.00
  -5   0  -3  163.68   33.50
  -5   0  -3  231.18   38.30
  -6   0  -3  -51.19   24.30
  -6   0  -3  -12.50   26.40
  -6   0  -3  -12.50   21.90
  -6   0  -3    3.00   24.80
  -7   0  -3  -11.80   32.80
  -7   0  -3  -11.70   30.70
  -7   0  -3   27.90   28.50
  -7   0  -3  -28.70   26.90
  -8   0  -3  -45.60   44.60
  -8   0  -3  -22.80   36.90
  -8  -1   3  -21.50   42.80
  -8  -1   3   11.60   15.60
  -8  -1   3   80.39   41.40
  -8  -1   3   59.29   46.70
  -8   1   3   80.69   49.70
  -8   1   3    6.00   36.00
  -8   1   3   -0.10   15.80
  -8   1   3  -43.70   44.20
  -7  -1   3   51.99   34.50
  -7  -1   3  -25.80   36.20
  -7   1   3   -2.70   28.50
  -7   1   3  -12.60   14.60
  -7   1   3   14.60   34.80
  -7   1   3   70.69   37.40
  -6  -1   3   22.60   19.10
  -6  -1   3    4.80   14.10
  -6  -1   3   -8.60   15.90
  -6  -1   3  -34.70   24.40
  -6  -1   3   37.00   26.50
  -6   1   3    2.50   16.30
  -6   1   3   28.50   29.90
  -6   1   3   -3.30   20.40
  -6   1   3  -23.10   13.20
  -6   1   3   -1.80   28.30
  -5  -1   3   25.60   14.30
  -5  -1   3   12.70   22.20
  -5  -1   3    8.80   12.80
  -5  -1   3   -9.60   11.60
  -5  -1   3   -2.80   13.10
  -5  -1   3   11.20   25.00
  -5   1   3    1.70   13.70
  -5   1   3  -17.10   23.50
  -5   1   3   19.50   18.80
  -4  -1   3  332.67   25.70
  -4  -1   3  389.86   25.90
  -4  -1   3  397.36   24.90
  -4  -1   3  426.56   47.50
   4  -1  -3  409.36   25.10
  -4  -1   3  379.16   40.40
  -4   1   3  352.56   29.10
  -4   1   3  387.76   33.30
  -4   1   3  388.66   25.80
  -4   1   3  404.76   26.80
   4   1  -3  416.46   25.70
  -4   1   3  388.06   45.00
  -3  -1   3   46.40    9.60
   3  -1  -3   29.50   17.40
   3  -1  -3   39.40   12.00
  -3  -1   3    2.10   11.50
  -3  -1   3   34.00   22.60
  -3  -1   3   14.00   11.50
  -3  -1   3   35.80   19.70
  -3   1   3   57.19   17.60
  -3   1   3   12.20   13.60
  -3   1   3   23.80   19.20
  -3   1   3   24.80   12.50
   3   1  -3   21.70   11.60
  -3   1   3   26.30   12.50
  -2  -1   3 2110.19   78.09
   2  -1  -3 2057.19   97.29
   2  -1  -3 2179.08   75.69
   2  -1  -3 2149.69   84.89
  -2  -1   3 2139.49   75.79
  -2  -1   3 2138.99   97.79
  -2  -1   3 2150.18   92.59
  -2  -1   3 2014.20   75.39
   2  -1  -3 2187.58   90.09
  -2   1   3 2122.49   97.99
   2   1  -3 2146.89   75.69
  -2   1   3 2145.89   89.59
   2   1  -3 1953.00   74.99
  -2   1   3 2017.40   75.79
  -2   1   3 2066.49   84.09
   2   1  -3 2136.29   91.89
  -2   1   3 2167.18   76.19
   1  -1  -3   41.00   11.50
   1  -1  -3   44.90   12.70
   1  -1  -3   52.89   13.90
   1  -1  -3   48.60   11.20
   1  -1  -3   60.99   14.50
  -1   1   3   52.69   11.00
  -1   1   3   57.49   11.30
  -1   1   3   66.19   13.90
  -1   1   3   50.59   15.70
  -1   1   3   53.19   12.30
   0  -1   3 2460.35   82.79
   0  -1  -3 2478.25   82.89
   0  -1   3 2447.35   96.89
   0  -1  -3 2465.15   83.09
   0  -1   3 2415.96   97.29
   0  -1  -3 2448.56   97.69
   0  -1   3 2432.36   96.69
   0  -1  -3 2319.57   94.19
   0  -1   3 2295.07   82.29
   0  -1  -3 2419.46  101.89
   0   1  -3 2475.85   82.79
   0   1   3 2276.27   82.29
   0   1  -3 2380.66   96.49
   0   1   3 2475.65   98.19
   0   1  -3 2429.16   82.79
   0   1  -3 2357.66   96.29
   0   1   3 2524.55   94.89
   0   1   3 2529.05  102.59
   1  -1   3    5.70   11.00
  -1  -1  -3  -10.90   13.20
  -1  -1  -3    9.30    8.10
   1  -1   3   12.80    7.10
   1  -1   3   -7.40    7.20
  -1   1  -3    7.50    7.80
   1   1   3   11.60    7.10
   1   1   3    1.90   13.20
  -1   1  -3   19.90    8.10
  -1   1  -3    3.90    7.90
   1   1   3   13.50    7.80
  -1   1  -3   32.00   11.30
  -2  -1  -3   55.49    8.10
  -2  -1  -3   63.19   17.40
   2  -1   3   47.60   17.00
   2  -1   3   47.90    6.60
   2  -1   3   41.70    6.40
   2   1   3   39.00   15.40
  -2   1  -3   42.30   15.40
  -2   1  -3   34.40    8.10
  -2   1  -3   58.29    8.50
   2   1   3   53.09    6.30
  -2   1  -3   54.19   15.30
   2   1   3   50.99    6.20
  -3  -1  -3   27.50   15.50
  -3  -1  -3   31.20    4.90
  -3   1  -3   14.80   16.50
  -3   1  -3   36.30    6.60
  -3   1  -3   22.30   15.30
  -3   1  -3   45.90    6.60
  -4  -1  -3  -24.00   15.70
  -4  -1  -3  -13.30   13.60
  -4   1  -3   25.80   18.00
  -4   1  -3   -4.20   17.40
  -4   1  -3    9.90   20.40
  -5  -1  -3   22.00   22.10
  -5  -1  -3    8.60   23.70
  -5  -1  -3    9.40   26.50
  -5  -1  -3   30.60   18.90
  -5   1  -3   12.20   21.80
  -5   1  -3   28.10   23.80
  -5   1  -3  -14.40   22.90
  -5   1  -3   32.80   24.30
  -6  -1  -3  -36.20   21.70
  -6  -1  -3  -32.70   27.50
  -6  -1  -3   11.90   21.80
  -6  -1  -3  -19.90   25.70
  -6   1  -3    6.40   26.00
  -6   1  -3  -17.30   23.70
  -6   1  -3  -46.40   19.40
  -6   1  -3  -14.00   29.20
  -7  -1  -3  -31.30   29.10
  -7  -1  -3  -37.20   32.00
  -7  -1  -3  -14.20   26.30
  -7  -1  -3  -11.50   35.00
  -7   1  -3   -8.50   36.40
  -7   1  -3  -17.60   34.20
  -7   1  -3  -34.60   25.50
  -7   1  -3  -12.40   28.90
  -8  -2   3   49.30   48.60
  -8  -2   3   23.20   41.90
  -8   2   3    1.80   49.00
  -8   2   3   13.70   40.70
  -8   2   3  -11.00   17.10
  -7  -2   3   59.39   40.80
  -7  -2   3   60.29   37.20
  -7  -2   3   23.10   17.20
  -7   2   3   50.59   34.50
  -7   2   3   45.00   18.80
  -7   2   3   39.00   42.00
  -7   2   3   33.10   38.60
  -6  -2   3  100.89   33.30
  -6  -2   3   93.89   21.20
  -6  -2   3   66.59   17.30
  -6  -2   3  116.79   21.60
  -6  -2   3  123.99   38.90
  -6   2   3   89.49   29.90
  -6   2   3  152.08   39.60
  -6   2   3  122.29   39.70
  -6   2   3   82.29   20.80
  -6   2   3  117.69   19.60
  -5  -2   3   73.49   16.40
  -5  -2   3   45.70   27.70
  -5  -2   3   76.99   16.40
  -5  -2   3   82.89   29.20
  -5  -2   3   42.90   17.20
  -5   2   3   71.09   28.20
  -5   2   3   34.10   28.60
  -5   2   3   58.79   17.60
  -5   2   3   96.29   24.00
  -5   2   3   63.79   15.90
  -4  -2   3  526.65   31.90
   4  -2  -3  523.05   30.20
  -4  -2   3  548.45   27.80
  -4  -2   3  487.85   45.90
  -4  -2   3  584.54   45.60
  -4  -2   3  523.85   30.40
  -4   2   3  524.45   31.50
  -4   2   3  544.45   46.80
   4   2  -3  544.55   29.90
  -4   2   3  574.54   46.00
  -4   2   3  510.85   36.90
  -4   2   3  525.55   31.90
  -3  -2   3    0.10    5.80
   3  -2  -3    8.10   11.60
  -3  -2   3    4.60   11.60
  -3  -2   3  -14.40   16.30
  -3  -2   3    7.90   22.20
   3  -2  -3   32.50   16.50
  -3  -2   3    1.70   11.90
  -3   2   3   22.00   13.20
   3   2  -3    5.50   11.80
  -3   2   3   -1.30   12.00
  -3   2   3    5.80   15.10
  -3   2   3   10.80   19.30
  -3   2   3   25.50   20.00
  -3   2   3   34.30   14.60
  -2  -2   3   33.50   13.20
   2  -2  -3   31.90   16.30
   2  -2  -3   40.00   19.30
   2  -2  -3   36.40   12.70
  -2  -2   3   57.39   20.30
  -2  -2   3   40.10   13.60
  -2  -2   3   34.50   19.90
   2  -2  -3   40.20   15.40
  -2   2   3   88.79   16.20
   2   2  -3   57.99   13.90
  -2   2   3   21.10   13.40
   2   2  -3   46.00   17.50
  -2   2   3   53.09   15.70
  -2   2   3   55.59   20.80
  -2   2   3   22.80   12.20
  -2   2   3   43.60   19.50
   1  -2  -3   75.39   15.10
   1  -2  -3   43.40   16.40
  -1  -2   3   46.40   15.90
   1  -2  -3   62.69   15.90
  -1  -2   3   37.60   12.70
  -1  -2   3   49.30   12.20
  -1  -2   3   75.79   17.20
   1  -2  -3   71.09   14.30
  -1   2   3   41.70   12.80
  -1   2   3   64.09   17.60
   1   2  -3   58.79   12.90
   1   2  -3   39.10   12.00
  -1   2   3   50.49   13.50
   1   2  -3   35.90   16.30
  -1   2   3   32.60   14.20
   1   2  -3   69.69   16.60
  -1   2   3   30.20   14.10
  -1   2   3   44.40   13.70
   0  -2  -3  962.40   39.90
   0  -2   3  881.21   38.90
   0  -2  -3  958.50   45.20
   0  -2   3  966.80   42.90
   0  -2  -3  969.70   40.20
   0  -2   3  968.20   44.20
   0  -2  -3  982.40   45.90
   0  -2  -3  978.90   49.00
   0  -2   3  979.40   39.50
   0  -2   3 1020.10   46.80
   0  -2  -3 1006.20   40.00
   0   2   3  973.20   50.69
   0   2   3  971.00   39.20
   0   2  -3  922.81   38.80
   0   2   3  940.41   45.20
   0   2  -3  996.50   40.20
   0   2  -3  988.00   46.90
   0   2   3  986.80   40.60
   0   2   3 1007.00   40.00
   0   2  -3  941.01   43.40
  -1  -2  -3  284.57   16.30
   1  -2   3  254.57   22.60
  -1  -2  -3  217.28   17.30
   1  -2   3  229.78   17.90
  -1  -2  -3  263.37   25.60
  -1  -2  -3  240.78   18.20
   1  -2   3  244.78   17.40
   1  -2   3  276.97   17.40
  -1  -2  -3  261.27   24.60
   1   2   3  209.38   16.40
   1   2   3  287.57   25.50
  -1   2  -3  234.88   17.80
  -1   2  -3  238.68   17.40
  -1   2  -3  173.28   16.50
  -1   2  -3  289.07   26.20
   1   2   3  234.38   17.50
  -1   2  -3  168.08   16.90
  -2  -2  -3  396.36   28.20
   2  -2   3  371.86   29.00
  -2  -2  -3  332.77   20.20
   2  -2   3  399.86   28.60
  -2  -2  -3  352.26   19.90
   2  -2   3  352.06   19.00
   2  -2   3  363.86   19.40
  -2   2  -3  384.16   27.90
  -2   2  -3  338.17   20.50
   2   2   3  369.96   29.20
  -2   2  -3  342.47   20.20
   2   2   3  364.76   18.60
  -2   2  -3  419.16   32.20
   2   2   3  356.36   18.60
  -3  -2  -3  209.68   14.30
  -3  -2  -3  195.78   14.70
  -3  -2  -3  225.98   25.30
   3  -2   3  178.58   11.00
   3   2   3  181.78   10.60
  -3   2  -3  188.88   15.30
  -3   2  -3  195.88   26.20
  -3   2  -3  192.88   15.40
  -3   2  -3  256.17   31.70
  -3   2  -3  260.77   26.60
  -4  -2  -3   51.69    8.00
  -4  -2  -3   73.99    8.00
  -4  -2  -3   71.09   27.40
  -4  -2  -3   94.09   19.30
  -4   2  -3   52.09    9.10
  -4   2  -3   62.49   25.00
  -4   2  -3   22.50   19.80
  -4   2  -3   76.39   21.70
  -4   2  -3   70.89    9.90
  -5  -2  -3   22.60   18.20
  -5  -2  -3   -4.80   22.50
  -5  -2  -3  -34.80   24.60
  -5   2  -3   41.40   24.00
  -5   2  -3   18.30   27.80
  -5   2  -3   -8.80   20.30
  -6  -2  -3  -70.09   23.20
  -6  -2  -3  -61.19   28.50
  -6  -2  -3  -10.30   21.30
  -6  -2  -3  -11.20   24.80
  -6   2  -3   65.69   33.40
  -6   2  -3   30.70   29.20
  -6   2  -3  -10.60   27.00
  -6   2  -3  -34.60   20.30
  -7  -2  -3   12.70   35.00
  -7  -2  -3  -53.09   34.60
  -7  -2  -3  -17.60   27.40
  -7  -2  -3  -65.49   29.40
  -7   2  -3  -59.19   29.60
  -7   2  -3  -35.80   26.80
  -7   2  -3   -3.70   33.70
  -7   2  -3   13.00   43.50
  -8  -3   3   10.90   42.30
  -8  -3   3  -28.90   40.30
  -8  -3   3   17.20   18.50
  -8   3   3   -1.90   52.29
  -8   3   3    2.50   19.30
  -8   3   3   42.20   43.50
  -7  -3   3   19.70   36.50
  -7  -3   3   13.50   32.10
  -7  -3   3   24.80   17.20
  -7   3   3  -58.09   25.40
  -7   3   3   45.70   41.80
  -7   3   3   25.60   18.20
  -7   3   3   39.80   39.50
  -6  -3   3    4.70   14.90
  -6  -3   3    3.70   16.60
  -6  -3   3   31.00   34.40
  -6  -3   3   44.90   33.10
  -6   3   3   -6.50   15.40
  -6   3   3    4.60   24.20
  -6   3   3   -0.80   29.70
  -6   3   3   14.20   32.70
  -6   3   3    4.90   17.70
  -5  -3   3  120.39   33.80
   5  -3  -3  111.99   18.70
  -5  -3   3  158.28   36.10
  -5  -3   3  137.49   22.20
  -5  -3   3  134.79   20.20
  -5  -3   3  122.29   16.40
  -5   3   3   82.09   29.40
  -5   3   3  123.49   26.40
  -5   3   3  108.99   18.80
  -5   3   3  122.69   32.60
   5   3  -3  146.29   19.50
  -5   3   3  121.49   20.80
  -4  -3   3   14.80   21.90
  -4  -3   3    7.90   22.40
  -4  -3   3   -2.50   13.60
  -4  -3   3    2.60   12.50
  -4  -3   3   -1.70    7.60
   4  -3  -3   -7.00   12.30
   4  -3  -3   15.20   19.30
  -4   3   3    7.10   12.50
  -4   3   3  -29.50   13.70
  -4   3   3   -1.10   22.40
  -4   3   3    3.70   13.90
  -4   3   3   18.00   21.30
   4   3  -3  -16.10   12.00
  -3  -3   3  933.71   42.50
  -3  -3   3  848.22   54.19
  -3  -3   3  838.02   41.60
   3  -3  -3  900.41   41.20
   3  -3  -3  874.41   46.60
  -3   3   3  811.32   52.99
  -3   3   3  910.41   46.40
  -3   3   3  906.91   42.50
  -3   3   3  826.02   41.50
  -3   3   3  837.52   55.89
   3   3  -3  874.41   40.70
   2  -3  -3   -1.30   16.70
  -2  -3   3  -16.60   11.90
  -2  -3   3    4.80   15.90
   2  -3  -3    5.00   13.30
  -2  -3   3    4.40   11.80
   2  -3  -3  -22.40   16.80
  -2  -3   3   -5.20   15.90
   2  -3  -3   -0.10    7.60
  -2   3   3   40.00   14.10
  -2   3   3    6.80   13.30
   2   3  -3   -2.80    5.10
  -2   3   3   -6.00   11.70
   2   3  -3   -0.30   12.40
  -2   3   3    3.10   18.10
   2   3  -3   -6.20   15.80
  -2   3   3   -3.20   16.20
   2   3  -3    2.90    5.30
  -2   3   3    2.70   16.30
  -1  -3   3 1314.67   61.49
   1  -3  -3 1309.07   65.99
   1  -3  -3 1273.47   59.59
  -1  -3   3 1277.87   62.09
   1  -3  -3 1321.47   53.39
   1  -3  -3 1317.37   58.29
   1  -3  -3 1225.58   59.19
  -1  -3   3 1281.17   52.49
   1  -3  -3 1352.46   53.59
  -1  -3   3 1297.67   53.39
  -1   3   3 1316.57   59.99
   1   3  -3 1356.86   53.79
  -1   3   3 1284.17   52.39
   1   3  -3 1305.57   52.69
  -1   3   3 1326.07   67.39
   1   3  -3 1389.96   53.89
  -1   3   3 1323.67   53.99
  -1   3   3 1303.57   57.99
   1   3  -3 1298.97   60.49
  -1   3   3 1302.47   59.89
   1   3  -3 1218.58   62.39
   0  -3  -3   17.80   12.60
   0  -3   3   29.40   13.60
   0  -3   3   32.80   12.80
   0  -3  -3   25.90   10.80
   0  -3   3   15.90   13.10
   0  -3  -3   39.90   18.10
   0  -3   3   19.60   16.20
   0  -3   3   13.80   12.80
   0  -3  -3    4.00   12.00
   0  -3  -3    4.10   16.30
   0   3   3   25.40   14.90
   0   3  -3   25.60   17.30
   0   3   3   14.60   17.70
   0   3  -3   26.40   13.10
   0   3   3   53.29   13.30
   0   3   3   32.00   13.30
   0   3  -3   17.40   12.90
   0   3  -3   18.60   11.80
   0   3   3   28.40   12.90
  -1  -3  -3  555.54   28.90
   1  -3   3  540.35   27.80
  -1  -3  -3  485.75   29.00
  -1  -3  -3  546.35   34.80
   1  -3   3  539.15   30.00
   1  -3   3  537.55   27.50
  -1  -3  -3  479.25   28.60
  -1  -3  -3  483.65   38.10
   1  -3   3  535.15   37.40
  -1   3  -3  535.25   36.10
  -1   3  -3  574.14   29.00
  -1   3  -3  657.33   30.70
   1   3   3  531.85   29.40
   1   3   3  518.45   32.80
   1   3   3  537.75   28.00
  -1   3  -3  561.14   27.10
  -1   3  -3  539.55   29.00
   1   3   3  543.15   27.80
   2  -3   3    8.10   10.40
  -2  -3  -3    6.00   10.20
   2  -3   3    0.10   13.40
  -2  -3  -3    7.70   10.00
  -2  -3  -3  -35.90    9.30
  -2  -3  -3    2.40   14.00
  -2   3  -3   11.10   10.90
  -2   3  -3    3.00   19.00
   2   3   3   12.50   15.40
   2   3   3    5.10    9.30
  -2   3  -3    0.70   10.40
  -3  -3  -3    9.90   10.10
  -3  -3  -3    7.00   12.20
  -3  -3  -3   16.90    9.60
   3  -3   3   23.90    9.50
   3  -3   3    9.10   17.60
   3   3   3   20.20    9.10
  -3   3  -3   14.50   11.00
  -3   3  -3   41.60   15.50
  -3   3  -3   43.10   11.90
  -3   3  -3   -2.80   17.10
  -3   3  -3  -25.40   14.30
  -4  -3  -3  -13.90   12.00
  -4  -3  -3   32.00   24.10
  -4  -3  -3    0.20    8.50
  -4  -3  -3   15.80    9.50
  -4   3  -3    3.20    9.80
  -4   3  -3   31.60   18.60
  -4   3  -3    2.70   10.50
  -4   3  -3   -6.70   17.60
  -4   3  -3   27.40   21.70
  -5  -3  -3   -8.20    8.90
  -5  -3  -3  -17.10   15.40
  -5  -3  -3   -4.70    7.60
  -5  -3  -3   14.80   26.30
  -5   3  -3   -4.40   10.10
  -5   3  -3    7.90   20.90
  -5   3  -3   -8.40   21.40
  -5   3  -3   14.80   28.20
  -5   3  -3    8.70   10.30
  -6  -3  -3  -75.69   29.20
  -6  -3  -3  -43.80   19.10
  -6  -3  -3    8.30   31.60
  -6   3  -3   11.80   33.60
  -6   3  -3   16.80   28.10
  -6   3  -3   10.30   30.10
  -7  -3  -3   56.39   41.60
  -7  -3  -3  -94.99   29.50
  -7  -3  -3    5.70   38.60
  -7   3  -3 -100.09   24.10
  -7   3  -3  -58.19   32.30
  -7   3  -3  -27.70   35.50
  -8  -4   3   -8.50   43.80
  -8  -4   3  -16.60   40.60
  -8  -4   3  -12.10   17.80
  -8   4   3   11.70   53.29
  -8   4   3    6.10   42.80
  -8   4   3   -4.80   19.50
  -7  -4   3  -15.20   16.20
  -7  -4   3  -24.50   39.20
  -7  -4   3   -2.00   34.40
  -7   4   3   14.00   36.60
  -7   4   3    3.60   18.70
  -7   4   3   14.50   40.30
  -6  -4   3   43.00   18.00
  -6  -4   3   15.60   32.40
  -6  -4   3   51.39   25.40
  -6  -4   3   17.70   31.50
  -6   4   3   12.90   22.90
  -6   4   3    5.20   29.00
  -6   4   3   11.60   29.50
  -6   4   3    8.80   16.80
  -5  -4   3   13.60   25.70
   5  -4  -3    3.70   15.30
  -5  -4   3   33.60   16.00
  -5  -4   3   16.90   18.10
  -5  -4   3    6.40   26.00
  -5  -4   3  -10.20   10.20
  -5   4   3  -14.80   18.10
  -5   4   3   -3.70   23.20
  -5   4   3   22.10   16.90
  -5   4   3  -14.30   16.30
   5   4  -3   24.30   15.60
  -5   4   3    8.00   23.70
   4  -4  -3   37.10   14.70
  -4  -4   3   24.90   15.90
   4  -4  -3   25.60   18.90
  -4  -4   3   26.30   14.90
  -4  -4   3   28.10   21.60
  -4   4   3   19.20   23.20
  -4   4   3   26.20   22.90
   4   4  -3   22.00   14.30
  -4   4   3   29.20   16.50
  -4   4   3   39.70   16.10
  -4   4   3   22.10   16.20
  -3  -4   3   26.00   15.10
   3  -4  -3    4.00   13.40
  -3  -4   3   31.90    7.30
  -3  -4   3   -1.60   13.50
   3  -4  -3   25.30   15.10
  -3  -4   3   15.70   19.60
  -3   4   3   12.10   18.90
  -3   4   3   10.70   14.80
   3   4  -3   13.00   13.40
  -3   4   3    9.30   20.40
  -3   4   3   69.09   15.90
  -3   4   3   12.90   14.70
  -2  -4   3  -12.80   18.10
   2  -4  -3   14.50   13.70
  -2  -4   3  -14.60   13.10
  -2  -4   3   -5.70   13.40
   2  -4  -3    4.30   13.00
   2  -4  -3    9.00   19.60
  -2   4   3   19.90   13.80
   2   4  -3   18.30    9.90
  -2   4   3   -1.20   18.70
  -2   4   3   11.20   14.50
   2   4  -3    1.70   12.60
  -2   4   3   -3.70   15.00
  -2   4   3   -5.80   16.40
   2   4  -3  -15.60   17.40
   1  -4  -3  175.98   21.00
   1  -4  -3  130.39   19.60
   1  -4  -3  107.29   19.50
  -1  -4   3  122.19   19.80
   1  -4  -3  185.68   28.50
  -1  -4   3  162.38   23.80
   1  -4  -3  160.08   21.90
  -1  -4   3  173.28   25.50
   1  -4  -3  105.99   21.50
  -1  -4   3  100.09   17.50
  -1   4   3  117.99   23.50
   1   4  -3  106.49   22.90
   1   4  -3  118.89   18.20
  -1   4   3  127.49   24.60
   1   4  -3  107.29   16.70
  -1   4   3  159.88   20.40
   1   4  -3  156.88   21.00
  -1   4   3  137.19   20.30
  -1   4   3  156.78   22.80
   1   4  -3  121.59   22.20
   0  -4  -3   34.70   14.00
   0  -4   3   30.30   14.90
   0  -4  -3   26.70   16.80
   0  -4   3   28.50   20.50
   0  -4   3   36.10   16.40
   0  -4  -3   17.50   14.20
   0  -4   3   40.40   16.20
   0  -4   3   48.50   14.30
   0  -4  -3   26.30   15.40
   0  -4  -3   35.20   21.90
   0   4   3    6.40   19.80
   0   4   3   41.50   19.00
   0   4  -3   16.00   14.70
   0   4  -3   40.90   15.40
   0   4   3   34.70   14.80
   0   4  -3   50.99   20.00
   0   4   3   63.29   15.40
   0   4   3   27.40   15.80
   0   4  -3   25.10   13.00
   1  -4   3    3.70    6.60
   1  -4   3   38.30   19.40
  -1  -4  -3   49.00   18.70
   1  -4   3   53.49   15.10
  -1  -4  -3   52.19   20.80
  -1  -4  -3   40.80   15.10
  -1  -4  -3   31.70   14.10
   1  -4   3   58.79   11.30
  -1  -4  -3   37.30   13.50
   1  -4   3   29.90   12.90
   1   4   3   48.10   14.20
  -1   4  -3   35.00   13.90
   1   4   3   25.20   16.80
  -1   4  -3   57.99   21.20
  -1   4  -3   54.39   11.00
   1   4   3   35.80   15.00
  -1   4  -3   80.59   17.00
  -1   4  -3   61.49   15.70
   2  -4   3  531.75   29.70
  -2  -4  -3  504.55   34.40
  -2  -4  -3  522.25   29.40
  -2  -4  -3  495.55   29.20
   2  -4   3  476.05   34.00
  -2  -4  -3  414.06   31.20
   2   4   3  530.45   34.90
  -2   4  -3  501.35   30.20
  -2   4  -3  468.15   24.30
  -2   4  -3  471.95   29.20
  -2   4  -3  491.65   33.30
   2   4   3  547.45   28.40
  -2   4  -3  450.35   39.80
  -3  -4  -3  136.39   17.40
   3  -4   3   92.09   14.80
  -3  -4  -3   87.99   15.10
  -3  -4  -3  140.19   21.20
   3  -4   3  127.59   23.80
   3   4   3  105.19   15.30
  -3   4  -3  117.39   26.20
  -3   4  -3   53.39   20.30
  -3   4  -3   83.29   16.10
  -3   4  -3  113.29   16.70
  -3   4  -3   94.19   16.40
  -4  -4  -3  161.08   18.00
  -4  -4  -3  179.28   19.00
  -4  -4  -3  164.48   24.50
  -4  -4  -3  140.09   32.10
  -4   4  -3  173.48   19.40
  -4   4  -3  165.18   30.10
  -4   4  -3  171.58   33.80
  -4   4  -3  170.18   23.80
  -4   4  -3  179.98   20.50
  -5  -4  -3   -2.00   12.20
  -5  -4  -3   29.40   26.70
  -5  -4  -3   -7.20   16.70
  -5  -4  -3   15.60   11.90
  -5   4  -3   28.90   13.90
  -5   4  -3   23.00   21.30
  -5   4  -3   11.70   25.30
  -5   4  -3   40.50   14.70
  -5   4  -3    4.90   24.90
  -6  -4  -3   17.20   34.80
  -6  -4  -3   10.20   10.10
  -6  -4  -3  -28.60   19.70
  -6  -4  -3   -7.00   10.90
  -6   4  -3   11.00   12.10
  -6   4  -3  -11.20   33.00
  -6   4  -3  -33.00   29.20
  -6   4  -3    7.10   13.30
  -7  -4  -3  -35.90   36.90
  -7  -4  -3   81.09   51.99
  -7   4  -3  -50.19   39.50
  -7   4  -3  -30.00   39.60
  -7  -5   3  -15.80   17.30
  -7  -5   3   14.40   31.70
  -7  -5   3  -23.60   40.10
  -7   5   3   19.80   46.40
  -7   5   3  -10.40   20.00
  -7   5   3  -35.20   37.50
  -6  -5   3    4.30   16.80
  -6  -5   3   21.50   35.90
  -6  -5   3   36.30   34.70
  -6   5   3   -8.20   22.80
  -6   5   3   19.30   36.90
  -6   5   3  -21.10   26.50
  -6   5   3  -19.60   16.50
  -5  -5   3  -11.90    8.30
  -5  -5   3    5.70   15.90
  -5  -5   3   -1.00   26.40
  -5  -5   3    6.80   18.40
  -5   5   3   11.00   27.20
  -5   5   3   12.70   17.30
  -5   5   3   -1.00   18.80
  -5   5   3   17.30   19.40
  -5   5   3   -1.30   24.40
  -4  -5   3   99.19   21.00
  -4  -5   3  125.69   12.00
  -4  -5   3  121.29   29.40
   4  -5  -3   57.09   17.60
  -4  -5   3   63.49   18.70
   4  -5  -3   75.09   20.30
  -4   5   3   83.49   30.60
  -4   5   3   98.79   20.30
  -4   5   3  121.49   20.40
  -4   5   3   63.59   19.80
   4   5  -3   89.39   18.50
  -4   5   3   45.50   29.90
  -3  -5   3  148.29   22.70
  -3  -5   3  150.78   22.40
   3  -5  -3  197.48   21.90
  -3  -5   3  180.78   31.70
  -3  -5   3  210.88   16.50
  -3   5   3  158.88   28.90
   3   5  -3  183.08   15.70
  -3   5   3  193.58   24.70
  -3   5   3  159.78   30.80
   3   5  -3  191.48   22.70
  -3   5   3  190.98   21.90
  -3   5   3  141.49   21.90
  -2  -5   3  663.63   46.60
   2  -5  -3  718.03   38.00
   2  -5  -3  683.43   45.50
  -2  -5   3  723.03   40.30
  -2  -5   3  691.43   38.80
   2  -5  -3  738.83   39.90
  -2   5   3  724.33   45.90
  -2   5   3  662.93   49.60
   2   5  -3  676.73   36.10
   2   5  -3  747.03   40.30
   2   5  -3  684.13   47.40
  -2   5   3  726.13   38.40
  -2   5   3  757.52   41.60
  -2   5   3  776.62   41.40
  -1  -5   3  242.88   24.90
   1  -5  -3  293.37   26.40
  -1  -5   3  289.87   32.70
  -1  -5   3  254.67   29.50
  -1  -5   3  261.07   27.50
   1  -5  -3  275.17   27.10
   1  -5  -3  337.77   28.90
   1  -5  -3  258.77   30.00
   1  -5  -3  304.57   30.50
  -1   5   3  291.97   37.00
  -1   5   3  269.47   26.80
  -1   5   3  265.17   27.00
   1   5  -3  327.07   29.40
  -1   5   3  334.87   32.20
   1   5  -3  296.57   30.90
   1   5  -3  232.38   24.80
   1   5  -3  284.87   26.50
   1   5  -3  239.88   31.30
   0  -5  -3 1526.35   62.09
   0  -5   3 1477.55   65.09
   0  -5   3 1447.66   61.49
   0  -5  -3 1462.45   68.99
   0  -5   3 1434.26   71.89
   0  -5  -3 1610.74   68.49
   0  -5   3 1364.26   60.89
   0  -5  -3 1459.35   60.89
   0   5   3 1393.16   60.79
   0   5   3 1536.95   79.69
   0   5   3 1473.95   61.59
   0   5  -3 1448.26   62.19
   0   5  -3 1493.35   62.69
   0   5  -3 1323.87   66.19
   0   5  -3 1400.26   72.69
   0   5  -3 1415.46   64.79
   0   5   3 1520.95   68.29
  -1  -5  -3   90.69   18.40
   1  -5   3  119.79   13.70
  -1  -5  -3   96.59   20.10
   1  -5   3   91.79   19.80
  -1  -5  -3   85.39   20.70
  -1  -5  -3  111.39   19.40
   1  -5   3  117.69   19.90
  -1   5  -3   90.49   12.30
   1   5   3   73.79   16.30
   1   5   3  119.09   20.30
  -1   5  -3  101.99   18.90
  -1   5  -3   89.79   25.60
  -1   5  -3  132.49   20.20
  -1   5  -3  116.69   22.50
  -2  -5  -3    8.50   16.00
  -2  -5  -3   23.50   14.00
   2  -5   3   38.40   14.90
   2  -5   3   45.50   18.10
  -2  -5  -3   19.10   13.80
  -2  -5  -3   17.70   17.60
   2   5   3   24.20   13.30
  -2   5  -3   50.99   18.10
  -2   5  -3    4.50   20.60
  -2   5  -3   12.30   14.60
  -2   5  -3   -5.70   13.80
  -3  -5  -3    7.10   12.80
  -3  -5  -3   -0.10   19.20
  -3  -5  -3   16.50   14.10
  -3  -5  -3   30.80   16.40
   3  -5   3  -12.40   12.40
  -3   5  -3   34.00   10.00
  -3   5  -3   40.20   19.00
   3   5   3    8.30   13.20
  -3   5  -3   26.90   22.10
  -3   5  -3   18.00   14.90
  -3   5  -3  -11.50    8.90
  -3   5  -3    1.70   13.80
  -4  -5  -3   27.60   16.60
  -4  -5  -3   22.70   15.20
  -4  -5  -3    9.70   13.00
  -4  -5  -3   12.80   23.20
  -4   5  -3   10.60   16.00
  -4   5  -3   22.70   15.10
  -4   5  -3   48.00   15.50
  -4   5  -3   16.90   22.10
  -4   5  -3   19.40   23.80
  -5  -5  -3  -11.20   15.80
  -5  -5  -3    4.10   15.60
  -5  -5  -3   -0.60   27.90
  -5  -5  -3   13.20   13.30
  -5   5  -3   28.00   20.10
  -5   5  -3   -3.60   15.00
  -5   5  -3   29.90   17.90
  -5   5  -3   30.80   29.30
  -5   5  -3   31.80   31.10
  -6  -5  -3   14.20   14.70
  -6  -5  -3   40.00   36.10
  -6  -5  -3   -4.80   22.20
  -6  -5  -3   13.30   14.80
  -6   5  -3   20.40   35.90
  -6   5  -3  -12.40   16.80
  -6   5  -3   12.90   33.30
  -6   5  -3   12.10   16.00
  -7  -5  -3   10.20   49.99
  -7  -5  -3   25.20   39.70
  -7  -5  -3  -12.00   11.00
  -7  -5  -3   14.10   10.30
  -7   5  -3    9.90   42.50
  -7   5  -3   69.49   48.60
  -7   5  -3   12.50   15.60
  -7  -6   3  -30.00   36.80
  -7  -6   3  -23.30   18.50
  -7  -6   3   28.80   39.30
  -7   6   3  -20.70   35.30
  -7   6   3  -24.50   45.10
  -7   6   3  -10.30   20.50
  -6  -6   3  -21.60   26.90
  -6  -6   3    1.30   18.80
  -6   6   3    5.60   38.80
  -6   6   3  -11.00   19.10
  -6   6   3   11.00   30.60
  -5  -6   3   22.00   26.00
  -5  -6   3   35.90   19.50
  -5   6   3    9.40   25.60
  -5   6   3   68.29   20.60
  -5   6   3   -0.90   29.60
  -5   6   3   18.80   19.70
  -4  -6   3   -3.30   16.50
   4  -6  -3    6.20   16.00
  -4  -6   3   49.40   11.50
  -4  -6   3   22.10   25.00
  -4  -6   3   22.90   18.10
   4  -6  -3   -4.60   14.70
   4   6  -3   -6.80   14.90
  -4   6   3  -20.40   20.50
  -4   6   3   -4.10   21.40
  -4   6   3   12.90   19.40
  -4   6   3   19.40   16.00
   4   6  -3    8.60   10.40
  -4   6   3  -18.20   16.20
  -3  -6   3   14.60   15.80
  -3  -6   3   19.20   11.50
  -3  -6   3  -16.40   14.90
   3  -6  -3   12.30   13.30
   3  -6  -3    3.90    7.30
  -3  -6   3   -9.00   21.90
  -3   6   3   -4.80   24.90
   3   6  -3   -5.00    6.10
   3   6  -3   16.90   11.40
  -3   6   3   18.60   22.50
  -3   6   3   18.50   17.50
  -3   6   3   15.00   17.90
  -3   6   3   24.30   14.80
  -2  -6   3   17.20   20.40
  -2  -6   3  -11.80   14.10
  -2  -6   3  -20.00   14.40
   2  -6  -3   -5.70   13.00
  -2  -6   3   21.80   12.70
   2  -6  -3  -10.30   17.90
   2  -6  -3   -2.80   15.00
   2   6  -3   -3.80   14.10
   2   6  -3   10.30   20.80
  -2   6   3   13.30   18.70
  -2   6   3   -4.70   17.10
  -2   6   3   19.90   25.40
   2   6  -3  -24.90   13.00
  -2   6   3    0.50   15.00
   1  -6  -3  438.06   34.70
  -1  -6   3  443.16   33.60
   1  -6  -3  494.65   33.70
  -1  -6   3  477.25   35.70
   1  -6  -3  470.65   33.20
  -1  -6   3  509.05   34.70
   1  -6  -3  562.74   42.50
  -1   6   3  531.15   35.40
  -1   6   3  475.85   35.20
   1   6  -3  461.65   34.00
  -1   6   3  488.45   49.50
  -1   6   3  457.35   36.70
   1   6  -3  529.05   37.60
   1   6  -3  501.65   34.10
   1   6  -3  504.95   35.70
   1   6  -3  490.15   41.20
   0  -6   3    2.20   13.90
   0  -6   3   -4.80   19.90
   0  -6   3  -22.80   13.90
   0  -6  -3   28.30   18.80
   0  -6  -3    7.20   14.60
   0  -6  -3    6.80   15.50
   0  -6   3    1.50   13.70
   0  -6  -3   12.80   16.90
   0   6  -3   19.90   22.10
   0   6   3    9.00   16.20
   0   6   3    9.80   16.80
   0   6  -3   13.00   17.60
   0   6   3   -4.20   18.80
   0   6  -3  -18.60   16.40
   0   6   3  -22.70   24.00
   0   6  -3    4.80   13.20
   1  -6   3  983.50   49.50
  -1  -6  -3 1002.80   55.89
  -1  -6  -3  984.20   54.09
  -1  -6  -3 1007.70   49.70
   1  -6   3 1036.30   56.99
  -1  -6  -3  997.10   49.40
   1  -6   3 1010.90   43.60
   1   6   3  892.31   62.39
  -1   6  -3  998.90   43.50
  -1   6  -3 1010.80   48.90
  -1   6  -3  923.41   48.40
   1   6   3 1032.30   49.20
  -1   6  -3 1006.60   56.79
   1   6   3 1003.80   53.99
  -1   6  -3  978.10   60.29
   2  -6   3    6.80   13.50
  -2  -6  -3   -4.30   14.60
   2  -6   3   30.70   20.10
  -2  -6  -3   -0.10   14.10
  -2  -6  -3   50.19   20.40
  -2   6  -3   35.40   25.90
   2   6   3    5.30   13.80
  -2   6  -3    5.30   15.40
  -2   6  -3    7.80   16.50
   2   6   3    5.40   18.00
  -2   6  -3   27.40   21.60
  -3  -6  -3  554.94   50.69
  -3  -6  -3  560.94   36.00
   3  -6   3  627.64   37.30
  -3  -6  -3  559.24   37.10
  -3  -6  -3  672.33   43.30
  -3   6  -3  602.64   38.40
  -3   6  -3  608.34   45.70
  -3   6  -3  582.14   52.39
   3   6   3  571.74   36.40
  -3   6  -3  589.64   38.30
  -4  -6  -3   14.60   17.50
   4  -6   3   -8.50   16.20
  -4  -6  -3    8.90   13.80
  -4  -6  -3   -2.30   24.30
  -4  -6  -3   -2.70   16.30
  -4   6  -3   45.10   29.90
  -4   6  -3   -2.20   17.20
  -4   6  -3   25.40   16.70
  -4   6  -3   80.89   29.00
   4   6   3  -15.60   14.40
  -5  -6  -3  134.59   38.90
  -5  -6  -3  100.69   20.60
  -5  -6  -3  125.49   27.70
  -5  -6  -3  142.29   23.50
  -5   6  -3   64.59   35.90
  -5   6  -3  102.99   23.50
  -5   6  -3  119.29   22.00
  -5   6  -3  193.78   39.40
  -6  -6  -3   23.10   17.30
  -6  -6  -3   11.70   36.20
  -6   6  -3   11.40   18.70
  -6   6  -3   75.99   41.20
  -6   6  -3    0.00   34.20
  -7  -6  -3   12.30   16.20
  -7  -6  -3   -8.00   40.30
  -7   6  -3   87.29   47.60
  -7   6  -3   22.70   18.20
  -7   6  -3   65.19   49.99
  -7  -7   3    0.40   22.20
  -7  -7   3   -5.10   38.10
  -7  -7   3   30.20   47.40
  -7   7   3   43.50   52.89
  -7   7   3  -54.89   21.20
  -7   7   3   45.70   43.60
  -6  -7   3   -3.10   30.10
  -6  -7   3   -7.50   20.60
  -6   7   3    6.30   35.10
  -6   7   3  -22.30   39.10
  -6   7   3   23.90   23.00
  -5  -7   3   12.30   20.30
  -5  -7   3    1.50   25.20
  -5   7   3  -24.30   32.40
  -5   7   3   20.20   28.10
  -5   7   3   11.00   21.50
  -4  -7   3   68.99   15.90
  -4  -7   3   53.39   22.40
  -4  -7   3   79.79   32.30
  -4  -7   3   60.69   21.70
  -4   7   3   73.09   23.00
  -4   7   3   49.60   17.20
  -4   7   3   13.50   27.90
  -4   7   3   39.40   31.60
  -4   7   3   52.19   21.40
  -3  -7   3  133.89   31.20
  -3  -7   3   51.59   20.20
  -3  -7   3  118.59   18.40
   3  -7  -3   91.59   16.70
   3  -7  -3  121.59   22.60
  -3  -7   3  104.09   22.60
  -3   7   3  116.49   23.50
  -3   7   3  105.49   33.70
  -3   7   3   87.59   24.00
   3   7  -3   85.59   21.40
  -3   7   3   72.49   25.70
   3   7  -3   93.39   18.20
   3   7  -3   89.89   28.10
  -2  -7   3  389.06   35.50
   2  -7  -3  363.36   27.80
   2  -7  -3  351.36   33.80
  -2  -7   3  411.86   43.30
   2  -7  -3  429.86   44.10
  -2  -7   3  361.66   35.30
   2   7  -3  365.36   33.00
  -2   7   3  322.17   39.00
   2   7  -3  363.46   34.70
  -2   7   3  265.57   40.50
  -2   7   3  397.66   37.00
  -2   7   3  377.36   35.10
   2   7  -3  354.86   43.10
   1  -7  -3   94.19   21.20
  -1  -7   3  120.39   21.70
  -1  -7   3   78.29   22.80
   1  -7  -3   95.59   20.50
  -1  -7   3   79.39   22.50
   1  -7  -3   97.99   25.10
  -1   7   3  116.49   32.20
  -1   7   3  101.49   21.90
   1   7  -3   58.69   19.90
  -1   7   3  150.08   25.10
   1   7  -3   96.89   26.90
  -1   7   3   81.59   23.70
   0  -7   3  164.18   24.90
   0  -7   3  246.58   26.10
   0  -7  -3  208.38   26.40
   0  -7  -3  193.38   30.10
   0  -7  -3  206.38   26.50
   0   7   3  192.58   31.00
   0   7  -3  194.48   32.60
   0   7   3  209.08   28.30
   0   7  -3  203.38   27.60
   0   7   3  161.78   33.40
   0   7  -3  275.17   27.10
   0   7  -3  251.17   29.60
   1  -7   3   42.60   18.60
  -1  -7  -3   21.70   17.10
  -1  -7  -3   19.90   16.60
   1  -7   3   34.50   11.80
  -1  -7  -3   49.60   22.40
  -1   7  -3   27.70   26.30
  -1   7  -3   43.90   20.40
  -1   7  -3   37.30   19.70
   1   7   3   26.50   17.20
   1   7   3   12.10   20.30
  -1   7  -3   41.90   23.10
  -2  -7  -3  104.79   21.20
  -2  -7  -3  125.09   26.70
  -2  -7  -3  121.69   23.10
  -2   7  -3   71.19   21.60
  -2   7  -3   73.59   27.60
   2   7   3  128.89   27.10
  -2   7  -3  111.09   23.20
  -2   7  -3   93.39   29.00
  -3  -7  -3   18.10   17.90
  -3  -7  -3    6.70   15.70
  -3  -7  -3   35.50   21.30
   3  -7   3  -32.50   15.60
  -3  -7  -3    0.10   23.60
  -3   7  -3    8.20   18.60
  -3   7  -3   18.20   25.40
   3   7   3  -17.90   15.50
  -3   7  -3   30.40   26.80
  -3   7  -3    4.80   16.70
  -4  -7  -3    3.50   16.10
  -4  -7  -3  -17.90   23.70
  -4  -7  -3   20.20   20.80
  -4  -7  -3   -4.80   17.90
  -4   7  -3   16.50   29.00
  -4   7  -3   -4.80   19.00
  -4   7  -3   -2.80   17.20
  -4   7  -3  -18.50   28.00
  -5  -7  -3  -18.70   21.50
  -5  -7  -3    6.20   18.20
  -5  -7  -3   -3.70   33.40
  -5   7  -3   71.69   34.10
  -5   7  -3   20.00   19.20
  -5   7  -3   34.20   37.70
  -6  -7  -3  -16.20   18.00
  -6  -7  -3   33.90   35.00
  -6   7  -3   11.40   19.00
  -6   7  -3   63.09   38.30
  -6   7  -3   74.69   40.80
  -7  -7  -3    8.20   19.50
  -7  -7  -3    5.80   45.10
  -7   7  -3  -18.20   40.50
  -7   7  -3    8.60   20.50
  -7  -8   3   -9.20   24.30
  -7  -8   3   -8.50   40.00
  -7  -8   3  -13.70   44.50
  -7   8   3  -16.30   50.99
  -7   8   3  -49.10   36.60
  -7   8   3   -1.60   25.30
  -6  -8   3   -6.90   21.70
  -6  -8   3  -50.19   23.10
  -6   8   3   -8.00   30.30
  -6   8   3   -6.40   23.90
  -6   8   3   20.30   47.60
  -5  -8   3   -6.70   20.80
  -5  -8   3   -4.70   29.40
  -5   8   3   -6.90   22.30
  -5   8   3   23.70   33.80
  -5   8   3   -1.40   36.70
  -4  -8   3  105.49   19.50
  -4  -8   3   89.39   31.20
  -4  -8   3   86.29   25.40
  -4   8   3   73.59   37.40
  -4   8   3  103.09   36.80
  -4   8   3   74.19   24.50
  -3  -8   3   41.40   21.70
   3  -8  -3    4.60   17.70
  -3  -8   3   33.80   16.70
   3  -8  -3   41.70   14.60
  -3  -8   3   41.40   22.10
  -3  -8   3   11.20   25.70
  -3   8   3   68.89   25.40
   3   8  -3    4.40   23.90
   3   8  -3   -9.20   18.50
   3   8  -3    4.80   18.10
  -3   8   3   17.60   27.90
  -3   8   3    7.30   20.80
  -3   8   3   61.69   31.60
   2  -8  -3  -16.30   15.20
  -2  -8   3   32.40   19.60
  -2  -8   3  -25.30   18.00
   2  -8  -3   11.50   16.30
  -2  -8   3    1.80   20.70
   2  -8  -3  -12.90   22.50
  -2   8   3   -7.60   21.70
   2   8  -3   25.00   19.50
  -2   8   3   56.59   33.40
  -2   8   3   -5.40   19.40
  -2   8   3    2.30   18.70
   2   8  -3    9.80   22.50
   1  -8  -3   18.40   23.10
   1  -8  -3   32.30   20.60
   1  -8  -3   28.80   18.70
  -1  -8   3   20.60   19.60
  -1  -8   3   24.90   17.70
  -1  -8   3   12.50   18.50
   1   8  -3   20.40   19.50
   1   8  -3   10.30   23.20
  -1   8   3    1.30   20.60
  -1   8   3   26.60   21.20
  -1   8   3   36.30   26.70
  -1   8   3   -7.10   23.40
   0  -8  -3  182.98   28.30
   0  -8  -3  128.39   25.00
   0  -8  -3  140.29   30.90
   0  -8   3  176.28   23.70
   0  -8   3  130.59   26.40
   0   8  -3  145.79   27.30
   0   8  -3  128.19   31.90
   0   8  -3  151.18   26.60
   0   8   3  118.29   28.50
   0   8   3  120.39   31.60
   0   8   3   96.29   22.60
  -1  -8  -3  115.29   23.80
  -1  -8  -3  140.69   25.70
   1  -8   3  115.49   25.80
  -1  -8  -3  146.29   27.20
   1  -8   3  158.88   17.80
  -1   8  -3  116.39   31.40
  -1   8  -3  150.28   31.10
  -1   8  -3  112.59   24.80
   1   8   3   99.09   22.80
  -1   8  -3  205.98   29.70
   1   8   3  173.68   32.20
  -2  -8  -3  170.98   30.30
  -2  -8  -3  147.19   26.10
  -2  -8  -3  156.38   34.60
  -2  -8  -3  144.29   24.70
   2  -8   3  126.99   24.90
   2   8   3  198.08   32.30
  -2   8  -3  154.98   39.20
   2   8   3  138.59   24.20
  -2   8  -3  143.49   27.50
  -2   8  -3  143.79   33.50
  -2   8  -3  143.99   26.80
  -3  -8  -3   80.59   23.30
  -3  -8  -3   94.29   27.40
  -3  -8  -3   44.90   21.90
  -3  -8  -3   36.80   25.90
  -3   8  -3   46.60   23.40
  -3   8  -3   69.59   34.20
  -3   8  -3   88.19   34.90
  -3   8  -3   37.20   21.10
  -4  -8  -3   64.39   34.80
  -4  -8  -3   31.20   19.70
  -4  -8  -3   36.40   25.00
  -4   8  -3   83.39   36.70
  -4   8  -3   20.90   20.80
  -4   8  -3    7.30   33.90
  -5  -8  -3   53.79   27.20
  -5  -8  -3  -67.09   26.40
  -5  -8  -3   11.10   19.60
  -5   8  -3   48.30   40.50
  -5   8  -3   31.30   35.30
  -5   8  -3   -9.20   19.00
  -6  -8  -3   15.10   21.00
  -6  -8  -3  -63.99   32.50
  -6   8  -3  -20.80   20.20
  -6   8  -3   27.30   40.30
  -6   8  -3   24.20   44.70
  -6  -9   3   34.20   27.10
  -6  -9   3   -7.70   37.80
  -6   9   3   50.39   27.10
  -6   9   3  -18.30   32.40
  -6   9   3  -49.30   47.30
  -5  -9   3   26.60   24.80
  -5  -9   3   -3.80   33.20
  -5   9   3   -4.40   43.20
  -5   9   3  -12.20   23.70
  -5   9   3   20.60   33.20
  -4  -9   3  -38.70   26.30
  -4  -9   3  -12.70   20.50
  -4   9   3  -35.60   35.00
  -4   9   3  -30.50   19.50
  -4   9   3   22.60   30.30
  -3  -9   3  277.27   43.10
  -3  -9   3  234.88   35.30
  -3  -9   3  240.48   29.90
  -3   9   3  195.18   30.30
   3   9  -3  162.68   37.60
  -3   9   3  174.78   37.30
  -3   9   3  221.18   49.70
  -2  -9   3    8.00   21.30
  -2  -9   3  -19.80   21.60
   2  -9  -3   19.70   22.30
   2  -9  -3  -18.20   15.80
   2  -9  -3    0.80   20.90
  -2  -9   3    6.60   20.80
   2   9  -3    2.50   22.40
  -2   9   3   13.80   29.70
  -2   9   3  -18.80   22.30
  -2   9   3   20.40   22.80
   2   9  -3  -12.90   19.60
  -2   9   3   -0.80   27.20
   1  -9  -3  469.85   49.50
   1  -9  -3  508.75   40.60
  -1  -9   3  522.25   41.50
  -1  -9   3  541.05   46.40
   1  -9  -3  515.95   38.80
  -1   9   3  421.46   46.50
   1   9  -3  434.96   41.90
   1   9  -3  347.87   45.80
  -1   9   3  432.66   41.70
  -1   9   3  444.96   56.69
   0  -9   3   41.90   19.30
   0  -9  -3   21.80   22.30
   0  -9   3  -17.40   19.90
   0  -9  -3   16.60   21.20
   0  -9  -3    9.50   20.60
   0   9  -3   20.10   21.80
   0   9  -3    5.30   28.50
   0   9   3   -7.60   17.40
   0   9   3  -16.60   24.70
   0   9   3   13.50   26.90
  -1  -9  -3  314.07   36.90
   1  -9   3  307.97   24.20
  -1  -9  -3  314.87   41.30
  -1  -9  -3  305.37   35.20
  -1  -9  -3  356.76   42.00
   1  -9   3  339.87   37.70
  -1   9  -3  194.88   38.90
  -1   9  -3  350.96   38.90
   1   9   3  352.46   43.00
   1   9   3  325.97   35.80
  -1   9  -3  283.57   36.20
  -1   9  -3  376.16   46.80
   2  -9   3  -24.40   18.90
  -2  -9  -3   -7.80   23.20
  -2  -9  -3   17.80   20.90
  -2  -9  -3   10.50   23.10
  -2   9  -3    9.40   31.40
   2   9   3   -1.30   18.90
  -2   9  -3   19.50   30.90
  -2   9  -3    5.50   21.70
   2   9   3  -27.00   23.00
  -3  -9  -3  -11.70   23.40
  -3  -9  -3    1.20   20.20
  -3  -9  -3   -5.40   22.80
  -3   9  -3   -0.80   34.40
  -3   9  -3   17.00   21.70
  -3   9  -3  -11.30   29.70
  -4  -9  -3   16.10   32.10
  -4  -9  -3   12.50   25.30
  -4  -9  -3  -32.20   18.10
  -4   9  -3   32.50   34.50
  -4   9  -3   14.30   22.90
  -4   9  -3    8.50   42.20
  -5  -9  -3   10.40   35.20
  -5  -9  -3   -3.00   21.00
  -5   9  -3    3.30   35.70
  -5   9  -3   69.19   48.50
  -5   9  -3    5.30   22.60
  -6  -9  -3    3.60   22.00
  -6  -9  -3   27.10   40.40
  -6   9  -3   11.20   45.70
  -6   9  -3   13.20   25.40
  -6 -10   3   48.00   39.60
  -6 -10   3    3.60   28.30
  -6  10   3  -44.90   47.00
  -6  10   3   46.50   29.90
  -6  10   3   16.30   40.00
  -5 -10   3  -30.80   35.50
  -5 -10   3   -1.30   24.90
  -5  10   3  -34.00   45.60
  -5  10   3   -6.50   25.70
  -5  10   3    3.80   32.60
  -4 -10   3   30.70   24.90
  -4 -10   3  -25.70   28.40
  -4  10   3   51.29   38.40
  -4  10   3   -8.80   23.40
  -4  10   3  -27.90   35.60
  -3 -10   3    4.30   22.50
  -3 -10   3   21.80   29.00
  -3  10   3   74.99   37.00
  -3  10   3   11.40   23.70
  -3  10   3  -16.10   35.30
   3  10  -3   10.70   29.30
  -2 -10   3   14.50   22.80
   2 -10  -3   30.30   28.30
   2 -10  -3   24.80   24.30
  -2 -10   3   34.80   25.60
   2  10  -3   12.80   31.00
   2  10  -3   19.60   23.30
  -2  10   3    7.90   22.80
  -2  10   3   54.39   37.80
  -2  10   3   -6.50   32.20
   1 -10  -3  -55.39   17.00
  -1 -10   3  -10.20   21.50
   1 -10  -3   -1.70   21.60
  -1 -10   3    0.20   21.30
   1  10  -3    3.50   21.10
  -1  10   3  -56.49   29.90
   1  10  -3   28.70   32.00
  -1  10   3   29.10   23.10
  -1  10   3    5.80   29.40
   0 -10  -3   41.90   25.70
   0 -10   3   -9.80   18.30
   0 -10  -3   -5.90   20.90
   0 -10  -3   12.80   23.10
   0 -10   3   46.20   24.00
   0  10  -3   -2.10   27.30
   0  10  -3    8.30   22.20
   0  10   3  -12.00   28.30
   0  10   3   35.00   29.20
   0  10   3    6.00   22.30
  -1 -10  -3   58.39   26.00
  -1 -10  -3   80.79   29.50
   1 -10   3   66.59   16.90
   1 -10   3   20.30   22.00
  -1 -10  -3   81.89   27.70
  -1  10  -3   48.10   36.90
  -1  10  -3   75.29   25.90
   1  10   3   66.09   28.50
   1  10   3   -6.80   26.00
  -1  10  -3   93.49   34.60
  -2 -10  -3   88.99   34.10
  -2 -10  -3  142.29   33.00
  -2 -10  -3   69.19   29.90
  -2  10  -3  116.79   39.30
   2  10   3  111.79   34.60
  -2  10  -3   91.59   30.80
  -2  10  -3  111.39   41.50
  -3 -10  -3  130.59   33.30
  -3 -10  -3   24.90   24.90
  -3 -10  -3   70.69   31.30
  -3  10  -3    0.40   38.70
  -3  10  -3   17.00   25.90
  -3  10  -3   -0.60   31.20
  -4 -10  -3   30.20   23.60
  -4 -10  -3   60.59   36.30
  -4 -10  -3   88.59   32.90
  -4  10  -3   -1.90   40.10
  -4  10  -3   49.30   47.50
  -4  10  -3    4.80   24.40
  -5 -10  -3  -13.30   31.40
  -5 -10  -3  -17.80   23.00
  -5  10  -3   21.50   41.80
  -5  10  -3   54.69   29.50
  -5  10  -3  -15.40   51.59
  -6 -10  -3  -32.30   41.20
  -6 -10  -3   -8.30   24.60
  -6  10  -3    2.30   45.80
  -6  10  -3   36.60   29.00
  -5 -11   3  -63.09   24.30
  -5 -11   3   15.70   37.70
  -5  11   3  -13.90   38.30
  -5  11   3   -8.70   27.90
  -5  11   3 -110.49   51.09
  -4 -11   3  -32.00   30.80
  -4 -11   3    6.00   28.60
  -4  11   3   37.50   40.90
  -4  11   3   -8.00   26.30
  -4  11   3  -74.29   46.10
  -3 -11   3  -20.90   24.10
  -3 -11   3  -31.50   28.20
  -3  11   3    3.40   42.90
  -3  11   3    9.60   39.70
   3  11  -3   43.60   36.70
  -3  11   3   40.50   28.90
   2 -11  -3   81.39   30.20
  -2 -11   3   74.39   30.10
  -2 -11   3   71.79   30.10
   2  11  -3   55.09   33.90
  -2  11   3   16.70   39.60
  -2  11   3   32.00   41.20
  -2  11   3   26.40   26.30
   1 -11  -3   20.20   21.80
  -1 -11   3   21.10   24.70
  -1 -11   3   36.60   29.20
   1 -11  -3   23.40   26.60
   1 -11  -3   -1.80   24.10
  -1  11   3   17.50   36.20
  -1  11   3   33.10   37.90
   1  11  -3  -14.80   25.50
  -1  11   3   -5.40   22.70
   1  11  -3   10.10   30.50
   0 -11   3   54.99   30.90
   0 -11  -3   69.99   30.00
   0 -11   3   89.59   25.70
   0 -11  -3  142.49   36.60
   0 -11  -3   95.29   28.80
   0  11  -3  147.19   35.20
   0  11   3   80.19   36.50
   0  11   3   87.09   34.60
   0  11  -3   99.09   40.10
   0  11   3   62.89   29.30
  -1 -11  -3   30.50   25.50
  -1 -11  -3    5.30   27.10
  -1 -11  -3   13.20   29.00
  -1  11  -3  -17.70   22.70
  -1  11  -3   30.50   33.20
   1  11   3   21.40   29.60
  -1  11  -3    9.70   34.20
  -2 -11  -3   10.40   29.40
  -2 -11  -3  -43.10   23.40
  -2 -11  -3   46.80   29.30
  -2  11  -3   22.50   29.10
  -2  11  -3   10.10   34.60
   2  11   3  -33.70   28.70
  -2  11  -3   -1.50   34.80
  -3 -11  -3   69.89   32.10
  -3 -11  -3   42.80   33.90
  -3 -11  -3    9.10   23.90
   3  11   3   23.40   33.90
  -3  11  -3   27.10   28.00
  -3  11  -3  -40.90   40.60
  -3  11  -3    3.70   37.00
  -4 -11  -3   25.10   36.70
  -4 -11  -3   27.80   25.10
  -4 -11  -3   35.70   32.00
  -4  11  -3  -16.10   25.60
  -4  11  -3   -8.70   49.40
  -4  11  -3  -12.30   42.40
  -5 -11  -3   58.39   30.20
  -5 -11  -3   -0.60   39.10
  -5  11  -3   85.19   33.50
  -5  11  -3   34.30   48.80
  -5 -12   3  -13.00   40.00
  -5 -12   3   15.00   32.20
  -5  12   3    5.70   60.39
  -5  12   3   -0.70   31.00
  -5  12   3   33.10   52.49
  -4 -12   3   10.50   30.20
  -4 -12   3   26.70   38.00
  -4  12   3   19.70   33.20
  -4  12   3  -15.10   37.70
  -4  12   3  -13.90   55.59
  -3 -12   3   -9.00   31.40
  -3 -12   3    6.40   29.30
  -3  12   3  -14.30   29.50
  -3  12   3   22.60   42.40
   3  12  -3   54.09   38.50
  -3  12   3  -82.39   35.00
  -2 -12   3  -11.10   29.10
   2 -12  -3  -18.00   27.60
  -2 -12   3  -18.00   29.30
  -2  12   3  -37.40   32.30
   2  12  -3   22.60   37.20
  -2  12   3  -17.10   27.40
  -2  12   3  -24.20   39.50
   1 -12  -3   70.99   34.40
  -1 -12   3   73.59   30.40
   1 -12  -3   65.19   35.70
  -1 -12   3   58.39   30.80
  -1  12   3   52.69   30.80
  -1  12   3   16.50   34.20
   1  12  -3   25.60   33.50
  -1  12   3   82.09   42.70
   0 -12  -3  -10.00   22.90
   0 -12  -3  -14.40   27.30
   0 -12  -3   16.00   31.20
   0 -12   3  -23.80   27.10
   0  12   3  -15.80   36.00
   0  12  -3  -22.30   29.10
   0  12   3   -8.90   31.00
   0  12  -3   13.70   32.20
  -1 -12  -3  219.38   39.80
  -1 -12  -3  238.88   43.40
  -1 -12  -3  209.48   40.90
  -1  12  -3  143.09   45.70
  -1  12  -3  142.99   45.20
   1  12   3  216.58   45.80
  -1  12  -3  112.49   35.40
  -2 -12  -3   -9.50   28.60
  -2 -12  -3   45.50   32.00
  -2 -12  -3  -30.50   30.50
  -2  12  -3   23.00   39.50
  -2  12  -3    2.20   28.70
  -2  12  -3  -33.20   35.60
   2  12   3    3.20   34.80
  -3 -12  -3  135.09   39.80
  -3 -12  -3   52.99   40.10
  -3 -12  -3  105.49   34.40
  -3  12  -3   34.00   42.50
  -3  12  -3  198.38   52.49
  -3  12  -3  119.79   36.20
   3  12   3   90.79   41.20
  -4 -12  -3    5.10   27.30
  -4 -12  -3   27.70   40.80
  -4  12  -3   12.30   31.60
  -4  12  -3   -4.80   40.10
  -4 -13   3   55.39   37.10
  -4 -13   3  -19.30   36.40
  -4  13   3    7.10   33.60
  -4  13   3  -49.60   40.50
  -4  13   3  -31.60   59.29
  -3 -13   3   32.50   37.20
  -3 -13   3   29.00   36.80
  -3  13   3  -56.69   43.20
   3  13  -3    2.90   36.10
  -3  13   3  -14.90   53.09
  -3  13   3   52.79   35.90
  -2 -13   3  145.69   41.30
  -2 -13   3   49.50   35.30
   2  13  -3   52.39   38.30
  -2  13   3   84.09   50.99
  -2  13   3  -49.80   41.40
  -2  13   3  145.59   40.00
   1 -13  -3   68.89   38.50
  -1 -13   3   14.00   33.30
  -1  13   3   24.00   42.00
  -1  13   3   93.19   46.00
  -1  13   3   42.50   34.70
   1  13  -3   28.40   35.50
   0 -13  -3   99.79   35.50
   0 -13  -3   84.69   34.90
   0  13   3   93.99   41.50
   0  13  -3   98.09   38.20
   0  13   3   85.49   44.50
   0  13  -3   60.79   43.20
  -1 -13  -3   10.10   30.00
  -1 -13  -3  -24.60   29.90
  -1 -13  -3   21.30   33.00
  -1  13  -3    4.50   33.90
   1  13   3   18.50   35.60
  -1  13  -3   57.39   41.20
  -2 -13  -3   13.90   33.20
  -2 -13  -3  -16.00   30.60
  -2 -13  -3   -5.00   33.50
  -2  13  -3   -9.70   45.70
  -2  13  -3   39.10   46.20
  -2  13  -3   63.19   34.40
   2  13   3   15.80   40.50
  -3 -13  -3  -58.59   31.30
  -3 -13  -3    4.10   30.00
  -3 -13  -3   58.59   36.40
  -3  13  -3   60.59   49.99
  -3  13  -3   19.10   35.10
  -3  13  -3  -31.50   43.40
   3  13   3   82.89   42.30
  -4 -13  -3   -9.00   38.80
  -4 -13  -3  -15.20   30.70
  -4  13  -3   -8.20   46.40
  -4  13  -3   37.20   35.20
  -3 -14   3  -70.09   37.20
  -3 -14   3   48.90   36.90
  -3  14   3  -18.90   52.19
  -3  14   3  -59.19   41.80
  -3  14   3   77.89   41.00
   3  14  -3  -53.19   37.60
  -2 -14   3    0.80   33.00
  -2  14   3   17.60   35.80
  -2  14   3  -29.30   47.20
  -2  14   3  -64.19   46.20
   2  14  -3   65.39   46.10
   1 -14  -3    7.70   34.10
   1  14  -3  -13.10   35.90
  -1  14   3    2.50   44.90
  -1  14   3  -37.60   43.60
   0 -14  -3   71.99   41.50
   0  14   3    3.80   43.00
   0  14  -3  -23.40   40.10
  -1 -14  -3   53.39   39.50
  -1 -14  -3   66.69   39.80
  -1  14  -3   29.50   42.20
  -1  14  -3   10.80   39.00
   1  14   3   58.29   44.00
  -2 -14  -3   12.50   37.80
  -2 -14  -3   50.59   40.20
  -2 -14  -3    7.10   36.30
   2  14   3  -16.50   41.60
  -2  14  -3   51.19   52.19
  -2  14  -3   36.30   39.50
  -2  14  -3  -21.30   42.20
  -3 -14  -3   65.19   38.90
  -3 -14  -3   -9.80   34.40
  -3 -14  -3  -20.30   41.10
  -3  14  -3    0.90   49.70
  -3  14  -3    8.10   38.90
  -2  15   3  132.49   64.39
  -2  15   3  -38.70   52.19
   2  15  -3   48.10   47.80
   1  15  -3  -52.29   42.50
  -1  15   3   22.60   50.49
  -1  15   3   51.49   55.19
   0 -15  -3   29.40   39.40
   0  15  -3   38.60   42.80
   0  15   3   53.79   49.40
  -1 -15  -3   55.29   44.90
   1  15   3   30.50   46.80
  -1  15  -3    5.00   46.50
  -8   0   4   71.79   42.00
  -8   0   4  -52.49   42.70
  -8   0   4    5.80   45.60
  -8   0   4  -18.80   16.90
  -7   0   4   12.40   17.00
  -7   0   4  -14.50   35.10
  -7   0   4   55.39   33.90
  -6   0   4    2.00   14.20
  -6   0   4   74.79   28.60
  -6   0   4   11.20   30.90
  -6   0   4   -6.10   16.10
  -5   0   4    0.00   12.40
  -5   0   4   66.79   23.90
  -5   0   4  -14.90   24.20
  -5   0   4    5.40   14.10
  -5   0   4  -28.20   12.90
   5   0  -4    3.50   12.80
   4   0  -4   52.09   14.50
  -4   0   4   47.20   22.20
  -4   0   4   51.29   14.00
  -4   0   4   49.30   16.10
  -4   0   4   25.70   23.30
  -4   0   4   12.60   12.70
   3   0  -4    2.10   12.00
  -3   0   4   -8.80   11.60
  -3   0   4    6.20   19.20
  -3   0   4  -15.70   11.10
  -3   0   4   -5.80   18.50
  -3   0   4   -1.30   10.20
  -2   0   4  219.28   17.40
  -2   0   4  174.78   18.60
  -2   0   4  239.08   25.50
   2   0  -4  268.07   28.20
   2   0  -4  195.28   17.70
   2   0  -4  250.47   20.80
   2   0  -4  234.68   27.50
  -2   0   4  239.08   20.90
  -2   0   4  203.58   25.80
   1   0  -4   12.40   12.80
   1   0  -4   10.60   10.90
  -1   0   4   27.20   11.70
  -1   0   4   19.90   15.20
   1   0  -4   23.60   15.50
   1   0  -4    7.70    9.50
  -1   0   4   13.10    9.40
  -1   0   4   11.70   13.50
  -1   0   4   27.70   11.20
   1   0  -4    6.80   10.20
   0   0  -4   83.69   13.00
   0   0  -4  116.69   16.50
   0   0   4   98.59   12.50
   0   0  -4  115.29   13.10
   0   0  -4   86.79   12.30
   0   0   4   99.89   12.50
   0   0   4   88.49   14.90
   0   0  -4  122.59   17.60
   0   0   4  133.39   19.00
   0   0  -4   95.39   11.60
   0   0   4  114.39   12.00
   0   0   4  129.99   14.10
  -1   0  -4    7.90    8.90
   1   0   4   -1.40    9.50
  -1   0  -4    7.50   13.30
  -1   0  -4  -14.00    8.00
  -1   0  -4   -7.40    8.70
   1   0   4   -5.40    7.40
   1   0   4   -2.90   12.60
   1   0   4    3.90    7.90
  -2   0  -4 1477.75   67.09
   2   0   4 1569.94   51.29
  -2   0  -4 1510.75   52.79
   2   0   4 1521.35   51.19
  -2   0  -4 1466.95   52.49
  -2   0  -4 1501.25   70.69
  -3   0  -4   11.10    5.00
  -3   0  -4   -4.70   17.60
  -3   0  -4  -29.30   11.40
  -3   0  -4   -5.20    4.00
  -4   0  -4  281.17   35.80
  -4   0  -4  199.38   31.90
  -4   0  -4  265.37   36.10
  -4   0  -4  251.57   31.00
  -5   0  -4  -38.60   16.80
  -5   0  -4  -33.80   19.30
  -5   0  -4  -33.70   17.50
  -5   0  -4  -36.20   19.40
  -6   0  -4   -2.90   24.80
  -6   0  -4    3.50   24.70
  -6   0  -4  -12.00   28.70
  -6   0  -4  -33.20   24.10
  -7   0  -4  -12.00   28.00
  -7   0  -4  -47.30   33.20
  -7   0  -4  -29.50   32.50
  -7   0  -4  -55.49   27.10
  -8  -1   4  -66.79   38.00
  -8  -1   4   20.60   19.10
  -8  -1   4   36.10   38.40
  -8   1   4   11.60   45.50
  -8   1   4  153.98   45.10
  -8   1   4  -19.00   37.40
  -8   1   4   23.90   19.20
  -7  -1   4    1.20   15.60
  -7  -1   4    4.20   32.70
  -7  -1   4  -18.20   34.40
  -7   1   4   15.10   34.60
  -7   1   4    2.20   15.50
  -7   1   4  -55.39   27.40
  -7   1   4   69.79   32.80
  -6  -1   4    9.20   17.70
  -6  -1   4   28.60   29.00
  -6  -1   4   37.90   16.50
  -6  -1   4   -6.80   16.00
  -6  -1   4  136.79   33.10
  -6   1   4   45.80   26.10
  -6   1   4   28.90   33.40
  -6   1   4   26.20   18.70
  -6   1   4   -2.70   14.50
  -5  -1   4   31.00   25.30
  -5  -1   4   55.39   17.40
  -5  -1   4   42.50   15.10
  -5  -1   4   76.19   15.90
  -5  -1   4   42.50   25.50
   5  -1  -4   24.80   14.40
  -5   1   4   82.29   25.10
  -5   1   4   65.89   31.90
  -5   1   4   72.39   18.20
   5   1  -4   69.49   15.90
  -4  -1   4    9.40   12.10
  -4  -1   4    3.90   12.80
  -4  -1   4   17.40   21.00
   4  -1  -4   16.00   13.20
  -4  -1   4  -19.20    9.40
  -4  -1   4   17.80   21.80
   4   1  -4   28.60   14.10
  -4   1   4   -5.70   22.80
  -4   1   4   -5.50   14.40
  -4   1   4   40.90   15.00
  -4   1   4   24.30   13.70
  -4   1   4   35.60   20.00
  -3  -1   4  429.76   38.10
  -3  -1   4  432.16   21.80
  -3  -1   4  462.45   27.90
  -3  -1   4  475.05   38.70
   3  -1  -4  460.45   34.80
   3  -1  -4  420.76   27.70
  -3  -1   4  422.66   27.60
   3   1  -4  457.15   27.80
  -3   1   4  416.86   38.40
  -3   1   4  423.86   28.30
  -3   1   4  448.96   27.70
  -3   1   4  422.06   29.10
  -3   1   4  477.55   34.70
  -2  -1   4    4.20   16.40
   2  -1  -4   -3.80    6.60
   2  -1  -4   10.40   13.50
  -2  -1   4   17.40   12.60
  -2  -1   4   11.10    6.30
   2  -1  -4   18.30   11.80
   2  -1  -4  -17.90   14.70
  -2  -1   4   10.20   11.90
   2  -1  -4   23.20   19.30
  -2  -1   4   17.70   16.60
   2   1  -4    3.40   14.80
   2   1  -4   -1.00   11.60
   2   1  -4   -4.40    6.20
  -2   1   4    2.50   13.00
  -2   1   4   -3.20   11.80
  -2   1   4    3.10   12.20
   2   1  -4    5.80    7.10
  -2   1   4   17.90   18.10
  -2   1   4   21.70   16.40
   1  -1  -4  202.28   23.50
  -1  -1   4  215.18   24.00
  -1  -1   4  173.48   14.30
   1  -1  -4  197.78   18.80
  -1  -1   4  206.38   20.80
  -1  -1   4  218.28   19.20
   1  -1  -4  176.08   18.50
  -1  -1   4  189.18   18.20
   1  -1  -4  203.78   18.80
   1  -1  -4  217.48   23.70
  -1  -1   4  206.88   21.30
  -1   1   4  177.88   17.20
  -1   1   4  203.98   18.40
   1   1  -4  212.58   18.20
   1   1  -4  227.78   21.20
  -1   1   4  186.48   19.10
  -1   1   4  247.18   25.30
   1   1  -4  222.88   20.30
  -1   1   4  257.87   24.90
   1   1  -4  164.28   14.50
   1   1  -4  194.38   22.20
   0  -1  -4   75.59   16.00
   0  -1   4   74.69   16.50
   0  -1   4   59.99   12.20
   0  -1   4   52.09   11.00
   0  -1   4   78.89   14.00
   0  -1  -4   77.69   12.90
   0  -1  -4   76.39   15.00
   0  -1  -4   57.09   12.80
   0  -1  -4   52.09   15.20
   0  -1   4   68.39    8.50
   0   1  -4   68.29   15.30
   0   1  -4   45.20   12.60
   0   1   4   47.80   14.50
   0   1   4   89.89   16.60
   0   1   4   70.99   18.30
   0   1   4   44.60    7.00
   0   1  -4   46.10   12.30
   0   1   4   54.59   12.00
   0   1  -4   54.09   12.20
   0   1   4   54.09   11.60
   0   1  -4   48.30    7.60
   0   1  -4   49.50   13.20
   1  -1   4    6.00    8.50
  -1  -1  -4   10.00    9.30
   1  -1   4   15.70   11.90
  -1  -1  -4    8.80    7.60
  -1  -1  -4    5.00   13.20
   1  -1   4    3.00    8.50
  -1  -1  -4   12.70    9.80
   1   1   4   13.60    9.50
   1   1   4  -10.40    7.80
  -1   1  -4   22.00   11.40
  -1   1  -4  -33.60   10.80
  -1   1  -4    4.80    9.40
  -1   1  -4   -9.60   13.40
   1   1   4    1.50   13.40
  -1   1  -4   -7.10    8.90
   2  -1   4  -15.20   13.20
  -2  -1  -4    9.10    8.10
   2  -1   4    9.50    6.60
  -2  -1  -4    3.20   17.00
  -2  -1  -4   17.00    8.60
   2  -1   4    5.40    6.50
  -2  -1  -4   42.40   12.80
   2   1   4  -12.40   15.80
   2   1   4   -6.10    6.40
  -2   1  -4   23.10   13.00
  -2   1  -4    6.30    8.10
  -2   1  -4    6.30    7.90
   2   1   4    2.60    6.40
  -2   1  -4   -6.00   10.40
  -3  -1  -4  104.19    9.10
  -3  -1  -4  118.89    9.70
  -3  -1  -4  159.18   22.90
  -3  -1  -4  133.49   24.20
  -3   1  -4  120.29   10.20
  -3   1  -4  200.28   26.20
  -3   1  -4  105.59   20.80
  -3   1  -4  120.59   10.50
  -4  -1  -4   15.70   18.70
  -4  -1  -4   40.50   17.90
  -4  -1  -4   23.60   22.20
  -4   1  -4   36.20   22.50
  -4   1  -4   70.39   22.70
  -4   1  -4   50.09   21.40
  -4   1  -4  109.29   23.00
  -5  -1  -4   40.60   28.70
  -5  -1  -4   54.49   22.50
  -5  -1  -4   58.89   26.90
  -5  -1  -4   27.70   24.00
  -5   1  -4   -0.30   18.50
  -5   1  -4   80.69   28.50
  -5   1  -4   67.99   25.70
  -5   1  -4   44.80   25.50
  -6  -1  -4   23.30   27.70
  -6  -1  -4   11.30   26.30
  -6  -1  -4   -7.50   32.00
  -6  -1  -4   51.89   27.30
  -6   1  -4   83.09   34.80
  -6   1  -4   55.19   32.20
  -6   1  -4   14.50   27.30
  -6   1  -4    0.80   27.00
  -7  -1  -4   -4.80   25.20
  -7  -1  -4   26.20   36.00
  -7  -1  -4  -10.80   32.00
  -7  -1  -4  -59.09   35.50
  -7   1  -4   -4.60   36.80
  -7   1  -4  -34.50   28.70
  -7   1  -4  -51.09   26.30
  -7   1  -4   27.80   36.50
  -8  -2   4  -12.20   43.80
  -8  -2   4   85.19   45.00
  -8   2   4   78.49   44.20
  -8   2   4   30.10   36.80
  -8   2   4   38.00   46.00
  -8   2   4   -4.40   19.20
  -7  -2   4    0.20   16.90
  -7  -2   4   -4.10   32.40
  -7  -2   4   57.79   37.20
  -7   2   4  -17.40   35.90
  -7   2   4  -11.90   28.60
  -7   2   4   26.30   35.10
  -7   2   4   16.00   18.10
  -6  -2   4  -10.10   17.80
  -6  -2   4   28.70   29.70
  -6  -2   4   14.20   15.30
  -6  -2   4    5.50   32.70
  -6   2   4    0.30   19.00
  -6   2   4    0.90   15.10
  -6   2   4  -34.60   30.30
  -6   2   4   60.19   32.80
  -6   2   4   24.60   23.50
   5  -2  -4   -7.50   14.00
  -5  -2   4   -4.50   10.20
  -5  -2   4   -8.20   12.60
  -5  -2   4    9.60   24.10
  -5  -2   4    5.60   15.80
  -5  -2   4  -11.00   22.30
  -5  -2   4   -4.90   10.60
  -5   2   4    7.70   27.90
  -5   2   4   22.10   15.00
  -5   2   4  -13.90   22.40
  -5   2   4   24.80   20.30
   5   2  -4   10.70   14.80
  -5   2   4   10.40   15.90
  -4  -2   4  -10.40   12.00
  -4  -2   4   -4.00   12.80
  -4  -2   4    2.90    7.10
  -4  -2   4   24.00   21.90
   4  -2  -4  -18.60   12.70
  -4  -2   4   -6.50   22.20
  -4  -2   4  -18.30    6.60
  -4   2   4   52.99   18.30
  -4   2   4   55.29   26.80
   4   2  -4   -4.90   12.20
  -4   2   4   16.50   22.70
  -4   2   4    3.10   13.80
  -4   2   4  -10.60   12.30
  -3  -2   4   43.30   22.50
  -3  -2   4   45.00   21.50
   3  -2  -4   65.09   15.50
   3  -2  -4   47.10   16.90
  -3  -2   4   80.09   15.90
  -3  -2   4   43.10   13.90
   3  -2  -4   82.99   20.40
  -3   2   4   66.29   16.20
  -3   2   4   39.20   17.40
  -3   2   4  122.09   21.00
   3   2  -4   68.99   15.80
  -3   2   4   92.39   27.60
  -3   2   4   52.29   15.40
   2  -2  -4   79.79   15.80
   2  -2  -4   99.49   20.20
  -2  -2   4   94.19   22.00
  -2  -2   4  103.29   23.30
   2  -2  -4   74.49   19.00
  -2  -2   4   66.19   20.30
  -2  -2   4   84.29   16.10
   2  -2  -4  100.29   25.20
  -2  -2   4  112.19   17.10
   2  -2  -4   92.19   15.70
  -2   2   4  108.29   19.00
   2   2  -4   89.09   16.60
  -2   2   4   81.49   17.80
  -2   2   4  110.99   17.80
   2   2  -4   59.29   13.70
  -2   2   4   83.59   15.20
   2   2  -4   99.79   23.10
  -2   2   4  127.99   25.80
  -1  -2   4 1107.99   46.60
   1  -2  -4 1149.69   58.09
   1  -2  -4 1061.59   47.00
   1  -2  -4 1099.19   46.90
  -1  -2   4 1120.59   47.70
  -1  -2   4 1155.88   55.19
   1  -2  -4 1189.78   53.89
   1  -2  -4 1087.99   51.99
  -1  -2   4 1147.49   54.79
   1   2  -4 1197.68   48.00
  -1   2   4 1095.19   51.79
  -1   2   4 1150.08   48.30
   1   2  -4 1105.49   46.30
   1   2  -4 1137.99   46.60
  -1   2   4 1169.58   54.39
  -1   2   4 1065.59   46.50
  -1   2   4 1121.19   51.59
   1   2  -4 1103.89   55.69
  -1   2   4 1159.38   59.49
   1   2  -4 1149.19   54.69
   0  -2   4  742.93   34.60
   0  -2   4  723.83   34.30
   0  -2  -4  690.13   34.40
   0  -2  -4  745.23   39.20
   0  -2   4  791.12   41.30
   0  -2  -4  714.23   41.00
   0  -2  -4  759.32   42.70
   0  -2   4  749.03   38.20
   0   2   4  758.72   34.20
   0   2   4  728.43   34.50
   0   2  -4  732.63   38.70
   0   2  -4  770.62   41.20
   0   2  -4  768.92   35.20
   0   2   4  778.42   44.20
   0   2   4  716.93   38.60
   0   2  -4  729.83   34.30
   0   2   4  721.23   31.50
  -1  -2  -4 1469.45   73.99
   1  -2   4 1518.95   57.09
  -1  -2  -4 1560.34   57.79
  -1  -2  -4 1629.54   69.69
  -1  -2  -4 1563.04   61.09
  -1  -2  -4 1515.85   57.49
   1  -2   4 1567.84   57.39
   1  -2   4 1570.94   69.49
  -1   2  -4 1506.35   64.19
  -1   2  -4 1499.45   57.69
  -1   2  -4 1560.34   57.69
   1   2   4 1597.44   57.29
  -1   2  -4 1528.55   69.69
   1   2   4 1613.44   69.59
  -1   2  -4 1413.46   65.59
   1   2   4 1516.35   56.89
  -2  -2  -4  162.28   23.30
   2  -2   4  181.78   24.50
   2  -2   4  202.28   15.40
  -2  -2  -4  170.48   15.80
  -2  -2  -4  210.38   16.70
   2   2   4  201.08   15.40
  -2   2  -4  192.78   21.10
   2   2   4  212.08   26.70
  -2   2  -4  197.38   16.60
  -2   2  -4  187.88   16.40
  -2   2  -4  202.88   24.90
  -3  -2  -4  206.28   26.60
  -3  -2  -4  198.08   15.60
   3  -2   4  219.18   12.30
  -3  -2  -4  187.08   15.30
  -3   2  -4  202.08   15.90
  -3   2  -4  187.28   15.80
  -3   2  -4  202.08   26.40
  -3   2  -4  171.18   25.40
  -4  -2  -4   11.50   14.90
  -4  -2  -4  -27.50   20.50
  -4  -2  -4   15.90    6.30
  -4   2  -4    4.70   19.80
  -4   2  -4   19.90    8.60
  -4   2  -4  -14.70   18.80
  -4   2  -4   65.89   21.50
  -4   2  -4   16.20    8.40
  -5  -2  -4   13.50   18.10
  -5  -2  -4  -41.20   21.10
  -5  -2  -4  -25.10   21.60
  -5   2  -4   36.80   25.20
  -5   2  -4   19.90   24.00
  -5   2  -4   -2.80   22.10
  -6  -2  -4   -1.00   20.90
  -6  -2  -4  -52.29   24.00
  -6  -2  -4  -53.99   29.30
  -6  -2  -4  -12.80   25.90
  -6   2  -4   16.40   28.10
  -6   2  -4  -53.39   23.50
  -6   2  -4  -29.40   28.00
  -6   2  -4    2.40   29.60
  -7  -2  -4  -72.59   27.70
  -7  -2  -4  -58.39   36.60
  -7  -2  -4   -2.20   27.00
  -7  -2  -4  -33.60   30.60
  -7   2  -4  -22.90   33.10
  -7   2  -4  -10.00   37.60
  -7   2  -4    5.50   35.10
  -7   2  -4   -5.40   29.90
  -8  -3   4  -10.70   41.10
  -8  -3   4   87.69   48.40
  -8  -3   4   -0.30   20.40
  -8   3   4   21.60   20.70
  -8   3   4   -9.30   47.50
  -8   3   4   13.50   45.30
  -7  -3   4   49.99   41.60
  -7  -3   4   15.00   17.70
  -7  -3   4   14.10   36.50
  -7   3   4   23.40   20.30
  -7   3   4  -27.30   26.60
  -7   3   4   51.79   38.10
  -7   3   4   59.59   38.40
  -6  -3   4   52.79   33.60
  -6  -3   4  112.69   41.00
  -6  -3   4  136.39   24.80
  -6  -3   4  110.09   20.10
  -6   3   4  103.59   40.70
  -6   3   4   76.09   19.80
  -6   3   4   75.39   31.80
  -6   3   4   60.59   22.20
  -6   3   4  128.69   31.80
  -5  -3   4   11.10   17.30
  -5  -3   4    5.70   28.20
  -5  -3   4   13.90   22.00
  -5  -3   4    6.30   14.80
  -5  -3   4   10.70    8.20
  -5  -3   4   28.10    8.90
   5  -3  -4    0.20   15.00
  -5   3   4   17.90   17.20
  -5   3   4  -32.50   25.80
  -5   3   4  -44.70   24.00
   5   3  -4   -1.00   14.00
  -5   3   4    0.20   13.70
  -5   3   4   21.00   20.90
  -4  -3   4  294.17   27.00
  -4  -3   4  328.87   44.30
  -4  -3   4  291.57   40.80
  -4  -3   4  302.37   28.40
   4  -3  -4  315.57   26.90
   4   3  -4  350.16   28.40
  -4   3   4  295.97   39.00
  -4   3   4  361.16   30.30
  -4   3   4  439.16   33.00
  -4   3   4  347.87   27.50
  -4   3   4  320.37   44.30
  -3  -3   4  -15.10   11.70
  -3  -3   4   -9.40   13.20
   3  -3  -4   15.40   17.70
   3  -3  -4   -5.20   15.80
   3  -3  -4    0.30   12.90
  -3  -3   4   10.90   18.70
   3   3  -4   -4.40   12.30
  -3   3   4  -16.40   20.00
  -3   3   4   -8.50   12.90
  -3   3   4    2.50   13.80
  -3   3   4   -2.10   22.10
  -3   3   4   42.00   16.50
  -2  -3   4 1090.79   48.40
   2  -3  -4 1087.69   47.50
   2  -3  -4 1095.09   52.59
  -2  -3   4 1026.40   56.19
   2  -3  -4 1085.59   47.70
  -2  -3   4  999.90   47.30
   2  -3  -4 1079.09   54.79
   2   3  -4 1080.99   40.20
   2   3  -4 1109.09   48.00
  -2   3   4 1045.60   51.69
   2   3  -4 1022.80   46.70
  -2   3   4  986.50   47.50
  -2   3   4  960.50   59.39
  -2   3   4 1045.90   55.19
  -2   3   4 1063.79   53.79
  -2   3   4 1034.30   47.80
   1  -3  -4  375.36   31.20
   1  -3  -4  400.16   27.90
   1  -3  -4  365.26   26.00
   1  -3  -4  315.07   25.20
   1  -3  -4  342.37   26.30
   1  -3  -4  350.76   34.30
  -1  -3   4  360.66   28.00
  -1  -3   4  297.67   24.50
  -1  -3   4  379.56   30.60
  -1  -3   4  359.66   30.10
  -1   3   4  324.77   25.60
   1   3  -4  332.67   27.20
   1   3  -4  343.87   26.70
  -1   3   4  357.26   27.60
  -1   3   4  321.07   27.70
   1   3  -4  341.57   25.30
   1   3  -4  315.87   30.40
  -1   3   4  374.66   26.70
  -1   3   4  362.96   32.90
  -1   3   4  366.46   25.30
   0  -3  -4  564.64   35.30
   0  -3  -4  570.04   28.60
   0  -3   4  618.34   37.50
   0  -3   4  568.14   32.20
   0  -3  -4  533.05   36.90
   0  -3  -4  577.24   32.70
   0  -3   4  593.34   32.00
   0  -3  -4  564.84   38.80
   0  -3  -4  538.15   30.30
   0  -3   4  572.54   33.50
   0  -3   4  564.84   31.20
   0   3  -4  571.44   32.50
   0   3   4  603.74   29.60
   0   3  -4  630.04   34.00
   0   3  -4  591.44   37.80
   0   3   4  562.34   30.90
   0   3  -4  587.64   32.20
   0   3   4  567.94   35.00
   0   3   4  534.85   39.40
   0   3   4  581.54   31.40
  -1  -3  -4   58.59   14.20
   1  -3   4   77.69   11.90
  -1  -3  -4   64.69   17.70
   1  -3   4   70.69   15.00
  -1  -3  -4   75.49   23.60
  -1  -3  -4   54.89   11.50
   1  -3   4   61.89   13.20
   1  -3   4   81.39   14.30
   1  -3   4   94.79   22.20
  -1  -3  -4   71.99   14.60
  -1   3  -4   64.99   22.20
  -1   3  -4   87.59   14.80
  -1   3  -4   46.30   14.10
   1   3   4   52.79   17.00
  -1   3  -4   60.19   14.60
   1   3   4   55.99   13.20
   1   3   4   86.59   14.00
  -2  -3  -4  299.07   21.50
   2  -3   4  330.47   25.00
  -2  -3  -4  374.46   23.90
   2  -3   4  342.37   21.90
  -2  -3  -4  293.37   22.40
  -2  -3  -4  292.97   30.10
  -2   3  -4  353.76   23.80
   2   3   4  304.67   20.70
  -2   3  -4  304.57   22.70
  -2   3  -4  309.47   32.50
  -2   3  -4  233.08   24.10
  -2   3  -4  301.17   21.80
  -3  -3  -4    4.60    9.40
   3  -3   4    9.30    9.10
  -3  -3  -4    7.20    9.70
  -3  -3  -4   15.90   14.50
  -3   3  -4  -29.80   14.60
  -3   3  -4    0.10    9.80
   3   3   4   13.80    8.50
  -3   3  -4   -3.50   17.80
  -3   3  -4    3.30   10.70
  -4  -3  -4  181.88   26.90
  -4  -3  -4  188.18   16.50
  -4  -3  -4  182.08   16.60
  -4  -3  -4  236.28   36.50
  -4   3  -4  208.88   27.50
  -4   3  -4  235.78   36.80
  -4   3  -4  167.68   16.70
  -4   3  -4  152.18   30.50
  -4   3  -4  238.68   18.90
  -5  -3  -4    3.30   27.80
  -5  -3  -4  -20.00    7.30
  -5  -3  -4   -8.50   17.60
  -5   3  -4   37.30   30.10
  -5   3  -4   26.90   23.10
  -5   3  -4   -9.20    9.90
  -5   3  -4  -30.10   20.90
  -5   3  -4    8.90   10.00
  -6  -3  -4   -9.20   32.00
  -6  -3  -4  -30.60   26.30
  -6  -3  -4  -47.40   32.80
  -6  -3  -4   24.10   22.60
  -6   3  -4   11.10   31.00
  -6   3  -4   33.20   31.90
  -6   3  -4   27.10   29.90
  -7  -3  -4   -0.80   37.50
  -7  -3  -4   -4.80   34.30
  -7  -3  -4  -72.09   37.20
  -7   3  -4  -21.50   41.50
  -7   3  -4   -5.70   38.00
  -7   3  -4  -89.49   28.00
  -8  -4   4  -21.30   43.20
  -8  -4   4  -60.89   40.00
  -8  -4   4   -9.80   20.00
  -8   4   4   60.09   52.79
  -8   4   4  -20.30   38.70
  -8   4   4   15.20   22.00
  -7  -4   4   26.00   33.80
  -7  -4   4   29.40   18.30
  -7  -4   4    6.10   35.70
  -7   4   4   39.00   42.40
  -7   4   4    5.60   34.30
  -7   4   4   21.40   21.50
  -6  -4   4   -9.40   25.30
  -6  -4   4   34.60   33.90
  -6  -4   4   39.10   18.10
  -6   4   4   27.90   33.10
  -6   4   4   40.00   20.00
  -6   4   4   13.90   31.10
  -6   4   4   10.80   23.90
  -5  -4   4   34.90   27.70
  -5  -4   4    8.10   26.10
  -5  -4   4   -6.30   17.20
  -5  -4   4    5.80   15.00
  -5   4   4   14.10   27.60
  -5   4   4   18.30   24.80
  -5   4   4   18.10   17.20
  -5   4   4    0.50   17.70
  -5   4   4   56.89   22.20
  -4  -4   4   -3.50   13.80
   4  -4  -4   -7.50   18.60
  -4  -4   4   -6.90   18.60
   4  -4  -4  -10.30   14.80
  -4  -4   4  -30.80   13.30
  -4   4   4    1.80   23.30
  -4   4   4    9.70   16.50
  -4   4   4  -18.00   22.80
  -4   4   4   -8.40   14.20
  -4   4   4   64.49   19.40
   4   4  -4  -14.80   13.30
   3  -4  -4   47.20   18.40
  -3  -4   4   65.79   17.80
   3  -4  -4    5.90    8.40
  -3  -4   4   48.70   22.00
  -3  -4   4   63.89   17.10
   3  -4  -4   61.49   22.50
  -3   4   4   96.29   19.70
  -3   4   4   50.19   16.30
  -3   4   4   93.19   26.00
  -3   4   4   50.79   16.30
  -3   4   4   66.49   24.30
   3   4  -4    1.90    9.90
  -2  -4   4  162.18   26.10
  -2  -4   4  160.28   22.10
  -2  -4   4  132.39   20.90
   2  -4  -4  125.09   19.00
   2  -4  -4  163.28   22.00
   2  -4  -4  153.68   25.00
  -2   4   4  133.89   27.30
   2   4  -4  145.59   13.90
  -2   4   4  151.68   26.00
  -2   4   4  127.19   20.80
  -2   4   4  144.19   22.20
  -2   4   4  141.49   21.70
   2   4  -4  158.78   26.40
   2   4  -4  123.09   18.90
   1  -4  -4 1198.58   54.89
  -1  -4   4 1296.87   63.79
   1  -4  -4 1280.17   61.79
   1  -4  -4 1381.46   57.19
  -1  -4   4 1319.97   56.69
  -1  -4   4 1349.86   57.09
   1  -4  -4 1289.17   61.19
   1  -4  -4 1335.67   63.29
  -1   4   4 1267.77   56.89
  -1   4   4 1332.87   61.79
   1   4  -4 1330.67   63.59
   1   4  -4 1317.97   55.89
  -1   4   4 1291.97   69.39
  -1   4   4 1220.38   62.79
  -1   4   4 1267.77   55.39
   1   4  -4 1360.76   56.99
   1   4  -4 1324.97   56.59
   1   4  -4 1319.37   67.89
   0  -4   4  263.37   24.70
   0  -4  -4  238.98   23.90
   0  -4   4  256.57   23.00
   0  -4   4  251.37   24.60
   0  -4  -4  260.77   31.20
   0  -4   4  271.47   30.20
   0  -4  -4  222.98   20.70
   0  -4   4  286.87   25.40
   0  -4  -4  233.78   28.90
   0  -4  -4  221.48   23.30
   0   4   4  247.28   22.60
   0   4   4  244.38   31.40
   0   4   4  234.08   23.60
   0   4  -4  287.47   25.30
   0   4  -4  303.07   32.80
   0   4   4  234.98   28.00
   0   4   4  231.18   23.20
   0   4  -4  234.48   23.50
   0   4  -4  242.28   23.90
   1  -4   4 1152.18   54.39
  -1  -4  -4 1138.29   52.19
   1  -4   4 1177.38   50.99
  -1  -4  -4 1116.29   49.60
  -1  -4  -4 1170.68   50.39
  -1  -4  -4 1189.58   59.39
  -1   4  -4 1133.29   49.70
   1   4   4 1093.39   51.69
   1   4   4 1189.48   57.89
  -1   4  -4 1125.79   61.19
  -1   4  -4 1211.08   54.89
  -1   4  -4 1112.39   49.99
   1   4   4 1110.59   66.49
  -1   4  -4 1145.39   50.69
  -2  -4  -4  205.28   22.00
  -2  -4  -4  250.77   22.00
   2  -4   4  238.48   24.00
  -2  -4  -4  218.88   27.60
  -2  -4  -4  193.18   20.40
   2  -4   4  161.98   19.00
  -2   4  -4  186.68   28.70
   2   4   4  200.68   19.50
  -2   4  -4  222.78   22.30
  -2   4  -4  193.98   20.80
  -2   4  -4  181.78   22.40
  -2   4  -4  185.38   18.20
   3  -4   4  146.99   17.20
  -3  -4  -4  166.28   18.30
  -3  -4  -4  139.89   18.00
  -3  -4  -4  174.18   25.00
   3  -4   4  152.28   24.60
  -3  -4  -4  152.58   22.90
  -3   4  -4  154.78   20.10
  -3   4  -4   96.69   22.50
  -3   4  -4  140.49   18.60
  -3   4  -4  118.39   17.40
  -3   4  -4  177.58   32.20
   3   4   4  162.28   17.20
  -4  -4  -4   17.00   16.30
  -4  -4  -4   25.30   13.10
  -4  -4  -4   -1.40   24.70
  -4  -4  -4   10.20   11.40
  -4   4  -4   16.50   16.50
  -4   4  -4    7.30   13.20
  -4   4  -4   -6.70   11.80
  -4   4  -4   -2.10   24.70
  -4   4  -4  -21.90   18.60
  -5  -4  -4   42.60   31.10
  -5  -4  -4   -4.40   11.00
  -5  -4  -4   -6.80   17.20
  -5  -4  -4   10.10   11.70
  -5   4  -4   12.70   27.30
  -5   4  -4   23.40   22.30
  -5   4  -4   -6.60   13.80
  -5   4  -4   -1.30   24.40
  -5   4  -4   -0.30   12.00
  -6  -4  -4  -30.40   20.60
  -6  -4  -4   24.60   36.50
  -6  -4  -4  -17.60    7.90
  -6   4  -4  -21.50   31.00
  -6   4  -4   -9.90   12.10
  -6   4  -4   29.20   32.20
  -6   4  -4  -21.90   11.10
  -7  -4  -4   43.70   43.70
  -7  -4  -4   -6.10   42.10
  -7  -4  -4   -0.80   33.20
  -7   4  -4   23.10   41.80
  -7   4  -4  -29.80   39.10
  -7  -5   4    0.70   19.70
  -7  -5   4   16.40   34.20
  -7  -5   4   28.80   37.20
  -7   5   4  -19.10   19.50
  -7   5   4   10.10   44.20
  -7   5   4    1.10   34.50
  -6  -5   4   28.00   35.10
  -6  -5   4  -17.50   24.60
  -6  -5   4  -33.80   16.30
  -6   5   4    3.20   18.40
  -6   5   4   11.80   33.90
  -6   5   4   72.79   27.50
  -6   5   4   15.70   32.00
  -5  -5   4   60.79   20.20
  -5  -5   4   41.70   29.40
  -5  -5   4   84.89   24.40
  -5   5   4   63.69   21.30
  -5   5   4  118.09   25.00
  -5   5   4   37.90   30.00
  -5   5   4   46.50   31.00
  -5   5   4   71.29   22.50
   4  -5  -4  120.19   23.20
  -4  -5   4   88.49   20.10
  -4  -5   4   95.39   27.40
  -4  -5   4  188.68   27.10
   4  -5  -4  114.69   21.50
  -4   5   4  111.19   30.10
  -4   5   4  130.29   34.50
  -4   5   4  117.19   23.90
  -4   5   4  104.39   22.30
   4   5  -4   84.69   19.80
  -4   5   4  135.59   23.30
   3  -5  -4  379.66   40.00
   3  -5  -4  328.27   29.10
  -3  -5   4  299.17   31.10
  -3  -5   4  361.16   42.40
  -3  -5   4  291.47   29.20
  -3   5   4  378.96   33.60
  -3   5   4  299.37   36.40
  -3   5   4  242.58   37.30
   3   5  -4  325.47   17.60
  -3   5   4  350.06   29.40
  -3   5   4  320.37   30.80
   2  -5  -4  115.99   26.60
   2  -5  -4  140.89   20.90
  -2  -5   4  137.39   21.90
   2  -5  -4  120.49   21.30
  -2  -5   4  124.19   20.80
  -2  -5   4  123.09   26.20
  -2   5   4  145.49   22.40
  -2   5   4  173.58   22.90
  -2   5   4  115.89   23.30
   2   5  -4  129.19   26.60
  -2   5   4  122.89   28.00
   2   5  -4  119.99   22.20
   2   5  -4  130.19   16.70
  -2   5   4  150.38   23.60
  -1  -5   4  353.06   32.60
   1  -5  -4  366.86   32.90
  -1  -5   4  335.27   29.90
  -1  -5   4  329.77   29.30
   1   5  -4  378.36   28.00
   1   5  -4  342.67   29.30
   1   5  -4  355.56   32.20
   1   5  -4  392.36   39.30
   1   5  -4  340.67   29.60
   0  -5  -4   30.50   16.20
   0  -5   4   24.30   17.10
   0  -5   4   21.10   14.50
   0  -5  -4   25.00   17.80
   0  -5  -4   27.80   16.70
   0  -5   4   15.80   15.00
   0  -5   4   21.70   15.20
   0  -5  -4   36.70   15.60
   0   5   4   -4.90   15.20
   0   5   4   34.90   16.30
   0   5  -4   45.70   16.70
   0   5  -4   30.70   15.70
   0   5   4   12.00   25.40
   0   5  -4   47.50   22.60
   0   5   4   21.20   17.30
   0   5  -4   71.89   18.80
  -1  -5  -4   16.90   15.90
  -1  -5  -4   18.50   14.40
  -1  -5  -4   20.70   14.70
  -1  -5  -4   19.90   19.80
   1  -5   4   32.10   14.50
   1  -5   4   13.20   12.80
   1  -5   4   14.80   15.00
   1   5   4   21.60   13.70
   1   5   4   -8.00   20.20
  -1   5  -4   23.10   11.80
  -1   5  -4   22.60   24.30
  -1   5  -4   28.40   17.10
  -1   5  -4    9.80   15.30
  -1   5  -4   35.30   15.50
   1   5   4   39.40   16.40
  -2  -5  -4   12.00   19.70
   2  -5   4    8.80   13.80
   2  -5   4   -7.20   15.20
  -2  -5  -4   -0.60   13.60
  -2  -5  -4   33.70   16.10
  -2  -5  -4   15.30   14.40
  -2   5  -4   -1.30   14.10
  -2   5  -4    4.80    9.20
   2   5   4    9.30   12.30
  -2   5  -4    5.70   14.00
  -2   5  -4  -12.70   22.50
  -2   5  -4   50.59   16.80
  -3  -5  -4  382.66   29.20
   3  -5   4  440.56   29.40
   3  -5   4  421.26   37.00
  -3  -5  -4  378.66   29.30
  -3  -5  -4  476.65   36.30
  -3   5  -4  427.06   25.60
  -3   5  -4  417.16   25.20
  -3   5  -4  443.26   41.30
  -3   5  -4  470.05   31.00
  -3   5  -4  384.26   38.70
   3   5   4  375.76   27.50
  -3   5  -4  428.56   30.90
  -4  -5  -4   54.29   15.30
  -4  -5  -4   78.09   21.40
  -4  -5  -4   78.29   30.80
  -4  -5  -4   46.90   16.10
  -4   5  -4   65.69   26.10
  -4   5  -4   63.99   16.90
  -4   5  -4   18.50   25.40
  -4   5  -4   53.09   17.00
  -4   5  -4  129.59   20.20
  -4   5  -4   54.79   17.70
  -5  -5  -4  107.29   26.00
  -5  -5  -4  117.69   19.80
  -5  -5  -4   71.99   35.60
  -5  -5  -4   88.59   18.10
  -5   5  -4  126.69   36.50
  -5   5  -4   96.59   24.70
  -5   5  -4  114.79   19.30
  -5   5  -4  121.79   33.30
  -5   5  -4   81.99   19.90
  -6  -5  -4    9.50   35.70
  -6  -5  -4    3.60   14.20
  -6  -5  -4   -0.30   14.00
  -6  -5  -4  -15.60   20.60
  -6   5  -4   24.50   17.00
  -6   5  -4   50.09   39.60
  -6   5  -4    8.10   15.30
  -6   5  -4  -18.20   34.10
  -7  -5  -4   -7.60   43.80
  -7  -5  -4  -30.20   43.30
  -7   5  -4   21.90   47.60
  -7   5  -4    0.50   43.80
  -7   5  -4  -12.60   11.30
  -7   5  -4   -5.00   11.70
  -7  -6   4  -11.70   20.00
  -7  -6   4  -41.10   38.90
  -7  -6   4   -9.60   37.70
  -7   6   4    3.40   38.00
  -7   6   4   13.40   22.30
  -7   6   4   22.00   41.50
  -6  -6   4   43.10   38.70
  -6  -6   4   31.50   36.40
  -6  -6   4   56.39   23.20
  -6   6   4   24.70   33.90
  -6   6   4   35.10   32.00
  -6   6   4    9.00   21.40
  -5  -6   4   12.30   25.40
  -5  -6   4    9.70   18.10
  -5   6   4   24.90   20.80
  -5   6   4  -25.90   30.90
  -5   6   4   15.50   29.90
  -5   6   4    3.20   19.10
   4  -6  -4   26.10   17.30
  -4  -6   4    2.80   17.30
   4  -6  -4   -7.40   17.10
  -4  -6   4   12.20   17.70
  -4  -6   4   22.10   24.20
  -4   6   4  -16.70   17.30
  -4   6   4    2.40   24.20
  -4   6   4   27.00   18.00
   4   6  -4   -2.00   16.00
  -4   6   4   -9.20   16.80
  -4   6   4  -24.50   26.60
   3  -6  -4   -3.30   14.50
  -3  -6   4   -1.50   16.00
   3  -6  -4    7.90   15.60
  -3  -6   4   -7.30   15.20
  -3  -6   4  -17.80   19.80
   3  -6  -4   -8.50   21.60
   3   6  -4    2.80   10.20
  -3   6   4    2.90   15.40
  -3   6   4   22.60   23.60
  -3   6   4   -4.80   16.10
  -3   6   4   -1.90   16.80
   3   6  -4    6.80   15.20
  -3   6   4  -13.70   21.30
   2  -6  -4  347.77   39.10
  -2  -6   4  456.65   38.70
  -2  -6   4  406.56   41.20
  -2  -6   4  375.16   33.20
   2  -6  -4  309.67   28.30
   2  -6  -4  334.27   31.70
  -2   6   4  348.07   33.60
   2   6  -4  329.57   26.80
  -2   6   4  320.47   41.60
   2   6  -4  398.46   34.60
  -2   6   4  401.56   38.00
  -2   6   4  384.26   35.20
   2   6  -4  416.96   44.30
   1  -6  -4   72.89   25.30
  -1  -6   4   42.80   20.00
  -1  -6   4   26.40   15.60
   1  -6  -4   43.20   18.20
   1  -6  -4   31.20   16.90
  -1  -6   4   -3.60   15.40
   1  -6  -4   49.60   19.50
   1   6  -4   17.40   16.20
   1   6  -4   32.80   17.60
  -1   6   4   46.00   20.70
   1   6  -4   32.20   17.80
  -1   6   4   20.80   17.90
  -1   6   4   19.20   23.90
  -1   6   4   54.69   20.30
   1   6  -4   14.20   21.10
   0  -6  -4 1104.99   53.09
   0  -6   4 1061.59   52.79
   0  -6  -4 1060.39   52.99
   0  -6  -4 1051.09   55.69
   0  -6   4 1059.89   53.09
   0  -6  -4  996.30   57.79
   0  -6   4 1066.39   52.49
   0  -6   4 1062.49   58.69
   0   6   4 1005.50   66.19
   0   6  -4 1228.78   55.09
   0   6   4 1053.49   57.19
   0   6  -4 1121.59   53.59
   0   6   4 1043.30   51.69
   0   6  -4 1065.69   52.49
   0   6  -4  967.40   61.49
  -1  -6  -4   -2.60   14.20
  -1  -6  -4  -12.80   14.30
   1  -6   4   23.70   12.40
   1  -6   4   16.20   16.30
  -1  -6  -4  -13.90   16.40
   1  -6   4   11.50   16.50
  -1  -6  -4   11.40   21.00
   1   6   4   -0.70   22.10
  -1   6  -4    5.20   11.20
  -1   6  -4   26.30   17.10
  -1   6  -4   15.00   16.50
  -1   6  -4   11.40   22.40
  -1   6  -4    6.70   18.30
   1   6   4    8.80   15.50
   1   6   4    7.20   17.10
   2  -6   4  855.91   50.09
  -2  -6  -4  778.62   50.89
  -2  -6  -4  817.92   44.40
  -2  -6  -4  788.32   43.80
  -2  -6  -4  817.52   49.00
   2  -6   4  872.01   45.30
  -2   6  -4  865.41   51.79
  -2   6  -4  868.01   46.10
  -2   6  -4  775.62   55.99
  -2   6  -4  888.71   46.10
   2   6   4  830.02   43.80
  -3  -6  -4   61.49   20.80
  -3  -6  -4  -14.80   13.50
   3  -6   4   11.60   15.10
  -3  -6  -4   -9.10   12.70
  -3   6  -4   88.79   23.60
   3   6   4   21.60   15.10
  -3   6  -4   -9.80   15.40
  -3   6  -4    0.70   15.70
  -3   6  -4  -21.40   20.50
  -4  -6  -4  168.38   28.70
  -4  -6  -4   78.89   18.60
  -4  -6  -4  109.29   21.70
  -4  -6  -4  137.39   35.30
  -4   6  -4  126.19   31.70
  -4   6  -4   97.79   19.90
  -4   6  -4  102.09   31.90
  -4   6  -4  115.19   15.60
  -4   6  -4  137.19   24.00
  -5  -6  -4  -18.50   13.80
  -5  -6  -4  -30.90   18.80
  -5  -6  -4  -26.70   24.60
  -5  -6  -4    0.70   17.40
  -5   6  -4    2.70   16.30
  -5   6  -4   22.10   29.30
  -5   6  -4   -5.70   31.00
  -5   6  -4  -12.00   19.60
  -6  -6  -4   26.90   33.50
  -6  -6  -4  -32.10   21.70
  -6  -6  -4   -9.60   15.40
  -6   6  -4    6.10   37.60
  -6   6  -4   -5.00   16.10
  -6   6  -4  -23.90   35.90
  -7  -6  -4   11.30   15.50
  -7  -6  -4   59.69   45.30
  -7   6  -4   -7.60   17.60
  -7   6  -4  -35.50   40.90
  -7  -7   4  -35.70   36.10
  -7  -7   4    4.90   22.60
  -7  -7   4   30.00   37.40
  -7   7   4   -7.80   35.40
  -7   7   4   38.50   54.49
  -7   7   4  -52.49   21.50
  -6  -7   4  -16.80   28.50
  -6  -7   4   36.00   23.90
  -6   7   4   -6.60   34.30
  -6   7   4  -39.60   32.20
  -6   7   4    4.70   21.50
  -5  -7   4   54.09   32.40
  -5  -7   4   56.09   23.90
  -5   7   4   87.29   24.70
  -5   7   4   52.89   33.60
  -5   7   4   49.90   37.80
  -4  -7   4   96.89   24.70
  -4  -7   4   87.99   30.30
  -4   7   4   74.99   35.40
  -4   7   4  112.79   24.70
  -4   7   4   96.19   21.30
  -4   7   4   40.10   25.50
  -3  -7   4  349.87   45.00
  -3  -7   4  353.26   34.70
   3  -7  -4  327.67   33.40
   3  -7  -4  329.57   28.70
   3  -7  -4  303.97   38.90
  -3  -7   4  395.36   37.20
   3   7  -4  323.97   42.70
  -3   7   4  326.07   42.90
  -3   7   4  268.37   42.60
  -3   7   4  270.17   32.20
   3   7  -4  300.37   32.30
  -3   7   4  352.26   37.90
   3   7  -4  282.07   24.90
   2  -7  -4  193.28   28.00
   2  -7  -4  216.98   33.40
  -2  -7   4  253.67   30.80
  -2  -7   4  243.08   35.50
   2  -7  -4  182.38   25.30
  -2  -7   4  324.87   33.10
  -2   7   4  173.78   35.20
   2   7  -4  225.18   28.80
   2   7  -4  192.08   25.40
  -2   7   4  243.68   30.70
  -2   7   4  239.08   35.90
  -2   7   4  230.38   30.30
   2   7  -4  240.78   37.70
  -1  -7   4  184.68   26.60
  -1  -7   4  192.28   28.40
   1  -7  -4  151.68   25.10
   1  -7  -4  144.39   25.10
  -1  -7   4  178.78   26.10
   1  -7  -4   95.89   28.60
  -1   7   4  200.88   28.50
  -1   7   4  173.48   33.40
  -1   7   4  187.88   27.80
  -1   7   4  168.48   28.70
   1   7  -4  147.19   30.90
   1   7  -4  184.18   26.80
   0  -7  -4   59.09   20.10
   0  -7  -4   50.09   24.00
   0  -7   4   50.59   17.80
   0  -7   4   26.20   19.60
   0  -7  -4   35.50   20.30
   0   7   4   32.10   25.00
   0   7  -4   22.50   26.80
   0   7  -4   38.40   19.40
   0   7  -4   48.20   17.40
   0   7   4   22.80   21.50
   0   7   4   54.09   21.80
   0   7  -4   56.99   20.40
  -1  -7  -4  -28.90   16.60
  -1  -7  -4  -10.30   16.10
  -1  -7  -4   28.40   19.30
   1  -7   4  -26.00   16.40
   1  -7   4    0.10   19.20
   1  -7   4   -6.60   11.60
  -1   7  -4   -9.60   10.60
   1   7   4   -1.20   14.90
  -1   7  -4  -24.90   16.00
  -1   7  -4   -1.20   23.50
   1   7   4   15.70   19.70
   1   7   4  -15.40   22.30
  -1   7  -4  -15.20   19.10
  -1   7  -4  -10.20   15.00
  -2  -7  -4  -25.60   19.00
   2  -7   4   -3.90    7.00
  -2  -7  -4   17.40   16.90
  -2  -7  -4    1.70   15.60
  -2   7  -4   -7.20   27.40
   2   7   4  -13.80   10.00
  -2   7  -4   -0.30   18.40
  -2   7  -4   17.70   17.20
   2   7   4    1.30   17.90
  -2   7  -4   13.60   22.90
  -3  -7  -4  -16.40   23.70
   3  -7   4   14.60   17.70
  -3  -7  -4   40.10   19.00
  -3  -7  -4   39.20   17.80
  -3  -7  -4   82.49   24.30
  -3   7  -4   35.80   20.50
   3   7   4   12.30   17.30
  -3   7  -4   40.20   25.60
  -3   7  -4    2.10   17.60
  -3   7  -4   15.90   26.70
  -4  -7  -4    7.80   16.90
  -4  -7  -4  -13.30   18.00
  -4  -7  -4   18.80   22.40
  -4  -7  -4   -3.50   23.50
  -4   7  -4  121.09   34.70
  -4   7  -4  -29.80   26.80
  -4   7  -4   12.50   17.70
  -4   7  -4    5.30   22.60
  -5  -7  -4   23.10   31.00
  -5  -7  -4  108.29   30.30
  -5  -7  -4   25.70   18.50
  -5   7  -4   99.99   37.00
  -5   7  -4   23.80   19.70
  -5   7  -4   13.10   34.90
  -6  -7  -4   17.60   18.70
  -6  -7  -4   15.70   39.40
  -6   7  -4   87.29   45.40
  -6   7  -4   27.50   19.90
  -6   7  -4    1.70   36.90
  -7  -8   4  -45.30   37.50
  -7  -8   4  -11.40   33.70
  -7  -8   4  -21.60   23.60
  -7   8   4   26.80   28.20
  -7   8   4   -1.80   36.70
  -7   8   4   76.19   55.89
  -6  -8   4   27.60   32.80
  -6  -8   4  -11.40   23.30
  -6   8   4   15.30   37.20
  -6   8   4  -18.80   22.90
  -6   8   4   17.90   44.70
  -5  -8   4   11.40   32.20
  -5  -8   4  -16.90   21.60
  -5   8   4   11.70   30.30
  -5   8   4   20.80   37.30
  -5   8   4   13.30   24.00
  -4  -8   4   -1.50   24.20
  -4  -8   4  -20.40   18.70
  -4   8   4   -4.90   34.70
  -4   8   4   -8.60   23.60
  -4   8   4  -21.60   22.00
  -3  -8   4   49.30   23.70
   3  -8  -4   56.19   22.60
  -3  -8   4   32.20   22.60
  -3  -8   4   59.69   29.00
   3  -8  -4   73.49   28.40
   3  -8  -4   35.10   17.90
   3   8  -4   48.10   18.30
   3   8  -4   65.59   23.20
  -3   8   4   47.80   23.50
  -3   8   4   21.60   25.60
  -3   8   4   41.40   30.10
   3   8  -4   52.89   30.30
  -3   8   4   39.00   25.80
   2  -8  -4    2.70   25.30
   2  -8  -4   -1.40   18.90
   2  -8  -4   -6.80   17.50
  -2  -8   4   40.60   21.50
  -2  -8   4   -1.20   17.80
  -2  -8   4   19.00   22.70
  -2   8   4    0.80   29.70
   2   8  -4   11.40   18.40
  -2   8   4    2.90   21.20
  -2   8   4  -13.40   20.60
   2   8  -4  -14.90   20.60
  -2   8   4   42.20   20.60
   1  -8  -4  454.35   41.80
   1  -8  -4  383.56   46.40
  -1  -8   4  402.16   39.40
  -1  -8   4  385.66   37.80
  -1  -8   4  398.46   40.90
  -1   8   4  410.96   44.60
   1   8  -4  476.45   42.10
   1   8  -4  387.26   47.80
  -1   8   4  406.76   38.40
  -1   8   4  370.06   50.49
   0  -8  -4  184.28   34.40
   0  -8   4  239.98   32.30
   0  -8  -4  216.68   31.30
   0  -8   4  235.78   28.00
   0  -8  -4  201.08   30.50
   0   8  -4  211.18   39.10
   0   8  -4  247.68   30.90
   0   8   4  182.58   28.00
   0   8  -4  242.28   28.10
   0   8  -4  179.88   28.00
   0   8   4  134.89   34.00
   0   8   4  165.48   31.10
  -1  -8  -4  319.27   38.20
  -1  -8  -4  269.87   31.30
  -1  -8  -4  269.87   32.20
   1  -8   4  296.47   35.20
   1  -8   4  258.57   22.40
   1   8   4  293.07   31.80
  -1   8  -4  325.17   35.40
   1   8   4  201.88   38.80
   1   8   4  329.47   37.00
  -1   8  -4  298.57   38.10
  -1   8  -4  303.17   34.80
  -1   8  -4  260.77   42.90
  -2  -8  -4  136.69   31.10
  -2  -8  -4  100.59   23.50
  -2  -8  -4  157.78   27.30
   2  -8   4  123.19   24.00
  -2   8  -4  101.99   36.40
  -2   8  -4  130.89   26.20
  -2   8  -4  152.58   27.00
   2   8   4  161.18   29.80
  -2   8  -4  169.58   33.90
  -3  -8  -4   93.69   28.30
  -3  -8  -4   70.59   23.00
  -3  -8  -4   41.80   30.20
  -3   8  -4   97.89   36.40
  -3   8  -4   87.59   33.80
  -3   8  -4   31.40   21.50
  -4  -8  -4   39.40   32.00
  -4  -8  -4   54.49   27.10
  -4  -8  -4   24.20   20.80
  -4   8  -4   79.79   37.90
  -4   8  -4   39.40   36.70
  -4   8  -4   65.29   23.70
  -5  -8  -4   17.80   30.60
  -5  -8  -4   14.10   26.40
  -5  -8  -4    3.60   18.40
  -5   8  -4   17.90   35.60
  -5   8  -4    7.00   21.50
  -5   8  -4   81.19   42.90
  -6  -8  -4   16.80   21.80
  -6  -8  -4  -38.90   36.50
  -6   8  -4   -1.90   22.50
  -6   8  -4    1.70   39.30
  -6  -9   4  -50.69   31.80
  -6  -9   4  -25.50   24.40
  -6   9   4  -40.40   34.00
  -6   9   4  -26.20   46.90
  -6   9   4   44.80   29.00
  -5  -9   4   13.80   29.40
  -5  -9   4  -32.90   22.90
  -5   9   4   -4.80   34.20
  -5   9   4   41.50   45.90
  -5   9   4   50.29   27.50
  -4  -9   4  219.48   43.10
  -4  -9   4   70.09   27.40
  -4   9   4   86.29   34.60
  -4   9   4  122.19   30.50
  -4   9   4  123.79   46.20
  -3  -9   4  -10.30   20.70
  -3  -9   4  -19.60   23.70
   3  -9  -4    1.10   25.00
   3   9  -4    3.10   26.10
  -3   9   4  -16.80   24.30
  -3   9   4   12.50   23.60
  -3   9   4   40.90   38.10
   2  -9  -4  266.07   34.10
  -2  -9   4  291.97   39.40
  -2  -9   4  239.58   32.40
   2  -9  -4  219.08   28.50
  -2  -9   4  266.77   35.90
   2  -9  -4  248.58   41.30
   2   9  -4  239.78   33.50
  -2   9   4  265.07   37.80
  -2   9   4  312.77   44.20
  -2   9   4  264.07   34.80
   2   9  -4  218.48   40.40
  -2   9   4  244.18   47.00
  -1  -9   4   43.60   24.00
   1  -9  -4   52.69   25.50
  -1  -9   4   37.40   21.70
   1  -9  -4   30.80   22.20
  -1   9   4   71.49   30.80
  -1   9   4   68.29   24.70
  -1   9   4   49.90   31.00
   1   9  -4   54.99   23.90
   1   9  -4   51.99   30.60
   0  -9   4  113.69   23.80
   0  -9  -4  154.18   28.40
   0  -9  -4  106.59   25.20
   0  -9  -4  116.09   29.30
   0  -9   4   69.29   25.00
   0   9   4  125.59   28.50
   0   9   4  163.28   33.80
   0   9  -4   55.49   29.30
   0   9  -4  115.09   26.90
   0   9   4   98.29   34.40
   1  -9   4   36.70   23.60
  -1  -9  -4   40.20   23.50
  -1  -9  -4   49.20   23.40
   1  -9   4   54.49   15.70
  -1  -9  -4   96.59   29.90
  -1   9  -4   97.59   28.10
  -1   9  -4   69.79   28.70
   1   9   4   94.19   27.80
   1   9   4   36.30   21.00
  -1   9  -4   50.99   24.50
  -1   9  -4   76.59   31.80
  -2  -9  -4   11.20   26.20
  -2  -9  -4   13.60   24.80
  -2  -9  -4  -25.70   18.80
   2   9   4   55.29   26.40
  -2   9  -4  -12.30   30.80
  -2   9  -4    4.50   27.10
  -2   9  -4  -27.20   18.50
  -3  -9  -4    3.90   20.30
  -3  -9  -4   14.40   26.20
  -3  -9  -4   38.90   31.10
  -3   9  -4  -20.60   28.80
  -3   9  -4  -58.49   31.30
  -3   9  -4  -17.00   20.50
  -4  -9  -4  -19.60   27.30
  -4  -9  -4  -10.10   20.20
  -4  -9  -4   34.10   27.50
  -4   9  -4   30.50   35.90
  -4   9  -4    0.60   22.70
  -4   9  -4    6.00   42.20
  -5  -9  -4  -16.70   35.00
  -5  -9  -4    0.30   29.30
  -5  -9  -4   -4.40   19.20
  -5   9  -4   27.40   44.80
  -5   9  -4  -17.20   21.50
  -5   9  -4   39.40   45.90
  -6  -9  -4  -37.10   17.50
  -6  -9  -4   10.00   41.80
  -6   9  -4   -9.70   23.60
  -6   9  -4   82.09   53.39
  -6 -10   4   -0.80   38.90
  -6 -10   4  -27.30   27.40
  -6  10   4   -2.40   48.50
  -6  10   4  -27.80   37.40
  -6  10   4   -3.80   26.90
  -5 -10   4   17.60   28.70
  -5 -10   4   19.30   38.00
  -5  10   4    0.00   26.40
  -5  10   4  -58.69   45.50
  -5  10   4   11.50   34.90
  -4 -10   4   12.00   27.60
  -4 -10   4    4.10   25.20
  -4  10   4    3.80   26.50
  -4  10   4  -11.40   40.70
  -4  10   4  -57.79   32.60
  -3 -10   4  -33.90   22.60
   3 -10  -4    7.60   25.50
  -3 -10   4   11.70   29.20
   3  10  -4   -2.40   28.40
  -3  10   4  -65.39   35.40
  -3  10   4  -39.90   30.80
  -3  10   4   38.80   27.10
   2 -10  -4   26.50   26.30
  -2 -10   4  -29.70   22.00
   2 -10  -4   33.10   23.30
  -2 -10   4  -46.90   21.50
  -2  10   4   31.70   24.20
   2  10  -4  -26.30   29.20
  -2  10   4  -31.20   25.80
  -2  10   4    8.40   34.30
   2  10  -4    1.20   24.00
   1 -10  -4   68.39   31.20
  -1 -10   4   25.80   24.10
  -1 -10   4   45.90   23.70
   1 -10  -4   66.49   26.90
   1  10  -4   18.80   28.40
  -1  10   4   56.99   25.10
   1  10  -4   10.60   25.50
  -1  10   4   47.00   32.70
  -1  10   4   40.60   28.80
   0 -10  -4   -1.10   27.10
   0 -10  -4   15.40   23.40
   0 -10   4   11.80   22.10
   0 -10   4   35.30   22.00
   0  10   4   17.90   29.60
   0  10   4    3.70   29.00
   0  10   4   17.90   23.90
   0  10  -4   24.70   29.40
   0  10  -4    7.10   23.90
   1 -10   4   60.69   17.20
  -1 -10  -4   75.59   31.30
  -1 -10  -4   56.89   25.30
   1 -10   4   72.79   27.80
  -1  10  -4   53.79   33.50
   1  10   4   87.69   28.10
  -1  10  -4  103.39   34.70
   1  10   4   88.19   32.70
  -1  10  -4   22.20   23.50
  -2 -10  -4   32.80   29.60
  -2 -10  -4   33.30   29.30
  -2 -10  -4   42.60   25.30
   2  10   4    0.30   27.40
  -2  10  -4   30.60   33.70
  -2  10  -4   -4.30   29.90
  -2  10  -4   51.59   27.50
  -3 -10  -4   42.80   25.50
  -3 -10  -4   11.20   30.00
  -3 -10  -4   26.10   29.50
  -3  10  -4   40.50   38.20
  -3  10  -4   -4.20   23.20
  -3  10  -4  -11.90   34.40
  -4 -10  -4  -16.00   29.10
  -4 -10  -4   12.80   35.80
  -4 -10  -4    1.30   22.90
  -4  10  -4   19.20   38.20
  -4  10  -4   30.00   25.80
  -4  10  -4  -15.00   43.40
  -5 -10  -4  -24.00   22.00
  -5 -10  -4  -81.39   28.30
  -5  10  -4   -4.00   25.70
  -5  10  -4   40.10   42.30
  -5 -11   4   -6.60   37.80
  -5 -11   4  -27.40   28.90
  -5  11   4   45.20   30.70
  -5  11   4   40.50   42.20
  -5  11   4  -23.90   55.09
  -4 -11   4   45.70   37.00
  -4 -11   4    8.60   29.40
  -4  11   4   20.20   29.60
  -4  11   4   20.40   42.50
  -4  11   4  -47.70   41.10
  -3 -11   4   35.10   27.50
  -3 -11   4  -19.40   30.60
  -3  11   4   56.79   40.20
  -3  11   4  -23.20   25.80
   3  11  -4   26.90   33.70
  -3  11   4  -43.20   39.70
  -2 -11   4   49.30   30.50
   2 -11  -4   40.90   29.30
  -2 -11   4   22.60   28.40
  -2  11   4   -2.20   24.80
  -2  11   4   34.40   40.60
  -2  11   4   -5.60   31.90
   2  11  -4   63.39   37.20
   1 -11  -4  -14.50   24.70
  -1 -11   4    6.20   24.50
   1 -11  -4    5.40   25.40
  -1 -11   4   25.60   26.00
   1  11  -4   12.50   33.40
   1  11  -4   38.60   28.50
  -1  11   4    1.70   23.80
  -1  11   4   48.00   38.70
  -1  11   4   -2.10   33.30
   0 -11  -4    7.70   29.70
   0 -11  -4   -5.30   23.00
   0 -11   4   -1.30   26.30
   0 -11   4  -13.60   20.30
   0  11   4   11.80   26.00
   0  11   4  -20.30   30.40
   0  11   4   20.30   32.40
   0  11  -4    4.00   30.40
   0  11  -4  -15.80   23.90
  -1 -11  -4   18.00   30.90
  -1 -11  -4   42.30   29.20
  -1 -11  -4   15.60   26.50
  -1  11  -4   18.10   32.40
  -1  11  -4   -3.30   25.20
   1  11   4   20.90   31.30
  -1  11  -4   -5.50   32.40
  -2 -11  -4   10.20   30.70
  -2 -11  -4  -10.60   27.70
  -2 -11  -4   29.80   27.30
  -2  11  -4   35.80   36.60
  -2  11  -4  -16.40   39.00
   2  11   4   20.50   30.30
  -2  11  -4   63.79   30.40
  -3 -11  -4   31.60   28.80
  -3 -11  -4   38.00   37.10
  -3 -11  -4  107.29   35.30
  -3  11  -4   28.10   38.20
  -3  11  -4   10.20   40.50
  -3  11  -4   19.00   28.20
  -4 -11  -4   55.59   27.20
  -4 -11  -4    2.00   38.10
  -4 -11  -4   -2.60   33.20
  -4  11  -4    4.10   40.70
  -4  11  -4   -3.70   26.90
  -5 -11  -4   -2.00   39.20
  -5 -11  -4   -7.30   26.00
  -5  11  -4  -56.19   25.10
  -5  11  -4  -33.80   42.30
  -5 -12   4   91.39   49.40
  -5 -12   4   26.30   32.90
  -5  12   4  -15.60   43.10
  -5  12   4   -8.90   31.70
  -5  12   4   20.80   65.29
  -4 -12   4   34.00   36.30
  -4 -12   4  -17.70   29.90
  -4  12   4  -18.50   49.80
  -4  12   4   43.60   45.80
  -4  12   4  -12.70   30.10
  -3 -12   4  -17.10   31.60
  -3 -12   4   56.89   29.70
   3  12  -4   27.00   38.90
  -3  12   4   17.50   30.20
  -3  12   4   -5.10   46.50
  -3  12   4   18.40   42.30
  -2 -12   4   31.00   33.20
  -2 -12   4  154.78   38.50
   2 -12  -4  169.68   41.80
  -2  12   4   79.19   31.80
  -2  12   4   77.89   44.10
   2  12  -4   61.99   41.30
  -2  12   4   38.90   39.20
   1 -12  -4  -11.90   31.00
  -1 -12   4  -11.40   25.80
  -1 -12   4  -16.50   28.60
   1 -12  -4  -36.30   26.30
   1  12  -4   15.90   31.90
  -1  12   4  -36.20   33.70
  -1  12   4   25.10   40.20
   1  12  -4    8.80   36.70
  -1  12   4   14.20   26.90
   0 -12  -4  272.97   41.60
   0 -12  -4  229.98   45.00
   0 -12  -4  229.88   39.50
   0  12  -4  137.49   42.30
   0  12   4  242.18   47.70
   0  12   4  212.78   51.89
   0  12  -4  195.68   40.60
  -1 -12  -4  -38.90   27.10
  -1 -12  -4   31.10   30.80
  -1 -12  -4    1.40   31.70
   1  12   4   42.20   36.00
  -1  12  -4  -15.60   35.00
  -1  12  -4  -29.20   28.70
  -2 -12  -4  104.39   38.30
  -2 -12  -4  115.19   41.20
  -2 -12  -4   90.89   33.60
  -2  12  -4  108.79   42.90
  -2  12  -4   48.60   40.40
  -2  12  -4  121.39   35.00
   2  12   4   43.80   37.40
  -3 -12  -4   20.30   29.60
  -3 -12  -4   30.80   34.20
  -3 -12  -4  -29.90   32.50
  -3  12  -4   -0.20   31.00
  -3  12  -4    0.50   41.30
  -3  12  -4   48.20   47.40
  -4 -12  -4   42.00   39.30
  -4 -12  -4   43.10   30.70
  -4 -12  -4  107.29   49.60
  -4  12  -4  -30.80   43.30
  -4  12  -4   25.60   31.80
  -4 -13   4  -18.50   38.80
  -4 -13   4  -20.20   32.90
  -4  13   4  -28.10   51.89
  -4  13   4  -38.70   47.50
  -4  13   4   24.70   34.40
  -3 -13   4   24.20   39.50
  -3 -13   4   60.89   37.30
  -3  13   4   -9.90   47.10
   3  13  -4   62.79   46.30
  -3  13   4   59.59   37.60
  -3  13   4   55.59   53.89
  -2 -13   4   -6.50   32.20
   2 -13  -4  -10.30   32.70
  -2 -13   4  -20.30   28.10
   2  13  -4  -28.20   32.50
  -2  13   4   70.89   48.40
  -2  13   4   18.60   31.60
  -2  13   4  -39.30   36.30
   1 -13  -4   16.00   37.10
   1  13  -4   10.20   40.10
  -1  13   4    4.80   38.00
  -1  13   4  -38.80   37.60
   0 -13  -4   -2.30   29.30
   0 -13  -4  -26.30   32.00
   0 -13  -4   39.60   31.90
   0  13  -4   46.30   40.30
   0  13   4  -23.10   39.20
   0  13   4  -11.40   35.40
   0  13  -4  -25.00   29.30
  -1 -13  -4  -13.90   32.30
  -1 -13  -4   55.99   34.70
  -1 -13  -4  -60.69   28.40
  -1  13  -4  -25.70   36.00
  -1  13  -4  -16.00   32.90
   1  13   4   40.50   38.50
  -2 -13  -4   53.99   38.20
  -2 -13  -4    0.30   33.90
  -2 -13  -4   -1.10   29.80
  -2  13  -4  -18.70   32.00
  -2  13  -4   34.70   41.80
   2  13   4    0.50   37.00
  -2  13  -4  -17.70   45.80
  -3 -13  -4   43.10   42.00
  -3 -13  -4   68.29   33.30
  -3 -13  -4   43.00   38.00
  -3  13  -4  -49.00   41.20
  -3  13  -4   23.00   35.50
  -4 -13  -4   39.80   45.70
  -4  13  -4    2.60   35.40
  -4  13  -4  -11.30   50.29
  -3 -14   4  -18.40   35.90
  -3 -14   4   82.79   43.00
  -3  14   4   -2.20   55.69
  -3  14   4  -72.79   44.80
  -3  14   4   20.50   38.60
   3  14  -4   46.80   48.40
  -2 -14   4    4.10   39.00
   2  14  -4   45.50   45.90
  -2  14   4   16.10   49.99
  -2  14   4  -94.19   38.10
   1 -14  -4   53.19   36.90
  -1  14   4  -29.00   45.40
   1  14  -4   80.39   48.90
  -1  14   4   84.29   52.49
   0 -14  -4   33.90   40.50
   0  14   4   65.39   42.30
   0  14  -4  -18.20   36.70
  -1 -14  -4   24.20   34.60
  -1 -14  -4   29.80   35.30
  -1 -14  -4  122.99   40.60
  -1  14  -4   93.49   46.30
  -1  14  -4  119.69   44.70
   1  14   4   87.29   45.90
  -2 -14  -4    4.00   35.00
  -2 -14  -4   57.49   39.90
  -2 -14  -4   34.60   40.20
   2  14   4  -40.00   41.10
  -2  14  -4   54.49   36.70
  -2  14  -4   57.29   47.00
  -3 -14  -4   70.19   43.00
  -3 -14  -4   38.50   46.00
  -3  14  -4  -57.59   45.40
   1 -15  -4   63.69   39.00
   1  15  -4  -24.20   45.90
  -1  15   4   23.80   45.60
  -1  15   4  -52.19   47.90
   0 -15  -4   41.70   42.30
   0  15   4   41.60   48.50
   0  15  -4   24.50   47.00
  -1 -15  -4   24.00   35.80
   1  15   4   -0.30   44.50
  -1  15  -4   -8.00   40.70
  -8   0   5    0.20   39.40
  -8   0   5   20.00   21.00
  -8   0   5  -16.00   43.70
  -8   0   5  -15.00   44.90
  -7   0   5   21.00   32.50
  -7   0   5   34.20   34.00
  -6   0   5   -4.00   17.50
  -6   0   5   44.70   28.00
  -6   0   5    8.30   15.70
  -6   0   5  -28.60   23.00
  -5   0   5   34.00   17.20
  -5   0   5   57.59   17.70
  -5   0   5   43.00   28.90
  -5   0   5   87.59   20.00
   5   0  -5   86.59   18.30
  -5   0   5   32.70   24.10
  -4   0   5   -2.20   11.40
  -4   0   5   -0.20   18.50
  -4   0   5   22.00   15.10
  -4   0   5    4.90   13.10
  -4   0   5    7.10   20.10
   4   0  -5    7.30   13.70
  -3   0   5  643.84   35.10
  -3   0   5  685.83   45.40
  -3   0   5  669.93   36.30
  -3   0   5  683.33   33.60
   3   0  -5  637.14   35.10
  -3   0   5  659.03   47.10
   2   0  -5   -5.70   11.00
  -2   0   5  -22.70   17.50
  -2   0   5   -8.00   15.80
   2   0  -5   -4.90   12.20
   2   0  -5   -9.00   11.60
   2   0  -5   26.70   18.90
   2   0  -5   -4.50   16.70
  -2   0   5   -4.40   11.90
  -2   0   5   -7.30   12.20
  -2   0   5   -9.90    9.30
  -1   0   5  889.81   41.00
   1   0  -5  902.51   47.50
   1   0  -5  783.52   38.40
  -1   0   5  846.32   39.30
   1   0  -5  870.71   40.30
  -1   0   5  872.31   38.80
  -1   0   5  828.22   46.30
   1   0  -5  836.82   39.10
  -1   0   5  876.61   46.40
   1   0  -5  909.61   46.10
   0   0   5   -8.20   13.20
   0   0   5    4.40   11.20
   0   0   5  -29.50   15.40
   0   0   5   20.30   11.70
   0   0  -5    3.30   10.90
   0   0  -5    0.10    9.40
   0   0  -5   -7.20   11.00
   0   0  -5    1.90   15.70
   0   0   5   10.30   10.40
   0   0  -5   12.80   12.30
   0   0   5   -1.60   10.70
   0   0  -5   11.00   12.90
  -1   0  -5  319.77   21.20
   1   0   5  343.57   20.70
   1   0   5  327.57   21.40
   1   0   5  353.66   29.30
  -1   0  -5  356.36   29.90
  -1   0  -5  326.87   27.80
   1   0   5  345.97   20.60
  -1   0  -5  347.17   21.00
  -1   0  -5  400.46   24.00
  -2   0  -5    1.80    8.50
  -2   0  -5    5.60   12.30
  -2   0  -5    1.70    8.80
  -2   0  -5  -12.60   17.20
  -3   0  -5   92.59    9.70
  -3   0  -5  106.99   24.80
  -3   0  -5   36.20   17.40
  -3   0  -5   76.89    9.40
  -4   0  -5  -54.49   17.40
  -4   0  -5  -27.60   14.00
  -4   0  -5   25.00   19.60
  -5   0  -5   12.30   23.40
  -5   0  -5  -13.10   20.20
  -5   0  -5  -39.40   20.20
  -5   0  -5  -16.10   22.90
  -6   0  -5  -43.50   23.70
  -6   0  -5    7.30   24.90
  -6   0  -5    8.70   27.20
  -6   0  -5    0.30   29.30
  -7   0  -5  -17.10   31.30
  -7   0  -5  -30.70   33.70
  -7   0  -5   49.60   39.00
  -7   0  -5  -36.60   29.10
  -8  -1   5   84.69   47.20
  -8  -1   5    7.50   39.40
  -8   1   5  -32.90   17.70
  -8   1   5   -5.10   46.10
  -8   1   5  -42.60   33.70
  -8   1   5   31.00   39.30
  -7  -1   5   -4.40   17.10
  -7  -1   5   13.60   31.50
  -7  -1   5   -8.70   31.40
  -7   1   5    6.80   33.50
  -7   1   5  -18.50   36.00
  -7   1   5   38.80   33.10
  -7   1   5   -2.50   17.80
  -6  -1   5   11.50   30.60
  -6  -1   5   25.70   28.00
  -6  -1   5   31.60   20.40
  -6  -1   5    1.10   15.60
  -6   1   5   69.89   29.20
  -6   1   5   32.70   30.60
  -6   1   5   31.90   19.90
  -5  -1   5   44.00   29.60
  -5  -1   5   -5.60   23.50
  -5  -1   5   -1.40   12.60
   5  -1  -5   12.20   15.30
  -5  -1   5   50.49   17.80
  -5  -1   5    2.60   14.70
   5   1  -5   31.20   15.90
  -5   1   5   26.60   17.10
  -5   1   5   14.60   26.60
  -5   1   5   22.20   15.30
  -5   1   5   68.09   24.70
  -4  -1   5  117.99   27.50
   4  -1  -5   76.09   17.30
  -4  -1   5   94.79   12.90
  -4  -1   5   84.39   17.80
  -4  -1   5   86.99   28.00
  -4  -1   5   91.39   17.40
  -4   1   5   99.99   24.20
  -4   1   5   94.39   18.60
  -4   1   5   87.39   18.60
  -4   1   5   74.69   25.90
  -4   1   5   68.49   16.60
   4   1  -5  108.89   18.80
  -3  -1   5    8.10   13.10
  -3  -1   5   62.89   21.70
  -3  -1   5   27.20   13.50
   3  -1  -5   50.29   14.20
  -3  -1   5   35.80    8.90
  -3  -1   5   45.20   21.10
   3  -1  -5   20.70   15.10
   3   1  -5   36.60   13.60
  -3   1   5   35.20   23.00
  -3   1   5   40.90   14.60
  -3   1   5   44.20   19.90
  -3   1   5   37.60   15.50
  -3   1   5   22.30   13.80
  -2  -1   5   12.40   17.40
   2  -1  -5    1.50   12.20
   2  -1  -5   -7.60   18.20
  -2  -1   5    5.00   12.60
   2  -1  -5    9.70   14.10
  -2  -1   5   12.00   12.70
  -2  -1   5   15.50    7.90
   2  -1  -5   -9.90   12.20
  -2  -1   5    7.80   18.20
   2  -1  -5    7.10   15.60
  -2   1   5   -3.10   13.40
  -2   1   5   -2.20   12.20
   2   1  -5   10.80   13.20
  -2   1   5   10.80   19.70
  -2   1   5   16.70   12.40
   2   1  -5   24.90    9.60
   2   1  -5   10.30   16.70
   2   1  -5    6.40   16.60
   2   1  -5   18.60   12.70
  -2   1   5   26.50   16.40
   1  -1  -5    4.10   13.70
   1  -1  -5    7.30   12.70
  -1  -1   5    0.60   11.50
  -1  -1   5    7.20   17.10
  -1  -1   5    5.20    9.80
  -1  -1   5   -8.10   12.10
   1  -1  -5   17.50   15.80
   1  -1  -5    6.60   14.30
  -1  -1   5   14.30   12.30
   1  -1  -5    8.20   11.70
  -1  -1   5    2.90   14.90
  -1   1   5   -9.70   12.20
   1   1  -5   -0.50   12.00
   1   1  -5    5.00   13.50
   1   1  -5    9.40   10.90
  -1   1   5   -0.10   16.10
  -1   1   5    2.90   14.60
   1   1  -5   -2.00   16.00
  -1   1   5   22.30   14.20
  -1   1   5   14.40   12.90
   1   1  -5   -6.30   13.40
   0  -1   5  726.73   34.10
   0  -1  -5  690.73   34.00
   0  -1   5  768.92   41.40
   0  -1  -5  666.03   38.60
   0  -1   5  778.32   33.90
   0  -1   5  776.72   34.20
   0  -1  -5  712.43   40.50
   0  -1   5  737.63   37.60
   0  -1  -5  731.23   40.20
   0  -1  -5  793.02   35.70
   0   1  -5  694.93   33.30
   0   1  -5  785.02   38.20
   0   1   5  766.02   34.60
   0   1   5  791.72   42.00
   0   1   5  730.13   41.30
   0   1  -5  735.43   40.40
   0   1  -5  710.03   35.10
   0   1   5  726.33   34.10
   0   1   5  702.43   39.80
   0   1   5  738.83   31.30
   0   1  -5  698.03   37.70
   0   1  -5  708.23   34.50
   1  -1   5   29.20   10.60
  -1  -1  -5    5.90    7.80
   1  -1   5    2.50    9.40
  -1  -1  -5    8.60   10.90
   1  -1   5   19.40   12.10
  -1  -1  -5   15.30   10.40
  -1  -1  -5    1.10   14.70
  -1   1  -5   18.50   11.30
   1   1   5  -17.10   13.30
  -1   1  -5   -1.80   15.20
   1   1   5   20.20   10.60
  -1   1  -5   31.00    8.60
  -1   1  -5    7.60   10.30
   1   1   5   10.10    9.50
  -1   1  -5   15.40   14.80
  -2  -1  -5  542.25   39.60
  -2  -1  -5  629.74   33.00
  -2  -1  -5  606.54   27.40
   2  -1   5  531.25   34.70
  -2  -1  -5  579.54   26.80
   2  -1   5  559.64   24.90
  -2   1  -5  563.84   27.40
  -2   1  -5  524.75   33.50
  -2   1  -5  558.04   41.00
   2   1   5  565.54   25.30
  -2   1  -5  582.84   27.30
  -2   1  -5  595.94   34.50
  -3  -1  -5   70.69   10.10
  -3  -1  -5   83.39   24.10
  -3  -1  -5   79.49   10.30
  -3  -1  -5  106.79   19.30
  -3   1  -5   67.99   24.00
  -3   1  -5   65.99   10.00
  -3   1  -5   62.79   10.40
  -3   1  -5   39.20   16.20
  -3   1  -5  106.09   21.10
  -4  -1  -5  199.28   28.80
  -4  -1  -5  201.68   31.60
  -4   1  -5  165.78   31.70
  -4   1  -5  231.78   33.50
  -4   1  -5  174.88   29.50
  -5  -1  -5  -29.70   21.80
  -5  -1  -5  -23.00   19.00
  -5  -1  -5  -15.50   23.00
  -5  -1  -5  -20.70   19.20
  -5   1  -5   22.60   25.50
  -5   1  -5  -40.30   20.50
  -5   1  -5   44.00   25.20
  -5   1  -5    6.70   23.10
  -6  -1  -5   18.30   28.30
  -6  -1  -5  -25.90   30.60
  -6  -1  -5  -12.20   27.80
  -6  -1  -5    5.10   22.50
  -6   1  -5  -28.40   28.30
  -6   1  -5    9.50   28.30
  -6   1  -5   11.90   25.90
  -6   1  -5   -9.20   27.00
  -7  -1  -5    2.60   28.00
  -7  -1  -5  -29.00   28.90
  -7  -1  -5  -40.10   33.90
  -7  -1  -5    2.80   31.10
  -7   1  -5   -3.40   32.40
  -7   1  -5  -40.30   32.10
  -7   1  -5  -42.60   29.10
  -7   1  -5  -54.19   34.10
  -8  -2   5   -2.40   44.70
  -8  -2   5   10.90   45.20
  -8  -2   5   -8.80   18.40
  -8   2   5   23.20   44.90
  -8   2   5   79.39   39.40
  -8   2   5    4.80   20.90
  -8   2   5    5.00   46.40
  -7  -2   5   19.30   32.50
  -7  -2   5  -33.10   34.20
  -7  -2   5   11.10   18.40
  -7   2   5   22.40   18.30
  -7   2   5   13.60   38.80
  -7   2   5   97.09   35.80
  -7   2   5   61.79   41.50
  -6  -2   5   35.50   32.80
  -6  -2   5    9.40   16.40
  -6  -2   5    5.00   27.10
  -6  -2   5   -3.00   19.80
  -6   2   5   -3.00   20.20
  -6   2   5   44.00   26.60
  -6   2   5    1.60   27.30
  -6   2   5  -31.10   26.60
  -6   2   5    2.50   16.80
   5  -2  -5   10.50   15.00
  -5  -2   5   27.20   25.90
  -5  -2   5   -6.90   16.20
  -5  -2   5    4.40   23.40
  -5  -2   5   -9.70   14.40
  -5  -2   5   22.40    9.10
  -5   2   5    9.80   24.30
  -5   2   5   43.30   22.80
  -5   2   5  -13.30   14.40
  -5   2   5  -11.30   14.50
  -5   2   5   43.70   26.40
   5   2  -5   -1.60   14.90
  -4  -2   5   81.89   30.50
  -4  -2   5  124.19   20.20
  -4  -2   5  134.29   28.70
  -4  -2   5   89.69   18.30
   4  -2  -5  150.78   20.80
  -4   2   5   46.70   27.00
   4   2  -5  128.89   20.10
  -4   2   5  179.58   28.00
  -4   2   5  115.99   20.30
   3  -2  -5   91.89   20.50
  -3  -2   5   54.19   22.20
  -3  -2   5   80.59   23.60
  -3  -2   5  134.89   19.70
  -3  -2   5  103.59   19.20
  -3   2   5   94.39   18.20
  -3   2   5   76.09   25.70
  -3   2   5  115.39   21.10
  -3   2   5   75.89   20.90
  -2  -2   5  579.34   42.00
   2  -2  -5  624.84   37.40
   2  -2  -5  619.94   33.90
   2  -2  -5  649.64   48.00
   2  -2  -5  590.24   33.30
  -2  -2   5  619.84   34.80
   2  -2  -5  640.44   39.50
  -2  -2   5  617.24   34.60
  -2  -2   5  590.94   41.90
  -2  -2   5  590.94   40.40
  -2   2   5  691.03   46.80
   2   2  -5  581.44   34.90
   2   2  -5  582.34   26.30
  -2   2   5  665.83   37.40
   2   2  -5  641.94   35.30
  -2   2   5  660.23   39.10
  -2   2   5  701.23   35.90
   1  -2  -5 1029.80   46.50
   1  -2  -5 1003.60   51.79
  -1  -2   5  984.50   51.29
  -1  -2   5 1053.09   46.50
  -1  -2   5 1034.80   50.59
   1  -2  -5  978.50   50.49
  -1  -2   5  990.50   45.40
   1  -2  -5 1039.30   46.00
  -1  -2   5  976.80   51.09
   1  -2  -5  954.90   54.19
  -1   2   5  970.00   44.40
   1   2  -5  974.80   44.70
   1   2  -5  983.40   51.29
   1   2  -5 1074.29   45.50
  -1   2   5 1019.10   56.39
  -1   2   5 1040.20   52.59
  -1   2   5 1020.40   45.40
  -1   2   5 1062.29   49.80
   1   2  -5 1010.50   44.80
   1   2  -5 1036.20   53.29
   0  -2   5  421.26   21.60
   0  -2  -5  428.06   33.00
   0  -2  -5  420.66   25.80
   0  -2   5  448.16   31.90
   0  -2  -5  445.66   32.40
   0  -2   5  459.65   30.90
   0  -2  -5  460.25   28.20
   0  -2   5  438.16   26.20
   0  -2   5  414.86   27.50
   0  -2  -5  420.96   33.30
   0   2  -5  432.96   30.10
   0   2  -5  469.75   28.20
   0   2  -5  479.85   32.20
   0   2   5  430.76   28.00
   0   2   5  414.66   26.70
   0   2   5  427.56   30.20
   0   2  -5  412.26   27.60
   0   2   5  447.76   20.20
   0   2   5  456.35   35.00
   1  -2   5  116.59   15.30
  -1  -2  -5  130.09   15.80
  -1  -2  -5  129.29   23.10
  -1  -2  -5  124.79   16.00
  -1  -2  -5  105.69    9.50
   1  -2   5  112.89   14.80
  -1  -2  -5  126.59   22.30
   1  -2   5  113.59   20.30
  -1   2  -5  179.08   22.00
   1   2   5   92.39   19.60
   1   2   5  120.89   15.40
  -1   2  -5  107.59   18.30
  -1   2  -5  103.59   15.50
   1   2   5  115.09   15.00
  -1   2  -5  117.09   15.70
  -2  -2  -5  173.98   26.80
  -2  -2  -5  206.58   17.80
   2  -2   5  210.78   16.50
   2  -2   5  177.38   25.00
  -2  -2  -5  121.59   25.00
  -2   2  -5  196.98   24.80
   2   2   5  198.88   16.40
  -2   2  -5  182.18   17.30
  -2   2  -5  223.98   21.10
  -2   2  -5  214.98   24.00
  -2   2  -5  210.88   18.10
  -3  -2  -5   38.60   18.30
  -3  -2  -5   23.80   10.10
  -3  -2  -5   36.10   10.00
  -3   2  -5   36.50   10.70
  -3   2  -5   42.00   10.70
  -3   2  -5   37.70   17.80
  -3   2  -5   32.00   18.00
  -4  -2  -5    1.80    7.30
  -4  -2  -5   14.10   17.60
  -4  -2  -5    4.50    6.70
  -4  -2  -5   40.30   19.20
  -4   2  -5    7.10    8.40
  -4   2  -5   12.70   19.10
  -4   2  -5  -12.40   15.10
  -4   2  -5   -4.20    8.40
  -5  -2  -5  -36.20   22.90
  -5  -2  -5   -5.50   21.50
  -5  -2  -5  -23.60   15.80
  -5   2  -5   -0.20   21.30
  -5   2  -5   -6.50   24.80
  -5   2  -5   30.90   24.90
  -5   2  -5  -26.70   23.90
  -6  -2  -5  -12.10   21.50
  -6  -2  -5  -70.89   26.50
  -6  -2  -5  -28.80   21.30
  -6  -2  -5  -19.70   28.70
  -6   2  -5  -39.80   24.80
  -6   2  -5    1.60   29.20
  -6   2  -5   22.10   29.90
  -6   2  -5  -48.30   27.90
  -7  -2  -5  -42.90   37.50
  -7  -2  -5  -34.70   30.70
  -7  -2  -5    8.40   28.40
  -7  -2  -5  -37.10   32.70
  -7   2  -5   19.40   39.70
  -7   2  -5  -41.00   31.50
  -7   2  -5  -36.90   38.60
  -8  -3   5  -25.60   20.60
  -8  -3   5   11.60   48.20
  -8  -3   5  -15.10   42.30
  -8   3   5   -4.10   38.20
  -8   3   5   -1.90   23.00
  -8   3   5   12.90   41.80
  -7  -3   5  -18.10   35.40
  -7  -3   5   21.50   37.00
  -7  -3   5   -1.30   17.90
  -7   3   5   17.50   37.10
  -7   3   5   60.39   33.20
  -7   3   5   18.80   35.20
  -7   3   5   44.40   22.10
  -6  -3   5   23.00   17.30
  -6  -3   5    3.20   28.60
  -6  -3   5   -2.00   29.00
  -6   3   5   64.69   27.40
  -6   3   5   32.10   30.10
  -6   3   5   32.30   17.70
  -6   3   5    2.90   31.40
  -5  -3   5  180.18   26.20
  -5  -3   5  155.08   34.00
  -5  -3   5  199.38   25.00
  -5  -3   5  197.68   41.70
   5  -3  -5  167.18   23.80
  -5   3   5  141.19   24.70
  -5   3   5  154.08   23.40
  -5   3   5  190.98   31.30
   5   3  -5  162.08   23.10
  -5   3   5  198.68   40.70
  -5   3   5  170.18   35.80
  -4  -3   5   17.10   23.00
  -4  -3   5   29.70   16.50
  -4  -3   5   19.00   15.60
  -4  -3   5   15.30   22.60
   4  -3  -5   82.79   18.20
  -4   3   5  103.19   23.30
  -4   3   5   15.80   16.70
  -4   3   5   54.49   26.70
  -4   3   5   29.30   16.30
  -4   3   5   69.69   25.30
   4   3  -5   17.50   14.90
  -3  -3   5  203.98   24.20
  -3  -3   5  142.29   27.80
  -3  -3   5  159.58   30.00
   3  -3  -5  183.08   27.00
   3  -3  -5  174.98   26.80
  -3  -3   5  131.39   21.20
  -3   3   5  181.08   24.10
  -3   3   5  198.18   31.50
  -3   3   5  182.88   23.70
  -3   3   5  214.08   26.60
  -3   3   5  157.38   31.40
   2  -3  -5    1.20   14.40
  -2  -3   5    3.10   20.20
   2  -3  -5   -4.60   16.90
   2  -3  -5    6.10   15.30
  -2  -3   5  -12.70   13.30
   2  -3  -5  -18.40   16.70
  -2  -3   5    0.50   15.10
  -2   3   5   19.40   16.70
  -2   3   5   -5.50   16.90
  -2   3   5   13.00   14.60
  -2   3   5    4.30   19.10
   2   3  -5    5.70   15.60
  -2   3   5   -3.50   15.80
   2   3  -5   -5.20   13.30
  -2   3   5   17.40   14.90
   2   3  -5    5.50    6.60
   1  -3  -5   62.19   16.40
  -1  -3   5   50.89   18.40
  -1  -3   5   35.60   19.10
   1  -3  -5   54.59   22.20
  -1  -3   5   62.79   16.60
   1  -3  -5   72.79   19.00
  -1  -3   5   60.39   16.10
   1  -3  -5   47.30   18.10
  -1   3   5   75.99   18.60
   1   3  -5   56.79   17.20
  -1   3   5   72.09   18.70
  -1   3   5   72.39   20.40
   1   3  -5   48.90   17.00
   1   3  -5   39.80   17.10
   1   3  -5   60.59   19.30
  -1   3   5   50.09   14.80
  -1   3   5   81.69   24.20
  -1   3   5   58.69   17.10
   0  -3  -5   46.80   20.70
   0  -3   5   21.40   14.00
   0  -3  -5   22.30   14.30
   0  -3   5   34.40   14.00
   0  -3   5   35.50   16.40
   0  -3  -5   40.70   18.30
   0  -3   5   22.40   18.60
   0  -3  -5   51.19   20.50
   0  -3   5   30.60   10.80
   0  -3  -5    7.20   13.50
   0  -3  -5   37.70    9.70
   0   3   5   38.20   22.30
   0   3   5   -2.30   14.90
   0   3   5   34.40   10.20
   0   3  -5    7.50   17.00
   0   3   5   13.70   13.70
   0   3   5    8.00   12.40
   0   3  -5   34.50   16.10
   0   3  -5   17.80   13.30
   0   3  -5   15.40   14.80
   1  -3   5  800.52   35.90
   1  -3   5  775.72   37.00
  -1  -3  -5  816.32   39.10
  -1  -3  -5  825.42   38.60
  -1  -3  -5  767.42   49.00
   1  -3   5  832.92   46.40
  -1  -3  -5  774.72   34.90
  -1  -3  -5  839.92   47.00
   1  -3   5  790.02   41.60
  -1   3  -5  818.92   39.60
   1   3   5  818.32   38.00
  -1   3  -5  753.62   37.90
   1   3   5  803.12   51.39
  -1   3  -5  844.72   36.20
  -1   3  -5  792.72   48.00
  -1   3  -5  784.52   41.30
  -2  -3  -5   -9.10   11.00
  -2  -3  -5   22.50   11.30
  -2  -3  -5   -8.70   10.50
  -2  -3  -5   11.40   16.00
   2  -3   5   10.10   11.00
  -2   3  -5    2.20   11.40
   2   3   5    7.50   10.80
  -2   3  -5  -24.40   12.00
  -2   3  -5   -3.70   11.30
  -2   3  -5  -26.10   10.50
  -2   3  -5    1.10   18.60
  -3  -3  -5  262.27   20.60
  -3  -3  -5  285.27   32.20
   3  -3   5  287.97   18.90
  -3  -3  -5  268.77   21.40
   3   3   5  268.97   18.40
  -3   3  -5  264.97   33.10
  -3   3  -5  288.47   22.40
  -3   3  -5  263.97   21.90
  -3   3  -5  307.67   31.20
  -4  -3  -5   -2.60   15.40
  -4  -3  -5    9.40    9.50
  -4   3  -5   31.40   21.30
  -4   3  -5   16.00   11.40
  -4   3  -5   11.10   11.00
  -4   3  -5   57.79   20.50
  -4   3  -5  -27.20   19.90
  -5  -3  -5  -13.70   29.80
  -5  -3  -5    2.40   18.60
  -5  -3  -5    7.90    8.70
  -5  -3  -5   -8.70    6.80
  -5   3  -5   18.60   25.30
  -5   3  -5    9.70   10.40
  -5   3  -5   28.70   28.80
  -5   3  -5   13.80   10.30
  -5   3  -5  -33.90   21.90
  -6  -3  -5  -11.50   20.80
  -6  -3  -5  -36.50   26.00
  -6  -3  -5   -6.70   32.50
  -6  -3  -5  -77.39   31.20
  -6   3  -5   20.00   30.40
  -6   3  -5  -11.50   32.00
  -6   3  -5   17.20   33.60
  -6   3  -5  -43.10   28.00
  -7  -3  -5  -17.80   33.40
  -7  -3  -5  -89.29   35.50
  -7  -3  -5  -28.40   35.60
  -7  -3  -5    4.40   28.50
  -7   3  -5   76.29   45.10
  -7   3  -5  -70.59   32.10
  -7   3  -5  -39.50   37.10
  -8  -4   5  -72.49   41.60
  -8  -4   5   69.99   49.30
  -8  -4   5   33.10   22.20
  -8   4   5  -23.40   46.00
  -8   4   5  -41.00   36.40
  -8   4   5    8.20   22.00
  -7  -4   5   37.40   33.90
  -7  -4   5    1.60   18.00
  -7  -4   5   25.00   40.50
  -7   4   5   18.80   41.50
  -7   4   5   80.29   36.20
  -7   4   5   -4.30   33.50
  -7   4   5  -25.20   20.00
  -6  -4   5    9.90   32.20
  -6  -4   5   32.50   35.10
  -6  -4   5   -2.50   17.70
  -6   4   5    0.70   33.30
  -6   4   5   32.00   31.30
  -6   4   5    4.80   18.30
  -6   4   5   44.00   27.90
  -5  -4   5   28.80   28.50
  -5  -4   5   21.30   19.40
  -5  -4   5   39.20   30.30
  -5  -4   5   22.10   17.50
  -5   4   5   18.00   29.60
  -5   4   5   47.40   31.40
  -5   4   5   65.19   22.70
  -5   4   5    3.90   19.10
  -5   4   5    9.60   16.70
   4  -4  -5  105.99   20.60
  -4  -4   5  110.09   31.10
  -4  -4   5  200.38   35.70
  -4  -4   5  172.98   24.90
  -4  -4   5  111.49   21.50
  -4   4   5  139.79   24.20
  -4   4   5  127.09   30.50
  -4   4   5  152.58   25.80
  -4   4   5  137.79   35.60
  -4   4   5  100.19   21.80
   4   4  -5  133.29   22.60
  -3  -4   5   57.09   17.60
   3  -4  -5   59.39   20.70
   3  -4  -5    0.10   12.90
  -3  -4   5   72.49   18.60
   3  -4  -5   58.89   21.10
  -3  -4   5   87.19   25.70
  -3   4   5   77.39   20.50
  -3   4   5   71.89   19.20
  -3   4   5   85.69   19.90
  -3   4   5   70.09   25.00
   3   4  -5    9.40   10.50
  -3   4   5   39.30   25.90
  -2  -4   5  915.51   54.49
   2  -4  -5  787.62   43.60
  -2  -4   5  905.51   46.30
   2  -4  -5  843.12   48.00
   2  -4  -5  856.01   50.29
  -2  -4   5  964.90   46.50
  -2   4   5  881.51   44.70
   2   4  -5  823.52   53.39
   2   4  -5  915.91   38.90
  -2   4   5  950.40   46.80
  -2   4   5  843.42   56.39
  -2   4   5  932.31   49.40
   2   4  -5  892.41   45.20
  -2   4   5  921.51   50.39
   1  -4  -5  763.42   46.10
   1  -4  -5  766.52   43.10
   1  -4  -5  699.93   40.60
  -1  -4   5  820.92   46.50
   1  -4  -5  721.03   44.80
   1  -4  -5  878.21   43.10
  -1  -4   5  801.62   41.60
  -1  -4   5  857.91   42.50
  -1   4   5  838.92   42.40
   1   4  -5  809.02   42.40
  -1   4   5  745.73   41.10
   1   4  -5  786.32   42.40
  -1   4   5  851.71   43.60
  -1   4   5  809.02   53.09
   1   4  -5  742.53   50.19
   1   4  -5  829.02   46.60
   0  -4  -5 1414.56   59.39
   0  -4  -5 1316.87   66.39
   0  -4   5 1394.36   63.99
   0  -4   5 1400.26   59.29
   0  -4  -5 1370.86   67.19
   0  -4   5 1449.85   59.89
   0  -4   5 1411.16   63.79
   0  -4  -5 1433.56   60.09
   0  -4  -5 1329.57   58.89
   0   4  -5 1276.97   68.29
   0   4   5 1425.26   60.59
   0   4  -5 1388.06   59.59
   0   4   5 1270.27   57.49
   0   4  -5 1392.26   64.59
   0   4   5 1394.36   58.69
   0   4   5 1338.37   75.19
   0   4  -5 1451.55   60.09
  -1  -4  -5   10.70   13.40
  -1  -4  -5   19.70   11.70
  -1  -4  -5   19.90   14.90
   1  -4   5   -3.10    3.80
   1  -4   5    7.80   14.00
  -1  -4  -5   -2.70   18.00
   1  -4   5   35.20   11.00
  -1   4  -5   11.50   19.20
  -1   4  -5   19.20   11.50
   1   4   5   -1.70    4.80
  -1   4  -5    0.10   13.30
  -1   4  -5   17.70   14.70
   1   4   5   -6.20   19.80
   1   4   5    0.00   10.50
  -1   4  -5    1.90   13.50
  -2  -4  -5   73.89   15.50
   2  -4   5  123.19   17.00
  -2  -4  -5   72.79   15.80
   2  -4   5   90.19   16.10
  -2  -4  -5   67.49   20.10
  -2  -4  -5   85.99   17.30
  -2   4  -5   52.39   14.70
  -2   4  -5   75.29   15.80
   2   4   5   82.59   16.20
  -2   4  -5   20.60   13.90
  -2   4  -5  110.59   26.20
  -2   4  -5   77.19   17.10
  -3  -4  -5   78.69   15.70
   3  -4   5  102.89   15.40
  -3  -4  -5  112.69   19.90
  -3  -4  -5  122.79   24.00
  -3  -4  -5   77.49   15.80
  -3   4  -5   69.99   15.60
  -3   4  -5   61.59   20.30
  -3   4  -5   96.89   16.80
  -3   4  -5  129.39   19.50
   3   4   5   71.09   14.10
  -3   4  -5   62.99   24.20
  -4  -4  -5   40.00   18.60
  -4  -4  -5   -9.60   10.60
  -4  -4  -5  -14.20   11.60
  -4   4  -5   29.90   15.10
  -4   4  -5   13.70   13.80
  -4   4  -5   21.90   19.00
  -4   4  -5   26.50   27.00
  -4   4  -5   -5.60   19.70
  -5  -4  -5   -3.30   26.00
  -5  -4  -5   -7.40   11.70
  -5  -4  -5   26.40   19.70
  -5  -4  -5   -1.70   11.30
  -5   4  -5  -54.39   23.30
  -5   4  -5   24.10   13.60
  -5   4  -5   21.50   23.60
  -5   4  -5    0.20   13.60
  -5   4  -5   -5.00   29.50
  -6  -4  -5   15.90    7.10
  -6  -4  -5   -1.20   30.70
  -6  -4  -5   -5.50   21.30
  -6  -4  -5   -1.70    7.90
  -6   4  -5  -38.90   30.50
  -6   4  -5   14.60   11.90
  -6   4  -5   16.40   36.60
  -6   4  -5   15.80   10.80
  -7  -4  -5  -39.30   28.70
  -7  -4  -5   62.59   49.70
  -7  -4  -5  -99.59   40.60
  -7   4  -5   24.20   46.40
  -7   4  -5  -84.79   31.80
  -7  -5   5  -28.20   36.60
  -7  -5   5  -16.10   19.80
  -7  -5   5   36.40   36.80
  -7   5   5    2.30   33.00
  -7   5   5   19.30   39.20
  -7   5   5    1.70   21.50
  -6  -5   5   -8.30   28.50
  -6  -5   5   45.70   22.20
  -6  -5   5   87.59   35.50
  -6   5   5   68.69   29.60
  -6   5   5   16.40   32.50
  -6   5   5   18.60   31.70
  -6   5   5   64.49   24.00
  -5  -5   5   12.50   27.00
  -5  -5   5   69.39   35.20
  -5  -5   5   73.29   21.50
  -5   5   5   79.19   25.00
  -5   5   5   46.20   20.70
  -5   5   5   11.50   26.20
  -5   5   5   12.50   26.70
  -4  -5   5   47.90   19.90
  -4  -5   5   40.60   17.80
  -4  -5   5   51.89   28.50
   4  -5  -5   36.60   18.30
   4   5  -5   95.29   19.80
  -4   5   5   54.49   19.80
  -4   5   5   41.90   19.60
  -4   5   5   68.19   30.40
  -4   5   5   45.80   21.00
  -4   5   5   71.19   26.80
   3  -5  -5   86.19   22.30
   3  -5  -5  123.49   22.70
  -3  -5   5  115.59   22.90
  -3  -5   5  102.19   22.50
  -3  -5   5  116.99   26.80
   3  -5  -5   76.09   25.80
  -3   5   5   89.09   28.80
   3   5  -5  123.39   21.60
  -3   5   5  124.29   23.20
  -3   5   5   82.39   21.80
  -3   5   5  109.99   22.70
  -3   5   5   84.09   27.60
  -2  -5   5   -6.20   16.50
  -2  -5   5  -13.00   16.20
   2  -5  -5    8.60   16.80
  -2  -5   5   35.70   16.70
   2  -5  -5    9.70   21.50
   2  -5  -5   -9.60   15.20
  -2   5   5    4.00   16.50
  -2   5   5   -3.00   15.80
  -2   5   5   10.60   23.90
   2   5  -5  -12.70   18.60
   2   5  -5    6.80   11.40
  -2   5   5   -5.10   16.20
  -2   5   5   -8.40   15.80
   2   5  -5   15.20   15.30
   1  -5  -5   90.89   21.10
   1  -5  -5  114.99   22.50
   1  -5  -5   89.29   20.60
  -1  -5   5   94.19   22.90
   1  -5  -5  139.99   25.20
  -1  -5   5  115.99   21.70
   1  -5  -5  134.69   21.10
  -1  -5   5   94.99   20.50
   1   5  -5   83.49   17.80
  -1   5   5   94.19   19.90
   1   5  -5   97.09   23.10
   1   5  -5   84.69   27.80
  -1   5   5   76.49   21.10
   1   5  -5  100.99   20.70
   1   5  -5   86.49   21.20
  -1   5   5   72.59   26.30
  -1   5   5  113.99   20.90
   0  -5   5  392.76   33.00
   0  -5   5  346.67   28.20
   0  -5   5  324.17   29.50
   0  -5  -5  355.16   26.60
   0  -5  -5  327.67   29.80
   0  -5  -5  402.56   39.20
   0  -5  -5  410.06   32.70
   0  -5   5  397.16   32.50
   0   5   5  349.96   30.60
   0   5  -5  425.86   32.90
   0   5   5  304.27   38.90
   0   5  -5  344.27   28.00
   0   5  -5  333.47   38.10
   0   5   5  337.77   27.70
   0   5   5  309.07   29.00
   0   5  -5  341.67   30.20
   1  -5   5    0.00   12.90
  -1  -5  -5   -9.60   12.90
   1  -5   5   14.80   14.50
   1  -5   5   -9.00   12.40
  -1  -5  -5    1.60   14.60
  -1  -5  -5   12.50   17.60
  -1  -5  -5   20.10   15.80
   1   5   5   -9.40   12.90
  -1   5  -5    3.50   14.30
   1   5   5   -8.40   22.40
   1   5   5    0.30   11.00
  -1   5  -5   -4.10   13.90
  -1   5  -5    6.00   13.10
  -1   5  -5   -6.60   20.20
  -1   5  -5   -7.40   15.10
  -2  -5  -5  359.86   29.30
   2  -5   5  269.07   25.80
   2  -5   5  287.87   27.00
  -2  -5  -5  240.68   25.30
  -2  -5  -5  318.47   28.20
  -2  -5  -5  302.47   34.00
  -2   5  -5  364.96   29.00
   2   5   5  322.77   27.80
  -2   5  -5  302.27   28.10
  -2   5  -5  258.77   26.10
  -2   5  -5  265.77   38.50
  -2   5  -5  330.77   22.40
   3  -5   5   28.10   14.70
  -3  -5  -5   65.49   17.00
   3  -5   5   53.69   20.00
  -3  -5  -5   35.30   14.20
  -3  -5  -5    0.00   15.00
  -3  -5  -5   44.60   21.00
  -3   5  -5   22.50   14.20
   3   5   5   49.50   14.70
  -3   5  -5    9.80   17.90
  -3   5  -5   35.00   16.80
  -3   5  -5   38.30   24.70
  -3   5  -5  -11.10   12.30
  -4  -5  -5  151.18   20.90
  -4  -5  -5  214.58   31.50
  -4  -5  -5  151.98   20.70
  -4  -5  -5  190.38   39.80
  -4   5  -5  254.47   26.90
  -4   5  -5  197.68   24.30
  -4   5  -5  140.09   30.00
  -4   5  -5  162.08   34.50
  -4   5  -5  157.68   21.20
  -5  -5  -5   -6.40   12.30
  -5  -5  -5  -12.80   31.20
  -5  -5  -5  -16.90   17.20
  -5  -5  -5   30.70   15.40
  -5   5  -5  -26.90   26.30
  -5   5  -5    8.90   17.10
  -5   5  -5  -27.50   30.50
  -5   5  -5   -8.10   15.10
  -6  -5  -5   47.30   41.20
  -6  -5  -5  -22.00   21.10
  -6  -5  -5   15.50   13.80
  -6   5  -5   24.00   16.70
  -6   5  -5  -55.19   30.90
  -6   5  -5   11.30   35.00
  -6   5  -5   15.00   15.70
  -7  -5  -5 -156.28   42.60
  -7  -5  -5   24.70   46.80
  -7   5  -5   16.50   48.80
  -7  -6   5   34.80   41.70
  -7  -6   5   -2.70   37.80
  -7  -6   5    2.10   20.80
  -7   6   5  -10.30   23.10
  -7   6   5  -16.90   33.60
  -7   6   5  -42.10   43.10
  -6  -6   5    8.50   20.80
  -6  -6   5   45.40   35.40
  -6  -6   5   -8.00   31.30
  -6   6   5   -4.10   30.20
  -6   6   5    6.10   36.30
  -6   6   5  -17.30   21.20
  -5  -6   5   19.70   20.20
  -5  -6   5    7.90   28.00
  -5   6   5   12.50   22.20
  -5   6   5  -18.10   24.40
  -5   6   5   -8.30   29.30
  -5   6   5    7.40   20.70
  -4  -6   5   -4.90   17.40
  -4  -6   5   11.60   18.00
   4  -6  -5    5.60   15.20
  -4  -6   5   -2.30   25.70
  -4   6   5   10.80   19.30
  -4   6   5    8.60   21.10
  -4   6   5  -29.20   27.20
  -4   6   5   -4.20   18.50
  -4   6   5   13.10   19.30
   4   6  -5   13.70   16.90
  -3  -6   5  273.17   30.30
   3  -6  -5  253.57   29.20
   3  -6  -5  245.98   34.90
  -3  -6   5  270.87   32.00
  -3  -6   5  297.87   37.90
   3  -6  -5  240.28   29.10
   3   6  -5  207.58   26.30
  -3   6   5  253.27   35.10
  -3   6   5  254.47   31.70
  -3   6   5  180.48   35.50
  -3   6   5  254.37   29.90
  -3   6   5  226.98   29.30
   3   6  -5  249.38   18.10
   2  -6  -5   11.40   19.80
  -2  -6   5   -3.40   17.40
   2  -6  -5   38.60   18.70
  -2  -6   5   36.20   18.10
   2  -6  -5   -3.70   17.60
  -2  -6   5    9.60   20.20
   2   6  -5   12.40   14.00
  -2   6   5   25.80   20.30
  -2   6   5   22.00   19.00
   2   6  -5   29.70   22.60
  -2   6   5   47.50   18.90
   2   6  -5   22.50   18.00
  -2   6   5    0.70   22.50
  -1  -6   5  366.76   34.60
   1  -6  -5  374.96   33.60
   1  -6  -5  395.06   33.50
   1  -6  -5  336.47   37.60
  -1  -6   5  312.47   31.70
  -1  -6   5  387.96   34.70
  -1  -6   5  391.56   35.50
   1  -6  -5  372.86   33.30
   1   6  -5  255.57   36.50
  -1   6   5  436.46   36.70
   1   6  -5  348.87   33.30
   1   6  -5  417.76   36.30
  -1   6   5  271.57   38.90
  -1   6   5  343.87   34.50
  -1   6   5  441.46   36.70
   1   6  -5  406.36   31.40
   0  -6  -5  -11.70   14.10
   0  -6  -5   11.30   19.20
   0  -6   5  -11.00   15.60
   0  -6   5  -14.00   17.50
   0  -6   5   -1.50   15.10
   0  -6  -5   15.90   17.60
   0  -6  -5    4.20   16.50
   0   6   5  -19.00   17.10
   0   6   5   -4.10   22.90
   0   6  -5   -3.60   17.70
   0   6  -5  -30.80   14.90
   0   6  -5   32.60   25.50
   0   6  -5   -2.60   15.60
   0   6   5   -3.30   16.30
  -1  -6  -5  246.98   27.80
  -1  -6  -5  238.88   26.00
   1  -6   5  201.38   25.60
  -1  -6  -5  238.98   26.30
   1  -6   5  219.88   26.50
   1  -6   5  208.28   22.20
  -1  -6  -5  194.98   30.00
  -1   6  -5  196.28   25.20
  -1   6  -5  194.28   25.20
  -1   6  -5  280.47   28.70
   1   6   5  227.78   25.50
  -1   6  -5  222.68   22.00
   1   6   5  166.68   34.20
   1   6   5  217.68   25.00
  -1   6  -5  192.68   35.30
  -2  -6  -5   -0.90   14.90
  -2  -6  -5   -6.80   14.40
   2  -6   5   14.00   15.10
  -2  -6  -5  -47.80   15.90
   2  -6   5   -7.30   15.10
  -2  -6  -5   -0.40   20.90
  -2   6  -5    4.20   10.70
  -2   6  -5    7.20   16.20
  -2   6  -5    5.70   19.00
  -2   6  -5  -11.30   14.20
  -2   6  -5   -0.90   22.50
   2   6   5   13.50   14.70
  -3  -6  -5    2.80   16.60
   3  -6   5   -3.90   15.00
   3  -6   5   -8.60   19.70
  -3  -6  -5   -0.80   14.50
  -3  -6  -5  -15.60   19.00
  -3   6  -5   62.19   22.20
  -3   6  -5    2.70   10.50
   3   6   5    8.80   14.40
  -3   6  -5    8.10   10.40
  -3   6  -5  -15.80   14.10
  -3   6  -5   10.10   24.10
  -3   6  -5   -0.90   17.10
  -4  -6  -5   -8.80   25.50
  -4  -6  -5   38.10   22.40
  -4  -6  -5   -3.70   17.00
  -4  -6  -5   16.90   14.80
  -4   6  -5  -43.00   26.30
  -4   6  -5   14.50   15.60
  -4   6  -5  -12.90   13.90
  -4   6  -5  -24.10   23.00
  -4   6  -5    7.20   18.80
  -5  -6  -5   33.80   17.10
  -5  -6  -5   59.99   19.40
  -5  -6  -5   -1.00   31.30
  -5  -6  -5   49.99   25.30
  -5   6  -5   -3.30   16.50
  -5   6  -5   49.30   38.00
  -5   6  -5    9.50   30.40
  -6  -6  -5   66.39   41.30
  -6  -6  -5  -33.20   23.20
  -6  -6  -5   -0.70   16.20
  -6   6  -5    3.40   17.00
  -6   6  -5  -44.10   38.50
  -7  -6  -5   12.10   14.20
  -7  -6  -5   53.89   50.39
  -7   6  -5   18.90   17.20
  -7   6  -5   16.90   46.10
  -7  -7   5  -34.30   30.20
  -7  -7   5  -24.10   22.30
  -7  -7   5   28.80   45.80
  -7   7   5   31.40   38.60
  -7   7   5  -18.50   24.60
  -7   7   5   22.00   42.50
  -6  -7   5    0.50   22.50
  -6  -7   5   25.70   36.60
  -6  -7   5   36.40   42.10
  -6   7   5   25.30   33.60
  -6   7   5   36.00   43.10
  -6   7   5   34.20   26.10
  -5  -7   5   22.40   31.60
  -5  -7   5   31.50   20.70
  -5   7   5   44.60   29.40
  -5   7   5   20.50   36.10
  -5   7   5    2.50   21.70
  -4  -7   5   85.69   24.10
  -4  -7   5   79.49   31.40
  -4   7   5   87.69   30.70
  -4   7   5   61.89   34.40
  -4   7   5  150.68   28.00
  -4   7   5  101.89   23.90
  -3  -7   5    7.90   22.90
  -3  -7   5   19.80   20.80
  -3  -7   5   17.20   19.60
   3  -7  -5   16.30   18.60
   3  -7  -5   11.60   18.00
   3  -7  -5   45.60   24.20
   3   7  -5   22.30   19.90
  -3   7   5   34.20   22.70
  -3   7   5   11.70   19.50
   3   7  -5    3.70   13.40
  -3   7   5    4.90   26.70
  -3   7   5   18.40   25.50
   3   7  -5    7.70   25.90
   2  -7  -5   12.80   19.20
  -2  -7   5   -8.50   20.50
  -2  -7   5   -6.60   17.50
   2  -7  -5   13.80   20.70
   2  -7  -5  -24.30   17.10
  -2  -7   5   -5.10   16.50
  -2   7   5  -10.80   16.60
  -2   7   5    8.80   21.80
  -2   7   5  -11.20   18.70
  -2   7   5    2.40   24.60
   2   7  -5   -0.70   15.20
   2   7  -5   -4.70   18.40
   2   7  -5  -53.29   21.30
   1  -7  -5  -27.10   16.20
  -1  -7   5    5.70   20.10
  -1  -7   5  -15.50   16.10
  -1  -7   5  -16.90   16.10
   1  -7  -5  -25.20   20.50
  -1   7   5  -20.50   22.90
   1   7  -5   -8.60   20.80
  -1   7   5   19.80   18.40
  -1   7   5  -10.70   19.00
   1   7  -5   38.20   19.80
  -1   7   5    9.60   18.40
   0  -7  -5  240.38   28.70
   0  -7  -5  207.48   33.90
   0  -7   5  215.68   28.60
   0  -7   5  200.98   30.90
   0  -7   5  219.78   27.10
   0  -7  -5  221.68   29.10
   0   7  -5  218.78   34.40
   0   7  -5  235.68   29.90
   0   7  -5  157.98   27.00
   0   7  -5  232.48   27.30
   0   7   5  230.78   29.80
   0   7   5  199.88   30.00
   0   7   5  218.58   40.20
  -1  -7  -5   69.59   20.60
   1  -7   5   10.10   18.60
   1  -7   5   69.99   21.00
  -1  -7  -5   55.99   25.20
  -1  -7  -5   29.00   19.60
  -1  -7  -5   39.20   18.80
   1  -7   5   32.50   15.20
  -1   7  -5   36.50   14.20
   1   7   5   34.10   17.90
  -1   7  -5   22.10   19.00
  -1   7  -5   59.39   30.20
  -1   7  -5   13.70   20.10
   1   7   5   31.40   28.20
  -1   7  -5   17.50   19.90
   1   7   5   56.09   20.40
  -2  -7  -5  374.86   41.60
   2  -7   5  296.17   33.80
  -2  -7  -5  315.87   32.30
  -2  -7  -5  338.67   34.20
   2   7   5  354.06   32.90
  -2   7  -5  403.16   38.70
  -2   7  -5  323.17   33.90
   2   7   5  378.76   33.70
  -2   7  -5  313.87   33.10
  -2   7  -5  322.57   43.30
  -3  -7  -5   27.10   18.90
  -3  -7  -5   11.20   16.80
  -3  -7  -5  105.49   28.20
  -3   7  -5   10.60   20.10
  -3   7  -5   66.09   29.40
  -3   7  -5   -6.80   29.60
  -3   7  -5   38.80   20.00
  -4  -7  -5   82.69   34.50
  -4  -7  -5  108.59   22.70
  -4  -7  -5  198.48   35.00
  -4   7  -5   82.29   21.50
  -4   7  -5   77.59   36.90
  -4   7  -5  129.89   33.30
  -5  -7  -5   17.80   35.90
  -5  -7  -5   -7.50   16.70
  -5  -7  -5   42.80   26.30
  -5   7  -5   57.59   34.00
  -5   7  -5   22.20   34.00
  -5   7  -5   -3.60   18.90
  -6  -7  -5    8.10   19.70
  -6  -7  -5   49.99   43.80
  -6   7  -5    2.60   39.80
  -6   7  -5   38.40   21.40
  -7  -8   5   -3.40   47.30
  -7  -8   5   33.10   41.50
  -7  -8   5  -43.30   23.50
  -7   8   5   30.10   54.79
  -7   8   5   13.10   28.40
  -7   8   5  -46.90   35.10
  -6  -8   5    5.20   34.10
  -6  -8   5  -25.40   25.00
  -6   8   5   20.60   27.00
  -6   8   5   67.79   46.40
  -6   8   5   -9.70   36.20
  -5  -8   5  -16.30   21.70
  -5  -8   5   -2.60   29.70
  -5   8   5  -13.80   22.60
  -5   8   5    5.00   37.00
  -5   8   5    8.20   30.20
  -4  -8   5  198.48   33.20
  -4  -8   5   96.49   31.10
  -4   8   5  125.29   40.70
  -4   8   5  228.08   33.20
  -4   8   5   89.89   31.90
   3  -8  -5   68.49   24.00
  -3  -8   5   10.90   22.40
  -3  -8   5   27.80   26.10
   3  -8  -5   36.20   20.80
   3  -8  -5   29.70   24.30
  -3  -8   5   53.99   23.60
   3   8  -5   38.30   21.20
   3   8  -5   29.80   26.90
  -3   8   5   10.00   22.60
  -3   8   5   46.30   30.80
  -3   8   5   35.40   22.80
  -3   8   5   52.39   26.10
   2  -8  -5  520.75   46.80
   2  -8  -5  416.56   37.80
   2  -8  -5  476.25   38.90
  -2  -8   5  597.64   42.40
  -2  -8   5  467.55   43.20
  -2  -8   5  593.04   44.60
  -2   8   5  621.54   49.99
  -2   8   5  368.36   42.70
  -2   8   5  423.86   42.40
  -2   8   5  467.55   57.59
   2   8  -5  573.34   46.60
   2   8  -5  527.05   48.70
  -1  -8   5   35.60   22.80
   1  -8  -5   88.29   26.50
   1  -8  -5   55.39   23.30
  -1  -8   5   81.39   24.60
   1   8  -5   18.90   27.10
  -1   8   5   95.89   25.70
  -1   8   5  124.49   35.40
   1   8  -5   77.79   24.70
  -1   8   5   81.29   26.00
   0  -8  -5  536.35   40.00
   0  -8   5  470.05   43.40
   0  -8  -5  420.56   44.90
   0  -8   5  484.45   35.80
   0  -8  -5  457.95   41.80
   0   8  -5  525.95   41.90
   0   8   5  482.55   56.99
   0   8  -5  478.15   42.60
   0   8   5  539.35   43.00
   0   8   5  482.85   42.20
   0   8  -5  517.35   37.20
   0   8  -5  454.75   49.99
   1  -8   5  121.59   25.40
  -1  -8  -5  130.59   31.70
  -1  -8  -5   95.09   23.20
  -1  -8  -5  114.99   24.70
   1  -8   5   98.19   18.90
   1   8   5   78.89   23.90
  -1   8  -5   89.39   25.50
  -1   8  -5   99.59   25.90
  -1   8  -5  111.79   18.30
   1   8   5   58.39   29.60
  -1   8  -5   77.19   31.60
   1   8   5  101.49   25.90
  -1   8  -5  121.09   27.50
  -2  -8  -5  233.08   32.90
  -2  -8  -5  177.18   28.00
  -2  -8  -5  224.78   37.50
  -2   8  -5  217.58   31.70
   2   8   5  243.08   33.10
  -2   8  -5  189.48   29.70
  -2   8  -5  166.38   41.40
  -2   8  -5  257.67   37.80
  -3  -8  -5   23.90   18.70
  -3  -8  -5   14.20   26.50
  -3   8  -5    3.50   27.80
  -3   8  -5    5.80   33.20
  -3   8  -5   26.00   21.60
  -4  -8  -5  -12.00   18.70
  -4  -8  -5   15.50   30.00
  -4  -8  -5   45.20   28.10
  -4   8  -5   35.50   38.20
  -4   8  -5   -5.70   20.40
  -4   8  -5   34.50   34.30
  -5  -8  -5   34.90   36.20
  -5  -8  -5   16.10   19.40
  -5  -8  -5   28.20   30.80
  -5   8  -5   20.20   21.00
  -5   8  -5  -37.30   37.40
  -6  -8  -5   39.50   42.40
  -6  -8  -5    5.30   20.90
  -6   8  -5   12.20   21.20
  -6   8  -5  -15.20   40.60
  -6  -9   5   29.60   39.90
  -6  -9   5   16.10   27.90
  -6   9   5   35.20   49.99
  -6   9   5   60.59   41.90
  -6   9   5   19.90   28.20
  -5  -9   5   52.09   27.80
  -5  -9   5   46.40   37.70
  -5   9   5    2.40   25.30
  -5   9   5   19.30   40.10
  -5   9   5   48.60   39.40
  -4  -9   5   32.50   32.70
  -4  -9   5   30.90   25.40
  -4   9   5   48.20   31.00
  -4   9   5    5.60   25.00
  -4   9   5   59.09   40.20
   3  -9  -5   95.09   32.80
  -3  -9   5   59.49   31.20
  -3  -9   5   85.19   28.10
   3   9  -5   98.69   33.50
  -3   9   5   82.89   28.00
  -3   9   5   18.80   27.70
  -3   9   5   45.60   39.30
   2  -9  -5   15.70   21.20
   2  -9  -5   31.90   25.60
  -2  -9   5   22.60   23.40
  -2  -9   5   33.60   24.70
  -2  -9   5    9.30   21.20
  -2   9   5   23.00   25.20
   2   9  -5   12.50   23.00
  -2   9   5   51.39   27.50
   2   9  -5   21.50   27.30
  -2   9   5    4.10   32.20
  -2   9   5    3.00   22.00
  -1  -9   5   35.10   22.90
   1  -9  -5   -6.30   21.40
  -1  -9   5   29.60   23.30
   1  -9  -5   23.10   25.90
  -1   9   5   12.30   25.50
   1   9  -5  -26.80   25.80
   1   9  -5   -2.00   21.60
  -1   9   5  -10.10   29.30
  -1   9   5   16.60   22.80
   0  -9   5   41.00   19.70
   0  -9   5   32.50   23.10
   0  -9  -5   12.20   21.50
   0  -9  -5   17.20   23.70
   0  -9  -5   22.50   26.60
   0   9  -5  -19.30   24.00
   0   9  -5   18.10   22.30
   0   9   5   -3.10   24.30
   0   9   5   12.60   22.20
   0   9  -5   15.40   22.00
   0   9   5   21.50   31.20
  -1  -9  -5  167.58   32.00
   1  -9   5  113.39   19.90
   1  -9   5   84.59   25.10
  -1  -9  -5  192.58   36.30
  -1  -9  -5   80.19   25.90
  -1   9  -5  135.69   29.40
   1   9   5  151.88   30.90
   1   9   5  111.99   34.90
  -1   9  -5  171.18   34.30
  -1   9  -5   92.19   25.20
   1   9   5  164.68   29.60
  -1   9  -5   49.90   32.20
  -2  -9  -5   55.09   23.70
  -2  -9  -5   35.20   27.30
  -2   9  -5   17.90   31.20
   2   9   5   27.80   24.60
  -2   9  -5    3.30   26.00
  -2   9  -5    5.70   22.50
  -3  -9  -5  162.28   29.10
  -3  -9  -5  211.28   44.20
  -3  -9  -5  182.88   37.30
  -3   9  -5  183.88   41.30
  -3   9  -5  163.28   44.00
  -3   9  -5   95.79   27.20
  -4  -9  -5    1.60   32.90
  -4  -9  -5   17.90   28.60
  -4  -9  -5    6.10   21.00
  -4   9  -5   -6.20   39.20
  -4   9  -5  -10.60   33.40
  -4   9  -5   -0.70   22.90
  -5  -9  -5  124.79   38.70
  -5  -9  -5   41.80   37.60
  -5  -9  -5   32.70   22.70
  -5   9  -5   62.69   48.50
  -5   9  -5   47.70   24.90
  -6  -9  -5  -17.50   38.50
  -6  -9  -5  -10.40   22.00
  -6   9  -5    2.60   24.00
  -6   9  -5    9.40   52.69
  -6 -10   5   -2.00   29.00
  -6 -10   5  -22.70   37.80
  -6  10   5   83.79   57.79
  -6  10   5   77.79   34.70
  -6  10   5   17.80   40.90
  -5 -10   5   17.30   36.80
  -5 -10   5   26.80   30.00
  -5  10   5  -21.90   48.00
  -5  10   5  -40.40   24.70
  -5  10   5  -21.00   33.20
  -4 -10   5   28.30   28.50
  -4 -10   5   17.10   32.20
  -4  10   5   36.80   39.40
  -4  10   5   22.70   26.60
  -4  10   5   69.69   38.90
   3 -10  -5  -19.60   24.60
  -3 -10   5   12.90   28.10
  -3 -10   5   17.60   24.00
   3  10  -5   -5.30   29.90
  -3  10   5    5.60   32.70
  -3  10   5    9.80   27.20
  -3  10   5   18.30   40.90
   2 -10  -5  228.98   40.60
  -2 -10   5  262.47   41.30
  -2 -10   5  288.67   39.60
   2 -10  -5  263.37   38.40
   2  10  -5  297.87   47.00
   2  10  -5  243.28   38.30
  -2  10   5  228.68   37.30
  -2  10   5  235.58   44.60
  -2  10   5  218.48   44.90
  -1 -10   5   23.70   25.80
   1 -10  -5   35.30   23.50
  -1 -10   5   78.49   28.70
   1 -10  -5    0.00   28.30
   1  10  -5    9.40   27.20
  -1  10   5    7.30   28.90
  -1  10   5   -5.30   33.20
  -1  10   5  -28.40   18.80
   1  10  -5   22.20   23.10
   0 -10  -5  293.97   38.20
   0 -10  -5  331.57   44.10
   0 -10   5  365.76   40.80
   0 -10   5  401.56   35.00
   0  10  -5  303.37   42.00
   0  10   5  353.96   46.10
   0  10   5  380.66   41.30
   0  10   5  245.58   49.99
   0  10  -5  252.47   44.80
  -1 -10  -5   26.50   30.70
  -1 -10  -5   57.69   25.10
  -1  10  -5   12.70   31.30
   1  10   5   36.60   27.60
  -1  10  -5   27.70   22.90
  -2 -10  -5   26.30   29.60
  -2 -10  -5   37.50   24.30
   2  10   5   39.20   28.30
  -2  10  -5    2.60   24.30
  -2  10  -5   58.39   32.90
  -2  10  -5   32.10   38.10
  -3 -10  -5  -18.30   21.20
  -3 -10  -5    4.40   29.50
  -3 -10  -5   51.59   31.50
  -3  10  -5  -29.30   21.80
  -3  10  -5   16.30   40.70
  -3  10  -5   -9.20   35.60
  -4 -10  -5  -10.70   35.60
  -4 -10  -5  -19.00   30.70
  -4 -10  -5    2.30   22.30
  -4  10  -5  -46.90   35.10
  -4  10  -5   25.20   26.50
  -5 -10  -5   25.70   43.70
  -5 -10  -5   21.80   24.20
  -5  10  -5  -19.30   46.20
  -5  10  -5    2.90   25.60
  -5 -11   5    9.40   41.20
  -5 -11   5   42.70   33.80
  -5  11   5   35.90   41.10
  -5  11   5   40.40   32.00
  -5  11   5  -16.50   54.79
  -4 -11   5   12.60   28.70
  -4 -11   5   53.29   39.50
  -4  11   5   29.20   41.40
  -4  11   5   -4.80   42.90
  -4  11   5   72.49   34.40
   3 -11  -5   61.89   31.80
  -3 -11   5   21.90   29.80
  -3 -11   5  -11.10   30.90
  -3  11   5   68.39   47.80
  -3  11   5   74.59   30.90
   3  11  -5   42.10   34.50
  -3  11   5   14.40   33.60
   2 -11  -5   10.10   27.30
  -2 -11   5   -5.40   26.90
  -2 -11   5   -8.00   24.80
  -2  11   5   -8.30   23.70
  -2  11   5   -8.30   36.80
   2  11  -5   34.60   36.40
  -2  11   5    4.10   40.60
  -1 -11   5    5.20   24.70
   1 -11  -5   31.20   29.30
   1 -11  -5  -24.90   24.20
  -1 -11   5   30.50   27.90
   1  11  -5  -15.90   28.80
  -1  11   5   30.80   35.40
  -1  11   5   27.80   28.00
  -1  11   5    5.40   32.50
   1  11  -5  -15.80   24.70
   0 -11   5    7.50   22.50
   0 -11  -5   44.00   31.40
   0 -11  -5   18.00   28.00
   0 -11   5   35.40   26.60
   0  11   5   47.40   33.00
   0  11   5  -29.90   31.70
   0  11  -5   27.30   28.10
   0  11   5   -2.10   24.10
   0  11  -5   25.00   31.90
  -1 -11  -5   11.70   29.30
  -1 -11  -5   31.10   25.70
   1  11   5   32.20   30.80
  -1  11  -5   29.40   34.50
  -1  11  -5  -10.20   27.00
  -2 -11  -5   67.59   29.50
  -2 -11  -5   62.59   33.70
  -2 -11  -5   48.80   34.90
  -2  11  -5  102.59   38.90
  -2  11  -5   71.89   40.70
   2  11   5   91.59   35.20
  -2  11  -5   31.00   27.80
  -3 -11  -5   25.60   33.30
  -3 -11  -5   27.10   37.60
  -3 -11  -5   66.59   30.30
  -3  11  -5   36.50   43.60
  -3  11  -5   55.69   30.30
  -3  11  -5   64.29   42.20
  -4 -11  -5    4.30   35.10
  -4 -11  -5  -13.30   25.10
  -4 -11  -5   45.50   39.50
  -4  11  -5    6.70   43.10
  -4  11  -5  -18.40   27.20
  -5 -11  -5   47.10   42.80
  -5 -11  -5   -0.70   26.60
  -5  11  -5  -86.99   46.70
  -5  11  -5    7.90   29.80
  -5 -12   5  -57.49   30.30
  -5 -12   5    4.30   44.30
  -5  12   5  -51.09   62.99
  -5  12   5   35.70   34.70
  -5  12   5  -36.30   40.60
  -4 -12   5   54.79   40.60
  -4 -12   5   17.70   31.30
  -4  12   5   23.10   41.60
  -4  12   5    0.20   30.40
  -4  12   5  -15.20   46.00
  -3 -12   5  197.08   45.60
  -3 -12   5   48.50   33.20
   3 -12  -5  107.19   40.40
   3  12  -5   57.49   42.40
  -3  12   5   78.79   42.40
  -3  12   5   60.29   32.90
  -3  12   5  103.09   52.79
  -2 -12   5   13.60   30.10
  -2 -12   5   -7.40   29.00
   2 -12  -5   23.30   30.20
  -2  12   5   19.60   39.90
  -2  12   5   25.80   43.60
  -2  12   5   19.10   30.60
   2  12  -5    0.00   35.40
  -1 -12   5  269.87   43.00
  -1 -12   5  233.18   43.00
   1 -12  -5  248.48   43.00
   1 -12  -5  306.37   52.09
   1  12  -5  141.49   37.60
   1  12  -5  130.69   43.50
  -1  12   5  153.28   46.20
  -1  12   5  152.88   46.80
  -1  12   5  241.48   43.50
   0 -12  -5   10.90   29.80
   0 -12  -5   -3.90   31.30
   0  12  -5   -9.60   26.90
   0  12   5   52.39   39.40
   0  12   5  -31.00   33.10
   0  12  -5    2.40   36.90
  -1 -12  -5  143.69   40.00
  -1 -12  -5  117.79   37.40
  -1 -12  -5  117.39   36.60
  -1  12  -5   82.89   33.90
   1  12   5  122.79   40.40
  -1  12  -5  107.59   43.10
  -2 -12  -5   -1.20   35.60
  -2 -12  -5    6.60   31.40
  -2 -12  -5   36.20   29.70
  -2  12  -5  -40.20   40.60
   2  12   5   49.30   36.30
  -2  12  -5   19.90   39.60
  -2  12  -5  -43.50   25.90
  -3 -12  -5    7.50   29.50
  -3 -12  -5   -7.90   34.80
  -3 -12  -5   51.69   39.40
  -3  12  -5  -60.19   37.50
  -3  12  -5    9.10   30.00
  -4 -12  -5   11.20   41.70
  -4 -12  -5   17.10   36.30
  -4 -12  -5   -4.60   26.80
  -4  12  -5  -27.80   29.50
  -4  12  -5  -38.20   49.60
  -4 -13   5   50.49   37.60
  -4 -13   5  -14.10   36.00
  -4  13   5  -19.80   31.00
  -4  13   5  -15.80   49.60
  -4  13   5   34.90   62.49
  -3 -13   5  -15.50   32.70
  -3 -13   5  -19.60   36.40
  -3  13   5   74.59   55.19
  -3  13   5   26.00   35.20
   3  13  -5  -12.80   40.80
  -3  13   5  -59.19   38.30
   2 -13  -5    7.60   30.50
  -2 -13   5    6.50   30.60
  -2 -13   5    5.60   32.90
  -2  13   5  -33.70   42.50
   2  13  -5   49.80   39.60
  -2  13   5  -19.60   44.00
  -2  13   5    4.60   32.90
   1 -13  -5   62.59   35.80
  -1  13   5  -44.40   38.30
  -1  13   5  -11.70   42.30
   1  13  -5   72.59   38.50
   0 -13  -5   34.20   36.10
   0 -13  -5   24.80   31.30
   0 -13  -5   28.00   30.90
   0  13  -5   18.60   37.50
   0  13   5   11.00   39.60
   0  13   5   67.09   45.50
   0  13  -5   -6.60   32.50
  -1 -13  -5   79.39   37.50
  -1 -13  -5   76.09   40.00
  -1 -13  -5   71.29   39.70
   1  13   5   66.49   39.60
  -1  13  -5   17.20   38.60
  -1  13  -5   55.59   38.60
  -2 -13  -5   66.49   41.50
  -2 -13  -5   81.29   42.20
  -2 -13  -5   34.80   35.30
  -2  13  -5   19.80   41.30
  -2  13  -5   76.09   37.30
  -3 -13  -5   30.10   43.70
  -3 -13  -5  -17.40   32.40
  -3 -13  -5   -1.30   36.30
  -3  13  -5   33.90   51.79
  -3  13  -5   45.30   36.20
  -3 -14   5  -32.90   37.20
  -3 -14   5   76.39   43.60
  -3  14   5   39.70   54.79
  -3  14   5   51.29   39.10
  -3  14   5  -58.89   45.40
   3  14  -5   -8.90   47.20
   2 -14  -5   48.30   37.20
   2  14  -5   55.49   45.10
  -2  14   5    9.20   43.50
  -2  14   5   37.20   51.29
   1 -14  -5   -3.20   37.50
  -1  14   5   -0.10   45.30
   1  14  -5   25.70   39.40
  -1  14   5   32.70   43.30
   0 -14  -5   99.49   41.20
   0  14   5   68.49   50.19
   0  14  -5  -35.50   39.70
   0  14   5   55.39   44.30
  -1 -14  -5   46.00   39.00
  -1 -14  -5   -2.90   37.00
  -1 -14  -5   41.30   41.80
   1  14   5   65.59   43.90
  -1  14  -5  -14.60   37.80
  -1  14  -5   12.40   40.20
  -2 -14  -5   44.20   40.70
  -2 -14  -5  -34.80   32.20
  -2 -14  -5   25.00   41.60
  -2  14  -5   55.49   42.80
  -2  14  -5    0.90   44.30
   1 -15  -5   30.70   40.20
  -1  15   5    1.40   48.60
   1  15  -5   26.70   42.60
  -1  15   5   48.80   54.29
   0 -15  -5   -4.70   37.00
   0  15  -5  -10.50   37.80
   0  15   5   -9.90   43.80
  -8   0   6   38.50   40.90
  -8   0   6   -3.60   44.00
  -8   0   6  -17.90   20.60
  -8   0   6   30.30   41.10
  -7   0   6   55.29   37.10
  -7   0   6    2.80   34.90
  -6   0   6   44.60   19.40
  -6   0   6   68.09   32.50
  -6   0   6   61.29   32.10
  -5   0   6    0.80   14.50
  -5   0   6   25.70   25.10
  -5   0   6    6.70   15.70
   5   0  -6    9.50   16.10
  -5   0   6   28.10   18.10
  -5   0   6  -14.30   21.90
   4   0  -6  789.62   41.30
  -4   0   6  669.23   54.79
  -4   0   6  812.22   39.60
  -4   0   6  816.42   42.50
  -4   0   6  758.82   43.40
  -4   0   6  750.82   52.79
   3   0  -6   -8.00    4.80
   3   0  -6  -18.80   11.70
  -3   0   6  -10.60   13.00
  -3   0   6    3.40   10.90
  -3   0   6   -7.80   12.80
  -3   0   6  -10.00   19.10
  -3   0   6    8.90   20.80
  -2   0   6  658.23   35.90
   2   0  -6  667.83   36.80
  -2   0   6  755.42   35.60
   2   0  -6  694.23   45.30
   2   0  -6  680.53   35.80
  -2   0   6  699.03   45.10
  -2   0   6  728.43   43.90
   2   0  -6  750.02   38.30
  -2   0   6  676.83   36.50
   1   0  -6  -14.50   14.00
   1   0  -6  -10.40   12.70
   1   0  -6   -2.20   14.60
  -1   0   6   -4.20   18.00
  -1   0   6  -25.10   12.80
  -1   0   6   -4.10   12.00
  -1   0   6   16.50   13.60
   1   0  -6   12.20   12.70
   1   0  -6  -10.60   17.30
  -1   0   6   -2.40   13.30
  -1   0   6  -17.70   14.60
   0   0   6  338.17   32.00
   0   0  -6  300.07   20.80
   0   0  -6  293.77   23.40
   0   0   6  293.47   23.30
   0   0   6  295.27   23.30
   0   0  -6  280.87   22.90
   0   0   6  283.67   23.90
   0   0  -6  322.27   24.60
   0   0   6  289.47   21.20
   0   0   6  313.07   25.60
   0   0  -6  377.16   33.40
   0   0  -6  286.67   25.80
   1   0   6    2.60    9.70
  -1   0  -6  -30.80    9.00
   1   0   6    8.40   14.60
  -1   0  -6   -4.40   10.70
  -1   0  -6  -38.90    9.80
   1   0   6  -12.70    9.50
   1   0   6   -4.40    9.70
  -1   0  -6    3.90   11.50
  -1   0  -6  -41.10   16.50
  -1   0  -6    8.90   15.70
  -2   0  -6   24.70   10.90
  -2   0  -6    8.60   10.00
  -2   0  -6   21.70   13.20
  -2   0  -6    9.30   19.60
  -3   0  -6   -9.40    8.50
  -3   0  -6   -2.10    7.90
  -3   0  -6    1.40   15.00
  -3   0  -6    2.20   18.50
  -4   0  -6   10.50   18.00
  -4   0  -6   66.99   24.90
  -4   0  -6   70.29   25.40
  -4   0  -6   29.00    5.50
  -5   0  -6  -34.30   21.40
  -5   0  -6   -7.40   21.90
  -5   0  -6    6.10   21.40
  -5   0  -6    4.50   28.20
  -6   0  -6  -26.50   25.00
  -6   0  -6  -27.50   27.70
  -6   0  -6   22.90   33.00
  -6   0  -6   38.10   29.90
  -7   0  -6  -22.90   32.90
  -7   0  -6   27.00   37.80
  -7   0  -6  -58.79   39.50
  -7   0  -6  -26.00   31.40
  -8  -1   6  -19.90   38.60
  -8  -1   6   32.10   42.80
  -8   1   6  -11.50   44.40
  -8   1   6   64.19   43.30
  -8   1   6  -17.70   19.90
  -8   1   6   52.09   41.30
  -7  -1   6  -24.40   34.60
  -7  -1   6  -23.90   17.80
  -7  -1   6   48.10   38.20
  -7   1   6   20.60   19.70
  -7   1   6   28.40   35.90
  -7   1   6   16.60   38.60
  -7   1   6   37.40   32.80
  -6  -1   6    4.10   30.00
  -6  -1   6   33.40   18.20
  -6  -1   6    2.60   29.00
  -6   1   6   24.10   32.70
  -6   1   6   49.70   28.80
  -5  -1   6  -28.60   23.40
  -5  -1   6   29.80   26.40
  -5  -1   6   24.10   17.40
  -5  -1   6   19.60   16.70
   5  -1  -6   21.30   17.20
  -5  -1   6   18.70   12.10
  -5   1   6   -5.20   24.20
  -5   1   6   12.30   16.90
  -5   1   6   28.50   24.10
   5   1  -6   29.40   17.40
  -5   1   6   10.20   15.80
  -4  -1   6    0.30    9.00
  -4  -1   6   -5.10   21.60
   4  -1  -6   -8.80   14.00
  -4  -1   6    5.30   14.90
  -4  -1   6  -16.10   21.80
  -4  -1   6   15.00   15.10
   4   1  -6  -18.90   13.30
  -4   1   6   18.60   15.50
  -4   1   6   10.30   22.10
  -4   1   6   27.60   20.60
  -4   1   6  -21.60   14.00
  -4   1   6    6.70   14.00
  -3  -1   6   81.09   24.80
  -3  -1   6   61.19   17.20
  -3  -1   6   75.99   10.90
   3  -1  -6   69.99   18.30
  -3  -1   6   61.39   16.60
  -3  -1   6   67.59   25.50
  -3   1   6   52.89   17.40
  -3   1   6   68.39   23.50
   3   1  -6   74.59   11.70
  -3   1   6   28.10   16.40
  -3   1   6   52.19   25.50
  -3   1   6   78.29   16.70
  -2  -1   6  -12.60   16.30
  -2  -1   6   31.90   15.30
  -2  -1   6   15.10    9.60
   2  -1  -6   13.40   15.10
  -2  -1   6    1.00   17.00
   2  -1  -6   21.30   16.90
  -2  -1   6    7.30   14.70
   2  -1  -6  -10.00   12.90
   2  -1  -6   11.50   19.20
  -2  -1   6   17.70   19.40
   2  -1  -6   32.40   15.40
   2   1  -6   33.00   18.10
  -2   1   6   19.50   14.10
  -2   1   6    2.90   18.20
  -2   1   6   29.30   16.00
   2   1  -6   29.70   11.30
  -2   1   6   14.80   13.90
   2   1  -6   32.00   15.70
  -2   1   6   15.00   16.90
   2   1  -6   11.60   14.30
  -1  -1   6  343.47   27.10
   1  -1  -6  301.27   27.00
  -1  -1   6  329.17   31.60
  -1  -1   6  285.57   23.10
   1  -1  -6  356.96   33.80
  -1  -1   6  295.07   25.10
  -1  -1   6  292.17   26.40
   1  -1  -6  370.66   27.50
   1  -1  -6  356.26   28.00
  -1  -1   6  283.47   27.40
   1  -1  -6  281.97   28.70
  -1   1   6  323.77   25.60
   1   1  -6  304.47   23.10
   1   1  -6  356.36   27.90
   1   1  -6  297.17   24.20
  -1   1   6  330.47   31.40
  -1   1   6  297.47   25.30
  -1   1   6  309.17   28.50
   1   1  -6  355.16   33.40
  -1   1   6  293.17   26.00
   1   1  -6  313.47   25.60
   0  -1  -6   -3.10   14.10
   0  -1  -6    1.20   13.30
   0  -1   6   16.20    9.80
   0  -1  -6  -29.60   16.90
   0  -1   6    8.20   13.50
   0  -1   6    0.90   10.80
   0  -1   6   32.00   19.10
   0  -1  -6   -7.00   12.60
   0  -1  -6   -3.00   13.20
   0  -1   6   -5.70   12.00
   0   1  -6   -2.50   14.00
   0   1  -6    5.80    9.20
   0   1   6   16.10   14.10
   0   1   6    3.30   12.10
   0   1   6   13.80   16.70
   0   1  -6    8.80   13.00
   0   1   6    3.60   19.20
   0   1   6  -10.40    7.70
   0   1  -6    7.00   12.80
   0   1   6   -9.30   11.60
   0   1  -6    9.60   13.70
   0   1  -6    4.00   13.50
  -1  -1  -6 1144.89   46.30
  -1  -1  -6  991.90   45.20
  -1  -1  -6 1118.89   56.29
   1  -1   6 1147.79   52.29
  -1  -1  -6 1058.69   54.99
  -1  -1  -6 1086.69   57.49
   1  -1   6 1079.69   45.10
  -1  -1  -6 1168.78   46.70
  -1   1  -6 1055.59   55.99
  -1   1  -6 1161.38   52.49
  -1   1  -6 1092.49   46.10
  -1   1  -6 1141.29   46.10
  -1   1  -6 1141.19   48.40
  -1   1  -6 1116.99   55.69
   2  -1   6   95.59   12.10
   2  -1   6  113.59   19.30
  -2  -1  -6  132.59   17.10
  -2  -1  -6   79.89   13.60
  -2  -1  -6  111.59   22.80
  -2  -1  -6  149.19   21.80
  -2  -1  -6  123.29   15.00
  -2   1  -6   69.99   22.20
  -2   1  -6  117.09   24.90
  -2   1  -6   89.09   14.10
   2   1   6  109.79   12.90
  -2   1  -6  102.19   14.30
  -2   1  -6   72.89   17.10
  -3  -1  -6  554.54   43.20
  -3  -1  -6  573.74   37.20
  -3  -1  -6  498.15   24.70
  -3  -1  -6  474.05   24.50
  -3   1  -6  455.55   40.30
  -3   1  -6  465.65   35.50
  -3   1  -6  519.05   25.70
  -3   1  -6  479.45   24.90
  -3   1  -6  577.04   38.40
  -4  -1  -6   12.70   23.10
  -4  -1  -6   15.40    5.80
  -4  -1  -6   24.00    6.90
  -4  -1  -6   36.70   20.10
  -4   1  -6   21.90    6.80
  -4   1  -6   67.09   25.40
  -4   1  -6   19.40   22.40
  -4   1  -6  -11.00   16.30
  -4   1  -6    8.50    7.70
  -5  -1  -6   25.40   27.30
  -5  -1  -6   20.70   22.40
  -5  -1  -6   31.40   24.60
  -5  -1  -6  -20.10   25.20
  -5   1  -6   17.00   30.00
  -5   1  -6   27.50   25.70
  -5   1  -6   71.29   28.10
  -5   1  -6   15.60   21.80
  -6  -1  -6   -4.90   24.30
  -6  -1  -6   -4.60   31.60
  -6  -1  -6   -3.90   27.10
  -6  -1  -6  -19.30   21.00
  -6   1  -6  -41.90   25.40
  -6   1  -6   56.89   31.10
  -6   1  -6  -21.20   30.30
  -6   1  -6  -50.09   27.10
  -7  -1  -6    3.20   36.30
  -7  -1  -6  -16.00   35.00
  -7  -1  -6   37.90   31.70
  -7  -1  -6  -43.70   33.90
  -7   1  -6  -28.40   29.90
  -7   1  -6  -42.10   36.10
  -7   1  -6  -50.89   27.80
  -7   1  -6  -24.50   35.90
  -8  -2   6  -12.10   20.40
  -8  -2   6   50.59   45.30
  -8  -2   6  -43.20   40.70
  -8   2   6   24.70   41.20
  -8   2   6   32.10   42.50
  -8   2   6  -54.49   40.00
  -8   2   6  -12.30   21.50
  -7  -2   6   28.90   38.30
  -7  -2   6  -11.60   30.80
  -7  -2   6  -15.70   18.10
  -7   2   6   -7.10   36.00
  -7   2   6   25.50   37.00
  -7   2   6   23.30   20.60
  -7   2   6   64.19   35.30
  -6  -2   6    9.70   17.60
  -6  -2   6   -0.60   30.70
  -6  -2   6   41.60   28.70
  -6   2   6   26.80   34.40
  -6   2   6   12.50   18.20
  -6   2   6   62.29   29.40
  -6   2   6   -8.20   29.30
  -5  -2   6   57.49   19.00
  -5  -2   6   59.39   29.70
  -5  -2   6   64.69   20.70
  -5  -2   6   37.40   30.20
   5  -2  -6   40.20   18.70
   5   2  -6   61.09   19.30
  -5   2   6   66.99   20.80
  -5   2   6   92.99   32.00
  -5   2   6   49.50   18.90
  -5   2   6   88.09   26.90
  -4  -2   6   35.50   16.80
  -4  -2   6   30.90   16.20
  -4  -2   6   23.40   25.20
   4  -2  -6   42.30   16.90
  -4  -2   6   21.30   21.80
   4   2  -6   21.20   15.60
  -4   2   6   15.40   16.10
  -4   2   6   22.60   24.20
  -4   2   6   56.79   23.10
  -3  -2   6  406.56   29.80
  -3  -2   6  430.36   33.40
  -3  -2   6  315.17   37.90
  -3  -2   6  354.76   38.90
   3  -2  -6  374.96   32.70
  -3   2   6  327.87   39.20
  -3   2   6  326.87   30.40
  -3   2   6  357.76   30.60
  -3   2   6  374.16   31.00
  -3   2   6  395.76   34.50
   2  -2  -6  315.57   28.70
  -2  -2   6  330.67   28.10
  -2  -2   6  286.07   27.30
  -2  -2   6  314.27   31.00
   2  -2  -6  371.06   34.90
   2  -2  -6  318.67   26.70
   2  -2  -6  284.97   26.40
  -2  -2   6  339.77   31.40
  -2   2   6  326.07   29.20
  -2   2   6  305.57   29.00
  -2   2   6  316.77   28.20
   2   2  -6  313.87   27.20
  -2   2   6  225.68   31.00
  -2   2   6  304.47   27.40
   2   2  -6  300.97   18.90
   2   2  -6  339.47   27.90
   1  -2  -6  533.55   32.70
   1  -2  -6  526.05   38.90
  -1  -2   6  532.55   36.50
  -1  -2   6  533.95   32.60
  -1  -2   6  575.24   38.40
   1  -2  -6  507.95   35.30
   1  -2  -6  566.24   34.20
   1  -2  -6  517.15   35.90
  -1  -2   6  485.85   32.30
  -1  -2   6  485.25   32.00
  -1   2   6  528.25   33.30
   1   2  -6  515.05   30.20
   1   2  -6  543.35   37.20
  -1   2   6  508.95   31.10
  -1   2   6  546.05   38.00
   1   2  -6  547.25   31.70
  -1   2   6  540.25   39.60
   1   2  -6  508.35   33.20
   1   2  -6  534.65   37.70
   0  -2  -6   92.99   21.90
   0  -2  -6  113.19   19.00
   0  -2   6  145.59   22.80
   0  -2   6   96.79   16.70
   0  -2  -6   85.39   18.90
   0  -2  -6   99.19   18.20
   0  -2   6  100.79   18.90
   0  -2   6   85.49   16.30
   0  -2  -6  101.99   21.60
   0  -2   6  126.59   10.90
   0   2  -6  104.99   18.70
   0   2  -6   96.89   18.30
   0   2   6   76.09   19.50
   0   2  -6  119.29   18.10
   0   2   6   98.59   16.70
   0   2   6  105.29   16.90
   0   2  -6  126.79   22.70
   0   2  -6   91.99   19.30
   0   2   6  110.99   24.20
   0   2   6  112.09    9.30
  -1  -2  -6  195.88   20.50
  -1  -2  -6  191.98   26.40
   1  -2   6  197.58   18.90
   1  -2   6  192.28   24.00
  -1  -2  -6  187.28   26.70
  -1  -2  -6  220.58   21.00
   1  -2   6  169.88   24.50
  -1   2  -6  166.18   19.30
   1   2   6  232.88   20.60
  -1   2  -6  158.68   19.30
  -1   2  -6  202.28   24.60
  -1   2  -6  150.48   24.40
  -1   2  -6  238.28   25.50
  -2  -2  -6   84.09   21.40
   2  -2   6   61.29   18.80
  -2  -2  -6   73.09   14.30
  -2  -2  -6  105.69   14.90
   2  -2   6   92.29   12.90
  -2  -2  -6   40.90   18.80
  -2  -2  -6   60.59   13.60
  -2   2  -6   43.50   18.40
  -2   2  -6  109.29   20.10
  -2   2  -6   68.29   13.60
  -2   2  -6   77.19   14.90
  -2   2  -6   77.79   14.80
   2   2   6   68.09   12.30
  -3  -2  -6   41.40   15.10
  -3  -2  -6  -12.00    9.10
  -3  -2  -6  -11.00    9.80
  -3  -2  -6   26.60   17.80
  -3   2  -6    8.20   10.20
  -3   2  -6    2.90   15.60
  -3   2  -6  -10.30   14.30
  -3   2  -6   -8.10   10.20
  -4  -2  -6   56.49   24.30
  -4  -2  -6  112.89   24.70
  -4  -2  -6   60.09   10.30
  -4  -2  -6   93.69   12.00
  -4   2  -6   66.89   22.20
  -4   2  -6   55.69   11.10
  -4   2  -6   73.49   25.70
  -4   2  -6   61.99   12.00
  -4   2  -6   71.79   28.90
  -5  -2  -6  -68.09   24.00
  -5  -2  -6   25.80   21.20
  -5  -2  -6   65.89   26.00
  -5   2  -6   13.40   25.60
  -5   2  -6   99.19   29.60
  -5   2  -6   26.40   29.30
  -5   2  -6   25.50   25.20
  -6  -2  -6  -19.50   30.10
  -6  -2  -6   14.20   30.10
  -6  -2  -6  -79.29   28.70
  -6  -2  -6  -14.80   22.60
  -6   2  -6    9.50   36.50
  -6   2  -6   68.49   36.00
  -6   2  -6   11.50   28.90
  -6   2  -6  -22.90   30.20
  -7  -2  -6  -50.19   36.20
  -7  -2  -6   -4.60   29.10
  -7  -2  -6  -40.20   30.70
  -7  -2  -6   15.10   37.60
  -7   2  -6  -51.59   41.30
  -7   2  -6  -34.40   35.20
  -7   2  -6  -37.50   37.00
  -8  -3   6    2.20   45.30
  -8  -3   6   -2.00   21.70
  -8  -3   6  -64.39   40.00
  -8   3   6   36.90   45.40
  -8   3   6   -8.40   40.00
  -8   3   6   68.09   26.30
  -7  -3   6   -4.30   36.20
  -7  -3   6  -37.80   35.90
  -7  -3   6    9.20   20.10
  -7   3   6   55.59   35.60
  -7   3   6  -15.10   34.30
  -7   3   6   15.40   21.80
  -7   3   6   32.90   39.80
  -6  -3   6   -0.10   27.90
  -6  -3   6    3.10   17.70
  -6  -3   6   30.50   33.10
  -6   3   6    7.30   18.70
  -6   3   6   95.59   31.70
  -6   3   6  -11.10   28.20
  -6   3   6   -8.90   29.80
  -5  -3   6    3.50   15.90
  -5  -3   6  -30.50   16.50
  -5  -3   6  -20.00   23.30
  -5  -3   6  -20.50   24.70
  -5   3   6  -10.40   16.10
  -5   3   6   40.20   30.20
  -5   3   6   11.10   18.60
  -5   3   6  -15.50   25.50
  -5   3   6   35.70   24.70
  -4  -3   6   22.60   22.50
  -4  -3   6   39.20   17.90
   4  -3  -6   30.90   16.70
  -4  -3   6   60.49   18.00
  -4  -3   6   71.49   28.40
  -4   3   6   25.40   17.10
   4   3  -6   62.69   18.80
  -4   3   6   78.09   27.70
  -4   3   6   44.80   18.20
  -4   3   6   31.80   23.90
  -4   3   6   80.59   23.90
   3  -3  -6   19.90   15.20
  -3  -3   6    4.30   21.90
  -3  -3   6    4.40   15.50
   3  -3  -6  -12.60   17.90
  -3  -3   6   14.60   15.10
  -3  -3   6    0.40   18.40
  -3   3   6   45.90   23.20
  -3   3   6    5.40   16.00
  -3   3   6    7.40   23.20
  -3   3   6   34.70   19.50
  -3   3   6    0.00   15.40
   3   3  -6   -5.20   14.00
   2  -3  -6  363.66   30.70
  -2  -3   6  369.56   35.70
   2  -3  -6  339.27   33.70
  -2  -3   6  354.16   32.60
   2  -3  -6  345.27   33.40
  -2  -3   6  386.86   31.70
   2  -3  -6  400.56   32.80
  -2  -3   6  378.66   31.70
  -2   3   6  354.66   32.00
  -2   3   6  342.37   31.00
  -2   3   6  358.36   31.70
  -2   3   6  342.17   29.60
  -2   3   6  360.36   38.70
   2   3  -6  354.86   30.60
   2   3  -6  297.07   19.90
   2   3  -6  389.16   29.70
  -1  -3   6  202.78   28.50
  -1  -3   6  177.68   21.60
   1  -3  -6  174.18   22.70
   1  -3  -6  160.58   26.20
   1  -3  -6  141.19   21.00
   1  -3  -6  192.88   29.20
  -1  -3   6  178.08   24.10
   1  -3  -6  171.28   27.10
  -1  -3   6  176.78   22.30
  -1  -3   6  191.78   28.20
  -1   3   6  199.08   28.40
   1   3  -6  166.58   22.20
  -1   3   6  158.38   26.70
   1   3  -6  140.49   18.90
   1   3  -6  186.48   23.00
  -1   3   6  251.27   23.90
  -1   3   6  167.88   27.90
   1   3  -6  154.48   24.70
  -1   3   6  177.78   20.40
   1   3  -6  172.28   27.90
  -1   3   6  199.38   24.20
   0  -3   6 1934.21   82.89
   0  -3   6 2050.39   87.89
   0  -3   6 1984.90   77.19
   0  -3  -6 1918.01   94.59
   0  -3  -6 1941.41   76.79
   0  -3  -6 2031.70   77.59
   0  -3   6 2014.70   77.29
   0  -3   6 2021.50   89.59
   0  -3  -6 1937.21   87.89
   0   3   6 1870.61   75.89
   0   3  -6 1978.20   90.29
   0   3  -6 2004.20   87.69
   0   3   6 1957.10   95.99
   0   3  -6 2068.19   77.69
   0   3   6 2046.00   76.99
   0   3   6 2048.90   78.79
   0   3  -6 1993.20   77.69
   1  -3   6   17.10   16.50
  -1  -3  -6   55.59   22.90
  -1  -3  -6   47.10   15.40
   1  -3   6   49.60   18.40
  -1  -3  -6   33.00   18.00
   1  -3   6   32.20   13.20
  -1   3  -6   61.59   15.30
  -1   3  -6   74.69   17.80
   1   3   6   15.50   20.50
  -1   3  -6   48.50   15.10
  -1   3  -6   69.29   19.90
   1   3   6   26.20   13.20
  -2  -3  -6  596.24   29.30
  -2  -3  -6  499.95   40.40
  -2  -3  -6  543.05   30.90
   2  -3   6  547.35   29.30
  -2   3  -6  549.85   31.30
  -2   3  -6  509.45   30.70
  -2   3  -6  580.54   40.80
   2   3   6  517.25   28.60
  -2   3  -6  445.76   33.40
  -2   3  -6  514.95   30.80
  -3  -3  -6    4.30   16.70
  -3  -3  -6    2.30   10.70
   3  -3   6    1.60    9.60
  -3   3  -6   -4.40   16.20
   3   3   6    9.30    9.60
  -3   3  -6   12.00   12.30
  -3   3  -6  -15.70   14.50
  -3   3  -6  -13.40   11.10
  -3   3  -6   44.80   21.50
  -4  -3  -6  137.29   16.70
  -4  -3  -6  118.09   15.20
  -4  -3  -6  225.98   29.10
  -4  -3  -6  141.99   28.40
  -4   3  -6  167.18   32.10
  -4   3  -6  144.59   17.90
  -4   3  -6   99.59   15.70
  -4   3  -6  178.08   31.60
  -5  -3  -6    8.70    8.70
  -5  -3  -6   72.49   27.10
  -5  -3  -6   -4.20    7.20
  -5  -3  -6    9.10   21.10
  -5  -3  -6    7.00   30.00
  -5   3  -6   -6.70    9.70
  -5   3  -6   -3.30   10.80
  -5   3  -6   20.10   26.30
  -5   3  -6  -67.09   23.20
  -5   3  -6   44.10   27.70
  -6  -3  -6   58.99   32.80
  -6  -3  -6  -25.10   21.50
  -6  -3  -6   -0.40   34.20
  -6  -3  -6  -58.29   34.10
  -6   3  -6  -25.30   27.50
  -6   3  -6   56.59   36.30
  -6   3  -6  -79.29   30.20
  -6   3  -6   76.89   34.40
  -7  -3  -6   15.90   42.30
  -7  -3  -6  -10.10   28.00
  -7  -3  -6  -84.49   39.00
  -7   3  -6   59.19   42.20
  -7   3  -6  -95.39   29.00
  -8  -4   6   -3.50   23.60
  -8  -4   6  -42.50   41.90
  -8  -4   6   -9.10   44.60
  -8   4   6  -23.60   39.00
  -8   4   6   22.40   25.60
  -8   4   6   -6.10   42.80
  -7  -4   6   -7.90   28.80
  -7  -4   6   19.60   35.90
  -7  -4   6   -3.20   19.10
  -7   4   6   11.00   34.80
  -7   4   6  -55.59   35.90
  -7   4   6    1.70   33.90
  -7   4   6  -20.90   20.20
  -6  -4   6   10.10   27.40
  -6  -4   6    4.20   18.30
  -6  -4   6  -11.70   31.60
  -6   4   6   -8.30   28.30
  -6   4   6  -25.50   17.30
  -6   4   6    2.80   30.00
  -6   4   6   28.30   27.30
  -5  -4   6   47.60   20.20
  -5  -4   6  133.89   37.90
  -5  -4   6   73.59   23.90
  -5  -4   6   89.69   32.40
  -5   4   6  135.59   29.30
  -5   4   6   73.69   30.10
  -5   4   6   36.00   32.80
  -5   4   6   95.89   24.50
  -5   4   6   59.39   20.40
  -4  -4   6   83.09   21.50
  -4  -4   6   93.89   30.40
  -4  -4   6   60.69   28.30
  -4  -4   6  118.09   24.60
   4  -4  -6   85.49   25.60
   4  -4  -6   83.89   20.60
  -4   4   6  114.29   25.30
  -4   4   6   80.19   21.60
  -4   4   6   82.39   27.90
  -4   4   6   53.89   27.00
  -4   4   6   58.49   20.00
   4   4  -6   58.69   19.40
  -3  -4   6  424.26   35.60
  -3  -4   6  455.05   34.60
   3  -4  -6  474.05   34.50
   3  -4  -6  487.65   38.10
  -3  -4   6  428.66   40.50
  -3   4   6  471.75   34.90
  -3   4   6  414.46   37.90
   3   4  -6  396.36   34.30
  -3   4   6  424.26   36.80
  -3   4   6  414.16   33.60
   2  -4  -6  174.78   27.50
   2  -4  -6  197.18   27.30
  -2  -4   6  195.38   30.90
   2  -4  -6  161.28   22.90
  -2  -4   6  178.88   25.60
  -2  -4   6  257.37   28.60
  -2   4   6  197.78   25.50
  -2   4   6  187.78   25.50
  -2   4   6  226.38   28.90
  -2   4   6  174.78   26.20
   2   4  -6  148.69   28.20
   2   4  -6  184.38   24.60
  -2   4   6  168.18   32.10
  -1  -4   6  793.12   47.90
   1  -4  -6  841.42   48.70
  -1  -4   6  843.52   45.10
   1  -4  -6  800.92   43.10
  -1  -4   6  866.61   44.30
   1  -4  -6  807.72   48.50
   1   4  -6  877.31   53.39
  -1   4   6  859.91   44.70
  -1   4   6  775.02   42.20
   1   4  -6  783.22   44.00
   1   4  -6  811.62   44.40
  -1   4   6  818.52   55.49
  -1   4   6  810.52   43.40
   0  -4   6   67.89   18.60
   0  -4   6   83.79   18.10
   0  -4   6   92.29   21.00
   0  -4   6   92.09   15.50
   0  -4  -6   45.10   17.70
   0  -4  -6   92.49   23.80
   0  -4  -6   72.19   17.90
   0  -4  -6   84.79   13.60
   0   4  -6   64.59   17.10
   0   4   6   90.09   14.30
   0   4   6   69.19   17.90
   0   4  -6   66.19   19.30
   0   4   6   87.09   27.90
   0   4  -6   57.89   22.10
   0   4  -6  107.79   20.80
   0   4   6   84.09   18.00
   1  -4   6  452.05   31.70
  -1  -4  -6  438.06   23.40
  -1  -4  -6  422.16   30.20
  -1  -4  -6  450.95   30.60
   1  -4   6  427.56   23.30
  -1  -4  -6  425.16   35.70
  -1   4  -6  432.06   30.50
   1   4   6  441.26   45.10
  -1   4  -6  399.76   30.40
  -1   4  -6  445.76   40.10
  -1   4  -6  413.36   30.30
   2  -4   6   24.60   13.20
  -2  -4  -6   16.80   11.30
  -2  -4  -6   40.80   21.80
  -2  -4  -6   26.10   14.50
  -2  -4  -6   45.80   15.10
  -2   4  -6   40.40   24.70
  -2   4  -6   -4.40   11.40
   2   4   6   29.30   13.30
  -2   4  -6   25.60   14.70
  -2   4  -6   54.89   15.90
  -2   4  -6  -14.30   14.30
  -3  -4  -6  -10.40   17.70
  -3  -4  -6    7.60   13.30
  -3  -4  -6    7.40   13.20
   3  -4   6    5.20   11.50
  -3  -4  -6   12.30   11.90
  -3   4  -6  -24.00   13.50
   3   4   6   -4.50   10.80
  -3   4  -6   16.20   22.70
  -3   4  -6    2.90   13.50
  -3   4  -6  -50.29   13.30
  -3   4  -6   -0.60   13.70
  -4  -4  -6    3.50   12.60
  -4  -4  -6    4.60   19.10
  -4  -4  -6    2.40   12.10
  -4   4  -6    6.00   14.10
  -4   4  -6  -58.49   18.50
  -4   4  -6    2.80   13.80
  -4   4  -6   39.80   25.40
  -5  -4  -6   29.10   23.50
  -5  -4  -6   13.70   13.80
  -5  -4  -6   39.00   34.80
  -5  -4  -6    0.90   11.70
  -5   4  -6    6.30   13.50
  -5   4  -6   -8.00   24.10
  -5   4  -6  -52.59   25.90
  -5   4  -6   -2.50   14.80
  -5   4  -6   37.60   33.00
  -6  -4  -6   -4.80   22.40
  -6  -4  -6  -33.70   36.70
  -6   4  -6  -11.20   36.90
  -6   4  -6   15.20   11.10
  -6   4  -6  -36.80   33.10
  -6   4  -6   18.80   10.30
  -7  -4  -6   78.09   51.89
  -7  -4  -6  -89.39   43.10
  -7   4  -6  -21.90   36.20
  -7   4  -6   83.79   47.60
  -7  -5   6   -7.60   32.30
  -7  -5   6    2.90   20.20
  -7  -5   6   35.40   38.00
  -7   5   6  -23.00   35.40
  -7   5   6   23.40   35.80
  -7   5   6   -7.90   21.70
  -6  -5   6   -7.40   29.10
  -6  -5   6   33.10   20.50
  -6  -5   6   18.80   31.60
  -6   5   6   99.99   31.20
  -6   5   6   37.70   23.30
  -6   5   6   20.30   30.60
  -6   5   6   53.29   36.10
  -5  -5   6    4.50   27.80
  -5  -5   6    6.70   18.60
  -5  -5   6   29.70   28.70
  -5   5   6   16.80   30.70
  -5   5   6   -9.30   18.20
  -5   5   6   62.39   34.00
  -5   5   6   47.60   25.00
  -4  -5   6   -7.30   20.50
   4  -5  -6    7.10   22.00
   4  -5  -6   13.80   12.10
  -4  -5   6   20.10   18.40
  -4  -5   6   21.30   18.10
  -4   5   6   -7.50   17.50
   4   5  -6   -4.40   13.10
  -4   5   6   15.30   26.20
  -4   5   6   -5.20   20.10
  -4   5   6   13.30   24.20
  -4   5   6    7.20   17.70
  -3  -5   6   25.00   23.60
   3  -5  -6   -9.50   16.30
  -3  -5   6   19.50   18.00
   3  -5  -6  -10.10   18.60
  -3  -5   6    0.00   16.90
  -3   5   6    9.60   18.00
   3   5  -6    8.20   16.10
  -3   5   6  -12.90   18.80
  -3   5   6  -20.90   20.60
  -3   5   6  -31.20   19.30
  -3   5   6   -3.90   18.00
  -2  -5   6   26.10   22.70
  -2  -5   6   23.90   16.70
   2  -5  -6   14.80   17.40
   2  -5  -6   24.00   19.60
  -2  -5   6   16.00   18.10
   2   5  -6    7.30   12.10
  -2   5   6   12.30   18.40
   2   5  -6   -6.80   15.30
  -2   5   6   32.30   26.10
  -2   5   6   38.40   19.20
  -2   5   6   13.40   19.10
  -2   5   6   22.90   17.80
   2   5  -6   24.10   22.00
   1  -5  -6  153.68   24.60
   1  -5  -6  145.99   24.40
   1  -5  -6  164.38   22.70
  -1  -5   6  141.19   23.50
  -1  -5   6  141.39   23.10
   1  -5  -6  138.59   26.50
  -1  -5   6  190.78   28.10
  -1   5   6  141.89   23.10
  -1   5   6  156.08   23.60
  -1   5   6  111.49   21.60
   1   5  -6  130.69   22.60
   1   5  -6   88.99   26.50
  -1   5   6  123.59   30.90
   1   5  -6  154.58   23.40
   0  -5  -6   18.20   17.00
   0  -5  -6    8.70   16.00
   0  -5  -6    0.80   12.20
   0  -5   6   20.80   17.80
   0  -5  -6   23.70   20.60
   0  -5   6   16.60   17.30
   0  -5   6   15.90   14.90
   0   5   6   -3.30   24.60
   0   5   6   37.20   16.40
   0   5  -6   -2.40   16.60
   0   5  -6   23.00   17.90
   0   5  -6   17.00   23.80
   0   5   6   20.90   14.90
   0   5  -6   34.20   18.30
  -1  -5  -6  354.26   31.50
  -1  -5  -6  390.26   25.90
   1  -5   6  439.36   26.60
  -1  -5  -6  376.16   30.20
  -1  -5  -6  402.66   41.80
   1  -5   6  380.86   29.50
   1   5   6  372.36   42.10
  -1   5  -6  397.96   40.80
   1   5   6  355.76   25.50
  -1   5  -6  359.96   28.00
  -1   5  -6  394.76   33.30
  -1   5  -6  399.66   30.20
  -2  -5  -6   93.79   18.80
  -2  -5  -6   99.19   19.40
   2  -5   6   98.09   17.60
  -2  -5  -6   94.99   25.80
  -2  -5  -6  105.79   18.10
   2  -5   6  118.19   19.90
  -2   5  -6   68.99   28.00
   2   5   6  125.69   20.00
  -2   5  -6   85.99   18.40
  -2   5  -6   91.19   19.60
  -2   5  -6   86.59   20.10
  -2   5  -6  124.49   19.20
   3  -5   6  153.88   20.40
  -3  -5  -6  144.39   20.80
  -3  -5  -6  129.99   21.80
  -3  -5  -6  138.39   26.50
  -3  -5  -6  116.89   19.60
   3  -5   6  157.68   23.80
  -3   5  -6  140.09   21.20
  -3   5  -6   70.09   18.40
   3   5   6  110.59   18.00
  -3   5  -6  133.49   21.00
  -3   5  -6   94.89   22.90
  -3   5  -6   98.09   31.90
  -4  -5  -6    4.90   15.30
  -4  -5  -6   26.20   22.40
  -4  -5  -6    2.40   13.20
  -4   5  -6   33.00   29.30
  -4   5  -6   16.10   17.40
  -4   5  -6   17.00   15.90
  -4   5  -6  -42.70   19.50
  -4   5  -6    1.40   18.90
  -5  -5  -6   11.60   14.30
  -5  -5  -6   18.00   15.40
  -5  -5  -6   30.00   23.40
  -5  -5  -6   22.20   33.40
  -5   5  -6  -22.60   27.20
  -5   5  -6   24.70   16.60
  -5   5  -6    7.70   18.30
  -5   5  -6   -1.90   33.40
  -6  -5  -6   -8.60   25.20
  -6  -5  -6  -13.30   31.20
  -6  -5  -6   -7.40   13.00
  -6  -5  -6  -10.60   14.40
  -6   5  -6  -10.90   16.10
  -6   5  -6  -16.00   39.60
  -6   5  -6   -4.70   14.90
  -7  -5  -6   28.60   49.70
  -7   5  -6   20.70   44.00
  -7   5  -6  -20.40   44.20
  -7  -6   6   64.69   46.50
  -7  -6   6    4.40   38.50
  -7  -6   6    0.30   23.90
  -7   6   6   18.70   37.00
  -7   6   6   12.40   25.90
  -7   6   6  -35.60   41.00
  -6  -6   6    9.90   29.60
  -6  -6   6   16.30   22.40
  -6  -6   6  -15.00   29.40
  -6   6   6   11.40   35.80
  -6   6   6   -3.20   23.20
  -6   6   6   -8.60   34.90
  -5  -6   6    5.00   28.00
  -5  -6   6   77.89   36.10
  -5  -6   6   33.40   21.60
  -5   6   6   -4.60   26.50
  -5   6   6    3.80   21.30
  -5   6   6   34.40   25.30
  -5   6   6   28.20   30.40
  -4  -6   6  135.59   32.00
  -4  -6   6  136.79   26.20
  -4  -6   6  152.68   28.20
   4  -6  -6  133.29   33.10
  -4   6   6  128.39   27.30
  -4   6   6   88.69   36.20
  -4   6   6  164.58   30.10
  -4   6   6  135.79   31.30
  -4   6   6  126.29   26.30
   3  -6  -6   68.29   25.30
  -3  -6   6   35.50   23.00
  -3  -6   6   92.69   23.00
   3  -6  -6   66.49   21.80
  -3  -6   6   47.50   21.50
  -3   6   6   54.99   21.20
   3   6  -6   77.89   21.70
  -3   6   6   42.30   22.50
  -3   6   6   10.60   20.70
   3   6  -6   61.09   11.80
  -3   6   6   70.29   22.60
  -3   6   6   33.90   27.50
  -2  -6   6  396.66   36.70
   2  -6  -6  389.06   36.00
  -2  -6   6  371.16   36.20
  -2  -6   6  359.86   43.10
   2  -6  -6  350.76   42.30
  -2   6   6  379.76   35.20
   2   6  -6  301.67   26.30
   2   6  -6  297.67   39.40
  -2   6   6  328.57   37.40
   2   6  -6  335.97   33.10
  -2   6   6  389.36   36.90
  -2   6   6  298.67   43.50
   1  -6  -6   27.20   18.40
  -1  -6   6   12.10   19.20
   1  -6  -6   21.10   20.50
  -1  -6   6   13.30   18.30
   1  -6  -6   53.59   18.60
  -1  -6   6   25.20   19.90
   1  -6  -6  -14.30   16.50
  -1  -6   6    2.30   17.40
   1   6  -6   34.80   16.80
  -1   6   6    2.60   16.40
  -1   6   6    7.10   17.70
  -1   6   6  -12.70   24.60
   1   6  -6   16.90   22.80
  -1   6   6    6.30   15.90
   1   6  -6   28.40   18.80
   1   6  -6   19.40   18.80
   0  -6  -6  103.09   29.30
   0  -6   6   87.99   21.60
   0  -6  -6  113.39   19.70
   0  -6  -6   65.19   21.30
   0  -6   6   85.19   21.50
   0  -6   6   76.89   20.10
   0  -6  -6   55.69   19.80
   0   6  -6  106.39   21.30
   0   6   6   99.49   20.80
   0   6   6   97.99   20.70
   0   6  -6   72.79   19.80
   0   6  -6   75.39   27.60
   0   6  -6   79.89   20.90
   0   6   6   64.29   27.20
  -1  -6  -6   31.40   17.40
   1  -6   6   -1.80   13.90
  -1  -6  -6   16.00   20.30
   1  -6   6  -14.80   15.70
  -1  -6  -6  -16.90   14.80
  -1  -6  -6   -1.40   13.80
   1  -6   6    3.20   16.50
  -1   6  -6    0.40   15.10
  -1   6  -6   14.80   14.60
  -1   6  -6    9.00   23.30
  -1   6  -6   -5.50   15.80
   1   6   6   -1.10   22.90
   1   6   6    3.70   14.90
   1   6   6   -5.60   14.20
  -2  -6  -6   69.09   23.60
  -2  -6  -6   68.09   19.80
   2  -6   6   86.59   19.70
  -2  -6  -6   60.79   19.00
   2  -6   6   67.89   18.80
  -2  -6  -6   61.19   18.20
  -2   6  -6   52.19   18.70
  -2   6  -6   83.39   32.50
   2   6   6   95.19   20.00
  -2   6  -6   81.89   21.50
  -2   6  -6  106.89   21.80
  -2   6  -6   73.19   15.80
   3  -6   6   -4.00   17.80
   3  -6   6   -7.90   14.90
  -3  -6  -6   14.50   15.20
  -3  -6  -6   20.50   16.80
  -3  -6  -6   21.60   20.30
  -3   6  -6    7.00   13.60
  -3   6  -6    5.40   27.70
  -3   6  -6   -0.10   17.60
  -3   6  -6   61.09   21.60
   3   6   6   19.80   15.60
  -3   6  -6    5.10   16.30
  -4  -6  -6  145.29   24.20
  -4  -6  -6  106.19   20.40
  -4  -6  -6  180.98   33.60
  -4   6  -6  128.39   38.80
  -4   6  -6   92.79   29.90
  -4   6  -6  115.49   22.00
  -4   6  -6   95.19   23.90
  -5  -6  -6   52.79   25.90
  -5  -6  -6    3.10   15.90
  -5  -6  -6   34.30   33.50
  -5   6  -6  -38.00   28.80
  -5   6  -6   -1.80   18.00
  -5   6  -6   16.20   31.70
  -6  -6  -6   19.50   28.20
  -6  -6  -6    9.00   16.50
  -6  -6  -6   -1.50   38.10
  -6   6  -6    0.40   18.30
  -6   6  -6   19.10   41.00
  -7  -7   6    9.60   41.20
  -7  -7   6   71.49   42.50
  -7  -7   6  -20.00   25.10
  -7   7   6   45.10   41.20
  -7   7   6  -34.30   45.50
  -7   7   6  -17.10   26.30
  -6  -7   6   -4.90   36.60
  -6  -7   6   17.10   23.90
  -6  -7   6   30.90   34.50
  -6   7   6   12.90   33.50
  -6   7   6    0.50   23.80
  -6   7   6   42.50   43.70
  -5  -7   6    5.90   21.40
  -5  -7   6   -4.60   25.60
  -5   7   6  -14.80   26.30
  -5   7   6    1.40   24.30
  -5   7   6   40.30   33.80
  -5   7   6   21.00   22.70
  -4  -7   6   -5.70   26.30
  -4  -7   6  -25.80   19.10
   4  -7  -6  -15.00   24.80
  -4   7   6   -8.90   24.60
  -4   7   6   -1.40   21.30
  -4   7   6   38.40   32.70
  -4   7   6   35.90   22.80
  -3  -7   6   21.60   22.20
  -3  -7   6   33.90   22.40
   3  -7  -6    4.10   25.80
   3  -7  -6    2.30   20.40
  -3  -7   6   11.10   25.00
   3   7  -6   17.80   20.30
  -3   7   6   -2.60   25.10
  -3   7   6   27.50   21.10
  -3   7   6   37.10   24.10
   3   7  -6   71.19   27.50
  -3   7   6    1.90   24.30
   3   7  -6    7.50   13.80
   2  -7  -6   63.39   25.50
  -2  -7   6   38.20   20.60
  -2  -7   6   81.59   27.90
  -2  -7   6   60.49   21.60
   2  -7  -6   74.69   22.10
  -2   7   6   78.69   26.20
  -2   7   6   78.79   23.40
   2   7  -6   73.09   23.20
  -2   7   6   87.49   24.00
   2   7  -6   43.30   25.90
  -2   7   6   52.69   32.10
   2   7  -6   73.69   19.00
   1  -7  -6  301.17   37.70
  -1  -7   6  358.46   38.30
  -1  -7   6  347.17   36.10
   1  -7  -6  455.85   40.90
  -1   7   6  268.27   41.60
  -1   7   6  353.16   36.40
   1   7  -6  313.57   41.60
   1   7  -6  419.86   39.10
  -1   7   6  355.66   37.10
   0  -7  -6  149.09   23.70
   0  -7   6  148.59   24.40
   0  -7   6  136.19   26.50
   0  -7   6  139.39   25.40
   0  -7  -6  142.09   25.00
   0  -7  -6  212.18   35.20
   0  -7  -6  138.59   27.10
   0   7  -6  170.88   28.00
   0   7  -6  172.48   35.20
   0   7   6  195.78   27.90
   0   7   6  171.58   27.00
   0   7   6  201.48   37.60
   0   7  -6  187.58   27.00
   0   7  -6  151.88   27.40
   1  -7   6  466.25   37.20
  -1  -7  -6  507.05   38.40
   1  -7   6  431.36   38.80
  -1  -7  -6  473.95   47.60
  -1  -7  -6  510.05   39.00
  -1  -7  -6  474.85   34.80
   1  -7   6  504.65   33.10
   1   7   6  409.56   52.09
  -1   7  -6  494.15   38.80
   1   7   6  505.15   37.00
  -1   7  -6  460.25   40.30
   1   7   6  500.55   41.00
  -1   7  -6  463.45   31.60
  -1   7  -6  478.75   52.49
  -2  -7  -6   65.89   21.00
   2  -7   6   73.59   20.50
  -2  -7  -6   46.40   20.30
   2  -7   6   53.79   19.10
  -2  -7  -6   70.09   28.30
  -2  -7  -6   54.09   22.30
  -2   7  -6   70.49   21.20
  -2   7  -6  116.29   32.00
  -2   7  -6  130.09   25.50
  -2   7  -6  109.09   24.50
   2   7   6   58.29   18.20
  -2   7  -6   69.59   14.50
  -3  -7  -6  123.29   24.30
  -3  -7  -6  152.18   34.90
  -3  -7  -6   83.09   21.80
  -3   7  -6  145.69   27.20
  -3   7  -6   80.09   33.80
  -3   7  -6  138.59   31.50
  -3   7  -6   77.89   22.00
  -4  -7  -6    1.10   24.90
  -4  -7  -6    4.50   16.00
  -4  -7  -6   -1.20   29.40
  -4   7  -6  -61.29   30.70
  -4   7  -6  134.89   33.40
  -4   7  -6   -2.20   17.70
  -5  -7  -6  -32.90   26.50
  -5  -7  -6   78.69   31.50
  -5  -7  -6    5.60   17.40
  -5   7  -6  -16.70   38.30
  -5   7  -6    6.30   21.10
  -6  -7  -6    3.50   39.50
  -6  -7  -6  -12.40   17.80
  -6  -7  -6   30.10   32.50
  -6   7  -6  -28.00   19.40
  -6   7  -6   14.20   46.70
  -7  -8   6   -9.10   27.50
  -7  -8   6   29.70   43.50
  -7  -8   6  -10.10   38.30
  -7   8   6  -28.10   43.40
  -7   8   6  -20.50   28.70
  -7   8   6   12.10   38.90
  -6  -8   6   22.30   37.00
  -6  -8   6   -1.10   26.40
  -6  -8   6   28.10   40.70
  -6   8   6   -5.00   26.80
  -6   8   6  -45.00   34.50
  -6   8   6   51.19   45.40
  -5  -8   6   56.59   27.10
  -5  -8   6   20.00   34.60
  -5   8   6   72.79   27.30
  -5   8   6   16.30   30.30
  -5   8   6   71.89   40.50
  -4  -8   6   14.30   29.10
  -4  -8   6  -20.60   21.90
   4  -8  -6  -35.60   24.80
  -4   8   6    6.10   33.30
  -4   8   6    7.60   22.90
  -4   8   6    0.50   25.10
   3  -8  -6  211.08   30.30
  -3  -8   6  288.67   42.10
  -3  -8   6  224.38   32.30
   3  -8  -6  204.58   37.80
   3   8  -6  206.38   39.50
  -3   8   6  217.58   36.10
  -3   8   6  246.88   47.30
   3   8  -6  306.37   34.80
  -3   8   6  204.48   33.50
  -2  -8   6    9.20   21.70
   2  -8  -6   -6.60   24.00
  -2  -8   6   31.20   21.30
  -2  -8   6    2.50   23.20
   2  -8  -6   13.70   22.00
  -2   8   6   11.40   22.00
  -2   8   6    7.90   32.80
  -2   8   6   -1.60   23.20
   2   8  -6   59.09   29.50
   2   8  -6   47.80   22.20
  -2   8   6  -12.60   21.90
  -1  -8   6   99.69   26.90
   1  -8  -6  127.89   27.30
   1  -8  -6  117.69   30.90
  -1  -8   6  130.09   27.80
  -1   8   6   81.69   26.70
   1   8  -6  161.98   29.80
   1   8  -6  103.89   31.90
  -1   8   6  134.99   29.80
  -1   8   6  101.59   34.20
   0  -8  -6   -0.50   24.40
   0  -8   6  -18.50   17.30
   0  -8  -6   -8.80   19.20
   0  -8   6    3.30   18.80
   0  -8  -6   17.90   20.30
   0   8  -6    3.90   25.70
   0   8  -6    9.90   22.20
   0   8   6   -4.00   25.70
   0   8  -6  -19.40   18.10
   0   8   6   -6.50   19.70
   0   8   6  -20.80   20.90
   1  -8   6  -15.00   15.20
   1  -8   6    1.40   21.30
  -1  -8  -6  -15.40   18.10
  -1  -8  -6   -0.80   19.60
  -1  -8  -6  -29.20   20.60
   1  -8   6   14.00   20.10
   1   8   6   21.30   19.60
  -1   8  -6  -10.80   20.10
   1   8   6    3.40   28.50
  -1   8  -6   -2.50   19.30
  -1   8  -6   -9.60   24.30
  -1   8  -6    3.80   15.10
   1   8   6   22.50   20.90
  -2  -8  -6   39.30   25.00
  -2  -8  -6    9.00   19.70
  -2  -8  -6    8.10   20.40
  -2   8  -6   43.80   24.00
  -2   8  -6  -17.00   30.70
  -2   8  -6   -3.80   18.70
   2   8   6   53.59   22.80
  -2   8  -6   11.50   20.70
  -3  -8  -6   55.69   30.00
  -3  -8  -6   34.50   20.80
  -3   8  -6    0.60   28.90
  -3   8  -6    0.30   31.10
  -3   8  -6   72.09   22.60
  -4  -8  -6   16.40   18.60
  -4  -8  -6  -13.30   30.60
  -4  -8  -6   40.70   29.20
  -4   8  -6   44.70   21.50
  -4   8  -6   66.89   38.30
  -4   8  -6    1.20   34.40
  -5  -8  -6   60.79   34.10
  -5  -8  -6  -18.00   33.10
  -5  -8  -6  -14.40   18.90
  -5   8  -6   30.60   23.10
  -5   8  -6  -19.60   45.50
  -6  -8  -6   -0.30   20.30
  -6  -8  -6   11.00   39.50
  -6   8  -6   42.30   51.19
  -6   8  -6   -0.30   23.70
  -6  -9   6  -16.50   36.50
  -6  -9   6  -10.90   27.10
  -6   9   6  -24.40   33.00
  -6   9   6   40.00   31.10
  -6   9   6   -0.50   43.00
  -5  -9   6    2.50   34.30
  -5  -9   6  -26.80   24.90
  -5   9   6    6.00   34.40
  -5   9   6  -10.10   26.40
  -5   9   6   -1.50   41.60
  -4  -9   6   10.00   23.60
   4  -9  -6   22.40   27.80
  -4  -9   6   34.20   32.40
  -4   9   6  -37.50   34.10
  -4   9   6   57.09   28.70
  -4   9   6   48.60   31.80
  -3  -9   6    5.50   26.20
   3  -9  -6   36.40   30.30
  -3  -9   6   36.10   25.10
  -3   9   6  -34.60   32.30
  -3   9   6   47.20   32.10
   3   9  -6   12.60   27.70
  -3   9   6   15.30   24.80
   2  -9  -6  146.39   32.90
  -2  -9   6  121.69   33.20
   2  -9  -6  194.88   32.30
  -2  -9   6  143.89   29.80
   2   9  -6  134.59   29.70
  -2   9   6  144.09   29.80
  -2   9   6  143.29   35.60
  -2   9   6   93.59   40.30
   2   9  -6  143.29   39.20
  -1  -9   6   65.19   26.20
  -1  -9   6   28.70   25.10
   1  -9  -6   63.39   26.50
   1  -9  -6   61.19   30.80
   1   9  -6   90.59   29.00
  -1   9   6   38.30   28.10
  -1   9   6   77.09   26.20
   1   9  -6   41.20   29.30
  -1   9   6   62.19   35.60
   0  -9   6  448.76   43.00
   0  -9  -6  393.06   47.90
   0  -9  -6  428.16   42.80
   0  -9   6  411.96   35.40
   0  -9  -6  337.57   39.50
   0   9   6  422.56   45.00
   0   9  -6  403.26   42.80
   0   9   6  300.17   49.10
   0   9   6  442.16   43.00
   0   9  -6  255.47   43.70
   0   9  -6  349.17   38.90
  -1  -9  -6   -1.10   26.60
   1  -9   6  -11.80   16.20
  -1  -9  -6   16.60   22.50
   1  -9   6  -36.40   20.20
   1   9   6  -22.10   29.10
  -1   9  -6   11.30   22.90
   1   9   6   20.10   24.40
   1   9   6   33.90   21.70
  -1   9  -6   23.40   28.70
  -2  -9  -6  271.77   42.30
  -2  -9  -6  185.48   30.80
  -2   9  -6  225.48   33.20
  -2   9  -6  270.97   38.50
  -2   9  -6  169.18   40.80
   2   9   6  251.97   35.60
  -3  -9  -6  -19.20   25.20
  -3  -9  -6  -23.90   17.20
  -3   9  -6  -20.80   36.30
  -3   9  -6   19.10   31.40
  -3   9  -6   -3.20   22.30
  -4  -9  -6   39.90   24.30
  -4  -9  -6   28.00   29.90
  -4  -9  -6   47.70   32.30
  -4   9  -6   12.70   37.70
  -4   9  -6   13.80   22.10
  -5  -9  -6  -28.20   37.30
  -5  -9  -6   19.50   34.30
  -5  -9  -6    3.90   20.00
  -5   9  -6   37.50   49.30
  -5   9  -6    6.70   23.00
  -6 -10   6   43.20   32.80
  -6 -10   6   12.00   40.50
  -6  10   6  -16.20   32.30
  -6  10   6  -50.19   52.09
  -6  10   6   13.10   39.40
  -5 -10   6   43.00   37.40
  -5 -10   6  -12.00   25.80
  -5  10   6   52.39   40.20
  -5  10   6   24.40   29.90
  -5  10   6   37.40   48.40
  -4 -10   6   77.39   31.30
  -4 -10   6   21.50   34.50
  -4  10   6   39.10   40.50
  -4  10   6   18.10   28.60
  -4  10   6   45.00   36.40
   3 -10  -6   96.49   34.10
  -3 -10   6  264.57   45.50
  -3 -10   6  142.99   32.50
   3  10  -6  140.99   42.20
  -3  10   6  152.28   33.70
  -3  10   6  115.49   44.90
  -3  10   6   97.49   39.00
   2 -10  -6   23.20   25.80
  -2 -10   6   88.79   33.60
   2 -10  -6    1.00   26.30
  -2 -10   6   17.90   26.80
  -2  10   6   19.30   24.80
  -2  10   6   30.10   31.40
   2  10  -6   -3.20   27.50
  -2  10   6   34.50   35.60
   2  10  -6   30.70   27.30
  -1 -10   6   97.79   30.40
  -1 -10   6  104.89   30.60
   1 -10  -6  102.19   35.10
   1 -10  -6   68.99   29.10
  -1  10   6   10.30   26.80
   1  10  -6   69.89   30.00
  -1  10   6   18.00   32.40
  -1  10   6   69.89   30.90
   1  10  -6   88.59   37.20
   0 -10  -6    8.00   28.30
   0 -10   6   25.30   23.30
   0 -10  -6   16.70   23.10
   0 -10   6   15.30   21.20
   0  10  -6    9.50   29.30
   0  10   6   45.10   24.20
   0  10  -6   -6.40   23.50
   0  10   6  -11.60   28.20
   0  10   6   15.00   30.80
  -1 -10  -6  -27.70   27.10
  -1 -10  -6   12.10   22.10
  -1  10  -6    9.10   22.40
  -1  10  -6   11.10   34.10
   1  10   6   17.70   26.90
  -2 -10  -6   -0.20   23.20
  -2 -10  -6   34.70   31.60
  -2  10  -6   27.80   25.90
  -2  10  -6   56.39   31.90
  -2  10  -6   12.30   37.60
   2  10   6   39.60   27.90
  -3 -10  -6  -21.60   28.20
  -3 -10  -6   10.60   24.30
  -3 -10  -6   24.80   35.80
  -3  10  -6   -8.10   24.80
  -3  10  -6   61.89   45.40
  -4 -10  -6  -16.70   31.30
  -4 -10  -6   22.80   36.40
  -4 -10  -6   -4.10   25.10
  -4  10  -6  -23.60   38.20
  -4  10  -6    3.20   24.20
  -5 -10  -6  -44.70   34.40
  -5 -10  -6   -7.60   36.20
  -5 -10  -6   -8.80   21.20
  -5  10  -6   19.60   27.10
  -5  10  -6  -46.40   47.80
  -5 -11   6  -27.80   36.10
  -5 -11   6  -42.90   28.60
  -5  11   6  -53.09   49.80
  -5  11   6   -9.20   31.50
  -5  11   6   16.70   43.50
  -4 -11   6   17.90   30.50
  -4 -11   6  -40.00   33.50
  -4  11   6   -3.20   43.70
  -4  11   6  -29.10   34.90
  -4  11   6   -2.50   29.30
  -3 -11   6  -13.60   31.50
   3 -11  -6   49.60   35.40
  -3 -11   6  -17.40   27.60
  -3  11   6   64.79   32.90
   3  11  -6    6.20   33.00
  -3  11   6  -36.20   42.50
  -3  11   6   25.90   40.10
  -2 -11   6    3.10   27.20
  -2 -11   6    2.50   28.90
   2 -11  -6  -17.80   26.10
   2  11  -6  -22.70   28.90
  -2  11   6    8.20   37.40
  -2  11   6   -8.90   39.90
  -2  11   6    5.50   28.10
  -1 -11   6  160.78   35.80
   1 -11  -6  150.28   38.00
  -1 -11   6  209.68   36.50
   1 -11  -6  175.08   34.90
   1  11  -6  178.78   43.40
   1  11  -6  150.48   33.90
  -1  11   6  149.29   34.30
  -1  11   6  171.08   46.10
  -1  11   6  133.69   39.90
   0 -11  -6   69.89   35.90
   0 -11   6   28.60   23.60
   0 -11  -6   20.90   28.70
   0  11  -6   24.80   26.30
   0  11  -6   55.59   34.90
   0  11   6   35.60   32.80
   0  11   6  -28.80   30.60
  -1 -11  -6  110.49   33.30
  -1 -11  -6  107.99   38.80
  -1  11  -6  132.99   44.00
  -1  11  -6   39.00   28.60
   1  11   6  147.69   35.70
  -2 -11  -6   -4.40   32.10
  -2 -11  -6   10.10   25.20
   2  11   6   31.30   30.60
  -2  11  -6   57.19   34.50
  -2  11  -6   12.20   27.60
  -2  11  -6   20.90   42.30
  -3 -11  -6   33.30   35.80
  -3 -11  -6   -6.90   24.80
  -3 -11  -6   11.00   35.60
  -3  11  -6  -10.20   25.90
  -3  11  -6   42.10   42.50
  -4 -11  -6  -10.70   36.00
  -4 -11  -6   -6.30   37.40
  -4 -11  -6  -35.60   23.60
  -4  11  -6   -8.10   25.90
  -4  11  -6  -62.99   44.90
  -5 -12   6  -19.80   32.50
  -5 -12   6   59.39   48.40
  -5  12   6   29.70   46.40
  -5  12   6   12.70   34.90
  -5  12   6 -104.39   55.19
  -4 -12   6   42.10   43.90
  -4 -12   6   39.60   36.80
  -4  12   6   41.00   34.90
  -4  12   6   39.10   49.99
  -4  12   6   41.50   49.30
  -3 -12   6   10.80   31.40
   3 -12  -6  -17.60   27.50
  -3 -12   6   21.40   35.30
  -3  12   6   53.39   34.90
   3  12  -6   30.10   40.10
  -3  12   6  -19.00   38.60
  -3  12   6  -76.99   38.00
   2 -12  -6   97.49   40.50
  -2 -12   6  140.79   41.40
  -2 -12   6   -0.60   28.40
  -2  12   6   70.29   31.00
  -2  12   6  141.39   52.79
  -2  12   6   39.30   40.10
   2  12  -6   87.39   38.90
   1 -12  -6  -16.30   27.20
  -1 -12   6    6.60   28.90
   1 -12  -6   33.90   31.90
  -1 -12   6  -26.20   28.10
   1  12  -6   38.30   38.10
  -1  12   6  -26.70   36.20
   1  12  -6    5.20   29.20
  -1  12   6   38.20   43.80
   0 -12  -6   96.99   35.50
   0 -12  -6   47.90   33.80
   0  12  -6  -23.00   25.20
   0  12   6   58.79   38.80
   0  12  -6   35.70   40.00
   0  12   6   45.50   37.30
  -1 -12  -6  -10.40   32.70
  -1 -12  -6   30.70   29.30
  -1  12  -6   48.00   38.10
  -1  12  -6   15.50   29.80
   1  12   6   37.10   34.40
  -2 -12  -6   13.10   29.20
  -2 -12  -6   -7.00   35.80
  -2 -12  -6   -4.50   34.40
  -2  12  -6  -56.69   34.70
  -2  12  -6  -12.90   27.40
  -3 -12  -6    5.20   29.50
  -3 -12  -6  -46.50   33.80
  -3 -12  -6   11.70   40.10
  -3  12  -6   -3.90   29.00
  -3  12  -6  -66.99   43.80
  -4 -12  -6   69.89   41.30
  -4 -12  -6   -6.90   28.80
  -4 -12  -6    3.40   40.40
  -4  12  -6  -12.60   45.10
  -4  12  -6   15.80   32.30
  -4 -13   6  -66.29   33.50
  -4 -13   6   -4.60   42.40
  -4  13   6  -35.00   50.79
  -4  13   6    4.60   58.69
  -4  13   6   -6.30   34.90
   3 -13  -6   44.00   35.40
  -3 -13   6   63.29   37.80
  -3 -13   6  -12.40   38.20
  -3  13   6  -24.30   50.89
  -3  13   6  -69.89   44.30
  -3  13   6   80.99   37.30
   3  13  -6  -26.20   40.80
  -2 -13   6   21.10   34.30
  -2 -13   6  -26.30   31.90
   2 -13  -6   -2.70   35.70
  -2  13   6 -115.59   36.60
  -2  13   6  117.69   54.99
   2  13  -6  -42.90   35.70
   1 -13  -6   24.90   37.10
   1  13  -6   19.40   41.90
  -1  13   6   58.99   43.70
  -1  13   6   56.69   44.60
   0 -13  -6   39.50   34.40
   0 -13  -6   27.30   34.50
   0  13   6   17.50   36.60
   0  13  -6  -26.10   32.20
   0  13  -6  -19.60   32.50
   0  13   6   26.80   38.70
  -1 -13  -6   32.90   28.70
  -1 -13  -6  110.29   44.40
  -1 -13  -6  169.88   47.00
  -1  13  -6  129.49   41.80
  -1  13  -6   33.20   39.60
   1  13   6  122.49   43.70
  -2 -13  -6  -14.80   37.00
  -2 -13  -6   39.10   34.70
  -2 -13  -6   26.30   38.70
  -2  13  -6   -4.60   34.50
  -2  13  -6  -34.90   38.20
  -3 -13  -6   56.19   42.80
  -3 -13  -6   30.70   37.00
  -3 -13  -6   23.30   43.20
  -3  13  -6  -16.20   33.10
  -3  13  -6   -7.50   46.40
  -3 -14   6   81.29   42.40
  -3 -14   6   55.29   45.00
  -3  14   6  -57.09   51.29
  -3  14   6   40.00   57.99
   3  14  -6   10.30   46.40
   2 -14  -6   22.00   39.60
   2  14  -6   21.90   39.90
  -2  14   6  -77.09   43.10
  -2  14   6   38.10   52.89
   1 -14  -6   27.70   35.60
  -1  14   6   44.30   48.90
   1  14  -6  111.79   51.19
  -1  14   6  -43.60   44.20
   0 -14  -6  -10.10   36.80
   0  14  -6  -10.10   40.60
   0  14   6    0.70   39.20
   0  14   6   48.40   43.40
  -1 -14  -6   19.10   39.30
  -1 -14  -6   45.00   38.70
  -1 -14  -6   45.10   39.20
  -1  14  -6   41.00   39.60
  -1  14  -6   83.19   45.80
  -2 -14  -6  -15.40   41.60
  -2 -14  -6  -28.60   37.10
  -2 -14  -6  -42.20   33.80
  -2  14  -6  -63.29   41.20
  -2  14  -6  -41.70   34.20
  -8   0   7   -2.90   37.80
  -8   0   7  -20.10   20.70
  -8   0   7   43.40   43.30
  -7   0   7  -19.10   17.80
  -7   0   7   70.89   38.20
  -7   0   7   65.59   39.10
  -6   0   7   20.80   30.60
  -6   0   7  -23.60   30.60
  -6   0   7   -1.60   17.80
  -5   0   7  175.98   28.00
  -5   0   7  147.39   24.20
  -5   0   7  182.28   36.50
  -5   0   7  228.38   39.10
   5   0  -7  179.08   25.40
  -5   0   7  184.88   22.20
  -4   0   7    0.90   11.90
  -4   0   7   -3.60   15.40
   4   0  -7  -20.40   13.70
  -4   0   7    1.00   14.80
  -4   0   7    9.90   20.00
  -4   0   7   21.60   24.50
  -3   0   7  251.37   34.70
  -3   0   7  261.97   21.70
  -3   0   7  275.67   27.10
   3   0  -7  291.57   24.80
   3   0  -7  262.67   27.30
  -3   0   7  318.67   29.50
  -3   0   7  285.27   37.30
   2   0  -7   13.20   15.70
  -2   0   7    4.60   14.90
  -2   0   7  -10.50   12.80
  -2   0   7    0.70   11.50
   2   0  -7   -7.70   17.40
  -2   0   7   -2.00   18.60
  -2   0   7    2.80   19.60
   2   0  -7  -15.00   12.90
   2   0  -7    5.80   13.90
  -1   0   7   17.50   14.80
  -1   0   7    7.40   13.20
   1   0  -7   22.70   14.40
   1   0  -7    5.70   15.70
  -1   0   7   16.40   16.40
  -1   0   7   -5.30   12.40
  -1   0   7    9.20   18.20
   1   0  -7   33.90   14.90
   1   0  -7   16.00   15.90
  -1   0   7   26.20   14.40
   0   0  -7   15.30   13.00
   0   0   7  -14.60   16.90
   0   0  -7  -11.00   16.70
   0   0   7    0.40   13.30
   0   0  -7   13.40   11.60
   0   0   7   10.30   14.50
   0   0  -7    1.30   17.00
   0   0  -7  -14.50   12.50
   0   0   7  -12.50   11.40
   0   0   7   -3.40   11.90
   0   0  -7    1.30   12.20
   0   0   7   10.60   12.00
  -1   0  -7  239.78   21.60
   1   0   7  256.67   21.40
  -1   0  -7  272.07   20.50
  -1   0  -7  237.78   28.50
  -1   0  -7  225.98   22.60
   1   0   7  226.28   19.10
  -1   0  -7  264.07   22.50
  -2   0  -7   -5.30   10.40
  -2   0  -7  -14.00   16.80
  -2   0  -7   18.30   11.90
  -2   0  -7   24.00   14.30
  -3   0  -7  295.27   36.40
  -3   0  -7  256.67   20.10
  -3   0  -7  263.57   19.90
  -3   0  -7  270.57   29.30
  -4   0  -7   -5.90    8.20
  -4   0  -7   49.90   24.70
  -4   0  -7   14.00   22.80
  -4   0  -7    1.60    7.30
  -4   0  -7  -23.50   15.80
  -5   0  -7  -20.50   23.60
  -5   0  -7   34.20   30.00
  -5   0  -7   62.19   31.70
  -5   0  -7  -28.20   20.50
  -6   0  -7  -14.40   28.10
  -6   0  -7  -16.70   35.70
  -6   0  -7  -14.00   29.90
  -6   0  -7  -21.40   27.00
  -7   0  -7   -0.10   32.60
  -7   0  -7  -56.89   39.10
  -7   0  -7   10.50   38.50
  -7   0  -7  -16.60   31.70
  -8  -1   7    2.90   46.10
  -8  -1   7   37.10   44.30
  -8   1   7   82.39   45.10
  -8   1   7   26.30   22.30
  -8   1   7   20.80   47.00
  -8   1   7  -25.40   37.30
  -7  -1   7   23.10   20.50
  -7  -1   7   24.90   34.40
  -7  -1   7  -38.40   32.90
  -7   1   7   98.29   40.50
  -7   1   7    0.00   20.60
  -7   1   7    6.50   36.50
  -6  -1   7  -10.60   18.10
  -6  -1   7   27.60   33.10
  -6  -1   7   -5.90   27.10
  -6   1   7   33.20   29.00
  -6   1   7   18.30   30.40
  -5  -1   7    0.50   26.40
  -5  -1   7    5.40   10.80
   5  -1  -7   42.90   18.60
  -5  -1   7   72.59   29.50
  -5  -1   7    3.20   16.40
  -5  -1   7   10.20   17.70
   5   1  -7    5.90   16.40
  -5   1   7   12.00   17.20
  -5   1   7   22.00   26.30
  -5   1   7   26.60   26.90
  -5   1   7   21.30   19.90
  -4  -1   7  167.68   23.80
  -4  -1   7   96.19   26.80
   4  -1  -7  146.89   22.40
  -4  -1   7  153.78   14.80
  -4  -1   7  119.89   21.20
  -4  -1   7  159.88   33.00
  -4   1   7  109.49   20.10
  -4   1   7  110.39   29.60
  -4   1   7  122.49   21.80
  -4   1   7  111.99   32.20
   4   1  -7  110.19   21.00
  -4   1   7  147.89   23.70
   3  -1  -7  232.98   25.90
  -3  -1   7  249.08   27.00
  -3  -1   7  222.78   17.80
  -3  -1   7  215.48   24.30
   3  -1  -7  283.57   27.10
  -3  -1   7  165.48   29.10
  -3  -1   7  268.57   36.10
  -3   1   7  216.18   26.40
   3   1  -7  197.78   24.10
  -3   1   7  257.57   38.50
  -3   1   7  204.38   23.70
  -3   1   7  214.88   25.30
  -3   1   7  202.58   31.60
   3   1  -7  230.48   19.30
   2  -1  -7 1014.50   49.20
   2  -1  -7 1069.89   50.09
  -2  -1   7 1022.60   59.59
  -2  -1   7 1121.49   49.99
  -2  -1   7 1098.89   51.19
  -2  -1   7 1067.59   48.10
  -2  -1   7 1115.99   60.69
   2  -1  -7 1136.59   52.89
   2   1  -7  986.70   49.10
  -2   1   7 1125.09   60.09
   2   1  -7 1115.89   51.19
  -2   1   7 1051.69   51.59
  -2   1   7 1114.29   50.99
   2   1  -7 1086.39   59.89
  -2   1   7 1128.09   63.39
   2   1  -7 1066.99   48.60
  -2   1   7  973.70   49.99
  -1  -1   7   48.50   19.20
  -1  -1   7   74.79   16.90
  -1  -1   7   80.69   16.30
   1  -1  -7   92.79   19.50
  -1  -1   7   84.39   18.00
   1  -1  -7   75.19   20.30
  -1  -1   7   75.69   18.10
  -1  -1   7   81.19   18.70
   1  -1  -7   71.89   19.00
   1  -1  -7   61.79   16.50
   1   1  -7   80.29   17.90
  -1   1   7   58.99   17.70
  -1   1   7   69.69   18.10
   1   1  -7   95.69   17.70
  -1   1   7   82.49   20.80
  -1   1   7   81.89   21.20
  -1   1   7   73.99   16.80
   1   1  -7   59.59   18.40
   1   1  -7   62.69   16.20
   0  -1   7 1164.88   56.59
   0  -1   7 1207.38   50.09
   0  -1  -7 1105.09   57.79
   0  -1   7 1119.59   54.59
   0  -1   7 1119.49   49.40
   0  -1  -7 1103.29   50.39
   0  -1  -7 1188.08   57.79
   0  -1   7 1159.58   58.99
   0  -1   7 1143.39   51.79
   0  -1  -7 1136.29   49.60
   0   1  -7 1175.38   54.39
   0   1   7 1166.88   50.09
   0   1   7 1148.19   56.99
   0   1   7 1123.99   49.20
   0   1  -7 1104.99   55.69
   0   1  -7 1105.69   49.90
   0   1  -7 1164.18   51.69
   0   1  -7 1148.19   50.29
   0   1  -7 1125.89   57.89
   0   1   7 1045.50   59.09
   0   1   7 1203.78   48.40
   0   1   7 1130.49   58.79
  -1  -1  -7   32.60   13.90
  -1  -1  -7   40.10   18.10
  -1  -1  -7   34.40   13.70
  -1  -1  -7   80.39    9.20
   1  -1   7   45.80   13.10
   1  -1   7   46.90   14.90
  -1  -1  -7    9.40   16.70
  -1   1  -7   21.20   13.70
  -1   1  -7   14.60   19.00
  -1   1  -7   60.89   14.80
  -1   1  -7   45.70   22.20
  -1   1  -7  112.99   17.70
   2  -1   7  295.37   20.70
  -2  -1  -7  404.16   39.70
   2  -1   7  282.17   27.00
  -2  -1  -7  319.47   23.90
  -2  -1  -7  328.47   31.80
  -2  -1  -7  314.77   22.80
  -2  -1  -7  296.47   23.00
  -2   1  -7  321.37   23.60
   2   1   7  319.77   21.70
  -2   1  -7  316.87   23.10
  -2   1  -7  305.37   28.70
  -2   1  -7  405.56   40.40
  -3  -1  -7  -16.10   17.60
  -3  -1  -7   -3.30   10.00
  -3  -1  -7    0.00   15.30
  -3  -1  -7   -6.20    9.90
  -3   1  -7    2.80   10.40
  -3   1  -7   16.30   11.10
  -3   1  -7  -12.80   13.60
  -3   1  -7   -2.00   19.20
  -3   1  -7    4.80   17.60
  -4  -1  -7   25.50   20.70
  -4  -1  -7    6.00    8.00
  -4  -1  -7  -14.90   23.20
  -4  -1  -7   -5.90    8.90
  -4   1  -7   37.40   24.40
  -4   1  -7   -2.90    9.40
  -4   1  -7  -15.00   16.20
  -4   1  -7    9.60   26.50
  -4   1  -7   -5.80    8.60
  -5  -1  -7   25.20   30.20
  -5  -1  -7   40.30   26.30
  -5  -1  -7  -32.90   20.80
  -5   1  -7  -14.40   28.60
  -5   1  -7   -9.60   21.10
  -5   1  -7   21.30   27.00
  -5   1  -7   41.80   32.30
  -6  -1  -7  -15.00   28.30
  -6  -1  -7   18.50   28.00
  -6  -1  -7   -6.70   34.20
  -6  -1  -7  -10.80   29.10
  -6   1  -7  -62.69   32.20
  -6   1  -7   -6.10   27.50
  -6   1  -7   10.70   30.60
  -6   1  -7   -9.70   31.70
  -7  -1  -7  -47.60   30.00
  -7  -1  -7   -3.90   40.60
  -7  -1  -7  -22.70   34.10
  -7   1  -7    3.70   38.00
  -7   1  -7    5.60   39.60
  -7   1  -7  -39.90   34.80
  -8  -2   7   -8.40   40.40
  -8  -2   7   36.70   47.50
  -8  -2   7   17.90   22.30
  -8   2   7   -3.00   42.80
  -8   2   7   84.29   43.80
  -8   2   7   -3.10   44.00
  -8   2   7   -5.30   20.50
  -7  -2   7   11.60   35.70
  -7  -2   7   57.59   40.60
  -7  -2   7   16.80   21.20
  -7   2   7   17.50   21.70
  -7   2   7    6.00   33.30
  -7   2   7   60.09   36.90
  -7   2   7   37.80   37.50
  -6  -2   7   80.59   34.50
  -6  -2   7   45.20   21.10
  -6  -2   7   52.89   30.30
  -6   2   7   85.09   30.50
  -6   2   7   75.89   35.20
  -6   2   7  103.69   24.40
  -6   2   7   76.99   37.50
  -5  -2   7   48.60   29.60
  -5  -2   7   39.40   17.70
  -5  -2   7   33.30   19.80
  -5  -2   7   51.59   27.40
  -5   2   7   65.29   21.60
  -5   2   7   39.30   26.70
  -5   2   7   56.09   31.50
  -4  -2   7  139.09   23.20
  -4  -2   7  146.79   33.20
  -4  -2   7  180.58   25.20
   4  -2  -7  150.08   25.20
   4  -2  -7  110.39   20.60
  -4  -2   7  109.69   30.50
  -4   2   7  114.59   21.60
   4   2  -7  122.79   20.80
  -4   2   7  154.28   29.10
  -4   2   7  112.59   30.60
  -3  -2   7  169.38   22.80
   3  -2  -7  148.59   23.70
  -3  -2   7  167.98   23.30
  -3  -2   7  162.08   29.70
   3  -2  -7  198.78   26.10
  -3  -2   7  126.49   26.70
  -3   2   7  179.78   23.60
   3   2  -7  163.68   24.20
  -3   2   7  187.88   29.70
  -3   2   7  142.49   31.60
  -3   2   7  182.28   24.20
   3   2  -7  172.08   13.20
  -3   2   7  168.58   24.10
   2  -2  -7   82.19   19.50
   2  -2  -7   72.99   19.10
  -2  -2   7   63.59   17.50
  -2  -2   7   53.89   17.50
   2  -2  -7   97.09   21.30
  -2  -2   7   61.99   21.80
  -2  -2   7   82.89   22.20
  -2   2   7   67.99   18.60
  -2   2   7  102.79   19.90
  -2   2   7   66.59   23.20
   2   2  -7   98.79   14.20
   2   2  -7   66.39   17.70
   2   2  -7   71.69   20.00
  -2   2   7  121.19   28.00
  -2   2   7   96.89   20.40
   1  -2  -7   14.80   15.70
   1  -2  -7   48.30   18.50
  -1  -2   7    4.20   15.80
  -1  -2   7   32.50   20.20
  -1  -2   7    7.00   14.00
  -1  -2   7    7.00   14.20
   1  -2  -7   34.00   20.10
   1  -2  -7   40.10   19.50
  -1  -2   7   14.10   16.30
   1   2  -7   30.60   15.90
   1   2  -7   33.00   15.30
  -1   2   7   43.70   20.10
  -1   2   7   21.50   15.60
   1   2  -7   12.40   18.40
   1   2  -7   41.70   14.70
  -1   2   7   20.90   14.50
  -1   2   7   26.70   19.60
   0  -2  -7  114.99   24.20
   0  -2  -7  156.78   20.10
   0  -2  -7  139.69   21.00
   0  -2   7  182.98   24.30
   0  -2   7  152.98   19.70
   0  -2   7  139.59   12.90
   0  -2  -7  144.29   24.00
   0  -2   7  139.29   24.80
   0  -2   7  147.99   20.30
   0   2  -7  162.08   20.70
   0   2   7  142.99   19.70
   0   2  -7  124.49   21.90
   0   2  -7  110.59   20.00
   0   2   7  136.39   10.70
   0   2   7  148.89   19.40
   0   2   7  129.09   10.80
   0   2  -7  172.68   25.20
   0   2   7  175.78   26.50
   0   2  -7  143.79   23.20
  -1  -2  -7  197.48   27.50
  -1  -2  -7  241.38   23.10
   1  -2   7  237.48   21.90
   1  -2   7  296.37   31.30
  -1  -2  -7  205.58   28.60
   1  -2   7  222.28   25.90
  -1  -2  -7  284.77   24.40
  -1   2  -7  261.27   23.70
   1   2   7  270.87   30.90
  -1   2  -7  276.67   28.00
  -1   2  -7  288.57   32.00
   1   2   7  310.37   24.70
  -1   2  -7  213.58   22.40
  -1   2  -7  242.98   29.50
  -2  -2  -7  710.73   49.10
  -2  -2  -7  747.03   36.30
   2  -2   7  702.53   34.70
  -2  -2  -7  753.12   36.80
   2  -2   7  728.73   44.20
  -2  -2  -7  802.22   37.10
  -2   2  -7  738.03   37.30
  -2   2  -7  775.62   37.40
   2   2   7  783.42   35.80
  -2   2  -7  727.83   38.30
  -2   2  -7  768.72   51.39
  -2   2  -7  791.12   45.90
  -3  -2  -7  140.89   16.90
  -3  -2  -7  139.89   27.80
  -3  -2  -7  151.88   17.20
  -3  -2  -7  195.18   23.60
  -3   2  -7  115.19   16.70
  -3   2  -7  187.08   25.00
  -3   2  -7  150.98   18.30
  -3   2  -7  116.39   27.30
  -3   2  -7  147.19   24.90
  -4  -2  -7  246.28   37.80
  -4  -2  -7  169.58   17.00
  -4  -2  -7  216.68   30.40
  -4  -2  -7  177.18   16.60
  -4   2  -7  206.18   19.00
  -4   2  -7  196.58   31.30
  -4   2  -7  180.18   37.50
  -4   2  -7  189.98   31.40
  -4   2  -7  186.28   17.40
  -5  -2  -7   38.50   26.30
  -5  -2  -7  -17.00   26.60
  -5  -2  -7  105.49   29.10
  -5   2  -7  105.49   33.10
  -5   2  -7  103.49   35.60
  -5   2  -7  116.19   34.30
  -5   2  -7   42.20   23.90
  -6  -2  -7   49.40   30.10
  -6  -2  -7   26.10   31.00
  -6  -2  -7  -18.60   31.20
  -6  -2  -7   23.50   38.30
  -6   2  -7   11.40   29.70
  -6   2  -7   -7.40   37.00
  -6   2  -7   81.89   38.60
  -6   2  -7  -51.69   35.10
  -7  -2  -7   18.10   33.70
  -7  -2  -7    5.40   44.50
  -7  -2  -7  -73.89   34.60
  -7   2  -7   25.90   39.20
  -7   2  -7  -29.00   36.70
  -8  -3   7   -9.40   22.50
  -8  -3   7  -50.89   35.80
  -8  -3   7   -3.70   37.30
  -8   3   7   16.50   42.00
  -8   3   7  -12.20   37.30
  -8   3   7  -19.10   23.90
  -7  -3   7  -43.60   29.70
  -7  -3   7  -29.40   18.50
  -7  -3   7    1.80   37.80
  -7   3   7   34.20   41.90
  -7   3   7  -28.00   37.70
  -7   3   7   51.79   36.90
  -7   3   7   -3.30   19.60
  -6  -3   7   -8.80   26.50
  -6  -3   7   -4.00   17.80
  -6  -3   7   17.30   29.70
  -6   3   7   20.00   35.10
  -6   3   7   26.30   21.20
  -6   3   7   34.30   30.10
  -6   3   7  -15.90   26.90
  -5  -3   7  -24.10   25.80
  -5  -3   7    7.30   17.50
  -5  -3   7   38.70   30.90
  -5  -3   7   24.10   19.90
  -5   3   7   -8.00   24.10
  -5   3   7   48.10   26.80
  -5   3   7    4.90   18.20
  -5   3   7   43.80   27.30
  -5   3   7   24.00   19.40
  -4  -3   7  -15.90   15.70
  -4  -3   7  -14.20   15.60
   4  -3  -7  -26.60   18.30
  -4  -3   7   -7.60   20.50
  -4  -3   7    5.20   21.30
   4  -3  -7   10.40   10.80
  -4   3   7   29.70   22.30
  -4   3   7  -20.00   15.90
  -4   3   7   19.40   17.20
  -4   3   7   -7.00   20.80
  -4   3   7   15.70   23.60
   4   3  -7  -14.20   11.10
  -3  -3   7  515.85   36.00
  -3  -3   7  544.25   36.50
   3  -3  -7  470.15   39.20
   3  -3  -7  521.05   36.30
  -3  -3   7  532.15   42.30
  -3  -3   7  455.15   41.20
  -3   3   7  532.25   37.40
  -3   3   7  461.65   39.50
   3   3  -7  498.55   35.80
  -3   3   7  518.35   40.60
  -3   3   7  586.94   49.90
  -3   3   7  492.15   36.70
  -2  -3   7   -4.70   16.00
   2  -3  -7   10.50   16.10
   2  -3  -7   13.40   19.50
  -2  -3   7   21.10   17.80
   2  -3  -7   -1.20   17.10
  -2  -3   7  -11.10   14.50
  -2  -3   7   20.70   18.60
   2   3  -7   23.50   10.90
  -2   3   7   15.00   19.40
  -2   3   7    5.70   16.50
   2   3  -7   17.30   17.00
   2   3  -7   19.40   15.60
  -2   3   7   13.70   18.20
  -2   3   7    6.60   20.30
  -2   3   7   12.10   16.70
  -1  -3   7 2658.73  118.49
   1  -3  -7 2834.22  117.19
   1  -3  -7 2733.63  103.09
  -1  -3   7 2861.81  104.39
  -1  -3   7 2544.25  118.69
   1  -3  -7 2759.42  103.29
  -1   3   7 2694.93  103.19
  -1   3   7 2688.83  127.09
  -1   3   7 2709.53  119.49
  -1   3   7 2775.02  112.59
   1   3  -7 2680.63  103.19
   1   3  -7 2840.42  103.89
  -1   3   7 2874.11  103.99
   1   3  -7 2778.92  110.49
   1   3  -7 2795.92  119.89
   0  -3  -7  -16.60   16.20
   0  -3  -7   -3.90   19.70
   0  -3   7  -30.40   17.70
   0  -3   7  -16.90   16.20
   0  -3  -7   11.60   15.90
   0  -3   7    7.80    7.50
   0  -3  -7   11.50   15.30
   0  -3   7   21.00   15.90
   0   3   7    1.50    7.50
   0   3   7    2.30   20.00
   0   3  -7   -4.30   15.30
   0   3  -7   21.20   16.30
   0   3   7  -14.60   12.90
   0   3  -7   -3.70   18.60
   0   3  -7  -27.60   16.30
   1  -3   7  866.71   42.70
   1  -3   7  997.50   52.49
  -1  -3  -7  938.81   45.20
   1  -3   7  994.30   54.59
  -1  -3  -7  904.11   53.39
  -1  -3  -7  963.00   44.90
  -1   3  -7  959.90   45.90
  -1   3  -7  896.91   50.69
   1   3   7  931.41   57.89
  -1   3  -7  976.20   45.80
   1   3   7  922.81   44.20
  -1   3  -7  941.21   53.89
  -2  -3  -7    2.40   12.20
  -2  -3  -7   -3.60   12.40
   2  -3   7   -3.40   11.30
  -2  -3  -7  -13.30   19.60
  -2  -3  -7   10.70    9.90
  -2  -3  -7   28.20    9.30
  -2   3  -7   -4.60   12.80
  -2   3  -7   -5.00   10.30
  -2   3  -7  -51.39   13.60
   2   3   7   -3.30   11.50
  -2   3  -7   17.70   19.30
  -2   3  -7   -9.10   12.80
   3  -3   7   17.10   10.60
  -3  -3  -7   55.49   16.10
  -3  -3  -7    5.40   20.90
  -3  -3  -7   21.30   12.80
  -3  -3  -7   20.20   13.70
  -3   3  -7   80.59   23.50
  -3   3  -7   22.60   18.10
   3   3   7   38.00   12.10
  -3   3  -7   19.50   13.10
  -3   3  -7   28.40   14.20
  -4  -3  -7   13.60   12.70
  -4  -3  -7  -12.50   21.20
  -4  -3  -7   44.20   20.40
  -4  -3  -7  -22.50   10.40
  -4   3  -7   27.80   25.00
  -4   3  -7   -2.10   23.40
  -4   3  -7  -23.70   11.90
  -4   3  -7   18.10   12.60
  -5  -3  -7   47.80   25.90
  -5  -3  -7   -7.40   21.90
  -5  -3  -7    4.30   31.70
  -5  -3  -7  -13.70    9.80
  -5  -3  -7   11.40    9.40
  -5   3  -7   -7.50   11.30
  -5   3  -7   21.50   11.30
  -5   3  -7   59.59   29.70
  -5   3  -7  -15.90   27.40
  -5   3  -7   -4.20   25.00
  -5   3  -7  -10.80   28.50
  -6  -3  -7   59.19   33.60
  -6  -3  -7    1.80   25.70
  -6  -3  -7    8.70   36.20
  -6   3  -7   42.70   38.80
  -6   3  -7   47.70   35.70
  -7  -3  -7  -21.50   46.50
  -7  -3  -7   50.09   34.50
  -7  -3  -7  -48.50   39.40
  -7   3  -7   32.90   42.80
  -7   3  -7   16.50   38.30
  -8  -4   7   51.79   47.30
  -8  -4   7  -24.50   46.40
  -8  -4   7  -17.50   22.30
  -8   4   7   12.60   26.40
  -8   4   7   16.50   43.40
  -8   4   7  -17.80   38.20
  -7  -4   7   23.60   21.50
  -7  -4   7   -9.80   34.60
  -7  -4   7   15.80   37.30
  -7   4   7   31.20   36.60
  -7   4   7   -5.00   20.90
  -7   4   7   10.10   35.90
  -7   4   7  -16.20   38.00
  -6  -4   7   57.49   38.10
  -6  -4   7   44.60   37.80
  -6  -4   7   53.79   22.20
  -6   4   7   51.79   34.80
  -6   4   7   47.20   23.70
  -6   4   7    8.30   32.10
  -6   4   7   82.89   32.50
  -5  -4   7   32.50   29.30
  -5  -4   7   53.49   21.70
  -5  -4   7   31.50   27.30
  -5   4   7   58.89   27.50
  -5   4   7   -5.50   25.50
  -5   4   7   20.70   26.90
  -5   4   7   22.20   19.50
   4  -4  -7  188.28   32.00
  -4  -4   7  153.48   26.20
  -4  -4   7  130.09   30.40
  -4  -4   7  164.98   24.80
  -4  -4   7  123.99   31.20
  -4   4   7  164.08   30.20
  -4   4   7  178.58   37.80
  -4   4   7  177.78   26.90
  -4   4   7  161.98   32.40
  -4   4   7  175.78   27.00
  -3  -4   7  209.18   34.00
  -3  -4   7  200.88   34.30
  -3  -4   7  282.17   31.40
   3  -4  -7  203.08   32.20
  -3  -4   7  217.88   27.60
   3  -4  -7  226.68   28.50
  -3   4   7  223.58   34.90
  -3   4   7  318.87   33.00
  -3   4   7  278.47   33.30
   3   4  -7  200.78   26.70
  -3   4   7  251.37   29.50
  -3   4   7  177.38   36.70
  -2  -4   7   62.59   18.50
  -2  -4   7   52.19   22.80
   2  -4  -7   47.90   22.90
  -2  -4   7   40.50   19.40
   2  -4  -7   68.49   20.60
  -2  -4   7   56.39   21.40
   2   4  -7   57.19   23.00
  -2   4   7   42.50   17.10
   2   4  -7   63.29   18.30
   2   4  -7   47.70   12.80
  -2   4   7   40.00   21.90
  -2   4   7  -14.30   16.10
  -2   4   7    9.50   21.10
  -2   4   7   27.50   18.50
  -1  -4   7   15.20   20.10
   1  -4  -7   49.20   23.20
  -1  -4   7   22.30   16.20
   1  -4  -7   13.50   17.00
   1  -4  -7   14.20   17.30
  -1  -4   7   11.40   17.60
  -1   4   7    1.70   17.40
   1   4  -7   31.20   17.30
   1   4  -7   15.80   20.10
   1   4  -7   19.50   16.20
  -1   4   7    6.50   15.10
  -1   4   7    7.00   16.80
  -1   4   7   27.70   15.00
  -1   4   7   25.00   25.20
   0  -4   7  213.38   25.70
   0  -4  -7  187.28   25.10
   0  -4   7  170.68   26.90
   0  -4   7  195.68   18.30
   0  -4  -7  172.68   28.10
   0   4  -7  164.28   23.90
   0   4  -7  193.18   27.10
   0   4   7  212.18   18.00
   0   4  -7  236.58   26.70
   0   4   7  235.48   26.10
   0   4   7  243.68   36.40
   0   4  -7  268.67   34.30
  -1  -4  -7   57.59   17.70
   1  -4   7   59.39   20.50
  -1  -4  -7   88.39   24.80
  -1   4  -7   32.50   16.60
  -1   4  -7   68.99   23.80
  -1   4  -7   55.49   19.40
  -1   4  -7   88.99   18.70
   1   4   7   62.39   26.70
  -2  -4  -7  174.78   29.20
  -2  -4  -7  202.78   23.90
  -2  -4  -7  230.88   19.30
   2  -4   7  207.98   22.90
  -2   4  -7  259.17   18.90
   2   4   7  248.88   23.80
  -2   4  -7  260.97   34.60
  -2   4  -7  229.58   25.10
  -2   4  -7  221.68   26.90
  -2   4  -7  198.18   23.60
  -3  -4  -7   47.00   15.10
   3  -4   7   13.60   12.30
  -3  -4  -7   22.30   23.00
  -3  -4  -7   19.20   14.00
  -3   4  -7   34.00   16.60
  -3   4  -7  -35.50   15.60
  -3   4  -7   22.40   14.60
  -3   4  -7  -10.60   26.10
   3   4   7    0.70   11.50
  -3   4  -7   20.20   23.80
  -4  -4  -7  129.99   29.90
  -4  -4  -7  103.19   17.00
  -4  -4  -7  120.99   18.50
  -4   4  -7   97.99   31.80
  -4   4  -7   73.59   17.20
  -4   4  -7   36.00   24.80
  -4   4  -7   93.89   19.00
  -5  -4  -7   16.20   30.20
  -5  -4  -7  111.49   28.60
  -5  -4  -7    6.10   14.10
  -5  -4  -7   34.10   13.20
  -5  -4  -7   43.20   25.40
  -5   4  -7   -5.00   14.90
  -5   4  -7   39.20   30.70
  -5   4  -7  -39.30   27.50
  -5   4  -7   22.00   26.60
  -5   4  -7   25.20   14.20
  -6  -4  -7   -0.20   27.20
  -6  -4  -7   57.89   43.50
  -6   4  -7   -8.60   32.30
  -6   4  -7    9.30    8.80
  -6   4  -7   53.49   39.60
  -6   4  -7    1.30   10.60
  -7  -4  -7    0.10   47.60
  -7  -4  -7 -140.49   39.20
  -7   4  -7   66.89   49.50
  -7   4  -7  -33.30   40.40
  -7  -5   7  -16.20   34.30
  -7  -5   7  -11.30   33.80
  -7  -5   7   -5.60   22.50
  -7   5   7   13.60   38.10
  -7   5   7  -12.20   24.30
  -7   5   7   48.90   40.60
  -6  -5   7   -1.20   29.90
  -6  -5   7    6.50   20.70
  -6  -5   7   64.39   36.60
  -6   5   7    4.60   29.10
  -6   5   7   26.80   24.60
  -6   5   7    5.90   31.60
  -6   5   7    6.20   28.90
  -5  -5   7    8.10   28.10
  -5  -5   7    4.00   19.80
  -5  -5   7  -24.40   26.70
  -5   5   7    0.60   29.20
  -5   5   7   32.10   28.60
  -5   5   7   -0.10   19.80
  -5   5   7   22.40   26.40
  -4  -5   7   30.10   27.80
  -4  -5   7   -4.60   26.40
  -4  -5   7    3.60   17.20
   4  -5  -7   25.70   23.80
  -4  -5   7   22.30   19.00
   4  -5  -7   43.00   17.50
  -4   5   7   37.70   28.00
  -4   5   7   10.80   19.00
  -4   5   7   23.00   22.40
  -4   5   7   26.50   19.10
   4   5  -7   -2.30   11.50
  -4   5   7   20.10   27.80
  -3  -5   7   97.39   23.90
   3  -5  -7  128.99   29.50
  -3  -5   7  139.09   32.30
  -3  -5   7  114.59   23.70
   3  -5  -7  107.59   22.40
  -3   5   7  117.69   25.20
   3   5  -7   95.49   22.60
  -3   5   7   87.69   32.00
  -3   5   7  151.88   25.30
  -3   5   7  133.99   28.10
  -3   5   7  138.19   26.70
   2  -5  -7  418.56   37.90
  -2  -5   7  459.65   36.00
   2  -5  -7  460.15   37.10
  -2  -5   7  429.86   39.70
  -2  -5   7  432.26   37.90
  -2   5   7  400.56   35.90
   2   5  -7  411.26   27.40
   2   5  -7  455.45   37.80
  -2   5   7  381.96   47.70
  -2   5   7  466.45   38.40
  -2   5   7  433.56   37.30
  -2   5   7  427.26   37.10
   2   5  -7  469.45   47.30
  -1  -5   7  162.28   24.90
   1  -5  -7  230.48   34.40
  -1  -5   7  225.88   27.30
  -1  -5   7  157.78   27.00
   1  -5  -7  183.78   26.10
  -1   5   7  194.98   23.70
   1   5  -7  144.69   24.80
  -1   5   7  178.38   25.40
  -1   5   7  159.68   32.10
   1   5  -7  174.58   30.90
  -1   5   7  224.48   28.00
   1   5  -7  189.18   27.10
   0  -5  -7  697.03   41.60
   0  -5  -7  634.04   34.00
   0  -5   7  579.94   38.20
   0  -5  -7  589.04   40.40
   0  -5   7  620.64   36.40
   0  -5  -7  639.74   45.50
   0  -5   7  624.14   41.40
   0   5  -7  682.23   41.40
   0   5  -7  731.03   43.70
   0   5   7  645.54   40.20
   0   5  -7  633.64   49.30
   0   5  -7  592.24   39.00
   0   5   7  611.74   52.89
   0   5   7  625.44   35.50
   1  -5   7  108.89   20.80
  -1  -5  -7   84.29   19.80
  -1  -5  -7  103.39   13.30
  -1  -5  -7  117.79   21.20
   1  -5   7   11.80   12.90
   1  -5   7   89.29   12.70
  -1  -5  -7   92.19   26.70
  -1   5  -7   67.69   19.30
  -1   5  -7   86.09   20.20
   1   5   7  102.99   30.80
  -1   5  -7  107.89   20.30
  -1   5  -7   90.69   26.70
  -2  -5  -7  148.49   18.80
  -2  -5  -7  123.39   21.70
   2  -5   7  122.29   20.90
  -2  -5  -7  136.99   21.40
   2  -5   7  164.98   17.50
  -2  -5  -7  139.79   28.20
  -2   5  -7  142.09   22.80
  -2   5  -7  143.19   22.90
  -2   5  -7  208.68   20.20
   2   5   7  174.08   21.80
  -2   5  -7  134.99   30.20
  -2   5  -7  142.69   22.60
  -3  -5  -7    1.70   13.60
   3  -5   7   19.90   15.00
  -3  -5  -7   33.70   23.10
  -3  -5  -7   -9.10   14.30
  -3  -5  -7  -20.00   13.20
  -3   5  -7    8.00   17.60
  -3   5  -7    6.20   15.90
  -3   5  -7   -4.00   27.10
  -3   5  -7  -30.20   16.10
   3   5   7   -7.40   13.30
  -3   5  -7  -37.80   14.20
  -4  -5  -7   -6.50   14.90
  -4  -5  -7   -1.80   14.00
  -4  -5  -7   34.30   25.40
  -4   5  -7  -72.49   19.20
  -4   5  -7   10.50   16.70
  -4   5  -7   -8.00   17.10
  -4   5  -7   27.20   26.90
  -5  -5  -7    0.00   14.30
  -5  -5  -7   20.20   24.90
  -5  -5  -7   54.49   36.60
  -5   5  -7   -0.40   15.80
  -5   5  -7    9.30   18.40
  -5   5  -7  -21.20   33.00
  -5   5  -7  -12.90   29.40
  -6  -5  -7   15.70   14.80
  -6  -5  -7   26.80   30.40
  -6  -5  -7   -9.60   13.80
  -6  -5  -7    2.10   34.20
  -6   5  -7   20.50   16.20
  -6   5  -7  -17.00   42.10
  -7  -6   7   -1.90   36.80
  -7  -6   7   -9.20   23.40
  -7  -6   7   -5.00   40.60
  -7   6   7  -27.30   36.20
  -7   6   7   -2.00   36.70
  -7   6   7   38.60   28.90
  -6  -6   7   34.10   33.90
  -6  -6   7   -5.20   31.40
  -6  -6   7  -12.80   22.20
  -6   6   7   20.50   26.00
  -6   6   7  -27.90   34.20
  -6   6   7  -16.90   33.70
  -5  -6   7  171.68   42.50
  -5  -6   7  159.28   38.90
  -5  -6   7  144.89   30.60
  -5   6   7   46.40   34.20
  -5   6   7  122.19   36.30
  -5   6   7  144.59   30.80
  -5   6   7  161.08   33.90
  -4  -6   7    9.50   27.60
   4  -6  -7   11.00   24.70
  -4  -6   7    6.40   19.90
   4  -6  -7  -14.60   19.80
  -4   6   7  -21.60   25.00
  -4   6   7  -11.90   18.50
  -4   6   7   11.70   23.90
  -4   6   7   -4.60   29.70
  -3  -6   7  132.09   25.80
  -3  -6   7  140.59   26.80
   3  -6  -7  139.29   25.80
  -3  -6   7  129.59   31.40
   3  -6  -7  166.58   34.50
   3   6  -7  172.58   16.10
  -3   6   7  134.99   25.60
  -3   6   7  185.68   30.50
  -3   6   7   90.29   33.30
   3   6  -7  142.09   26.70
  -3   6   7  136.29   28.50
  -3   6   7  187.28   33.30
   2  -6  -7   -7.70   16.50
  -2  -6   7   21.00   20.40
  -2  -6   7    5.20   19.50
   2  -6  -7    9.70   21.70
  -2  -6   7   18.80   22.80
  -2   6   7    1.40   18.40
   2   6  -7   13.20   19.40
  -2   6   7  -19.60   24.30
   2   6  -7   18.80   13.80
  -2   6   7   13.30   20.00
  -2   6   7   -1.40   16.80
   2   6  -7    4.80   24.40
  -1  -6   7   26.40   18.40
  -1  -6   7   27.60   19.60
   1  -6  -7   -7.20   14.70
   1  -6  -7   -4.60   20.00
   1  -6  -7    0.90   19.60
  -1  -6   7    0.00   18.90
   1  -6  -7   17.10   18.00
  -1   6   7   12.90   16.80
   1   6  -7    7.30   19.10
   1   6  -7   10.70   22.20
   1   6  -7    4.40   18.20
  -1   6   7    4.90   25.00
  -1   6   7   22.70   19.50
   0  -6   7   -4.50   17.50
   0  -6  -7   11.90   19.40
   0  -6  -7  -22.20   17.50
   0  -6   7   -6.90   16.40
   0  -6  -7   -3.50   22.30
   0  -6   7   11.20   17.00
   0  -6  -7    5.80   14.30
   0   6   7    4.80   15.90
   0   6   7   19.10   24.60
   0   6  -7   13.20   22.20
   0   6   7   16.70   17.00
   0   6  -7   17.00   18.80
   0   6  -7   30.60   19.60
  -1  -6  -7  137.89   18.60
  -1  -6  -7  130.99   22.90
   1  -6   7  181.98   25.30
   1  -6   7  144.19   23.00
  -1  -6  -7  107.39   28.30
   1  -6   7  122.69   18.60
  -1  -6  -7  171.48   26.60
  -1   6  -7   84.79   30.40
   1   6   7  142.89   24.00
  -1   6  -7  140.69   23.50
   1   6   7  167.28   20.10
   1   6   7  149.49   33.70
  -1   6  -7  155.88   26.10
  -1   6  -7  170.98   25.40
  -2  -6  -7    0.20   16.30
  -2  -6  -7   -1.70   23.00
   2  -6   7    7.00   13.40
   2  -6   7   16.80   17.30
  -2  -6  -7    3.60   16.70
  -2  -6  -7   -9.60   15.30
  -2   6  -7   27.40   15.70
  -2   6  -7   21.80   27.50
  -2   6  -7   12.10   18.30
   2   6   7    4.10   15.10
  -2   6  -7    6.60   15.50
  -2   6  -7    3.10   17.10
  -3  -6  -7  200.68   27.40
  -3  -6  -7  201.78   35.50
  -3  -6  -7  196.28   27.00
  -3  -6  -7  196.08   26.20
  -3   6  -7  190.68   40.40
  -3   6  -7  225.38   28.50
  -3   6  -7  184.98   26.80
  -3   6  -7  227.08   28.10
  -4  -6  -7  -14.20   22.90
  -4  -6  -7   21.10   18.70
  -4  -6  -7  -21.30   14.50
  -4   6  -7   20.00   19.60
  -4   6  -7  -16.10   20.00
  -4   6  -7   23.70   31.60
  -4   6  -7  -31.10   22.70
  -5  -6  -7   70.39   19.80
  -5  -6  -7   56.89   37.50
  -5  -6  -7   52.99   27.70
  -5   6  -7   43.60   19.50
  -5   6  -7    5.20   39.00
  -6  -6  -7  -47.90   36.70
  -6  -6  -7   11.90   17.90
  -6  -6  -7   25.30   29.30
  -6   6  -7    9.30   18.60
  -6   6  -7   -1.10   44.30
  -7  -7   7   16.80   27.30
  -7  -7   7  102.29   47.30
  -7  -7   7   10.00   39.80
  -7   7   7   63.99   32.10
  -7   7   7  -33.20   37.60
  -7   7   7  -39.00   44.80
  -6  -7   7  -28.40   35.20
  -6  -7   7    5.60   33.80
  -6  -7   7    9.70   23.80
  -6   7   7   -8.40   31.70
  -6   7   7  -22.70   24.90
  -6   7   7    3.40   35.90
  -5  -7   7   53.59   32.80
  -5  -7   7  -17.80   24.20
  -5  -7   7  -10.00   29.30
  -5   7   7  -13.80   24.90
  -5   7   7   -2.50   27.90
  -5   7   7  -32.10   21.20
  -5   7   7    0.50   32.70
   4  -7  -7   15.90   29.50
  -4  -7   7  -12.10   27.80
  -4  -7   7   39.70   24.70
  -4   7   7   59.49   26.10
  -4   7   7   26.00   29.50
  -4   7   7   72.89   27.10
  -4   7   7   37.80   34.20
  -3  -7   7   28.70   27.30
   3  -7  -7   20.70   21.70
  -3  -7   7   30.30   20.40
   3  -7  -7   19.50   23.50
  -3  -7   7   31.20   22.80
  -3   7   7   48.60   23.80
   3   7  -7   18.20   25.70
   3   7  -7   21.80   14.20
  -3   7   7   21.90   25.20
  -3   7   7   10.30   21.30
  -3   7   7  -22.80   29.20
   3   7  -7   -5.60   18.80
   2  -7  -7  132.09   30.70
  -2  -7   7  179.68   30.50
  -2  -7   7  175.68   29.50
   2  -7  -7  148.89   29.50
  -2  -7   7  155.38   31.80
   2   7  -7  179.58   38.60
  -2   7   7  169.08   30.90
  -2   7   7   88.09   32.10
   2   7  -7  228.08   31.10
  -2   7   7  157.78   28.20
   2   7  -7  161.68   23.40
  -2   7   7  213.28   30.00
  -1  -7   7   99.29   25.90
   1  -7  -7   87.09   27.50
  -1  -7   7   49.00   22.10
   1  -7  -7  108.09   24.90
  -1   7   7   81.09   24.10
   1   7  -7   93.89   29.30
   1   7  -7  153.08   28.00
  -1   7   7  116.89   25.60
  -1   7   7   87.89   31.20
   0  -7   7  216.98   29.40
   0  -7  -7  226.68   36.30
   0  -7  -7  219.68   30.50
   0  -7  -7  265.17   32.40
   0  -7  -7  249.48   27.60
   0  -7   7  177.88   28.80
   0  -7   7  294.37   33.30
   0   7  -7  196.78   37.40
   0   7  -7  243.58   31.00
   0   7   7  212.78   28.70
   0   7   7  258.67   31.70
   0   7  -7  206.88   29.40
   0   7   7  162.38   36.90
   1  -7   7   51.19   20.60
   1  -7   7   53.19   18.60
   1  -7   7   41.40   20.90
  -1  -7  -7   33.90   27.30
  -1  -7  -7   62.09   18.00
  -1  -7  -7   52.79   21.60
  -1  -7  -7   58.09   21.60
   1   7   7   66.59   32.60
   1   7   7   83.39   19.10
  -1   7  -7   69.69   20.30
  -1   7  -7   75.59   24.60
  -1   7  -7   39.20   30.80
   1   7   7   35.20   20.30
  -1   7  -7   76.19   24.10
  -2  -7  -7   34.90   27.40
  -2  -7  -7   28.90   18.30
   2  -7   7   67.79   22.10
   2  -7   7   45.10   18.10
  -2  -7  -7   86.29   22.90
  -2  -7  -7   34.90   19.80
  -2   7  -7   76.99   33.60
  -2   7  -7   63.89   20.60
   2   7   7   41.30   19.40
  -2   7  -7   47.10   17.50
  -2   7  -7   87.79   24.20
  -2   7  -7   42.50   20.30
  -3  -7  -7   37.50   19.00
  -3  -7  -7  -11.60   23.60
  -3   7  -7    9.60   32.80
  -3   7  -7   29.20   24.70
  -3   7  -7   -8.70   18.30
  -4  -7  -7    5.60   25.80
  -4  -7  -7   -2.20   17.00
  -4   7  -7  -38.60   32.90
  -4   7  -7   -8.40   20.90
  -5  -7  -7   13.10   32.40
  -5  -7  -7   30.70   31.00
  -5  -7  -7    0.80   18.90
  -5   7  -7   39.70   22.10
  -5   7  -7    0.70   40.60
  -6  -7  -7   56.09   46.20
  -6  -7  -7   80.39   35.80
  -6  -7  -7   10.90   19.40
  -6   7  -7   23.30   48.80
  -6   7  -7   22.80   22.00
  -7  -8   7    8.30   45.10
  -7  -8   7   30.60   29.90
  -7  -8   7  -26.60   40.20
  -7   8   7   15.90   47.10
  -7   8   7    6.80   52.99
  -7   8   7   -0.40   28.40
  -6  -8   7   34.40   40.40
  -6  -8   7   15.50   37.80
  -6  -8   7   52.39   29.80
  -6   8   7  -15.90   42.40
  -6   8   7    9.30   35.20
  -6   8   7   41.80   29.10
  -5  -8   7   61.79   27.80
  -5  -8   7   16.70   35.20
  -5   8   7  -12.00   26.80
  -5   8   7  -17.00   37.20
  -5   8   7   53.19   27.90
  -4  -8   7   17.30   30.10
  -4  -8   7    1.80   24.70
   4  -8  -7   -2.50   28.70
  -4   8   7    2.90   24.10
  -4   8   7   -2.70   25.40
  -4   8   7   36.70   34.10
   3  -8  -7   20.70   21.90
   3  -8  -7   -6.50   24.30
  -3  -8   7  -15.60   22.90
  -3  -8   7   45.70   29.60
  -3   8   7    6.00   30.40
  -3   8   7  -13.90   27.10
  -3   8   7   26.00   24.40
   3   8  -7   -3.50   20.20
   3   8  -7    6.80   26.10
  -2  -8   7   60.09   25.00
  -2  -8   7   -1.10   25.10
   2  -8  -7   55.19   25.90
   2  -8  -7    1.40   25.70
   2   8  -7   39.60   26.50
  -2   8   7   46.60   22.70
   2   8  -7   23.80   21.60
  -2   8   7   32.60   25.10
  -2   8   7   15.60   30.90
  -1  -8   7   -6.20   20.30
  -1  -8   7   -6.20   20.20
   1  -8  -7   20.00   20.10
   1  -8  -7    7.10   25.50
   1   8  -7   24.60   29.60
  -1   8   7   18.90   31.00
  -1   8   7    7.10   22.00
  -1   8   7   -9.30   20.60
   1   8  -7    6.70   21.90
   0  -8  -7   19.40   24.10
   0  -8   7   59.19   23.40
   0  -8   7   10.30   20.20
   0  -8  -7    8.80   20.10
   0  -8  -7    7.40   22.90
   0   8  -7    5.70   24.10
   0   8  -7   -3.50   19.00
   0   8   7   20.90   20.90
   0   8   7   35.20   29.50
   0   8   7  -26.20   20.80
   0   8  -7   11.80   24.10
  -1  -8  -7  -24.90   18.60
   1  -8   7   27.00   21.30
  -1  -8  -7   11.80   21.20
   1  -8   7   13.50   18.60
   1  -8   7   -0.70   20.00
  -1  -8  -7    5.90   26.20
   1   8   7   25.00   21.00
  -1   8  -7    9.80   17.00
  -1   8  -7    5.10   21.70
   1   8   7   46.40   20.90
  -1   8  -7    6.90   19.90
   1   8   7    8.20   26.20
  -1   8  -7    5.70   26.60
  -2  -8  -7  100.89   25.80
  -2  -8  -7  145.49   33.40
  -2   8  -7  161.48   30.00
  -2   8  -7  148.99   28.50
  -2   8  -7   92.09   34.70
  -3  -8  -7   26.30   20.20
  -3  -8  -7   -4.00   28.40
  -3   8  -7    7.90   32.20
  -3   8  -7   26.50   27.40
  -3   8  -7    2.90   20.30
  -4  -8  -7   65.69   33.60
  -4  -8  -7   34.60   21.80
  -4  -8  -7   12.20   29.50
  -4   8  -7   -7.40   34.60
  -4   8  -7   50.09   25.70
  -5  -8  -7   36.00   40.20
  -5  -8  -7    2.00   31.50
  -5  -8  -7   22.20   22.00
  -5   8  -7  -12.80   22.40
  -5   8  -7  -35.40   41.80
  -6  -8  -7   26.10   22.60
  -6  -8  -7  -14.60   42.60
  -6   8  -7  -13.90   22.90
  -6   8  -7  -56.99   49.80
  -6  -9   7  -24.00   38.70
  -6  -9   7   12.60   29.70
  -6  -9   7  -19.60   39.00
  -6   9   7  -40.40   44.70
  -6   9   7  -35.90   28.80
  -6   9   7  -34.50   34.80
  -5  -9   7  -70.79   30.90
  -5  -9   7    4.50   28.90
  -5   9   7   10.90   28.50
  -5   9   7  -12.60   39.90
  -5   9   7  -26.30   31.10
  -4  -9   7   11.20   26.20
  -4  -9   7   -3.30   28.50
   4  -9  -7    9.70   31.20
  -4   9   7   -0.60   25.20
  -4   9   7   31.90   34.30
  -4   9   7   -8.30   34.50
   3  -9  -7   83.39   34.30
  -3  -9   7  156.38   33.60
  -3  -9   7   98.19   36.60
  -3   9   7  102.49   29.10
   3   9  -7   72.49   34.10
  -3   9   7  110.19   40.20
  -3   9   7   96.99   34.80
   2  -9  -7   23.60   26.30
  -2  -9   7   19.50   24.90
   2  -9  -7  -21.20   21.90
  -2  -9   7   20.60   26.50
   2   9  -7   29.60   24.30
  -2   9   7    3.20   24.30
   2   9  -7   -9.60   25.30
  -2   9   7   30.90   36.70
  -2   9   7   -3.20   26.00
   1  -9  -7  273.37   43.80
  -1  -9   7  218.18   34.40
  -1  -9   7  288.97   38.50
   1  -9  -7  246.18   35.30
   1   9  -7  221.08   33.10
  -1   9   7  229.08   37.60
  -1   9   7  152.88   42.90
  -1   9   7  191.78   32.80
   1   9  -7  139.19   37.00
   0  -9   7   62.99   23.90
   0  -9  -7   34.10   25.70
   0  -9   7   19.40   21.10
   0  -9  -7   38.90   26.90
   0   9  -7   12.40   23.50
   0   9   7  -42.00   25.00
   0   9   7    2.80   20.30
   0   9  -7    5.10   30.30
   0   9   7  -25.80   23.50
  -1  -9  -7   85.59   27.30
  -1  -9  -7   30.50   27.60
   1  -9   7  115.79   22.80
  -1   9  -7   91.69   28.10
  -1   9  -7   72.19   38.00
   1   9   7   85.39   26.40
   1   9   7   31.70   31.40
  -2  -9  -7   36.80   21.70
  -2  -9  -7   27.00   27.50
  -2   9  -7   55.69   26.90
  -2   9  -7   10.40   22.70
  -2   9  -7   11.20   32.70
  -3  -9  -7  -13.70   24.80
  -3  -9  -7   31.50   22.00
  -3   9  -7    2.70   22.80
  -3   9  -7   21.50   36.20
  -4  -9  -7   -1.30   21.40
  -4  -9  -7    5.00   31.10
  -4  -9  -7   16.40   35.30
  -4   9  -7  -16.90   22.30
  -4   9  -7   -8.10   39.30
  -5  -9  -7  -17.40   21.40
  -5  -9  -7   -5.20   35.50
  -5  -9  -7   35.30   40.70
  -5   9  -7   -0.20   24.90
  -5   9  -7    4.20   48.70
  -6 -10   7   22.20   43.90
  -6 -10   7  -19.00   30.40
  -6  10   7   52.89   36.40
  -6  10   7  -43.60   47.20
  -6  10   7  -41.20   44.00
  -5 -10   7  -43.70   34.60
  -5 -10   7   -5.40   31.00
  -5  10   7  -24.60   39.40
  -5  10   7   -5.90   40.20
  -5  10   7    5.00   30.30
  -4 -10   7   70.39   32.50
   4 -10  -7   63.09   36.50
  -4 -10   7   52.49   38.30
  -4  10   7   11.10   44.90
  -4  10   7   61.19   30.60
  -4  10   7   52.49   35.40
   3 -10  -7  -37.20   30.10
  -3 -10   7  -40.00   29.10
  -3 -10   7   32.80   28.40
  -3  10   7  -18.20   36.10
  -3  10   7    2.80   32.80
   3  10  -7   24.90   32.10
  -3  10   7    8.20   27.10
  -2 -10   7   30.60   30.50
  -2 -10   7   46.00   27.40
   2 -10  -7    8.10   25.70
   2 -10  -7   32.00   31.00
   2  10  -7  -11.50   32.70
  -2  10   7   20.20   27.50
  -2  10   7   41.80   36.40
  -2  10   7   23.60   32.20
   2  10  -7   11.30   26.40
  -1 -10   7    9.50   23.50
   1 -10  -7   36.00   27.40
   1 -10  -7   54.39   29.00
  -1 -10   7    9.40   24.40
   1  10  -7  -33.40   28.80
   1  10  -7   57.69   28.00
  -1  10   7   24.10   30.00
  -1  10   7    4.00   24.40
  -1  10   7   31.00   33.40
   0 -10  -7    8.20   29.50
   0 -10   7   15.40   23.30
   0 -10  -7   -4.90   25.70
   0 -10   7   14.20   22.80
   0  10   7   20.30   26.00
   0  10   7   -7.90   27.50
   0  10  -7  -32.80   31.00
   0  10   7   -8.80   30.50
   0  10  -7    9.20   24.20
  -1 -10  -7   40.50   32.50
  -1 -10  -7   25.00   26.70
  -1  10  -7  -17.30   23.20
  -1  10  -7   63.59   35.00
   1  10   7   10.90   25.80
  -2 -10  -7  -19.10   23.20
  -2 -10  -7  -16.10   30.10
  -2  10  -7   15.10   25.90
  -2  10  -7   12.00   35.30
   2  10   7    3.80   23.10
  -2  10  -7   30.00   34.10
  -3 -10  -7   13.10   30.30
  -3 -10  -7    1.00   23.40
  -3  10  -7   13.30   37.90
  -3  10  -7  -16.40   23.70
  -4 -10  -7  -16.20   34.20
  -4 -10  -7   12.20   37.40
  -4 -10  -7   -0.80   23.90
  -4  10  -7    8.70   47.70
  -4  10  -7   21.70   27.10
  -5 -10  -7  -29.00   37.10
  -5 -10  -7   -9.80   36.10
  -5 -10  -7   -1.70   23.80
  -5  10  -7   47.20   31.00
  -5  10  -7  -23.00   52.79
  -5 -11   7  -10.50   35.00
  -5 -11   7  -16.30   36.40
  -5  11   7   -6.40   47.60
  -5  11   7  -15.90   38.10
  -5  11   7  -17.80   32.70
   4 -11  -7   16.90   34.50
  -4 -11   7   86.29   34.90
  -4 -11   7   73.59   39.00
  -4  11   7   22.70   50.19
  -4  11   7   10.60   39.60
  -4  11   7   78.79   35.90
  -3 -11   7    0.10   34.30
  -3 -11   7   18.80   30.90
   3 -11  -7   10.90   30.40
  -3  11   7   11.30   43.50
   3  11  -7   34.90   34.60
  -3  11   7   50.09   40.20
  -3  11   7   20.40   27.50
  -2 -11   7  128.99   38.60
  -2 -11   7   92.09   36.70
   2 -11  -7   95.19   39.00
  -2  11   7  114.79   37.80
  -2  11   7   65.99   39.90
  -2  11   7   42.30   44.20
   2  11  -7  119.59   40.40
   1 -11  -7   50.89   30.80
  -1 -11   7   28.20   30.20
   1 -11  -7   50.39   35.70
  -1 -11   7   18.80   27.30
  -1  11   7   41.50   30.40
  -1  11   7   27.80   34.40
   1  11  -7   78.69   32.70
   1  11  -7   46.50   35.40
  -1  11   7   43.20   41.90
   0 -11  -7  107.09   32.50
   0 -11  -7   68.89   32.70
   0  11  -7  112.29   35.90
   0  11   7  129.99   40.80
   0  11  -7  117.99   42.40
   0  11   7  109.89   37.40
  -1 -11  -7   21.30   34.00
  -1 -11  -7   66.89   32.70
  -1  11  -7  122.19   34.30
   1  11   7   88.09   33.20
  -1  11  -7   44.50   38.00
  -2 -11  -7   -3.50   28.10
  -2 -11  -7   -8.90   29.70
  -2  11  -7   76.09   43.20
  -2  11  -7   -3.00   26.50
  -3 -11  -7    2.80   35.60
  -3 -11  -7  -17.70   35.10
  -3 -11  -7   26.70   28.70
  -3  11  -7  -33.20   42.00
  -3  11  -7   31.60   30.00
  -4 -11  -7  -25.10   37.90
  -4 -11  -7  -23.00   24.90
  -4 -11  -7    4.10   36.80
  -4  11  -7  -66.19   49.00
  -4  11  -7   12.60   28.20
  -5 -12   7  -39.40   43.40
  -5  12   7  -29.30   59.99
  -5  12   7   47.00   38.80
  -5  12   7   29.10   46.50
  -4 -12   7   12.60   34.80
  -4 -12   7   -1.70   40.50
  -4  12   7    0.40   42.00
  -4  12   7  -36.00   42.90
  -4  12   7   23.40   35.40
   3 -12  -7  113.59   37.80
  -3 -12   7   24.60   34.30
  -3 -12   7   32.30   36.60
   3  12  -7   86.59   40.20
  -3  12   7    6.80   42.50
  -3  12   7  -37.70   38.00
  -3  12   7   18.20   35.70
  -2 -12   7   43.80   31.10
   2 -12  -7  -13.40   29.10
  -2 -12   7  -25.60   31.10
  -2  12   7  -10.00   29.50
   2  12  -7   -9.50   37.80
  -2  12   7    2.70   37.60
  -2  12   7  -31.90   40.70
  -1 -12   7   26.20   29.20
   1 -12  -7  -26.70   31.10
   1 -12  -7   16.70   35.20
  -1  12   7   38.40   42.80
   1  12  -7   19.50   37.40
  -1  12   7  -19.20   37.20
   1  12  -7    6.80   30.60
   0 -12  -7   -5.30   34.10
   0 -12  -7  -18.50   30.60
   0  12   7  -30.10   32.90
   0  12  -7  -15.70   29.90
   0  12   7    8.90   35.40
   0  12  -7   24.20   38.20
  -1 -12  -7   -0.20   28.70
  -1 -12  -7   42.60   33.80
  -1  12  -7    8.20   32.30
  -1  12  -7   -4.80   40.10
  -2 -12  -7   23.70   36.20
  -2 -12  -7   -2.20   35.70
  -2 -12  -7    0.60   30.40
  -2  12  -7  -41.70   29.00
  -2  12  -7   -0.50   39.30
  -3 -12  -7   47.60   42.50
  -3 -12  -7   -8.90   29.10
  -3 -12  -7   31.80   40.40
  -3  12  -7    3.80   43.00
  -3  12  -7   15.80   31.10
  -4 -12  -7  -26.70   28.00
  -4 -12  -7  -33.60   39.30
  -4 -12  -7  -19.60   40.50
  -4  12  -7  -46.70   26.00
  -4  12  -7   -6.10   48.90
  -4 -13   7    1.20   37.80
  -4 -13   7  -32.30   41.90
  -4  13   7   49.10   47.60
  -4  13   7  -50.39   58.99
  -4  13   7  -14.20   36.80
  -3 -13   7  -49.70   35.10
   3 -13  -7   -1.60   37.90
  -3 -13   7  -15.90   39.30
  -3  13   7  -34.70   46.90
  -3  13   7  -27.40   30.70
  -3  13   7  -31.90   50.69
   3  13  -7    8.30   41.90
   2 -13  -7   -6.80   33.60
  -2 -13   7   34.10   37.60
   2  13  -7  158.88   49.50
  -2  13   7   54.79   51.59
  -2  13   7   11.30   42.60
   1 -13  -7  -13.90   31.10
  -1  13   7    6.30   42.60
  -1  13   7    2.80   39.70
   1  13  -7   37.30   37.80
   0 -13  -7   92.79   44.20
   0 -13  -7  157.18   42.60
   0  13  -7   55.69   39.10
   0  13   7  141.39   43.50
   0  13   7  104.89   43.90
   0  13  -7  130.49   43.60
  -1 -13  -7   23.70   40.30
  -1 -13  -7   22.60   33.90
  -1  13  -7   -0.10   35.00
  -1  13  -7   40.90   41.10
  -2 -13  -7   -9.10   38.10
  -2 -13  -7   52.39   36.80
  -2 -13  -7   29.10   41.20
  -2  13  -7    6.70   47.90
  -2  13  -7   30.10   33.90
  -3 -13  -7  -25.30   30.30
  -3 -13  -7   27.40   44.50
  -3 -13  -7    2.20   47.40
  -3  13  -7  -74.19   48.20
  -3  13  -7   29.90   34.40
   2 -14  -7  -10.90   39.00
  -2  14   7    0.80   44.60
  -2  14   7  -74.09   46.20
   2  14  -7   36.70   48.30
   1 -14  -7  -14.10   33.40
  -1  14   7  -38.00   44.90
   1  14  -7   44.10   39.70
  -1  14   7  -47.70   41.30
   0 -14  -7   11.30   41.60
   0  14   7   25.90   40.90
   0  14  -7   35.30   39.10
  -1 -14  -7   -1.30   40.30
  -1 -14  -7  -30.50   34.70
  -1 -14  -7   -8.70   36.00
  -1  14  -7  -56.89   36.20
  -1  14  -7   11.60   39.30
  -8   0   8   65.09   47.20
  -8   0   8    7.40   45.80
  -7   0   8    9.40   35.00
  -7   0   8    1.90   21.00
  -7   0   8   12.40   37.20
  -6   0   8    4.50   33.00
  -6   0   8    1.20   19.50
  -6   0   8   23.60   29.70
  -5   0   8  -44.70   15.10
  -5   0   8   13.30   15.40
  -5   0   8   -6.60   25.50
  -5   0   8  -28.00   18.90
  -5   0   8  -12.20   25.20
  -4   0   8   83.49   16.10
  -4   0   8   78.99   28.90
  -4   0   8   80.89   28.60
  -4   0   8   66.19   19.50
   4   0  -8   96.99   18.10
  -4   0   8   73.09   21.30
  -3   0   8    0.10   21.30
  -3   0   8   -5.80   15.80
  -3   0   8  -17.30   11.20
  -3   0   8    9.70   22.00
   3   0  -8   -1.40   13.90
  -3   0   8  -16.10   15.40
   3   0  -8   -9.60   14.60
  -2   0   8  306.37   36.00
  -2   0   8  251.57   32.80
  -2   0   8  344.17   31.60
  -2   0   8  287.17   27.10
  -2   0   8  303.57   29.30
   2   0  -8  295.97   27.80
   2   0  -8  279.47   27.90
   2   0  -8  293.17   28.30
   1   0  -8   24.90   16.30
   1   0  -8   -8.10   13.80
  -1   0   8    3.80   20.20
  -1   0   8   10.40   14.80
  -1   0   8   -7.40   14.40
   1   0  -8  -10.10   15.10
  -1   0   8   17.90   14.60
  -1   0   8  -13.20   15.70
   1   0  -8   -7.80   16.00
  -1   0   8   11.10   15.00
   0   0  -8  652.93   36.70
   0   0   8  606.84   33.90
   0   0   8  624.24   34.70
   0   0  -8  543.35   40.50
   0   0   8  640.24   37.40
   0   0   8  608.14   42.10
   0   0  -8  599.14   36.00
   0   0  -8  678.53   37.30
   0   0  -8  627.24   33.40
  -1   0  -8   25.30   14.40
  -1   0  -8  -21.70   15.90
   1   0   8    2.10   11.50
  -1   0  -8  -24.00   11.90
  -1   0  -8   -2.70   13.20
   1   0   8    7.80   10.60
  -2   0  -8  471.75   28.60
   2   0   8  480.65   26.70
  -2   0  -8  484.95   28.80
  -2   0  -8  413.96   38.10
  -2   0  -8  384.86   29.60
  -2   0  -8  482.05   32.70
  -3   0  -8   -1.50   10.40
  -3   0  -8  -46.80   14.30
  -3   0  -8   19.80   24.30
  -3   0  -8   -7.40   11.70
  -4   0  -8    9.50   27.10
  -4   0  -8   61.89   12.40
  -4   0  -8   53.69   12.80
  -4   0  -8   82.59   27.80
  -4   0  -8    7.30   20.80
  -5   0  -8  -25.90   21.60
  -5   0  -8  -40.50   27.10
  -5   0  -8   60.99   31.80
  -6   0  -8  146.29   47.50
  -6   0  -8   10.00   30.70
  -6   0  -8  -58.89   27.00
  -6   0  -8    3.60   31.70
  -7   0  -8  -27.40   33.70
  -7   0  -8  -28.30   37.10
  -8  -1   8  -21.30   41.70
  -8  -1   8   43.30   25.70
  -8  -1   8  -14.10   38.80
  -8   1   8   28.80   26.80
  -8   1   8  -45.00   37.80
  -8   1   8   21.10   40.50
  -8   1   8  -43.00   41.70
  -7  -1   8  -14.60   21.50
  -7  -1   8   -8.90   36.60
  -7  -1   8   10.40   34.40
  -7   1   8   82.79   39.40
  -7   1   8    0.20   38.80
  -6  -1   8   32.70   27.90
  -6  -1   8   -5.40   28.10
  -6  -1   8  -11.00   17.90
  -6   1   8  -41.40   27.30
  -6   1   8    0.50   28.50
  -6   1   8    9.50   19.10
  -5  -1   8   50.29   28.10
  -5  -1   8   76.09   22.70
  -5  -1   8   47.70   30.70
  -5  -1   8   68.99   21.60
  -5   1   8   93.09   32.20
  -5   1   8   74.89   24.10
  -5   1   8   73.59   33.70
  -5   1   8   58.29   21.70
  -4  -1   8   99.09   30.30
  -4  -1   8   36.00   18.50
   4  -1  -8   66.49   19.70
  -4  -1   8   62.19   26.50
  -4  -1   8   72.69   12.40
  -4  -1   8   73.49   21.40
  -4   1   8   67.49   21.00
  -4   1   8   62.79   20.60
  -4   1   8   49.70   17.50
  -4   1   8   70.59   28.50
  -4   1   8   61.49   26.70
  -3  -1   8  207.48   19.40
  -3  -1   8  243.88   34.10
   3  -1  -8  210.18   26.70
  -3  -1   8  229.28   33.10
  -3  -1   8  287.77   29.60
   3  -1  -8  267.57   27.50
  -3  -1   8  243.18   26.40
  -3   1   8  217.18   26.50
  -3   1   8  220.98   36.40
   3   1  -8  216.48   21.20
  -3   1   8  265.07   29.30
  -3   1   8  198.68   24.00
  -3   1   8  202.98   33.00
   3   1  -8  185.98   25.10
  -2  -1   8  135.99   17.90
   2  -1  -8  149.69   23.10
   2  -1  -8  100.49   21.40
  -2  -1   8  137.19   26.00
   2  -1  -8   88.09   21.10
  -2  -1   8  183.78   31.00
  -2  -1   8  132.29   22.20
  -2  -1   8  118.59   22.50
  -2   1   8  147.49   29.20
   2   1  -8  148.49   19.50
   2   1  -8  139.39   23.10
  -2   1   8  117.59   22.30
   2   1  -8  119.29   20.80
  -2   1   8  158.08   23.40
   2   1  -8  147.29   25.80
  -2   1   8  121.79   21.20
  -2   1   8   91.79   25.30
   1  -1  -8  272.77   27.10
  -1  -1   8  264.67   26.80
  -1  -1   8  240.78   25.10
  -1  -1   8  265.47   26.40
  -1  -1   8  225.68   25.40
   1  -1  -8  268.07   28.00
  -1  -1   8  263.37   28.50
  -1  -1   8  230.78   30.80
   1  -1  -8  244.58   29.10
   1  -1  -8  267.77   29.20
  -1   1   8  284.07   31.30
   1   1  -8  253.47   26.60
  -1   1   8  229.38   34.20
  -1   1   8  247.18   26.50
   1   1  -8  264.77   26.30
  -1   1   8  283.47   27.50
   1   1  -8  272.77   26.40
  -1   1   8  246.98   23.80
  -1   1   8  285.57   29.10
   1   1  -8  257.57   26.50
   0  -1   8   50.99   20.50
   0  -1  -8   23.70   19.30
   0  -1  -8   26.60   16.40
   0  -1   8   33.10   15.50
   0  -1   8   47.20   13.50
   0  -1  -8   55.69   18.20
   0  -1  -8   40.80   17.10
   0  -1   8   53.69   16.10
   0   1  -8   25.70   18.80
   0   1  -8   58.29   12.80
   0   1   8   64.69   16.80
   0   1   8   54.39   18.90
   0   1  -8   31.50   16.40
   0   1  -8   32.30   15.70
   0   1   8   43.60   11.40
   0   1   8   61.39   24.40
   0   1  -8    7.20   15.40
   1  -1   8   -4.00   11.90
   1  -1   8    1.70   13.00
  -1  -1  -8  -10.80   17.10
  -1  -1  -8   -5.00   15.30
  -1  -1  -8   10.60   14.00
  -1  -1  -8   13.40   14.60
  -1   1  -8    2.30   19.10
  -1   1  -8   11.80    9.40
  -1   1  -8   20.10   14.80
  -1   1  -8   -2.00   12.90
   1   1   8    2.50    7.40
  -1   1  -8   23.20   14.80
   2  -1   8   29.10   11.80
  -2  -1  -8   35.50   14.20
  -2  -1  -8  -18.90   15.00
  -2  -1  -8   17.40   12.50
  -2  -1  -8   23.40   12.60
  -2  -1  -8   -6.80   17.50
   2  -1   8   53.29   16.70
  -2   1  -8   61.09   14.70
   2   1   8   46.20   13.80
  -2   1  -8   26.90   15.30
  -2   1  -8   93.39   15.70
  -2   1  -8   38.20   22.90
  -2   1  -8   34.60   13.90
  -3  -1  -8   -2.50   22.00
  -3  -1  -8   30.50   13.30
  -3  -1  -8   33.30   17.20
  -3  -1  -8   58.69   13.70
  -3   1  -8   37.10   12.90
  -3   1  -8   70.49   15.30
  -3   1  -8   45.50   27.30
  -3   1  -8   48.60   19.60
  -3   1  -8   87.89   21.90
  -4  -1  -8  -18.80    9.30
  -4  -1  -8   12.70   11.50
  -4  -1  -8   21.50   21.30
  -4  -1  -8  -19.50   21.10
  -4   1  -8   -1.20   10.60
  -4   1  -8   39.00   27.00
  -4   1  -8   -0.40   19.20
  -4   1  -8   55.99   27.40
  -4   1  -8   -3.90   11.30
  -5  -1  -8   37.60   28.00
  -5  -1  -8   31.60   32.00
  -5  -1  -8   61.89   32.70
  -5   1  -8   58.29   34.50
  -5   1  -8  -16.20   21.00
  -5   1  -8   40.20   33.50
  -6  -1  -8   -9.20   34.60
  -6  -1  -8  -23.00   28.70
  -6  -1  -8  -71.29   28.40
  -6  -1  -8  -25.70   27.80
  -6   1  -8   19.60   38.50
  -6   1  -8   57.99   40.60
  -6   1  -8   -6.50   26.70
  -6   1  -8   13.60   33.70
  -7  -1  -8  -44.60   36.70
  -7  -1  -8    6.80   35.20
  -7   1  -8  -12.80   40.50
  -8  -2   8  -33.50   40.80
  -8  -2   8   15.40   24.60
  -8  -2   8  -11.20   43.10
  -8   2   8   75.89   50.59
  -8   2   8  -10.80   40.90
  -8   2   8   -2.60   47.90
  -8   2   8    8.50   24.40
  -7  -2   8   25.80   34.80
  -7  -2   8   11.40   38.10
  -7  -2   8   14.60   22.10
  -7   2   8   85.89   38.70
  -7   2   8   71.39   44.00
  -7   2   8   -7.30   21.70
  -7   2   8   87.89   45.40
  -6  -2   8   -6.00   28.70
  -6  -2   8   35.10   20.90
  -6  -2   8   -1.80   27.70
  -6   2   8    8.20   20.10
  -6   2   8    2.00   32.00
  -6   2   8    8.20   30.20
  -5  -2   8   34.40   30.60
  -5  -2   8   36.50   20.40
  -5  -2   8   23.80   27.50
  -5  -2   8   43.40   20.70
  -5   2   8   34.70   31.90
  -5   2   8   51.09   28.20
  -5   2   8   57.19   23.00
  -4  -2   8   37.00   18.30
   4  -2  -8   -5.00   10.80
  -4  -2   8   78.39   28.00
  -4  -2   8   27.70   26.10
  -4  -2   8   31.20   18.50
   4  -2  -8   27.80   19.80
  -4   2   8    7.30   22.30
  -4   2   8   40.00   18.40
  -4   2   8   46.60   24.90
   4   2  -8   12.00    8.80
  -4   2   8   12.60   16.60
  -3  -2   8    2.10   16.20
  -3  -2   8   31.60   21.00
  -3  -2   8  -14.70   15.80
   3  -2  -8   20.40   18.60
   3  -2  -8    9.20   16.90
  -3  -2   8  -19.60   16.00
  -3   2   8   20.90   17.40
   3   2  -8    3.00   10.00
  -3   2   8  -11.90   20.00
   3   2  -8    3.20   14.90
  -3   2   8   -5.40   16.30
  -3   2   8    8.80   21.90
  -2  -2   8   72.49   20.70
   2  -2  -8   69.29   21.00
  -2  -2   8   22.60   16.10
   2  -2  -8   29.50   16.90
  -2  -2   8   44.00   21.00
  -2  -2   8   14.40   16.10
   2  -2  -8   17.70   16.40
  -2   2   8   26.40   18.20
   2   2  -8   35.60   18.40
   2   2  -8   57.69   18.80
  -2   2   8   51.49   18.70
   2   2  -8   42.00   13.60
  -2   2   8   69.99   24.90
  -2   2   8   42.40   23.40
   1  -2  -8  130.59   22.40
  -1  -2   8  154.28   21.00
  -1  -2   8  155.78   22.00
  -1  -2   8  168.68   22.30
  -1  -2   8  164.78   26.90
   1  -2  -8  103.49   21.00
   1  -2  -8  152.68   24.50
  -1  -2   8  167.38   25.40
   1  -2  -8  214.68   30.00
   1   2  -8  182.78   26.90
  -1   2   8  183.58   29.50
  -1   2   8  185.78   24.20
   1   2  -8   99.69   20.20
  -1   2   8  195.78   24.70
   1   2  -8  160.28   22.30
   1   2  -8  232.98   26.10
  -1   2   8  203.18   30.70
   0  -2  -8  241.18   29.20
   0  -2  -8  208.38   24.60
   0  -2   8  230.08   28.00
   0  -2   8  186.38   28.30
   0  -2  -8  231.38   23.90
   0  -2   8  237.08   17.30
   0  -2   8  185.88   22.70
   0  -2  -8  195.08   28.60
   0   2   8  234.38   14.50
   0   2  -8  307.67   30.00
   0   2  -8  233.78   26.20
   0   2   8  232.08   13.80
   0   2   8  304.07   32.50
   0   2  -8  258.17   26.30
   0   2  -8  259.57   29.30
   1  -2   8  277.67   24.50
   1  -2   8  294.07   29.40
  -1  -2  -8  216.18   30.30
   1  -2   8  307.67   34.50
  -1  -2  -8  253.57   25.10
  -1  -2  -8  325.67   27.00
  -1  -2  -8  287.17   32.70
  -1   2  -8  252.07   24.70
  -1   2  -8  316.37   30.50
  -1   2  -8  256.27   31.40
   1   2   8  316.17   33.10
   1   2   8  285.97   25.20
  -1   2  -8  237.68   25.20
  -2  -2  -8   28.80   22.10
  -2  -2  -8   48.60   11.50
  -2  -2  -8   31.90   14.80
   2  -2   8   33.80   13.20
  -2  -2  -8   26.50   14.10
  -2   2  -8   48.40   15.10
  -2   2  -8   70.49   12.20
  -2   2  -8   74.79   19.60
  -2   2  -8   69.49   24.20
  -2   2  -8   29.30   15.10
   2   2   8   56.39   14.20
  -2   2  -8   52.39   12.40
  -3  -2  -8   97.39   27.20
  -3  -2  -8   93.39   16.80
  -3  -2  -8   62.29   14.60
  -3  -2  -8   88.99   18.90
  -3   2  -8  109.19   21.60
  -3   2  -8  112.49   23.20
  -3   2  -8   61.89   15.80
  -3   2  -8   86.29   16.00
  -3   2  -8  100.19   28.80
  -4  -2  -8    6.50   11.30
  -4  -2  -8   13.30   12.00
  -4  -2  -8   49.50   26.20
  -4  -2  -8   50.29   22.50
  -4   2  -8   24.20   12.80
  -4   2  -8   23.50   13.10
  -4   2  -8    2.50   20.10
  -4   2  -8   52.19   27.70
  -4   2  -8   52.89   25.60
  -5  -2  -8   43.70   29.40
  -5  -2  -8    4.40    8.10
  -5  -2  -8   35.10   27.40
  -5  -2  -8    6.50    6.80
  -5   2  -8   28.90   25.20
  -5   2  -8   -3.90   10.00
  -5   2  -8   10.70    7.90
  -5   2  -8   16.20   31.60
  -5   2  -8   24.30   30.10
  -6  -2  -8    9.00   29.20
  -6  -2  -8  -77.39   29.40
  -6  -2  -8  -29.30   35.90
  -6   2  -8  -23.80   37.60
  -6   2  -8   -8.40   32.00
  -6   2  -8   58.79   38.40
  -7  -2  -8  -45.60   30.80
  -7  -2  -8  -71.19   35.00
  -7  -2  -8  -31.20   43.90
  -7   2  -8   -1.40   40.50
  -7   2  -8   14.40   38.70
  -8  -3   8  -18.60   23.80
  -8  -3   8   11.70   44.80
  -8  -3   8  -28.20   43.50
  -8   3   8  -17.00   39.90
  -8   3   8   -3.70   38.90
  -8   3   8   56.29   28.60
  -7  -3   8   -1.80   21.60
  -7  -3   8   22.50   39.30
  -7  -3   8   19.30   38.10
  -7   3   8  -48.90   32.40
  -7   3   8  -27.90   20.80
  -7   3   8    8.70   40.90
  -7   3   8   31.70   36.30
  -6  -3   8   26.60   29.80
  -6  -3   8   46.00   37.60
  -6  -3   8  -22.50   18.90
  -6   3   8    4.40   21.70
  -6   3   8   11.70   30.30
  -6   3   8   43.30   31.40
  -6   3   8  -33.50   29.10
  -5  -3   8    5.70   28.90
  -5  -3   8   -1.50   18.40
  -5  -3   8    6.60   25.50
  -5   3   8   24.50   30.50
  -5   3   8   28.60   20.50
  -5   3   8    0.50   24.50
  -5   3   8   13.00   29.10
  -4  -3   8  220.08   29.40
  -4  -3   8  247.58   39.10
   4  -3  -8  121.09   23.10
  -4  -3   8  210.58   36.40
   4  -3  -8  199.68   31.20
  -4  -3   8  210.58   28.60
  -4   3   8  176.78   36.30
  -4   3   8  169.68   32.70
  -4   3   8  244.78   31.40
  -4   3   8  214.98   29.60
  -4   3   8  194.18   34.20
  -3  -3   8   -2.60   17.60
   3  -3  -8   -8.20   16.80
   3  -3  -8   -9.40   18.80
  -3  -3   8   -1.50   15.90
  -3  -3   8   16.40   20.50
  -3  -3   8   27.90   22.00
  -3   3   8   37.30   26.50
  -3   3   8  -12.60   17.30
  -3   3   8    7.40   20.60
   3   3  -8   13.00   16.50
  -3   3   8   -7.00   20.80
   3   3  -8    4.40    7.70
  -3   3   8   -6.10   16.70
  -2  -3   8  406.86   35.30
   2  -3  -8  387.46   38.50
  -2  -3   8  379.36   33.50
  -2  -3   8  394.56   33.90
  -2  -3   8  427.66   43.30
   2  -3  -8  438.76   36.60
  -2   3   8  319.67   38.60
   2   3  -8  372.86   26.20
  -2   3   8  398.36   32.20
  -2   3   8  397.06   34.30
  -2   3   8  381.96   35.50
   2   3  -8  415.46   36.60
  -2   3   8  364.76   32.30
  -1  -3   8   43.00   18.10
  -1  -3   8   44.30   22.00
   1  -3  -8   80.59   19.70
   1  -3  -8   69.59   23.50
  -1  -3   8   48.40   18.00
  -1  -3   8   46.10   16.00
   1  -3  -8   37.10   18.60
   1   3  -8   19.50   21.20
  -1   3   8   61.59   18.30
  -1   3   8   50.69   15.00
  -1   3   8   87.59   26.50
   1   3  -8   46.90   17.70
  -1   3   8   79.99   21.40
  -1   3   8   63.19   22.80
   1   3  -8   59.59   19.50
   1   3  -8   99.69   20.90
   0  -3   8  102.89   24.20
   0  -3   8   64.49   17.90
   0  -3   8  108.19   10.40
   0  -3  -8   78.59   20.70
   0  -3  -8   75.89   19.30
   0  -3  -8   94.89   23.80
   0   3   8   94.19    8.90
   0   3  -8   79.89   19.40
   0   3   8   70.09   18.70
   0   3  -8   60.69   17.90
   0   3  -8  104.09   24.40
   0   3  -8  113.09   24.10
   0   3   8  145.69   29.00
   1  -3   8   -8.40   18.40
  -1  -3  -8   -5.60   14.40
   1  -3   8  -12.00   11.60
  -1  -3  -8  -10.80   19.50
  -1  -3  -8   24.60   15.90
   1   3   8  -19.10   19.70
   1   3   8  -18.90   12.10
  -1   3  -8    4.60   18.80
  -1   3  -8  -18.50   18.20
  -1   3  -8    6.20   14.30
  -1   3  -8  -21.30   13.90
  -2  -3  -8   10.30    8.20
   2  -3   8    0.90   12.20
  -2  -3  -8    7.40   13.50
  -2  -3  -8   47.30    8.20
  -2  -3  -8    4.60   20.60
  -2  -3  -8   -7.00   13.90
  -2   3  -8   20.90   21.10
  -2   3  -8   -8.50   13.70
  -2   3  -8    8.40   23.30
   2   3   8   -3.30   12.20
  -2   3  -8    5.30   13.80
  -3  -3  -8   11.20   14.60
  -3  -3  -8   -2.80   11.60
   3  -3   8  -15.80   10.60
  -3  -3  -8   -7.00   18.40
  -3  -3  -8  -15.60   12.90
  -3   3  -8    6.30   14.90
  -3   3  -8  -10.10   20.60
  -3   3  -8   61.69   23.40
  -3   3  -8   -8.60   13.10
  -3   3  -8  -16.20   15.70
  -4  -3  -8  100.99   24.30
  -4  -3  -8   48.80   14.20
  -4  -3  -8   37.00   15.90
  -4  -3  -8   14.90   22.30
  -4   3  -8   76.69   27.20
  -4   3  -8   59.59   16.80
  -4   3  -8   38.30   26.60
  -4   3  -8   61.79   33.40
  -4   3  -8   62.99   16.40
  -5  -3  -8   42.80   28.70
  -5  -3  -8    7.90   10.90
  -5  -3  -8   23.20   26.20
  -5  -3  -8    9.40   11.70
  -5   3  -8   51.89   29.90
  -5   3  -8   25.50   28.80
  -5   3  -8   16.30   12.60
  -5   3  -8  -25.50   25.40
  -5   3  -8   -5.00   13.20
  -5   3  -8   35.10   31.50
  -6  -3  -8  -21.70   37.30
  -6  -3  -8   -2.70   27.30
  -6   3  -8   11.40   34.10
  -6   3  -8   67.59   42.30
  -7  -4   8   -1.50   39.00
  -7  -4   8   -2.40   22.20
  -7  -4   8  -14.40   36.60
  -7   4   8   57.09   27.20
  -7   4   8   80.39   46.30
  -7   4   8   38.90   37.30
  -7   4   8  -11.90   35.10
  -6  -4   8   29.60   22.50
  -6  -4   8   10.30   30.20
  -6  -4   8   -8.90   31.90
  -6   4   8   19.50   36.00
  -6   4   8   40.60   33.00
  -6   4   8   35.10   32.60
  -6   4   8   40.20   22.80
  -5  -4   8   55.09   32.60
  -5  -4   8   28.90   30.60
  -5  -4   8   33.10   21.00
  -5   4   8   48.50   29.30
  -5   4   8   16.10   20.20
  -5   4   8   23.30   31.90
  -5   4   8   30.70   27.80
   4  -4  -8    4.50   21.90
  -4  -4   8    0.90   24.90
  -4  -4   8  -24.80   23.10
   4  -4  -8  -13.10   18.30
  -4  -4   8    3.90   17.70
  -4  -4   8   -7.50   17.80
  -4   4   8    4.60   26.20
  -4   4   8  -18.10   18.60
  -4   4   8    6.90   22.10
   4   4  -8   -3.90   16.90
  -4   4   8   -2.00   22.70
  -4   4   8    2.30   19.70
   3  -4  -8    9.60   18.60
  -3  -4   8   -0.10   19.20
  -3  -4   8   -8.40   23.30
  -3  -4   8    3.80   17.60
   3  -4  -8  -28.30   16.50
  -3  -4   8    5.40   16.60
  -3   4   8  -18.80   24.40
  -3   4   8   -9.20   16.60
  -3   4   8   15.70   21.50
  -3   4   8  -10.00   20.40
   3   4  -8   42.80   19.30
  -3   4   8   24.30   18.80
  -2  -4   8   12.40   19.70
   2  -4  -8   26.10   18.00
  -2  -4   8   11.60   17.20
  -2  -4   8    9.80   18.90
  -2  -4   8   -4.50   14.50
   2  -4  -8   22.00   22.40
   2   4  -8   32.20   13.50
  -2   4   8   -6.90   18.10
  -2   4   8  -14.80   18.60
  -2   4   8   24.50   18.50
  -2   4   8   14.30   17.10
   2   4  -8   21.40   20.00
  -2   4   8   31.80   26.30
   2   4  -8   29.50   19.10
   1  -4  -8  234.18   27.90
   1  -4  -8  233.78   33.50
  -1  -4   8  248.88   25.70
   1  -4  -8  236.88   29.10
  -1  -4   8  243.58   32.70
  -1  -4   8  227.98   27.30
  -1  -4   8  291.27   31.50
  -1   4   8  231.28   33.00
  -1   4   8  327.17   31.70
  -1   4   8  291.27   40.00
   1   4  -8  272.77   28.30
  -1   4   8  274.07   23.40
   1   4  -8  228.18   32.30
   1   4  -8  260.77   30.00
  -1   4   8  303.27   30.60
   1   4  -8  236.78   27.30
   0  -4  -8   85.99   20.80
   0  -4   8  137.39   14.60
   0  -4   8  164.18   24.50
   0  -4  -8  155.88   28.80
   0  -4  -8  137.99   22.80
   0  -4   8  175.68   27.60
   0  -4   8  142.39   13.80
   0   4   8  143.19   22.20
   0   4   8  165.88   15.00
   0   4  -8  135.79   23.80
   0   4   8  135.69   29.70
   0   4  -8   93.39   25.30
   0   4  -8  145.99   23.60
  -1  -4  -8  366.26   31.20
  -1  -4  -8  335.27   31.00
   1  -4   8  341.47   35.40
  -1  -4  -8  346.87   39.60
   1   4   8  341.07   41.80
  -1   4  -8  365.96   39.20
  -1   4  -8  429.76   32.00
  -1   4  -8  367.36   32.60
  -2  -4  -8   26.40    8.60
  -2  -4  -8    9.00   15.50
  -2  -4  -8   15.70   14.20
  -2  -4  -8   10.50   22.50
  -2  -4  -8  -12.80    7.90
   2  -4   8   28.10   14.70
  -2   4  -8    5.00   15.60
  -2   4  -8   35.40   22.00
  -2   4  -8   22.20   17.20
   2   4   8   10.20   13.70
  -3  -4  -8  125.69   17.70
  -3  -4  -8  133.19   18.50
  -3  -4  -8  104.69   19.60
  -3  -4  -8   82.59   18.20
  -3  -4  -8  115.99   29.90
   3  -4   8   67.39   16.50
  -3   4  -8   85.79   18.50
  -3   4  -8   21.30   17.80
  -3   4  -8  121.29   28.80
   3   4   8   85.29   17.20
  -3   4  -8   68.99   18.40
  -4  -4  -8   49.40   17.40
  -4  -4  -8   -4.40   12.70
  -4  -4  -8   62.79   21.70
  -4  -4  -8   -1.90   21.70
  -4   4  -8   11.00   16.40
  -4   4  -8   18.60   26.90
  -4   4  -8    3.70   14.30
  -4   4  -8  -29.10   22.30
  -5  -4  -8  -25.90   14.80
  -5  -4  -8   60.19   28.90
  -5  -4  -8  -13.80   12.60
  -5   4  -8   11.90   14.70
  -5   4  -8    1.40   16.20
  -5   4  -8   24.80   34.70
  -5   4  -8   48.40   29.80
  -5   4  -8   43.20   32.60
  -6  -4  -8   66.79   45.70
  -6  -4  -8  -36.70   27.90
  -6   4  -8  -15.20   10.90
  -6   4  -8    8.50    9.30
  -6   4  -8    5.50   39.20
  -6   4  -8   -9.30   38.40
  -7  -5   8   -3.90   22.70
  -7  -5   8   45.30   42.70
  -7  -5   8  -27.10   31.00
  -7   5   8  -34.30   34.00
  -7   5   8  -13.20   36.80
  -7   5   8   15.70   25.50
  -6  -5   8   13.20   34.10
  -6  -5   8    3.40   35.40
  -6  -5   8   24.10   23.30
  -6   5   8   14.70   24.40
  -6   5   8   24.50   33.60
  -6   5   8    6.00   33.40
  -6   5   8   22.10   32.30
  -5  -5   8   33.00   27.50
  -5  -5   8   43.30   22.90
  -5  -5   8   47.50   28.10
  -5   5   8   74.09   37.30
  -5   5   8  114.49   35.70
  -5   5   8   59.09   25.00
  -5   5   8  109.19   32.70
   4  -5  -8   64.39   28.00
  -4  -5   8   86.59   24.40
  -4  -5   8   48.50   27.60
   4  -5  -8  118.59   26.90
  -4  -5   8   53.69   29.20
  -4  -5   8   51.09   22.30
  -4   5   8   43.90   22.80
   4   5  -8   36.50   19.50
  -4   5   8   54.89   29.10
  -4   5   8   69.89   22.80
  -4   5   8   60.59   33.70
  -4   5   8   97.19   28.70
  -3  -5   8  287.37   39.90
   3  -5  -8  210.58   30.00
  -3  -5   8  289.97   41.50
  -3  -5   8  334.97   36.40
  -3  -5   8  230.48   32.20
   3  -5  -8  247.18   35.20
  -3   5   8  259.17   31.70
   3   5  -8  269.37   16.40
  -3   5   8  202.88   34.70
  -3   5   8  206.78   38.00
  -3   5   8  318.07   38.50
   3   5  -8  274.87   32.40
  -3   5   8  263.07   32.90
   3   5  -8  258.67   16.80
   2  -5  -8  149.88   25.30
   2  -5  -8  153.88   31.70
  -2  -5   8  196.48   29.70
  -2  -5   8  128.79   24.30
  -2  -5   8  182.18   33.10
   2   5  -8  162.48   20.30
  -2   5   8  143.89   26.30
  -2   5   8  169.38   30.60
   2   5  -8  117.79   28.60
  -2   5   8  169.78   26.50
   2   5  -8  131.69   24.30
  -2   5   8  125.69   31.10
  -2   5   8  136.79   25.10
   1  -5  -8  185.98   33.20
  -1  -5   8  222.48   32.10
  -1  -5   8  169.38   26.90
   1  -5  -8  154.58   27.00
   1  -5  -8  206.08   27.00
   1   5  -8  181.08   33.50
   1   5  -8  205.58   27.80
  -1   5   8  173.58   27.30
  -1   5   8  146.79   35.20
  -1   5   8  207.58   23.90
   1   5  -8  176.88   26.90
   0  -5  -8  189.18   31.70
   0  -5   8  185.58   26.00
   0  -5   8  217.28   29.80
   0  -5  -8  197.58   27.30
   0  -5   8  201.88   20.20
   0   5   8  151.28   32.00
   0   5  -8  179.58   30.70
   0   5  -8  194.78   27.40
   0   5   8  184.48   25.30
   0   5  -8  189.28   25.60
   0   5   8  176.38   19.20
   1  -5   8   38.60   20.00
  -1  -5  -8   -2.70   18.90
  -1  -5  -8   15.20    7.20
  -1  -5  -8   -1.40   15.70
   1  -5   8    9.90   10.80
  -1   5  -8   25.40   17.70
   1   5   8   10.80   25.90
  -1   5  -8  -10.40   15.80
  -1   5  -8   20.20   22.50
  -1   5  -8   40.00   19.90
   1   5   8   -3.10    5.40
   2  -5   8   -3.00   15.50
  -2  -5  -8   14.10   15.90
  -2  -5  -8  -18.40   10.70
  -2  -5  -8   11.10   19.90
   2   5   8   17.00   15.70
  -2   5  -8    2.70   15.90
  -2   5  -8    2.90   16.30
  -2   5  -8    0.30   22.90
  -2   5  -8   28.60   19.60
  -3  -5  -8    2.40   15.10
  -3  -5  -8  -20.20   14.50
  -3  -5  -8  -26.50   21.40
  -3   5  -8  -30.20   14.80
   3   5   8   -3.20   14.90
  -3   5  -8  -10.20   17.00
  -3   5  -8   15.20   16.60
  -3   5  -8  -22.80   26.10
  -4  -5  -8    0.80   14.70
  -4  -5  -8   38.20   27.20
  -4  -5  -8   18.70   18.10
  -4   5  -8   17.50   28.20
  -4   5  -8   11.90   18.80
  -4   5  -8   19.40   16.80
  -5  -5  -8   15.10   26.30
  -5  -5  -8   38.60   19.30
  -5  -5  -8    5.50   15.40
  -5   5  -8   14.00   35.20
  -5   5  -8    6.40   17.50
  -6  -5  -8  126.89   49.30
  -6  -5  -8   -7.00   13.80
  -6  -5  -8   92.89   36.90
  -6   5  -8   -6.30   41.50
  -6   5  -8   42.30   40.70
  -6   5  -8   27.30   16.70
  -7  -6   8  -19.50   35.00
  -7  -6   8  -14.00   38.80
  -7  -6   8  -11.00   24.70
  -7   6   8   44.90   44.70
  -7   6   8  -12.90   27.20
  -7   6   8   18.70   39.00
  -6  -6   8   27.80   36.70
  -6  -6   8  -35.50   23.00
  -6  -6   8   -6.00   36.20
  -6   6   8  -14.30   35.90
  -6   6   8   38.90   33.80
  -6   6   8   16.00   32.30
  -6   6   8   47.10   28.10
  -5  -6   8   10.30   28.30
  -5  -6   8   40.30   33.60
  -5  -6   8   24.80   22.90
  -5   6   8    0.10   26.30
  -5   6   8   20.80   22.30
  -5   6   8  -10.20   30.40
  -5   6   8    1.90   27.20
  -4  -6   8   32.10   22.80
  -4  -6   8  -13.50   24.80
   4  -6  -8   18.20   27.20
  -4  -6   8   30.30   29.10
  -4   6   8   -1.60   24.10
  -4   6   8   -9.50   30.50
  -4   6   8  -14.10   23.30
  -4   6   8   -3.40   21.30
  -3  -6   8  -10.80   23.00
   3  -6  -8    0.00   18.50
  -3  -6   8   26.00   21.70
   3  -6  -8   16.00   22.00
  -3  -6   8    1.60   20.20
  -3   6   8   15.20   26.10
   3   6  -8   31.30   21.20
  -3   6   8  -11.50   19.30
  -3   6   8    9.20   22.90
   3   6  -8    8.00   10.10
   3   6  -8    2.50   11.10
  -3   6   8   18.60   23.70
  -3   6   8   -6.80   18.90
   2  -6  -8   49.20   22.50
  -2  -6   8   87.09   25.10
  -2  -6   8   97.69   24.50
  -2  -6   8   37.40   25.10
   2  -6  -8   46.70   25.70
   2   6  -8   68.09   17.30
  -2   6   8   98.79   23.80
  -2   6   8   52.59   21.20
  -2   6   8   32.60   20.60
   2   6  -8  108.59   23.50
  -2   6   8   46.00   29.50
   2   6  -8   80.49   27.80
  -1  -6   8   37.50   18.50
  -1  -6   8   60.99   22.20
   1  -6  -8   23.40   20.70
   1  -6  -8   15.80   21.80
  -1  -6   8   17.70   22.30
  -1   6   8   -3.10   19.10
  -1   6   8   21.60   29.30
   1   6  -8   20.50   20.10
   1   6  -8   28.80   25.30
  -1   6   8    9.10   16.70
   1   6  -8   44.50   21.90
   0  -6  -8  367.86   35.70
   0  -6   8  382.36   37.50
   0  -6   8  387.96   30.50
   0  -6  -8  379.66   27.00
   0  -6  -8  458.05   46.80
   0  -6   8  379.46   38.70
   0  -6  -8  355.96   35.40
   0   6   8  354.76   35.10
   0   6   8  370.06   29.40
   0   6   8  322.57   44.90
   0   6  -8  375.26   43.30
   0   6  -8  323.37   35.90
   0   6  -8  451.35   39.30
   1  -6   8    8.00   17.60
  -1  -6  -8    4.90   20.40
   1  -6   8    9.10   10.70
  -1  -6  -8   18.50   18.10
  -1  -6  -8   15.20   11.00
  -1  -6  -8    9.30   17.60
   1  -6   8   15.10   19.20
   1   6   8   -6.20   16.30
  -1   6  -8   -3.70   17.90
  -1   6  -8   21.90   19.50
  -1   6  -8   22.60   19.10
   1   6   8   -8.60   26.10
  -1   6  -8  -16.40   22.90
   1   6   8   21.30   12.10
  -2  -6  -8  337.07   33.90
   2  -6   8  322.07   23.20
   2  -6   8  339.17   32.60
  -2  -6  -8  306.27   25.40
  -2  -6  -8  280.87   30.70
  -2  -6  -8  354.66   42.70
  -2   6  -8  298.47   33.20
  -2   6  -8  335.67   32.50
  -2   6  -8  357.76   35.50
  -2   6  -8  356.76   25.20
   2   6   8  375.26   33.40
  -2   6  -8  321.27   42.50
  -3  -6  -8    2.40   22.70
  -3  -6  -8   11.50   17.10
  -3  -6  -8  -18.90   16.40
  -3   6  -8   23.30   32.70
  -3   6  -8   11.70   20.90
  -3   6  -8   42.90   20.80
  -3   6  -8   77.89   21.40
  -4  -6  -8   63.59   30.50
  -4  -6  -8   67.99   19.60
  -4   6  -8   54.39   33.30
  -4   6  -8   75.29   22.00
  -5  -6  -8    5.00   17.20
  -5  -6  -8   23.30   28.80
  -5  -6  -8  -15.30   29.20
  -5   6  -8   28.50   19.00
  -5   6  -8  -53.99   34.60
  -6  -6  -8   44.50   33.90
  -6  -6  -8    0.60   17.20
  -6  -6  -8  -16.50   40.00
  -6   6  -8    6.40   45.10
  -6   6  -8   16.60   18.90
  -7  -7   8  -18.40   40.20
  -7  -7   8   -3.20   26.70
  -7  -7   8  -55.39   39.10
  -7   7   8   -5.20   40.50
  -7   7   8  -34.50   27.80
  -7   7   8   41.50   46.20
  -6  -7   8   17.90   25.50
  -6  -7   8   16.20   37.80
  -6  -7   8   28.20   31.50
  -6   7   8   -2.50   37.60
  -6   7   8  -20.10   37.10
  -6   7   8    2.30   27.60
  -5  -7   8  -32.00   23.10
  -5  -7   8   -7.30   31.40
  -5  -7   8   55.59   37.00
  -5   7   8   -1.30   27.70
  -5   7   8  -23.60   32.50
  -5   7   8  -36.10   32.20
  -5   7   8    5.90   24.50
   4  -7  -8   32.10   30.00
  -4  -7   8   40.30   32.40
  -4  -7   8   17.00   25.90
  -4   7   8    4.60   29.80
  -4   7   8   35.10   27.40
  -4   7   8   38.20   24.30
  -4   7   8   27.50   28.90
  -3  -7   8  155.88   32.20
  -3  -7   8  204.58   38.60
  -3  -7   8  219.08   34.20
   3  -7  -8  166.38   35.10
   3  -7  -8  192.58   32.90
  -3   7   8  142.69   31.90
  -3   7   8  224.58   36.60
  -3   7   8  127.39   29.80
   3   7  -8  168.58   30.60
   3   7  -8  176.68   39.90
  -3   7   8  209.38   43.50
   2  -7  -8   57.69   23.50
   2  -7  -8   16.20   24.70
  -2  -7   8   89.09   26.80
  -2  -7   8   36.40   25.10
  -2   7   8   48.20   25.30
  -2   7   8   55.59   34.50
   2   7  -8  108.29   30.40
  -2   7   8   71.29   25.10
   2   7  -8   64.49   19.90
   2   7  -8   19.90   22.00
   1  -7  -8  313.27   37.10
  -1  -7   8  323.37   38.40
   1  -7  -8  331.97   41.80
  -1  -7   8  294.27   37.60
  -1   7   8  238.68   44.70
   1   7  -8  275.67   40.50
   1   7  -8  321.57   37.60
  -1   7   8  301.37   34.60
  -1   7   8  344.47   37.80
   0  -7  -8   67.59   27.70
   0  -7  -8   73.39   24.10
   0  -7   8   43.70   22.60
   0  -7   8   27.30   19.70
   0  -7  -8   70.39   23.30
   0  -7  -8   69.49   18.70
   0  -7   8   60.29   23.20
   0   7   8   61.79   20.50
   0   7  -8   46.10   20.90
   0   7   8   11.70   27.40
   0   7  -8   23.10   22.10
   0   7   8   82.59   24.50
   0   7  -8    3.90   25.30
   1  -7   8   24.70   15.10
  -1  -7  -8   35.40   14.90
   1  -7   8   -8.10   19.50
  -1  -7  -8   13.60   20.60
  -1  -7  -8   16.50   26.70
  -1  -7  -8   12.20   19.30
   1  -7   8   17.10   19.90
  -1   7  -8   18.90   26.40
   1   7   8   40.40   16.30
   1   7   8   -1.10   19.40
  -1   7  -8   38.00   22.40
   1   7   8   57.99   29.40
  -1   7  -8   36.10   23.70
  -1   7  -8   49.60   21.10
  -2  -7  -8   32.40   20.10
  -2  -7  -8  -45.90   19.50
  -2  -7  -8   14.20   18.80
  -2   7  -8  -24.70   19.00
  -2   7  -8   35.90   29.00
  -2   7  -8    1.60   15.80
  -2   7  -8   -3.30   21.00
  -3  -7  -8   61.69   30.30
  -3  -7  -8   37.80   19.40
  -3   7  -8   17.50   20.80
  -3   7  -8  -18.90   29.10
  -4  -7  -8   23.90   28.60
  -4  -7  -8   12.60   17.80
  -4   7  -8   14.70   33.50
  -4   7  -8    0.00   20.60
  -5  -7  -8   22.70   19.50
  -5  -7  -8  -39.30   29.20
  -5  -7  -8   71.79   33.90
  -5   7  -8   26.00   22.30
  -5   7  -8   14.90   42.90
  -6  -7  -8  -10.50   41.00
  -6  -7  -8    6.40   19.20
  -6  -7  -8   30.00   37.10
  -6   7  -8    1.00   21.20
  -6   7  -8   23.40   46.70
  -6  -8   8   43.60   43.30
  -6  -8   8    2.20   39.00
  -6  -8   8   28.80   27.50
  -6   8   8  -28.00   32.60
  -6   8   8   27.10   29.30
  -6   8   8   -1.70   38.70
  -5  -8   8  -27.90   30.90
  -5  -8   8   67.79   35.90
  -5  -8   8   -4.20   27.50
  -5   8   8   14.80   35.00
  -5   8   8   52.09   37.40
  -5   8   8    7.40   27.10
   4  -8  -8   26.50   33.70
  -4  -8   8   -4.50   23.90
  -4  -8   8   32.30   33.40
  -4   8   8   18.90   23.40
  -4   8   8   34.90   31.60
  -4   8   8   32.10   38.60
  -3  -8   8   28.00   29.60
  -3  -8   8    4.50   22.80
   3  -8  -8  -28.20   22.40
   3  -8  -8   -0.40   22.40
  -3   8   8   -4.70   26.00
  -3   8   8   -9.50   23.00
  -3   8   8  -11.70   32.30
   3   8  -8    5.30   21.30
   3   8  -8   11.50   30.20
  -2  -8   8   46.10   26.30
   2  -8  -8  -23.40   25.00
   2  -8  -8   18.50   23.50
  -2  -8   8    4.20   21.50
   2   8  -8    5.20   26.30
  -2   8   8   39.80   25.20
  -2   8   8   39.80   23.90
   2   8  -8    3.10   20.90
  -2   8   8   14.70   35.20
  -1  -8   8  122.59   28.40
  -1  -8   8  140.39   29.20
   1  -8  -8  118.49   32.00
   1  -8  -8  149.09   30.20
  -1   8   8   64.19   36.40
  -1   8   8  117.69   29.30
  -1   8   8  101.69   28.50
   1   8  -8  110.09   35.90
   1   8  -8  167.28   30.00
   0  -8  -8   58.09   25.60
   0  -8  -8   35.60   27.50
   0  -8  -8   54.19   27.10
   0  -8   8   64.29   23.80
   0  -8   8   69.39   24.90
   0  -8   8   32.00   23.40
   0   8   8   20.20   28.90
   0   8   8   50.49   23.10
   0   8  -8   49.60   31.30
   0   8  -8   54.09   24.40
   0   8   8   52.19   24.60
   0   8  -8   65.99   23.60
  -1  -8  -8  491.15   53.99
   1  -8   8  418.06   36.90
  -1  -8  -8  385.56   40.70
   1  -8   8  346.07   38.40
   1   8   8  408.26   35.10
   1   8   8  354.76   36.80
  -1   8  -8  401.76   41.30
   1   8   8  304.87   48.90
  -1   8  -8  469.35   35.90
  -1   8  -8  337.57   48.00
  -2  -8  -8    5.20   26.20
  -2  -8  -8   52.59   23.50
  -2   8  -8   23.30   22.10
  -2   8  -8   13.40   32.10
  -3  -8  -8  106.39   26.30
  -3  -8  -8  237.48   44.00
  -3   8  -8  102.39   28.80
  -3   8  -8  160.18   47.20
  -4  -8  -8   26.00   33.50
  -4  -8  -8    5.10   19.80
  -4   8  -8  -10.90   41.40
  -4   8  -8   -6.30   21.60
  -5  -8  -8    7.30   20.40
  -5  -8  -8   25.20   33.10
  -5  -8  -8   30.40   40.70
  -5   8  -8   36.40   44.40
  -5   8  -8   29.70   24.20
  -6  -9   8   40.50   43.80
  -6  -9   8   56.59   47.20
  -6  -9   8    1.90   31.50
  -6   9   8   37.40   44.20
  -6   9   8  -13.40   42.00
  -6   9   8  -46.20   29.20
  -5  -9   8  -21.80   27.00
  -5  -9   8   35.10   40.10
  -5   9   8  -34.50   40.00
  -5   9   8    9.10   37.80
  -5   9   8   17.80   29.60
  -4  -9   8  181.58   38.60
  -4  -9   8  134.59   39.30
   4  -9  -8  186.78   44.90
  -4   9   8  101.79   38.90
  -4   9   8   90.19   44.10
  -4   9   8  157.48   37.40
  -3  -9   8   -4.70   23.30
   3  -9  -8    4.60   27.30
  -3  -9   8   -9.20   28.30
   3   9  -8  -19.20   27.00
  -3   9   8   -1.00   30.60
  -3   9   8   50.19   26.40
  -3   9   8   41.10   42.30
   2  -9  -8  318.07   40.00
  -2  -9   8  232.18   41.60
  -2  -9   8  294.47   37.90
   2  -9  -8  293.27   45.30
   2   9  -8  283.27   39.00
  -2   9   8  195.38   44.20
   2   9  -8  229.18   44.40
  -2   9   8  275.37   39.40
  -2   9   8  295.47   43.10
  -1  -9   8    6.10   24.20
   1  -9  -8   10.70   21.90
  -1  -9   8  -39.50   20.10
   1  -9  -8  -35.20   23.10
  -1   9   8   22.90   35.50
   1   9  -8   10.70   27.50
   1   9  -8    0.90   25.60
  -1   9   8  -31.60   23.90
  -1   9   8  -49.99   19.80
   0  -9   8   84.59   25.70
   0  -9  -8  103.49   35.50
   0  -9   8  114.39   28.50
   0  -9  -8   78.79   26.90
   0   9   8   89.29   28.50
   0   9   8   68.29   36.00
   0   9  -8   50.49   31.50
   0   9  -8  114.19   31.00
   0   9   8   82.29   30.00
  -1  -9  -8   16.80   23.40
   1  -9   8   23.60   22.30
  -1  -9  -8   25.90   28.70
  -1   9  -8  -17.90   23.00
   1   9   8   16.00   22.50
  -1   9  -8   25.40   35.20
   1   9   8   30.60   32.60
  -2  -9  -8   -1.60   21.20
  -2  -9  -8    7.60   28.60
  -2   9  -8   -2.90   32.50
  -2   9  -8   -0.10   23.40
  -3  -9  -8   26.80   23.40
  -3  -9  -8  -12.80   33.00
  -3   9  -8   45.10   36.10
  -3   9  -8   32.40   26.70
  -4  -9  -8    1.70   21.60
  -4  -9  -8   17.70   32.90
  -4  -9  -8   38.10   36.00
  -4   9  -8  -21.40   39.40
  -4   9  -8  -21.00   23.80
  -5  -9  -8   27.10   38.50
  -5  -9  -8   26.30   38.80
  -5  -9  -8  -21.00   21.20
  -5   9  -8   51.19   47.80
  -5   9  -8   -2.30   25.10
  -6 -10   8   -2.90   41.80
  -6 -10   8  -51.29   40.40
  -6 -10   8  -47.00   31.40
  -6  10   8  -74.19   46.40
  -6  10   8   14.50   33.50
  -6  10   8  -14.80   43.50
  -5 -10   8   40.90   34.20
  -5 -10   8   28.90   38.70
  -5  10   8   23.50   33.60
  -5  10   8   49.60   51.59
  -5  10   8   38.50   39.60
   4 -10  -8  -26.30   27.90
  -4 -10   8   22.20   35.40
  -4 -10   8   -5.90   26.20
  -4  10   8   24.20   37.20
  -4  10   8   -5.10   29.50
  -4  10   8    0.50   43.20
  -3 -10   8  -23.40   29.80
   3 -10  -8   19.10   29.10
  -3 -10   8   -2.30   27.90
   3  10  -8  -39.60   28.00
  -3  10   8  -36.80   33.40
  -3  10   8  -29.20   25.10
  -3  10   8  -19.70   40.90
  -2 -10   8   44.10   30.00
  -2 -10   8   29.90   30.00
   2 -10  -8   29.50   29.70
   2 -10  -8   21.30   27.70
  -2  10   8   -4.90   26.80
  -2  10   8    2.00   29.20
   2  10  -8   33.10   29.00
   2  10  -8   26.60   30.10
  -2  10   8   31.60   36.50
  -1 -10   8   89.09   29.90
  -1 -10   8   85.09   31.80
   1 -10  -8  117.49   38.50
   1 -10  -8   53.89   26.50
  -1  10   8   67.19   33.10
   1  10  -8   98.09   38.90
  -1  10   8   33.60   27.30
   1  10  -8   45.30   27.40
  -1  10   8   61.59   37.10
   0 -10  -8   36.60   32.20
   0 -10   8   17.60   23.10
   0 -10  -8   22.90   26.60
   0  10  -8   28.00   28.40
   0  10   8   10.20   33.80
   0  10   8   25.30   28.80
   0  10  -8   34.60   31.20
  -1 -10  -8  160.18   33.20
  -1 -10  -8  119.89   37.90
   1  10   8  160.68   32.30
   1  10   8  111.49   39.30
  -1  10  -8   71.99   38.70
  -1  10  -8  226.68   38.80
  -2 -10  -8   -0.40   32.30
  -2 -10  -8  -26.30   22.10
  -2  10  -8   46.60   27.20
  -2  10  -8    7.60   34.70
  -3 -10  -8   10.40   24.60
  -3 -10  -8   55.79   38.90
  -3  10  -8   57.69   30.60
  -3  10  -8   33.60   40.90
  -4 -10  -8  -15.20   22.30
  -4 -10  -8   -7.00   37.50
  -4 -10  -8   25.90   38.20
  -4  10  -8   -0.60   27.00
  -4  10  -8  -16.50   49.10
  -5 -10  -8  -10.40   40.30
  -5 -10  -8   19.30   42.10
  -5  10  -8  -33.70   26.30
  -5  10  -8  -14.90   56.29
  -5 -11   8    0.30   35.80
  -5 -11   8    7.00   43.70
  -5  11   8  -37.10   41.50
  -5  11   8  -22.40   52.89
  -5  11   8   -9.20   31.20
  -4 -11   8   67.29   42.00
   4 -11  -8   20.90   37.90
  -4 -11   8   62.69   38.10
  -4  11   8   61.09   37.80
  -4  11   8   25.40   50.69
  -4  11   8    5.10   41.50
  -3 -11   8  125.99   36.50
  -3 -11   8  119.09   42.90
   3 -11  -8  113.49   41.30
  -3  11   8   -4.20   39.00
  -3  11   8   60.39   41.80
   3  11  -8   86.29   42.10
  -3  11   8  113.19   34.80
   2 -11  -8   60.09   39.20
  -2 -11   8   35.90   33.20
  -2 -11   8   22.80   32.20
  -2  11   8   27.30   44.50
   2  11  -8   90.99   38.80
  -2  11   8  138.99   37.70
  -2  11   8   27.30   37.50
  -1 -11   8  131.89   35.80
   1 -11  -8   82.79   33.00
   1 -11  -8  133.09   40.70
  -1  11   8   45.20   42.90
  -1  11   8   81.19   38.30
   1  11  -8  114.49   40.20
   1  11  -8  101.19   35.10
   0 -11  -8   27.30   29.60
   0 -11  -8   65.89   34.40
   0  11  -8   27.30   37.50
   0  11   8   27.10   31.90
   0  11  -8   42.20   32.30
   0  11   8   65.39   38.80
  -1 -11  -8   -8.40   27.60
  -1 -11  -8   26.40   32.20
  -1  11  -8   -0.10   28.60
  -1  11  -8  -28.20   31.10
  -2 -11  -8  -23.00   32.40
  -2 -11  -8   23.00   28.60
  -2  11  -8  -54.19   34.50
  -2  11  -8  -22.10   28.40
  -3 -11  -8    9.10   38.60
  -3 -11  -8   -0.90   25.70
  -3  11  -8   30.30   32.70
  -3  11  -8  -29.90   45.60
  -4 -11  -8  -10.10   35.60
  -4 -11  -8  -12.40   40.60
  -4 -11  -8   -8.20   25.50
  -4  11  -8  -10.80   43.90
  -4  11  -8  -13.60   30.10
  -4 -12   8   20.00   38.40
   4 -12  -8   59.89   41.60
  -4 -12   8    4.60   41.10
  -4  12   8    1.30   47.10
  -4  12   8   18.00   48.00
  -4  12   8    5.30   35.60
   3 -12  -8   21.80   37.90
  -3 -12   8   19.40   36.10
  -3 -12   8   21.20   36.20
   3  12  -8    7.20   35.20
  -3  12   8  -14.60   45.00
  -3  12   8   -9.80   44.20
  -3  12   8   12.30   35.20
  -2 -12   8  -23.20   30.70
  -2 -12   8   34.30   32.40
   2 -12  -8    0.00   31.00
  -2  12   8   -1.20   44.40
  -2  12   8  -23.40   38.50
   2  12  -8   32.20   37.20
   1 -12  -8    4.30   32.90
   1 -12  -8   -3.00   36.00
   1  12  -8    0.30   34.00
  -1  12   8  -12.90   37.80
  -1  12   8   15.80   42.10
   0 -12  -8   57.59   32.60
   0 -12  -8   71.79   40.00
   0  12  -8   49.70   35.60
   0  12   8   85.89   44.40
   0  12  -8   86.59   40.60
  -1 -12  -8   40.40   31.70
  -1 -12  -8    0.40   31.60
  -1  12  -8   23.30   36.50
  -1  12  -8    2.00   32.40
  -2 -12  -8    6.00   31.40
  -2 -12  -8   21.50   40.30
  -2  12  -8   12.80   41.50
  -2  12  -8  107.99   38.30
  -3 -12  -8  -10.20   35.40
  -3 -12  -8    7.00   30.30
  -3 -12  -8   54.69   44.20
  -3  12  -8   -9.60   49.80
  -3  12  -8   46.60   36.50
  -3 -13   8   49.60   39.80
  -3 -13   8  -21.90   39.20
   3 -13  -8   38.10   40.40
  -3  13   8   -5.20   50.29
  -3  13   8  -23.00   49.50
   3  13  -8    4.20   39.50
   2 -13  -8   48.50   37.50
  -2  13   8   11.00   50.09
   2  13  -8  -14.70   40.20
   1 -13  -8   66.99   39.70
  -1  13   8   73.69   46.00
   1  13  -8    8.90   36.40
   0 -13  -8  -10.60   38.40
   0 -13  -8   59.29   39.50
   0  13  -8   15.60   35.20
   0  13  -8   71.49   41.40
   0  13   8   27.90   42.70
  -1 -13  -8    2.30   35.80
  -1 -13  -8   16.60   41.30
  -1  13  -8   11.20   44.90
  -1  13  -8  -24.40   35.30
  -2 -13  -8   -2.20   31.50
  -2 -13  -8   -7.80   38.10
  -2 -13  -8  -71.79   37.90
  -2  13  -8    9.00   37.00
  -2  13  -8   46.20   50.29
   2 -14  -8   30.10   41.70
  -2  14   8   39.90   48.70
   2  14  -8   23.30   42.30
   1 -14  -8   38.20   38.70
   1  14  -8   -4.60   38.90
  -1  14   8   69.79   47.60
   0 -14  -8  -25.20   39.70
   0  14  -8    4.70   38.50
   0  14   8  -20.80   45.70
  -1 -14  -8   53.09   47.50
  -1 -14  -8   22.40   39.70
  -1 -14  -8   44.20   40.10
  -1  14  -8    0.30   42.10
  -1  14  -8   -0.40   38.80
  -8   0   9   -3.50   44.90
  -8   0   9    8.60   46.10
  -7   0   9    7.10   38.50
  -7   0   9  -13.50   33.90
  -7   0   9   14.70   23.10
  -6   0   9  -15.60   19.80
  -6   0   9   31.10   33.20
  -6   0   9  -16.10   32.50
  -5   0   9  -14.30   26.80
  -5   0   9    0.80   27.10
  -5   0   9   10.50   18.90
  -4   0   9    7.90   13.20
  -4   0   9    9.10   22.70
  -4   0   9   44.80   26.80
   4   0  -9   10.30   17.40
   4   0  -9   10.10   15.10
  -4   0   9   25.20   19.80
  -4   0   9   -3.90   16.40
  -3   0   9  390.96   36.90
  -3   0   9  344.57   27.30
   3   0  -9  307.27   32.10
  -3   0   9  321.97   40.00
  -3   0   9  360.86   34.70
  -3   0   9  339.37   42.00
   3   0  -9  329.67   29.60
  -2   0   9    9.10   18.70
  -2   0   9    8.10   17.00
  -2   0   9   18.50   22.90
   2   0  -9   -1.60   15.40
   2   0  -9   -4.10   16.10
  -2   0   9   16.60   17.30
  -2   0   9  -24.90   13.00
   2   0  -9    7.60   17.30
  -1   0   9 1393.26   65.59
  -1   0   9 1489.45   63.69
  -1   0   9 1381.96   72.79
  -1   0   9 1410.76   61.09
   1   0  -9 1262.97   64.89
   1   0  -9 1370.06   62.59
  -1   0   9 1444.86   70.59
   1   0  -9 1323.87   61.19
   1   0  -9 1428.36   70.39
   0   0  -9   12.50   16.20
   0   0  -9    7.60   15.90
   0   0   9    9.10   16.20
   0   0  -9   13.10   14.80
   0   0   9   10.60   13.90
   0   0  -9    8.80   13.00
   0   0   9   34.00   24.40
   0   0  -9   13.90   17.10
   0   0   9  -15.10   12.70
  -1   0  -9  931.41   46.50
   1   0   9  983.00   45.20
  -1   0  -9  968.70   46.20
   1   0   9  984.00   45.80
  -1   0  -9  895.61   55.29
  -1   0  -9  923.91   48.90
  -1   0  -9  966.20   45.40
   2   0   9    4.40   12.40
  -2   0  -9    2.80   19.00
   2   0   9  -14.90   11.00
  -2   0  -9  -35.60   12.50
  -2   0  -9    4.10   13.60
  -2   0  -9  -18.70   12.20
  -2   0  -9    4.40   13.00
  -3   0  -9   54.29   16.20
  -3   0  -9   45.10   14.20
  -3   0  -9   10.30   17.80
  -3   0  -9   62.89   27.70
  -4   0  -9  -41.40   24.20
  -4   0  -9   80.69   28.40
  -4   0  -9    9.80   11.70
  -4   0  -9  -45.00   18.20
  -4   0  -9   -1.60   13.10
  -5   0  -9   80.59   35.40
  -5   0  -9   14.40   28.60
  -5   0  -9  -39.50   23.50
  -6   0  -9   -0.90   36.20
  -6   0  -9    8.60   36.70
  -8  -1   9   54.59   46.50
  -8  -1   9   58.19   48.80
  -8  -1   9   18.00   25.10
  -8   1   9  -28.10   40.00
  -8   1   9   79.99   48.20
  -8   1   9    1.00   25.10
  -8   1   9   36.20   43.60
  -7  -1   9   36.70   35.30
  -7  -1   9  -16.00   37.50
  -7  -1   9   39.40   25.90
  -7   1   9    2.80   33.60
  -7   1   9   18.00   37.30
  -6  -1   9   12.90   32.00
  -6  -1   9   36.20   22.40
  -6  -1   9  -63.89   25.50
  -6   1   9  -10.40   32.00
  -6   1   9   -9.70   31.20
  -6   1   9    8.20   20.60
  -5  -1   9   32.90   21.10
  -5  -1   9   45.90   31.20
  -5  -1   9   76.09   32.20
  -5   1   9   12.90   30.20
  -5   1   9   47.60   30.70
  -5   1   9   26.80   19.90
  -4  -1   9  106.79   31.70
  -4  -1   9  117.09   16.00
   4  -1  -9  140.39   24.90
  -4  -1   9  130.19   32.20
  -4  -1   9  130.69   24.30
  -4  -1   9  163.48   27.10
   4  -1  -9  107.19   22.20
  -4   1   9   97.49   32.90
  -4   1   9  133.29   24.20
  -4   1   9  114.19   32.90
   4   1  -9  145.49   18.00
  -4   1   9  146.59   26.60
  -4   1   9  114.79   24.90
   4   1  -9  164.08   24.90
  -3  -1   9   94.09   21.80
  -3  -1   9   94.49   25.40
   3  -1  -9  118.99   23.50
   3  -1  -9  101.89   22.50
  -3  -1   9   93.19   28.50
  -3  -1   9  130.59   24.10
  -3  -1   9   90.19   15.90
  -3   1   9  110.19   22.50
   3   1  -9  113.59   19.20
  -3   1   9   78.79   22.40
  -3   1   9   93.99   27.50
  -3   1   9   84.39   29.00
  -3   1   9   77.69   19.50
   3   1  -9   78.49   22.40
   2  -1  -9   28.10   18.60
  -2  -1   9   35.30   20.40
  -2  -1   9   29.10   18.70
  -2  -1   9   41.90   22.80
  -2  -1   9   63.79   15.80
  -2  -1   9   59.09   18.30
   2  -1  -9   61.99   19.50
   2  -1  -9   48.30   18.10
   2   1  -9   72.69   20.00
  -2   1   9   27.80   18.00
  -2   1   9   64.19   19.80
   2   1  -9   68.39   19.70
  -2   1   9   83.99   25.10
   2   1  -9   48.10   16.70
  -2   1   9   12.60   22.70
  -1  -1   9  207.98   32.40
  -1  -1   9  166.38   24.30
   1  -1  -9  139.99   23.80
   1  -1  -9  168.58   24.60
   1  -1  -9  167.78   24.50
  -1  -1   9  153.68   23.20
  -1  -1   9  191.68   25.10
  -1  -1   9  169.58   24.20
   1  -1  -9  163.68   26.20
  -1  -1   9  147.49   23.20
  -1   1   9  195.78   32.20
  -1   1   9  172.58   23.60
  -1   1   9  192.28   27.00
   1   1  -9  171.88   22.90
  -1   1   9  131.59   22.10
  -1   1   9  189.48   21.90
   1   1  -9  143.89   23.60
   1   1  -9  120.59   22.40
   1   1  -9  170.38   24.30
   0  -1  -9   76.69   19.30
   0  -1   9   61.59   17.80
   0  -1  -9   65.89   20.70
   0  -1   9   87.99   18.60
   0  -1   9   99.89   25.60
   0  -1  -9   62.99   19.60
   0  -1  -9   64.69   18.70
   0  -1   9   90.89   16.00
   0   1   9   56.29   22.60
   0   1   9   31.80   16.80
   0   1   9   63.39   13.20
   0   1  -9   51.29   19.40
   0   1   9   52.19   20.40
   0   1  -9   92.29   19.40
   0   1  -9   91.29   18.60
   0   1  -9   86.89   19.50
   0   1  -9   77.79   14.60
  -1  -1  -9  102.89   21.20
   1  -1   9   80.59   17.30
   1  -1   9   87.59   17.10
  -1  -1  -9   84.59   18.20
  -1  -1  -9   99.59   18.80
  -1  -1  -9   92.39   11.10
  -1  -1  -9   69.29   22.20
   1   1   9  111.09   17.90
  -1   1  -9  104.69   19.10
  -1   1  -9   54.59   17.40
  -1   1  -9   86.79   13.70
   1   1   9   93.89   10.70
  -1   1  -9   94.39   18.70
  -1   1  -9   76.09   22.20
  -2  -1  -9  201.98   33.80
  -2  -1  -9  214.38   21.00
  -2  -1  -9  201.38   28.20
   2  -1   9  232.58   22.30
   2  -1   9  225.78   25.50
  -2  -1  -9  234.58   23.30
  -2  -1  -9  212.98   22.70
  -2   1  -9  210.58   33.40
  -2   1  -9  252.97   27.40
   2   1   9  295.37   24.30
  -2   1  -9  240.88   22.90
  -2   1  -9  209.58   22.40
  -2   1  -9  250.47   24.20
  -3  -1  -9  142.19   22.20
  -3  -1  -9  127.19   18.70
  -3  -1  -9   82.09   28.70
  -3  -1  -9   78.19   16.30
  -3   1  -9   60.39   21.20
  -3   1  -9  111.49   18.30
  -3   1  -9   95.39   17.20
  -3   1  -9  126.79   29.90
  -3   1  -9  146.69   24.90
  -3   1  -9  162.58   22.80
  -4  -1  -9   45.00   13.60
  -4  -1  -9   76.59   23.60
  -4  -1  -9   61.29   15.40
  -4  -1  -9   80.69   33.40
  -4   1  -9   39.20   30.10
  -4   1  -9   23.70   14.10
  -4   1  -9   60.19   14.80
  -4   1  -9   12.60   23.80
  -4   1  -9  128.79   30.60
  -5  -1  -9    3.10    6.70
  -5  -1  -9   26.00   27.90
  -5  -1  -9   12.70    8.60
  -5  -1  -9   23.80   33.20
  -5  -1  -9    2.30   28.00
  -5   1  -9    1.60   34.40
  -5   1  -9   16.30    9.80
  -5   1  -9    6.40    7.10
  -5   1  -9  -15.20   24.60
  -5   1  -9   37.90   34.80
  -6  -1  -9   61.69   42.30
  -6  -1  -9  -11.00   33.20
  -6  -1  -9  -70.19   29.80
  -6   1  -9   43.40   34.10
  -6   1  -9  -15.10   29.80
  -6   1  -9   -7.50   41.50
  -8  -2   9  -15.70   24.20
  -8  -2   9   12.60   47.70
  -8  -2   9  -20.80   39.60
  -8   2   9    2.20   25.80
  -8   2   9   12.90   50.89
  -8   2   9  120.39   52.89
  -8   2   9  -19.50   40.40
  -7  -2   9  -21.40   31.10
  -7  -2   9    6.50   23.20
  -7  -2   9  -34.70   34.00
  -7   2   9  111.39   43.50
  -7   2   9   10.30   24.40
  -7   2   9   15.40   35.60
  -7   2   9   -4.50   37.50
  -6  -2   9  -16.10   28.70
  -6  -2   9  -37.40   25.20
  -6  -2   9  -14.30   19.80
  -6   2   9    2.00   30.90
  -6   2   9    3.10   30.10
  -5  -2   9    7.20   29.70
  -5  -2   9   26.60   25.60
  -5  -2   9   23.40   19.50
  -5   2   9   -1.80   28.50
  -5   2   9    9.90   29.80
   4  -2  -9    2.70   17.80
  -4  -2   9   17.70   17.30
  -4  -2   9   -5.20   15.60
  -4  -2   9   35.10   25.40
  -4  -2   9   29.20   26.00
   4  -2  -9   -3.80   17.90
   4   2  -9    8.90   17.50
  -4   2   9    9.10   18.80
  -4   2   9  -12.30   23.70
  -4   2   9  -13.10   17.20
  -4   2   9   12.60   27.50
  -3  -2   9  -13.90   21.30
  -3  -2   9   15.80   19.30
   3  -2  -9    1.10   18.40
  -3  -2   9   26.40   19.10
  -3  -2   9   -1.30   14.90
   3  -2  -9    9.60   19.90
  -3   2   9   -9.20   21.90
   3   2  -9  -19.30   17.70
  -3   2   9   -0.50   24.10
   3   2  -9    1.20   11.80
  -3   2   9   14.40   16.00
  -3   2   9   51.89   18.50
   2  -2  -9  333.97   35.50
   2  -2  -9  312.97   34.60
  -2  -2   9  271.07   29.70
  -2  -2   9  333.47   31.90
   2  -2  -9  323.77   31.60
  -2  -2   9  324.67   39.60
  -2  -2   9  346.17   32.60
  -2   2   9  321.57   31.70
   2   2  -9  309.47   30.90
  -2   2   9  295.27   29.50
  -2   2   9  212.88   31.90
  -2   2   9  280.17   35.70
   2   2  -9  351.06   26.20
  -1  -2   9    0.40   15.20
  -1  -2   9  -11.70   17.90
  -1  -2   9    6.90   13.60
  -1  -2   9   13.40   16.30
   1  -2  -9   19.80   16.10
   1  -2  -9    4.00   15.60
   1  -2  -9   -3.00   16.30
   1   2  -9  -17.90   17.10
  -1   2   9    9.40   20.20
   1   2  -9   15.20   16.00
   1   2  -9   -9.70   15.90
   1   2  -9    1.30   17.50
  -1   2   9  -19.10   13.40
  -1   2   9    1.00   14.30
  -1   2   9  -14.70   20.60
   0  -2  -9  348.17   35.40
   0  -2   9  419.46   37.80
   0  -2   9  342.27   22.50
   0  -2   9  389.96   31.60
   0  -2  -9  439.26   32.60
   0  -2  -9  408.96   34.90
   0  -2   9  327.27   31.70
   0  -2  -9  362.96   31.40
   0   2   9  373.76   36.30
   0   2  -9  356.26   31.80
   0   2   9  397.76   19.80
   0   2  -9  414.56   32.40
   0   2  -9  394.56   32.40
   0   2  -9  346.77   32.00
  -1  -2  -9   61.39   17.60
  -1  -2  -9   62.99   22.90
  -1  -2  -9   68.59   24.30
  -1  -2  -9   82.19   18.60
   1  -2   9   61.69   20.00
   1  -2   9   66.49   16.10
  -1   2  -9   75.79   18.50
  -1   2  -9   95.69   19.10
   1   2   9   88.09   24.10
  -1   2  -9   87.99   25.10
  -1   2  -9   73.29   21.30
   1   2   9   99.79   18.90
   2  -2   9   32.30   14.00
  -2  -2  -9   14.20   14.50
  -2  -2  -9   32.40   23.80
  -2  -2  -9   46.90   16.70
  -2   2  -9   54.89   11.70
  -2   2  -9  110.69   22.10
  -2   2  -9   33.10   16.50
  -2   2  -9   15.30   21.40
  -2   2  -9   29.00   15.20
  -2   2  -9   43.20   11.10
   2   2   9   27.60   14.10
  -3  -2  -9   14.00   14.60
  -3  -2  -9    3.10   22.50
  -3  -2  -9   32.60   14.10
  -3  -2  -9   21.20   15.00
  -3   2  -9    6.20   13.50
  -3   2  -9   20.70   24.20
  -3   2  -9   11.60   15.40
  -3   2  -9   42.60   17.90
  -3   2  -9   39.50   20.40
  -4  -2  -9  -18.00   21.10
  -4  -2  -9   22.70   12.40
  -4  -2  -9    7.20   13.60
  -4  -2  -9  -14.50   20.00
  -4   2  -9   -2.70   23.10
  -4   2  -9   16.40   14.60
  -4   2  -9   18.40   21.90
  -4   2  -9    4.70   12.80
  -4   2  -9  -19.70   27.00
  -5  -2  -9   -0.10    8.10
  -5  -2  -9    6.80   28.60
  -5  -2  -9  -11.30   23.50
  -5  -2  -9   24.30   11.30
  -5   2  -9  -32.10   30.30
  -5   2  -9   12.40   11.10
  -5   2  -9   19.70   12.80
  -5   2  -9  -26.50   23.00
  -6  -2  -9   41.00   34.50
  -6  -2  -9   26.70   39.60
  -6  -2  -9  -90.99   33.10
  -6   2  -9   17.00   40.50
  -6   2  -9   55.69   39.00
  -6   2  -9   -4.40   30.70
  -7  -3   9   -2.30   38.70
  -7  -3   9   28.40   37.80
  -7  -3   9   12.50   24.80
  -7   3   9  -42.50   29.80
  -7   3   9   41.60   38.60
  -7   3   9   42.50   37.70
  -7   3   9    9.70   24.00
  -6  -3   9  -42.20   29.00
  -6  -3   9  -29.30   25.90
  -6  -3   9    5.00   21.40
  -6   3   9   -7.60   32.30
  -6   3   9    2.60   34.20
  -6   3   9   62.89   37.90
  -6   3   9   26.20   24.20
  -5  -3   9   89.39   34.70
  -5  -3   9  107.39   35.40
  -5  -3   9   96.59   24.70
  -5   3   9  184.88   37.90
  -5   3   9  111.39   26.80
  -5   3   9  158.68   40.40
  -5   3   9   53.99   32.70
  -4  -3   9   -3.20   21.20
   4  -3  -9  -24.80   17.90
  -4  -3   9    6.90   24.20
   4  -3  -9  -15.20   20.40
  -4  -3   9   10.30   18.80
  -4  -3   9   36.40   20.00
   4   3  -9  -12.30   18.70
  -4   3   9  -41.30   20.10
  -4   3   9   -6.90   18.30
  -4   3   9   13.70   19.20
  -4   3   9   11.60   23.70
  -4   3   9   -5.60   21.30
  -3  -3   9  492.45   51.19
  -3  -3   9  503.85   43.70
  -3  -3   9  437.66   40.30
   3  -3  -9  492.35   38.70
  -3  -3   9  530.15   42.70
   3  -3  -9  535.05   41.50
  -3   3   9  479.95   43.30
   3   3  -9  451.65   26.80
  -3   3   9  480.95   53.49
  -3   3   9  460.45   41.20
   3   3  -9  446.46   36.40
  -3   3   9  492.75   39.10
   2  -3  -9    4.90   20.80
  -2  -3   9   22.60   17.00
  -2  -3   9  -14.70   18.30
   2  -3  -9   -0.90   16.40
  -2  -3   9    2.40   15.80
  -2  -3   9   -0.10   16.10
  -2   3   9   10.20   17.60
  -2   3   9   16.50   17.30
   2   3  -9   22.50   14.40
   2   3  -9  -16.40   16.60
  -2   3   9  -20.80   17.90
  -2   3   9   24.10   17.40
  -2   3   9    4.60   20.60
  -1  -3   9  217.68   23.80
   1  -3  -9  108.09   21.50
  -1  -3   9  235.68   26.30
   1  -3  -9  201.78   31.50
  -1  -3   9  133.69   28.20
   1  -3  -9  151.78   25.80
  -1   3   9  193.28   25.10
   1   3  -9  214.28   26.50
  -1   3   9  221.18   32.80
   1   3  -9  151.08   26.90
  -1   3   9  204.18   21.20
   1   3  -9  183.68   25.50
   1   3  -9  192.98   28.30
  -1   3   9  181.08   32.90
   0  -3   9    3.70   20.80
   0  -3  -9   26.60   18.40
   0  -3  -9    4.50   16.70
   0  -3   9   -0.10   15.70
   0  -3  -9  -14.90   14.70
   0   3  -9   -7.50   16.60
   0   3   9   -7.80   22.70
   0   3   9    1.30   16.50
   0   3  -9   21.80   20.10
   0   3  -9   23.10   19.30
   0   3  -9   -0.30   15.50
  -1  -3  -9    0.20   14.90
  -1  -3  -9   25.30   16.10
  -1  -3  -9  -14.90   18.10
   1  -3   9   -4.90   12.60
   1  -3   9   -0.90   18.90
  -1   3  -9   18.90   20.80
  -1   3  -9   18.30   16.80
  -1   3  -9   -7.30   16.90
   1   3   9   -9.90   21.30
   1   3   9    7.00   14.20
  -1   3  -9   -8.60   13.30
   2  -3   9   -2.90   12.80
  -2  -3  -9   -3.60   12.80
  -2  -3  -9   11.00   14.80
  -2  -3  -9   -8.70   18.80
   2   3   9    2.10   13.30
  -2   3  -9   15.50   15.10
  -2   3  -9  -18.70   18.40
  -2   3  -9   -6.00   14.60
  -2   3  -9   34.20   21.20
  -3  -3  -9  114.79   19.90
  -3  -3  -9  108.39   30.20
  -3  -3  -9  136.59   19.20
  -3  -3  -9   84.69   17.80
  -3   3  -9  148.29   27.70
  -3   3  -9   74.19   18.70
  -3   3  -9  107.29   21.10
  -3   3  -9   82.39   27.70
  -3   3  -9  120.89   20.40
  -4  -3  -9   -6.00   26.40
  -4  -3  -9    5.60   15.40
  -4  -3  -9   22.80   21.90
  -4  -3  -9    7.30   13.80
  -4   3  -9   -6.50   29.40
  -4   3  -9   28.20   24.50
  -4   3  -9    5.20   13.70
  -4   3  -9    4.50   16.00
  -4   3  -9   71.89   27.80
  -5  -3  -9   27.60   13.30
  -5  -3  -9   74.89   15.70
  -5  -3  -9   65.29   34.30
  -5   3  -9   40.50   31.50
  -5   3  -9   45.20   36.80
  -5   3  -9   41.20   14.80
  -5   3  -9   35.20   15.90
  -6  -3  -9   23.40   32.10
  -6  -3  -9  -48.60   37.50
  -6   3  -9   38.40   38.40
  -6   3  -9  -12.80   33.50
  -7  -4   9  -45.40   35.70
  -7  -4   9   31.70   41.40
  -7  -4   9   30.80   24.60
  -7   4   9    9.40   37.30
  -7   4   9   19.30   26.30
  -7   4   9  -17.90   35.80
  -7   4   9    2.60   37.60
  -6  -4   9   24.50   35.10
  -6  -4   9  -31.90   20.10
  -6  -4   9    8.90   30.40
  -6   4   9   37.50   35.80
  -6   4   9  -10.50   30.00
  -6   4   9  -20.70   33.80
  -6   4   9   -6.30   22.50
  -5  -4   9   -7.60   26.40
   5  -4  -9   39.60   27.20
  -5  -4   9   25.40   30.80
  -5  -4   9   27.20   22.40
  -5   4   9    0.30   26.10
  -5   4   9    8.70   20.80
  -5   4   9  -21.20   26.90
  -5   4   9   29.10   29.90
  -4  -4   9   23.40   27.20
  -4  -4   9    7.50   20.20
   4  -4  -9   15.10   19.50
  -4  -4   9   41.10   27.60
   4  -4  -9   56.19   25.80
  -4  -4   9   60.49   23.80
  -4   4   9   50.89   27.20
  -4   4   9   26.50   27.00
  -4   4   9   21.50   22.70
  -4   4   9    9.10   20.40
   4   4  -9   33.20   21.70
  -4   4   9   34.40   21.90
   3  -4  -9    7.30   22.40
  -3  -4   9   12.70   21.40
   3  -4  -9  -22.20   19.50
  -3  -4   9    1.40   20.70
  -3  -4   9  -16.30   17.70
  -3  -4   9   -8.10   18.50
  -3   4   9    5.00   17.60
  -3   4   9   38.90   25.50
  -3   4   9  -12.20   21.40
   3   4  -9    6.30    9.60
  -3   4   9   41.40   22.80
   3   4  -9  -12.70   18.10
  -3   4   9  -16.10   18.10
  -2  -4   9  293.17   37.80
   2  -4  -9  365.46   34.90
  -2  -4   9  416.96   38.60
  -2  -4   9  348.27   33.10
   2  -4  -9  351.46   40.00
  -2  -4   9  361.66   35.30
  -2   4   9  283.47   35.70
  -2   4   9  437.96   39.40
  -2   4   9  361.86   32.50
   2   4  -9  395.66   28.40
  -2   4   9  373.86   36.30
   2   4  -9  377.06   36.90
  -2   4   9  344.87   45.00
   2   4  -9  344.97   41.70
   1  -4  -9   51.19   19.40
  -1  -4   9   41.40   19.60
  -1  -4   9   39.90   22.40
   1  -4  -9   38.10   19.50
  -1  -4   9   36.10   15.10
   1  -4  -9   54.09   22.20
   1   4  -9   43.00   20.90
  -1   4   9   42.80   23.80
   1   4  -9   51.69   23.90
  -1   4   9   56.89   15.70
   1   4  -9   37.20   18.50
  -1   4   9   69.09   23.30
   1   4  -9   38.70   19.50
  -1   4   9   67.69   21.00
   0  -4  -9  626.64   47.40
   0  -4  -9  522.05   38.60
   0  -4  -9  629.54   40.90
   0  -4   9  523.85   41.80
   0  -4   9  644.44   39.60
   0   4   9  591.64   51.19
   0   4  -9  536.35   40.00
   0   4   9  569.64   25.80
   0   4  -9  584.24   39.60
   0   4  -9  567.84   44.90
   0   4   9  531.55   36.60
   0   4  -9  577.04   39.70
  -1  -4  -9  221.08   26.70
   1  -4   9  186.98   30.70
  -1  -4  -9  199.88   32.30
  -1  -4  -9  145.99   23.70
  -1   4  -9  231.08   33.80
  -1   4  -9  190.18   25.80
  -1   4  -9  190.58   25.80
   1   4   9  217.58   37.10
   2  -4   9  276.17   27.50
  -2  -4  -9  221.78   25.40
  -2  -4  -9  277.77   29.20
  -2  -4  -9  235.18   35.70
  -2   4  -9  257.67   28.40
  -2   4  -9  285.07   29.90
   2   4   9  306.87   28.70
  -2   4  -9  262.97   36.60
  -3  -4  -9   52.99   15.30
  -3  -4  -9   43.10   27.30
  -3  -4  -9   29.50   16.00
  -3  -4  -9   39.30   18.50
   3  -4   9   22.10   17.10
   3   4   9   23.00   15.20
  -3   4  -9  -29.20   13.80
  -3   4  -9   40.20   26.30
  -3   4  -9   17.90   18.10
  -3   4  -9   67.49   28.70
  -3   4  -9   28.70   16.70
  -4  -4  -9   22.80   28.20
  -4  -4  -9  -18.30   15.90
  -4  -4  -9    9.50   15.00
  -4   4  -9  -20.60   18.20
  -4   4  -9   96.79   32.80
  -4   4  -9   40.00   17.50
  -4   4  -9   76.49   35.00
  -5  -4  -9   24.00   32.60
  -5  -4  -9   -5.70   13.80
  -5  -4  -9   -2.20   16.40
  -5   4  -9   77.39   36.20
  -5   4  -9  -13.00   29.90
  -5   4  -9  -15.90   16.50
  -5   4  -9  -11.60   15.10
  -6  -4  -9   63.59   37.10
  -6  -4  -9   -9.70   42.20
  -6   4  -9   14.00   10.90
  -6   4  -9   -3.70   12.40
  -6   4  -9   96.79   42.90
  -6   4  -9  -21.80   39.00
  -7  -5   9   16.40   34.80
  -7  -5   9   -8.60   41.70
  -7  -5   9    4.90   23.80
  -7   5   9   -2.70   38.50
  -7   5   9    0.50   26.80
  -7   5   9   16.30   42.60
  -6  -5   9   13.90   24.20
  -6  -5   9    7.20   30.00
  -6  -5   9   40.20   38.50
  -6   5   9   -3.20   35.60
  -6   5   9    0.60   23.70
  -6   5   9  -14.30   30.00
  -6   5   9   64.49   36.60
  -5  -5   9  -24.20   26.90
  -5  -5   9   43.10   34.50
   5  -5  -9   53.29   29.60
  -5  -5   9   91.59   25.60
  -5   5   9   38.90   25.30
  -5   5   9   65.09   35.30
  -5   5   9   47.70   30.50
  -5   5   9   68.99   32.80
  -4  -5   9  116.79   32.40
   4  -5  -9  123.79   32.80
  -4  -5   9  135.29   26.60
   4  -5  -9  127.09   27.50
  -4  -5   9  133.49   33.40
  -4   5   9  103.69   32.00
   4   5  -9  113.89   26.60
  -4   5   9  140.19   33.40
  -4   5   9  100.59   25.00
  -4   5   9   90.89   34.00
   3  -5  -9  207.38   36.10
   3  -5  -9  162.78   28.30
  -3  -5   9  137.79   26.30
  -3  -5   9  169.78   28.80
  -3  -5   9  220.78   34.20
  -3  -5   9  114.79   29.80
   3   5  -9  177.48   16.30
  -3   5   9  103.19   29.90
  -3   5   9  188.78   28.80
   3   5  -9  173.38   29.00
  -3   5   9  195.08   33.40
  -3   5   9  105.19   34.10
  -3   5   9  145.39   29.60
   3   5  -9  166.98   16.00
   2  -5  -9   50.09   22.30
  -2  -5   9   34.70   21.20
  -2  -5   9   -2.50   18.10
  -2  -5   9   34.30   21.80
  -2  -5   9    9.90   23.30
   2  -5  -9   28.90   24.70
  -2   5   9   31.00   24.10
  -2   5   9   -3.30   17.20
  -2   5   9   24.00   19.80
   2   5  -9   20.70   15.60
   2   5  -9    7.50   20.70
   2   5  -9   27.30   23.30
  -2   5   9   -4.40   19.00
  -2   5   9   10.20   23.00
  -1  -5   9  136.59   28.60
   1  -5  -9  105.39   24.00
  -1  -5   9  111.19   20.30
   1  -5  -9  106.59   23.90
   1  -5  -9  119.69   27.40
  -1  -5   9  115.39   26.00
   1   5  -9  103.89   27.70
  -1   5   9   58.49   31.40
   1   5  -9  109.89   24.90
   1   5  -9   98.19   22.20
   1   5  -9  127.99   26.50
  -1   5   9   90.39   24.20
  -1   5   9  126.09   20.30
   0  -5  -9   87.99   21.70
   0  -5   9   27.50   20.30
   0  -5   9   50.59   22.60
   0  -5   9   59.39   11.50
   0  -5  -9   35.10   20.50
   0  -5  -9   43.20   23.10
   0  -5   9   55.09   12.70
   0   5   9   56.89   20.00
   0   5  -9   59.79   22.40
   0   5  -9   46.90   23.10
   0   5   9   71.69   31.10
   0   5  -9   39.20   20.10
   0   5   9   40.00   12.60
  -1  -5  -9   -3.20   17.40
   1  -5   9    1.40   19.90
  -1  -5  -9   -7.60   19.70
   1  -5   9    3.80   10.20
  -1  -5  -9  -28.20   15.00
   1   5   9  -22.10   24.30
   1   5   9   -0.10    7.70
  -1   5  -9  -25.10   20.50
  -1   5  -9  -16.40   17.40
  -1   5  -9   15.80   17.90
  -2  -5  -9   55.59   20.50
   2  -5   9   99.89   20.50
  -2  -5  -9   99.59   30.40
  -2  -5  -9   74.29   19.70
  -2   5  -9   57.39   21.10
   2   5   9   78.09   19.70
  -2   5  -9   57.39   19.90
  -2   5  -9   82.29   30.80
  -3  -5  -9   10.20   15.40
  -3  -5  -9   18.20   17.80
  -3  -5  -9   52.09   27.60
  -3  -5  -9   17.20   14.00
  -3   5  -9   10.40   17.40
  -3   5  -9    8.70   28.50
  -3   5  -9    4.00   15.40
  -3   5  -9    4.20   19.40
  -4  -5  -9   25.90   17.20
  -4  -5  -9   42.90   29.00
  -4   5  -9   56.79   33.60
  -4   5  -9   20.50   17.60
  -5  -5  -9   22.30   29.70
  -5  -5  -9   19.10   16.50
  -5   5  -9   12.20   38.10
  -5   5  -9   23.40   34.00
  -5   5  -9    7.80   17.70
  -6  -5  -9   -6.30   15.10
  -6  -5  -9   72.69   36.30
  -6  -5  -9   -7.90   43.40
  -6   5  -9   -2.00   16.50
  -6   5  -9   22.70   42.70
  -6   5  -9   39.30   44.10
  -7  -6   9  -14.00   25.60
  -7  -6   9   -5.80   35.40
  -7  -6   9  -17.10   34.50
  -7   6   9  -41.50   35.80
  -7   6   9   25.60   44.70
  -7   6   9  -18.60   28.00
  -6  -6   9    5.00   25.70
  -6  -6   9    1.10   37.20
  -6  -6   9   -4.50   30.80
  -6   6   9   19.90   33.40
  -6   6   9   25.80   27.20
  -6   6   9   25.00   34.30
  -6   6   9    0.50   38.80
   5  -6  -9   13.90   29.50
  -5  -6   9   28.90   24.10
  -5  -6   9    6.90   31.20
  -5  -6   9   32.60   33.50
  -5   6   9   23.20   24.30
  -5   6   9   56.49   35.90
  -5   6   9  -26.80   33.30
  -5   6   9   47.90   29.90
   4  -6  -9   -8.20   27.10
  -4  -6   9   43.00   28.30
  -4  -6   9    1.20   22.10
  -4  -6   9   10.30   27.80
  -4   6   9    4.30   26.60
  -4   6   9  -26.70   28.00
  -4   6   9  -28.50   22.40
  -4   6   9   18.70   22.70
  -3  -6   9  161.48   29.50
  -3  -6   9  155.68   32.50
  -3  -6   9  171.28   29.60
  -3  -6   9  215.38   39.50
   3  -6  -9  195.58   34.90
   3  -6  -9  225.58   32.80
  -3   6   9  161.38   30.00
   3   6  -9  184.48   28.60
   3   6  -9  185.58   19.20
  -3   6   9  189.08   32.40
   3   6  -9  228.68   19.70
  -3   6   9  102.99   34.00
  -3   6   9  177.78   33.10
  -3   6   9  208.28   36.60
   2  -6  -9   -3.60   19.40
  -2  -6   9   13.20   24.40
  -2  -6   9   17.50   21.50
   2  -6  -9   22.50   23.30
  -2   6   9    6.40   19.10
   2   6  -9   14.70   19.90
  -2   6   9   26.60   29.90
   2   6  -9   14.40   23.50
   2   6  -9   14.90   15.60
  -2   6   9  -18.00   18.50
   1  -6  -9  646.74   47.10
   1  -6  -9  720.23   53.69
   1  -6  -9  650.83   47.10
  -1  -6   9  682.13   50.09
  -1  -6   9  690.03   44.30
  -1  -6   9  722.53   48.20
   1   6  -9  647.14   45.30
   1   6  -9  632.14   51.99
  -1   6   9  664.13   46.80
   1   6  -9  611.94   46.00
  -1   6   9  692.73   41.80
  -1   6   9  528.45   53.99
   0  -6  -9   55.29   27.20
   0  -6   9   13.10   14.50
   0  -6   9   50.19   23.80
   0  -6   9   60.89   21.00
   0  -6  -9   49.40   22.90
   0   6  -9   -9.80   25.90
   0   6   9   17.10   17.30
   0   6   9   39.30   16.00
   0   6  -9  -11.00   19.60
   0   6  -9   42.30   21.10
   0   6   9   57.19   32.40
  -1  -6  -9  585.44   41.70
   1  -6   9  485.45   39.10
  -1  -6  -9  480.65   24.60
   1  -6   9  519.85   41.10
  -1  -6  -9  548.85   54.19
  -1   6  -9  546.65   40.90
  -1   6  -9  561.14   55.69
   1   6   9  361.66   35.70
   1   6   9  540.35   58.09
  -1   6  -9  505.55   40.00
  -2  -6  -9   13.30   18.00
  -2  -6  -9   27.10   24.00
  -2  -6  -9   19.60   10.80
  -2   6  -9   49.00   21.00
  -2   6  -9   43.00   28.60
  -2   6  -9   49.00   21.80
  -3  -6  -9   -5.30   27.90
  -3  -6  -9  140.29   25.30
  -3   6  -9  104.49   24.40
  -3   6  -9   62.09   36.90
  -4  -6  -9    2.60   16.80
  -4  -6  -9  -10.40   27.20
  -4   6  -9   -8.20   19.30
  -4   6  -9   -2.80   30.70
  -5  -6  -9   37.40   32.70
  -5  -6  -9    7.10   17.30
  -5   6  -9   13.50   19.80
  -5   6  -9   46.50   39.60
  -6  -6  -9  -15.10   42.10
  -6  -6  -9  -25.40   16.10
  -6  -6  -9   23.10   37.30
  -6   6  -9   -6.10   19.90
  -6   6  -9  -25.70   41.20
  -6   6  -9  -15.20   41.50
  -7  -7   9   -9.20   44.70
  -7  -7   9   35.80   29.70
  -7  -7   9   13.90   42.70
  -7   7   9   -7.90   43.00
  -7   7   9  -53.19   34.40
  -7   7   9  -41.60   29.60
  -6  -7   9    8.70   33.80
  -6  -7   9   41.90   29.00
  -6  -7   9   34.80   37.40
  -6   7   9   -7.90   27.20
  -6   7   9  -18.30   39.70
  -6   7   9   43.90   37.40
   5  -7  -9   -8.30   29.90
  -5  -7   9   22.90   25.70
  -5  -7   9   15.40   29.70
  -5  -7   9   19.00   33.30
  -5   7   9   24.00   37.70
  -5   7   9  -22.10   27.20
  -5   7   9  -32.60   22.90
  -5   7   9  -15.90   33.80
  -4  -7   9   17.20   24.40
  -4  -7   9   27.90   30.90
   4  -7  -9    7.10   30.80
  -4  -7   9   64.69   34.60
  -4   7   9   58.49   29.60
  -4   7   9    7.20   29.70
  -4   7   9    1.60   29.30
  -4   7   9    4.30   22.70
  -3  -7   9   24.80   24.80
   3  -7  -9   -8.20   24.30
   3  -7  -9   48.00   25.00
  -3  -7   9   12.70   27.40
  -3   7   9   -9.70   30.70
   3   7  -9   51.99   25.30
   3   7  -9    3.70   25.40
  -3   7   9    0.10   22.90
  -3   7   9    9.20   23.00
   3   7  -9    1.50   13.60
  -3   7   9   -9.40   21.70
  -2  -7   9   41.40   22.40
  -2  -7   9   99.99   30.50
   2  -7  -9   88.79   28.80
   2  -7  -9   66.69   25.40
  -2   7   9   -2.30   31.90
   2   7  -9   51.39   22.70
  -2   7   9   37.40   22.70
   2   7  -9   55.89   28.50
  -2   7   9   38.00   24.30
  -1  -7   9    1.80   23.40
  -1  -7   9   -3.20   21.00
  -1  -7   9  -21.90   20.30
   1  -7  -9  -32.20   17.60
   1  -7  -9   24.60   25.80
  -1   7   9   26.80   28.40
  -1   7   9   29.50   23.00
   1   7  -9    7.00   27.70
  -1   7   9   20.90   19.80
   1   7  -9   12.10   21.00
   0  -7  -9   19.40   23.70
   0  -7   9    4.90   17.40
   0  -7  -9   73.19   24.40
   0  -7  -9   53.59   22.10
   0  -7   9   46.10   24.20
   0  -7  -9   59.39   17.20
   0  -7   9   51.09   24.60
   0   7  -9   28.30   23.70
   0   7   9   16.80   31.80
   0   7  -9   48.80   27.00
   0   7  -9    2.50   20.50
   0   7   9   17.60   18.60
   0   7   9   15.70   22.40
   1  -7   9   32.60   22.30
  -1  -7  -9  -19.10   20.90
   1  -7   9   -0.40   20.10
  -1  -7  -9   45.60   26.60
  -1  -7  -9   -3.10   20.40
  -1  -7  -9   16.90   13.20
  -1   7  -9   28.30   20.70
   1   7   9   -4.10   17.30
  -1   7  -9   -0.90   19.20
  -1   7  -9   21.40   27.00
   1   7   9   40.00   29.00
  -2  -7  -9  311.17   35.00
  -2  -7  -9  337.57   47.80
  -2   7  -9  239.78   34.20
  -2   7  -9  329.87   49.99
  -3  -7  -9   -7.40   18.70
  -3  -7  -9   21.80   28.50
  -3   7  -9  -34.70   35.60
  -3   7  -9    5.30   21.00
  -4  -7  -9  109.39   39.80
  -4  -7  -9  106.09   23.90
  -4   7  -9   70.89   43.50
  -4   7  -9   90.99   25.30
  -5  -7  -9   31.90   32.80
  -5  -7  -9    0.00   38.50
  -5  -7  -9   11.40   19.70
  -5   7  -9   25.00   23.50
  -5   7  -9  -54.59   36.40
  -6  -8   9   42.70   42.40
  -6  -8   9   33.40   30.00
  -6  -8   9    9.70   41.20
  -6   8   9    2.90   30.90
  -6   8   9  -24.80   40.70
  -6   8   9  -46.50   35.80
   5  -8  -9   88.19   37.30
  -5  -8   9   -7.50   34.50
  -5  -8   9    6.70   27.10
  -5  -8   9   -8.50   34.30
  -5   8   9    7.60   32.10
  -5   8   9   -3.10   28.80
  -5   8   9  -52.99   29.50
  -4  -8   9   41.90   36.30
  -4  -8   9   68.89   31.30
   4  -8  -9   61.29   34.30
  -4   8   9   26.20   25.50
  -4   8   9  -40.20   35.30
  -4   8   9    9.50   26.70
  -3  -8   9   10.00   29.40
  -3  -8   9   56.19   27.00
   3  -8  -9   61.29   28.50
   3  -8  -9   54.89   32.60
  -3   8   9   64.49   31.20
   3   8  -9   49.00   29.90
  -3   8   9   79.69   41.20
  -3   8   9   69.49   27.90
   3   8  -9   72.89   33.20
  -2  -8   9  170.58   36.40
   2  -8  -9  219.48   39.20
   2  -8  -9  201.28   36.50
  -2  -8   9  284.97   40.70
  -2   8   9  283.07   39.10
   2   8  -9  280.87   38.50
   2   8  -9  180.78   42.60
  -2   8   9  198.28   34.60
  -2   8   9  145.69   42.00
   1  -8  -9  163.38   29.60
   1  -8  -9  140.49   36.90
  -1  -8   9  128.79   30.70
  -1  -8   9  119.89   31.10
  -1   8   9   97.09   35.80
  -1   8   9  139.19   30.30
  -1   8   9  123.79   29.60
   1   8  -9  143.49   30.70
   1   8  -9  133.69   34.80
   0  -8  -9  252.57   34.50
   0  -8   9  240.18   33.30
   0  -8  -9  213.38   40.20
   0  -8   9  226.28   33.50
   0   8   9  213.88   29.50
   0   8   9  204.08   33.40
   0   8  -9  195.98   32.20
   0   8  -9  228.88   40.80
   0   8   9  186.28   43.80
   1  -8   9  -18.70   21.20
  -1  -8  -9  -13.70   21.10
  -1  -8  -9   24.90   31.00
   1   8   9   -4.00   26.70
   1   8   9   51.19   17.80
  -1   8  -9   -5.70   29.00
  -1   8  -9   13.70   24.20
  -2  -8  -9   -1.40   30.40
  -2  -8  -9   24.90   21.40
  -2   8  -9    8.00   24.10
  -2   8  -9   -2.10   34.80
  -3  -8  -9    8.90   27.20
  -3  -8  -9   -5.50   19.40
  -3   8  -9  -35.40   31.40
  -3   8  -9  -17.90   23.10
  -4  -8  -9    9.10   34.20
  -4  -8  -9    0.70   20.00
  -4   8  -9    1.40   23.90
  -4   8  -9   21.50   41.20
  -5  -8  -9   55.79   42.40
  -5  -8  -9   18.70   20.90
  -5  -8  -9   26.80   37.20
  -5   8  -9  -29.80   49.10
  -5   8  -9   14.70   24.30
  -6  -9   9   38.10   33.00
  -6  -9   9    2.30   40.00
  -6  -9   9   23.10   42.80
  -6   9   9    0.90   42.70
  -6   9   9   20.90   33.60
  -6   9   9   55.39   40.80
  -5  -9   9   61.49   41.40
   5  -9  -9   69.89   37.10
  -5  -9   9   80.69   44.00
  -5  -9   9   49.50   35.20
  -5   9   9   71.29   43.40
  -5   9   9   43.20   38.60
  -5   9   9  113.19   37.10
  -4  -9   9   15.40   29.60
  -4  -9   9  -17.50   31.60
   4  -9  -9    6.50   30.10
  -4   9   9    5.20   34.30
  -4   9   9  -57.99   39.30
  -4   9   9  -17.60   28.10
   3  -9  -9   46.00   34.70
  -3  -9   9   29.70   26.40
  -3  -9   9   64.19   35.00
   3   9  -9   28.20   34.90
  -3   9   9   28.40   27.80
  -3   9   9   26.00   31.80
  -3   9   9   47.80   39.50
  -2  -9   9  -14.80   26.10
   2  -9  -9   -5.50   25.80
   2  -9  -9  -18.90   21.70
  -2  -9   9   13.50   28.10
  -2   9   9   15.30   37.30
   2   9  -9   30.70   34.40
  -2   9   9   10.70   25.60
  -2   9   9    4.20   28.60
   2   9  -9   -2.70   25.60
  -1  -9   9   12.90   26.00
  -1  -9   9   21.90   26.10
   1  -9  -9    4.70   25.00
   1  -9  -9   12.70   25.00
   1   9  -9   47.30   35.90
  -1   9   9    1.10   25.50
   1   9  -9    3.90   23.70
  -1   9   9    5.20   24.70
  -1   9   9   23.00   34.50
   0  -9  -9   32.50   33.20
   0  -9   9   11.80   24.30
   0  -9  -9  -31.00   23.20
   0  -9   9   40.50   27.80
   0   9   9   -3.00   30.10
   0   9  -9  -13.60   23.30
   0   9  -9   28.20   35.20
   0   9   9  -10.80   23.00
  -1  -9  -9   51.09   26.60
   1  -9   9  111.29   27.80
  -1  -9  -9   77.69   32.90
  -1   9  -9   47.10   28.40
   1   9   9   67.09   35.40
  -1   9  -9   65.49   38.40
  -2  -9  -9   22.00   33.70
  -2  -9  -9  -15.80   21.20
  -2   9  -9    0.90   23.30
  -2   9  -9  -13.70   32.80
  -3  -9  -9   59.19   26.10
  -3  -9  -9   20.90   32.00
  -3   9  -9   -7.30   37.10
  -3   9  -9   24.70   26.50
  -4  -9  -9   41.40   38.70
  -4  -9  -9  -35.00   19.80
  -4   9  -9   13.60   26.90
  -4   9  -9    8.30   48.10
  -5  -9  -9  -16.00   21.90
  -5  -9  -9    7.60   42.20
  -5  -9  -9   -6.30   41.40
  -5   9  -9   31.30   51.49
  -5   9  -9   42.90   28.50
  -5 -10   9  -42.10   37.00
  -5 -10   9   25.50   35.90
  -5  10   9   54.49   46.40
  -5  10   9  -29.50   39.50
  -5  10   9    6.80   32.50
  -4 -10   9    3.40   31.80
   4 -10  -9   40.60   39.10
  -4 -10   9  -41.40   31.20
  -4  10   9    1.70   29.30
  -4  10   9   13.90   40.00
  -4  10   9  -19.00   44.30
  -3 -10   9    6.40   30.10
   3 -10  -9  102.89   41.30
  -3 -10   9    0.50   33.70
  -3  10   9   11.40   34.90
  -3  10   9    3.80   39.40
  -3  10   9   18.90   27.50
   3  10  -9   77.59   40.60
   2 -10  -9  105.39   30.00
  -2 -10   9  100.19   35.90
  -2 -10   9   82.49   31.30
   2 -10  -9  128.49   39.20
  -2  10   9  118.49   45.70
  -2  10   9   56.29   35.00
  -2  10   9  145.69   36.80
   2  10  -9  117.89   37.70
   2  10  -9   80.29   31.60
  -1 -10   9  -12.90   26.90
   1 -10  -9   19.50   26.90
   1 -10  -9   39.70   31.50
  -1 -10   9   47.30   30.00
   1  10  -9   83.89   32.60
  -1  10   9   32.00   40.00
  -1  10   9  -33.20   28.50
   1  10  -9   49.60   37.40
  -1  10   9   18.30   26.20
   0 -10  -9   77.99   32.50
   0 -10  -9  149.49   42.80
   0 -10   9  113.99   30.80
   0  10   9   69.49   40.10
   0  10  -9  121.99   33.50
   0  10  -9  118.29   38.70
   0  10   9   89.79   31.80
  -1 -10  -9  -41.40   30.00
  -1 -10  -9  -50.29   23.70
  -1  10  -9  -48.10   24.70
  -1  10  -9   41.10   40.00
   1  10   9   34.20   34.50
  -2 -10  -9   -5.80   24.80
  -2 -10  -9   60.99   36.10
  -2  10  -9   -8.90   34.80
  -2  10  -9   71.59   30.30
  -3 -10  -9   18.20   27.10
  -3 -10  -9   -8.20   35.10
  -3  10  -9  -10.60   26.50
  -3  10  -9  -78.89   34.90
  -4 -10  -9    4.40   25.00
  -4 -10  -9   27.20   41.00
  -4 -10  -9   -3.30   40.50
  -4  10  -9  -66.29   41.30
  -4  10  -9  -32.10   27.80
  -5 -11   9  -31.60   34.40
  -5 -11   9    2.40   45.70
  -5  11   9   17.40   45.60
  -5  11   9 -104.79   46.80
  -5  11   9  -46.90   30.50
  -4 -11   9   52.39   38.20
  -4 -11   9   36.80   40.50
   4 -11  -9    6.80   32.50
  -4  11   9   54.09   36.20
  -4  11   9    1.80   39.40
  -4  11   9   37.70   47.40
  -3 -11   9  -26.90   32.40
  -3 -11   9   59.49   35.40
   3 -11  -9   19.10   36.00
  -3  11   9   14.20   38.30
  -3  11   9    4.70   29.30
   3  11  -9   33.00   35.80
  -3  11   9  -41.60   42.90
  -2 -11   9   -7.40   29.10
   2 -11  -9   42.70   33.50
  -2 -11   9   22.60   32.40
   2  11  -9  -25.40   29.80
  -2  11   9    4.50   32.30
  -2  11   9  -54.99   31.90
  -2  11   9  -47.40   40.20
   1 -11  -9  -25.60   31.30
   1 -11  -9   19.30   30.60
  -1 -11   9  -21.10   28.00
   1  11  -9   15.90   32.80
   1  11  -9   23.40   34.30
  -1  11   9  -77.39   30.30
  -1  11   9   42.50   39.60
   0 -11  -9   18.30   29.70
   0 -11  -9  -16.70   28.70
   0  11  -9   10.10   27.90
   0  11   9  -40.30   31.10
   0  11  -9   -1.20   29.60
  -1 -11  -9  -51.59   33.90
  -1 -11  -9   34.90   29.60
  -1  11  -9  -14.60   29.40
  -1  11  -9   10.60   34.90
  -2 -11  -9   45.90   30.30
  -2 -11  -9   17.20   38.20
  -2  11  -9  -52.59   41.00
  -2  11  -9  -40.70   25.90
  -3 -11  -9   47.70   42.60
  -3 -11  -9  -34.60   26.00
  -3  11  -9  -90.89   43.00
  -3  11  -9   -9.70   30.60
  -4 -11  -9    6.60   45.30
  -4 -11  -9   67.29   49.10
  -4 -11  -9   32.80   29.60
  -4  11  -9  -12.70   30.20
  -4  11  -9  -34.70   47.30
  -4 -12   9    5.90   41.90
   4 -12  -9   15.90   40.10
  -4 -12   9   -5.20   40.90
  -4  12   9   71.49   52.49
  -4  12   9  -16.10   51.09
  -4  12   9  -13.10   36.60
   3 -12  -9   37.80   39.00
  -3 -12   9    5.70   36.40
  -3 -12   9   12.70   38.40
  -3  12   9  -12.60   41.90
   3  12  -9   31.70   42.70
  -3  12   9   -3.30   47.20
  -3  12   9   27.50   37.20
  -2 -12   9   37.50   36.30
   2 -12  -9    3.90   36.00
   2  12  -9   34.50   37.60
  -2  12   9   -6.00   44.70
  -2  12   9  -54.79   36.10
   1 -12  -9  121.19   39.90
   1 -12  -9  115.89   43.90
   1  12  -9   59.19   38.50
  -1  12   9   64.29   47.20
   0 -12  -9   17.70   29.80
   0 -12  -9   37.60   39.30
   0  12  -9   12.40   34.50
   0  12  -9   23.20   34.80
   0  12   9   -0.70   39.20
  -1 -12  -9   49.70   37.10
  -1 -12  -9   53.39   37.50
  -1  12  -9   53.79   39.90
  -1  12  -9   77.09   38.80
  -2 -12  -9  -21.70   39.40
  -2 -12  -9   26.60   31.10
  -2  12  -9  -57.99   43.30
  -2  12  -9   49.50   35.90
  -3 -12  -9   42.30   47.20
  -3 -12  -9    7.40   30.80
  -3 -12  -9  -17.30   42.10
  -3  12  -9  -22.50   51.19
  -3  12  -9   11.40   34.20
   3 -13  -9    9.20   40.10
  -3 -13   9  -36.00   37.40
  -3  13   9   52.39   57.69
  -3  13   9  -52.69   44.60
   3  13  -9   83.19   49.00
   2 -13  -9    9.20   35.70
   2  13  -9   36.60   40.80
  -2  13   9   39.80   51.99
   1 -13  -9  -27.10   31.80
   1  13  -9    1.90   35.20
  -1  13   9   -6.80   42.80
   0 -13  -9   10.80   37.90
   0 -13  -9  -25.30   35.60
   0  13   9   58.79   48.30
   0  13  -9   43.70   40.90
   0  13  -9   42.70   39.80
  -1 -13  -9    8.40   41.00
  -1 -13  -9   63.89   40.00
  -1  13  -9  -21.00   33.40
  -1  13  -9  -26.90   40.70
  -2 -13  -9  -20.80   42.40
  -2 -13  -9   40.10   36.70
  -2  13  -9  -26.30   41.90
  -2  13  -9  -12.90   38.30
   1 -14  -9   44.10   40.50
   1  14  -9   13.00   46.20
  -1  14   9   53.09   47.70
   0 -14  -9   44.10   41.30
   0  14   9   97.19   55.49
   0  14  -9   18.70   42.40
  -8   0  10   11.90   42.20
  -8   0  10   21.70   46.90
  -7   0  10   24.10   25.80
  -7   0  10    5.60   34.90
  -7   0  10   15.20   40.00
  -6   0  10   55.49   36.40
  -6   0  10    4.90   34.30
  -6   0  10    2.00   22.60
  -5   0  10    7.50   21.20
  -5   0  10  -11.30   25.30
  -5   0  10   21.50   28.30
   4   0 -10  155.88   28.20
  -4   0  10  160.28   21.80
  -4   0  10  108.19   30.70
   4   0 -10  130.99   23.20
  -4   0  10  157.18   27.70
  -4   0  10  152.58   33.20
  -4   0  10  145.19   28.70
  -3   0  10  -26.80   13.40
   3   0 -10   11.60   18.90
   3   0 -10   -5.20   17.30
  -3   0  10   15.50   19.40
  -3   0  10   14.60   23.90
  -3   0  10  -30.60   19.80
  -3   0  10   29.90   21.30
  -2   0  10  826.02   47.90
  -2   0  10  859.01   48.50
   2   0 -10  914.21   49.80
   2   0 -10  932.51   49.20
  -2   0  10  809.22   54.99
  -2   0  10  819.02   56.89
   1   0 -10    0.70   17.20
  -1   0  10  -10.30   15.50
   1   0 -10   11.50   17.10
   1   0 -10   10.90   17.90
  -1   0  10   -3.10   16.80
  -1   0  10    5.50   14.70
  -1   0  10   -6.30   21.10
   1   0 -10   -7.40   15.70
   0   0 -10  424.16   33.50
   0   0  10  361.56   30.30
   0   0  10  459.95   42.80
   0   0 -10  423.86   33.40
   0   0  10  433.96   30.10
   0   0  10  419.36   32.80
   0   0 -10  484.55   37.30
   0   0 -10  464.75   32.10
  -1   0 -10   -5.80   14.00
  -1   0 -10    5.70   15.30
  -1   0 -10    5.10   11.90
   1   0  10   32.10   15.00
  -1   0 -10   -6.80   14.50
   1   0  10    7.80   11.60
  -1   0 -10   -1.90   18.20
   2   0  10   14.80   13.40
  -2   0 -10   -6.40   13.30
  -2   0 -10  -57.69   14.60
  -2   0 -10   -1.20   14.70
  -2   0 -10  -24.20   13.00
   2   0  10   14.00   13.30
  -2   0 -10  -19.70   17.50
  -3   0 -10   -0.90   15.40
  -3   0 -10   12.90   26.60
  -3   0 -10    3.60   13.00
  -3   0 -10  -23.10   16.20
  -4   0 -10  -44.60   18.60
  -4   0 -10   -7.30   12.60
  -4   0 -10   34.70   27.50
  -4   0 -10   11.70   25.50
  -4   0 -10   -1.30   15.20
  -5   0 -10    7.80   27.20
  -5   0 -10  -58.99   24.80
  -5   0 -10    8.10   12.10
  -5   0 -10   80.89   36.40
  -5   0 -10   13.20    9.30
  -6   0 -10  -39.00   37.10
  -6   0 -10  -13.70   36.90
  -8  -1  10  -39.10   43.10
  -8  -1  10   66.59   44.50
  -8  -1  10   41.70   27.10
  -8   1  10   28.50   27.90
  -8   1  10   34.50   51.39
  -8   1  10   14.50   48.50
  -7  -1  10   -1.10   38.50
  -7  -1  10   42.80   28.50
  -7  -1  10    3.90   35.70
  -7   1  10    9.70   42.00
  -7   1  10   45.10   41.50
  -6  -1  10   -1.00   22.50
  -6  -1  10   15.50   35.50
  -6  -1  10   19.20   33.40
  -6   1  10  -25.70   33.80
  -6   1  10   46.70   34.80
  -6   1  10  -33.70   20.20
  -5  -1  10   32.20   23.00
  -5  -1  10   51.79   32.50
  -5  -1  10   19.30   27.70
  -5   1  10   30.70   22.70
  -5   1  10   62.29   33.50
  -5   1  10   47.10   33.70
   4  -1 -10   12.80   19.10
  -4  -1  10  -10.30   24.80
  -4  -1  10   19.80   12.70
  -4  -1  10   49.70   29.30
  -4  -1  10   10.40   19.40
   4  -1 -10   -1.90   18.30
  -4  -1  10   -4.90   18.70
  -4   1  10    4.80   19.20
  -4   1  10   -1.00   23.80
  -4   1  10   14.90   26.80
   4   1 -10   -4.90   13.60
  -4   1  10    1.50   20.00
   4   1 -10    5.00   18.40
  -3  -1  10  -11.80   20.00
   3  -1 -10    8.60   18.30
  -3  -1  10   -6.80   12.10
   3  -1 -10   -9.60   18.90
  -3  -1  10   12.60   19.00
  -3  -1  10    6.40   18.70
  -3  -1  10    8.60   24.30
   3   1 -10  -10.60   14.80
   3   1 -10   27.60   20.50
  -3   1  10    8.90   23.60
  -3   1  10   27.30   25.50
  -3   1  10   -6.70   18.60
  -3   1  10  -23.20   17.70
   2  -1 -10   22.10   19.20
   2  -1 -10   30.90   18.20
  -2  -1  10   32.50   20.50
  -2  -1  10   78.79   27.40
  -2  -1  10   16.30   18.00
  -2  -1  10   40.60   16.40
  -2  -1  10   30.50   19.20
  -2   1  10   54.09   26.70
  -2   1  10   52.19   20.90
  -2   1  10   23.10   18.50
   2   1 -10   36.80   18.30
   2   1 -10   18.40   16.50
  -2   1  10   60.39   24.70
   1  -1 -10  187.68   25.40
   1  -1 -10  207.68   29.40
  -1  -1  10  192.48   26.80
  -1  -1  10  207.68   34.10
   1  -1 -10  201.38   29.50
   1  -1 -10  160.38   25.80
  -1  -1  10  244.68   26.90
  -1  -1  10  216.48   27.70
   1   1 -10  217.88   27.80
   1   1 -10  228.98   26.00
   1   1 -10  248.38   29.40
  -1   1  10  203.28   29.20
  -1   1  10  217.48   24.10
  -1   1  10  191.68   34.10
   1   1 -10  219.78   28.00
  -1   1  10  243.18   29.20
   0  -1  10  225.28   35.60
   0  -1  10  232.28   27.00
   0  -1 -10  279.57   29.10
   0  -1  10  284.87   28.70
   0  -1  10  242.08   23.50
   0  -1 -10  240.28   32.10
   0  -1 -10  303.07   31.20
   0  -1 -10  217.98   27.00
   0   1 -10  246.38   22.80
   0   1  10  237.08   37.40
   0   1  10  207.88   25.50
   0   1 -10  250.77   31.10
   0   1 -10  263.67   29.30
   0   1 -10  286.27   29.40
   0   1 -10  285.57   27.90
   0   1  10  223.28   20.20
   0   1  10  221.08   29.50
   1  -1  10  267.17   26.60
   1  -1  10  247.28   25.50
  -1  -1 -10  251.57   34.90
  -1  -1 -10  231.78   26.50
  -1  -1 -10  283.37   17.80
  -1  -1 -10  278.77   27.50
  -1  -1 -10  245.38   29.20
  -1   1 -10  270.67   27.80
   1   1  10  277.77   26.70
  -1   1 -10  263.87   27.30
   1   1  10  275.37   17.10
  -1   1 -10  298.87   27.90
  -1   1 -10  271.77   36.50
  -1   1 -10  270.77   20.80
   2  -1  10   92.19   19.80
  -2  -1 -10   81.99   24.80
   2  -1  10  114.09   18.20
  -2  -1 -10  103.59   19.80
  -2  -1 -10  112.89   19.10
  -2  -1 -10   78.99   14.80
  -2  -1 -10   48.60   23.40
  -2   1 -10  144.89   21.90
  -2   1 -10  133.69   21.00
  -2   1 -10   33.20   16.50
   2   1  10  112.69   18.60
  -2   1 -10  147.59   20.60
  -2   1 -10  129.59   29.70
  -3  -1 -10   83.49   21.10
  -3  -1 -10  124.69   30.70
  -3  -1 -10   83.99   19.20
  -3  -1 -10  113.29   19.10
  -3   1 -10  115.69   18.90
  -3   1 -10   61.99   22.00
  -3   1 -10  140.59   21.20
  -3   1 -10  166.78   25.80
  -3   1 -10  165.18   24.10
  -3   1 -10   93.29   31.00
  -4  -1 -10   59.49   28.50
  -4  -1 -10   10.70   13.60
  -4  -1 -10    1.10   21.60
  -4  -1 -10   33.20   16.20
  -4   1 -10    1.50   14.70
  -4   1 -10   62.49   33.50
  -4   1 -10   27.70   14.90
  -4   1 -10   -4.90   21.20
  -4   1 -10   26.30   26.40
  -5  -1 -10   17.90    9.60
  -5  -1 -10   10.00   12.40
  -5  -1 -10   32.60   34.60
  -5  -1 -10  101.29   38.50
  -5   1 -10  -21.00   26.20
  -5   1 -10   37.50   37.30
  -5   1 -10   21.40   13.60
  -5   1 -10   15.70   10.60
  -6  -1 -10  -57.89   34.00
  -6  -1 -10    2.90   39.80
  -6   1 -10   -2.20   39.60
  -6   1 -10   50.79   36.30
  -7  -2  10   -5.80   35.70
  -7  -2  10   43.30   25.80
  -7  -2  10   27.30   34.70
  -7   2  10   -5.80   24.50
  -7   2  10   26.00   39.30
  -7   2  10   -6.40   37.50
  -7   2  10  -26.80   33.30
  -6  -2  10   -0.70   21.60
  -6  -2  10  -24.80   31.60
  -6  -2  10    4.00   34.60
  -6   2  10   -7.10   30.30
  -6   2  10   13.10   32.80
  -5  -2  10   56.19   33.10
  -5  -2  10  109.99   27.50
  -5  -2  10  109.09   36.60
   5  -2 -10  134.69   28.70
  -5   2  10   88.39   36.60
  -5   2  10  106.49   34.00
   4  -2 -10   47.70   21.30
  -4  -2  10   50.99   25.90
  -4  -2  10   14.10   19.90
   4  -2 -10   35.60   22.70
  -4  -2  10    5.80   18.90
  -4  -2  10   39.50   27.40
   4   2 -10   28.40   20.20
  -4   2  10   20.50   21.30
  -4   2  10   11.80   25.60
  -4   2  10   38.60   21.40
   4   2 -10   27.40   11.90
  -4   2  10   45.60   29.60
   3  -2 -10  521.95   40.10
  -3  -2  10  423.56   37.80
  -3  -2  10  461.05   43.50
   3  -2 -10  426.46   40.70
  -3  -2  10  437.06   38.90
  -3  -2  10  336.77   43.20
  -3   2  10  522.35   39.80
  -3   2  10  397.86   37.20
   3   2 -10  444.76   30.20
  -3   2  10  480.85   51.59
  -3   2  10  433.16   49.40
   3   2 -10  492.45   38.60
  -2  -2  10   40.30   20.70
  -2  -2  10   60.19   25.00
   2  -2 -10   40.40   21.60
  -2  -2  10   31.50   18.10
  -2  -2  10    3.00   18.70
   2  -2 -10   11.80   19.70
   2   2 -10   13.70   15.80
  -2   2  10   44.30   19.10
  -2   2  10   24.70   23.30
  -2   2  10   65.19   19.90
  -2   2  10   32.60   25.20
   2   2 -10    5.10   17.90
   1  -2 -10  432.56   36.50
  -1  -2  10  409.16   34.90
  -1  -2  10  368.66   29.80
   1  -2 -10  426.66   36.70
   1  -2 -10  402.16   36.20
  -1  -2  10  366.06   42.90
   1   2 -10  390.26   35.30
  -1   2  10  430.36   29.30
  -1   2  10  344.77   39.30
   1   2 -10  437.26   37.10
  -1   2  10  371.46   41.50
   1   2 -10  380.56   36.20
   1   2 -10  418.36   36.50
  -1   2  10  422.96   36.60
   0  -2 -10   40.50   19.20
   0  -2 -10   10.70   17.80
   0  -2  10    8.40   22.00
   0  -2 -10   38.40   20.50
   0  -2  10   18.20   11.00
   0  -2  10   39.20   18.00
   0  -2  10    4.10   18.80
   0   2  10   20.20   22.30
   0   2 -10   17.40   17.60
   0   2  10   19.30    8.60
   0   2 -10   14.90   18.40
   0   2 -10   33.50   18.60
   0   2 -10   25.70   18.80
  -1  -2 -10   28.20   16.60
  -1  -2 -10    3.80   15.90
  -1  -2 -10   -6.60   17.20
   1  -2  10   22.70   14.80
   1  -2  10   14.40   18.10
  -1   2 -10    1.50   15.70
   1   2  10   -1.00   15.00
  -1   2 -10   32.10   22.30
  -1   2 -10   14.00   18.50
   1   2  10    2.10   19.80
  -1   2 -10   19.20   17.30
  -2  -2 -10   29.30   16.50
   2  -2  10   25.20   14.20
  -2  -2 -10   51.99   22.30
  -2  -2 -10   45.10   17.90
  -2   2 -10   26.80   16.50
  -2   2 -10    8.10   21.50
  -2   2 -10   62.49   21.40
  -2   2 -10   19.40   17.10
   2   2  10   36.40   15.80
  -3  -2 -10  -22.60   23.60
  -3  -2 -10   36.30   16.20
  -3  -2 -10   -7.10   15.90
  -3  -2 -10    3.60   14.00
  -3   2 -10    6.40   16.70
  -3   2 -10   20.00   21.00
  -3   2 -10    5.40   17.00
  -3   2 -10   -4.90   15.10
  -3   2 -10  -18.40   26.50
  -4  -2 -10    7.10   13.70
  -4  -2 -10   24.50   16.10
  -4  -2 -10   23.60   21.50
  -4  -2 -10   45.60   30.50
  -4   2 -10  -31.80   24.60
  -4   2 -10  -11.20   13.80
  -4   2 -10   21.70   17.60
  -4   2 -10   38.30   25.80
  -4   2 -10    4.40   22.70
  -5  -2 -10   18.30   13.60
  -5  -2 -10    6.10   30.70
  -5  -2 -10   11.70   11.90
  -5   2 -10    2.10   12.70
  -5   2 -10   32.60   38.90
  -5   2 -10  -15.20   26.70
  -5   2 -10    7.00   14.70
  -6  -2 -10  -92.89   33.90
  -6  -2 -10   55.09   40.20
  -6   2 -10  -31.20   40.00
  -7  -3  10  -13.70   37.40
  -7  -3  10   34.70   39.80
  -7  -3  10  -12.60   25.10
  -7   3  10   -8.80   37.90
  -7   3  10   52.89   43.20
  -7   3  10  -11.40   25.30
  -7   3  10   14.70   36.10
  -6  -3  10   14.70   23.50
  -6  -3  10   51.29   38.00
  -6  -3  10   -6.80   34.10
  -6   3  10   33.90   24.90
  -6   3  10    8.30   31.00
  -6   3  10   21.70   33.00
  -6   3  10   68.99   37.40
  -5  -3  10    7.10   21.50
  -5  -3  10   -6.70   27.60
  -5  -3  10   15.50   27.00
   5  -3 -10   -8.60   23.20
  -5   3  10    9.70   29.10
  -5   3  10    6.40   22.50
  -5   3  10   38.30   31.60
  -5   3  10   23.40   26.80
  -4  -3  10   -2.20   23.40
  -4  -3  10   14.10   24.70
  -4  -3  10   30.20   22.00
   4  -3 -10  -12.00   21.00
   4  -3 -10   42.50   22.00
  -4  -3  10   56.99   22.00
  -4   3  10   47.70   28.30
   4   3 -10   29.60   20.20
  -4   3  10   -5.70   18.60
  -4   3  10   32.20   22.50
  -4   3  10   57.29   29.50
  -3  -3  10   19.00   19.70
  -3  -3  10   22.50   21.20
   3  -3 -10    2.80   21.20
   3  -3 -10   28.20   21.20
  -3  -3  10   17.60   18.30
  -3  -3  10    0.80   20.70
  -3   3  10   23.00   25.60
  -3   3  10  -14.50   19.20
  -3   3  10    8.90   23.40
   3   3 -10    8.00   20.10
   3   3 -10    8.50   13.30
  -2  -3  10   38.80   24.40
  -2  -3  10   35.60   20.60
  -2  -3  10   72.39   20.50
   2  -3 -10   60.59   24.30
  -2  -3  10   43.70   19.90
   2  -3 -10   21.90   20.60
   2   3 -10   55.19   17.30
  -2   3  10   50.79   26.80
  -2   3  10   38.00   19.90
  -2   3  10   66.39   27.40
  -2   3  10   45.70   21.60
   2   3 -10   37.80   21.60
   1  -3 -10   15.40   17.90
  -1  -3  10   40.70   15.10
   1  -3 -10   52.99   21.70
   1  -3 -10   20.80   20.20
  -1  -3  10    8.20   23.10
  -1  -3  10   15.00   18.60
  -1   3  10  -21.10   22.50
   1   3 -10   30.80   19.30
  -1   3  10   25.20   13.20
   1   3 -10   13.70   18.00
   1   3 -10   24.80   21.10
  -1   3  10   29.20   19.80
   1   3 -10   27.70   21.00
  -1   3  10   19.00   21.20
   0  -3  10  293.77   30.60
   0  -3 -10  355.36   32.70
   0  -3  10  279.37   37.10
   0  -3 -10  348.27   40.00
   0  -3 -10  341.67   34.50
   0   3 -10  354.06   36.70
   0   3  10  337.67   40.80
   0   3 -10  366.16   39.00
   0   3 -10  341.37   34.20
   0   3 -10  339.07   33.80
   0   3  10  331.47   33.10
   1  -3  10   17.00   13.90
  -1  -3 -10   24.30   16.70
  -1  -3 -10    5.90   15.20
   1  -3  10  -21.90   19.20
  -1  -3 -10    6.20   18.60
  -1   3 -10   15.90   21.40
  -1   3 -10    8.00   16.50
   1   3  10   59.79   24.00
  -1   3 -10    0.00   20.40
   1   3  10    2.80   13.90
  -1   3 -10   10.40   17.40
  -2  -3 -10  364.16   43.30
   2  -3  10  324.97   28.30
  -2  -3 -10  278.67   28.40
  -2  -3 -10  373.56   32.40
  -2   3 -10  287.67   39.10
   2   3  10  293.87   27.80
  -2   3 -10  346.27   38.10
  -2   3 -10  306.47   29.90
  -2   3 -10  306.27   30.90
  -3  -3 -10    7.50   22.60
  -3  -3 -10  -10.70   14.20
  -3  -3 -10   -5.10   12.70
  -3  -3 -10   -1.20   17.50
  -3   3 -10    3.10   15.10
  -3   3 -10   -1.50   15.70
  -3   3 -10  -11.40   16.80
  -3   3 -10   62.09   25.00
  -3   3 -10   -2.60   21.50
  -4  -3 -10   84.09   20.20
  -4  -3 -10   54.99   17.00
  -4  -3 -10   73.19   32.70
  -4   3 -10   33.60   30.60
  -4   3 -10   78.19   20.30
  -4   3 -10   71.59   18.50
  -4   3 -10   93.19   32.20
  -5  -3 -10  -21.70   31.00
  -5  -3 -10  -22.00   12.40
  -5  -3 -10   13.80   15.40
  -5   3 -10   28.40   37.20
  -5   3 -10  -27.90   27.80
  -5   3 -10   -0.40   14.50
  -5   3 -10   10.40   16.90
  -6  -3 -10  -25.40   40.30
  -6  -3 -10   12.00   36.70
  -6   3 -10  -52.29   33.30
  -6   3 -10   27.30   41.80
  -7  -4  10  -28.30   37.50
  -7  -4  10    1.70   25.50
  -7  -4  10  -13.30   37.50
  -7   4  10    6.80   41.90
  -7   4  10   68.89   46.20
  -7   4  10   30.90   40.00
  -7   4  10   -6.10   24.80
  -6  -4  10   42.30   37.10
  -6  -4  10   -5.60   33.10
  -6  -4  10    7.70   24.30
  -6   4  10   11.00   33.70
  -6   4  10   -0.40   36.80
  -6   4  10   -2.50   33.20
  -6   4  10   13.90   24.90
   5  -4 -10   85.69   30.80
  -5  -4  10   33.70   23.10
  -5  -4  10  139.39   39.00
  -5  -4  10  108.29   34.50
  -5   4  10  131.59   29.50
  -5   4  10  137.79   36.80
  -5   4  10  152.98   39.00
  -5   4  10  148.09   43.00
   4  -4 -10   77.89   29.10
   4  -4 -10   24.00   22.40
  -4  -4  10   -7.50   25.40
  -4  -4  10  -10.00   23.00
  -4  -4  10   33.50   21.90
  -4   4  10   34.30   27.40
  -4   4  10   -0.30   21.30
  -4   4  10   40.50   27.60
  -4   4  10  -15.60   26.10
   4   4 -10   12.20   22.80
  -3  -4  10  497.15   43.40
   3  -4 -10  383.46   41.70
   3  -4 -10  407.16   39.20
  -3  -4  10  464.25   42.30
  -3  -4  10  454.25   43.20
  -3  -4  10  338.37   46.20
  -3   4  10  372.56   38.50
  -3   4  10  455.45   41.20
  -3   4  10  366.46   46.10
  -3   4  10  352.86   38.80
   3   4 -10  403.46   25.80
  -3   4  10  310.37   44.00
   3   4 -10  396.56   40.00
   2  -4 -10   14.10   21.40
   2  -4 -10   63.39   23.90
  -2  -4  10   50.29   26.30
  -2  -4  10   54.19   20.00
  -2  -4  10   35.60   21.30
   2   4 -10   36.00   21.10
   2   4 -10   38.60   25.20
  -2   4  10   17.80   23.70
  -2   4  10   20.00   19.30
  -2   4  10   42.50   24.80
   2   4 -10   17.20   16.10
  -2   4  10   32.20   19.40
   1  -4 -10  277.27   32.80
   1  -4 -10  242.58   35.00
   1  -4 -10  318.57   34.90
  -1  -4  10  352.06   34.80
  -1  -4  10  350.26   41.20
  -1  -4  10  272.57   26.00
   1   4 -10  319.97   34.30
   1   4 -10  321.97   33.30
  -1   4  10  263.57   41.00
   1   4 -10  389.86   42.00
   1   4 -10  327.17   34.30
  -1   4  10  337.17   35.80
  -1   4  10  278.07   25.20
   0  -4 -10   11.40   19.80
   0  -4 -10   22.00   17.20
   0  -4  10   20.90   21.30
   0  -4  10   -9.90   16.10
   0  -4 -10    4.00   18.30
   0   4  10    8.10   17.90
   0   4 -10   10.80   19.10
   0   4 -10   12.90   21.90
   0   4 -10   37.80   17.90
   0   4 -10   25.50   20.70
   0   4  10   29.80   26.40
  -1  -4 -10   96.29   23.10
  -1  -4 -10   40.10   19.50
   1  -4  10   12.50    9.90
   1  -4  10   31.20   23.60
  -1  -4 -10   56.09   25.60
  -1   4 -10   46.20   20.40
  -1   4 -10   43.60   20.60
   1   4  10   81.79   28.20
  -1   4 -10   80.19   27.30
  -1   4 -10   84.79   26.70
   1   4  10   13.50   12.50
  -2  -4 -10    6.00   21.10
  -2  -4 -10   17.10   19.50
  -2  -4 -10   17.90   16.90
   2  -4  10   28.90   16.30
  -2   4 -10  -13.50   23.60
  -2   4 -10    3.30   24.50
  -2   4 -10    2.20   17.60
  -2   4 -10   10.30   18.90
   2   4  10   -9.30   14.40
  -3  -4 -10  -10.00   17.40
  -3  -4 -10   -2.90   15.00
  -3  -4 -10   20.90   24.50
  -3   4 -10   -5.00   16.40
  -3   4 -10    6.90   23.10
  -3   4 -10  -30.20   17.50
  -3   4 -10  -15.20   26.20
  -4  -4 -10   10.80   16.40
  -4  -4 -10   15.50   19.50
  -4  -4 -10   63.49   28.90
  -4   4 -10    1.80   20.50
  -4   4 -10  -11.40   32.50
  -4   4 -10   18.40   17.40
  -4   4 -10   64.69   32.60
  -5  -4 -10   -1.10   14.50
  -5  -4 -10  -27.60   30.40
  -5   4 -10   75.49   35.90
  -5   4 -10   -4.90   15.90
  -5   4 -10   53.29   40.90
  -6  -4 -10  -10.10   42.40
  -6  -4 -10   45.90   39.80
  -6   4 -10   87.79   44.70
  -6   4 -10   15.80   12.30
  -6   4 -10  -20.50   37.80
  -7  -5  10  -20.90   25.60
  -7  -5  10  -13.70   33.80
  -7  -5  10   64.69   46.00
  -7   5  10  -20.70   37.60
  -7   5  10   -0.70   27.60
  -7   5  10   22.80   37.60
  -6  -5  10  -40.60   21.10
  -6  -5  10   -0.40   30.60
  -6  -5  10  -20.80   33.50
  -6   5  10  -28.70   36.60
  -6   5  10  -25.60   35.20
  -6   5  10  101.49   44.50
  -6   5  10    7.50   25.20
  -5  -5  10   26.90   25.70
  -5  -5  10  -14.50   31.10
   5  -5 -10  -11.10   26.90
  -5  -5  10    6.00   31.10
  -5   5  10   80.89   35.20
  -5   5  10   29.70   24.00
  -5   5  10   26.00   32.60
  -5   5  10   33.70   35.70
  -4  -5  10  -11.00   21.40
  -4  -5  10   -2.90   23.80
   4  -5 -10  -14.60   24.50
  -4  -5  10   16.50   26.60
  -4   5  10   10.00   31.40
  -4   5  10   21.50   29.20
  -4   5  10    3.40   24.20
  -4   5  10   11.80   22.70
  -3  -5  10    4.30   20.90
  -3  -5  10    3.80   21.90
  -3  -5  10  -11.20   18.10
  -3  -5  10   20.80   27.50
   3  -5 -10   28.20   26.70
   3  -5 -10    4.30   20.60
  -3   5  10    7.70   25.30
  -3   5  10    4.30   24.60
   3   5 -10    1.30   21.20
  -3   5  10   26.40   24.30
  -3   5  10   12.70   23.00
   3   5 -10    0.70   12.00
  -3   5  10   29.00   22.20
  -2  -5  10   20.00   21.10
   2  -5 -10   13.90   22.60
  -2  -5  10   25.80   21.70
   2  -5 -10   28.10   20.60
  -2  -5  10   15.20   19.00
   2   5 -10   31.50   17.10
  -2   5  10   21.70   29.00
  -2   5  10   20.10   21.90
   2   5 -10   44.00   25.30
   2   5 -10   -2.00   20.50
  -2   5  10   -0.80   22.70
  -2   5  10   16.50   19.50
   1  -5 -10  284.67   34.20
  -1  -5  10  262.57   37.50
  -1  -5  10  266.77   26.60
   1  -5 -10  267.77   36.70
   1  -5 -10  317.07   36.60
  -1  -5  10  340.17   36.70
  -1   5  10  247.28   40.80
   1   5 -10  288.67   33.10
   1   5 -10  233.48   30.70
   1   5 -10  356.26   36.60
  -1   5  10  234.68   30.30
   1   5 -10  254.37   39.30
  -1   5  10  255.57   25.90
   0  -5  10  131.49   26.10
   0  -5 -10  116.79   26.60
   0  -5 -10  129.39   24.10
   0  -5  10  100.89   27.70
   0  -5 -10   99.09   26.90
   0   5 -10   96.99   30.60
   0   5  10   99.99   33.80
   0   5 -10   92.99   26.50
   0   5 -10   92.59   24.90
   0   5  10  112.79   11.80
   0   5 -10  108.89   25.90
   0   5  10  140.39   25.40
  -1  -5 -10  276.07   32.50
  -1  -5 -10  366.96   35.30
  -1  -5 -10  267.77   38.40
   1  -5  10  329.07   39.30
  -1   5 -10  343.07   35.30
   1   5  10  356.86   48.40
  -1   5 -10  249.38   38.50
  -1   5 -10  277.77   32.70
  -2  -5 -10   31.10   24.20
  -2  -5 -10    9.10   17.70
  -2  -5 -10    8.70   20.10
  -2   5 -10   15.30   29.20
  -2   5 -10   64.29   23.20
  -2   5 -10   23.00   19.00
  -3  -5 -10   97.39   21.10
  -3  -5 -10   72.89   31.80
  -3   5 -10   36.80   33.60
  -3   5 -10   79.79   22.70
  -4  -5 -10  -10.00   15.20
  -4  -5 -10   25.70   31.50
  -4   5 -10   28.00   35.10
  -4   5 -10   15.50   19.40
  -4   5 -10  -22.20   27.10
  -5  -5 -10   -6.30   15.30
  -5  -5 -10   -7.90   32.50
  -5   5 -10    5.80   37.40
  -5   5 -10  -12.60   18.20
  -5   5 -10   37.20   37.10
  -6  -5 -10    7.30   38.90
  -6  -5 -10   -5.20   15.10
  -6  -5 -10  -34.00   37.80
  -6   5 -10   -9.20   16.40
  -6   5 -10   23.00   48.30
  -6   5 -10   21.10   41.40
  -7  -6  10    1.50   33.20
  -7  -6  10  -29.80   26.80
  -7  -6  10   79.89   46.10
  -7   6  10  -56.29   35.90
  -7   6  10   -4.60   36.50
  -7   6  10  -21.40   29.50
  -6  -6  10    5.80   32.90
  -6  -6  10   41.10   29.50
  -6  -6  10   16.10   36.70
  -6   6  10  -43.00   25.30
  -6   6  10   31.30   42.80
  -6   6  10    8.90   35.40
  -6   6  10   19.30   40.00
  -5  -6  10   16.80   28.10
   5  -6 -10    0.80   33.20
  -5  -6  10   18.40   32.80
  -5  -6  10   15.50   33.40
  -5   6  10   16.50   36.60
  -5   6  10    3.90   24.20
  -5   6  10   37.60   34.00
  -5   6  10   30.30   31.60
  -4  -6  10  126.29   34.30
  -4  -6  10   92.69   37.00
  -4  -6  10  103.69   29.10
   4  -6 -10  148.19   37.80
  -4   6  10   71.29   26.50
  -4   6  10   81.29   31.00
  -4   6  10   63.79   34.60
  -4   6  10  116.99   35.30
   3  -6 -10   25.20   23.70
  -3  -6  10  -12.00   20.80
   3  -6 -10  -15.20   25.40
  -3  -6  10   20.10   23.20
  -3  -6  10   11.50   26.50
   3   6 -10    0.40   12.60
  -3   6  10  -10.60   22.80
  -3   6  10  -10.40   24.60
  -3   6  10  -28.50   20.40
   3   6 -10   54.09   25.20
  -3   6  10    1.60   30.30
   2  -6 -10  295.87   42.20
   2  -6 -10  273.97   36.20
  -2  -6  10  298.37   36.60
  -2  -6  10  295.97   41.90
  -2  -6  10  350.26   39.80
   2   6 -10  373.46   31.90
   2   6 -10  317.07   38.30
  -2   6  10  279.37   37.20
  -2   6  10  385.06   37.60
   2   6 -10  289.47   42.00
  -2   6  10  273.87   47.90
  -1  -6  10   14.80   17.50
  -1  -6  10  -16.40   21.10
  -1  -6  10    8.50   21.50
   1  -6 -10   15.20   21.70
   1  -6 -10    8.70   23.50
   1  -6 -10   -1.20   25.70
  -1  -6  10    1.30   15.10
  -1   6  10   17.30   19.50
   1   6 -10   32.70   19.90
  -1   6  10    0.10   25.70
   1   6 -10   -6.70   19.10
  -1   6  10   -3.30   15.60
   1   6 -10  -16.80   24.70
   0  -6  10  175.38   19.00
   0  -6  10  212.08   33.10
   0  -6  10  192.68   18.20
   0  -6 -10  192.28   29.30
   0  -6  10  190.38   29.90
   0  -6 -10  105.69   30.10
   0  -6 -10  174.78   29.90
   0   6 -10  204.28   31.20
   0   6 -10  152.68   29.00
   0   6  10  197.88   29.80
   0   6  10  187.88   19.00
   0   6  10  175.58   38.00
   0   6 -10  185.98   36.90
  -1  -6 -10    3.20   19.30
  -1  -6 -10    9.30   20.00
  -1  -6 -10  -14.00   24.40
   1  -6  10    7.30   18.40
   1  -6  10   12.20   24.00
   1   6  10   10.10   15.10
  -1   6 -10   16.10   20.10
   1   6  10  -12.80   27.10
  -1   6 -10   16.90   26.30
  -1   6 -10    9.40   22.50
  -2  -6 -10   25.80   28.10
  -2  -6 -10   22.20   19.10
  -2   6 -10  -15.20   26.50
  -2   6 -10   33.40   21.30
  -3  -6 -10   16.70   20.40
  -3  -6 -10   -2.20   24.60
  -3   6 -10  -28.80   31.70
  -3   6 -10    4.40   20.60
  -4  -6 -10   45.30   20.00
  -4  -6 -10    4.80   31.30
  -4   6 -10  -13.80   18.40
  -4   6 -10   -4.20   35.50
  -5  -6 -10    1.10   34.00
  -5  -6 -10  -16.70   17.60
  -5   6 -10   16.70   36.20
  -5   6 -10   32.90   21.70
  -5   6 -10   66.99   45.60
  -7  -7  10  -53.19   27.60
  -7  -7  10    9.40   44.30
  -7  -7  10   46.20   48.90
  -7   7  10  -12.50   29.20
  -7   7  10    3.90   43.90
  -6  -7  10  -19.20   25.70
  -6  -7  10   14.20   39.40
  -6  -7  10  -36.40   35.20
  -6   7  10   12.10   41.50
  -6   7  10   40.30   45.60
  -6   7  10   21.50   28.50
   5  -7 -10   37.90   34.10
  -5  -7  10    3.90   33.40
  -5  -7  10   14.60   26.90
  -5  -7  10   29.60   34.30
  -5   7  10   39.80   33.30
  -5   7  10    9.80   27.30
  -5   7  10    3.30   34.90
  -5   7  10    3.00   34.00
  -4  -7  10  -19.00   23.10
  -4  -7  10   11.00   31.50
   4  -7 -10   39.70   31.20
  -4  -7  10  -13.80   26.30
  -4   7  10  -21.70   29.90
  -4   7  10   18.80   25.60
  -4   7  10  -11.10   28.40
  -4   7  10   44.30   38.10
   3  -7 -10  -18.10   26.60
  -3  -7  10    7.20   23.90
  -3  -7  10  -14.00   21.40
   3  -7 -10  -26.10   23.10
  -3  -7  10   15.20   30.40
   3   7 -10    7.10   24.20
   3   7 -10   -9.10   14.90
   3   7 -10  -20.40   28.20
  -3   7  10   -3.00   23.00
  -3   7  10  -51.39   30.30
  -3   7  10  -17.10   21.20
   2  -7 -10   32.20   26.60
   2  -7 -10   33.30   23.40
  -2  -7  10   48.60   26.60
  -2  -7  10   -3.00   25.40
   2   7 -10   20.60   21.30
  -2   7  10   -5.70   20.60
  -2   7  10    6.90   21.80
   2   7 -10   26.20   27.10
  -2   7  10   -3.70   32.90
   1  -7 -10   39.50   23.20
  -1  -7  10   47.60   22.70
  -1  -7  10   31.90   25.60
   1  -7 -10   80.59   31.60
  -1  -7  10   21.70   21.20
   1   7 -10   -0.40   22.90
   1   7 -10   36.50   27.70
  -1   7  10   28.20   20.20
  -1   7  10   43.90   30.20
  -1   7  10   37.90   24.40
   0  -7  10   45.50   23.60
   0  -7 -10    8.60   21.90
   0  -7  10  -25.60   21.80
   0  -7 -10   -1.90   26.70
   0   7  10  -10.00   29.90
   0   7  10    8.80   16.20
   0   7 -10   21.50   23.20
   0   7  10   20.70   21.40
   0   7 -10   15.70   24.00
   0   7 -10   18.50   25.70
  -1  -7 -10  104.99   25.50
   1  -7  10  130.59   29.00
  -1  -7 -10  154.38   37.60
   1   7  10  187.58   43.00
  -1   7 -10  112.29   27.40
  -1   7 -10  167.88   39.60
  -2  -7 -10   62.59   32.70
  -2  -7 -10    3.40   20.40
  -2   7 -10   -1.40   21.20
  -2   7 -10   11.80   34.50
  -3  -7 -10   64.69   23.50
  -3  -7 -10  108.09   35.60
  -3   7 -10   39.30   24.50
  -3   7 -10   62.19   41.10
  -4  -7 -10  -46.50   29.60
  -4  -7 -10   -5.40   17.70
  -4   7 -10  -32.20   41.50
  -4   7 -10  -25.50   20.70
  -5  -7 -10    6.20   35.80
  -5  -7 -10   14.30   20.50
  -5   7 -10    6.40   22.40
  -5   7 -10   68.99   51.29
  -6  -8  10   11.50   35.10
  -6  -8  10   -8.80   29.80
  -6  -8  10   22.20   37.80
  -6   8  10   37.80   44.30
  -6   8  10   43.10   40.10
  -6   8  10   67.59   34.40
  -5  -8  10    2.70   29.10
   5  -8 -10   35.50   33.70
  -5  -8  10    9.60   36.20
  -5  -8  10   14.70   35.80
  -5   8  10   42.90   30.60
  -5   8  10  -18.20   36.60
  -5   8  10    0.70   37.40
  -4  -8  10    5.80   28.50
   4  -8 -10   44.50   34.50
  -4  -8  10    6.60   29.10
  -4  -8  10    0.20   30.40
  -4   8  10   10.80   26.60
  -4   8  10   19.30   32.30
  -4   8  10    5.80   38.90
  -3  -8  10   73.79   33.50
   3  -8 -10   77.29   31.40
  -3  -8  10  122.99   33.50
  -3   8  10  101.39   43.50
   3   8 -10   74.09   38.20
  -3   8  10   72.09   32.30
  -3   8  10   88.39   32.20
   2  -8 -10    7.80   26.20
  -2  -8  10   46.50   29.20
   2  -8 -10   17.60   27.10
  -2  -8  10   -2.20   24.30
  -2   8  10    0.20   24.40
   2   8 -10   42.30   34.00
  -2   8  10   14.70   35.80
   2   8 -10   16.00   26.70
  -2   8  10   40.40   26.10
   1  -8 -10  219.58   35.40
  -1  -8  10  226.58   38.10
   1  -8 -10  255.27   45.30
  -1  -8  10  297.27   39.80
  -1   8  10  257.37   50.79
   1   8 -10  166.88   31.80
  -1   8  10  229.28   36.60
  -1   8  10  189.18   31.90
   1   8 -10  176.08   39.70
   0  -8 -10    4.50   26.80
   0  -8  10  -14.80   20.50
   0  -8  10   -0.60   23.30
   0  -8 -10  -10.10   21.80
   0   8  10   19.00   35.30
   0   8  10   19.80   20.10
   0   8 -10   -2.40   21.90
   0   8  10  -19.20   21.40
   0   8 -10   12.00   28.10
  -1  -8 -10   15.60   29.20
  -1  -8 -10   17.30   22.20
   1  -8  10   27.40   25.00
  -1   8 -10   86.39   28.30
  -1   8 -10   51.89   35.20
   1   8  10   22.10   30.80
  -2  -8 -10   17.30   32.50
  -2  -8 -10   14.10   22.90
  -2   8 -10   25.90   38.20
  -2   8 -10  -24.70   20.00
  -3  -8 -10   17.10   34.10
  -3  -8 -10   14.70   23.10
  -3   8 -10  -24.50   40.10
  -3   8 -10   18.30   25.30
  -4  -8 -10    2.30   21.60
  -4  -8 -10   19.40   35.80
  -4   8 -10  -47.50   43.40
  -4   8 -10  -21.70   23.10
  -5  -8 -10    4.30   40.60
  -5  -8 -10   27.00   22.20
  -5  -8 -10   71.49   48.70
  -5   8 -10  -25.30   43.60
  -5   8 -10  -14.70   24.60
  -6  -9  10   16.90   44.10
  -6  -9  10   -9.20   35.00
  -6  -9  10   42.10   36.70
  -6   9  10   31.90   50.79
  -6   9  10   11.40   32.70
  -6   9  10  -15.70   43.00
  -5  -9  10  -21.90   29.50
   5  -9 -10    7.10   35.70
  -5  -9  10   56.99   40.30
  -5  -9  10    9.40   37.70
  -5   9  10  -35.80   36.50
  -5   9  10  -15.30   31.00
  -5   9  10   20.20   41.20
   4  -9 -10   68.99   35.00
  -4  -9  10  -11.20   29.30
  -4  -9  10  -14.50   32.30
  -4   9  10   41.00   36.00
  -4   9  10   13.50   29.80
  -4   9  10   14.80   38.00
  -3  -9  10   -1.20   25.30
   3  -9 -10  -20.60   26.00
  -3  -9  10  -20.10   30.50
  -3   9  10   18.00   38.20
   3   9 -10    5.50   31.10
  -3   9  10    9.40   33.10
  -3   9  10   15.50   27.20
   2  -9 -10   18.40   27.20
  -2  -9  10    2.70   26.70
   2  -9 -10  -28.30   26.30
  -2  -9  10   -1.60   27.60
  -2   9  10   12.10   34.60
   2   9 -10  -39.80   23.30
  -2   9  10  -14.70   26.60
  -2   9  10  -19.00   26.70
   2   9 -10    4.90   33.10
   1  -9 -10   -5.90   25.30
  -1  -9  10   -9.70   26.30
  -1  -9  10  -28.40   25.80
   1  -9 -10   13.30   27.40
   1   9 -10   -3.00   27.60
   1   9 -10   19.40   24.50
  -1   9  10    6.20   24.00
  -1   9  10   17.60   36.40
  -1   9  10   27.00   27.10
   0  -9 -10   53.19   31.70
   0  -9 -10   58.29   29.50
   0  -9  10   28.90   27.20
   0   9  10   84.79   43.00
   0   9 -10   87.69   29.10
   0   9 -10   76.09   34.00
  -1  -9 -10   -6.20   34.50
  -1  -9 -10   -5.80   23.90
   1   9  10  -51.19   27.10
  -1   9 -10  -20.00   23.40
  -1   9 -10    1.50   31.70
  -2  -9 -10   92.09   39.20
  -2  -9 -10   71.59   28.50
  -2   9 -10   49.90   38.20
  -2   9 -10   21.60   27.80
  -3  -9 -10   69.49   37.60
  -3  -9 -10   16.80   24.60
  -3   9 -10   10.30   25.70
  -3   9 -10  -35.50   42.30
  -4  -9 -10  -24.40   36.10
  -4  -9 -10   -2.70   23.30
  -4   9 -10  -16.90   24.20
  -4   9 -10  -53.69   45.60
   5 -10 -10    7.20   38.20
  -5 -10  10  -16.00   34.70
  -5 -10  10    3.10   39.70
  -5 -10  10   -7.90   40.20
  -5  10  10  -22.40   46.20
  -5  10  10   93.39   48.40
  -5  10  10  -11.30   35.50
  -4 -10  10  -24.20   32.40
   4 -10 -10   60.69   40.30
  -4 -10  10   10.80   37.70
  -4  10  10   -7.60   37.90
  -4  10  10  -36.10   38.90
  -4  10  10  -27.20   28.20
   3 -10 -10   39.60   38.10
  -3 -10  10   81.39   35.70
  -3 -10  10   81.29   40.00
  -3  10  10   72.29   35.60
  -3  10  10   66.99   38.30
   3  10 -10   -6.50   29.70
  -3  10  10   86.09   49.70
  -2 -10  10   53.69   30.70
   2 -10 -10  125.79   39.50
   2 -10 -10   28.20   29.20
  -2 -10  10   87.89   36.50
  -2  10  10   46.10   33.60
  -2  10  10   50.79   32.80
  -2  10  10   -6.70   34.50
   2  10 -10   48.30   34.40
   1 -10 -10   38.20   31.10
  -1 -10  10   34.10   32.10
   1 -10 -10   63.09   38.10
  -1  10  10   54.39   40.90
   1  10 -10   31.10   31.70
   1  10 -10   84.89   40.50
  -1  10  10    3.00   30.30
   0 -10 -10    4.60   34.30
   0 -10 -10    9.30   28.40
   0 -10  10   14.90   26.60
   0  10 -10  -10.00   27.40
   0  10 -10   31.00   37.80
   0  10  10   -8.20   35.30
  -1 -10 -10  -16.50   29.90
  -1 -10 -10   39.60   29.90
   1  10  10   28.50   37.40
  -1  10 -10   -8.00   37.40
  -1  10 -10  -24.80   23.70
  -2 -10 -10   23.10   37.30
  -2 -10 -10  -19.40   25.60
  -2  10 -10   16.70   38.70
  -2  10 -10  -11.50   26.70
  -3 -10 -10  -49.80   35.40
  -3 -10 -10   42.30   28.40
  -3  10 -10  -14.20   27.60
  -3  10 -10   -9.90   47.20
  -4 -10 -10  -10.30   25.20
  -4 -10 -10   23.30   45.80
  -4  10 -10   -0.70   29.90
  -4  10 -10  -64.49   42.50
   5 -11 -10   57.59   39.60
  -5 -11  10   12.10   40.00
  -5 -11  10   -8.80   40.40
  -5  11  10   23.90   56.79
  -5  11  10   56.39   48.30
  -5  11  10   25.00   37.80
   4 -11 -10    2.40   34.60
  -4 -11  10   86.39   39.00
  -4 -11  10   44.00   41.50
  -4  11  10  -55.39   36.80
  -4  11  10   -0.70   33.20
  -4  11  10  -59.59   48.90
  -3 -11  10   11.40   36.10
   3 -11 -10   22.10   39.90
  -3 -11  10   -4.40   32.00
  -3  11  10  -72.79   41.00
  -3  11  10   -4.70   37.80
  -3  11  10  -13.10   32.50
   3  11 -10   21.20   38.80
  -2 -11  10    7.80   32.00
   2 -11 -10   -6.30   34.40
  -2  11  10    1.40   37.00
  -2  11  10  -30.60   37.10
   2  11 -10   26.20   39.60
   1 -11 -10   81.79   34.70
   1 -11 -10   34.40   35.80
  -1 -11  10   54.59   33.40
   1  11 -10  -15.90   31.50
   1  11 -10   55.49   33.90
  -1  11  10   20.20   41.40
   0 -11 -10   41.60   37.30
   0 -11 -10   22.70   31.90
   0  11 -10   27.20   38.70
   0  11 -10   58.69   34.00
   0  11  10  -10.20   34.50
  -1 -11 -10   93.69   36.10
  -1 -11 -10   72.19   38.70
  -1  11 -10   57.89   32.40
  -1  11 -10  127.99   48.10
  -2 -11 -10  -10.60   33.40
  -2 -11 -10   36.70   29.80
  -2  11 -10  -29.90   43.90
  -2  11 -10   16.40   32.10
  -3 -11 -10  -58.99   38.70
  -3 -11 -10   -1.80   28.20
  -3  11 -10  103.69   38.20
  -3  11 -10   98.99   55.59
  -4 -12  10    6.30   36.80
   4 -12 -10   47.10   40.30
  -4 -12  10   23.30   46.10
  -4  12  10  -13.40   46.20
  -4  12  10  -37.30   46.10
  -4  12  10   42.80   40.50
   3 -12 -10   57.89   42.00
  -3 -12  10  -29.90   36.40
   3  12 -10    8.20   33.70
  -3  12  10  -32.20   42.80
  -3  12  10  -62.89   37.50
  -2 -12  10   36.50   38.70
   2 -12 -10   69.69   38.50
   2  12 -10  107.39   47.00
  -2  12  10   12.60   41.50
   1 -12 -10   -2.30   36.90
  -1  12  10  -14.50   41.50
   1  12 -10   17.50   36.10
   0 -12 -10   17.90   35.40
   0 -12 -10   64.49   43.20
   0  12 -10   58.79   36.20
   0  12  10   34.40   40.00
   0  12 -10   58.09   39.60
  -1 -12 -10   64.19   34.30
  -1 -12 -10  -33.10   38.50
  -1  12 -10    2.20   36.10
  -1  12 -10   45.50   42.30
  -2 -12 -10   20.80   33.80
  -2 -12 -10  -28.20   37.00
  -2  12 -10    5.00   42.70
  -2  12 -10   44.80   34.80
   3 -13 -10   34.00   39.90
  -3 -13  10  -15.60   40.30
  -3  13  10    1.50   49.60
   3  13 -10    6.10   38.20
   2 -13 -10   -1.80   38.30
  -2  13  10   27.50   53.59
   2  13 -10  -29.10   36.20
   1 -13 -10   14.00   40.60
   1  13 -10   -1.10   37.80
  -1  13  10    1.10   42.10
   0 -13 -10   27.50   37.90
   0 -13 -10    0.40   36.60
   0  13 -10    9.50   39.00
   0  13 -10   32.10   40.70
   0  13  10   36.90   47.40
  -1 -13 -10   47.30   44.70
  -1 -13 -10   16.70   36.80
  -1  13 -10    8.50   40.20
  -1  13 -10    7.40   37.90
  -7   0  11    3.80   25.20
  -7   0  11   27.50   41.20
  -7   0  11   49.30   45.00
  -6   0  11  -29.50   32.70
  -6   0  11   15.60   34.40
  -6   0  11  -23.80   23.60
  -5   0  11   73.99   37.30
  -5   0  11   78.09   26.30
  -5   0  11   81.69   36.60
  -4   0  11  -12.40   20.80
  -4   0  11   43.10   29.30
   4   0 -11   18.90   22.30
   4   0 -11   19.20   18.30
  -4   0  11   -4.00   16.00
  -4   0  11  -17.50   17.70
  -4   0  11   28.70   28.00
  -3   0  11  250.97   31.70
  -3   0  11  265.27   34.00
   3   0 -11  177.18   28.90
  -3   0  11  208.28   37.00
   3   0 -11  184.88   27.60
  -3   0  11  180.48   35.50
  -2   0  11  -32.70   22.40
  -2   0  11   13.70   17.70
  -2   0  11  -22.00   19.90
   2   0 -11    3.00   17.30
   2   0 -11  -24.60   16.90
   1   0 -11   42.30   21.10
  -1   0  11   68.09   21.50
  -1   0  11   65.69   20.50
   1   0 -11   80.99   24.20
  -1   0  11   44.50   24.00
   1   0 -11   69.69   22.60
   1   0 -11   72.29   21.70
  -1   0  11   56.49   18.20
   0   0  11   -7.70   17.20
   0   0 -11  -10.30   15.00
   0   0  11  -20.80   14.00
   0   0  11   -3.20   15.10
   0   0 -11   -3.00   20.00
   0   0  11   -1.80   23.30
   0   0 -11  -11.30   16.70
   0   0 -11   24.70   18.60
  -1   0 -11  148.29   23.40
  -1   0 -11  149.09   23.20
   1   0  11  171.18   23.50
  -1   0 -11  137.59   22.00
   1   0  11  194.48   20.00
  -1   0 -11  168.88   33.10
  -1   0 -11  185.58   20.20
   2   0  11  -13.60   12.80
  -2   0 -11   17.10   16.90
  -2   0 -11   -4.90   20.50
  -2   0 -11  -11.40   14.70
  -2   0 -11   10.30   14.80
  -3   0 -11  250.67   27.30
  -3   0 -11  143.59   21.90
  -3   0 -11  162.88   25.30
  -3   0 -11  173.58   38.40
  -4   0 -11  -21.20   16.70
  -4   0 -11   72.59   28.70
  -4   0 -11   35.00   28.80
  -4   0 -11   -6.30   14.60
  -4   0 -11  -66.79   19.20
  -5   0 -11   20.60   38.20
  -5   0 -11   49.90   16.60
  -5   0 -11   14.00   12.50
  -6   0 -11  -45.10   35.60
  -6   0 -11   58.89   40.40
  -7  -1  11   14.00   26.20
  -7  -1  11  -27.20   36.30
  -7  -1  11    2.70   39.70
  -7   1  11  -35.30   38.40
  -7   1  11  -24.00   42.10
  -6  -1  11   12.20   30.60
  -6  -1  11   14.10   24.00
  -6  -1  11   28.70   36.30
  -6   1  11   23.40   23.40
  -6   1  11  -23.40   32.10
  -6   1  11  -41.80   33.10
  -5  -1  11  -23.80   28.70
  -5  -1  11   -3.80   20.90
  -5  -1  11   -1.40   27.10
   5  -1 -11  -22.90   18.40
  -5   1  11  -13.90   25.60
  -5   1  11  -19.90   24.30
  -5   1  11  -25.80   20.50
  -4  -1  11    9.50   26.30
  -4  -1  11   -1.00   26.70
  -4  -1  11   16.10   20.30
   4  -1 -11   31.20   21.70
   4  -1 -11   41.50   23.10
  -4  -1  11   12.90   14.20
  -4  -1  11   19.80   22.20
  -4   1  11    9.30   21.10
  -4   1  11   -1.10   26.40
  -4   1  11   10.10   23.80
  -4   1  11   -7.60   20.50
   4   1 -11    7.10   16.10
   4   1 -11   15.50   21.80
  -3  -1  11   24.30   21.20
  -3  -1  11   -1.60   19.90
  -3  -1  11    4.70   21.60
  -3  -1  11   47.10   20.10
  -3  -1  11    1.10   14.50
   3  -1 -11    8.30   20.70
   3  -1 -11  -34.80   17.70
  -3   1  11   36.80   26.00
   3   1 -11   11.40   21.20
  -3   1  11   26.70   21.20
   3   1 -11    7.30   17.80
  -3   1  11   11.60   25.60
  -3   1  11    1.10   17.80
  -2  -1  11  230.58   32.10
  -2  -1  11  228.18   35.40
   2  -1 -11  220.78   31.00
   2  -1 -11  232.98   29.20
  -2  -1  11  226.18   28.80
   2   1 -11  274.67   30.10
   2   1 -11  233.98   30.60
  -2   1  11  202.28   33.80
  -2   1  11  211.78   33.60
  -2   1  11  265.57   31.20
   1  -1 -11  321.67   33.20
   1  -1 -11  435.06   34.00
  -1  -1  11  273.47   38.00
   1  -1 -11  333.77   36.70
  -1  -1  11  346.17   32.00
  -1  -1  11  411.96   37.10
  -1   1  11  358.06   28.90
   1   1 -11  369.46   31.90
  -1   1  11  309.27   36.80
   1   1 -11  431.56   38.10
   1   1 -11  345.17   36.30
  -1   1  11  327.77   39.60
   1   1 -11  375.06   36.10
  -1   1  11  376.56   35.80
   0  -1  11  433.96   34.60
   0  -1  11  439.86   31.80
   0  -1 -11  439.96   37.80
   0  -1 -11  451.05   39.30
   0  -1  11  368.16   42.80
   0  -1 -11  512.55   37.20
   0  -1  11  449.76   35.90
   0  -1 -11  451.35   36.90
   0   1 -11  522.05   37.70
   0   1 -11  511.95   31.40
   0   1 -11  481.25   39.30
   0   1 -11  528.65   34.80
   0   1  11  426.76   28.00
   0   1 -11  459.95   36.60
   0   1  11  488.55   40.40
   0   1  11  432.16   34.90
   0   1  11  494.25   51.09
   1  -1  11   91.89   19.10
   1  -1  11  134.99   20.80
  -1  -1 -11  104.59   21.30
  -1  -1 -11  113.69   23.60
  -1  -1 -11  149.79   29.80
  -1  -1 -11   88.49   20.80
  -1   1 -11  129.29   22.30
  -1   1 -11  114.59   22.30
   1   1  11  131.79   20.60
  -1   1 -11  104.39   26.60
   1   1  11  130.89   12.50
  -1   1 -11  169.98   22.80
  -1   1 -11  109.39   15.70
  -2  -1 -11  176.98   34.40
  -2  -1 -11  114.09   28.50
  -2  -1 -11  184.38   24.50
  -2  -1 -11  200.38   25.70
  -2  -1 -11  230.88   18.80
   2  -1  11  144.09   21.00
   2  -1  11  145.59   22.80
  -2   1 -11  167.48   24.90
  -2   1 -11  161.08   24.80
   2   1  11  176.88   22.50
  -2   1 -11  104.59   21.40
  -2   1 -11  159.98   31.30
  -2   1 -11   84.59   18.60
  -3  -1 -11   31.60   27.90
  -3  -1 -11   -0.30   15.50
  -3  -1 -11    9.90   17.10
  -3  -1 -11  -58.49   14.10
  -3   1 -11    5.30   17.90
  -3   1 -11   25.80   20.40
  -3   1 -11   11.10   15.70
  -3   1 -11   -1.30   26.40
  -3   1 -11  -22.40   19.50
  -4  -1 -11  -12.90   16.70
  -4  -1 -11   36.60   32.10
  -4  -1 -11   -4.90   14.10
  -4   1 -11  -19.50   14.10
  -4   1 -11   12.30   18.10
  -4   1 -11   -4.20   31.10
  -4   1 -11  -42.00   21.70
  -5  -1 -11  -11.20   14.10
  -5  -1 -11   -4.00   12.30
  -5  -1 -11  -19.20   30.80
  -5   1 -11   18.70   15.50
  -5   1 -11  -15.30   12.60
  -5   1 -11  -15.70   37.30
  -6  -1 -11    1.90   38.20
  -6   1 -11   45.00   41.80
  -6   1 -11   13.40   38.50
  -7  -2  11  -21.10   39.30
  -7  -2  11    7.20   25.80
  -7  -2  11  -33.80   35.00
  -7   2  11   66.79   31.10
  -7   2  11   35.40   43.00
  -7   2  11   26.20   39.00
  -7   2  11   20.10   41.20
  -6  -2  11    5.00   22.50
  -6  -2  11   45.70   36.30
  -6  -2  11   -3.30   34.50
  -6   2  11   -5.40   34.00
  -6   2  11   64.69   39.50
  -5  -2  11   62.09   34.70
  -5  -2  11    0.00   29.80
   5  -2 -11   45.30   25.30
  -5  -2  11    2.80   23.50
  -5   2  11   10.40   22.60
  -5   2  11   33.90   35.00
  -5   2  11   15.80   29.10
   4  -2 -11   86.99   27.60
  -4  -2  11  123.69   35.00
  -4  -2  11  126.59   33.90
   4  -2 -11  172.28   29.60
  -4  -2  11   71.09   25.60
   4   2 -11   81.39   25.80
  -4   2  11  108.39   28.10
  -4   2  11  105.49   33.50
   4   2 -11  138.19   18.90
  -4   2  11  117.89   33.90
  -3  -2  11   37.80   20.20
  -3  -2  11   67.69   28.50
   3  -2 -11   38.90   20.70
   3  -2 -11   19.90   21.70
  -3  -2  11   30.70   23.90
  -3  -2  11   29.60   19.00
   3   2 -11   39.00   17.10
  -3   2  11   56.89   22.30
  -3   2  11   19.10   25.10
  -3   2  11   21.70   20.80
   3   2 -11    8.20   20.30
  -3   2  11   67.69   27.50
  -2  -2  11  161.58   33.00
  -2  -2  11  178.58   29.10
  -2  -2  11  168.48   27.80
   2  -2 -11  210.18   32.60
   2  -2 -11  135.59   26.00
  -2   2  11  189.28   34.00
   2   2 -11  188.88   25.20
   2   2 -11  152.88   26.30
  -2   2  11  128.69   25.30
  -2   2  11  171.68   34.60
  -1  -2  11   39.60   17.50
   1  -2 -11  -11.40   17.20
   1  -2 -11   -7.00   17.40
   1  -2 -11   24.70   19.50
  -1  -2  11  -17.70   17.10
  -1  -2  11   24.00   24.10
   1   2 -11  -21.70   15.50
   1   2 -11   -7.60   17.90
  -1   2  11  -20.40   19.60
  -1   2  11   -0.10   13.30
   1   2 -11  -32.30   17.00
   1   2 -11   -8.70   18.60
  -1   2  11  -23.20   16.90
  -1   2  11   19.50   24.80
   0  -2  11    5.60   15.90
   0  -2  11   -9.00   10.80
   0  -2 -11   17.40   20.10
   0  -2 -11    4.80   16.80
   0  -2  11  -14.30   21.60
   0  -2 -11   21.10   18.50
   0   2  11   26.40   22.90
   0   2 -11   17.90   18.60
   0   2 -11    0.90   17.10
   0   2  11   -7.80    7.90
   0   2 -11  -12.10   17.30
   0   2 -11  -21.40   19.20
  -1  -2 -11   21.30   17.90
  -1  -2 -11    9.70   17.20
  -1  -2 -11    9.80   22.10
   1  -2  11  -11.50   14.20
  -1   2 -11    6.40   18.20
  -1   2 -11   22.60   17.90
   1   2  11   12.60   15.50
  -1   2 -11   28.10   21.10
  -1   2 -11   -1.10   16.60
  -2  -2 -11  104.99   21.60
  -2  -2 -11   51.59   19.00
   2  -2  11   96.19   19.70
  -2  -2 -11   57.89   27.90
  -2   2 -11   93.99   22.00
  -2   2 -11  108.89   25.50
  -2   2 -11   65.29   19.20
   2   2  11   84.19   19.70
  -2   2 -11   62.19   25.60
  -3  -2 -11   -0.80   17.00
  -3  -2 -11    2.30   15.10
  -3  -2 -11   11.20   26.50
  -3   2 -11   13.10   26.10
  -3   2 -11    3.30   17.60
  -3   2 -11    8.60   17.10
  -3   2 -11   38.10   23.70
  -3   2 -11    3.50   15.80
  -4  -2 -11   90.89   20.70
  -4  -2 -11   47.70   18.00
  -4  -2 -11   82.59   35.30
  -4   2 -11   93.39   22.50
  -4   2 -11  126.19   40.30
  -4   2 -11   79.59   29.80
  -4   2 -11   64.99   18.60
  -5  -2 -11  -16.50   15.20
  -5  -2 -11   -6.70   34.70
  -5  -2 -11   11.20   14.40
  -5   2 -11  -20.70   28.60
  -5   2 -11  -16.60   16.50
  -5   2 -11   37.20   37.30
  -5   2 -11   22.40   14.90
  -6  -2 -11  -76.89   35.40
  -6  -2 -11    7.70   39.90
  -6   2 -11 -101.79   37.20
  -7  -3  11  -38.50   37.30
  -7  -3  11  -24.80   26.20
  -7  -3  11  -90.79   32.50
  -7   3  11   31.30   42.20
  -7   3  11   71.39   45.00
  -7   3  11  -29.30   26.10
  -7   3  11  -54.29   31.80
  -6  -3  11   28.00   33.10
  -6  -3  11    9.80   25.90
  -6  -3  11    4.50   31.20
  -6   3  11  -33.10   33.60
  -6   3  11   -5.30   35.10
  -6   3  11  -10.40   24.50
  -6   3  11  -38.50   30.80
  -5  -3  11   10.20   29.50
   5  -3 -11    8.10   25.30
  -5  -3  11   10.20   24.10
  -5  -3  11   39.40   34.00
  -5   3  11   38.10   25.60
  -5   3  11   17.40   30.20
  -5   3  11   83.59   35.50
  -5   3  11   28.30   32.90
  -4  -3  11   -3.00   25.40
   4  -3 -11  -21.20   19.40
   4  -3 -11   25.10   24.20
  -4  -3  11    0.20   18.80
  -4  -3  11   -5.30   27.00
   4   3 -11    0.80   21.90
  -4   3  11    7.20   26.20
  -4   3  11  -15.00   26.20
  -3  -3  11  185.38   30.60
  -3  -3  11  184.68   30.80
   3  -3 -11  165.18   30.10
   3  -3 -11  202.18   33.60
  -3  -3  11  121.69   31.70
  -3  -3  11  194.88   32.90
  -3   3  11  135.19   33.60
   3   3 -11  223.18   24.00
  -3   3  11   92.29   28.90
   3   3 -11  176.58   30.40
  -3   3  11  180.48   31.00
   2  -3 -11   36.00   20.30
  -2  -3  11   22.00   21.50
   2  -3 -11   23.90   24.10
  -2  -3  11   32.50   23.50
  -2  -3  11   41.10   20.10
   2   3 -11    7.10   19.20
  -2   3  11   -8.30   23.90
   2   3 -11   23.40   16.30
  -2   3  11    3.40   24.50
  -1  -3  11  258.77   36.20
   1  -3 -11  306.47   34.20
  -1  -3  11  313.67   27.70
  -1  -3  11  333.27   34.80
   1  -3 -11  258.37   37.40
   1  -3 -11  316.87   34.50
  -1   3  11  276.37   38.60
  -1   3  11  350.56   34.30
   1   3 -11  330.87   36.10
  -1   3  11  359.16   26.40
  -1   3  11  285.17   40.70
   1   3 -11  302.67   37.70
  -1   3  11  365.66   26.40
   1   3 -11  285.07   34.00
   1   3 -11  367.76   36.60
   0  -3  11  100.69   28.70
   0  -3 -11   44.40   22.80
   0  -3 -11   23.80   19.80
   0  -3  11   57.59   19.80
   0  -3 -11   52.29   21.40
   0   3 -11   25.70   19.60
   0   3  11   36.50   19.10
   0   3 -11   29.20   21.20
   0   3  11   28.20   26.50
   0   3 -11   55.99   23.60
   0   3 -11   34.70   22.90
   1  -3  11  383.16   33.70
  -1  -3 -11  414.46   46.60
   1  -3  11  403.66   45.20
  -1  -3 -11  310.97   33.00
  -1  -3 -11  406.96   37.40
  -1   3 -11  342.37   38.30
  -1   3 -11  355.76   41.80
   1   3  11  399.76   35.50
  -1   3 -11  371.36   35.30
  -1   3 -11  365.66   35.80
   1   3  11  427.86   45.10
  -2  -3 -11  -14.20   15.30
  -2  -3 -11   -0.70   17.90
  -2  -3 -11   11.90   22.10
   2  -3  11   41.80   17.30
  -2   3 -11   -1.20   22.10
  -2   3 -11   38.20   20.10
  -2   3 -11   14.70   17.70
  -2   3 -11   -7.90   23.20
   2   3  11    6.10   15.20
  -3  -3 -11   62.19   18.90
  -3  -3 -11   33.10   26.90
  -3  -3 -11   73.49   22.40
  -3   3 -11   56.99   22.00
  -3   3 -11   83.39   31.90
  -3   3 -11   41.20   19.70
  -3   3 -11  136.09   32.10
  -4  -3 -11    1.90   18.00
  -4  -3 -11   41.90   31.60
  -4  -3 -11    9.30   15.50
  -4   3 -11   49.10   30.60
  -4   3 -11  -16.80   31.40
  -4   3 -11  -10.70   16.40
  -5  -3 -11  -22.70   14.40
  -5  -3 -11   -1.40   33.20
  -5   3 -11  -10.90   15.20
  -5   3 -11  -18.70   30.80
  -5   3 -11  -19.90   33.00
  -6  -3 -11  -54.39   43.70
  -6  -3 -11   19.50   41.40
  -6   3 -11   -2.60   45.00
  -7  -4  11    4.00   41.10
  -7  -4  11   62.79   44.30
  -7  -4  11   -5.80   26.50
  -7   4  11  -11.10   41.30
  -7   4  11   51.79   30.10
  -7   4  11  -22.40   43.20
  -7   4  11    3.70   39.70
  -6  -4  11    6.30   36.10
  -6  -4  11   33.00   34.10
  -6  -4  11  -29.50   23.20
  -6   4  11   34.60   38.30
  -6   4  11    7.50   25.90
  -6   4  11   76.49   40.10
  -6   4  11    5.50   34.40
  -5  -4  11   21.70   31.50
   5  -4 -11   17.20   26.40
  -5  -4  11    4.40   31.60
  -5  -4  11   22.80   25.90
  -5   4  11    9.20   31.60
  -5   4  11   18.90   26.40
  -5   4  11   22.00   34.40
  -5   4  11   16.90   24.10
  -4  -4  11  146.39   39.20
   4  -4 -11  161.18   35.40
  -4  -4  11  145.99   35.30
  -4  -4  11   85.89   26.40
  -4   4  11   89.09   26.60
  -4   4  11  112.89   31.70
  -4   4  11  130.29   36.50
  -4   4  11  166.48   42.90
  -3  -4  11   -7.20   25.70
  -3  -4  11    9.80   21.20
  -3  -4  11  -11.20   21.30
   3  -4 -11  -23.10   20.50
   3  -4 -11  -18.70   23.20
  -3  -4  11   10.70   21.60
  -3   4  11   36.00   24.00
   3   4 -11  -39.30   20.50
  -3   4  11  -11.60   23.40
  -3   4  11  -18.70   23.30
   3   4 -11    2.70   13.50
  -3   4  11   -5.80   23.10
  -3   4  11   20.00   22.80
  -2  -4  11   82.09   25.70
   2  -4 -11  103.29   25.90
  -2  -4  11   92.89   29.90
  -2  -4  11   94.39   22.80
   2  -4 -11   30.60   25.90
   2   4 -11   73.39   20.90
  -2   4  11   34.20   25.70
   2   4 -11   64.99   24.20
  -2   4  11   28.30   21.60
  -2   4  11   80.49   30.60
   2   4 -11   88.99   29.70
  -2   4  11  100.19   23.30
  -1  -4  11  -20.80   21.00
  -1  -4  11   -5.10   13.20
  -1  -4  11  -30.70   17.20
   1  -4 -11  -21.00   19.30
   1  -4 -11    0.40   20.40
   1  -4 -11   14.10   19.80
  -1   4  11    8.70   24.90
  -1   4  11    7.80   20.20
   1   4 -11  -11.90   18.30
   1   4 -11   -9.10   18.70
   1   4 -11    6.20   19.70
  -1   4  11   -0.40   13.10
   1   4 -11   -3.10   21.50
   0  -4  11   18.90   25.70
   0  -4 -11    6.40   23.90
   0  -4 -11  -23.00   17.10
   0  -4  11  -25.70   17.10
   0  -4 -11   10.40   19.80
   0   4 -11   -9.20   18.50
   0   4  11   32.60   26.80
   0   4 -11    4.10   18.10
   0   4 -11    7.30   18.80
   0   4  11   11.40   18.50
   0   4 -11    5.60   22.20
   1  -4  11   -1.50   24.10
  -1  -4 -11  -12.30   17.00
  -1  -4 -11   -0.70   18.20
   1  -4  11    7.80   10.30
  -1  -4 -11  -16.30   18.60
  -1   4 -11  -10.00   19.20
   1   4  11   13.70   13.90
  -1   4 -11   19.20   19.70
   1   4  11    5.20   25.50
  -1   4 -11   12.50   24.10
  -1   4 -11   24.00   20.80
  -2  -4 -11   45.80   20.10
  -2  -4 -11  -23.50   15.80
  -2  -4 -11   22.50   26.60
  -2   4 -11   10.80   26.80
  -2   4 -11   34.10   20.00
  -2   4 -11   21.60   20.10
  -2   4 -11   21.50   24.30
  -3  -4 -11    9.60   26.90
  -3  -4 -11   -4.20   15.80
  -3   4 -11   43.20   20.60
  -3   4 -11   40.30   29.50
  -3   4 -11   19.20   27.10
  -4  -4 -11   -3.00   16.40
  -4  -4 -11   46.60   32.80
  -4   4 -11   11.70   18.90
  -4   4 -11   52.19   34.90
  -4   4 -11   45.70   33.50
  -5  -4 -11  -16.90   29.10
  -5  -4 -11   34.00   17.10
  -5   4 -11   16.30   18.00
  -5   4 -11   11.10   35.20
  -5   4 -11   52.39   35.60
  -6  -4 -11   46.90   44.20
  -6  -4 -11   -3.00   10.50
  -6  -4 -11   55.89   50.29
  -6   4 -11   -3.50   39.50
  -6   4 -11   10.80   14.50
  -7  -5  11  -11.40   27.40
  -7  -5  11  -12.20   42.00
  -7  -5  11  -26.40   34.70
  -7   5  11    5.90   44.70
  -7   5  11   54.69   46.20
  -7   5  11  -37.20   26.40
  -6  -5  11   -8.80   25.90
  -6  -5  11  -33.90   31.50
  -6  -5  11   24.60   37.80
  -6   5  11    6.70   24.80
  -6   5  11    7.90   35.10
  -6   5  11   41.50   37.90
  -6   5  11  -15.60   30.60
  -5  -5  11  -10.60   24.90
   5  -5 -11   18.50   30.50
  -5  -5  11   -4.10   28.90
  -5  -5  11  -18.30   26.60
  -5   5  11  -11.00   30.60
  -5   5  11   26.80   36.80
  -5   5  11  -12.80   30.70
  -5   5  11  -42.30   22.60
  -4  -5  11   -8.50   24.80
  -4  -5  11    1.90   28.60
   4  -5 -11   14.50   28.90
  -4  -5  11    5.30   24.40
  -4   5  11   14.60   29.70
  -4   5  11   45.30   30.90
  -4   5  11   23.30   29.60
  -4   5  11   38.70   25.90
  -3  -5  11   25.20   25.40
  -3  -5  11   11.70   24.20
   3  -5 -11    7.00   25.60
   3  -5 -11   53.59   26.60
  -3  -5  11   51.19   31.00
  -3  -5  11   47.70   23.80
  -3   5  11   11.70   27.10
  -3   5  11    6.60   31.30
  -3   5  11   31.90   24.00
   3   5 -11   16.60   22.30
  -3   5  11   13.00   23.60
   3   5 -11   11.80   14.80
  -2  -5  11   94.89   23.90
  -2  -5  11   79.29   24.90
  -2  -5  11  104.49   31.40
   2  -5 -11   97.69   30.80
   2  -5 -11   96.69   27.20
  -2   5  11   80.99   23.40
   2   5 -11   90.59   28.60
   2   5 -11   83.89   26.00
  -2   5  11   98.99   27.50
  -2   5  11   63.09   30.20
   2   5 -11  128.99   23.70
  -2   5  11   87.39   30.30
  -1  -5  11  273.77   32.40
   1  -5 -11  219.18   34.00
   1  -5 -11  167.88   29.40
  -1  -5  11  216.38   24.80
  -1  -5  11  208.78   37.20
   1  -5 -11  227.98   38.20
  -1   5  11  181.98   36.80
   1   5 -11  167.78   33.30
  -1   5  11  207.98   23.50
   1   5 -11  275.77   34.00
   1   5 -11  229.38   34.40
  -1   5  11  221.68   30.60
   1   5 -11  251.07   32.60
   0  -5 -11  182.98   29.70
   0  -5 -11  164.48   33.20
   0  -5  11  181.48   27.90
   0  -5  11  141.49   33.30
   0  -5 -11  148.09   27.90
   0   5  11  194.78   28.90
   0   5 -11  176.58   29.40
   0   5 -11  147.89   32.70
   0   5  11  186.48   40.50
   0   5 -11  160.38   28.90
   0   5 -11  163.98   30.40
  -1  -5 -11  100.09   24.90
  -1  -5 -11   65.59   24.70
  -1  -5 -11   98.99   31.50
   1  -5  11  155.88   32.00
   1   5  11  112.79   33.20
  -1   5 -11  144.29   28.00
  -1   5 -11  106.29   31.80
  -1   5 -11  108.79   26.30
  -1   5 -11  142.59   33.70
  -2  -5 -11   66.19   22.00
  -2  -5 -11   62.69   28.50
  -2   5 -11   75.39   28.80
  -2   5 -11   70.89   31.90
  -2   5 -11   93.09   24.80
  -3  -5 -11   -2.90   18.00
  -3  -5 -11    8.40   28.60
  -3   5 -11   37.30   35.50
  -3   5 -11    1.20   20.30
  -3   5 -11    2.00   28.30
  -4  -5 -11    9.20   32.50
  -4  -5 -11  -20.90   17.60
  -4   5 -11  -19.00   27.10
  -4   5 -11   39.40   36.50
  -4   5 -11    5.20   20.30
  -5  -5 -11  -20.70   16.10
  -5  -5 -11   14.70   36.30
  -5   5 -11   26.40   40.80
  -5   5 -11  -34.60   19.10
  -5   5 -11    5.40   35.80
  -7  -6  11   27.80   44.30
  -7  -6  11   -4.90   28.70
  -7  -6  11    7.50   38.50
  -7   6  11   21.60   48.80
  -7   6  11  105.99   53.39
  -7   6  11   67.59   36.20
  -6  -6  11    2.70   28.40
  -6  -6  11   11.60   37.30
  -6  -6  11   54.29   42.40
  -6   6  11  -17.20   34.60
  -6   6  11  -29.50   25.70
  -6   6  11  -28.40   34.10
  -6   6  11   24.40   37.40
   5  -6 -11   29.10   33.80
  -5  -6  11   33.60   33.40
  -5  -6  11   26.20   34.00
  -5  -6  11   59.19   30.60
  -5   6  11   15.40   34.00
  -5   6  11   29.80   26.30
  -5   6  11   -5.10   33.70
  -5   6  11   32.80   37.20
   4  -6 -11  -34.80   26.60
  -4  -6  11  -10.40   29.80
  -4  -6  11    2.60   28.00
  -4  -6  11   -5.30   21.50
  -4   6  11   -8.00   23.40
  -4   6  11    0.90   27.10
  -4   6  11  -10.40   34.80
  -4   6  11   -1.30   28.20
  -3  -6  11  123.89   36.10
   3  -6 -11  118.99   34.30
  -3  -6  11  121.49   28.40
  -3  -6  11   81.09   28.80
   3  -6 -11   70.99   26.90
   3   6 -11  105.19   29.60
  -3   6  11   81.69   38.40
  -3   6  11  167.88   37.20
   3   6 -11   82.69   18.70
  -3   6  11   74.89   26.50
  -3   6  11  115.09   31.10
   2  -6 -11   13.50   27.50
  -2  -6  11   15.50   26.90
  -2  -6  11   -0.40   21.00
  -2  -6  11   24.70   20.20
   2  -6 -11  -18.50   20.50
  -2   6  11   -3.10   28.10
  -2   6  11    5.00   21.60
   2   6 -11  -27.50   22.00
   2   6 -11   15.40   18.60
   2   6 -11  -22.60   21.50
  -2   6  11  -33.90   19.00
  -1  -6  11   37.40   26.40
  -1  -6  11   20.90   17.70
   1  -6 -11   23.60   25.20
  -1  -6  11   23.10   16.00
   1  -6 -11   -3.70   24.40
   1  -6 -11   22.50   22.40
  -1  -6  11   -3.80   19.80
  -1   6  11    4.10   16.30
  -1   6  11   31.60   23.00
   1   6 -11    2.20   22.20
   1   6 -11   39.70   21.90
  -1   6  11  -42.50   24.10
   1   6 -11   12.20   24.80
   1   6 -11   17.50   25.50
   0  -6  11   27.00   22.10
   0  -6 -11    7.10   25.00
   0  -6  11    1.10   24.80
   0  -6 -11    2.40   21.70
   0  -6 -11  -33.40   20.70
   0   6 -11  -16.00   22.40
   0   6  11   -7.50   29.10
   0   6 -11   23.70   21.30
   0   6  11  -23.40   19.00
   0   6 -11   74.39   31.10
   0   6 -11  -14.30   21.90
  -1  -6 -11   96.79   24.80
  -1  -6 -11   70.49   32.70
   1  -6  11   48.70   28.90
  -1   6 -11   62.59   32.00
  -1   6 -11   72.79   24.50
   1   6  11   73.39   33.60
  -2  -6 -11  -19.20   23.60
  -2  -6 -11   -7.10   18.90
  -2   6 -11   -4.10   20.50
  -2   6 -11   26.90   31.80
  -3  -6 -11   71.39   23.00
  -3  -6 -11    0.60   28.10
  -3   6 -11   45.70   37.70
  -3   6 -11   61.99   24.00
  -4  -6 -11  -21.10   31.20
  -4  -6 -11    1.30   19.10
  -4   6 -11   23.20   33.40
  -4   6 -11   17.70   23.10
  -4   6 -11   20.30   38.80
  -5  -6 -11   22.90   38.50
  -5  -6 -11  -14.10   18.40
  -5   6 -11   94.39   48.40
  -5   6 -11    4.20   40.30
  -5   6 -11   -4.60   21.40
  -6  -7  11  -14.90   35.20
  -6  -7  11   23.40   28.90
  -6  -7  11  -16.60   39.90
  -6   7  11   25.00   32.20
  -6   7  11   43.60   41.00
  -6   7  11   13.00   39.80
  -5  -7  11   -8.30   32.40
   5  -7 -11   -0.50   32.70
  -5  -7  11    8.00   33.50
  -5  -7  11   -1.70   27.90
  -5   7  11  -19.60   27.10
  -5   7  11    1.60   31.20
  -5   7  11   20.40   34.90
  -5   7  11    2.20   33.60
   4  -7 -11   46.80   35.90
  -4  -7  11  -12.80   27.50
  -4  -7  11   38.20   28.50
  -4  -7  11    8.10   32.30
  -4   7  11  -14.40   29.30
  -4   7  11  -24.10   29.40
  -4   7  11    1.30   37.60
  -4   7  11   17.50   26.40
   3  -7 -11  -17.30   22.90
  -3  -7  11  -12.10   28.50
  -3  -7  11    8.00   24.20
   3  -7 -11   27.10   32.10
  -3  -7  11   48.00   26.30
  -3   7  11   29.10   36.30
  -3   7  11   39.90   25.10
  -3   7  11   13.00   26.10
   3   7 -11   21.10   29.30
   3   7 -11   21.30   25.00
  -2  -7  11   21.40   27.10
   2  -7 -11   52.99   31.20
   2  -7 -11   54.29   27.30
  -2  -7  11   52.09   29.50
  -2  -7  11   78.19   25.00
  -2   7  11   29.60   26.00
  -2   7  11   37.40   24.60
   2   7 -11   25.60   24.20
   2   7 -11   69.09   32.10
   2   7 -11   71.49   22.50
  -2   7  11   51.39   39.70
   1  -7 -11   40.40   24.30
  -1  -7  11   47.70   19.10
  -1  -7  11   66.19   30.10
  -1  -7  11   63.69   28.50
   1  -7 -11   50.29   28.40
   1   7 -11   32.40   24.00
   1   7 -11   95.09   35.70
  -1   7  11   70.79   24.90
  -1   7  11   64.99   36.80
  -1   7  11   71.89   22.70
   0  -7 -11  104.59   27.20
   0  -7  11  117.39   32.00
   0  -7 -11   74.79   30.80
   0  -7  11   60.09   29.50
   0   7  11   77.39   25.50
   0   7 -11   98.49   32.60
   0   7 -11   72.19   26.70
   0   7  11   87.89   40.70
  -1  -7 -11   37.70   23.50
  -1  -7 -11   21.20   29.90
   1  -7  11   16.30   25.10
   1   7  11   24.80   34.10
  -1   7 -11    8.50   22.20
  -1   7 -11    8.30   29.80
  -2  -7 -11   24.00   22.40
  -2  -7 -11   60.19   31.30
  -2   7 -11   81.89   35.80
  -2   7 -11   21.90   23.10
  -3  -7 -11  -27.60   29.80
  -3  -7 -11  -51.09   18.70
  -3   7 -11    2.30   22.10
  -3   7 -11    2.50   38.50
  -4  -7 -11    8.00   35.70
  -4  -7 -11    1.10   19.30
  -4   7 -11   30.90   24.80
  -4   7 -11    7.50   43.40
  -5  -7 -11   -4.50   20.30
  -5  -7 -11   18.60   40.10
  -5   7 -11  -18.00   34.70
  -5   7 -11    7.80   24.10
  -5   7 -11   69.19   49.70
  -6  -8  11   13.70   36.60
  -6  -8  11   24.30   41.40
  -6  -8  11   24.60   34.40
  -6   8  11  -35.00   30.50
  -6   8  11   30.20   46.90
  -6   8  11   52.29   48.60
  -5  -8  11   15.70   29.60
  -5  -8  11   72.99   41.90
  -5  -8  11  -12.80   34.40
   5  -8 -11   32.30   38.10
  -5   8  11    9.50   32.30
  -5   8  11   16.60   38.10
  -5   8  11   23.70   39.70
   4  -8 -11  197.78   41.00
  -4  -8  11  141.79   39.10
  -4  -8  11  123.39   43.90
  -4  -8  11  117.29   34.90
  -4   8  11  111.89   34.30
  -4   8  11  152.98   40.10
  -4   8  11   63.09   43.50
  -3  -8  11   61.59   35.40
   3  -8 -11   74.19   34.80
  -3  -8  11   61.89   30.00
  -3  -8  11  111.99   33.90
  -3   8  11   37.20   40.60
  -3   8  11   41.00   31.10
  -3   8  11   75.49   28.90
   3   8 -11   61.79   34.20
   2  -8 -11   84.19   32.30
  -2  -8  11   60.99   29.00
  -2  -8  11   75.99   32.60
   2  -8 -11   96.79   33.60
  -2   8  11   43.50   28.50
   2   8 -11  123.19   40.70
   2   8 -11   84.99   31.20
   2   8 -11   98.49   25.40
  -2   8  11  108.29   30.40
  -2   8  11   65.29   41.10
   1  -8 -11   76.19   29.00
  -1  -8  11   16.00   27.10
   1  -8 -11   60.39   31.70
  -1  -8  11   65.89   27.70
  -1   8  11   35.20   24.20
   1   8 -11   29.90   34.80
  -1   8  11   59.79   40.70
   1   8 -11   45.80   28.20
  -1   8  11   64.09   28.00
   0  -8 -11   -7.60   19.80
   0  -8 -11   23.60   33.00
   0  -8  11   22.20   27.40
   0   8 -11   32.50   30.80
   0   8  11   25.30   32.80
   0   8 -11   48.10   26.80
  -1  -8 -11   55.29   31.40
  -1  -8 -11   18.80   24.30
   1  -8  11   10.10   25.70
  -1   8 -11   -1.10   34.30
  -1   8 -11   63.49   27.50
   1   8  11   31.00   36.90
  -2  -8 -11  -34.30   25.80
  -2  -8 -11    3.80   23.10
  -2   8 -11   15.10   25.60
  -2   8 -11  -12.40   31.30
  -3  -8 -11  -17.60   35.20
  -3  -8 -11    8.30   23.00
  -3   8 -11   -8.80   24.70
  -3   8 -11    7.90   36.90
  -4  -8 -11   16.60   22.10
  -4  -8 -11   27.30   38.50
  -4   8 -11  -18.00   44.70
  -4   8 -11   -5.20   25.50
  -6  -9  11    7.50   42.60
  -6  -9  11   30.60   44.60
  -6  -9  11  -26.20   33.40
  -6   9  11  -37.50   41.70
  -6   9  11   32.80   37.30
  -6   9  11  -67.39   47.60
  -5  -9  11   -4.10   35.40
  -5  -9  11  -37.60   32.60
  -5  -9  11   41.20   35.60
   5  -9 -11   12.60   37.60
  -5   9  11   -7.60   44.80
  -5   9  11  -23.40   39.40
  -5   9  11   -8.60   31.60
  -4  -9  11  -17.20   33.10
  -4  -9  11   26.60   33.70
  -4  -9  11  -27.00   28.30
   4  -9 -11  100.39   41.60
  -4   9  11  -35.90   33.80
  -4   9  11  -23.50   28.60
  -4   9  11  -36.80   37.40
   3  -9 -11   64.69   34.30
  -3  -9  11   58.99   30.70
  -3  -9  11   75.99   37.70
  -3   9  11   47.10   30.60
  -3   9  11   51.59   42.70
   3   9 -11   60.79   35.60
  -3   9  11   26.10   32.50
  -2  -9  11   -3.60   30.80
  -2  -9  11    0.30   28.00
   2  -9 -11   33.00   30.50
   2  -9 -11   33.60   28.50
  -2   9  11   -0.80   41.10
   2   9 -11   10.00   35.00
   2   9 -11   22.10   27.40
  -2   9  11  -24.20   27.10
  -2   9  11   20.00   26.60
   1  -9 -11  251.27   47.60
   1  -9 -11  279.87   42.10
  -1  -9  11  369.56   48.00
  -1   9  11  189.98   47.70
   1   9 -11  357.26   46.60
   1   9 -11  292.37   49.90
   0  -9  11  -18.10   26.30
   0  -9 -11   28.70   35.80
   0  -9 -11   58.39   30.20
   0   9 -11    6.30   29.80
   0   9 -11  -31.30   25.90
   0   9  11   19.70   34.90
  -1  -9 -11  204.18   48.30
  -1  -9 -11  295.27   41.10
   1   9  11  170.98   49.99
  -1   9 -11  266.37   39.50
  -1   9 -11   86.39   38.50
  -2  -9 -11  -11.10   23.10
  -2  -9 -11  -35.00   32.90
  -2   9 -11    7.00   25.80
  -2   9 -11   61.89   44.60
  -3  -9 -11   55.39   27.40
  -3  -9 -11   57.69   41.50
  -3   9 -11   14.70   28.50
  -3   9 -11    1.70   46.80
  -4  -9 -11  -39.20   39.00
  -4  -9 -11   -8.30   23.50
  -4   9 -11   12.00   29.50
  -4   9 -11   -7.80   48.20
   5 -10 -11   22.10   40.60
  -5 -10  11   20.30   38.60
  -5 -10  11    9.00   39.10
  -5 -10  11   25.90   45.20
  -5  10  11  -17.60   49.99
  -5  10  11  -48.50   29.70
  -5  10  11  -29.60   40.70
   4 -10 -11   81.99   44.00
  -4 -10  11   78.29   37.30
  -4 -10  11   56.79   38.10
  -4 -10  11    1.40   34.50
  -4  10  11   19.30   36.00
  -4  10  11   -1.40   46.80
  -4  10  11   18.00   39.50
  -3 -10  11   22.20   33.50
   3 -10 -11   -5.80   34.50
  -3 -10  11   11.00   36.20
  -3  10  11  -17.90   33.80
  -3  10  11  -51.59   35.90
   3  10 -11    0.90   32.30
  -3  10  11   12.70   30.20
   2 -10 -11   25.20   33.30
  -2 -10  11   23.30   33.10
  -2 -10  11   56.89   35.50
  -2  10  11   51.79   34.60
  -2  10  11   31.30   45.10
   2  10 -11   15.00   32.20
   1 -10 -11  -30.10   32.10
  -1 -10  11    8.20   29.80
   1 -10 -11   14.10   26.20
  -1  10  11  -20.70   39.10
   1  10 -11   24.30   30.70
   1  10 -11   10.50   32.80
   0 -10 -11    9.20   32.50
   0 -10 -11   40.70   29.70
   0  10 -11   29.50   30.20
   0  10  11  -11.60   38.50
   0  10 -11    1.50   32.60
  -1 -10 -11   32.00   39.00
  -1 -10 -11  -29.50   25.30
  -1  10 -11   57.19   32.30
  -1  10 -11   19.90   36.60
  -2 -10 -11   14.30   39.40
  -2 -10 -11    6.20   28.90
  -2  10 -11   -2.00   39.60
  -2  10 -11   13.50   27.80
  -3 -10 -11    6.40   41.10
  -3 -10 -11   50.29   30.00
  -3  10 -11    1.50   48.50
  -3  10 -11   57.69   33.80
  -4 -10 -11  -22.20   42.80
   4 -11 -11    6.30   37.90
  -4 -11  11  -16.60   39.00
  -4 -11  11   10.60   40.50
  -4  11  11   15.70   42.50
  -4  11  11  -36.10   46.40
  -4  11  11    9.70   38.50
  -3 -11  11    6.10   38.70
  -3 -11  11  -24.20   29.80
   3 -11 -11   20.10   38.20
   3  11 -11   51.89   39.20
  -3  11  11   19.50   39.90
  -3  11  11   29.20   49.50
  -3  11  11   -6.70   35.80
   2 -11 -11   80.49   42.50
  -2 -11  11   18.00   35.70
   2  11 -11   75.19   43.90
  -2  11  11   51.99   48.90
   1 -11 -11   17.90   33.80
  -1 -11  11    3.20   31.60
   1 -11 -11    2.90   29.00
   1  11 -11   -2.70   33.90
   1  11 -11    5.10   31.50
  -1  11  11   -1.60   43.50
   0 -11 -11   41.10   33.60
   0 -11 -11   57.19   38.20
   0  11 -11   95.89   38.70
   0  11 -11   84.09   39.60
   0  11  11   70.29   45.60
  -1 -11 -11  109.39   38.40
  -1 -11 -11   17.30   39.70
  -1  11 -11   33.20   38.80
  -1  11 -11   68.79   35.70
  -2 -11 -11   32.30   30.30
  -2 -11 -11    6.30   36.30
  -2  11 -11   -5.90   33.10
  -2  11 -11   42.20   49.50
  -3 -11 -11   42.40   32.00
  -3 -11 -11  -22.10   37.10
  -3  11 -11  -42.60   49.20
  -3  11 -11   -8.80   32.50
   3 -12 -11   71.69   40.70
  -3 -12  11  -21.40   39.90
   3  12 -11   45.90   45.80
  -3  12  11   21.90   50.99
   2 -12 -11    7.20   36.60
  -2 -12  11   23.40   36.70
  -2  12  11  -44.30   44.40
   2  12 -11   22.90   43.40
   1 -12 -11   -5.20   32.70
  -1  12  11  -14.00   40.10
   1  12 -11    7.00   39.90
   0 -12 -11   -8.10   37.00
   0 -12 -11    6.90   36.20
   0  12 -11   37.90   37.40
   0  12 -11  -12.40   40.70
   0  12  11   32.00   41.00
  -1 -12 -11   -0.60   42.30
  -1 -12 -11   57.69   36.20
  -1  12 -11  -11.50   42.40
  -1  12 -11  -55.49   31.30
  -2 -12 -11   -3.10   32.40
  -2 -12 -11    8.50   42.80
  -2  12 -11   -4.60   48.00
  -2  12 -11  -49.90   32.60
   2 -13 -11   53.59   41.10
  -2  13  11  -83.39   39.00
   2  13 -11   78.49   50.39
   1 -13 -11   54.89   40.70
   1  13 -11   69.29   45.00
  -1  13  11    4.90   44.00
   0 -13 -11   73.39   37.00
   0 -13 -11   89.39   48.30
   0  13 -11   38.20   40.60
   0  13  11   58.19   47.90
   0  13 -11   11.70   44.60
  -1 -13 -11  -40.50   41.30
  -7   0  12   33.00   44.90
  -7   0  12   -0.20   42.70
  -7   0  12   -8.00   26.40
  -6   0  12   43.30   29.60
  -6   0  12  102.49   44.30
  -6   0  12   -7.60   31.50
  -5   0  12   23.40   32.40
  -5   0  12  -26.40   22.50
  -5   0  12   24.40   29.80
   4   0 -12   85.59   27.30
   4   0 -12  121.39   24.90
  -4   0  12   69.69   23.90
  -4   0  12   65.99   30.20
  -4   0  12   44.90   31.10
  -3   0  12  -19.80   22.40
  -3   0  12  -17.90   20.90
   3   0 -12   20.90   23.10
   3   0 -12   -3.80   19.60
  -3   0  12  -12.10   19.60
  -3   0  12  -16.10   25.30
   2   0 -12   11.30   19.60
  -2   0  12   46.10   24.20
  -2   0  12   39.00   26.40
  -2   0  12   12.50   18.40
   2   0 -12   21.10   20.50
  -1   0  12   45.30   20.10
  -1   0  12   -3.30   18.90
   1   0 -12  -16.00   18.50
   1   0 -12   -7.00   17.70
  -1   0  12  -26.30   19.30
  -1   0  12   20.90   17.70
   1   0 -12  -15.20   17.80
   0   0 -12  304.57   34.10
   0   0 -12  362.56   39.80
   0   0  12  242.98   37.40
   0   0 -12  396.56   32.10
   0   0 -12  347.07   35.40
   0   0  12  319.97   32.10
   0   0  12  307.17   29.00
   0   0  12  314.17   33.10
   1   0  12  -11.40   15.20
  -1   0 -12    1.00   12.90
  -1   0 -12    1.70   22.50
   1   0  12    5.00   12.60
  -1   0 -12  -13.80   16.20
  -1   0 -12    5.00   17.20
  -1   0 -12    1.80   16.90
  -2   0 -12   75.09   28.20
  -2   0 -12  108.19   19.80
  -2   0 -12  100.99   23.60
  -2   0 -12   78.09   22.00
  -2   0 -12   72.59   20.80
  -3   0 -12  -50.39   16.90
  -3   0 -12   -7.70   15.80
  -3   0 -12  -10.40   18.80
  -3   0 -12   46.80   30.40
  -4   0 -12   39.30   33.20
  -4   0 -12    3.00   16.30
  -5   0 -12  -12.20   14.20
  -5   0 -12   22.20   39.30
  -6   0 -12  -54.39   43.10
  -7  -1  12  -13.40   38.80
  -7  -1  12   -7.60   40.40
  -7  -1  12  -20.70   26.80
  -7   1  12  -47.80   31.90
  -7   1  12  -25.60   41.10
  -6  -1  12  -33.30   24.10
  -6  -1  12    8.50   32.30
  -6  -1  12   16.30   38.00
  -6   1  12  -39.30   30.30
  -6   1  12  -24.40   23.40
  -6   1  12  -16.90   34.70
  -5  -1  12  -12.50   30.90
  -5  -1  12   -8.50   32.00
   5  -1 -12   39.10   23.60
  -5  -1  12   39.90   24.00
  -5   1  12   32.60   24.30
  -5   1  12   17.20   28.70
  -5   1  12   21.10   31.70
  -4  -1  12   18.20   30.10
   4  -1 -12   14.80   22.40
  -4  -1  12   28.30   28.00
  -4  -1  12   40.40   24.10
   4  -1 -12   30.40   24.50
   4   1 -12   24.60   22.80
  -4   1  12    6.50   30.30
   4   1 -12   12.90   17.80
  -4   1  12   66.99   33.60
  -4   1  12   44.70   25.30
  -3  -1  12  194.18   32.50
   3  -1 -12  222.28   33.90
  -3  -1  12  219.88   32.50
  -3  -1  12  163.58   38.40
  -3  -1  12  231.38   36.60
   3  -1 -12  206.48   31.00
  -3   1  12  149.29   36.40
  -3   1  12  242.08   34.10
   3   1 -12  177.18   31.60
   3   1 -12  231.38   29.40
  -3   1  12  259.47   41.40
  -3   1  12  208.58   32.50
  -2  -1  12  181.18   31.40
   2  -1 -12  179.08   30.80
  -2  -1  12  179.88   32.30
   2  -1 -12  138.79   28.00
  -2  -1  12  184.18   28.60
  -2   1  12  128.79   27.50
   2   1 -12  167.38   27.00
  -2   1  12  156.18   31.10
  -2   1  12  170.78   35.80
   2   1 -12  198.78   30.40
  -1  -1  12  297.97   42.40
   1  -1 -12  350.36   37.30
  -1  -1  12  338.47   34.40
   1  -1 -12  373.46   38.00
   1  -1 -12  349.47   38.50
  -1  -1  12  396.46   37.80
  -1   1  12  296.87   37.00
  -1   1  12  267.77   38.80
   1   1 -12  307.67   31.40
  -1   1  12  345.27   28.70
   1   1 -12  313.57   33.50
  -1   1  12  270.97   31.80
   1   1 -12  362.56   36.50
   1   1 -12  379.36   38.80
   0  -1 -12   49.10   21.80
   0  -1  12   61.09   20.30
   0  -1 -12   47.10   24.90
   0  -1  12   35.50   17.20
   0  -1 -12   37.30   20.00
   0  -1  12   -1.10   25.70
   0  -1 -12    5.20   20.10
   0  -1  12   39.70   19.50
   0   1  12   31.00   13.60
   0   1  12   29.80   22.20
   0   1 -12   46.80   16.60
   0   1 -12   42.20   21.20
   0   1 -12   34.10   21.40
   0   1  12   11.10   24.50
   0   1 -12   65.29   21.50
   0   1  12   32.30   18.10
   0   1 -12   60.59   19.00
  -1  -1 -12   68.29   25.50
  -1  -1 -12   77.29   22.90
  -1  -1 -12  102.89   22.80
   1  -1  12  121.49   22.00
   1  -1  12   75.39   19.80
  -1  -1 -12   51.69   19.50
  -1   1 -12   80.39   26.60
  -1   1 -12  121.69   21.30
  -1   1 -12   56.69   14.60
   1   1  12   81.79   11.30
  -1   1 -12   66.29   21.20
  -1   1 -12   81.39   22.60
  -2  -1 -12    0.80   23.40
  -2  -1 -12  -14.10   17.70
  -2  -1 -12  -16.70   15.80
  -2  -1 -12   45.90   11.90
   2  -1  12   25.00   20.10
  -2   1 -12   11.60   17.70
  -2   1 -12   22.80   19.30
  -2   1 -12   20.40   22.40
  -2   1 -12   41.80   20.00
  -3  -1 -12   14.40   17.40
  -3  -1 -12   26.10   27.30
  -3  -1 -12  -12.40   18.00
  -3   1 -12    4.40   21.50
  -3   1 -12   28.20   20.50
  -3   1 -12  -34.20   15.60
  -3   1 -12   47.40   28.00
  -4  -1 -12    1.30   28.20
  -4  -1 -12   13.70   16.20
  -4   1 -12   30.60   35.10
  -4   1 -12    9.70   16.80
  -5  -1 -12   -5.10   37.90
  -5  -1 -12   24.80   15.50
  -5   1 -12   27.70   16.00
  -5   1 -12   13.50   40.00
  -6  -1 -12   28.50   44.00
  -6   1 -12   -8.30   40.50
  -7  -2  12   -7.80   36.60
  -7  -2  12  -44.90   24.30
  -7  -2  12   17.80   41.40
  -7   2  12   10.50   41.10
  -7   2  12    0.00   42.20
  -7   2  12   -9.80   37.80
  -7   2  12   -6.00   27.60
  -6  -2  12   26.90   34.30
  -6  -2  12   14.50   36.60
  -6  -2  12   30.00   27.60
  -6   2  12   -3.20   34.50
  -6   2  12   48.10   40.80
  -5  -2  12   39.00   31.70
  -5  -2  12   44.40   34.70
  -5  -2  12   48.10   25.30
   5  -2 -12   92.59   29.40
  -5   2  12   41.80   26.40
  -5   2  12   68.79   36.20
  -5   2  12   29.00   35.90
   4  -2 -12   19.40   23.60
  -4  -2  12    5.40   22.30
  -4  -2  12   12.90   30.40
  -4  -2  12   39.70   29.60
   4  -2 -12    1.60   23.80
   4   2 -12   42.10   24.60
  -4   2  12    7.10   30.00
  -4   2  12   20.20   24.00
   4   2 -12    2.90   16.00
  -4   2  12   14.70   29.30
  -3  -2  12   54.49   23.50
  -3  -2  12  -18.40   21.70
  -3  -2  12   11.60   21.30
   3  -2 -12    5.30   22.50
   3  -2 -12   24.90   23.40
  -3  -2  12    9.40   26.40
  -3   2  12   13.80   21.30
   3   2 -12   18.70   21.50
   3   2 -12   20.30   18.70
  -3   2  12  -10.80   26.50
  -3   2  12  -23.60   23.80
  -3   2  12  -20.70   18.20
   2  -2 -12   10.50   19.90
  -2  -2  12   14.70   19.20
  -2  -2  12    3.60   20.20
  -2  -2  12   19.50   25.30
   2  -2 -12    7.50   22.50
  -2   2  12   11.10   22.80
  -2   2  12    8.50   19.40
   2   2 -12   -7.10   17.80
   2   2 -12   16.30   21.20
  -2   2  12   -9.30   24.00
  -1  -2  12   77.49   19.80
   1  -2 -12   66.09   23.50
  -1  -2  12  115.09   24.30
   1  -2 -12   80.89   27.30
  -1  -2  12   58.59   28.00
   1  -2 -12   80.19   25.40
  -1   2  12   64.89   27.00
  -1   2  12   78.79   17.50
   1   2 -12   95.79   24.90
   1   2 -12   95.19   24.80
  -1   2  12   70.49   22.40
   1   2 -12   76.79   23.70
  -1   2  12   55.39   26.60
   0  -2 -12   30.10   24.10
   0  -2  12    2.30   11.50
   0  -2 -12  -18.10   16.90
   0  -2  12  -13.10   16.50
   0  -2  12   -0.70   23.70
   0  -2 -12  -33.80   18.00
   0   2 -12    3.60   17.80
   0   2  12  -11.60   22.30
   0   2 -12   11.70   19.40
   0   2  12  -11.40    7.90
   0   2 -12    5.80   19.10
   0   2 -12  -26.90   17.20
  -1  -2 -12  289.87   32.80
  -1  -2 -12  240.28   38.60
   1  -2  12  209.98   26.80
  -1  -2 -12  230.58   29.30
  -1   2 -12  184.88   34.90
  -1   2 -12  248.48   30.80
  -1   2 -12  212.38   29.60
   1   2  12  190.78   25.60
  -1   2 -12  229.68   29.80
  -2  -2 -12   49.00   19.10
  -2  -2 -12   34.30   27.40
  -2  -2 -12   26.10   20.20
  -2   2 -12   53.69   24.10
  -2   2 -12   39.40   27.20
  -2   2 -12   15.70   18.50
  -2   2 -12   25.50   20.40
  -3  -2 -12   53.89   19.50
  -3  -2 -12  104.19   32.00
  -3  -2 -12   93.89   22.80
  -3   2 -12  179.98   31.20
  -3   2 -12   77.59   34.00
  -3   2 -12  126.19   27.00
  -3   2 -12   92.19   21.90
  -4  -2 -12   12.70   16.80
  -4  -2 -12  -20.40   26.10
  -4   2 -12  -28.50   16.10
  -4   2 -12   40.20   29.60
  -4   2 -12   -3.10   33.50
  -5  -2 -12   25.50   38.70
  -5  -2 -12   -5.20   14.80
  -5   2 -12  -49.00   36.20
  -5   2 -12   11.70   17.00
  -7  -3  12   27.80   31.00
  -7  -3  12   33.60   43.90
  -7  -3  12  -26.50   38.00
  -7   3  12   37.70   29.90
  -7   3  12    9.90   44.70
  -7   3  12   13.20   42.30
  -7   3  12  -40.60   42.40
  -6  -3  12   40.80   38.10
  -6  -3  12   20.10   38.10
  -6  -3  12   33.40   27.30
  -6   3  12   16.00   38.70
  -6   3  12   13.10   33.70
  -6   3  12   47.20   44.10
  -6   3  12   42.00   29.60
  -5  -3  12  -21.00   26.50
  -5  -3  12   18.30   24.10
   5  -3 -12    0.10   27.40
  -5  -3  12   -7.90   30.90
  -5   3  12   50.89   34.40
  -5   3  12    5.50   31.00
  -5   3  12  -22.70   22.00
  -5   3  12   23.60   29.80
  -4  -3  12  230.98   44.50
   4  -3 -12  185.58   35.90
  -4  -3  12  173.68   32.30
  -4  -3  12  140.29   36.40
  -4   3  12  203.68   41.50
  -4   3  12  157.68   39.10
  -3  -3  12   35.80   23.60
  -3  -3  12  -20.40   24.30
   3  -3 -12  -21.50   22.20
  -3  -3  12    9.50   23.10
   3  -3 -12  -34.10   19.10
  -3   3  12   17.60   28.10
   3   3 -12    4.80   23.00
   3   3 -12   -7.50   16.60
  -3   3  12    7.80   28.70
   2  -3 -12  304.67   39.60
  -2  -3  12  365.56   38.70
   2  -3 -12  322.27   38.60
  -2  -3  12  278.77   42.10
  -2  -3  12  360.26   35.70
  -2   3  12  231.28   38.40
   2   3 -12  405.66   36.90
   2   3 -12  391.36   40.10
  -2   3  12  337.17   45.40
   1  -3 -12   -0.20   21.20
  -1  -3  12  -14.60   23.30
  -1  -3  12    6.80   18.90
  -1  -3  12   26.10   16.80
   1  -3 -12  -14.50   17.10
   1  -3 -12   35.30   22.60
  -1   3  12   15.20   13.50
   1   3 -12   18.70   23.10
  -1   3  12  -21.00   21.00
  -1   3  12   -1.90   25.70
   1   3 -12   45.90   22.30
  -1   3  12   17.10   21.40
  -1   3  12   26.30   14.80
   1   3 -12   18.40   20.40
   1   3 -12   71.59   23.50
   0  -3 -12  183.68   32.90
   0  -3 -12  179.58   29.60
   0  -3  12  199.58   28.70
   0  -3  12  176.78   35.00
   0  -3 -12  205.68   30.40
   0   3 -12  199.68   33.30
   0   3 -12  176.58   29.20
   0   3  12  194.28   28.80
   0   3  12  162.98   34.60
   0   3 -12  150.58   28.70
   0   3 -12  204.48   31.70
  -1  -3 -12   -7.00   20.70
   1  -3  12   -6.50   23.10
   1  -3  12   -1.50   15.40
  -1  -3 -12  -11.30   17.10
  -1  -3 -12   13.20   19.70
  -1   3 -12   35.10   23.00
  -1   3 -12   14.20   24.60
   1   3  12  -26.70   22.10
  -1   3 -12   13.60   19.80
  -1   3 -12   18.80   19.80
   1   3  12   30.20   17.30
  -2  -3 -12   23.50   19.00
  -2  -3 -12   11.30   24.90
  -2  -3 -12  -11.60   19.30
  -2   3 -12   29.80   24.90
  -2   3 -12   26.60   20.30
  -2   3 -12   63.59   22.50
  -2   3 -12   44.70   28.00
  -3  -3 -12   -5.80   23.80
  -3  -3 -12   -9.40   17.20
  -3   3 -12  -10.90   17.30
  -3   3 -12   34.90   26.00
  -3   3 -12  -54.29   23.30
  -4  -3 -12   30.60   16.70
  -4  -3 -12  -27.60   31.50
  -4   3 -12   -0.10   31.40
  -4   3 -12   -8.10   16.20
  -4   3 -12   78.49   33.70
  -5  -3 -12   21.20   17.00
  -5  -3 -12   11.60   34.20
  -5   3 -12   31.40   41.80
  -5   3 -12  -10.70   17.50
  -7  -4  12   31.00   32.80
  -7  -4  12   -0.60   41.70
  -7  -4  12   14.30   41.30
  -7   4  12  -36.10   27.00
  -7   4  12   14.70   41.00
  -7   4  12   33.40   43.70
  -7   4  12   19.40   45.20
  -6  -4  12   -1.50   27.20
  -6  -4  12  -20.50   30.50
  -6  -4  12  -18.00   30.50
  -6   4  12    9.60   36.90
  -6   4  12   -5.40   25.90
  -6   4  12   -2.90   32.90
  -6   4  12  -30.70   38.70
  -5  -4  12   17.70   31.10
   5  -4 -12   33.60   29.90
  -5  -4  12   -4.70   24.10
  -5  -4  12   39.80   31.20
  -5   4  12   15.50   34.30
  -5   4  12    9.00   26.50
  -5   4  12   37.80   35.60
  -5   4  12   66.99   38.70
  -4  -4  12  -18.20   21.70
  -4  -4  12   17.40   27.10
   4  -4 -12    0.50   27.00
  -4  -4  12    4.50   30.60
  -4   4  12   43.00   29.30
  -4   4  12  -38.10   31.50
  -4   4  12  -10.20   22.80
  -4   4  12  -21.80   28.70
   3  -4 -12   15.40   23.50
  -3  -4  12   85.59   28.20
  -3  -4  12   10.10   25.80
  -3  -4  12   17.00   23.60
   3  -4 -12   11.80   25.60
   3   4 -12   15.20   25.60
  -3   4  12  -22.00   23.20
  -3   4  12   58.99   25.70
  -3   4  12   14.30   21.00
   3   4 -12   22.00   16.30
  -3   4  12    3.00   26.40
   2  -4 -12  -11.00   20.70
  -2  -4  12   19.50   19.90
   2  -4 -12    3.70   21.30
  -2  -4  12   53.89   22.90
  -2  -4  12   33.90   27.60
  -2   4  12   18.20   27.60
   2   4 -12  -31.80   19.80
  -2   4  12   -9.80   26.40
  -2   4  12  -12.70   17.60
   2   4 -12    0.50   18.40
  -2   4  12  -15.70   20.00
  -1  -4  12   21.30   14.60
  -1  -4  12   34.80   20.20
  -1  -4  12   26.50   26.10
   1  -4 -12   -9.70   22.50
   1  -4 -12   18.60   22.40
   1  -4 -12   13.70   25.60
  -1   4  12    3.50   13.20
  -1   4  12   44.00   21.40
   1   4 -12   22.50   22.40
   1   4 -12   16.80   23.20
   1   4 -12   -9.70   21.30
  -1   4  12   -7.10   26.50
   1   4 -12    1.80   20.70
   0  -4  12   36.10   20.40
   0  -4  12    9.40   24.70
   0  -4 -12   -1.90   21.00
   0  -4 -12   -8.50   17.40
   0  -4 -12    0.10   21.50
   0   4 -12   38.30   22.70
   0   4  12  -21.90   18.80
   0   4  12  -36.20   24.80
   0   4 -12  -21.10   19.40
   0   4 -12   -8.10   22.30
   0   4 -12   -2.10   22.90
  -1  -4 -12   61.29   26.90
  -1  -4 -12   77.89   22.30
   1  -4  12  137.69   32.90
  -1  -4 -12  120.49   25.80
  -1   4 -12  106.59   25.90
  -1   4 -12  123.79   29.70
  -1   4 -12  107.69   29.50
  -1   4 -12   95.09   25.10
   1   4  12  115.09   33.50
  -2  -4 -12   37.90   21.00
  -2  -4 -12   57.19   27.90
  -2   4 -12    1.50   27.90
  -2   4 -12   15.00   21.50
  -2   4 -12   -0.60   25.60
  -3  -4 -12   37.20   29.50
  -3  -4 -12   63.59   21.40
  -3   4 -12   87.19   33.90
  -3   4 -12   18.10   20.50
  -3   4 -12   37.90   31.90
  -4  -4 -12    8.20   18.70
  -4  -4 -12    6.40   31.70
  -4   4 -12   25.90   20.40
  -4   4 -12    0.50   35.00
  -4   4 -12   11.30   37.10
  -5  -4 -12    6.50   37.20
  -5  -4 -12  -10.70   17.10
  -5   4 -12   -0.80   36.30
  -5   4 -12   10.50   19.90
  -5   4 -12   -0.20   36.10
  -7  -5  12   10.60   32.00
  -7  -5  12  -12.60   40.20
  -7  -5  12  -10.60   34.90
  -7   5  12  -32.00   43.00
  -7   5  12    5.40   31.40
  -7   5  12   14.60   44.60
  -7   5  12   28.50   42.00
  -6  -5  12   -3.80   28.80
  -6  -5  12  -26.80   33.20
  -6  -5  12   -5.90   31.20
  -6   5  12  -17.90   33.50
  -6   5  12   11.60   28.20
  -6   5  12   12.70   42.70
  -6   5  12    9.90   38.90
   5  -5 -12   29.80   32.80
  -5  -5  12   -1.20   26.90
  -5  -5  12   14.70   35.90
  -5  -5  12   14.00   32.50
  -5   5  12   34.10   42.20
  -5   5  12   14.40   35.70
  -5   5  12  -29.50   24.20
  -5   5  12  -14.20   33.40
  -4  -5  12   18.30   23.60
  -4  -5  12   -5.00   31.40
   4  -5 -12   31.20   29.90
  -4  -5  12   -4.90   25.60
  -4   5  12   -2.10   31.40
  -4   5  12   -0.20   24.60
  -4   5  12  -13.30   27.70
  -4   5  12   17.20   32.40
  -3  -5  12   83.29   30.50
  -3  -5  12   84.49   29.80
  -3  -5  12  108.59   34.60
   3  -5 -12  135.29   29.30
   3  -5 -12   83.59   30.50
   3   5 -12  122.99   21.10
   3   5 -12   86.99   29.30
  -3   5  12   52.29   26.90
  -3   5  12  122.79   33.90
  -3   5  12   84.79   29.10
  -3   5  12   84.89   33.10
  -2  -5  12   77.49   26.10
  -2  -5  12   19.20   24.20
   2  -5 -12  120.79   29.60
   2  -5 -12   63.59   28.60
  -2  -5  12  115.89   24.70
  -2   5  12  117.99   29.20
  -2   5  12  131.09   35.70
   2   5 -12  100.89   25.50
   2   5 -12   90.29   28.10
  -2   5  12   84.39   36.30
   2   5 -12   87.09   30.80
  -2   5  12  103.49   24.90
   1  -5 -12   91.49   26.90
  -1  -5  12  116.69   27.40
   1  -5 -12   81.59   32.50
   1  -5 -12  124.59   30.10
  -1  -5  12  108.39   32.10
  -1  -5  12   72.39   17.70
  -1   5  12  103.99   24.60
   1   5 -12  117.79   28.80
   1   5 -12  115.99   29.80
  -1   5  12  108.39   37.10
   1   5 -12  106.19   29.70
  -1   5  12  114.09   18.80
   1   5 -12  142.39   28.60
   0  -5  12   49.40   22.20
   0  -5 -12   61.89   28.10
   0  -5 -12  -16.30   20.90
   0  -5  12   81.89   30.90
   0  -5 -12   29.90   24.80
   0   5  12   74.79   23.40
   0   5 -12   74.99   28.30
   0   5  12   79.19   33.80
   0   5 -12   37.60   23.60
   0   5 -12   42.30   29.10
   0   5 -12   51.49   25.00
   1  -5  12   19.20   26.40
  -1  -5 -12   -2.70   23.20
  -1  -5 -12  -15.30   19.90
  -1   5 -12   28.30   21.70
   1   5  12   36.70   30.20
  -1   5 -12   60.39   28.80
  -1   5 -12   -5.20   22.40
  -2  -5 -12  -20.80   18.60
  -2  -5 -12   -8.20   24.70
  -2   5 -12  -32.00   22.40
  -2   5 -12   -7.30   20.50
  -2   5 -12  -48.30   27.90
  -3  -5 -12   -1.40   19.30
  -3  -5 -12   21.80   29.10
  -3   5 -12   26.70   22.50
  -3   5 -12  -17.60   28.70
  -3   5 -12   22.10   34.50
  -4  -5 -12    0.70   19.30
  -4  -5 -12   13.60   31.20
  -4   5 -12   13.20   37.30
  -4   5 -12   -1.10   20.30
  -4   5 -12   -8.20   37.20
  -5  -5 -12   10.60   19.20
  -5  -5 -12   32.00   41.20
  -5   5 -12   33.20   45.90
  -5   5 -12   -8.00   42.20
  -5   5 -12   18.80   20.70
  -6  -6  12   22.30   30.00
  -6  -6  12  -28.20   37.00
  -6  -6  12  -17.80   34.30
  -6   6  12   89.89   45.70
  -6   6  12   27.60   45.10
  -6   6  12   42.30   42.60
  -6   6  12   71.39   36.00
  -5  -6  12  -16.80   25.80
  -5  -6  12  -44.30   26.90
  -5  -6  12  -32.60   28.80
   5  -6 -12   13.40   31.90
  -5   6  12   -3.10   34.40
  -5   6  12   27.80   41.30
  -5   6  12  -84.09   28.70
  -5   6  12   22.90   28.10
   4  -6 -12   12.60   32.50
  -4  -6  12   19.30   29.20
  -4  -6  12   49.50   32.10
  -4  -6  12   48.40   32.60
  -4   6  12   24.10   31.90
  -4   6  12   41.40   34.00
  -4   6  12   66.49   37.70
  -4   6  12  -14.60   24.70
  -3  -6  12   -8.80   23.10
   3  -6 -12  -11.10   29.50
   3  -6 -12   -8.80   24.30
  -3  -6  12   19.00   30.50
  -3  -6  12   26.90   25.40
  -3   6  12   -0.10   31.00
  -3   6  12   28.40   23.20
   3   6 -12    6.30   27.10
  -3   6  12   -4.70   28.40
  -3   6  12  -20.50   24.70
  -2  -6  12   10.10   21.60
  -2  -6  12    6.80   27.90
   2  -6 -12   22.50   25.50
   2  -6 -12    3.90   28.40
  -2  -6  12   21.10   20.70
  -2   6  12  -10.00   32.30
   2   6 -12   13.50   23.00
  -2   6  12   24.00   21.60
   2   6 -12   11.30   29.00
   2   6 -12   60.89   22.90
  -2   6  12   16.00   23.00
  -1  -6  12   17.80   26.20
   1  -6 -12  -10.60   22.60
   1  -6 -12  -17.50   28.40
  -1  -6  12    7.60   15.60
  -1  -6  12    7.30   23.20
  -1   6  12  -27.00   15.40
   1   6 -12   38.60   24.30
   1   6 -12  -24.40   24.90
   1   6 -12   21.70   23.20
  -1   6  12   16.80   31.90
  -1   6  12   30.90   23.90
   0  -6  12  221.98   39.70
   0  -6 -12  141.19   38.20
   0  -6  12  268.07   35.50
   0  -6 -12  242.98   33.50
   0   6 -12  158.98   36.60
   0   6  12  237.08   36.80
   0   6 -12  217.08   34.60
   0   6  12  255.17   48.40
   0   6 -12  198.38   36.30
  -1  -6 -12   24.40   22.20
   1  -6  12   32.60   27.80
  -1  -6 -12   -4.10   26.60
  -1   6 -12    7.30   30.80
  -1   6 -12   22.00   28.90
  -1   6 -12   -5.40   19.60
   1   6  12    1.80   30.60
  -2  -6 -12  144.09   28.10
  -2  -6 -12  146.89   37.00
  -2   6 -12  165.98   31.10
  -2   6 -12  176.68   40.70
  -2   6 -12  159.08   38.50
  -3  -6 -12  -28.60   19.10
  -3  -6 -12  -27.20   30.60
  -3   6 -12   -4.30   35.00
  -3   6 -12   11.40   23.20
  -3   6 -12   53.19   37.00
  -4  -6 -12   44.00   22.20
  -4  -6 -12   32.60   36.10
  -4   6 -12   -9.00   41.40
  -4   6 -12   77.19   38.40
  -4   6 -12   23.20   24.10
  -5  -6 -12  -18.00   36.20
  -5  -6 -12   22.70   21.00
  -5   6 -12   -5.00   22.10
  -5   6 -12  -45.90   43.80
  -5   6 -12    3.60   36.80
  -6  -7  12   44.70   42.90
  -6  -7  12   14.20   41.40
  -6  -7  12   -4.60   31.30
  -6   7  12  -36.30   28.80
  -6   7  12   13.00   45.30
  -6   7  12   10.60   40.80
  -5  -7  12   -1.10   36.50
  -5  -7  12  -19.30   30.20
   5  -7 -12   40.90   36.90
  -5  -7  12   63.99   37.90
  -5   7  12   31.10   42.70
  -5   7  12   11.90   37.70
  -5   7  12   26.40   30.60
  -5   7  12   24.00   36.90
  -4  -7  12   52.89   31.90
   4  -7 -12   57.29   38.70
  -4  -7  12  -12.80   28.90
  -4  -7  12   13.30   28.90
  -4   7  12   -7.80   30.90
  -4   7  12   -9.10   36.50
  -4   7  12   55.99   30.60
  -4   7  12   28.20   35.00
   3  -7 -12   97.29   37.80
   3  -7 -12   73.79   34.40
  -3  -7  12   73.99   30.50
  -3  -7  12   87.09   30.90
  -3  -7  12   64.69   36.50
  -3   7  12   59.39   28.70
  -3   7  12   53.79   35.70
  -3   7  12   17.00   25.80
  -2  -7  12   75.19   25.30
  -2  -7  12   79.29   33.00
   2  -7 -12   26.30   25.70
   2  -7 -12   63.99   31.30
  -2  -7  12   34.20   26.20
  -2   7  12    8.60   23.10
   2   7 -12   31.00   30.40
  -2   7  12   45.10   29.00
   2   7 -12   -2.00   25.50
   2   7 -12   22.40   23.10
  -2   7  12    0.30   37.10
   1  -7 -12   94.29   29.70
  -1  -7  12   58.99   26.70
  -1  -7  12   92.39   21.30
  -1  -7  12   85.19   33.40
   1  -7 -12  100.09   37.80
  -1   7  12   98.09   41.30
  -1   7  12   83.19   28.50
   1   7 -12   95.69   34.80
   1   7 -12   84.29   28.40
   1   7 -12   91.09   29.70
  -1   7  12   65.59   23.40
   0  -7  12    3.70   27.20
   0  -7 -12   18.00   29.30
   0  -7 -12   14.20   23.60
   0   7  12   -7.40   33.70
   0   7 -12  -26.70   23.40
   0   7 -12   -2.10   28.10
   0   7 -12    5.40   25.20
  -1  -7 -12   15.10   24.70
   1  -7  12   -6.70   26.90
  -1  -7 -12   27.20   32.90
   1   7  12    7.00   35.00
  -1   7 -12  -14.70   32.40
  -1   7 -12    0.30   23.20
  -2  -7 -12    8.80   32.80
  -2  -7 -12   -4.00   21.80
  -2   7 -12  -54.59   33.90
  -2   7 -12  -24.00   22.50
  -3  -7 -12   15.20   36.10
  -3  -7 -12    9.40   23.40
  -3   7 -12   25.80   26.00
  -3   7 -12  -32.10   38.00
  -3   7 -12   23.60   34.20
  -4  -7 -12   25.40   22.20
  -4  -7 -12    5.70   37.20
  -4   7 -12    9.50   23.70
  -4   7 -12  -39.30   39.20
  -4   7 -12   -7.80   38.40
  -6  -8  12    2.70   39.30
  -6  -8  12   47.80   34.60
  -6  -8  12   26.10   39.00
  -6   8  12  -19.10   34.50
  -6   8  12   55.19   51.59
  -6   8  12   14.70   46.10
  -5  -8  12  -47.00   31.50
   5  -8 -12   36.00   38.20
  -5  -8  12   -3.50   29.20
  -5  -8  12   35.90   41.60
  -5   8  12  -34.40   28.70
  -5   8  12   17.10   38.90
  -5   8  12  -17.50   38.70
  -5   8  12   20.60   39.00
  -4  -8  12   47.60   32.60
   4  -8 -12   75.49   36.50
  -4  -8  12   33.70   37.60
  -4  -8  12   26.90   30.80
  -4   8  12  -16.10   30.10
  -4   8  12   29.20   33.10
  -4   8  12   -2.00   43.00
  -3  -8  12   -9.10   26.90
  -3  -8  12  -38.40   30.40
   3  -8 -12  -39.60   26.70
  -3  -8  12    5.40   28.50
   3   8 -12   27.80   31.50
  -3   8  12  -36.00   38.20
  -3   8  12  -18.80   26.80
  -3   8  12   10.40   29.20
  -2  -8  12   10.30   29.70
  -2  -8  12   -0.80   21.70
   2  -8 -12   -3.90   28.10
   2  -8 -12   10.00   25.40
  -2  -8  12   -0.10   28.50
  -2   8  12   -4.10   24.90
  -2   8  12    5.30   25.70
   2   8 -12  -39.50   28.80
   2   8 -12   31.60   28.60
   2   8 -12   29.00   23.00
  -2   8  12  -21.20   37.70
   1  -8 -12   26.50   29.40
   1  -8 -12   33.10   33.60
  -1  -8  12   25.00   28.90
   1   8 -12    1.10   26.20
   1   8 -12    1.10   24.70
  -1   8  12   13.90   35.30
   1   8 -12    5.10   30.90
   0  -8 -12   14.40   26.70
   0  -8  12   28.80   30.30
   0  -8 -12    6.10   29.90
   0   8  12   22.80   38.90
   0   8 -12   34.90   35.00
   0   8 -12   27.10   27.40
  -1  -8 -12   47.80   28.10
  -1  -8 -12   76.79   34.10
   1  -8  12   19.60   29.40
  -1   8 -12    4.30   34.60
   1   8  12  -19.80   31.80
  -1   8 -12    3.90   25.20
  -2  -8 -12   75.19   36.10
  -2  -8 -12   50.09   27.30
  -2   8 -12   65.89   28.80
  -2   8 -12   30.20   42.40
  -3  -8 -12   41.30   26.40
  -3  -8 -12   55.89   37.60
  -3   8 -12   13.60   46.00
  -3   8 -12   50.29   28.70
  -4  -8 -12   -3.30   22.20
  -4  -8 -12   25.80   41.50
  -4   8 -12   12.10   25.30
  -4   8 -12   20.20   43.60
  -5  -9  12  -44.10   36.50
  -5  -9  12   36.00   38.20
   5  -9 -12    2.30   40.40
  -5  -9  12    6.70   33.30
  -5   9  12  -25.90   33.40
  -5   9  12   -7.70   45.80
  -5   9  12   49.80   42.00
  -4  -9  12  110.89   39.50
  -4  -9  12  123.09   44.80
   4  -9 -12  168.98   43.60
  -4  -9  12   80.29   38.10
  -4   9  12   47.40   35.00
  -4   9  12   85.69   41.80
  -4   9  12   36.20   41.20
   3  -9 -12   50.89   38.90
  -3  -9  12   39.10   35.10
  -3  -9  12   17.50   29.40
  -3  -9  12   26.60   34.60
  -3   9  12   52.79   33.90
   3   9 -12   22.20   37.50
  -3   9  12   -7.70   29.20
  -3   9  12  -16.30   45.00
   2  -9 -12  237.58   45.00
   2  -9 -12  260.57   47.10
  -2  -9  12  191.88   45.00
  -2  -9  12  193.28   39.10
   2   9 -12  292.27   41.10
   2   9 -12  206.98   39.00
   2   9 -12  245.68   51.79
  -2   9  12  252.07   56.29
  -2   9  12  282.57   49.10
   1  -9 -12   39.40   30.10
  -1  -9  12   85.59   35.00
   1  -9 -12   79.09   34.90
   1   9 -12   30.90   36.90
   1   9 -12   21.50   30.80
  -1   9  12  -14.20   39.30
   0  -9 -12  155.38   34.70
   0  -9 -12  218.48   45.00
   0  -9  12  208.38   40.40
   0   9 -12  213.38   49.60
   0   9  12  196.38   52.19
   0   9 -12  164.68   38.90
  -1  -9 -12   23.30   36.10
  -1  -9 -12   24.60   25.80
   1   9  12  -12.80   40.20
  -1   9 -12   46.10   31.30
  -1   9 -12   25.00   37.60
  -2  -9 -12    4.10   37.10
  -2  -9 -12   23.20   28.30
  -2   9 -12   52.19   30.70
  -2   9 -12   20.10   45.30
  -3  -9 -12  -21.60   36.60
  -3  -9 -12  -27.60   25.00
  -3   9 -12  -19.80   27.40
  -3   9 -12  -59.39   42.80
  -4  -9 -12   15.50   46.20
  -4  -9 -12  -15.70   24.10
  -4   9 -12  -13.90   53.89
  -4   9 -12   18.40   30.30
  -5 -10  12   22.50   42.80
  -5 -10  12   28.50   40.70
   5 -10 -12   20.30   38.90
  -5 -10  12    1.20   35.40
  -5  10  12  -34.00   48.40
  -5  10  12   72.89   46.90
  -5  10  12    5.20   38.30
  -4 -10  12   10.70   35.50
  -4 -10  12   47.20   42.90
  -4 -10  12   29.40   38.90
   4 -10 -12   28.30   38.60
  -4  10  12  -62.49   45.90
  -4  10  12   29.90   40.70
  -4  10  12  -24.40   29.10
  -3 -10  12   27.90   39.50
   3 -10 -12   41.80   38.90
  -3 -10  12   18.40   31.80
  -3  10  12   40.90   35.70
   3  10 -12   -6.00   37.60
  -3  10  12   19.40   42.50
   2 -10 -12  -41.50   28.10
  -2 -10  12  -13.90   32.90
   2  10 -12    4.10   33.70
  -2  10  12  -37.80   42.90
   1 -10 -12   26.00   32.70
  -1 -10  12   46.90   35.30
   1 -10 -12   -2.70   31.20
   1  10 -12  -16.20   30.30
  -1  10  12   30.60   42.20
   1  10 -12   46.80   40.50
   0 -10 -12   16.30   33.80
   0 -10 -12   47.70   33.40
   0  10 -12   33.60   35.20
   0  10  12    6.60   37.20
   0  10 -12   11.60   29.80
  -1 -10 -12  128.49   47.10
  -1 -10 -12   21.30   29.80
  -1  10 -12  111.59   42.70
  -1  10 -12   53.99   32.50
  -2 -10 -12    3.70   39.20
  -2 -10 -12   37.50   28.40
  -2  10 -12   11.90   42.70
  -2  10 -12   52.39   33.10
  -3 -10 -12  -14.30   37.80
  -3 -10 -12  -22.30   26.80
  -3  10 -12   88.89   55.19
  -3  10 -12   17.90   32.00
   4 -11 -12   45.50   46.40
  -4 -11  12  -28.60   42.00
  -4 -11  12  -44.10   35.70
  -4  11  12  -47.50   47.10
  -4  11  12   56.19   37.30
  -3 -11  12   76.69   45.90
   3 -11 -12   31.40   37.70
   3  11 -12   42.90   39.50
  -3  11  12   31.00   45.80
  -2 -11  12   75.99   39.70
   2 -11 -12  -23.70   30.60
   2  11 -12   -5.30   41.50
  -2  11  12  -31.90   39.20
   1 -11 -12    8.40   35.20
   1 -11 -12   50.69   40.80
   1  11 -12   78.49   45.90
  -1  11  12   24.90   43.10
   1  11 -12   78.29   39.80
   0 -11 -12   19.80   33.00
   0 -11 -12  -39.30   37.40
   0  11 -12   -5.90   34.20
   0  11  12   10.60   42.20
   0  11 -12    8.40   41.10
  -1 -11 -12  -26.90   39.70
  -1 -11 -12  -18.20   28.70
  -1  11 -12  -10.30   37.90
  -1  11 -12  -30.60   32.00
  -2 -11 -12   -6.70   31.30
  -2 -11 -12  -45.10   35.90
  -2  11 -12    5.60   33.90
  -2  11 -12  -24.90   42.80
  -3 -12  12   17.10   46.10
   3 -12 -12  -50.39   39.00
  -3  12  12  -36.00   44.80
   3  12 -12   33.10   43.50
   2 -12 -12   22.40   42.10
  -2  12  12   36.00   50.19
   2  12 -12   40.70   46.10
   1 -12 -12  -64.59   35.00
  -1  12  12  -47.20   44.70
   1  12 -12   51.69   46.80
   0 -12 -12    7.40   36.00
   0 -12 -12  -30.60   30.80
   0  12 -12   73.79   43.50
   0  12 -12   35.30   39.80
   0  12  12   60.69   53.39
  -1 -12 -12  -61.59   34.10
  -1 -12 -12  -47.60   33.40
  -1  12 -12  -15.90   33.50
  -1  12 -12   18.50   41.20
  -7   0  13  -43.50   40.80
  -7   0  13   -4.50   30.10
  -7   0  13   -6.30   45.30
  -6   0  13   43.60   39.60
  -6   0  13   -2.40   26.60
  -6   0  13  -22.90   31.40
  -5   0  13  -12.60   32.50
  -5   0  13   -2.80   23.90
  -5   0  13   -8.70   32.80
  -4   0  13  -15.90   27.80
  -4   0  13   11.10   24.10
   4   0 -13  -25.80   20.40
  -4   0  13   -7.80   26.30
   3   0 -13   31.20   22.70
  -3   0  13   29.50   24.20
  -3   0  13   18.90   28.90
  -3   0  13   12.00   28.00
   3   0 -13   49.60   23.30
  -2   0  13   -4.00   24.00
   2   0 -13   41.70   22.40
   2   0 -13  -17.70   20.20
  -2   0  13   -5.30   23.70
  -2   0  13  -13.40   20.20
  -1   0  13  381.16   39.20
  -1   0  13  370.96   38.50
  -1   0  13  238.58   37.70
   1   0 -13  280.47   35.20
  -1   0  13  362.46   35.10
   1   0 -13  346.07   41.00
   1   0 -13  408.26   41.10
   0   0 -13   -1.50   18.50
   0   0  13   10.00   25.50
   0   0  13   22.30   18.80
   0   0 -13  -21.40   16.60
   0   0 -13    2.90   19.70
   0   0  13   15.20   19.60
   0   0 -13   17.50   20.70
   0   0  13  -20.40   15.70
  -1   0 -13  277.97   33.10
  -1   0 -13  250.67   37.90
  -1   0 -13  274.37   29.70
  -1   0 -13  295.77   26.30
  -1   0 -13  347.27   35.60
   1   0  13  313.07   34.10
  -2   0 -13    2.30   15.00
  -2   0 -13    0.80   18.60
  -2   0 -13   11.20   24.00
  -3   0 -13  129.69   23.90
  -3   0 -13  140.49   37.00
  -4   0 -13   -5.40   34.10
  -4   0 -13    5.80   18.30
  -5   0 -13   29.80   17.80
  -5   0 -13   41.30   37.70
  -7  -1  13  -10.20   40.20
  -7  -1  13  -53.39   27.20
  -7  -1  13   42.20   44.00
  -7   1  13  -42.30   39.20
  -7   1  13  -12.90   36.20
  -6  -1  13   52.39   40.60
  -6  -1  13   14.90   37.00
  -6  -1  13  -20.60   25.70
  -6   1  13   32.40   39.30
  -6   1  13   13.10   28.70
  -6   1  13    3.20   36.60
  -5  -1  13   21.50   33.40
  -5  -1  13   45.80   33.50
  -5  -1  13   11.80   24.00
  -5   1  13    4.60   33.10
  -5   1  13   14.70   31.10
  -5   1  13  -19.90   23.80
  -4  -1  13   93.49   30.50
  -4  -1  13   76.39   31.80
  -4  -1  13   51.39   30.20
   4  -1 -13  104.49   28.60
  -4   1  13   67.39   34.70
  -4   1  13   40.90   33.10
   4   1 -13   68.49   23.20
  -4   1  13   81.29   29.60
  -3  -1  13   46.40   23.10
   3  -1 -13   73.19   25.60
  -3  -1  13   32.90   25.60
  -3  -1  13   32.20   29.40
   3  -1 -13   44.20   24.80
  -3   1  13   16.10   24.30
   3   1 -13   91.89   27.90
  -3   1  13   64.59   31.80
   3   1 -13   29.40   21.90
  -3   1  13   72.69   33.80
  -2  -1  13  146.09   35.80
  -2  -1  13  158.18   30.80
   2  -1 -13  166.38   32.50
  -2  -1  13  154.18   31.40
   2  -1 -13  164.78   29.10
  -2   1  13  205.48   34.50
   2   1 -13  166.48   29.10
   2   1 -13  151.48   28.10
  -2   1  13  199.58   38.80
  -2   1  13  193.78   32.60
   1  -1 -13   21.10   23.80
  -1  -1  13   23.50   27.10
  -1  -1  13   17.80   21.30
  -1  -1  13   21.00   19.70
   1  -1 -13   44.90   23.00
   1  -1 -13   14.70   20.00
  -1   1  13  -35.20   16.40
   1   1 -13   44.80   23.50
   1   1 -13   10.40   21.30
  -1   1  13   32.30   23.80
  -1   1  13   -4.00   16.10
   1   1 -13   24.90   22.80
  -1   1  13   12.60   26.50
   1   1 -13    0.30   19.20
   0  -1  13   24.20   20.90
   0  -1 -13   18.60   24.90
   0  -1  13   60.09   22.50
   0  -1  13    8.10   16.60
   0  -1 -13   28.80   21.30
   0  -1 -13   80.69   25.30
   0  -1  13   15.70   25.60
   0   1 -13   41.00   19.30
   0   1 -13   50.69   23.80
   0   1 -13   43.10   25.60
   0   1  13   26.10   14.40
   0   1  13   37.30   24.00
   0   1 -13   57.49   23.90
   0   1 -13   14.90   16.40
   0   1  13   46.50   20.40
  -1  -1 -13    1.90   21.20
  -1  -1 -13   -0.50   21.40
  -1  -1 -13   -5.70   18.30
  -1  -1 -13    7.50   22.00
   1  -1  13   -3.70   17.10
  -1   1 -13   -9.00   20.70
  -1   1 -13   25.70   23.20
  -1   1 -13   10.30   13.90
  -1   1 -13   18.10   17.60
  -1   1 -13    3.00   19.40
  -2  -1 -13   17.80   27.90
  -2  -1 -13   -4.20   18.50
  -2   1 -13   21.00   26.20
  -2   1 -13   29.60   20.20
  -2   1 -13   30.00   20.40
  -3  -1 -13  -36.90   26.70
  -3  -1 -13   -7.50   17.30
  -3   1 -13    3.20   27.00
  -3   1 -13   20.20   26.00
  -3   1 -13    0.20   17.90
  -4  -1 -13   31.30   34.20
  -4  -1 -13   44.40   19.20
  -4   1 -13   50.19   19.70
  -4   1 -13  -25.50   32.60
  -5  -1 -13    6.10   16.20
  -5  -1 -13    1.70   35.50
  -5   1 -13   27.20   17.90
  -5   1 -13    1.00   39.20
  -7  -2  13   -9.10   29.60
  -7  -2  13    4.80   42.70
  -7  -2  13  -25.70   35.40
  -7   2  13   -2.30   43.90
  -7   2  13  -34.90   40.70
  -7   2  13  -27.50   28.30
  -7   2  13   17.30   39.90
  -6  -2  13  -24.70   25.90
  -6  -2  13  -25.00   34.40
  -6  -2  13  -20.00   34.40
  -6   2  13   61.19   41.60
  -6   2  13   39.90   40.80
   5  -2 -13   21.30   26.40
  -5  -2  13   42.10   35.10
  -5  -2  13    4.10   30.40
  -5  -2  13  -19.60   23.20
  -5   2  13   -5.40   25.80
  -5   2  13  -16.00   34.00
  -5   2  13    8.20   32.30
  -4  -2  13   13.80   27.80
  -4  -2  13  -32.40   24.80
  -4  -2  13   -2.80   24.40
   4  -2 -13  -13.50   22.60
   4   2 -13  -15.30   19.60
  -4   2  13   12.90   31.20
  -4   2  13    5.00   22.30
  -4   2  13  -21.50   25.70
  -3  -2  13   10.30   24.80
  -3  -2  13   15.90   28.20
   3  -2 -13   47.50   25.50
   3  -2 -13   12.00   25.30
  -3  -2  13   20.00   25.10
  -3   2  13   12.80   29.30
   3   2 -13   -7.00   20.30
  -3   2  13   11.10   22.80
  -3   2  13   15.40   25.40
   3   2 -13   17.50   22.00
   2  -2 -13   87.79   28.30
  -2  -2  13   84.19   26.30
   2  -2 -13   74.79   24.70
  -2  -2  13   61.39   32.20
  -2  -2  13  101.19   25.90
  -2   2  13   56.99   31.30
  -2   2  13   70.29   28.00
   2   2 -13   67.19   24.10
   2   2 -13   88.69   27.20
  -2   2  13   83.39   25.60
  -1  -2  13   79.29   24.80
   1  -2 -13   58.89   27.60
  -1  -2  13   76.19   30.20
   1  -2 -13   32.20   24.60
   1  -2 -13   72.29   25.00
  -1  -2  13   26.80   17.60
   1   2 -13   53.39   25.90
  -1   2  13   65.19   27.30
  -1   2  13   89.29   24.70
  -1   2  13   76.19   17.20
  -1   2  13   31.90   27.00
   1   2 -13   57.19   23.30
   1   2 -13   78.39   25.50
   0  -2 -13  216.48   31.00
   0  -2  13  267.67   43.40
   0  -2  13  254.77   21.20
   0  -2  13  248.38   30.40
   0  -2 -13  299.67   34.90
   0  -2 -13  243.98   38.00
   0   2  13  210.88   15.10
   0   2 -13  246.88   33.10
   0   2 -13  242.48   32.00
   0   2 -13  222.58   31.40
   0   2 -13  204.88   35.40
   0   2  13  264.67   37.50
  -1  -2 -13  136.39   32.60
  -1  -2 -13   57.49   22.00
  -1  -2 -13   65.99   22.90
  -1   2 -13   81.59   23.20
  -1   2 -13  103.79   26.20
  -1   2 -13  118.79   25.30
  -1   2 -13  137.09   31.10
  -2  -2 -13  130.09   35.50
  -2  -2 -13  111.19   24.60
  -2   2 -13  159.08   29.70
  -2   2 -13  132.79   36.10
  -2   2 -13  150.88   27.00
  -3  -2 -13   43.80   28.60
  -3  -2 -13   20.80   19.70
  -3   2 -13   10.60   19.70
  -3   2 -13   50.39   27.50
  -3   2 -13    5.50   28.60
  -4  -2 -13  -11.10   27.80
  -4  -2 -13   39.00   19.60
  -4   2 -13   41.30   33.60
  -4   2 -13   19.00   19.80
  -5  -2 -13    4.70   36.20
  -5  -2 -13    3.00   16.90
  -5   2 -13   28.80   18.70
  -5   2 -13  -14.70   40.00
  -7  -3  13  -33.30   36.30
  -7  -3  13   14.40   31.30
  -7  -3  13    5.50   41.70
  -7   3  13  -28.50   43.80
  -7   3  13   -9.70   37.20
  -7   3  13   -7.20   40.90
  -7   3  13   29.30   33.40
  -6  -3  13    4.00   36.70
  -6  -3  13   35.30   38.70
  -6  -3  13  -29.80   25.10
  -6   3  13    2.90   27.60
  -6   3  13   46.90   43.30
  -6   3  13   36.10   42.10
  -6   3  13   47.50   38.80
  -5  -3  13  116.49   34.10
  -5  -3  13   30.10   32.60
  -5  -3  13  108.89   38.90
   5  -3 -13   96.29   33.60
  -5   3  13  104.69   39.10
  -5   3  13   84.29   30.60
  -5   3  13  110.29   41.60
  -4  -3  13   -1.60   25.20
  -4  -3  13   21.70   32.70
   4  -3 -13   14.90   26.70
  -4  -3  13    1.00   27.30
  -4   3  13  -24.80   28.20
  -4   3  13  -48.80   28.70
   3  -3 -13  251.67   36.50
  -3  -3  13  268.47   37.10
   3  -3 -13  219.28   37.50
  -3  -3  13  209.48   35.80
  -3  -3  13  124.49   34.60
  -3   3  13  190.38   41.00
   3   3 -13  240.38   36.00
   3   3 -13  240.58   29.70
  -3   3  13  200.28   40.90
   2  -3 -13   -0.60   26.00
  -2  -3  13    8.10   18.30
  -2  -3  13   11.60   23.20
  -2  -3  13   16.30   24.70
   2  -3 -13   -7.00   20.00
   2   3 -13  -26.10   21.60
   2   3 -13    1.10   20.50
  -2   3  13    0.00   27.20
  -2   3  13  -16.20   25.20
  -1  -3  13   72.19   29.20
  -1  -3  13  147.29   29.20
  -1  -3  13  106.99   21.50
   1  -3 -13  125.59   28.30
   1  -3 -13  102.49   31.50
   1  -3 -13  144.09   27.80
   1   3 -13  189.08   33.20
   1   3 -13  165.08   32.10
  -1   3  13  139.39   20.10
  -1   3  13  105.29   31.10
  -1   3  13  115.49   27.00
   1   3 -13  121.69   29.60
   1   3 -13  146.59   29.50
  -1   3  13  132.29   35.00
  -1   3  13  155.88   20.10
   0  -3  13  -14.50   25.80
   0  -3  13  -17.90   17.60
   0  -3 -13   22.50   20.30
   0  -3 -13   -5.30   21.10
   0  -3 -13    1.40   21.60
   0   3 -13   -6.80   20.80
   0   3 -13  -22.70   21.70
   0   3  13    6.00   18.40
   0   3  13   -8.80   25.30
   0   3 -13    3.60   20.60
   0   3 -13   25.20   22.50
  -1  -3 -13  -10.00   19.50
  -1  -3 -13  -23.80   21.00
  -1   3 -13   21.50   22.80
  -1   3 -13  -13.70   24.60
  -1   3 -13  -34.90   17.60
  -2  -3 -13   18.50   27.90
  -2  -3 -13   -2.70   18.30
  -2   3 -13   27.40   29.40
  -2   3 -13   -0.20   18.90
  -2   3 -13    7.30   25.50
  -3  -3 -13   13.20   18.40
  -3  -3 -13  -19.20   25.60
  -3   3 -13   43.00   22.20
  -3   3 -13   40.80   30.60
  -3   3 -13   18.20   29.00
  -4  -3 -13  -36.40   16.00
  -4  -3 -13    7.10   33.90
  -4   3 -13  -13.90   34.00
  -4   3 -13   24.70   21.00
  -5  -3 -13   16.70   18.80
  -5  -3 -13   -7.70   38.70
  -5   3 -13  -17.00   18.60
  -5   3 -13   56.19   47.40
  -7  -4  13  -47.00   28.20
  -7  -4  13  -14.20   36.90
  -7  -4  13   38.70   41.00
  -7   4  13   31.40   46.10
  -7   4  13   12.90   47.30
  -7   4  13   14.20   30.70
  -7   4  13   48.30   52.09
  -6  -4  13   -9.50   31.90
  -6  -4  13   45.40   30.10
  -6  -4  13   12.10   36.40
  -6   4  13   43.40   39.40
  -6   4  13  -11.60   39.10
  -6   4  13   53.99   41.90
  -6   4  13  -32.50   26.90
  -5  -4  13  -11.60   31.90
  -5  -4  13  -10.70   33.00
   5  -4 -13    0.70   31.60
  -5  -4  13   33.00   29.40
  -5   4  13  -28.80   24.30
  -5   4  13   28.70   36.70
  -5   4  13  -15.00   31.60
  -5   4  13    5.00   36.10
  -4  -4  13   30.10   26.20
  -4  -4  13    1.30   32.50
  -4  -4  13   23.20   28.40
   4  -4 -13   30.20   30.10
  -4   4  13  -12.00   33.00
  -4   4  13   15.40   25.40
  -4   4  13   31.20   34.70
  -4   4  13   50.59   30.10
  -3  -4  13  -23.30   22.80
  -3  -4  13    5.70   24.90
  -3  -4  13  -10.40   28.10
   3  -4 -13   26.10   25.90
   3  -4 -13  -20.90   22.10
  -3   4  13   21.10   28.60
   3   4 -13   -7.90   24.90
  -3   4  13   19.00   30.00
  -3   4  13  -18.30   22.80
   3   4 -13   21.80   19.40
  -3   4  13   48.70   26.70
  -2  -4  13  101.19   26.20
  -2  -4  13  173.38   38.80
   2  -4 -13  103.89   28.80
   2  -4 -13  143.99   34.90
  -2  -4  13   96.49   25.00
  -2   4  13  139.99   26.40
  -2   4  13  108.69   33.20
  -2   4  13   89.69   27.60
   2   4 -13  134.09   31.60
   2   4 -13  167.58   28.00
  -2   4  13   96.09   34.10
  -1  -4  13   21.10   21.60
   1  -4 -13  -10.60   22.50
  -1  -4  13   -0.30   26.30
  -1  -4  13   14.30   16.00
   1  -4 -13  -25.80   19.30
   1  -4 -13   -8.70   22.40
  -1   4  13   17.20   22.10
   1   4 -13   -6.60   22.90
  -1   4  13    5.00   13.30
   1   4 -13  -20.20   24.90
  -1   4  13  -36.40   27.40
   1   4 -13  -29.70   20.70
   1   4 -13  -20.60   21.10
   0  -4  13  282.57   33.80
   0  -4  13  233.48   40.80
   0  -4 -13  191.58   31.50
   0  -4 -13  217.68   38.00
   0   4 -13  239.38   38.50
   0   4  13  216.88   32.30
   0   4 -13  205.78   32.80
   0   4 -13  283.67   38.90
   0   4  13  208.98   41.50
  -1  -4 -13  -23.80   22.10
  -1  -4 -13  -10.70   19.00
   1  -4  13   -3.90   28.20
   1   4  13    5.50   28.40
  -1   4 -13   20.30   26.50
  -1   4 -13   55.89   27.70
  -1   4 -13  -28.80   19.70
  -2  -4 -13   40.00   28.70
  -2  -4 -13   68.89   23.20
  -2   4 -13   52.59   24.60
  -2   4 -13   61.19   31.90
  -2   4 -13   43.90   32.40
  -3  -4 -13   34.60   33.20
  -3  -4 -13  -20.40   18.40
  -3   4 -13   12.70   35.70
  -3   4 -13    0.90   20.30
  -3   4 -13   10.80   31.90
  -4  -4 -13    9.30   18.90
  -4  -4 -13  -31.30   28.20
  -4   4 -13  -27.60   35.00
  -4   4 -13   15.50   36.20
  -4   4 -13   -6.40   19.90
  -5  -4 -13   27.00   42.10
  -5  -4 -13  -15.50   18.10
  -5   4 -13    3.80   21.20
  -5   4 -13   16.20   46.20
  -6  -5  13   41.20   39.20
  -6  -5  13  -14.20   30.80
  -6  -5  13    4.90   38.70
  -6   5  13  -54.19   36.70
  -6   5  13   26.20   39.90
  -6   5  13    2.80   27.60
  -6   5  13   -1.30   39.50
  -5  -5  13   27.00   39.00
  -5  -5  13   44.80   29.90
   5  -5 -13   15.40   32.10
  -5  -5  13    1.90   30.60
  -5   5  13   61.69   39.70
  -5   5  13   54.29   29.00
  -5   5  13  -15.50   35.90
  -5   5  13   57.89   38.70
  -4  -5  13   31.00   29.50
  -4  -5  13   49.80   32.40
   4  -5 -13   18.80   31.80
  -4  -5  13   43.50   31.10
  -4   5  13   26.70   37.50
  -4   5  13   22.00   31.80
  -4   5  13   37.50   30.80
  -4   5  13    8.20   24.20
  -3  -5  13   42.70   26.00
   3  -5 -13   35.00   26.70
  -3  -5  13    7.70   23.40
  -3  -5  13   34.60   32.70
   3  -5 -13   -1.10   25.70
   3   5 -13   38.60   20.60
   3   5 -13   42.70   29.30
  -3   5  13    1.10   29.90
  -3   5  13   46.30   24.40
  -3   5  13   45.50   27.90
  -3   5  13   19.50   32.00
   2  -5 -13   68.09   27.70
  -2  -5  13   88.39   29.30
  -2  -5  13   89.29   34.60
   2  -5 -13   82.39   35.30
  -2  -5  13   79.49   24.80
  -2   5  13   76.29   38.50
   2   5 -13   56.29   32.70
  -2   5  13   49.30   32.20
  -2   5  13   55.69   25.40
  -2   5  13  111.79   25.20
   2   5 -13   30.10   27.00
   2   5 -13  103.49   26.80
   1  -5 -13   -6.60   21.30
   1  -5 -13  -33.90   25.00
  -1  -5  13    0.60   23.70
  -1  -5  13   -9.30   27.10
  -1  -5  13  -16.80   13.40
  -1   5  13   -4.20   29.50
   1   5 -13   24.90   22.70
   1   5 -13   13.90   28.20
  -1   5  13   21.40   23.30
  -1   5  13  -12.10   13.70
   1   5 -13   -0.30   22.80
   0  -5 -13    2.20   22.20
   0  -5  13  -12.30   27.60
   0  -5 -13  -14.20   27.00
   0   5 -13    4.00   23.50
   0   5 -13   18.10   23.30
   0   5  13   10.20   32.60
   0   5 -13  -15.00   26.70
  -1  -5 -13    8.90   24.00
   1  -5  13   27.00   30.00
  -1  -5 -13   -5.80   21.60
  -1   5 -13  -13.10   26.80
   1   5  13   26.80   31.30
  -1   5 -13  -32.70   21.70
  -1   5 -13   19.40   30.20
  -2  -5 -13  127.39   27.20
  -2  -5 -13   70.09   31.90
  -2   5 -13   66.59   32.30
  -2   5 -13  104.29   35.50
  -2   5 -13  183.28   32.40
  -3  -5 -13   18.50   30.40
  -3  -5 -13   40.00   22.00
  -3   5 -13   -3.50   34.90
  -3   5 -13   13.40   22.70
  -3   5 -13  -34.00   33.60
  -4  -5 -13   50.49   22.70
  -4  -5 -13    4.80   36.70
  -4   5 -13   43.20   41.90
  -4   5 -13   38.50   39.10
  -4   5 -13   47.00   24.60
  -5  -5 -13  -13.70   19.30
  -5  -5 -13  -76.79   33.20
  -5   5 -13  -20.00   21.70
  -5   5 -13  -42.80   40.10
  -6  -6  13  -31.70   36.60
   6  -6 -13   36.50   39.10
  -6  -6  13  -29.90   27.80
  -6  -6  13   11.90   39.40
  -6   6  13    1.50   43.70
  -6   6  13    8.30   45.80
  -6   6  13   -7.20   32.30
  -6   6  13  -17.40   40.80
   5  -6 -13   62.69   37.10
  -5  -6  13  -14.90   27.20
  -5  -6  13  -11.40   35.90
  -5  -6  13   27.20   35.90
  -5   6  13   15.10   38.00
  -5   6  13   13.80   37.30
  -5   6  13  -44.20   24.50
  -5   6  13    4.50   38.10
  -4  -6  13   -9.10   33.50
   4  -6 -13    5.80   32.20
  -4  -6  13  -20.30   25.20
  -4  -6  13    1.60   29.20
  -4   6  13  -23.50   30.80
  -4   6  13  -34.50   30.40
  -4   6  13  -17.50   24.30
  -4   6  13  -21.90   37.90
  -3  -6  13   -7.50   26.30
   3  -6 -13   16.00   28.20
  -3  -6  13   30.30   32.30
   3  -6 -13    5.50   30.00
  -3  -6  13   -1.70   24.40
  -3   6  13   -8.10   30.90
  -3   6  13    7.50   25.20
  -3   6  13   60.89   30.40
  -3   6  13   -9.60   35.60
   3   6 -13   40.90   28.00
   2  -6 -13   24.70   27.70
  -2  -6  13  -28.40   17.50
  -2  -6  13   14.00   29.80
  -2  -6  13    0.30   24.30
   2  -6 -13  -40.10   22.60
  -2   6  13    1.70   24.40
   2   6 -13   39.00   29.00
   2   6 -13  -15.60   28.90
  -2   6  13  -18.20   33.60
   2   6 -13   10.70   21.70
  -2   6  13   -9.70   19.60
   1  -6 -13  169.08   40.60
   1  -6 -13  158.78   34.00
  -1  -6  13  175.88   34.60
  -1  -6  13  182.78   40.60
   1   6 -13  166.68   35.60
   1   6 -13  218.68   44.00
  -1   6  13  120.69   43.40
   1   6 -13  110.99   30.50
  -1   6  13  120.59   30.80
   0  -6  13  -19.30   27.30
   0  -6 -13   11.90   20.50
   0  -6 -13  -19.00   24.90
   0   6 -13   15.60   22.20
   0   6  13   18.80   34.60
   0   6 -13    2.00   24.40
   0   6 -13   -2.60   28.80
  -1  -6 -13   81.79   36.00
  -1  -6 -13   73.29   26.60
   1  -6  13  127.09   36.60
   1   6  13  127.59   42.50
  -1   6 -13   86.39   33.40
  -1   6 -13   59.09   31.30
  -1   6 -13   91.69   29.40
  -2  -6 -13   19.30   32.30
  -2  -6 -13    6.40   22.50
  -2   6 -13   -5.90   34.20
  -2   6 -13   -2.80   24.10
  -2   6 -13  -29.10   25.20
  -3  -6 -13   22.20   22.00
  -3  -6 -13   37.40   32.40
  -3   6 -13  -11.10   36.70
  -3   6 -13   17.10   24.90
  -3   6 -13   -3.40   35.20
  -4  -6 -13   -3.40   31.60
  -4  -6 -13  -12.50   20.00
  -4   6 -13  -43.40   22.90
  -4   6 -13  -21.60   41.80
  -4   6 -13    9.10   41.80
   6  -7 -13   44.10   40.80
  -6  -7  13   72.19   44.90
  -6  -7  13    5.90   37.10
  -6  -7  13   -3.60   33.00
  -6   7  13  -24.00   31.70
  -6   7  13   80.09   54.59
  -6   7  13   14.00   46.20
  -5  -7  13   24.20   29.60
  -5  -7  13   16.80   35.10
  -5  -7  13   31.00   40.60
   5  -7 -13  -19.70   37.00
  -5   7  13   38.20   39.90
  -5   7  13   32.10   45.20
  -5   7  13  -25.90   29.60
  -5   7  13   43.80   39.60
   4  -7 -13   79.89   38.70
  -4  -7  13  123.29   36.50
  -4  -7  13   71.59   40.30
  -4  -7  13   73.59   34.50
  -4   7  13   42.10   37.80
  -4   7  13   16.50   33.80
  -4   7  13  111.49   33.80
  -4   7  13  -27.50   34.20
   3  -7 -13  -31.20   30.40
  -3  -7  13   40.80   30.20
  -3  -7  13  -18.40   24.30
  -3  -7  13   58.99   32.00
  -3   7  13   36.20   28.50
  -3   7  13   16.40   26.70
  -3   7  13   10.00   36.00
  -2  -7  13   17.90   22.20
   2  -7 -13   11.10   31.70
  -2  -7  13   10.30   24.50
   2  -7 -13   39.40   27.60
  -2  -7  13   18.40   31.30
   2   7 -13   10.00   33.20
  -2   7  13  -25.80   35.00
  -2   7  13   -4.20   23.80
   2   7 -13   -3.30   22.40
   2   7 -13   84.89   33.40
  -2   7  13   45.50   28.50
  -1  -7  13   -4.00   30.00
   1  -7 -13    4.20   26.60
   1  -7 -13   -4.40   33.20
   1   7 -13  -15.30   24.40
   1   7 -13   -2.10   25.70
   1   7 -13    3.00   28.40
  -1   7  13   -4.60   35.80
   0  -7  13  -27.30   29.90
   0  -7 -13    1.60   28.90
   0  -7 -13  -10.50   23.60
   0   7 -13  -38.40   25.00
   0   7 -13    4.80   24.90
   0   7  13   22.50   33.00
   0   7 -13   22.60   33.00
  -1  -7 -13   -2.20   27.90
   1  -7  13    5.20   31.00
  -1  -7 -13   26.20   25.50
  -1   7 -13  -14.50   29.10
   1   7  13   26.90   35.80
  -1   7 -13    8.40   25.50
  -1   7 -13   17.50   30.80
  -2  -7 -13  -13.60   21.90
  -2  -7 -13   -3.10   33.70
  -2   7 -13   -2.00   33.20
  -2   7 -13   36.40   38.60
  -2   7 -13    6.60   25.20
  -3  -7 -13    7.70   24.60
  -3  -7 -13  -18.70   35.40
  -3   7 -13   14.20   35.20
  -3   7 -13   36.60   40.50
  -3   7 -13  -12.00   25.70
  -4  -7 -13  -37.90   37.10
  -4  -7 -13    4.80   23.10
  -4   7 -13   23.90   27.50
  -4   7 -13   27.00   39.20
  -4   7 -13  -31.20   44.50
  -5  -8  13   13.90   34.60
   5  -8 -13  -14.70   37.10
  -5  -8  13  -34.80   34.00
  -5  -8  13   44.10   42.30
  -5   8  13   11.70   45.00
  -5   8  13  -15.70   38.80
  -5   8  13   -9.60   31.30
  -5   8  13   30.80   42.10
  -4  -8  13   57.79   41.30
   4  -8 -13   56.89   38.60
  -4  -8  13   83.29   35.00
  -4  -8  13   21.20   33.10
  -4   8  13   20.50   33.40
  -4   8  13  -57.69   43.60
  -4   8  13  -15.60   33.00
  -3  -8  13   33.40   31.70
   3  -8 -13  -10.80   30.30
  -3  -8  13  -30.40   32.40
  -3  -8  13   -8.60   25.70
  -3   8  13   49.20   30.90
  -3   8  13   28.00   29.60
   3   8 -13   36.10   35.70
  -3   8  13   12.50   43.50
   2  -8 -13  125.59   42.90
  -2  -8  13  140.79   41.20
   2  -8 -13   79.89   35.20
  -2  -8  13  162.68   37.00
  -2   8  13   77.49   45.90
   2   8 -13   95.99   37.10
   2   8 -13  110.99   30.20
   2   8 -13  151.08   36.10
   1  -8 -13    2.20   28.10
   1  -8 -13    3.20   29.40
  -1  -8  13   44.40   34.80
   1   8 -13   16.20   35.80
  -1   8  13   32.90   38.10
   1   8 -13   30.30   27.50
   1   8 -13   10.90   29.20
   0  -8  13  193.88   43.30
   0  -8 -13  150.58   41.60
   0  -8 -13  113.79   33.20
   0   8 -13  198.18   36.20
   0   8 -13  171.68   45.60
   0   8  13  144.19   49.10
   0   8 -13  158.08   39.20
  -1  -8 -13  -20.20   23.20
  -1  -8 -13   21.10   36.60
   1  -8  13   68.69   34.80
  -1   8 -13   33.40   34.60
  -1   8 -13   65.19   36.50
   1   8  13   61.79   42.40
  -1   8 -13   13.20   27.10
  -2  -8 -13   28.10   28.10
  -2  -8 -13   62.09   39.70
  -2   8 -13   29.30   33.30
  -2   8 -13   49.80   29.10
  -2   8 -13   28.90   41.60
  -3  -8 -13   -1.30   34.10
  -3  -8 -13  -14.10   24.50
  -3   8 -13   -7.00   44.20
  -3   8 -13  -21.70   26.20
  -3   8 -13    1.90   36.80
  -4  -8 -13   16.20   25.30
  -4  -8 -13  -51.39   33.50
  -4   8 -13  -82.89   48.10
  -4   8 -13   57.89   43.10
  -4   8 -13   20.70   30.00
   5  -9 -13   41.70   36.40
  -5  -9  13   38.20   37.50
  -5  -9  13   20.40   44.70
  -5  -9  13   -9.80   37.50
  -5   9  13   39.70   52.29
  -5   9  13   25.20   42.50
  -5   9  13  -45.10   33.50
  -4  -9  13  -13.20   32.10
   4  -9 -13   29.80   35.80
  -4  -9  13  -28.40   28.70
  -4  -9  13   52.99   42.90
  -4   9  13  -20.30   31.70
  -4   9  13   -9.30   36.40
  -4   9  13  -43.10   39.40
   3  -9 -13   39.80   38.60
  -3  -9  13   34.70   38.70
  -3  -9  13   79.19   37.60
  -3   9  13   39.50   33.60
  -3   9  13   16.40   46.80
   3   9 -13   87.89   44.20
  -2  -9  13  -27.00   31.70
   2  -9 -13  -24.80   30.30
   2  -9 -13  -52.99   26.20
   2   9 -13    9.50   33.00
  -2   9  13   -7.90   42.10
   2   9 -13   28.50   36.70
   1  -9 -13   66.49   33.10
   1  -9 -13   50.99   38.10
  -1  -9  13    1.20   32.60
   1   9 -13   64.09   36.70
   1   9 -13   35.40   29.10
  -1   9  13   41.60   46.20
   1   9 -13   80.59   35.80
   0  -9 -13   15.00   31.50
   0  -9 -13  -14.70   31.90
   0  -9  13  -10.00   34.30
   0   9  13  -46.40   34.50
   0   9 -13    1.20   29.10
   0   9 -13   24.20   40.00
  -1  -9 -13  -28.30   36.20
  -1  -9 -13    0.80   28.40
  -1   9 -13    9.00   40.10
  -1   9 -13  -33.60   26.50
  -2  -9 -13   12.30   29.00
  -2  -9 -13  -20.40   32.20
  -2   9 -13  -17.80   38.00
  -2   9 -13    1.20   31.00
  -3  -9 -13  -14.90   38.30
  -3  -9 -13   44.20   29.20
  -3   9 -13  -18.80   49.50
  -3   9 -13  -12.40   28.40
  -4 -10  13  -48.80   33.20
  -4 -10  13   15.80   42.20
   4 -10 -13   28.30   38.00
  -4  10  13   -1.00   53.09
  -4  10  13   -7.00   34.20
  -3 -10  13  -17.50   35.40
   3 -10 -13  -16.30   32.40
   3  10 -13   29.30   43.50
  -3  10  13   17.70   47.50
  -2 -10  13   73.99   37.80
   2 -10 -13   36.80   39.80
   2  10 -13   19.30   35.60
  -2  10  13   -6.30   43.20
   1 -10 -13  -49.99   28.40
   1 -10 -13   -2.40   31.60
  -1 -10  13   14.60   35.20
  -1  10  13   12.90   46.90
   1  10 -13   27.90   41.10
   1  10 -13   -4.30   33.20
   0 -10 -13   51.89   37.80
   0 -10 -13   86.69   36.00
   0  10  13   92.89   49.00
   0  10 -13  142.39   37.50
   0  10 -13   59.99   45.00
  -1 -10 -13  -40.50   37.20
  -1 -10 -13  -15.30   28.90
  -1  10 -13  -20.40   31.40
  -1  10 -13   18.60   38.40
  -2 -10 -13    8.30   40.10
  -2 -10 -13   32.00   31.50
  -2  10 -13   64.09   46.70
  -2  10 -13   39.80   34.90
  -3 -10 -13   24.30   46.50
  -3 -10 -13   -8.30   29.50
  -3  10 -13  -46.00   28.80
  -3  10 -13   18.20   48.80
  -3 -11  13  -14.90   42.50
   3 -11 -13   82.59   44.20
   3  11 -13   99.09   49.90
  -3  11  13  -58.79   46.10
   2 -11 -13   48.70   42.70
  -2 -11  13   31.90   40.10
   2  11 -13    6.50   45.10
  -2  11  13   61.69   47.50
   1 -11 -13  -12.40   34.10
   1 -11 -13   -2.60   34.20
   1  11 -13  -11.90   42.50
  -1  11  13   35.20   47.80
   1  11 -13   -8.60   36.20
   0 -11 -13  -14.80   40.10
   0 -11 -13    1.90   33.10
   0  11  13    5.90   47.10
   0  11 -13  -10.80   38.30
   0  11 -13   -2.70   34.50
  -1 -11 -13  -51.89   40.50
  -1 -11 -13   29.70   36.50
  -1  11 -13  -25.30   43.30
  -1  11 -13  -12.50   32.40
  -2 -11 -13   29.00   32.90
  -2 -11 -13  -34.20   37.80
  -2  11 -13   21.10   49.40
  -2  11 -13  -35.40   34.10
   2 -12 -13   25.00   44.20
   2  12 -13   55.49   51.29
  -2  12  13    5.30   52.39
   1 -12 -13   32.40   42.00
  -1  12  13   -5.40   42.50
   1  12 -13   -7.60   39.00
   0 -12 -13   39.30   39.40
   0 -12 -13  -43.40   35.50
   0  12 -13   50.79   48.00
   0  12  13   36.10   46.10
   0  12 -13    4.60   39.30
  -7   0  14   14.70   42.70
  -7   0  14  -36.50   42.10
  -7   0  14   -7.30   30.50
  -6   0  14  -58.29   26.60
  -6   0  14  -16.70   37.00
  -6   0  14  -26.60   35.00
  -5   0  14   -5.70   27.20
  -5   0  14   22.60   36.90
  -5   0  14   -9.80   31.30
   4   0 -14   58.39   27.30
  -4   0  14   51.59   34.20
  -4   0  14   69.79   29.20
  -4   0  14   43.30   33.40
  -3   0  14   13.10   29.30
  -3   0  14  -17.10   22.70
  -3   0  14    7.60   29.50
   3   0 -14  -29.10   23.20
   3   0 -14  -10.00   22.90
  -2   0  14  225.98   35.70
   2   0 -14  312.37   39.50
  -2   0  14  227.58   35.50
  -2   0  14  207.08   42.00
   2   0 -14  241.08   34.40
   1   0 -14   53.29   23.20
  -1   0  14   21.90   23.30
  -1   0  14    1.10   19.60
  -1   0  14  -31.80   21.00
   1   0 -14  -45.30   22.00
   1   0 -14   20.50   25.00
   0   0  14  204.48   40.40
   0   0  14  140.99   29.20
   0   0 -14  169.78   35.70
   0   0  14  191.18   29.20
   0   0 -14  193.98   30.70
   0   0 -14  137.09   29.00
  -1   0 -14    1.80   26.00
  -1   0 -14   -0.30   19.90
  -2   0 -14   -5.70   20.50
  -2   0 -14   42.70   30.50
  -3   0 -14   10.10   19.90
  -3   0 -14   29.50   30.00
  -4   0 -14   84.89   23.60
  -4   0 -14   67.19   40.80
  -5   0 -14  -16.40   16.90
  -5   0 -14    6.10   44.90
  -7  -1  14   11.40   47.60
  -7  -1  14   22.60   47.80
  -7  -1  14   33.50   34.10
  -7   1  14   -9.40   39.00
  -7   1  14   58.89   49.20
  -6  -1  14   -9.50   32.20
  -6  -1  14  -46.90   37.30
  -6  -1  14    2.60   28.70
  -6   1  14   -3.90   29.10
  -6   1  14   19.40   41.50
  -6   1  14  -17.30   33.70
  -5  -1  14   29.60   26.80
  -5  -1  14  -38.80   30.40
  -5  -1  14    7.10   33.10
  -5   1  14   66.89   37.20
  -5   1  14   48.90   30.30
  -5   1  14   -4.10   33.60
  -4  -1  14   62.69   28.40
  -4  -1  14   28.80   29.60
   4  -1 -14    4.10   26.20
  -4  -1  14   29.40   30.30
  -4   1  14   33.10   25.50
  -4   1  14   -5.80   29.00
  -4   1  14   38.10   30.70
   4   1 -14   17.50   23.30
   3  -1 -14    0.00   25.40
  -3  -1  14   33.70   25.70
  -3  -1  14  -10.70   29.10
   3  -1 -14    2.70   22.90
  -3  -1  14    9.80   27.80
   3   1 -14    7.60   23.80
  -3   1  14   18.70   23.60
  -3   1  14   21.40   30.50
   3   1 -14   15.60   26.20
  -3   1  14   52.79   32.20
   2  -1 -14   35.30   24.90
  -2  -1  14  -34.80   20.40
  -2  -1  14   12.00   23.60
  -2  -1  14   -1.80   26.90
   2  -1 -14   -9.80   22.90
   2   1 -14  -22.70   20.50
  -2   1  14  -24.30   23.50
   2   1 -14    9.70   23.50
  -2   1  14   -9.40   24.00
  -2   1  14  -44.40   22.00
   1  -1 -14   50.59   28.00
   1  -1 -14   45.60   25.10
  -1  -1  14   54.29   22.40
  -1  -1  14   41.30   20.80
  -1  -1  14   40.30   26.40
   1  -1 -14   38.00   22.80
   1   1 -14   36.10   23.80
  -1   1  14   29.20   26.40
   1   1 -14   19.80   26.20
  -1   1  14    9.50   22.10
   1   1 -14   36.60   25.70
  -1   1  14   28.00   27.20
   1   1 -14   70.19   24.70
   0  -1  14   21.20   20.20
   0  -1  14   38.70   18.40
   0  -1 -14   19.00   22.40
   0  -1  14   29.60   31.00
   0  -1 -14   18.60   26.80
   0   1 -14   54.69   28.70
   0   1  14    2.60   20.70
   0   1  14   30.20   25.60
   0   1 -14   34.10   22.90
  -1  -1 -14  107.69   34.30
  -1  -1 -14  118.69   26.30
  -1   1 -14  135.39   24.60
  -1   1 -14  149.19   34.10
  -1   1 -14  127.29   27.30
  -2  -1 -14    0.90   20.50
  -2  -1 -14   32.90   28.40
  -2   1 -14   77.69   30.40
  -2   1 -14    1.40   20.40
  -3  -1 -14   66.09   22.40
  -3  -1 -14   80.99   33.20
  -3   1 -14   66.59   32.90
  -3   1 -14   26.20   21.60
  -4  -1 -14   24.10   19.70
  -4  -1 -14   34.60   35.30
  -4   1 -14   67.89   41.00
  -4   1 -14    9.60   19.50
  -5  -1 -14   10.20   18.20
  -5  -1 -14   12.50   42.50
  -5   1 -14   42.20   40.90
  -5   1 -14   11.10   18.80
  -7  -2  14  -23.00   41.50
  -7  -2  14  -21.10   33.10
  -7  -2  14  -73.69   39.20
  -7   2  14   19.20   46.30
  -7   2  14   62.39   43.30
  -7   2  14  -50.99   43.70
  -7   2  14  -47.20   30.50
  -6  -2  14   34.40   30.20
  -6  -2  14    8.10   37.70
  -6  -2  14  -25.70   37.40
  -6   2  14   19.80   40.20
  -6   2  14   33.30   45.10
  -5  -2  14   21.70   29.30
  -5  -2  14    2.10   35.80
   5  -2 -14   22.50   29.30
  -5  -2  14  -11.40   32.50
  -5   2  14    9.70   35.80
  -5   2  14    3.10   27.60
  -5   2  14   36.40   35.20
   4  -2 -14   34.50   27.70
  -4  -2  14    7.20   24.30
  -4  -2  14   24.90   32.30
  -4  -2  14   16.90   29.30
  -4   2  14   25.90   32.60
  -4   2  14   22.90   34.50
  -4   2  14   50.99   28.30
  -3  -2  14  202.48   35.40
   3  -2 -14  131.99   32.00
  -3  -2  14   74.99   33.30
  -3  -2  14   83.69   29.50
   3  -2 -14  134.09   33.20
  -3   2  14  136.89   35.70
   3   2 -14  140.19   29.10
  -3   2  14  110.79   39.00
  -3   2  14  116.59   32.30
   3   2 -14  204.48   36.80
   2  -2 -14    4.60   23.40
  -2  -2  14   46.20   25.60
   2  -2 -14    9.60   26.90
  -2  -2  14   38.90   23.40
  -2  -2  14   34.30   30.90
   2   2 -14   32.80   24.60
   2   2 -14   50.59   24.90
  -2   2  14   21.00   22.60
  -2   2  14    0.20   26.50
  -2   2  14   37.20   30.10
  -1  -2  14  291.37   38.00
  -1  -2  14  141.59   36.20
   1  -2 -14  180.48   30.90
  -1  -2  14  245.88   29.90
   1  -2 -14  198.48   37.90
   1   2 -14  285.47   36.50
  -1   2  14  240.28   34.60
  -1   2  14  241.78   44.40
  -1   2  14  218.58   38.00
   1   2 -14  265.97   37.80
   0  -2 -14    7.50   20.50
   0  -2 -14   12.70   25.00
   0  -2  14  -13.40   27.10
   0  -2  14    0.80   12.30
   0  -2  14   -4.30   21.60
   0   2 -14   29.30   26.30
   0   2  14   -0.30   25.00
   0   2 -14   -6.00   21.10
   0   2 -14  -26.90   20.20
  -1  -2 -14   61.89   24.70
  -1  -2 -14   87.29   29.80
  -1   2 -14  114.19   27.20
  -1   2 -14  101.49   27.40
  -1   2 -14   86.39   34.10
  -2  -2 -14   20.90   20.90
  -2  -2 -14   27.90   29.40
  -2   2 -14   -1.20   26.70
  -2   2 -14   20.10   21.80
  -2   2 -14   59.89   25.50
  -3  -2 -14    2.90   19.70
  -3  -2 -14   10.20   32.10
  -3   2 -14   36.10   21.70
  -3   2 -14  -20.30   28.60
  -4  -2 -14   -6.80   18.80
  -4  -2 -14  -26.00   33.60
  -4   2 -14    8.50   32.30
  -4   2 -14   -9.40   20.10
  -5  -2 -14    2.70   18.10
  -5  -2 -14   52.59   44.20
  -5   2 -14  -13.70   18.30
  -5   2 -14   31.10   44.80
  -7  -3  14  -40.80   43.00
  -7  -3  14   34.70   42.90
  -7  -3  14  -19.00   30.50
  -7   3  14   87.59   48.70
  -7   3  14   -4.70   31.90
  -7   3  14   -4.30   47.60
  -7   3  14   36.50   49.40
  -6  -3  14   17.90   40.10
  -6  -3  14  -10.50   36.50
  -6  -3  14  -20.60   27.40
  -6   3  14   43.40   45.10
  -6   3  14    7.70   41.80
  -6   3  14   54.29   42.10
  -6   3  14   14.30   29.10
  -5  -3  14    4.30   37.40
  -5  -3  14   13.60   34.80
  -5  -3  14   -8.30   25.90
   5  -3 -14   65.19   32.90
  -5   3  14   13.70   36.30
  -5   3  14  -31.20   24.70
  -5   3  14   29.00   37.00
  -4  -3  14   49.30   29.70
  -4  -3  14    3.50   29.10
  -4  -3  14   -0.10   28.30
   4  -3 -14   26.00   29.00
  -4   3  14    9.90   33.80
  -4   3  14  -10.90   35.90
  -3  -3  14  -20.40   26.40
  -3  -3  14   47.60   26.90
   3  -3 -14   23.10   29.40
  -3  -3  14   51.99   29.00
   3  -3 -14   31.50   24.50
   3   3 -14   25.30   22.70
   3   3 -14    6.90   25.40
  -3   3  14    8.10   30.50
  -3   3  14   20.60   30.80
  -2  -3  14  -10.80   19.50
  -2  -3  14   -6.20   21.50
   2  -3 -14    2.40   26.50
   2  -3 -14   -0.30   21.60
  -2  -3  14   -2.10   24.40
   2   3 -14  -41.20   22.00
  -2   3  14   12.20   26.80
   2   3 -14  -25.00   21.50
  -2   3  14    9.90   28.60
   1  -3 -14   45.90   27.00
  -1  -3  14   37.70   25.00
  -1  -3  14   31.70   31.70
   1  -3 -14    2.40   22.00
  -1  -3  14   -5.40   17.20
  -1   3  14   38.40   15.70
   1   3 -14   47.80   26.20
  -1   3  14   49.70   24.90
   1   3 -14   15.20   23.70
  -1   3  14   -9.40   28.70
  -1   3  14   34.10   26.40
   1   3 -14   41.10   26.60
   0  -3 -14  146.69   28.40
   0  -3  14  167.28   38.40
   0  -3 -14  136.99   33.20
   0   3 -14  195.68   37.30
   0   3 -14  112.09   27.50
   0   3  14  156.38   38.40
   0   3 -14  197.08   32.50
  -1  -3 -14   12.70   24.60
  -1  -3 -14   11.40   22.50
  -1   3 -14   15.40   22.40
  -1   3 -14   65.99   26.90
  -1   3 -14   18.80   24.10
  -2  -3 -14   98.49   33.60
  -2  -3 -14  102.39   26.00
  -2   3 -14  184.08   34.60
  -2   3 -14  113.99   28.20
  -2   3 -14  131.89   37.20
  -3  -3 -14  -13.20   18.50
  -3  -3 -14    2.70   27.80
  -3   3 -14  -29.80   20.30
  -3   3 -14   30.60   31.50
  -3   3 -14   17.20   34.70
  -4  -3 -14   36.80   21.10
  -4  -3 -14  -15.20   35.10
  -4   3 -14   48.30   24.00
  -4   3 -14   27.70   40.00
  -5  -3 -14    1.70   41.70
  -5  -3 -14  -12.60   18.00
  -5   3 -14   10.20   20.50
  -5   3 -14   45.20   47.60
  -6  -4  14  -42.90   31.20
  -6  -4  14   48.80   40.60
  -6  -4  14   26.90   36.80
  -6   4  14   28.50   39.70
  -6   4  14  -48.00   35.00
  -6   4  14   -4.40   40.00
  -6   4  14  -23.80   31.30
  -5  -4  14   18.60   36.90
  -5  -4  14   10.00   26.70
   5  -4 -14   52.19   34.60
  -5  -4  14   26.60   35.80
  -5   4  14    5.90   36.50
  -5   4  14   -3.10   29.60
  -5   4  14   46.30   36.50
  -5   4  14   42.30   37.50
  -4  -4  14   30.50   29.30
  -4  -4  14   10.80   29.60
   4  -4 -14   34.90   31.30
  -4  -4  14   47.00   33.30
  -4   4  14  -12.00   30.30
  -4   4  14   10.70   29.90
  -4   4  14   31.60   29.40
  -4   4  14  -28.90   33.30
   3  -4 -14  178.58   41.10
   3  -4 -14  174.38   35.50
  -3  -4  14  199.88   36.30
  -3  -4  14  208.78   41.30
  -3  -4  14  263.47   41.00
  -3   4  14  167.18   40.60
  -3   4  14  297.47   39.20
  -3   4  14  165.08   36.80
  -3   4  14  181.48   43.10
   3   4 -14  222.38   30.50
   3   4 -14  228.08   37.90
  -2  -4  14  129.79   37.70
   2  -4 -14  143.59   38.00
  -2  -4  14  121.49   31.60
   2  -4 -14   66.59   29.60
  -2  -4  14  107.09   25.10
  -2   4  14   88.69   24.70
   2   4 -14   77.79   26.60
  -2   4  14  106.69   35.60
   2   4 -14  140.89   32.40
  -2   4  14  148.89   32.00
  -2   4  14   55.39   33.80
   1  -4 -14  345.37   49.20
  -1  -4  14  424.36   45.00
  -1  -4  14  388.16   51.69
   1  -4 -14  316.87   39.90
   1   4 -14  317.37   41.20
  -1   4  14  265.57   46.10
   1   4 -14  399.26   46.80
   1   4 -14  333.07   40.00
  -1   4  14  287.87   39.40
   0  -4 -14   87.79   35.00
   0  -4 -14   63.99   24.60
   0  -4  14   98.19   35.90
   0   4  14  101.49   37.00
   0   4 -14   61.89   29.60
   0   4 -14   99.19   32.40
   0   4 -14   42.30   25.80
  -1  -4 -14   77.59   26.70
  -1  -4 -14  149.19   38.70
  -1   4 -14  112.59   29.30
  -1   4 -14  103.39   32.40
  -1   4 -14  116.29   31.60
  -2  -4 -14   -9.50   24.90
  -2  -4 -14   18.50   21.30
  -2   4 -14   -9.30   29.80
  -2   4 -14    2.60   29.10
  -2   4 -14    6.20   23.10
  -3  -4 -14   34.20   23.40
  -3  -4 -14   -5.30   29.50
  -3   4 -14   25.30   33.40
  -3   4 -14  -16.80   20.80
  -3   4 -14    4.80   32.90
  -4  -4 -14  -71.49   27.30
  -4  -4 -14  -11.20   19.40
  -4   4 -14    8.80   21.40
  -4   4 -14   -2.50   35.10
  -6  -5  14    1.50   32.60
  -6  -5  14  101.09   48.00
  -6  -5  14  -49.30   37.40
  -6   5  14  -33.40   44.10
  -6   5  14   -1.40   32.10
  -6   5  14  118.89   49.10
  -6   5  14  -34.00   40.90
   5  -5 -14   61.89   36.60
  -5  -5  14   -5.60   34.00
  -5  -5  14   24.90   32.50
  -5  -5  14  -45.30   31.10
  -5   5  14   74.79   40.20
  -5   5  14   19.80   39.20
  -5   5  14  108.59   44.80
  -5   5  14    8.70   31.30
  -4  -5  14    3.60   29.40
  -4  -5  14    0.20   34.00
  -4  -5  14   46.90   31.30
   4  -5 -14   19.60   32.60
  -4   5  14   14.60   30.30
  -4   5  14   40.60   31.60
  -4   5  14   51.09   40.50
  -4   5  14  -16.30   33.90
   3  -5 -14   17.10   32.80
  -3  -5  14   54.19   30.50
  -3  -5  14    6.00   25.40
  -3  -5  14   47.80   33.80
   3  -5 -14  -11.80   27.20
  -3   5  14   15.30   34.60
  -3   5  14   -1.70   36.20
  -3   5  14   27.90   28.70
  -3   5  14  112.29   30.70
   3   5 -14  -21.10   27.20
  -2  -5  14  -23.20   18.50
   2  -5 -14  -12.90   29.70
   2  -5 -14  -57.99   22.20
  -2  -5  14   12.70   26.60
  -2  -5  14   23.10   30.60
  -2   5  14  -19.50   24.00
  -2   5  14    3.90   33.30
   2   5 -14   23.60   27.10
   2   5 -14  -35.50   22.80
  -2   5  14   -8.30   28.10
  -2   5  14    5.90   21.30
   2   5 -14   33.90   30.60
  -1  -5  14    2.70   25.00
  -1  -5  14    5.50   28.30
   1  -5 -14   13.10   30.40
   1  -5 -14   27.50   26.60
   1   5 -14    0.60   28.60
  -1   5  14  -13.90   32.90
   1   5 -14   31.10   27.00
   1   5 -14   24.70   26.20
   0  -5 -14   20.90   24.80
   0  -5  14  -29.10   24.90
   0  -5 -14  -25.10   25.70
   0   5  14    7.10   33.90
   0   5 -14  -33.20   24.90
   0   5 -14  -10.00   28.90
   0   5 -14    0.20   23.90
   1  -5  14   17.40   31.30
  -1  -5 -14  108.29   29.50
  -1  -5 -14   54.39   31.10
   1   5  14  115.89   38.80
  -1   5 -14   73.39   35.70
  -1   5 -14  100.29   29.40
  -1   5 -14   67.49   32.30
  -2  -5 -14   11.00   32.80
  -2  -5 -14   -4.60   22.00
  -2   5 -14   16.70   29.50
  -2   5 -14   32.60   25.60
  -2   5 -14    1.90   30.80
  -3  -5 -14   21.10   23.00
  -3  -5 -14   33.80   36.00
  -3   5 -14   40.20   35.30
  -3   5 -14   48.00   38.80
  -3   5 -14   76.39   28.40
  -4  -5 -14   -4.10   20.40
  -4  -5 -14  -14.50   33.70
  -4   5 -14    1.70   23.50
  -4   5 -14   30.00   43.80
  -6  -6  14  -26.80   32.20
  -6  -6  14   38.30   42.40
  -6  -6  14  -16.70   41.70
  -6   6  14  -37.40   39.10
  -6   6  14  -19.30   42.70
  -6   6  14   16.00   33.20
  -6   6  14   41.10   46.60
  -5  -6  14  -44.40   35.60
   5  -6 -14   56.89   39.70
  -5  -6  14    7.90   30.00
  -5  -6  14  -24.90   29.80
  -5   6  14   -5.80   42.70
  -5   6  14   39.50   38.40
  -5   6  14   -4.30   40.40
  -5   6  14   -6.10   29.40
  -4  -6  14   63.39   36.10
  -4  -6  14   16.40   30.50
   4  -6 -14  -15.10   32.80
  -4  -6  14    5.80   28.70
  -4   6  14   46.30   35.70
  -4   6  14   31.90   32.30
  -4   6  14   52.39   38.40
  -4   6  14  -10.20   34.60
  -3  -6  14   -0.20   25.10
  -3  -6  14    3.80   27.60
  -3  -6  14    1.50   32.40
   3  -6 -14  -50.29   30.80
  -3   6  14  -14.90   36.00
  -3   6  14  -12.10   24.80
  -3   6  14    7.90   34.10
  -3   6  14   -3.20   27.90
   2  -6 -14   51.19   32.40
  -2  -6  14   96.69   31.70
  -2  -6  14  131.19   38.30
   2  -6 -14  118.39   32.30
   2   6 -14   55.59   33.60
  -2   6  14   34.90   38.10
   2   6 -14  128.59   35.60
   2   6 -14  123.89   30.70
  -2   6  14  132.19   32.40
   1  -6 -14  -38.00   23.80
   1  -6 -14   33.40   33.70
  -1  -6  14  -28.00   28.50
   1   6 -14   28.50   28.50
   1   6 -14   42.00   32.70
   1   6 -14   18.10   27.30
  -1   6  14   22.70   35.90
   0  -6 -14   53.29   35.10
   0  -6  14   20.70   32.60
   0  -6 -14   63.19   28.80
   0   6 -14   89.59   36.60
   0   6 -14   20.50   26.00
   0   6 -14   32.80   31.20
   0   6  14   44.10   38.50
  -1  -6 -14   23.60   35.20
   1  -6  14   28.00   32.40
  -1  -6 -14    6.60   24.20
  -1   6 -14   23.40   23.90
  -1   6 -14   23.80   33.30
  -1   6 -14   29.70   29.90
   1   6  14    2.50   35.80
  -2  -6 -14   -3.30   23.10
  -2  -6 -14  -14.40   27.90
  -2   6 -14   23.50   32.40
  -2   6 -14  -12.50   24.40
  -2   6 -14   14.60   34.40
  -3  -6 -14   24.20   24.40
  -3  -6 -14  -18.80   30.10
  -3   6 -14  -20.90   32.00
  -3   6 -14   19.10   27.60
  -3   6 -14  -54.49   37.40
  -4  -6 -14   -3.10   40.10
  -4  -6 -14    1.80   23.10
  -4   6 -14  -24.50   22.80
  -4   6 -14   -6.30   37.60
  -4   6 -14  -30.00   44.50
  -6  -7  14  -39.10   38.50
   6  -7 -14   64.19   43.20
  -6  -7  14  -33.90   41.00
  -6  -7  14  -28.00   33.70
  -6   7  14  -18.70   31.70
  -6   7  14    5.00   44.50
  -6   7  14  -10.20   48.60
  -5  -7  14   36.10   33.40
   5  -7 -14   -0.20   40.00
  -5  -7  14   37.40   37.70
  -5  -7  14   94.09   46.20
  -5   7  14    1.70   42.60
  -5   7  14  -48.70   35.00
  -5   7  14   66.49   37.00
  -5   7  14   82.39   42.10
  -4  -7  14   24.30   37.10
  -4  -7  14   28.60   32.80
  -4  -7  14  -12.60   28.80
   4  -7 -14   35.90   38.20
  -4   7  14  -51.59   32.20
  -4   7  14    8.70   32.70
  -4   7  14    5.50   43.60
  -4   7  14   -0.20   27.90
  -3  -7  14    9.80   28.10
  -3  -7  14   -4.90   34.20
  -3  -7  14   27.00   30.00
   3  -7 -14  -25.20   28.40
  -3   7  14   -6.10   42.30
  -3   7  14   -0.70   27.10
  -3   7  14   90.09   34.60
  -2  -7  14   13.60   32.50
   2  -7 -14   25.90   35.10
   2  -7 -14   32.50   30.40
  -2   7  14  -47.50   32.30
   2   7 -14   12.70   25.80
   2   7 -14   -3.80   29.80
   2   7 -14  -22.70   28.50
   1  -7 -14    2.20   33.90
   1  -7 -14   22.90   30.40
  -1  -7  14  -28.90   29.50
   1   7 -14   30.10   27.70
   1   7 -14  -23.30   26.50
  -1   7  14   33.00   36.90
   1   7 -14    5.30   34.50
   0  -7 -14  -19.80   32.00
   0  -7 -14    7.00   27.70
   0  -7  14   34.30   34.70
   0   7 -14   11.40   27.00
   0   7 -14   36.80   30.90
   0   7  14   44.70   39.60
   0   7 -14   14.70   35.70
  -1  -7 -14   39.70   27.10
   1  -7  14   22.50   34.90
  -1  -7 -14  -21.80   28.60
   1   7  14   41.90   39.10
  -1   7 -14    4.40   27.00
  -1   7 -14   56.49   31.70
  -1   7 -14   78.59   37.70
  -2  -7 -14  -73.39   25.50
  -2  -7 -14   18.90   26.30
  -2   7 -14   10.40   27.60
  -2   7 -14   49.40   39.50
  -2   7 -14   -3.50   37.60
  -3  -7 -14   30.30   26.40
  -3  -7 -14    2.60   39.10
  -3   7 -14  -22.50   33.60
  -3   7 -14   33.40   29.00
  -3   7 -14   11.80   42.30
  -4  -7 -14  -12.00   22.70
  -4  -7 -14  -24.70   37.60
  -4   7 -14  -32.70   26.00
  -4   7 -14    0.50   40.10
  -4   7 -14  -12.70   49.10
  -5  -8  14   17.40   38.70
  -5  -8  14   39.90   39.40
  -5  -8  14  109.59   41.10
   5  -8 -14   51.89   41.70
  -5   8  14    9.60   40.60
  -5   8  14  -31.00   48.30
  -5   8  14    2.50   42.20
  -5   8  14   23.50   32.80
  -4  -8  14  -45.80   32.10
  -4  -8  14   21.90   34.70
   4  -8 -14   40.80   39.10
  -4  -8  14   30.50   32.80
  -4   8  14   40.40   35.20
  -4   8  14  -21.20   33.10
  -4   8  14  -37.40   37.30
   3  -8 -14   84.89   40.70
  -3  -8  14  124.09   39.90
  -3  -8  14   43.50   40.00
  -3   8  14   66.19   31.90
  -3   8  14   32.50   45.50
   2  -8 -14  -21.40   30.90
   2  -8 -14   14.10   36.20
  -2  -8  14   34.90   37.70
   2   8 -14   29.60   39.20
  -2   8  14  -45.30   38.60
   2   8 -14   53.99   34.60
   1  -8 -14   24.80   33.80
  -1  -8  14  183.78   43.50
   1  -8 -14  109.39   36.70
   1   8 -14  130.29   44.80
   1   8 -14  121.59   38.00
   1   8 -14  106.09   33.10
  -1   8  14   83.79   45.70
   0  -8 -14   25.90   27.70
   0  -8  14   31.30   35.80
   0  -8 -14   31.60   38.80
   0   8 -14   13.10   30.60
   0   8 -14   47.10   30.30
   0   8  14   41.90   44.60
   0   8 -14   27.00   38.90
  -1  -8 -14   41.60   35.00
  -1  -8 -14  -16.00   25.80
  -1   8 -14   30.00   31.50
  -1   8 -14   34.10   40.10
  -1   8 -14   89.39   41.30
  -2  -8 -14  -25.30   37.00
  -2  -8 -14  -35.20   24.50
  -2   8 -14    6.60   33.40
  -2   8 -14   26.60   43.10
  -2   8 -14  -71.19   26.20
  -3  -8 -14   11.80   41.70
  -3  -8 -14   -3.10   26.60
  -3   8 -14   -7.70   29.40
  -3   8 -14   28.10   39.70
  -3   8 -14   27.60   45.80
   5  -9 -14   24.00   43.40
  -5  -9  14  -52.89   35.60
  -5  -9  14  -19.30   45.10
  -5  -9  14    8.40   38.30
  -5   9  14  -41.70   40.90
  -5   9  14  -46.90   33.90
  -5   9  14  -36.70   40.80
  -4  -9  14  -11.60   35.20
   4  -9 -14   30.20   42.80
  -4  -9  14   20.30   42.70
  -4   9  14  -54.89   47.00
  -4   9  14   -4.10   32.80
   3  -9 -14   -0.80   38.10
  -3  -9  14    8.20   39.90
   3   9 -14   -3.60   41.10
  -3   9  14    6.50   46.00
  -2  -9  14   -3.70   35.00
   2  -9 -14   -7.20   36.80
  -2   9  14   21.40   46.20
   2   9 -14   -0.70   35.10
  -1  -9  14   26.40   36.10
   1  -9 -14  -44.10   29.00
   1  -9 -14   29.90   39.10
   1   9 -14   24.60   41.30
   1   9 -14   21.90   33.20
   1   9 -14   26.90   32.00
  -1   9  14  -10.60   42.90
   0  -9 -14  -48.90   35.30
   0  -9  14  -39.00   35.00
   0  -9 -14   24.80   32.60
   0   9 -14   25.00   32.50
   0   9 -14    4.40   33.90
   0   9  14  -13.20   35.90
   0   9 -14   21.30   42.40
  -1  -9 -14  -25.70   28.60
  -1  -9 -14  -18.40   34.60
  -1   9 -14   29.50   42.80
  -1   9 -14   18.00   31.30
  -1   9 -14   39.40   40.40
  -2  -9 -14   79.79   35.40
  -2  -9 -14   56.09   44.70
  -2   9 -14   92.59   49.40
  -2   9 -14   23.60   33.50
  -2   9 -14   11.50   37.00
  -3  -9 -14   22.90   28.30
  -3  -9 -14  -26.70   36.80
  -3   9 -14  -48.20   47.80
  -3   9 -14  -65.89   27.90
  -3   9 -14   23.20   44.30
   4 -10 -14   43.20   46.90
  -4 -10  14  -10.80   42.60
  -4  10  14  -27.40   55.89
   3 -10 -14   -2.40   38.00
  -3 -10  14   30.00   43.10
   3  10 -14   36.00   44.10
  -3  10  14  -20.20   50.29
   2 -10 -14    2.00   40.80
  -2 -10  14   -6.30   38.80
  -2  10  14   14.20   44.70
   2  10 -14   36.10   42.70
   1 -10 -14   18.00   32.60
   1 -10 -14   38.80   37.80
  -1 -10  14   86.59   42.00
   1  10 -14  156.88   44.80
   1  10 -14  156.38   49.99
  -1  10  14  -19.80   45.30
   1  10 -14  133.89   39.10
   0 -10 -14   34.10   33.80
   0 -10 -14   25.80   38.70
   0  10 -14   19.20   33.50
   0  10 -14    7.30   36.70
   0  10  14    1.60   44.00
   0  10 -14  -24.10   41.90
  -1 -10 -14   39.60   35.60
  -1 -10 -14  -25.60   36.50
  -1  10 -14   59.79   44.10
  -1  10 -14   46.30   36.60
  -2 -10 -14  -34.40   29.90
  -2 -10 -14  -36.40   41.70
  -2  10 -14  -35.10   45.60
  -2  10 -14   42.60   34.00
  -3 -11  14    5.30   44.60
   3 -11 -14   11.10   42.20
   3  11 -14   48.10   47.50
  -3  11  14  -17.90   50.89
  -2 -11  14   11.60   41.00
   2 -11 -14   -4.10   41.30
  -2  11  14  -18.40   49.30
   2  11 -14  -34.60   37.50
   1 -11 -14    8.20   38.90
   1 -11 -14  -33.20   32.40
   1  11 -14   -2.90   40.40
  -1  11  14    2.00   49.50
   0 -11 -14  -23.20   39.70
   0 -11 -14   30.20   35.80
   0  11  14   23.30   44.70
   0  11 -14  -41.30   34.30
   0  11 -14   25.70   47.40
  -1 -11 -14  -11.80   45.80
  -1 -11 -14   21.80   37.50
  -1  11 -14   65.59   50.49
  -1  11 -14  -25.40   36.50
  -6   0  15   43.70   32.70
  -6   0  15   66.19   45.70
  -6   0  15    2.20   40.90
  -5   0  15   41.20   34.90
  -5   0  15   10.60   38.40
  -5   0  15   43.00   37.50
  -4   0  15   33.60   38.70
  -4   0  15  -11.40   27.90
  -4   0  15   19.60   34.80
   4   0 -15    0.40   25.60
  -3   0  15   68.69   28.30
   3   0 -15   50.19   29.90
  -3   0  15   37.80   28.80
  -3   0  15   56.89   33.70
   3   0 -15   37.90   28.60
   2   0 -15   12.80   26.50
  -2   0  15  -31.10   20.50
   2   0 -15   -7.40   22.50
  -2   0  15   -8.60   28.30
  -2   0  15  -20.00   23.80
   1   0 -15   48.20   25.70
  -1   0  15   62.19   26.40
  -1   0  15   18.80   29.70
   1   0 -15   16.20   26.40
  -1   0  15  -14.30   23.30
   0   0 -15   19.90   28.60
   0   0  15   23.30   22.60
   0   0  15   -0.70   31.10
   0   0 -15    4.70   23.10
  -1   0 -15    9.70   24.90
  -1   0 -15  -13.80   21.80
  -2   0 -15  -17.90   20.10
  -2   0 -15    2.10   26.40
  -3   0 -15   21.00   37.10
  -3   0 -15   17.90   22.00
  -4   0 -15    1.60   21.60
  -4   0 -15    8.60   33.70
  -6  -1  15   14.30   30.00
  -6  -1  15   -9.90   37.80
  -6  -1  15   13.60   40.30
  -6   1  15   38.80   43.20
  -6   1  15  -17.00   42.00
  -6   1  15   35.80   33.30
  -5  -1  15   27.70   30.60
  -5  -1  15    0.10   31.80
  -5  -1  15    8.90   36.40
  -5   1  15  -39.40   27.90
  -5   1  15   27.00   42.20
  -5   1  15  -64.09   31.40
  -4  -1  15    1.20   33.90
  -4  -1  15   34.10   27.70
   4  -1 -15  -35.90   25.50
  -4  -1  15   16.70   32.20
  -4   1  15   27.80   34.40
  -4   1  15   -1.30   28.40
  -4   1  15   -8.00   35.10
  -3  -1  15  -31.70   21.60
  -3  -1  15   20.40   28.30
  -3  -1  15   -3.80   28.60
   3  -1 -15  -20.30   26.30
   3  -1 -15   16.50   25.70
   3   1 -15   22.40   27.40
  -3   1  15    6.00   25.50
   3   1 -15    4.10   25.60
  -3   1  15   15.10   28.60
  -3   1  15  -20.90   28.10
   2  -1 -15   -0.40   27.00
  -2  -1  15  -18.10   22.70
   2  -1 -15   -0.40   24.20
  -2  -1  15   -4.90   22.80
  -2  -1  15   16.00   28.10
   2   1 -15    5.80   24.30
  -2   1  15   -2.60   26.60
   2   1 -15   26.50   26.40
  -2   1  15  -77.49   20.50
  -2   1  15    1.00   27.30
   1  -1 -15  -10.70   21.60
  -1  -1  15  -11.50   22.30
  -1  -1  15   19.20   27.00
  -1  -1  15   12.50   21.70
   1  -1 -15   20.50   24.10
   1   1 -15   29.80   24.50
  -1   1  15   14.70   27.90
  -1   1  15  -13.60   28.90
  -1   1  15   12.20   23.50
   1   1 -15    3.10   25.80
   0  -1 -15    6.60   23.40
   0  -1  15   17.70   29.70
   0  -1 -15  -16.30   24.00
   0   1  15   21.70   25.10
   0   1 -15  -17.90   21.30
   0   1 -15   26.90   24.60
  -1  -1 -15   -0.10   28.80
  -1  -1 -15   14.70   23.20
  -1   1 -15   39.80   23.50
  -1   1 -15   28.70   28.80
  -1   1 -15   11.70   22.90
  -2  -1 -15   -7.20   27.70
  -2  -1 -15    2.50   22.10
  -2   1 -15  -15.40   25.20
  -2   1 -15   12.60   22.40
  -3  -1 -15   -6.60   20.80
  -3  -1 -15  -18.90   30.70
  -3   1 -15  -40.10   31.30
  -3   1 -15   -0.90   21.90
  -4  -1 -15  -10.60   20.20
  -4  -1 -15    9.60   36.60
  -4   1 -15  -20.50   38.50
  -4   1 -15   -4.10   21.50
  -6  -2  15    5.20   40.40
  -6  -2  15   -6.90   31.40
  -6  -2  15   -0.10   39.90
  -6   2  15   34.80   45.90
  -6   2  15  -36.40   42.30
  -5  -2  15   35.50   34.70
  -5  -2  15    5.00   35.20
  -5  -2  15  -17.20   29.30
  -5   2  15   15.40   38.20
  -5   2  15  -32.20   38.00
  -4  -2  15   19.60   36.10
  -4  -2  15    3.50   28.00
  -4  -2  15   34.40   30.00
   4  -2 -15    6.10   31.00
  -4   2  15    1.80   30.40
  -4   2  15   -4.70   29.90
  -4   2  15  -22.90   33.70
  -3  -2  15   41.90   28.00
   3  -2 -15   14.20   26.00
  -3  -2  15   63.89   37.20
  -3  -2  15   -7.60   26.60
   3  -2 -15   -0.10   28.20
  -3   2  15   40.40   28.20
   3   2 -15   91.89   30.20
  -3   2  15   46.50   34.30
  -3   2  15    3.20   30.70
   3   2 -15   25.80   25.10
  -2  -2  15   -7.30   25.00
  -2  -2  15  -20.60   26.70
   2  -2 -15   -3.30   25.00
   2  -2 -15   -3.70   24.10
  -2  -2  15  -23.30   21.90
  -2   2  15    6.60   28.70
   2   2 -15   63.89   28.60
  -2   2  15   -5.00   27.20
   2   2 -15   28.70   25.80
  -2   2  15   44.60   27.30
   1  -2 -15    8.20   24.40
   1  -2 -15   48.80   31.20
  -1  -2  15   11.70   20.10
  -1  -2  15    7.10   25.20
  -1  -2  15  -12.30   28.10
   1   2 -15    1.80   24.60
  -1   2  15   19.10   30.50
  -1   2  15   22.00   28.50
   1   2 -15   -3.70   24.30
   0  -2 -15   -8.10   23.60
   0  -2 -15  -12.40   23.20
   0  -2  15   10.50   31.50
   0   2 -15   -2.80   26.50
   0   2 -15    4.00   22.70
   0   2 -15  -14.90   22.20
   0   2  15   29.20   29.60
  -1  -2 -15  -20.30   21.50
  -1  -2 -15   10.20   27.80
  -1   2 -15    9.40   22.60
  -1   2 -15   11.40   23.10
  -1   2 -15   -1.10   29.50
  -2  -2 -15   -1.10   28.60
  -2  -2 -15   -4.30   21.00
  -2   2 -15   -4.40   22.10
  -2   2 -15  -17.40   27.30
  -3  -2 -15   45.10   36.50
  -3  -2 -15  -22.30   19.50
  -3   2 -15   38.90   33.60
  -3   2 -15   12.60   21.80
  -4  -2 -15  -18.90   35.20
  -4  -2 -15    8.30   21.00
  -4   2 -15   19.30   22.70
  -4   2 -15    7.70   35.10
  -6  -3  15    0.30   42.00
  -6  -3  15  -14.60   33.30
  -6  -3  15    0.60   41.90
  -6   3  15   43.70   33.90
  -6   3  15   22.40   39.10
  -6   3  15   49.10   45.50
  -6   3  15   34.40   46.80
  -5  -3  15   18.40   36.70
   5  -3 -15   10.80   32.60
  -5  -3  15   -9.00   36.90
  -5  -3  15  -14.80   29.10
  -5   3  15   59.69   36.50
  -5   3  15  -47.50   33.70
  -5   3  15   16.40   41.20
  -5   3  15  -14.20   28.50
   4  -3 -15   21.30   31.70
  -4  -3  15    4.40   29.80
  -4  -3  15   -4.70   30.00
  -4  -3  15   -3.20   28.70
  -4   3  15    2.00   35.70
  -4   3  15   57.89   38.00
  -3  -3  15  100.39   32.10
  -3  -3  15   70.69   36.10
   3  -3 -15   54.99   28.30
   3  -3 -15   77.09   35.40
  -3  -3  15   71.19   32.10
  -3   3  15   97.09   38.40
  -3   3  15   72.79   34.50
   3   3 -15   80.09   27.60
   3   3 -15  110.19   32.60
   2  -3 -15  -18.20   25.00
  -2  -3  15   21.40   31.30
  -2  -3  15   -6.70   23.00
  -2  -3  15  -36.10   24.00
   2  -3 -15   24.90   24.10
  -2   3  15   -6.10   23.00
   2   3 -15   31.50   26.20
   2   3 -15   -2.90   25.10
  -2   3  15   18.20   20.00
  -2   3  15  -31.10   29.10
  -2   3  15   13.40   30.70
   1  -3 -15  292.57   37.80
   1  -3 -15  323.57   45.80
  -1  -3  15  232.88   42.30
   1   3 -15  279.17   38.40
  -1   3  15  232.88   42.30
   1   3 -15  286.97   42.80
  -1   3  15  248.58   44.50
   0  -3 -15   32.10   30.40
   0  -3  15   22.40   32.70
   0  -3 -15   19.50   24.80
   0   3 -15   10.70   26.00
   0   3 -15   24.20   25.20
   0   3 -15   -2.10   23.10
   0   3  15   20.60   31.10
  -1  -3 -15  268.47   47.00
  -1  -3 -15  229.78   34.60
  -1   3 -15  240.08   36.60
  -1   3 -15  316.37   39.30
  -1   3 -15  299.57   47.90
  -2  -3 -15  -35.70   24.60
  -2  -3 -15  -23.40   21.00
  -2   3 -15   44.80   34.50
  -2   3 -15   47.10   26.40
  -2   3 -15   16.40   27.30
  -3  -3 -15   53.99   22.70
  -3  -3 -15   91.59   38.10
  -3   3 -15  147.49   44.80
  -3   3 -15   21.90   23.80
  -4  -3 -15    5.80   21.10
  -4  -3 -15   70.09   43.20
  -4   3 -15   -7.10   22.00
  -4   3 -15   25.90   40.50
  -6  -4  15   -6.90   35.80
  -6  -4  15    1.20   39.30
  -6  -4  15  -43.00   30.50
  -6   4  15   -1.40   33.80
  -6   4  15   38.20   47.70
  -6   4  15   22.80   47.30
  -6   4  15   24.40   42.80
  -5  -4  15   68.49   38.70
  -5  -4  15    6.70   37.70
  -5  -4  15   35.10   34.90
   5  -4 -15   70.39   38.60
  -5   4  15  -10.90   36.80
  -5   4  15   27.70   35.20
  -5   4  15  -26.70   29.30
  -5   4  15    2.20   38.30
  -4  -4  15   92.09   36.10
   4  -4 -15   29.50   34.30
  -4  -4  15   33.10   32.80
  -4  -4  15   77.69   35.90
  -4   4  15   92.79   34.10
  -4   4  15   47.50   40.30
  -4   4  15   51.39   39.90
  -4   4  15   46.20   33.20
  -3  -4  15    7.80   26.20
   3  -4 -15   11.30   32.10
  -3  -4  15    6.10   29.80
   3  -4 -15   46.60   29.30
  -3  -4  15   55.89   33.10
  -3   4  15   49.00   33.10
  -3   4  15   22.90   27.60
  -3   4  15   48.30   36.10
  -3   4  15   78.29   31.40
   3   4 -15   44.30   29.30
  -2  -4  15  150.08   30.90
  -2  -4  15  144.39   33.70
  -2  -4  15   86.29   36.00
   2  -4 -15  151.68   38.00
   2  -4 -15  116.69   32.20
  -2   4  15   75.19   36.30
  -2   4  15   77.69   36.20
   2   4 -15  148.89   32.40
  -2   4  15  179.58   36.80
   2   4 -15   65.99   28.20
   1  -4 -15   47.00   30.10
   1  -4 -15   16.70   25.00
  -1  -4  15   30.10   31.50
   1   4 -15   24.40   28.70
  -1   4  15   42.20   35.00
   1   4 -15   64.99   29.90
   1   4 -15   36.50   27.80
   0  -4 -15   27.10   25.10
   0  -4  15   22.00   31.70
   0  -4 -15    9.10   27.50
   0   4 -15   39.10   26.90
   0   4 -15   59.29   30.50
   0   4  15   56.19   36.20
   0   4 -15   46.50   27.10
  -1  -4 -15  -22.10   23.00
  -1  -4 -15   -9.40   26.30
  -1   4 -15   31.80   29.30
  -1   4 -15   19.50   24.20
  -1   4 -15   29.60   32.10
  -2  -4 -15  -16.80   29.00
  -2  -4 -15   -1.70   22.90
  -2   4 -15   30.90   30.00
  -2   4 -15   11.00   30.70
  -2   4 -15   -7.40   23.30
  -3  -4 -15  -40.30   19.00
  -3  -4 -15  -22.10   28.70
  -3   4 -15   82.79   28.60
  -3   4 -15   20.60   39.60
  -4  -4 -15  -43.40   37.70
  -4  -4 -15  -16.40   20.80
  -4   4 -15   51.29   26.70
  -4   4 -15  -18.10   34.80
  -6  -5  15  -33.90   37.40
  -6  -5  15   39.80   45.40
  -6  -5  15   74.49   39.30
  -6   5  15  -11.90   47.60
  -6   5  15   11.60   32.40
  -6   5  15   46.90   45.00
  -6   5  15  -36.00   40.20
  -5  -5  15   26.10   37.50
   5  -5 -15  -49.99   32.60
  -5  -5  15   12.80   36.50
  -5  -5  15   77.59   35.50
  -5   5  15  -50.49   39.40
  -5   5  15    3.80   37.90
  -5   5  15  -14.50   38.70
  -5   5  15   32.10   33.10
  -4  -5  15  -22.60   31.20
  -4  -5  15  -37.20   33.30
   4  -5 -15   -9.50   32.10
  -4  -5  15   -6.30   31.60
  -4   5  15    1.80   29.70
  -4   5  15    7.10   31.50
  -4   5  15  -42.20   36.00
  -4   5  15  -44.50   33.50
  -3  -5  15   17.40   34.90
  -3  -5  15    7.50   25.30
   3  -5 -15    8.30   33.20
   3  -5 -15   77.19   33.90
  -3  -5  15  -10.40   25.60
  -3   5  15    5.30   27.80
  -3   5  15   -3.10   32.50
  -3   5  15   22.00   27.70
  -3   5  15  -16.40   36.00
  -2  -5  15  -19.60   29.70
   2  -5 -15   33.00   30.60
   2  -5 -15   40.80   34.50
  -2  -5  15   31.60   26.90
  -2   5  15   29.70   31.60
  -2   5  15    2.00   34.20
   2   5 -15   79.19   32.30
   2   5 -15   45.30   28.00
  -1  -5  15   21.90   32.40
   1  -5 -15   24.10   28.90
   1  -5 -15   -2.30   25.20
  -1   5  15  -41.00   32.40
   1   5 -15   57.79   31.50
   1   5 -15  -20.50   29.00
   1   5 -15   -1.00   28.60
   0  -5  15  141.59   39.30
   0  -5 -15   85.09   34.30
   0  -5 -15   59.09   28.80
   0   5  15  138.19   42.30
   0   5 -15   99.29   33.20
   0   5 -15   76.69   30.90
   0   5 -15  159.98   39.80
  -1  -5 -15    9.80   25.10
  -1  -5 -15   64.59   36.10
  -1   5 -15   38.30   27.70
  -1   5 -15   26.50   32.40
  -1   5 -15   71.19   35.60
  -2  -5 -15   52.79   34.40
  -2  -5 -15   14.40   24.80
  -2   5 -15   61.89   29.70
  -2   5 -15   49.99   35.00
  -2   5 -15   72.39   36.90
  -3  -5 -15    9.30   32.90
  -3  -5 -15  -10.90   22.20
  -3   5 -15    0.60   25.80
  -3   5 -15   26.10   40.00
  -4  -5 -15   -1.40   21.50
  -4  -5 -15   64.29   42.50
  -4   5 -15   12.00   26.70
  -4   5 -15  -12.30   36.60
  -6  -6  15   12.10   46.40
  -6  -6  15    0.70   38.90
  -6  -6  15   -3.70   41.50
  -6   6  15   55.79   48.40
  -6   6  15    4.00   35.50
  -6   6  15  -12.10   46.00
  -6   6  15  -21.10   46.70
  -5  -6  15   63.59   40.90
   5  -6 -15   36.60   40.30
  -5  -6  15   46.90   35.10
  -5  -6  15   51.59   45.20
  -5   6  15   46.90   36.60
  -5   6  15   90.39   42.70
  -5   6  15   65.89   43.30
  -5   6  15   85.29   46.70
   4  -6 -15   10.40   34.60
  -4  -6  15  104.09   38.60
  -4  -6  15  -21.50   30.10
  -4  -6  15  -24.90   35.30
  -4   6  15   15.90   39.90
  -4   6  15   70.29   33.50
  -4   6  15   31.80   29.30
  -4   6  15  -51.79   39.50
  -3  -6  15  142.09   39.50
  -3  -6  15  103.49   37.90
   3  -6 -15   83.79   35.40
  -3   6  15   29.60   40.20
  -3   6  15  109.39   35.00
  -3   6  15   60.19   40.80
   2  -6 -15  -22.10   29.60
  -2  -6  15    8.80   34.10
   2  -6 -15   -8.70   29.40
  -2   6  15  -24.10   35.80
   2   6 -15   39.10   36.10
   2   6 -15   -7.00   27.40
   2   6 -15   20.00   30.60
   1  -6 -15   14.30   28.10
  -1  -6  15   67.59   38.80
   1  -6 -15    4.60   30.30
  -1   6  15   66.79   42.00
   1   6 -15   49.20   35.90
   1   6 -15   37.90   29.40
   1   6 -15    9.80   29.40
   0  -6 -15   30.30   30.20
   0  -6  15   14.40   34.70
   0  -6 -15   25.40   31.90
   0   6 -15  -37.00   31.30
   0   6  15   17.40   37.90
   0   6 -15    6.00   27.90
   0   6 -15   33.80   32.70
  -1  -6 -15   38.80   37.40
  -1  -6 -15    7.20   25.80
   1  -6  15    4.80   33.90
  -1   6 -15  -10.00   27.20
  -1   6 -15   35.70   34.90
  -1   6 -15  -42.00   26.20
  -2  -6 -15  -24.30   30.10
  -2  -6 -15   -5.00   24.30
  -2   6 -15   46.00   38.60
  -2   6 -15   35.80   29.20
  -2   6 -15  -34.40   28.90
  -3  -6 -15    3.90   25.00
  -3  -6 -15  109.29   45.20
  -3   6 -15   56.79   39.50
  -3   6 -15   11.70   28.30
  -3   6 -15   66.99   44.50
  -4  -6 -15  -10.20   37.20
  -4  -6 -15   -0.10   25.90
  -4   6 -15   18.30   46.20
  -4   6 -15   19.60   27.30
  -5  -7  15   26.80   37.30
   5  -7 -15   20.30   39.10
  -5  -7  15  -30.10   33.00
  -5  -7  15  -13.50   40.80
  -5   7  15    2.20   32.10
  -5   7  15   -0.90   42.70
  -5   7  15   13.40   41.30
  -5   7  15   10.40   47.90
  -4  -7  15   11.90   36.60
  -4  -7  15   11.50   34.40
   4  -7 -15   43.60   35.90
  -4   7  15  -13.10   38.90
  -4   7  15   -6.60   32.10
  -4   7  15   -9.70   38.60
  -3  -7  15  -39.00   32.50
   3  -7 -15  -15.80   34.50
  -3   7  15   16.80   39.90
  -2  -7  15   61.39   37.40
   2  -7 -15   77.59   32.80
   2  -7 -15   92.89   42.10
   2   7 -15   22.70   30.40
   2   7 -15  100.19   42.70
  -2   7  15   25.20   44.50
   2   7 -15   29.80   34.50
  -1  -7  15   85.49   39.30
   1  -7 -15   46.80   32.30
   1  -7 -15    3.80   35.50
   1   7 -15   51.59   33.40
  -1   7  15  -23.00   40.30
   1   7 -15   48.10   40.00
   1   7 -15   51.39   30.00
   0  -7 -15   92.19   35.40
   0  -7 -15   78.69   36.90
   0  -7  15   78.59   39.00
   0   7 -15  187.08   46.00
   0   7 -15  169.58   42.30
   0   7  15  109.39   46.90
   0   7 -15  110.09   35.70
  -1  -7 -15    2.10   35.80
   1  -7  15   -7.40   36.40
  -1  -7 -15   35.70   30.00
  -1   7 -15   -0.50   32.90
  -1   7 -15   19.60   35.10
  -1   7 -15   31.60   29.70
  -2  -7 -15  -14.40   27.60
  -2  -7 -15   36.60   37.20
  -2   7 -15   79.39   44.20
  -2   7 -15   86.99   43.50
  -2   7 -15   56.39   31.40
  -3  -7 -15   10.80   27.10
  -3  -7 -15  -15.40   40.40
  -3   7 -15  -19.40   28.80
  -3   7 -15   22.90   43.50
  -3   7 -15   -5.00   44.70
  -5  -8  15    7.50   37.30
   5  -8 -15   62.59   45.10
  -5  -8  15    2.50   39.60
  -5   8  15   98.09   50.69
  -5   8  15   -2.20   38.40
  -5   8  15  -76.69   42.70
   4  -8 -15   34.80   40.10
  -4  -8  15   68.99   45.20
  -4  -8  15   20.40   31.10
  -4   8  15  -36.60   30.80
  -4   8  15   77.99   51.99
  -3  -8  15   22.50   37.70
   3  -8 -15   58.29   44.00
  -3   8  15   16.00   43.00
  -2  -8  15   84.39   41.90
   2  -8 -15   -9.90   38.20
   2  -8 -15   72.29   35.80
   2   8 -15   45.50   34.40
   2   8 -15   11.10   41.40
  -2   8  15  -41.60   36.10
   1  -8 -15  -39.00   35.60
  -1  -8  15  -58.69   32.20
   1  -8 -15   80.39   36.30
   1   8 -15   28.60   40.00
  -1   8  15   -7.50   41.90
   1   8 -15   15.60   32.80
   1   8 -15  -33.70   30.20
   0  -8 -15   30.80   35.90
   0  -8  15  -59.99   31.80
   0  -8 -15  -19.60   27.70
   0   8  15   12.60   44.90
   0   8 -15    9.50   34.30
   0   8 -15   46.70   33.90
   0   8 -15   19.10   38.30
  -1  -8 -15  -17.20   36.00
  -1  -8 -15  -29.30   27.90
  -1   8 -15  -21.20   28.90
  -1   8 -15   53.99   40.90
  -1   8 -15   77.39   39.10
  -2  -8 -15   -0.40   28.90
  -2  -8 -15  -15.90   38.70
  -2   8 -15  -41.90   40.40
  -2   8 -15  -39.40   28.40
  -2   8 -15  -18.50   34.60
  -3  -8 -15  -69.69   39.10
  -3  -8 -15   30.40   29.50
  -3   8 -15  -10.60   31.50
  -3   8 -15   32.30   47.60
  -3   8 -15  -16.90   49.10
  -4  -9  15  -12.80   42.50
   4  -9 -15   73.29   45.40
  -4   9  15    0.70   54.59
  -3  -9  15   13.90   41.90
   3  -9 -15  -31.50   33.10
  -3   9  15  -46.00   42.10
  -2  -9  15   97.89   45.90
   2  -9 -15   11.00   41.00
   2   9 -15   25.20   42.60
  -2   9  15  -14.40   46.40
  -1  -9  15    8.00   39.20
   1  -9 -15   44.70   41.50
   1  -9 -15   -7.10   32.60
   1   9 -15   86.99   37.80
   1   9 -15   47.70   34.60
   1   9 -15  117.89   47.40
  -1   9  15   43.50   50.09
   0  -9 -15   37.00   33.40
   0  -9 -15  -51.89   35.40
   0   9  15   -2.00   40.80
   0   9 -15   -0.80   41.70
   0   9 -15  -20.80   30.70
   0   9 -15   -6.50   36.30
  -1  -9 -15   33.30   43.70
  -1  -9 -15   -4.90   30.20
  -1   9 -15  111.09   47.80
  -1   9 -15   67.69   46.30
  -1   9 -15   -1.30   34.90
  -2  -9 -15  -35.70   40.80
  -2  -9 -15  -16.10   30.70
  -2   9 -15   52.89   36.70
  -2   9 -15   32.90   40.80
  -2   9 -15   39.80   45.90
   3 -10 -15  -25.10   39.60
  -3 -10  15  -10.70   44.50
   3  10 -15   37.30   44.40
  -3  10  15   12.80   51.39
   2 -10 -15   34.80   44.20
  -2 -10  15  -34.60   39.00
   2  10 -15  124.79   50.39
  -2  10  15   -2.50   48.50
   1 -10 -15  -49.90   30.20
   1 -10 -15  -20.90   35.10
  -1 -10  15    2.40   39.20
   1  10 -15   -5.90   35.80
  -1  10  15  -15.20   48.20
   1  10 -15    7.00   39.90
   0 -10 -15  -11.90   41.00
   0 -10 -15  -22.80   34.90
   0  10 -15   52.49   47.60
   0  10  15   55.09   49.80
   0  10 -15   55.69   40.70
   0  10 -15  -30.40   28.30
  -1 -10 -15  -14.00   34.10
  -1 -10 -15  -17.20   44.10
  -1  10 -15   -3.70   38.10
  -1  10 -15   36.40   43.60
  -1  10 -15    5.50   42.70
   2 -11 -15  -17.40   42.60
  -2 -11  15   -9.10   42.60
   2  11 -15   24.60   43.90
  -2  11  15   25.30   55.29
   1 -11 -15    6.30   38.40
  -1  11  15    0.60   51.09
   1  11 -15    1.70   44.50
   0 -11 -15   41.80   40.60
   0 -11 -15   -4.80   45.60
   0  11 -15   56.79   49.30
   0  11 -15    0.30   39.80
   0  11  15   30.60   51.49
   0  11 -15   69.09   45.10
  -6   0  16    0.30   37.10
  -6   0  16  -14.50   37.10
  -6   0  16   21.50   36.50
  -5   0  16  -12.60   41.30
  -5   0  16  -11.00   33.80
  -5   0  16  -65.09   28.80
   4   0 -16  134.09   38.30
  -4   0  16  155.88   45.10
  -4   0  16   75.39   35.10
  -4   0  16   35.20   31.80
  -3   0  16   55.39   28.60
  -3   0  16   -7.70   30.50
  -3   0  16   -9.80   31.70
   3   0 -16   52.49   30.70
   3   0 -16   -5.10   28.90
  -2   0  16   54.49   32.40
   2   0 -16   91.49   34.10
  -2   0  16  114.19   31.80
  -2   0  16  100.59   32.50
   2   0 -16   74.69   28.80
   1   0 -16   25.80   26.40
   1   0 -16    4.00   26.40
  -1   0  16   11.50   26.40
  -1   0  16  -34.30   29.60
   0   0 -16   -1.90   26.40
   0   0 -16  -15.00   22.40
  -1   0 -16   -9.10   28.10
  -1   0 -16  -18.40   26.80
  -2   0 -16   -6.20   28.00
  -2   0 -16   23.80   24.60
  -3   0 -16   42.60   34.50
  -3   0 -16    7.00   22.80
  -4   0 -16  -18.70   22.30
  -4   0 -16  -27.50   39.50
  -6  -1  16   36.00   44.20
  -6  -1  16   29.50   46.20
  -6  -1  16   -3.00   34.70
  -6   1  16  -15.50   46.20
  -6   1  16   -2.90   40.10
  -6   1  16   -1.00   34.10
  -5  -1  16   39.90   40.80
  -5  -1  16  -19.90   29.70
  -5  -1  16    9.60   37.00
  -5   1  16   -5.50   37.10
  -5   1  16   40.60   41.70
  -5   1  16   52.29   33.50
   4  -1 -16  -19.20   29.10
  -4  -1  16  -35.10   25.70
  -4  -1  16   -0.60   37.10
  -4  -1  16    0.80   36.40
  -4   1  16   38.00   33.50
  -4   1  16  -11.00   29.20
  -4   1  16    9.30   37.80
  -3  -1  16  145.59   35.40
   3  -1 -16  116.29   35.00
   3  -1 -16   67.79   30.90
  -3  -1  16   88.49   38.40
  -3  -1  16   80.89   36.80
  -3   1  16   82.89   31.20
   3   1 -16   71.69   31.20
   3   1 -16  105.99   34.20
  -3   1  16  107.39   37.50
  -3   1  16   51.19   38.20
   2  -1 -16    1.40   28.30
   2  -1 -16  -16.10   23.40
  -2  -1  16   26.50   27.10
  -2  -1  16    5.70   25.90
  -2  -1  16  -29.50   29.10
  -2   1  16   37.50   27.20
  -2   1  16   -8.40   26.80
   2   1 -16  -15.70   25.80
  -2   1  16   24.30   30.70
   2   1 -16    8.00   25.40
  -1  -1  16   93.79   35.20
  -1  -1  16  140.89   32.30
   1  -1 -16  166.78   37.90
   1  -1 -16  118.99   32.20
   1   1 -16  136.69   37.00
  -1   1  16  139.69   40.10
   1   1 -16  164.88   34.80
  -1   1  16  127.09   35.90
   0  -1  16    8.60   34.10
   0  -1 -16   18.00   31.10
   0  -1 -16  -20.50   23.30
   0   1 -16   33.50   25.80
   0   1  16   13.00   26.30
   0   1 -16   21.50   30.00
  -1  -1 -16   51.19   28.20
  -1  -1 -16   -5.70   26.30
  -1   1 -16   48.10   27.20
  -1   1 -16   66.09   33.30
  -2  -1 -16   -8.90   23.30
  -2  -1 -16   -3.70   28.80
  -2   1 -16   18.40   29.70
  -2   1 -16  -21.30   23.00
  -3  -1 -16    0.20   29.90
  -3  -1 -16    2.80   23.30
  -3   1 -16    3.40   23.40
  -3   1 -16   73.89   39.80
  -4  -1 -16    2.10   22.50
  -4  -1 -16   -3.50   34.60
  -4   1 -16    0.30   23.50
  -4   1 -16   40.20   39.30
  -6  -2  16    6.40   42.50
  -6  -2  16   58.69   45.60
  -6  -2  16  -26.10   33.10
  -6   2  16  -19.30   44.10
  -6   2  16   34.30   49.00
  -5  -2  16   46.60   32.10
  -5  -2  16    9.70   35.00
  -5  -2  16   23.40   38.70
  -5   2  16    9.40   38.80
  -5   2  16   79.59   47.70
  -4  -2  16   54.79   35.60
   4  -2 -16   49.90   32.20
  -4  -2  16   48.10   34.30
  -4  -2  16   53.09   30.70
  -4   2  16   17.20   39.70
  -4   2  16   53.89   32.30
  -4   2  16   22.20   37.90
  -3  -2  16  -10.50   30.50
  -3  -2  16    5.20   26.50
  -3  -2  16  -40.40   29.60
   3  -2 -16  -25.50   29.00
   3  -2 -16   32.50   27.70
  -3   2  16   24.20   34.20
  -3   2  16    3.40   36.10
  -3   2  16   61.79   31.70
   3   2 -16  -18.70   25.90
   3   2 -16    7.90   29.50
   2  -2 -16   10.80   30.80
  -2  -2  16   38.70   34.20
  -2  -2  16   32.90   29.60
   2  -2 -16   -1.10   25.30
  -2  -2  16   48.60   26.80
  -2   2  16    6.10   30.00
   2   2 -16   26.20   29.60
  -2   2  16   68.09   34.50
  -2   2  16  -19.40   25.80
   2   2 -16   40.70   29.40
   1  -2 -16    4.30   23.30
  -1  -2  16   25.60   34.70
   1  -2 -16   42.30   31.40
   1   2 -16  -21.10   25.90
  -1   2  16   36.10   31.50
   1   2 -16   50.89   29.50
  -1   2  16    2.10   28.40
   0  -2  16  -27.90   31.10
   0  -2 -16    8.80   23.50
   0  -2 -16   24.90   30.70
   0   2  16   36.20   30.20
   0   2 -16   43.60   28.10
   0   2 -16    1.80   28.40
  -1  -2 -16  120.49   36.60
  -1  -2 -16   69.39   28.40
  -1   2 -16   44.40   34.50
  -1   2 -16   93.19   30.60
  -2  -2 -16  -11.70   26.80
  -2  -2 -16   -5.10   24.10
  -2   2 -16   25.60   25.60
  -2   2 -16   -6.90   33.20
  -3  -2 -16   15.10   22.70
  -3  -2 -16    9.40   33.30
  -3   2 -16   32.50   23.50
  -3   2 -16   35.30   36.30
  -4  -2 -16   -5.50   21.60
  -4  -2 -16  -28.30   33.10
  -4   2 -16    7.10   22.50
  -4   2 -16   46.80   40.50
  -6  -3  16   -2.20   41.40
  -6  -3  16   25.90   36.80
  -6  -3  16    4.20   44.40
  -6   3  16   48.80   46.20
  -6   3  16    1.60   33.30
  -6   3  16   45.10   42.20
  -6   3  16  -34.70   44.60
  -5  -3  16   -3.10   38.20
  -5  -3  16    5.60   30.70
  -5  -3  16    0.60   36.00
  -5   3  16    1.90   44.70
  -5   3  16   17.10   42.50
  -5   3  16   66.29   38.90
  -5   3  16   10.00   30.30
  -4  -3  16   84.59   33.70
  -4  -3  16   45.90   33.30
  -4  -3  16   20.90   32.80
   4  -3 -16   40.70   35.00
  -4   3  16   27.70   39.10
  -4   3  16   -4.80   35.50
   3  -3 -16    9.00   33.10
   3  -3 -16   -4.90   25.30
  -3  -3  16   -5.20   29.60
  -3  -3  16   18.80   27.40
  -3  -3  16   -4.10   28.70
   3   3 -16    9.70   26.70
   3   3 -16    5.80   26.10
  -3   3  16   -6.10   33.00
  -3   3  16  -71.19   24.20
   2  -3 -16  240.38   45.60
   2  -3 -16  157.48   36.00
  -2  -3  16  204.88   47.60
  -2   3  16  136.99   42.70
   2   3 -16  221.48   39.00
  -2   3  16  149.49   41.70
   2   3 -16  239.38   38.40
   1  -3 -16    0.00   27.40
  -1  -3  16   23.50   33.90
   1  -3 -16   41.90   28.10
   1   3 -16   47.00   27.70
  -1   3  16    4.90   33.60
   1   3 -16    8.30   29.40
   0  -3 -16  155.88   37.90
   0  -3  16  161.98   45.20
   0  -3 -16  158.58   35.60
   0   3 -16  196.18   41.40
   0   3 -16  150.08   34.60
   0   3 -16  203.58   36.00
   0   3  16  271.37   45.80
  -1  -3 -16   29.70   24.90
  -1  -3 -16  -32.60   27.50
  -1   3 -16   29.60   33.20
  -1   3 -16   65.89   29.40
  -1   3 -16   16.80   26.70
  -2  -3 -16    8.80   24.20
  -2  -3 -16   16.60   30.60
  -2   3 -16    8.80   26.00
  -2   3 -16    2.10   34.20
  -3  -3 -16   -1.90   31.30
  -3  -3 -16   26.40   24.00
  -3   3 -16   21.00   36.10
  -3   3 -16   -9.90   23.30
  -4  -3 -16  -25.40   37.00
  -4  -3 -16    2.70   21.60
  -4   3 -16   36.00   40.30
  -4   3 -16   -6.20   24.00
  -6  -4  16   -4.70   37.70
  -6  -4  16    8.20   40.60
  -6  -4  16   34.30   44.50
  -6   4  16   -6.50   41.10
  -6   4  16   -4.60   49.90
  -6   4  16    8.50   35.40
  -6   4  16    2.70   46.50
   5  -4 -16   41.10   35.90
  -5  -4  16   12.00   38.50
  -5  -4  16   28.40   36.30
  -5  -4  16  -37.10   35.50
  -5   4  16   42.20   37.80
  -5   4  16   -5.70   39.90
  -5   4  16  -10.70   32.30
  -5   4  16  -11.70   40.40
  -4  -4  16  -10.60   32.70
   4  -4 -16  -15.80   33.80
  -4  -4  16  -19.90   29.70
  -4  -4  16   24.20   32.80
  -4   4  16    0.00   31.50
  -4   4  16    1.20   40.00
  -4   4  16   19.20   30.20
  -4   4  16  -21.60   34.30
  -3  -4  16   52.69   34.90
   3  -4 -16   -5.00   32.20
  -3  -4  16    7.60   27.10
  -3  -4  16  -21.00   30.00
  -3   4  16    6.90   28.70
  -3   4  16  -20.00   35.60
  -3   4  16   49.99   38.30
   2  -4 -16   -0.50   34.50
   2  -4 -16  -25.00   27.30
  -2  -4  16  -49.90   30.10
  -2   4  16  -15.70   34.30
  -2   4  16  -26.80   34.00
   2   4 -16   -9.80   27.90
   2   4 -16   22.40   29.20
   1  -4 -16   39.30   30.30
  -1  -4  16   -3.80   34.50
   1  -4 -16   -0.60   28.10
   1   4 -16    1.00   27.90
   1   4 -16   10.10   30.00
   1   4 -16   12.50   29.60
  -1   4  16  -15.20   34.70
   0  -4  16   35.20   35.90
   0  -4 -16  -23.40   24.60
   0  -4 -16   12.20   28.50
   0   4 -16   17.10   29.00
   0   4 -16   15.40   32.50
   0   4  16   74.09   38.20
   0   4 -16   35.20   30.90
  -1  -4 -16   85.79   37.40
  -1  -4 -16   64.69   28.20
  -1   4 -16   27.50   26.90
  -1   4 -16   14.60   33.00
  -1   4 -16   90.49   31.00
  -2  -4 -16   11.60   23.50
  -2  -4 -16   23.50   30.60
  -2   4 -16    9.10   37.90
  -2   4 -16   38.30   28.60
  -3  -4 -16   51.19   37.00
  -3  -4 -16    1.00   24.50
  -3   4 -16   24.80   36.10
  -3   4 -16   40.90   27.70
  -4  -4 -16   -9.10   41.70
  -4  -4 -16  -30.30   22.10
  -4   4 -16   -6.50   25.80
  -4   4 -16    2.20   38.60
  -5  -5  16  -30.70   32.60
   5  -5 -16    1.20   34.20
  -5  -5  16   17.70   36.40
  -5  -5  16   45.80   40.10
  -5   5  16  -41.00   39.00
  -5   5  16    2.00   31.30
  -5   5  16  -37.40   43.60
  -5   5  16   38.60   41.00
  -4  -5  16  -11.50   31.60
   4  -5 -16   27.50   35.70
  -4  -5  16   38.30   35.00
  -4  -5  16    8.80   37.40
  -4   5  16   25.70   30.30
  -4   5  16   82.69   35.70
  -4   5  16   -6.70   39.20
  -4   5  16    9.40   38.50
   3  -5 -16   58.39   38.40
  -3  -5  16   13.70   37.20
  -3  -5  16   24.80   32.80
  -3   5  16   48.70   35.50
  -3   5  16   72.49   41.70
  -3   5  16   15.40   40.50
  -2  -5  16   25.60   34.60
   2  -5 -16   32.40   28.60
   2  -5 -16  -33.20   30.60
   2   5 -16  -10.00   29.40
  -2   5  16   14.80   39.00
   2   5 -16   48.30   30.80
  -1  -5  16   40.30   37.10
   1  -5 -16  102.69   34.50
   1  -5 -16   78.59   36.50
   1   5 -16   45.20   31.40
   1   5 -16   94.79   34.30
  -1   5  16   70.89   41.00
   1   5 -16   81.29   38.00
   0  -5 -16  -10.40   28.50
   0  -5  16   48.20   38.90
   0  -5 -16   25.40   27.40
   0   5  16   11.40   37.40
   0   5 -16   81.89   35.90
   0   5 -16   48.00   31.70
   0   5 -16   19.90   29.80
  -1  -5 -16  -21.00   32.50
  -1  -5 -16   20.90   26.10
  -1   5 -16   35.50   30.10
  -1   5 -16  -38.70   27.40
  -1   5 -16   49.20   34.50
  -2  -5 -16   48.40   34.50
  -2  -5 -16   12.20   25.70
  -2   5 -16   28.70   28.80
  -2   5 -16   43.20   37.20
  -2   5 -16  -28.30   34.90
  -3  -5 -16  -26.30   22.20
  -3  -5 -16   36.30   35.90
  -3   5 -16    0.00   28.10
  -3   5 -16   65.89   41.40
  -5  -6  16   -6.50   39.90
  -5  -6  16   35.60   40.90
   5  -6 -16   29.90   42.20
  -5  -6  16  -36.60   30.20
  -5   6  16   19.90   44.60
  -5   6  16  -60.79   42.50
  -5   6  16   23.70   36.60
  -5   6  16    8.40   44.80
   4  -6 -16    9.60   38.80
  -4  -6  16    7.70   40.60
  -4  -6  16   50.69   38.70
  -4   6  16   -9.80   38.70
  -4   6  16   -5.80   30.30
  -4   6  16   63.59   47.90
  -3  -6  16   32.60   35.40
   3  -6 -16   26.30   34.30
  -3   6  16  -52.79   38.90
  -3   6  16  -30.80   34.50
   2  -6 -16   -8.50   36.90
  -2  -6  16  -35.70   34.80
   2  -6 -16  -28.70   26.30
   2   6 -16  -17.00   27.80
   2   6 -16   20.00   29.90
  -2   6  16    9.40   42.70
  -1  -6  16  -12.50   36.10
   1  -6 -16    7.00   35.00
   1  -6 -16  -20.40   29.90
  -1   6  16  -61.69   35.80
   1   6 -16  -54.29   28.70
   1   6 -16    4.40   35.40
   1   6 -16   13.00   31.60
   0  -6 -16   17.80   33.10
   0  -6 -16  -21.50   25.40
   0  -6  16    8.50   35.40
   0   6 -16   26.50   35.00
   0   6 -16  -32.70   30.20
   0   6 -16   84.99   32.40
   0   6  16  -26.50   38.60
  -1  -6 -16  -16.70   24.50
  -1  -6 -16  -27.50   32.20
  -1   6 -16    4.80   30.90
  -1   6 -16   16.30   29.30
  -1   6 -16  -29.30   33.60
  -2  -6 -16   27.40   36.10
  -2  -6 -16   34.90   28.00
  -2   6 -16   64.29   38.90
  -2   6 -16  -26.70   28.80
  -2   6 -16   78.89   42.80
  -3  -6 -16    4.80   26.10
  -3  -6 -16   17.10   37.30
  -3   6 -16   22.20   45.10
  -3   6 -16  -19.30   28.40
  -5  -7  16  -23.80   34.50
   5  -7 -16   54.99   49.10
  -5  -7  16  -12.20   43.50
  -5   7  16  -51.09   41.00
  -5   7  16   42.20   48.60
  -5   7  16  -49.50   33.50
  -4  -7  16    2.00   38.90
   4  -7 -16   14.70   39.50
  -4   7  16  -41.90   44.40
  -4   7  16   32.10   46.30
   3  -7 -16  -14.50   39.00
  -3  -7  16   36.80   38.00
  -3   7  16  -61.19   40.90
   2  -7 -16  -54.49   36.70
   2  -7 -16   39.20   34.10
  -2  -7  16   45.90   40.10
   2   7 -16   42.10   35.10
  -2   7  16  -20.30   37.30
   2   7 -16  108.99   40.50
  -1  -7  16   70.59   41.40
   1  -7 -16   26.60   33.90
   1  -7 -16   22.80   35.80
   1   7 -16   74.09   38.70
   1   7 -16   33.60   32.80
   1   7 -16   54.89   42.50
  -1   7  16   15.70   43.80
   0  -7  16  -21.50   34.90
   0  -7 -16   43.80   31.40
   0  -7 -16   59.89   37.90
   0   7  16  -17.00   40.90
   0   7 -16   20.90   33.10
   0   7 -16   32.00   36.00
   0   7 -16   18.70   34.80
  -1  -7 -16   -3.80   28.50
  -1  -7 -16   24.60   38.20
  -1   7 -16   72.89   34.50
  -1   7 -16   38.40   39.70
  -1   7 -16  114.79   42.90
  -2  -7 -16   23.40   29.30
  -2  -7 -16  -13.90   39.40
  -2   7 -16   -6.80   31.60
  -2   7 -16   23.90   40.00
  -2   7 -16    8.50   41.60
  -3  -7 -16  -44.70   33.60
  -3  -7 -16    7.00   28.20
  -3   7 -16   42.30   44.10
  -3   7 -16   18.90   28.80
   4  -8 -16   87.99   47.30
  -4  -8  16   12.80   44.20
  -4   8  16  -12.20   49.20
   3  -8 -16   62.89   43.60
  -3  -8  16   84.09   44.20
  -3   8  16   -8.60   47.30
  -2  -8  16  -20.40   37.90
   2  -8 -16    0.20   40.90
  -2   8  16  -66.69   43.10
   2   8 -16    7.90   41.20
  -1  -8  16   90.49   42.90
   1  -8 -16   13.60   41.30
   1  -8 -16   26.00   34.50
   1   8 -16    2.70   37.00
   1   8 -16   35.20   33.40
   1   8 -16   19.90   34.50
  -1   8  16  -27.60   45.40
   0  -8 -16   36.20   34.20
   0  -8  16   -0.70   38.90
   0  -8 -16   -4.90   37.80
   0   8 -16  -31.00   31.20
   0   8 -16   22.00   34.30
   0   8  16   48.00   45.80
   0   8 -16   -5.20   35.40
  -1  -8 -16   29.00   40.00
  -1  -8 -16   12.70   32.60
  -1   8 -16   50.39   42.90
  -1   8 -16  -14.10   32.40
  -1   8 -16   89.59   47.10
  -2  -8 -16   15.80   31.80
  -2  -8 -16  -12.20   40.70
  -2   8 -16   24.20   35.20
  -2   8 -16   34.50   43.70
  -2   8 -16    0.10   39.20
  -3  -9  16  -20.50   42.30
   3  -9 -16   21.50   38.40
  -3   9  16  -45.10   50.29
   2  -9 -16   54.49   43.80
  -2  -9  16   39.40   43.00
   2   9 -16  119.89   46.30
  -2   9  16   29.50   49.50
   1  -9 -16  -24.40   35.80
   1  -9 -16  -19.80   32.70
  -1  -9  16   -1.40   40.50
   1   9 -16  -15.00   38.40
   1   9 -16  -37.70   35.00
  -1   9  16  -14.50   49.70
   0  -9 -16   24.70   41.00
   0  -9 -16    2.60   33.00
   0   9 -16   51.99   44.70
   0   9 -16   41.00   40.40
   0   9  16  117.39   53.49
   0   9 -16   57.49   40.20
  -1  -9 -16   13.30   35.30
  -1  -9 -16   -3.90   41.90
  -1   9 -16   24.70   37.60
  -1   9 -16   25.90   44.50
  -1   9 -16   -7.20   41.30
   2 -10 -16    8.20   43.90
  -2 -10  16    6.70   44.30
   2  10 -16   24.90   43.50
  -2  10  16  -40.50   48.40
   1 -10 -16  -14.20   40.40
   1 -10 -16   -7.80   37.90
   1  10 -16  -37.10   38.40
   1  10 -16    4.60   47.90
  -1  10  16    2.30   50.79
   0 -10 -16   22.00   47.20
   0 -10 -16  -14.60   34.50
   0  10 -16   49.10   42.70
   0  10 -16  -31.70   43.50
   0  10 -16   24.80   38.70
   0  10  16   23.00   49.50
  -6   0  17  -88.19   40.70
  -6   0  17   -1.20   38.60
  -6   0  17   25.80   51.39
  -5   0  17   -6.10   41.70
  -5   0  17  -78.39   37.40
  -5   0  17  -76.39   30.70
  -4   0  17   41.90   41.60
  -4   0  17   15.00   30.90
  -4   0  17  -31.00   34.70
   3   0 -17    8.80   30.80
  -3   0  17   11.40   35.20
   3   0 -17  -36.10   27.20
  -3   0  17   27.80   33.60
  -3   0  17   27.30   32.00
  -2   0  17  -28.50   27.10
  -2   0  17    4.30   29.80
   2   0 -17   -4.50   31.40
   2   0 -17  -21.90   25.70
  -1   0  17   34.80   34.90
   1   0 -17   38.80   33.00
   1   0 -17   44.90   29.70
   0   0 -17  -41.30   23.90
   0   0 -17   62.39   34.60
  -1   0 -17   34.20   27.80
  -1   0 -17   33.10   30.10
  -2   0 -17   16.80   25.80
  -2   0 -17  -12.00   31.70
  -3   0 -17    0.20   24.90
  -3   0 -17    4.60   33.50
  -6  -1  17   19.50   39.00
  -6  -1  17   21.80   45.60
  -6  -1  17  -48.00   39.20
  -6   1  17   -6.20   36.80
  -6   1  17   42.20   47.80
  -6   1  17   52.39   52.29
  -5  -1  17   20.60   43.60
  -5  -1  17   13.50   35.20
  -5  -1  17    8.00   34.80
  -5   1  17  -10.90   35.30
  -5   1  17  -53.09   39.50
  -5   1  17   11.70   41.60
  -4  -1  17   87.79   38.40
   4  -1 -17   37.60   35.50
  -4  -1  17  171.38   42.00
  -4  -1  17  139.19   46.60
  -4   1  17   46.80   42.70
  -4   1  17  103.49   37.70
  -4   1  17  108.99   45.40
  -3  -1  17    1.10   33.20
  -3  -1  17    7.00   31.80
   3  -1 -17    1.70   27.60
  -3  -1  17  -18.40   26.70
   3  -1 -17    1.40   31.30
  -3   1  17  -41.70   26.30
  -3   1  17  -11.70   32.50
  -3   1  17  -35.50   32.10
   3   1 -17  -21.60   28.80
   3   1 -17  -27.30   26.50
   2  -1 -17  119.09   36.50
   2  -1 -17   85.99   33.80
  -2  -1  17   52.39   30.40
  -2  -1  17   41.70   36.60
  -2   1  17   10.40   33.60
   2   1 -17  108.69   36.10
   2   1 -17  102.59   36.50
  -2   1  17   53.49   34.60
  -1  -1  17  -12.40   32.70
   1  -1 -17  -25.00   27.60
   1  -1 -17   44.20   31.90
  -1   1  17   24.70   35.00
   1   1 -17   -7.60   28.50
   1   1 -17   31.40   29.20
  -1   1  17  -17.00   28.40
   0  -1  17  -10.60   29.80
   0  -1 -17   47.70   36.80
   0  -1 -17   34.30   27.10
   0   1 -17  -14.50   29.60
   0   1 -17   33.40   27.40
  -1  -1 -17  -18.00   24.20
  -1  -1 -17  -47.40   24.30
  -1   1 -17   52.89   36.90
  -1   1 -17  -24.00   24.50
  -2  -1 -17   -0.80   29.80
  -2  -1 -17  -19.00   23.00
  -2   1 -17   18.70   25.60
  -2   1 -17   47.30   34.00
  -3  -1 -17   -0.70   24.30
  -3  -1 -17   44.00   36.10
  -3   1 -17   38.50   40.70
  -3   1 -17   25.60   25.60
  -6  -2  17   35.40   39.10
  -6  -2  17   21.30   40.30
  -6  -2  17  -14.80   39.30
  -6   2  17  110.49   51.59
  -6   2  17   55.49   48.40
  -5  -2  17   -4.70   33.90
  -5  -2  17   11.40   37.80
  -5  -2  17   11.40   38.20
  -5   2  17   -6.20   40.80
  -5   2  17   -7.60   44.00
  -4  -2  17  -23.10   34.80
  -4  -2  17  -12.50   32.70
   4  -2 -17   19.30   35.50
  -4  -2  17  -18.80   35.10
  -4   2  17  -28.40   36.70
  -4   2  17  -12.80   31.80
  -4   2  17  -24.30   36.00
  -3  -2  17  -18.10   32.40
   3  -2 -17   -2.20   34.90
  -3  -2  17  -27.10   30.90
   3  -2 -17  -28.10   32.70
  -3   2  17   23.20   36.30
  -3   2  17  -29.90   31.90
   3   2 -17   26.10   30.90
   2  -2 -17  103.49   39.20
   2  -2 -17  119.69   35.60
  -2  -2  17   17.00   32.70
   2   2 -17   65.99   31.40
  -2   2  17   48.50   36.70
  -2   2  17  109.59   43.10
   2   2 -17   84.29   34.80
   1  -2 -17  -12.40   29.30
  -1  -2  17   -0.90   33.10
   1  -2 -17   22.80   35.00
   1   2 -17   46.90   31.00
  -1   2  17   10.10   32.50
  -1   2  17   -3.90   33.70
   1   2 -17  -36.90   26.90
   0  -2 -17   87.39   31.30
   0  -2 -17  164.28   42.50
   0  -2  17  100.59   40.00
   0   2 -17  125.99   39.50
   0   2 -17  215.98   39.50
  -1  -2 -17    1.80   26.90
  -1  -2 -17   33.80   30.50
  -1   2 -17   37.40   28.60
  -1   2 -17    8.50   33.80
  -2  -2 -17  -11.10   24.70
  -2  -2 -17   20.90   32.50
  -2   2 -17   77.69   30.40
  -2   2 -17   24.70   37.20
  -3  -2 -17   32.90   26.30
  -3  -2 -17  -22.10   30.40
  -3   2 -17  -20.60   32.20
  -3   2 -17   -1.20   26.10
  -6  -3  17   49.99   48.10
  -6  -3  17  -24.50   33.50
  -6  -3  17  -11.80   43.40
  -6   3  17   73.39   54.69
  -6   3  17  -28.70   46.10
  -6   3  17   14.60   34.70
  -5  -3  17  -36.70   35.30
  -5  -3  17   54.39   38.80
  -5  -3  17    7.10   36.30
  -5   3  17   61.39   37.70
  -5   3  17   -8.20   42.60
  -5   3  17   36.90   46.20
  -5   3  17   10.20   38.30
  -4  -3  17   45.40   37.10
   4  -3 -17  -15.60   33.00
  -4  -3  17    3.20   32.50
  -4  -3  17  -73.89   33.00
  -4   3  17    2.50   39.20
  -4   3  17   32.70   33.70
  -4   3  17   39.50   42.40
   3  -3 -17   67.79   37.40
  -3  -3  17  153.48   44.40
  -3   3  17   -1.00   38.00
  -3   3  17   30.10   39.40
   2  -3 -17  -20.00   33.50
   2  -3 -17    7.50   29.90
  -2  -3  17  -21.50   29.20
  -2   3  17  -44.20   31.20
   2   3 -17  -75.19   25.50
  -2   3  17  -30.90   32.10
   2   3 -17   -6.60   25.90
   1  -3 -17   74.89   33.00
   1  -3 -17   26.20   34.60
  -1  -3  17   25.90   39.20
   1   3 -17    9.80   29.00
  -1   3  17   25.10   35.50
   1   3 -17   -2.60   27.30
   0  -3  17   -4.50   34.20
   0  -3 -17  -13.50   25.40
   0  -3 -17  -13.40   32.20
   0   3 -17  -49.99   29.40
   0   3  17   32.70   33.10
   0   3 -17    5.60   25.80
   0   3 -17  -35.30   24.70
  -1  -3 -17  -16.60   27.00
  -1  -3 -17   25.10   30.30
  -1   3 -17   18.30   28.00
  -1   3 -17   -8.90   28.10
  -2  -3 -17    2.10   26.20
  -2  -3 -17  -20.50   29.70
  -2   3 -17   29.60   28.10
  -2   3 -17   36.00   35.10
  -3  -3 -17   13.20   25.50
  -3  -3 -17   27.30   35.90
  -3   3 -17  -22.50   31.60
  -3   3 -17   17.30   28.70
  -5  -4  17  -13.90   36.40
  -5  -4  17   -9.00   38.30
  -5  -4  17    5.90   34.70
  -5   4  17   -0.70   34.70
  -5   4  17  -26.60   41.90
  -5   4  17  -48.70   40.10
  -5   4  17   45.20   38.40
  -4  -4  17   -6.50   30.00
   4  -4 -17    4.20   36.60
  -4  -4  17  -12.10   32.80
  -4   4  17   -7.30   35.20
  -4   4  17  -29.30   28.90
  -4   4  17  -22.20   37.80
   3  -4 -17   19.50   36.60
  -3  -4  17    1.20   32.90
  -3   4  17  -13.10   39.10
  -3   4  17  -19.50   32.30
   2  -4 -17  -14.70   29.00
  -2  -4  17  -18.20   33.60
   2  -4 -17   74.99   33.80
  -2   4  17   33.90   39.10
  -2   4  17   -9.40   31.30
   2   4 -17    9.60   29.90
   2   4 -17   16.50   28.20
  -1  -4  17   26.30   37.10
   1  -4 -17   66.19   31.30
   1  -4 -17   -2.10   30.80
   1   4 -17    4.80   32.20
  -1   4  17  -29.20   36.90
   1   4 -17   75.09   32.40
   0  -4 -17   39.30   28.40
   0  -4 -17   12.00   35.90
   0  -4  17   27.20   37.30
   0   4 -17   49.40   32.40
   0   4 -17    6.50   29.00
   0   4 -17    0.90   31.80
   0   4  17   51.49   36.90
  -1  -4 -17   31.40   33.00
  -1  -4 -17   32.80   29.20
  -1   4 -17   10.80   36.80
  -1   4 -17  -24.60   28.50
  -2  -4 -17   -8.90   31.70
  -2  -4 -17   68.19   29.80
  -2   4 -17   24.20   35.80
  -2   4 -17  103.69   34.00
  -3  -4 -17   -6.10   38.60
  -3  -4 -17   20.00   26.70
  -3   4 -17  -32.10   34.60
  -3   4 -17  -16.50   27.50
  -5  -5  17   20.20   36.50
   5  -5 -17   25.40   43.30
  -5  -5  17   38.00   44.50
  -5   5  17    1.50   32.70
  -5   5  17  -36.90   44.30
  -5   5  17   40.70   51.59
  -4  -5  17   -2.70   39.60
   4  -5 -17   22.10   38.40
  -4   5  17   60.49   46.30
  -4   5  17   59.09   46.70
  -3  -5  17   59.39   42.60
   3  -5 -17   17.90   38.40
  -3   5  17  -20.00   41.50
  -3   5  17   19.70   41.20
   2  -5 -17   71.69   42.60
   2  -5 -17  118.09   35.30
  -2  -5  17   -1.20   36.60
  -2   5  17    8.30   41.20
   2   5 -17   95.69   33.20
   2   5 -17  141.59   41.50
  -1  -5  17  -11.80   37.40
   1  -5 -17  -18.40   32.20
   1  -5 -17  -10.30   29.50
   1   5 -17   -7.50   32.10
  -1   5  17   59.39   41.90
   1   5 -17   44.70   34.20
   1   5 -17   63.29   34.40
   0  -5 -17   -3.70   27.50
   0  -5  17    5.20   37.60
   0  -5 -17   32.60   38.60
   0   5 -17   -0.90   28.20
   0   5  17    7.10   38.70
   0   5 -17   37.00   37.70
   0   5 -17   28.50   34.00
  -1  -5 -17  -36.00   27.50
  -1  -5 -17    2.70   28.90
  -1   5 -17  -15.40   27.10
  -1   5 -17    0.20   37.00
  -1   5 -17   48.60   35.50
  -2  -5 -17  -41.30   29.70
  -2  -5 -17  -11.90   27.00
  -2   5 -17   31.80   39.60
  -2   5 -17    9.40   30.80
  -3  -5 -17   -0.30   40.20
  -3  -5 -17  -17.50   25.90
  -3   5 -17    1.60   29.60
  -3   5 -17   56.29   49.10
   5  -6 -17   61.29   43.20
  -5  -6  17  -21.20   41.30
  -5  -6  17   14.10   39.40
  -5   6  17    4.60   34.30
  -5   6  17   45.60   53.29
  -5   6  17  -41.30   45.30
  -4  -6  17   -6.00   39.30
   4  -6 -17  -43.70   38.50
  -4   6  17  -11.00   43.30
  -4   6  17   -4.90   46.10
   3  -6 -17  -32.50   37.60
  -3  -6  17  -10.50   32.90
  -3   6  17    2.90   44.70
   2  -6 -17   -6.50   32.80
   2  -6 -17  -23.90   37.50
  -2  -6  17   14.10   40.00
  -2   6  17  -31.00   40.80
   2   6 -17   20.50   35.80
   1  -6 -17   -4.10   30.10
  -1  -6  17    4.90   37.80
   1  -6 -17   97.69   43.60
  -1   6  17   51.89   46.00
   1   6 -17    7.90   34.50
   1   6 -17   17.50   33.40
   1   6 -17   91.49   42.20
   0  -6  17  -43.70   37.60
   0  -6 -17  -66.69   27.30
   0  -6 -17  -56.79   25.70
   0   6  17    7.50   40.00
   0   6 -17   21.20   35.10
   0   6 -17   -1.20   38.80
   0   6 -17  -30.20   31.00
  -1  -6 -17   -4.20   33.70
  -1  -6 -17   73.59   32.80
  -1   6 -17  110.59   41.40
  -1   6 -17   23.10   39.30
  -1   6 -17   59.69   35.40
  -2  -6 -17    8.10   28.10
  -2  -6 -17   16.40   39.60
  -2   6 -17   25.70   32.20
  -2   6 -17    6.60   42.80
   4  -7 -17   31.20   43.50
  -4  -7  17   12.90   43.80
  -4   7  17  -44.30   40.80
  -4   7  17  -14.00   47.20
  -3  -7  17    4.10   38.30
   3  -7 -17  -22.20   38.90
  -3   7  17  -24.40   45.50
   2  -7 -17   22.30   33.30
  -2  -7  17   43.50   39.30
   2  -7 -17   22.00   37.80
  -2   7  17  -40.10   44.70
   2   7 -17   37.40   43.90
  -1  -7  17   46.90   45.00
   1  -7 -17   -2.70   32.60
   1  -7 -17   -8.00   35.60
   1   7 -17  -53.29   29.00
   1   7 -17   19.30   41.70
  -1   7  17   32.40   45.10
   1   7 -17    7.70   31.90
   0  -7 -17   68.49   37.20
   0  -7 -17  -24.20   34.00
   0  -7  17   -8.80   39.90
   0   7  17   13.00   41.30
   0   7 -17   21.90   34.70
   0   7 -17   45.20   41.40
   0   7 -17    0.80   37.20
  -1  -7 -17  -33.90   37.60
  -1  -7 -17  -27.50   30.00
  -1   7 -17   -4.10   35.40
  -1   7 -17  -13.30   38.30
  -1   7 -17    6.60   34.30
  -2  -7 -17   40.00   44.70
  -2  -7 -17   -9.70   30.10
  -2   7 -17   26.10   41.20
  -2   7 -17   23.20   34.80
  -4  -8  17  -40.40   43.20
  -4   8  17  -57.49   50.59
  -3  -8  17  -25.40   41.20
   3  -8 -17  -19.40   41.30
  -3   8  17  -46.60   41.60
  -2  -8  17   19.50   42.10
   2  -8 -17    6.00   38.70
  -2   8  17   -5.80   45.70
   2   8 -17  -59.49   39.80
  -1  -8  17   25.50   44.20
   1  -8 -17  -95.09   36.80
   1  -8 -17  -34.90   32.70
   1   8 -17   28.30   34.40
   1   8 -17  -24.60   35.80
  -1   8  17   25.70   46.30
   1   8 -17   57.49   39.70
   0  -8  17   61.59   42.70
   0  -8 -17   -4.80   41.80
   0  -8 -17  -28.00   31.00
   0   8 -17  -11.40   37.60
   0   8 -17   57.59   43.30
   0   8 -17   45.20   38.70
   0   8  17  -27.50   42.00
  -1  -8 -17   -8.70   41.30
  -1  -8 -17   25.10   34.10
  -1   8 -17   41.50   43.60
  -1   8 -17   55.89   47.30
  -1   8 -17   26.50   36.40
  -2  -9  17   10.30   42.90
   2  -9 -17  -24.60   38.80
  -2   9  17   19.10   49.50
   2   9 -17   11.30   46.30
   1  -9 -17  -40.90   41.30
   1  -9 -17   24.20   37.70
  -1  -9  17   27.90   44.50
   1   9 -17   75.89   45.10
   1   9 -17   37.30   43.50
  -1   9  17  -23.00   48.90
   0  -9 -17   40.50   43.10
   0  -9 -17  -41.90   34.20
   0   9 -17   60.99   48.90
   0   9 -17   43.10   42.10
   0   9  17    5.30   48.90
   0   9 -17    6.90   40.20
  -5   0  18   17.60   47.20
  -5   0  18   -0.30   35.70
  -5   0  18  -25.10   34.80
  -4   0  18   49.10   44.30
  -4   0  18   20.80   36.30
   3   0 -18   26.80   34.30
  -3   0  18  -18.80   30.20
  -3   0  18    5.00   33.90
   2   0 -18   88.99   35.50
   2   0 -18   44.50   37.40
  -2   0  18   72.39   36.70
   1   0 -18   15.00   29.10
  -1   0  18   23.50   36.30
   1   0 -18  -35.50   31.80
   0   0 -18  103.19   34.50
   0   0 -18   95.79   38.80
  -1   0 -18    6.40   35.20
  -1   0 -18  -17.50   28.00
  -2   0 -18    5.90   27.40
  -2   0 -18    1.70   32.90
  -3   0 -18  -12.10   37.80
  -3   0 -18  -15.20   27.10
  -5  -1  18   56.19   49.80
  -5  -1  18   -8.10   41.10
  -5  -1  18    7.00   37.80
  -5   1  18    7.20   44.20
  -5   1  18   17.90   36.80
  -5   1  18   47.50   53.09
  -4  -1  18  -26.10   37.30
  -4  -1  18    3.50   40.70
  -4   1  18   38.80   41.80
  -4   1  18    9.60   41.00
   3  -1 -18   19.00   34.60
  -3  -1  18   13.50   39.40
   3   1 -18    5.00   34.20
  -3   1  18   17.30   36.90
  -3   1  18    2.30   38.20
   2  -1 -18   38.80   37.00
   2  -1 -18    9.80   30.80
  -2  -1  18   -7.70   35.10
  -2   1  18    0.10   37.20
   2   1 -18  -32.60   30.50
  -2   1  18  -26.50   33.20
   2   1 -18   17.30   31.70
  -1  -1  18  -21.50   37.20
   1  -1 -18   10.40   29.80
   1  -1 -18    1.20   29.00
   1   1 -18    3.50   30.00
  -1   1  18  -30.20   33.10
   1   1 -18   28.70   35.10
   0  -1 -18   56.29   31.80
   0  -1 -18   -9.00   34.30
   0   1 -18  -11.30   29.40
   0   1 -18   23.10   28.60
  -1  -1 -18    2.80   33.90
  -1  -1 -18   36.30   30.00
  -1   1 -18   -9.10   26.80
  -1   1 -18   19.90   31.40
  -2  -1 -18  -30.90   25.80
  -2  -1 -18   -3.20   38.80
  -2   1 -18    5.20   28.70
  -2   1 -18  -53.49   33.40
  -3  -1 -18  -10.60   34.70
  -3  -1 -18   26.00   28.50
  -3   1 -18    1.80   26.60
  -3   1 -18   68.59   45.00
  -5  -2  18    6.80   45.10
  -5  -2  18   -2.70   37.10
  -5  -2  18   38.70   45.60
  -5   2  18  -61.29   37.60
  -5   2  18   27.60   47.10
  -4  -2  18  -19.30   37.70
   4  -2 -18  -52.79   34.00
  -4  -2  18  -37.80   31.40
  -4   2  18   62.39   44.20
  -4   2  18  -10.70   39.30
   3  -2 -18   28.40   36.60
  -3  -2  18   28.60   39.10
  -3   2  18   50.69   40.50
  -3   2  18   -4.50   37.80
  -2  -2  18  -32.30   33.70
   2  -2 -18   31.20   36.60
   2  -2 -18   60.99   34.80
  -2   2  18  -28.90   33.40
   2   2 -18   52.09   34.20
   2   2 -18  -14.20   32.80
  -2   2  18   18.20   36.90
   1  -2 -18   44.10   37.50
   1  -2 -18   78.79   36.20
  -1  -2  18    7.00   38.40
   1   2 -18   32.00   35.20
   1   2 -18   33.00   31.20
   0  -2 -18    3.60   33.50
   0  -2  18   14.20   37.80
   0  -2 -18   50.89   32.50
   0   2 -18  -15.30   31.90
   0   2 -18   49.80   31.50
  -1  -2 -18   17.90   31.50
  -1  -2 -18   14.20   29.20
  -1   2 -18   34.50   29.90
  -1   2 -18   24.20   37.20
  -2  -2 -18    8.00   28.80
  -2  -2 -18   32.20   38.80
  -2   2 -18   -2.00   27.30
  -2   2 -18   77.69   43.70
  -3  -2 -18   34.60   44.00
  -3  -2 -18    8.60   27.60
  -3   2 -18   11.70   39.10
  -3   2 -18  -28.60   26.30
  -5  -3  18  -30.50   34.00
  -5  -3  18  -10.10   41.30
  -5  -3  18   43.50   43.10
  -5   3  18  -37.90   42.20
  -5   3  18  -72.99   43.40
  -5   3  18  -32.90   34.10
   4  -3 -18  -47.10   34.20
  -4  -3  18   40.40   44.30
  -4   3  18   21.80   43.60
  -4   3  18    7.00   43.40
  -3  -3  18   27.60   43.10
   3  -3 -18   10.00   36.70
  -3   3  18  -41.30   36.40
  -3   3  18  -21.90   35.70
  -2  -3  18  -28.80   36.30
   2  -3 -18  -20.60   36.10
   2  -3 -18   44.90   31.90
   2   3 -18   23.60   34.90
  -2   3  18   69.99   40.40
   2   3 -18   -4.20   32.70
  -2   3  18  -47.60   35.80
  -1  -3  18  -45.30   34.30
   1  -3 -18   -9.10   29.70
   1  -3 -18   62.99   39.00
   1   3 -18   10.30   30.70
   1   3 -18   -8.60   32.70
  -1   3  18  -32.90   33.60
   0  -3 -18   14.70   31.00
   0  -3  18   -6.60   37.90
   0  -3 -18   38.90   34.60
   0   3 -18   25.10   36.90
   0   3 -18   -7.70   28.40
  -1  -3 -18   20.70   32.90
  -1  -3 -18    3.50   28.20
  -1   3 -18  -38.10   32.40
  -1   3 -18  -27.50   29.70
  -2  -3 -18   16.40   35.20
  -2  -3 -18   18.60   29.00
  -2   3 -18    7.80   32.80
  -2   3 -18   32.60   30.40
  -3  -3 -18   -6.60   25.10
  -3  -3 -18  -19.30   32.20
  -3   3 -18  -19.00   36.90
  -3   3 -18   17.60   29.90
  -5  -4  18   65.79   46.40
  -5  -4  18   -9.40   38.20
  -5   4  18   -4.90   45.10
  -5   4  18   60.29   43.60
  -5   4  18  -38.90   45.00
   4  -4 -18  -13.20   39.20
  -4  -4  18   33.30   41.30
  -4   4  18   -8.90   41.00
  -4   4  18   -1.20   42.10
  -3  -4  18   30.50   41.80
   3  -4 -18    5.90   38.30
  -3   4  18    4.90   40.00
  -3   4  18    1.50   39.40
  -2  -4  18   18.90   39.30
   2  -4 -18  -53.79   33.60
   2  -4 -18   13.80   33.50
   2   4 -18   -7.60   30.80
  -2   4  18   10.60   41.20
   2   4 -18   66.19   34.20
   1  -4 -18   50.79   34.30
   1  -4 -18   66.39   41.90
  -1  -4  18  -11.60   35.10
   1   4 -18   84.79   38.20
  -1   4  18   40.20   42.50
   1   4 -18   27.90   32.40
   0  -4  18  -10.20   37.70
   0  -4 -18   27.30   31.10
   0  -4 -18  -25.90   30.70
   0   4 -18   43.40   39.40
   0   4 -18   57.49   32.40
  -1  -4 -18  -22.80   36.30
  -1  -4 -18   28.20   28.70
  -1   4 -18   43.80   30.70
  -1   4 -18   44.80   36.50
  -2  -4 -18  -18.10   24.20
  -2  -4 -18   -6.80   36.60
  -2   4 -18   21.20   35.80
  -2   4 -18    4.70   28.90
   4  -5 -18  -52.69   38.90
  -4  -5  18  -35.50   40.00
  -4   5  18   78.39   50.09
  -4   5  18   56.09   48.70
  -3  -5  18   34.70   40.00
   3  -5 -18  -28.00   39.10
  -3   5  18    7.70   44.50
  -3   5  18   36.20   39.80
   2  -5 -18   27.90   31.90
  -2  -5  18   46.90   39.60
   2  -5 -18  -10.50   38.20
  -2   5  18  -36.20   38.90
   2   5 -18   53.09   39.20
   1  -5 -18   45.40   33.60
  -1  -5  18  -10.20   40.90
   1  -5 -18  -29.70   35.00
   1   5 -18   -0.20   34.80
  -1   5  18   11.00   41.80
   1   5 -18   25.40   34.20
   1   5 -18   37.10   36.50
   0  -5 -18  -29.70   35.80
   0  -5  18   31.40   42.60
   0  -5 -18  -40.90   28.80
   0   5  18   20.10   39.60
   0   5 -18   56.09   42.30
   0   5 -18    4.80   36.20
   0   5 -18   34.40   36.60
  -1  -5 -18    3.80   39.40
  -1  -5 -18  -37.00   26.70
  -1   5 -18  -27.20   32.10
  -1   5 -18  -23.20   32.60
  -2  -5 -18   58.99   43.90
  -2  -5 -18   14.50   29.60
  -2   5 -18   26.10   46.30
  -2   5 -18  -14.00   32.90
   4  -6 -18    7.90   42.80
  -4  -6  18  -31.50   37.50
  -4   6  18  -26.00   43.60
  -4   6  18  -32.50   44.20
  -3  -6  18    5.20   41.60
   3  -6 -18   75.49   46.50
  -3   6  18  -39.90   45.60
   2  -6 -18    4.90   42.50
  -2  -6  18   46.60   42.50
   2  -6 -18   37.90   38.90
   2   6 -18   29.80   41.70
  -2   6  18  -33.60   45.00
   1  -6 -18  -29.60   31.40
   1  -6 -18  -33.30   37.80
  -1  -6  18  -55.19   39.60
   1   6 -18   36.00   36.70
   1   6 -18   56.89   37.20
  -1   6  18   20.90   44.50
   1   6 -18   61.49   41.60
   0  -6 -18   66.79   43.10
   0  -6  18   47.30   45.70
   0  -6 -18   34.40   34.20
   0   6 -18   37.60   35.80
   0   6 -18   32.80   42.00
   0   6  18  117.69   47.60
   0   6 -18  119.59   44.20
  -1  -6 -18  -16.40   34.90
  -1  -6 -18  -41.60   29.40
  -1   6 -18   11.20   39.80
  -1   6 -18  -22.40   33.40
  -2  -6 -18  -27.70   26.30
  -2  -6 -18   20.50   38.10
  -2   6 -18   47.40   34.60
  -2   6 -18   -8.80   43.10
   3  -7 -18    1.10   40.50
  -3  -7  18    2.90   42.50
  -3   7  18    1.60   47.20
   2  -7 -18  -23.40   44.60
  -2  -7  18  -12.70   40.30
  -2   7  18  -58.09   43.40
   1  -7 -18  -23.10   36.10
  -1  -7  18  -55.29   39.40
   1  -7 -18  -50.79   37.10
  -1   7  18  -31.00   42.80
   1   7 -18  -32.50   39.90
   1   7 -18    4.70   37.80
   1   7 -18   21.40   37.60
   0  -7  18   10.50   42.40
   0  -7 -18   29.60   38.90
   0  -7 -18   50.79   38.60
   0   7  18  -17.00   43.60
   0   7 -18   20.90   42.30
   0   7 -18  -19.80   33.60
   0   7 -18   26.20   41.00
  -1  -7 -18   54.59   35.40
  -1  -7 -18   16.00   39.40
  -1   7 -18  -14.00   40.60
  -1   7 -18  -22.00   34.40
   2  -8 -18  -10.30   46.80
  -2  -8  18   -9.90   43.80
   2   8 -18   24.60   47.50
  -2   8  18   14.40   54.69
   1  -8 -18  -26.60   38.40
   1  -8 -18   34.20   38.10
  -1  -8  18   38.60   47.10
  -1   8  18   33.60   50.49
   1   8 -18   42.50   38.60
   1   8 -18   53.09   44.30
   0  -8 -18    5.50   37.30
   0  -8 -18   29.30   46.30
   0   8 -18   46.10   47.80
   0   8 -18   17.30   39.10
   0   8 -18   42.30   45.20
   0   8  18   47.90   49.20
  -5   0  19   45.90   45.20
  -5   0  19  -12.70   49.10
  -4   0  19   54.49   42.20
  -4   0  19   -8.00   38.60
  -3   0  19  125.09   44.10
   3   0 -19   55.59   39.00
   2   0 -19    2.00   36.90
   2   0 -19  -33.30   31.90
  -2   0  19  -44.70   31.30
  -1   0  19   31.90   45.90
   1   0 -19   23.70   33.30
   1   0 -19   21.60   38.20
   0   0 -19  -12.30   29.70
   0   0 -19   33.60   32.40
  -1   0 -19  -26.80   28.50
  -1   0 -19   -0.30   34.70
  -2   0 -19  -30.20   38.40
  -2   0 -19  -22.40   28.00
  -5  -1  19    1.80   41.50
  -5  -1  19  -45.40   46.30
  -5   1  19   -4.50   43.60
  -5   1  19   14.60   49.60
  -4  -1  19  -18.10   34.50
  -4   1  19  -23.00   40.40
  -4   1  19  -29.30   38.30
   3  -1 -19  -32.70   34.90
  -3  -1  19  -36.20   34.90
  -3   1  19   11.30   39.80
  -3   1  19  -35.40   36.60
   2  -1 -19   -8.60   32.90
  -2  -1  19   -3.80   39.80
   2  -1 -19    1.90   36.50
   2   1 -19   13.90   34.60
   2   1 -19   13.90   35.50
  -2   1  19  -14.40   39.00
   1  -1 -19  -23.10   34.00
   1  -1 -19    7.60   32.80
  -1  -1  19   13.20   39.30
   1   1 -19  -24.60   29.50
  -1   1  19  -33.40   34.90
   1   1 -19   17.70   36.50
   0  -1 -19   -4.70   37.20
   0  -1 -19   51.59   33.80
   0   1 -19   56.29   40.50
   0   1 -19   23.60   33.60
  -1  -1 -19   29.80   31.60
  -1  -1 -19  -20.90   35.20
  -1   1 -19  -13.30   29.70
  -1   1 -19   16.20   37.70
  -2  -1 -19  -24.30   34.40
  -2  -1 -19    5.60   30.20
  -2   1 -19  -21.50   39.60
  -2   1 -19   51.29   32.60
  -5  -2  19   -3.90   37.30
  -5   2  19   44.00   51.89
  -5   2  19  -13.30   45.30
  -4  -2  19   45.00   39.60
  -4   2  19   45.40   45.90
  -4   2  19  -53.49   39.70
  -3  -2  19    3.00   40.70
   3  -2 -19  -21.30   37.10
  -3   2  19   -8.90   39.10
  -3   2  19  -24.60   38.70
   2  -2 -19   32.80   40.50
   2  -2 -19   42.20   34.00
  -2  -2  19   63.79   44.90
   2   2 -19   11.70   34.00
   2   2 -19   63.99   37.70
  -2   2  19   13.20   37.70
  -1  -2  19   31.70   41.00
   1  -2 -19   57.19   34.40
   1  -2 -19  -17.60   37.70
   1   2 -19   18.60   32.40
   1   2 -19  102.89   40.20
   0  -2 -19  -20.60   29.70
   0  -2 -19   19.00   39.30
   0   2 -19   28.60   33.00
   0   2 -19   40.00   32.90
  -1  -2 -19   40.50   40.20
  -1  -2 -19   62.59   33.90
  -1   2 -19    0.90   29.80
  -1   2 -19   19.70   38.90
  -2  -2 -19   21.00   40.80
  -2  -2 -19   28.30   32.00
  -2   2 -19   41.60   43.10
  -2   2 -19    6.50   31.70
  -4  -3  19  -20.50   34.20
   4  -3 -19  -21.10   41.90
  -4   3  19  -49.60   42.50
  -4   3  19  -20.50   40.70
   3  -3 -19   -7.50   39.40
  -3  -3  19   -5.90   37.30
  -3   3  19  -11.80   40.20
  -3   3  19  -28.20   35.70
  -2  -3  19   10.70   41.30
   2  -3 -19   53.39   36.40
   2  -3 -19   59.99   43.90
  -2   3  19  -66.79   36.90
   2   3 -19    0.80   35.40
  -2   3  19   39.20   42.70
   2   3 -19  -31.30   32.90
  -1  -3  19   68.09   45.50
   1  -3 -19   -3.00   35.90
   1  -3 -19   24.20   33.80
   1   3 -19   23.30   38.00
   1   3 -19    0.30   32.90
   0  -3 -19   -9.20   32.60
   0  -3  19   19.40   41.70
   0  -3 -19  -29.10   29.10
   0   3 -19  -29.70   30.70
   0   3 -19   -1.80   37.90
  -1  -3 -19    7.60   35.90
  -1  -3 -19   10.10   30.80
  -1   3 -19   34.80   35.80
  -1   3 -19   32.40   41.60
  -2  -3 -19   37.60   31.60
  -2  -3 -19  -58.89   31.20
  -2   3 -19  -44.50   39.20
  -2   3 -19   14.20   31.80
   4  -4 -19    4.40   40.20
  -4  -4  19   27.10   47.30
  -4   4  19   39.90   48.80
  -4   4  19  -30.60   45.80
   3  -4 -19   16.30   44.10
  -3  -4  19   -8.20   40.20
  -3   4  19   16.90   44.30
  -3   4  19   -7.60   37.30
  -2  -4  19    8.50   40.60
   2  -4 -19   48.10   42.70
   2  -4 -19  -37.30   30.90
  -2   4  19  -35.70   40.80
   2   4 -19   40.30   36.80
   1  -4 -19   14.50   34.70
  -1  -4  19   14.80   41.80
   1  -4 -19   -7.20   39.70
   1   4 -19   62.49   36.90
   1   4 -19  -34.20   33.10
   0  -4  19  -10.00   41.00
   0  -4 -19    7.20   42.40
   0  -4 -19  -28.30   30.60
   0   4 -19   -1.80   39.10
   0   4 -19   15.20   35.20
  -1  -4 -19  -31.00   37.10
  -1  -4 -19   -7.80   29.70
  -1   4 -19   39.80   36.00
  -1   4 -19  -21.90   39.90
  -2  -4 -19   17.20   40.20
  -2  -4 -19  -21.90   29.60
  -2   4 -19  -24.80   44.10
  -2   4 -19  -20.90   33.20
  -4  -5  19   -2.70   39.10
   4  -5 -19  -58.19   40.30
  -4   5  19  -22.40   48.20
  -4   5  19  -25.40   45.90
  -3  -5  19   -5.70   42.30
   3  -5 -19    0.00   41.20
  -3   5  19  -51.99   41.90
  -3   5  19   -7.30   41.50
   2  -5 -19  -73.39   31.60
   2  -5 -19    7.20   35.30
  -2  -5  19   27.00   43.50
   2   5 -19   -1.10   39.20
  -2   5  19  -40.70   40.70
   1  -5 -19   -9.90   32.90
   1  -5 -19    8.10   37.30
  -1  -5  19   39.40   43.00
  -1   5  19  -13.70   42.20
   1   5 -19   -0.80   38.70
   1   5 -19  -48.10   33.20
   0  -5 -19   24.40   36.20
   0  -5 -19  -16.90   34.80
   0  -5  19  -12.30   43.30
   0   5 -19  -41.80   38.30
   0   5 -19  -17.10   34.00
  -1  -5 -19   20.00   33.10
  -1  -5 -19  -11.00   37.10
  -1   5 -19  -64.99   36.30
  -1   5 -19    8.90   35.70
   3  -6 -19   33.40   45.50
  -3  -6  19  -50.79   40.10
  -3   6  19   35.60   51.29
   2  -6 -19  -29.50   38.00
  -2  -6  19   61.19   50.69
  -2   6  19  -20.70   46.60
   1  -6 -19  -68.19   33.50
   1  -6 -19   97.69   50.99
  -1  -6  19   58.59   47.60
  -1   6  19   25.70   48.20
   1   6 -19   52.99   39.50
   1   6 -19  102.99   45.60
   1   6 -19   57.69   41.50
   0  -6  19   19.80   46.40
   0  -6 -19    3.80   34.90
   0  -6 -19   32.80   45.80
   0   6 -19   23.90   44.10
   0   6 -19    5.50   35.10
  -1  -6 -19   14.20   44.60
  -1   6 -19  -16.10   40.90
  -1   6 -19  -28.40   35.80
   2  -7 -19  -56.99   38.10
  -2  -7  19  -30.00   43.50
  -2   7  19   34.20   53.19
   1  -7 -19   20.80   46.20
   1  -7 -19  -23.70   37.10
  -1  -7  19   32.00   47.90
  -1   7  19   11.70   50.99
   1   7 -19  -15.30   36.90
   1   7 -19    3.60   43.50
   0  -7 -19   37.50   42.40
   0  -7  19    6.20   45.50
   0   7 -19  -36.90   42.50
   0   7  19   80.59   51.99
  -4   0  20   43.50   47.50
  -3   0  20    4.80   35.50
   2   0 -20  -26.00   40.40
  -2   0  20  -47.40   39.00
   2   0 -20  -11.60   36.20
   1   0 -20   15.00   35.10
   1   0 -20   -4.70   37.60
  -1   0  20   30.10   35.80
   0   0 -20   28.80   41.70
   0   0 -20  -23.10   33.60
  -1   0 -20   49.50   44.10
  -1   0 -20  -22.40   31.00
  -4  -1  20    5.30   43.20
  -4   1  20   14.70   44.60
  -3  -1  20    5.30   36.30
   3  -1 -20  -32.70   37.80
  -3   1  20   -3.50   41.60
  -2  -1  20   11.30   40.60
   2  -1 -20  -29.50   34.90
   2  -1 -20   48.50   43.20
   2   1 -20  -36.30   36.30
  -2   1  20  -13.70   36.10
   2   1 -20   59.09   41.70
  -1  -1  20   49.40   41.50
   1  -1 -20   38.10   36.20
   1  -1 -20   19.00   40.50
   1   1 -20    4.00   37.10
   1   1 -20   63.59   39.30
   0  -1 -20  -13.00   32.10
   0  -1 -20   -6.80   37.40
   0   1 -20    5.40   34.10
   0   1 -20   10.90   33.50
  -1  -1 -20    3.30   31.60
  -1  -1 -20   61.19   38.90
  -1   1 -20    1.90   31.70
  -1   1 -20  -11.10   41.50
  -4  -2  20    2.70   42.80
  -4   2  20  -24.20   45.10
  -4   2  20  -12.10   45.10
  -3  -2  20  -28.70   34.40
   3  -2 -20  -30.70   39.70
  -3   2  20    0.30   38.90
   2  -2 -20   33.20   40.60
  -2  -2  20   47.20   42.90
   2  -2 -20  -37.00   33.20
  -2   2  20    4.20   41.00
   2   2 -20   -2.80   36.10
   2   2 -20   23.10   38.10
   1  -2 -20    1.00   32.80
   1  -2 -20   -2.80   40.20
  -1  -2  20  -20.40   42.50
   1   2 -20   59.79   41.50
   1   2 -20  -11.00   35.90
   0  -2 -20   62.79   37.30
   0  -2 -20  -50.49   37.30
   0   2 -20   43.60   35.10
   0   2 -20  -63.79   35.70
  -1  -2 -20   -9.50   32.60
  -1  -2 -20   32.20   44.10
  -1   2 -20  -31.10   32.40
  -1   2 -20  -11.70   41.20
  -4  -3  20  -26.20   42.80
  -4   3  20    2.70   44.00
  -4   3  20    8.60   47.80
  -3  -3  20   -5.10   40.40
   3  -3 -20  -22.20   41.30
  -3   3  20    3.70   42.50
   2  -3 -20   32.60   34.60
   2  -3 -20    6.10   42.00
  -2  -3  20    7.00   37.70
  -2   3  20   35.90   38.40
   2   3 -20   22.80   42.30
   2   3 -20  -17.40   35.20
   1  -3 -20  -92.89   36.20
   1  -3 -20   10.40   37.10
  -1  -3  20  -39.80   41.60
   1   3 -20  -31.60   34.50
   1   3 -20   22.50   39.60
   0  -3 -20   82.49   49.30
   0  -3 -20   -7.80   32.00
   0   3 -20   35.00   43.40
   0   3 -20   -7.60   33.80
  -1  -3 -20   23.20   38.70
  -1  -3 -20   25.90   35.30
  -1   3 -20   31.50   42.70
  -1   3 -20  -28.00   32.30
  -3  -4  20  -19.90   42.00
   3  -4 -20   -5.60   45.40
  -3   4  20  -64.99   42.70
  -3   4  20  -25.00   43.90
  -2  -4  20   24.50   48.10
   2  -4 -20  -22.40   41.20
   1  -4 -20  -55.39   36.40
  -1  -4  20   11.80   47.00
   1  -4 -20  -28.70   32.70
   1   4 -20  -71.99   35.30
   1   4 -20  -76.89   32.70
   0  -4 -20  -31.20   33.40
   0  -4 -20  -18.50   36.90
   0  -4  20  -27.80   41.70
   0   4 -20   11.90   38.00
   0   4 -20  -10.40   39.20
   3  -5 -20  -60.79   40.80
  -3  -5  20  -49.90   43.50
  -3   5  20  -63.99   46.00
  -2  -5  20  -24.20   43.00
   2  -5 -20  -24.80   37.20
  -2   5  20  -27.20   48.60
   1  -5 -20  -36.60   44.20
  -1  -5  20  -28.90   45.20
   1  -5 -20   67.89   38.70
   1   5 -20   13.70   37.70
   1   5 -20   52.39   39.20
   0  -5 -20   58.09   50.99
   0  -5  20   64.09   51.09
   0  -5 -20  -16.40   33.20
   0   5 -20    8.70   43.00
   0   5 -20   -2.00   34.00
  -3   0  21    6.60   42.40
   2   0 -21   10.70   42.20
   2   0 -21  -96.19   41.60
  -2   0  21  -20.90   41.00
   1   0 -21   11.60   38.60
   1   0 -21   49.90   45.10
   0   0 -21  -62.59   36.80
   0   0 -21   10.90   35.60
  -3  -1  21   32.70   43.40
  -3   1  21   23.20   44.70
  -2  -1  21   49.00   48.10
   2  -1 -21   28.00   47.30
  -2   1  21   -8.40   44.40
   2   1 -21   87.19   47.60
   1  -1 -21  -20.70   35.90
  -1  -1  21    1.10   44.50
   1  -1 -21  -45.10   40.60
   1   1 -21  -48.20   34.10
   1   1 -21  -42.50   39.50
   0  -1 -21  -28.70   33.40
   0  -1 -21  -44.80   34.50
   0   1 -21  -27.90   33.90
   0   1 -21   -3.10   44.10
  -3  -2  21   -2.20   45.00
   3  -2 -21   19.10   43.40
  -3   2  21   16.60   46.90
  -2  -2  21  -12.50   43.10
   2  -2 -21  -32.80   41.60
   2   2 -21  -58.29   43.00
  -2   2  21    2.20   40.90
   1  -2 -21   -4.90   38.20
  -1  -2  21   36.40   47.50
   1  -2 -21  -26.30   35.50
   1   2 -21    1.90   43.90
   1   2 -21   11.40   40.20
   0  -2 -21   25.00   46.00
   0  -2 -21   -8.30   35.70
   0   2 -21   26.20   38.00
   0   2 -21   27.20   45.50
  -2  -3  21  -42.10   39.60
   2  -3 -21   -3.20   43.60
   1  -3 -21   -1.90   46.20
  -1  -3  21   73.79   52.29
   1  -3 -21   12.70   40.50
   1   3 -21  -49.80   36.90
   1   3 -21  -29.10   38.80
   0   0   0    0.00    0.00




_computing_structure_solution     'SHELXT 2014/5 (Sheldrick, 2014)'
_computing_structure_solution     'SHELXT 2014/5 (Sheldrick, 2014)'
_computing_structure_solution     'SHELXT 2014/5 (Sheldrick, 2014)'
_computing_structure_solution     'SHELXT 2014/5 (Sheldrick, 2014)'
;
_shelx_hkl_checksum              87420
_olex2_submission_special_instructions 'No special instructions were received'
loop_
_space_group_symop_operation_xyz
'x, y, z'
'-x+1/2, y+1/2, -z+1/2'
'-x, -y, -z'
'x-1/2, -y-1/2, z-1/2'
loop_
_atom_site_label
_atom_site_type_symbol
_atom_site_fract_x
_atom_site_fract_y
_atom_site_fract_z
_atom_site_U_iso_or_equiv
_atom_site_adp_type
_atom_site_occupancy
_atom_site_site_symmetry_order
_atom_site_calc_flag
_atom_site_refinement_flags_posn
Ag1 Ag 0.79942(12) 0.58209(6) 0.36379(4) 0.0624(4) Uani 1 1 d .
N2 N 0.7414(9) 0.4228(5) 0.3995(4) 0.0411(17) Uani 1 1 d .
N6 N 0.6820(11) 0.1912(6) 0.2318(5) 0.049(2) Uani 1 1 d .
C3 C 0.7156(12) 0.3414(7) 0.3450(5) 0.040(2) Uani 1 1 d .
C4 C 0.6626(13) 0.3658(7) 0.2723(6) 0.050(3) Uani 1 1 d .
H4 H 0.637280 0.434487 0.258467 0.060 Uiso 1 1 calc R
C5 C 0.6448(13) 0.2906(8) 0.2176(5) 0.052(3) Uani 1 1 d .
H5 H 0.604299 0.310416 0.167428 0.062 Uiso 1 1 calc R
C7 C 0.7377(14) 0.1693(7) 0.3049(6) 0.057(3) Uani 1 1 d .
H7 H 0.768547 0.100767 0.317407 0.068 Uiso 1 1 calc R
C8 C 0.7536(12) 0.2379(8) 0.3627(5) 0.056(3) Uani 1 1 d .
H8 H 0.788861 0.216349 0.412679 0.067 Uiso 1 1 calc R
C9 C 0.7258(11) 0.4011(7) 0.4683(5) 0.044(2) Uani 1 1 d .
H9 H 0.691851 0.334077 0.479614 0.053 Uiso 1 1 calc R
C10 C 0.7585(11) 0.4760(7) 0.5282(5) 0.042(2) Uani 1 1 d .
H10 H 0.789890 0.543393 0.516698 0.051 Uiso 1 1 calc R
C11 C 0.7460(12) 0.4531(7) 0.5995(5) 0.046(2) Uani 1 1 d .
H11 H 0.712002 0.385151 0.608043 0.055 Uiso 1 1 calc R
C12 C 0.7781(12) 0.5199(8) 0.6660(6) 0.046(3) Uani 1 1 d .
C13 C 0.7939(15) 0.4811(8) 0.7377(7) 0.067(3) Uani 1 1 d .
H13 H 0.779638 0.410358 0.744629 0.080 Uiso 1 1 calc R
C14 C 0.8306(18) 0.5452(11) 0.7999(7) 0.086(4) Uani 1 1 d .
H14 H 0.841993 0.516817 0.848134 0.103 Uiso 1 1 calc R
C15 C 0.8502(15) 0.6475(12) 0.7924(7) 0.078(4) Uani 1 1 d .
H15 H 0.873511 0.689469 0.835160 0.093 Uiso 1 1 calc R
C16 C 0.8360(14) 0.6905(9) 0.7217(7) 0.071(3) Uani 1 1 d .
H16 H 0.850791 0.761393 0.716129 0.085 Uiso 1 1 calc R
C17 C 0.7983(13) 0.6252(8) 0.6572(6) 0.053(3) Uani 1 1 d .
H17 H 0.787316 0.653367 0.608951 0.064 Uiso 1 1 calc R
O18 O 0.9212(11) 0.7310(6) 0.4673(4) 0.079(2) Uani 1 1 d .
O19 O 0.6053(11) 0.7135(6) 0.4354(4) 0.083(2) Uani 1 1 d .
C20 C 0.751(2) 0.7578(8) 0.4645(5) 0.057(3) Uani 1 1 d .
F3 F 0.7230(19) 0.9381(6) 0.4556(6) 0.181(5) Uani 1 1 d .
F4 F 0.8430(17) 0.8828(7) 0.5602(5) 0.189(5) Uani 1 1 d .
C0AA C 0.727(3) 0.8615(11) 0.4990(9) 0.094(4) Uani 1 1 d .
F6 F 0.5584(18) 0.8718(8) 0.5183(8) 0.221(6) Uani 1 1 d .
loop_
_atom_site_aniso_label
_atom_site_aniso_U_11
_atom_site_aniso_U_22
_atom_site_aniso_U_33
_atom_site_aniso_U_23
_atom_site_aniso_U_13
_atom_site_aniso_U_12
Ag1 0.0954(6) 0.0387(5) 0.0550(5) 0.0054(5) 0.0181(4) 0.0020(5)
N2 0.037(4) 0.044(5) 0.041(5) -0.005(5) 0.006(4) 0.001(4)
N6 0.057(6) 0.035(5) 0.053(6) 0.000(4) 0.009(4) 0.004(4)
C3 0.042(6) 0.038(7) 0.038(7) -0.008(5) 0.004(5) -0.001(5)
C4 0.065(7) 0.031(6) 0.056(7) -0.002(6) 0.019(6) 0.001(5)
C5 0.055(7) 0.058(8) 0.041(6) 0.009(6) 0.007(5) 0.002(6)
C7 0.087(8) 0.030(6) 0.052(7) -0.005(6) 0.008(6) 0.001(5)
C8 0.063(7) 0.059(7) 0.044(6) 0.002(6) 0.003(5) -0.007(6)
C9 0.031(5) 0.038(6) 0.062(7) -0.009(6) 0.004(5) -0.002(5)
C10 0.045(6) 0.039(6) 0.041(6) 0.001(5) 0.002(5) -0.001(5)
C11 0.040(6) 0.040(6) 0.055(7) -0.004(5) 0.004(5) 0.001(5)
C12 0.042(6) 0.046(7) 0.052(8) 0.002(6) 0.015(5) -0.001(5)
C13 0.078(8) 0.064(8) 0.057(8) 0.009(7) 0.008(6) 0.003(6)
C14 0.115(11) 0.097(10) 0.044(8) -0.006(8) 0.014(7) 0.010(9)
C15 0.061(8) 0.114(12) 0.053(9) -0.026(9) -0.003(7) 0.007(8)
C16 0.061(8) 0.067(8) 0.086(9) -0.023(8) 0.020(7) -0.010(6)
C17 0.048(6) 0.063(7) 0.049(7) -0.005(6) 0.013(5) 0.006(6)
O18 0.072(6) 0.090(6) 0.070(5) 0.001(4) 0.002(4) 0.027(5)
O19 0.078(6) 0.064(5) 0.100(6) -0.008(4) -0.005(5) -0.018(5)
C20 0.086(10) 0.045(8) 0.039(7) 0.008(6) 0.011(7) 0.013(8)
F3 0.325(15) 0.048(5) 0.160(9) -0.001(5) 0.014(9) 0.005(6)
F4 0.242(11) 0.132(8) 0.152(8) -0.100(6) -0.078(8) 0.074(7)
C0AA 0.125(13) 0.074(11) 0.086(11) -0.035(9) 0.023(10) 0.016(10)
F6 0.201(11) 0.151(9) 0.353(17) -0.118(10) 0.161(12) 0.005(7)
loop_
_atom_type_symbol
_atom_type_description
_atom_type_scat_dispersion_real
_atom_type_scat_dispersion_imag
_atom_type_scat_source
C C 0.0033 0.0016 'International Tables Vol C Tables 4.2.6.8 and 6.1.1.4'
H H 0.0000 0.0000 'International Tables Vol C Tables 4.2.6.8 and 6.1.1.4'
Ag Ag -0.8971 1.1015 'International Tables Vol C Tables 4.2.6.8 and 6.1.1.4'
F F 0.0171 0.0103 'International Tables Vol C Tables 4.2.6.8 and 6.1.1.4'
N N 0.0061 0.0033 'International Tables Vol C Tables 4.2.6.8 and 6.1.1.4'
O O 0.0106 0.0060 'International Tables Vol C Tables 4.2.6.8 and 6.1.1.4'
loop_
_geom_angle_atom_site_label_1
_geom_angle_atom_site_label_2
_geom_angle_atom_site_label_3
_geom_angle
_geom_angle_site_symmetry_3
N2 Ag1 N6 147.6(3) 2_655
C3 N2 Ag1 119.7(6) .
C9 N2 Ag1 122.0(6) .
C9 N2 C3 118.3(8) .
C5 N6 Ag1 119.8(7) 2_645
C5 N6 C7 114.1(8) .
C7 N6 Ag1 125.0(6) 2_645
C4 C3 N2 118.5(9) .
C4 C3 C8 117.5(9) .
C8 C3 N2 123.9(9) .
C3 C4 H4 119.7 .
C3 C4 C5 120.5(9) .
C5 C4 H4 119.7 .
N6 C5 C4 124.0(9) .
N6 C5 H5 118.0 .
C4 C5 H5 118.0 .
N6 C7 H7 117.1 .
N6 C7 C8 125.9(9) .
C8 C7 H7 117.1 .
C3 C8 H8 121.0 .
C7 C8 C3 118.0(9) .
C7 C8 H8 121.0 .
N2 C9 H9 118.6 .
N2 C9 C10 122.7(9) .
C10 C9 H9 118.6 .
C9 C10 H10 118.6 .
C11 C10 C9 122.7(9) .
C11 C10 H10 118.6 .
C10 C11 H11 115.5 .
C10 C11 C12 128.9(9) .
C12 C11 H11 115.5 .
C13 C12 C11 121.9(10) .
C13 C12 C17 118.5(10) .
C17 C12 C11 119.6(9) .
C12 C13 H13 119.6 .
C12 C13 C14 120.9(10) .
C14 C13 H13 119.6 .
C13 C14 H14 119.3 .
C15 C14 C13 121.4(11) .
C15 C14 H14 119.3 .
C14 C15 H15 120.0 .
C14 C15 C16 120.0(11) .
C16 C15 H15 120.0 .
C15 C16 H16 120.5 .
C15 C16 C17 119.1(11) .
C17 C16 H16 120.5 .
C12 C17 C16 120.1(10) .
C12 C17 H17 119.9 .
C16 C17 H17 119.9 .
O18 C20 C0AA 114.5(12) .
O19 C20 O18 128.4(11) .
O19 C20 C0AA 117.0(12) .
F3 C0AA C20 116.2(12) .
F3 C0AA F4 107.8(14) .
F3 C0AA F6 99.4(14) .
F4 C0AA C20 116.5(13) .
F4 C0AA F6 102.6(13) .
F6 C0AA C20 112.2(13) .
loop_
_geom_bond_atom_site_label_1
_geom_bond_atom_site_label_2
_geom_bond_distance
_geom_bond_site_symmetry_2
Ag1 N2 2.215(7) .
Ag1 N6 2.241(7) 2_655
N2 C3 1.426(10) .
N2 C9 1.288(10) .
N6 C5 1.327(10) .
N6 C7 1.331(10) .
C3 C4 1.329(11) .
C3 C8 1.391(12) .
C4 H4 0.9300 .
C4 C5 1.373(12) .
C5 H5 0.9300 .
C7 H7 0.9300 .
C7 C8 1.353(11) .
C8 H8 0.9300 .
C9 H9 0.9300 .
C9 C10 1.434(11) .
C10 H10 0.9300 .
C10 C11 1.329(11) .
C11 H11 0.9300 .
C11 C12 1.459(12) .
C12 C13 1.367(12) .
C12 C17 1.380(12) .
C13 H13 0.9300 .
C13 C14 1.377(13) .
C14 H14 0.9300 .
C14 C15 1.339(15) .
C15 H15 0.9300 .
C15 C16 1.372(13) .
C16 H16 0.9300 .
C16 C17 1.418(12) .
C17 H17 0.9300 .
O18 C20 1.228(12) .
O19 C20 1.206(12) .
C20 C0AA 1.498(15) .
F3 C0AA 1.256(14) .
F4 C0AA 1.275(14) .
C0AA F6 1.291(15) .
loop_
_geom_torsion_atom_site_label_1
_geom_torsion_atom_site_label_2
_geom_torsion_atom_site_label_3
_geom_torsion_atom_site_label_4
_geom_torsion
_geom_torsion_site_symmetry_1
Ag1 N2 C3 C4 -22.2(10) .
Ag1 N2 C3 C8 153.9(7) .
Ag1 N2 C9 C10 -4.7(11) .
Ag1 N6 C5 C4 -168.6(7) 2_645
Ag1 N6 C7 C8 170.0(7) 2_645
N2 C3 C4 C5 176.9(8) .
N2 C3 C8 C7 -174.9(8) .
N2 C9 C10 C11 -178.7(8) .
N6 C7 C8 C3 -2.5(15) .
C3 N2 C9 C10 176.8(7) .
C3 C4 C5 N6 -1.6(15) .
C4 C3 C8 C7 1.2(13) .
C5 N6 C7 C8 1.6(14) .
C7 N6 C5 C4 0.5(14) .
C8 C3 C4 C5 0.6(14) .
C9 N2 C3 C4 156.3(8) .
C9 N2 C3 C8 -27.6(12) .
C9 C10 C11 C12 178.9(8) .
C10 C11 C12 C13 -168.0(9) .
C10 C11 C12 C17 10.3(14) .
C11 C12 C13 C14 177.8(9) .
C11 C12 C17 C16 -177.9(8) .
C12 C13 C14 C15 0.6(19) .
C13 C12 C17 C16 0.4(14) .
C13 C14 C15 C16 -1(2) .
C14 C15 C16 C17 0.7(18) .
C15 C16 C17 C12 -0.5(15) .
C17 C12 C13 C14 -0.5(16) .
O18 C20 C0AA F3 88.7(17) .
O18 C20 C0AA F4 -40.1(18) .
O18 C20 C0AA F6 -157.9(13) .
O19 C20 C0AA F3 -88.6(17) .
O19 C20 C0AA F4 142.7(14) .
O19 C20 C0AA F6 24.9(18) .
