#------------------------------------------------------------------------------
#$Date: 2018-07-04 06:20:46 +0300 (Wed, 04 Jul 2018) $
#$Revision: 208816 $
#$URL: file:///home/coder/svn-repositories/cod/cif/4/12/66/4126609.cif $
#------------------------------------------------------------------------------
#
# This file is available in the Crystallography Open Database (COD),
# http://www.crystallography.net/
#
# All data on this site have been placed in the public domain by the
# contributors.
#
data_4126609
loop_
_publ_author_name
'Bachman, Jonathan E.'
'Kapelewski, Matthew T.'
'Reed, Douglas A.'
'Gonzalez, Miguel I.'
'Long, Jeffrey R.'
_publ_section_title
;
 M2(m-dobdc) (M = Mn, Fe, Co, Ni) Metal-Organic Frameworks as
 Highly-Selective, High-Capacity Adsorbents for Olefin/Paraffin
 Separations.
;
_journal_name_full               'Journal of the American Chemical Society'
_journal_paper_doi               10.1021/jacs.7b06397
_journal_year                    2017
_chemical_formula_moiety         'Co2 (C8 H2 O6), 2(C2 H4)'
_chemical_formula_sum            'C12 H10 Co2 O6'
_chemical_formula_weight         362.02
_space_group_crystal_system      trigonal
_space_group_IT_number           160
_space_group_name_Hall           'R 3 -2"'
_space_group_name_H-M_alt        'R 3 m :H'
_atom_sites_solution_hydrogens   geom
_atom_sites_solution_primary     'intrinsic phasing'
_atom_sites_solution_secondary   difmap
_audit_creation_date             2017-05-15
_audit_creation_method
;
Olex2 1.2
(compiled 2017.03.28 svn.r3405 for OlexSys, GUI svn.r5335)
;
_cell_angle_alpha                90
_cell_angle_beta                 90
_cell_angle_gamma                120
_cell_formula_units_Z            9
_cell_length_a                   25.751(4)
_cell_length_b                   25.751(4)
_cell_length_c                   6.8192(11)
_cell_measurement_reflns_used    3795
_cell_measurement_temperature    100(2)
_cell_measurement_theta_max      32.23
_cell_measurement_theta_min      3.89
_cell_volume                     3916.1(11)
_computing_cell_refinement       'SAINT v8.34A (Bruker, 2013)'
_computing_data_collection       'Bruker APEX3'
_computing_data_reduction        'SAINT v8.34A (Bruker, 2013)'
_computing_molecular_graphics    'Olex2 (Dolomanov et al., 2009)'
_computing_publication_material  'Olex2 (Dolomanov et al., 2009)'
_computing_structure_refinement  'ShelXL (Sheldrick, 2015)'
_computing_structure_solution    'SHELXT 2014/5 (Sheldrick, 2014)'
_diffrn_ambient_temperature      100(2)
_diffrn_detector_area_resol_mean 10.42
_diffrn_measured_fraction_theta_full 0.999
_diffrn_measured_fraction_theta_max 0.998
_diffrn_measurement_device_type  'Bruker D8 with PHOTON100 CMOS detector'
_diffrn_measurement_method       '\f and \w shutterless scans'
_diffrn_radiation_monochromator  'silicon 111'
_diffrn_radiation_type           synchrotron
_diffrn_radiation_wavelength     0.8856
_diffrn_reflns_av_R_equivalents  0.0738
_diffrn_reflns_av_unetI/netI     0.0672
_diffrn_reflns_Laue_measured_fraction_full 0.999
_diffrn_reflns_Laue_measured_fraction_max 0.998
_diffrn_reflns_limit_h_max       30
_diffrn_reflns_limit_h_min       -30
_diffrn_reflns_limit_k_max       30
_diffrn_reflns_limit_k_min       -30
_diffrn_reflns_limit_l_max       8
_diffrn_reflns_limit_l_min       -8
_diffrn_reflns_number            6619
_diffrn_reflns_point_group_measured_fraction_full 0.963
_diffrn_reflns_point_group_measured_fraction_max 0.959
_diffrn_reflns_theta_full        32.097
_diffrn_reflns_theta_max         32.231
_diffrn_reflns_theta_min         3.415
_diffrn_source                   'Advanced Light Source station 11.3.1'
_diffrn_standards_number         0
_exptl_absorpt_coefficient_mu    3.485
_exptl_absorpt_correction_T_max  0.988
_exptl_absorpt_correction_T_min  0.611
_exptl_absorpt_correction_type   multi-scan
_exptl_absorpt_process_details
;
SADABS-2014/5 (Bruker,2014) was used for absorption correction.
wR2(int) was 0.1382 before and 0.1000 after correction.
The Ratio of minimum to maximum transmission is 0.6187.
The \l/2 correction factor is Not present.
;
_exptl_crystal_colour            pink
_exptl_crystal_colour_primary    pink
_exptl_crystal_density_diffrn    1.374
_exptl_crystal_density_method    'not measured'
_exptl_crystal_description       needle
_exptl_crystal_F_000             1584
_exptl_crystal_size_max          0.18
_exptl_crystal_size_mid          0.0036
_exptl_crystal_size_min          0.0036
_refine_diff_density_max         0.569
_refine_diff_density_min         -0.392
_refine_diff_density_rms         0.092
_refine_ls_abs_structure_details
;
 Flack x determined using 625 quotients [(I+)-(I-)]/[(I+)+(I-)]
 (Parsons, Flack and Wagner, Acta Cryst. B69 (2013) 249-259).
;
_refine_ls_abs_structure_Flack   0.14(2)
_refine_ls_extinction_method     none
_refine_ls_goodness_of_fit_ref   1.078
_refine_ls_hydrogen_treatment    constr
_refine_ls_matrix_type           full
_refine_ls_number_parameters     94
_refine_ls_number_reflns         1642
_refine_ls_number_restraints     5
_refine_ls_restrained_S_all      1.088
_refine_ls_R_factor_all          0.0537
_refine_ls_R_factor_gt           0.0456
_refine_ls_shift/su_max          0.000
_refine_ls_shift/su_mean         0.000
_refine_ls_structure_factor_coef Fsqd
_refine_ls_weighting_details
'w=1/[\s^2^(Fo^2^)+(0.0564P)^2^+5.2548P] where P=(Fo^2^+2Fc^2^)/3'
_refine_ls_weighting_scheme      calc
_refine_ls_wR_factor_gt          0.1099
_refine_ls_wR_factor_ref         0.1151
_reflns_Friedel_coverage         0.905
_reflns_Friedel_fraction_full    0.926
_reflns_Friedel_fraction_max     0.919
_reflns_number_gt                1478
_reflns_number_total             1642
_reflns_threshold_expression     'I > 2\s(I)'
_cod_data_source_file            ja7b06397_si_002.cif
_cod_data_source_block           mtk011s
_cod_depositor_comments
;
 Updating space group information.

 Antanas Vaitkus,
 2018-07-04

The following automatic conversions were performed:

'_atom_sites_solution_secondary' value 'diffmap' was changed to
'difmap'.

Automatic conversion script
Id: cif_fix_values 4973 2017-02-22 13:04:09Z antanas 
;
_cod_original_cell_volume        3916.1(14)
_cod_database_code               4126609
_shelx_shelxl_version_number     2016/6
_shelx_space_group_comment
;
The symmetry employed for this shelxl refinement is uniquely defined
by the following loop, which should always be used as a source of
symmetry information in preference to the above space-group names.
They are only intended as comments.
;
_shelx_estimated_absorpt_t_max   0.988
_shelx_estimated_absorpt_t_min   0.573
_olex2_refinement_description
;
1. Fixed Uiso
 At 1.2 times of:
  All C(H) groups
2. Restrained distances
 C7-C6
 1.3305 with sigma of 0.005
3. Rigid body (RIGU) restrains
 C7, C6
 with sigma for 1-2 distances of 0.004 and sigma for 1-3 distances of 0.004
4.a Aromatic/amide H refined with riding coordinates:
 C1(H1), C4(H4)
;
_shelx_res_file
;
TITL mtk011s_a.res in R3m
    mtk011s.res
    created by SHELXL-2016/6 at 17:05:42 on 15-May-2017
REM Old TITL MTK011S in R3m #160
REM SHELXT solution in R3m
REM R1 0.078, Rweak 0.033, Alpha 0.003, Orientation as input
REM Flack x = 0.011 ( 0.028 ) from Parsons' quotients
REM Formula found by SHELXT: C5 O4 Co
CELL 0.8856 25.7509 25.7509 6.8192 90 90 120
ZERR 9 0.0042 0.0042 0.0011 0 0 0
LATT -3
SYMM -Y,+X-Y,+Z
SYMM +Y-X,-X,+Z
SYMM -Y,-X,+Z
SYMM +Y-X,+Y,+Z
SYMM +X,+X-Y,+Z
SFAC C H Co O
DISP C 0.006 0.003 18.6
DISP Co 0.308 1.442 7295.6
DISP H -0 0 0.7
DISP O 0.018 0.01 57.9
UNIT 108 18 18 54
DFIX 1.3305 0.005 C7 C6
RIGU C7 C6

L.S. 4
PLAN  20
SIZE 0.18 0.0036 0.0036
TEMP -273.15
FREE Co1 C7
FREE Co1 C6
BOND $H
LIST 6
MORE -1
CONF
fmap 2
acta
REM <olex2.extras>
REM <HklSrc "%./MTK011S.hkl">
REM </olex2.extras>

WGHT    0.056400    5.254800
FVAR       0.19626
CO1   3    0.658118    0.617315    0.473890    11.00000    0.03176    0.03183 =
         0.01945   -0.00088   -0.00081    0.01469
O1    4    0.588154    0.594719    0.662115    11.00000    0.02903    0.03465 =
         0.02458    0.00863    0.00330    0.01171
O3    4    0.614263    0.561674    1.253142    11.00000    0.03939    0.03354 =
         0.01788   -0.00130   -0.00739    0.01071
O2    4    0.645344    0.629256    1.015400    11.00000    0.03867    0.02789 =
         0.01906    0.00259   -0.00396    0.01491
C2    1    0.551308    0.544088    0.756167    11.00000    0.03554    0.03360 =
         0.02642    0.00055   -0.00131    0.01703
C5    1    0.609813    0.577369    1.084179    11.00000    0.03537    0.02939 =
         0.02110   -0.00336   -0.00366    0.01671
C1    1    0.500435    0.499565    0.659512    10.50000    0.03867    0.03867 =
         0.02691    0.00124   -0.00124    0.01587
AFIX  43
H1    2    0.495961    0.504038    0.523307    10.50000   -1.20000
AFIX   0
C3    1    0.560537    0.534029    0.955851    11.00000    0.03541    0.03500 =
         0.02161   -0.00021    0.00025    0.01584
C4    1    0.517843    0.482157    1.049371    10.50000    0.04213    0.04213 =
         0.02275    0.00333   -0.00333    0.02076
AFIX  43
H4    2    0.524352    0.475647    1.182019    10.50000   -1.20000
AFIX   0

C6    1    0.688749    0.550362    0.682950    11.00000    0.09746    0.05975 =
         0.12347   -0.01419    0.03755    0.03306
C7    1    0.663448    0.516727    0.528470    11.00000    0.23555    0.15692 =
         0.08701   -0.00602   -0.03457    0.15270
HKLF 4




REM  mtk011s_a.res in R3m
REM R1 =  0.0456 for    1478 Fo > 4sig(Fo)  and  0.0537 for all    1642 data
REM     94 parameters refined using      5 restraints

END

WGHT      0.0564      5.2731

REM Highest difference peak  0.569,  deepest hole -0.392,  1-sigma level  0.092
Q1    1   0.6695  0.5506  0.5740  11.00000  0.05    0.57
Q2    1   0.7288  0.5696  0.9901  11.00000  0.05    0.51
Q3    1   0.6889  0.5393  0.5356  11.00000  0.05    0.44
Q4    1   0.6584  0.6266  0.3296  11.00000  0.05    0.39
Q5    1   0.6598  0.6190  0.6101  11.00000  0.05    0.37
Q6    1   0.5269  0.4731  0.5795  10.50000  0.05    0.36
Q7    1   0.7177  0.4355  0.1355  10.50000  0.05    0.34
Q8    1   0.6941  0.3883  0.9700  10.50000  0.05    0.32
Q9    1   0.6049  0.3951  0.4818  10.50000  0.05    0.30
Q10   1   0.6193  0.3807  0.1997  10.50000  0.05    0.30
Q11   1   0.5650  0.4350  0.4668  10.50000  0.05    0.28
Q12   1   0.7148  0.5297  0.9780  11.00000  0.05    0.28
Q13   1   0.5973  0.5040  0.9521  11.00000  0.05    0.27
Q14   1   0.4271  0.5729  0.4401  10.50000  0.05    0.27
Q15   1   0.4482  0.5518  0.3159  10.50000  0.05    0.26
Q16   1   0.7164  0.5471  0.2632  11.00000  0.05    0.26
Q17   1   0.6423  0.5068  0.8603  11.00000  0.05    0.26
Q18   1   0.6683  0.5316  0.3563  11.00000  0.05    0.26
Q19   1   0.5956  0.5913  0.5360  11.00000  0.05    0.26
Q20   1   0.6487  0.4759  0.6137  11.00000  0.05    0.25
;
_shelx_res_checksum              30069
_shelx_hkl_file
;
  -3   3   0 9250.58  680.63
   0  -3   0 9762.82  680.63
   3  -3   0 9314.37  680.33
   3   0   0 9838.32  680.53
  -3   0   0 9999.00  680.93
   2   2   0  426.06   31.80
  -4   2   0  480.95   32.00
  -2   4   0  389.16   31.90
   4  -2   0  481.75   32.20
   4  -5   0  963.80   64.79
  -5   4   0  895.61   64.69
   1   4   0  967.00   64.59
  -5   1   0  898.91   64.39
   1   4   0  824.92   64.39
  -4   5   0  867.91   64.59
  -4  -1   0  899.21   64.39
  -1   5   0  877.11   64.49
   5  -4   0  950.20   64.79
   3  -6   0   25.90    6.90
   3   3   0   12.70    6.00
   3   3   0   31.60    6.90
   6  -3   0   30.50    7.60
   0   6   0 3361.96  237.98
  -6   6   0 3385.86  238.18
   5   2   0   13.10    8.50
  -7   2   0    2.10    5.80
   5  -7   0    6.80    7.00
  -2   7   0   16.00    7.10
   7  -5   0   14.80    7.60
  -5  -2   0   12.90    6.10
   4   4   0   38.40    7.20
   4  -8   0   49.20    8.40
  -8   4   0   56.39   10.00
   4   4   0   30.80    8.20
   8  -4   0   49.90    8.90
   7   1   0  923.91   77.59
   1   7   0 1094.59   77.19
   7  -8   0 1126.59   77.59
  -8   1   0 1076.89   76.79
   1   7   0 1017.20   76.79
  -1   8   0 1102.39   77.09
  -7   8   0 1218.68   77.59
   8  -1   0 1013.20   77.79
  -1   8   0  997.70   76.99
   8  -7   0 1138.29   77.49
  -7  -1   0 1111.39   76.89
   6  -9   0  585.24   39.60
  -9   3   0  556.64   38.90
   6   3   0  482.95   40.10
   3   6   0  549.54   39.40
   3   6   0  496.85   38.90
  -3   9   0  527.55   39.40
  -3   9   0  466.45   40.20
  -6  -3   0  532.85   39.20
  -9   9   0 1497.95   93.39
   9  -9   0 1339.67   93.09
  -9   0   0 1161.68   92.59
   0   9   0 1169.38   92.89
   0   9   0 1324.97   92.89
   5   5   0    4.00    6.90
 -10   5   0    7.30    5.80
   5   5   0    0.10    5.80
   5 -10   0    2.20    7.30
  -5  10   0   11.50    7.20
  10  -5   0    4.50    7.60
 -10   8   0   15.40    7.20
 -10   2   0   22.30    5.90
   8   2   0    2.20   13.70
   8 -10   0    7.60    7.50
   2   8   0   23.20    6.60
   2   8   0   16.30    7.00
  10  -2   0    5.40    8.40
  -8  10   0   13.60    8.00
  -2  10   0   26.10    7.80
  -2  10   0   27.60    7.50
  -8  -2   0   17.50    6.40
  10  -8   0   24.20    7.50
   4   7   0  986.90   78.79
   7   4   0 1141.59   78.99
   4   7   0 1118.69   79.49
 -11   4   0 1083.69   79.09
   7 -11   0 1164.68   79.59
  11  -4   0 1165.08   79.69
  -4  11   0 1050.99   79.09
  11  -7   0 1128.59   79.79
  -7  11   0 1057.39   79.59
   1  10   0  572.84   43.70
 -11   1   0  574.94   43.30
   1  10   0  616.24   44.30
  10 -11   0  606.74   44.20
  10   1   0  686.33   45.20
 -11  10   0  481.65   44.70
  11 -10   0  614.04   44.40
  -1  11   0  588.54   44.20
  11  -1   0  492.65   46.30
  -1  11   0  587.84   44.00
 -10  -1   0  602.44   43.70
   6 -12   0  182.48   19.50
   6   6   0  193.28   17.60
   6   6   0  200.68   20.00
  -6  12   0  220.28   18.50
  12  -6   0  147.59   19.80
 -12   9   0  597.24   53.39
   9   3   0  610.94   54.29
 -12   3   0  736.63   52.79
   3   9   0  711.93   52.79
   3   9   0  785.82   53.49
  -9  -3   0  717.43   52.99
  12  -9   0  785.82   53.89
  -9  12   0  717.33   53.79
  -3  12   0  762.62   53.59
  -3  12   0  739.43   52.99
 -12   0   0  681.83   54.59
  12   0   0  622.74   55.59
  12 -12   0  653.63   55.29
   0  12   0  844.02   55.19
 -12  12   0  773.72   56.39
   0  12   0  849.12   54.99
   5   8   0  933.81   67.79
   8 -13   0 1012.90   68.69
 -13   5   0  859.81   68.99
   5 -13   0  798.22   68.49
   8   5   0 1047.30   69.19
   5   8   0  760.42   70.69
 -13   8   0  999.00   68.49
   8   5   0  944.91   67.89
  -8  13   0  921.31   68.29
  13  -8   0  996.30   68.59
  -5  13   0  973.00   68.19
   2  11   0  126.09   14.50
  11   2   0  156.18   19.60
   2  11   0  106.19   16.80
 -13   2   0   89.89   14.60
  11 -13   0  146.29   17.30
 -13  11   0  153.38   17.30
 -11  13   0  152.38   17.60
  -2  13   0  154.38   17.00
  13 -11   0   96.79   16.20
  -2  13   0  131.39   17.50
 -11  -2   0  122.49   16.00
  13  -2   0   92.19   17.20
 -14   7   0 2018.50  150.98
   7   7   0 2026.90  150.68
   7 -14   0 2253.27  151.38
   7   7   0 2196.08  151.68
  14  -7   0 2182.38  151.68
  -7  14   0 2040.40  151.08
 -14  10   0 1396.26  100.09
   4  10   0 1442.56  100.29
  10   4   0 1479.85  101.09
   4  10   0 1352.16  100.49
 -14   4   0 1374.36   99.59
  -4  14   0 1378.26   99.99
 -10  14   0 1278.97  100.19
 -14   1   0  246.98   23.30
   1  13   0  205.78   23.30
 -14  13   0  280.57   24.70
  13   1   0  177.18   25.10
   1  13   0  240.48   22.10
  14  -1   0  188.38   26.00
 -13  14   0  268.37   25.60
  14 -13   0  241.88   23.50
  -1  14   0  244.78   24.30
 -13  -1   0  258.47   23.10
  -1  14   0  281.37   23.60
   9   6   0  353.36   30.00
   9 -15   0  320.87   29.40
   6   9   0  295.17   29.50
 -15   9   0  337.87   28.70
   6   9   0  284.87   27.80
   9   6   0  357.26   28.20
   6 -15   0  374.66   30.00
  -6  15   0  334.17   29.10
  -9  15   0  344.07   28.90
  15  -6   0  352.66   30.40
   3  12   0  598.24   48.30
   3  12   0  679.93   49.60
 -15   3   0  633.14   47.90
  12   3   0  605.04   50.89
  12 -15   0  695.93   49.60
 -12  15   0  595.14   49.30
  -3  15   0  623.54   48.20
  15 -12   0  659.03   49.60
 -12  -3   0  655.23   48.90
  -3  15   0  616.54   49.20
 -15   0   0  399.56   35.40
  15 -15   0  403.36   36.40
   0  15   0  427.96   36.70
  15   0   0  437.16   38.00
 -15  15   0  429.36   36.90
   0  15   0  414.36   35.40
 -16   8   0  637.84   49.80
   8 -16   0  705.33   50.39
   8   8   0  642.04   51.39
   8   8   0  630.54   49.50
  -8  16   0  643.94   50.09
  16  -8   0  674.73   51.49
  11   5   0  597.24   48.50
  11   5   0  577.04   46.40
  11 -16   0  663.83   47.80
 -16   5   0  586.84   46.40
   5  11   0  634.14   46.40
   5 -16   0  480.75   47.20
   5  11   0  647.34   47.80
  16  -5   0  557.34   47.70
  16 -11   0  646.04   47.40
  -5  16   0  642.04   47.10
 -16  14   0  175.58   23.80
  14 -16   0  123.79   22.60
  14   2   0  150.08   26.40
   2  14   0  177.28   21.40
   2  14   0  180.08   23.30
 -16   2   0  181.18   21.20
  16  -2   0  128.99   23.60
  -2  16   0  218.18   22.30
 -14  16   0  185.88   24.70
  16 -14   0  192.18   23.30
  -2  16   0  160.68   24.20
 -14  -2   0  156.28   22.00
   7  10   0 1174.58   90.59
 -17  10   0 1115.49   89.59
  10 -17   0 1328.27   90.49
   7  10   0 1202.38   89.19
   7 -17   0 1412.76   91.89
 -17   7   0 1246.68   89.79
  10   7   0 1214.48   91.19
  10   7   0 1209.98   89.09
 -10  17   0 1185.08   89.69
  -7  17   0 1199.78   89.59
  17 -10   0 1263.27   90.39
  17  -7   0 1184.08   90.19
 -17   4   0  466.45   41.60
  13 -17   0  366.76   35.90
   4  13   0  359.86   34.70
   4  13   0  406.96   36.80
 -17  13   0  421.36   35.90
  13   4   0  437.06   34.90
 -13  17   0  427.76   37.30
  17 -13   0  416.56   37.00
  -4  17   0  405.96   35.80
  16 -17   0   28.30   13.10
  16   1   0   51.79   18.20
   1  16   0   19.50   14.30
   1  16   0   43.60   12.50
 -17  16   0   37.80   14.50
  -1  17   0   32.50   15.40
 -16  17   0   34.00   14.10
 -16  -1   0   26.60   12.90
  -1  17   0   43.50   12.30
  17  -1   0   33.90   17.30
  17 -16   0   46.20   14.50
 -18   9   0  285.37   26.70
   9   9   0  205.98   30.10
   9   9   0  296.07   25.60
   9 -18   0  223.98   26.50
  -9  18   0  317.17   26.50
  18  -9   0  211.18   29.50
   6 -18   0  450.05   49.80
 -18   6   0  465.65   39.60
 -18  12   0  467.95   39.30
   6  12   0  461.55   38.60
   6  12   0  471.25   41.30
  12 -18   0  472.35   40.60
  12   6   0  484.35   42.70
  18  -6   0  505.95   42.30
  -6  18   0  501.25   39.90
 -18   3   0  266.37   27.40
  15 -18   0  228.18   28.60
   3  15   0  251.37   26.30
  15   3   0  223.98   31.40
 -18  15   0  244.48   27.80
   3  15   0  262.87   30.00
  18 -15   0  252.07   27.40
  -3  18   0  264.77   27.10
 -15  18   0  225.58   28.00
   0  18   0  319.87   31.00
 -18   0   0  291.37   31.60
   0  18   0  264.97   34.20
  18 -18   0  317.97   32.20
 -18  18   0  304.57   31.40
  18   0   0  324.07   34.10
   8 -19   0  306.27   30.70
 -19  11   0  280.77   30.80
  11 -19   0  316.47   31.60
   8  11   0  334.57   33.50
   8  11   0  318.17   29.30
  11   8   0  313.07   29.60
 -19   8   0  324.57   30.70
 -11  19   0  315.67   31.80
  19 -11   0  296.57   32.60
  -8  19   0  370.66   31.80
 -19   5   0  341.97   32.80
   5  14   0  341.67   35.30
   5  14   0  341.47   31.70
  14   5   0  359.26   36.90
  14   5   0  414.76   32.40
   5 -19   0  377.06   34.10
 -19  14   0  355.96   34.70
  14 -19   0  343.07   33.90
 -14  19   0  382.76   35.40
  19  -5   0  273.57   35.00
  -5  19   0  367.26   33.10
 -19   2   0  185.58   26.60
   2  17   0  208.48   24.50
 -19  17   0  198.48   27.00
  17   2   0  163.88   30.50
   2  17   0  137.39   28.60
  19 -17   0  139.09   24.80
 -17  19   0  187.88   25.90
  19  -2   0  155.88   30.70
  -2  19   0  199.88   25.30
 -20  10   0  569.14   47.10
  10  10   0  546.95   44.70
  10 -20   0  565.74   46.80
  10  10   0  577.74   48.80
 -10  20   0  594.64   46.80
  20 -10   0  529.35   47.50
  13   7   0  226.88   32.90
 -20  13   0  294.57   30.50
  13   7   0  348.27   28.40
   7 -20   0  291.67   30.30
 -20   7   0  252.97   29.80
   7  13   0  269.87   28.50
   7  13   0  268.47   32.10
  13 -20   0  257.67   30.30
  -7  20   0  279.17   28.40
  20 -13   0  252.97   31.70
 -13  20   0  348.47   32.60
  20  -7   0  287.77   30.70
  16 -20   0   11.20   14.60
  16   4   0   30.80   18.50
   4  16   0    7.20   16.50
   4  16   0   31.60   13.80
 -20  16   0   16.70   16.00
   4 -20   0   30.50   13.70
 -20   4   0   35.90   14.10
  -4  20   0   29.70   12.80
  20  -4   0   -7.10   16.30
 -16  20   0   21.60   17.00
  20 -16   0   -5.90   15.10
  19 -20   0   89.69   17.70
 -20  19   0   80.09   18.60
   1  19   0   51.69   19.10
 -20   1   0   84.79   16.70
  19   1   0   81.29   20.20
 -19  20   0  100.79   29.00
  -1  20   0   38.60   18.00
  20  -1   0   73.19   19.30
 -19  -1   0   50.99   17.10
  20 -19   0   60.69   17.00
  -1  20   0  115.09   19.80
  12   9   0  308.87   27.60
   9  12   0  284.67   27.30
 -21  12   0  239.18   30.00
   9  12   0  268.17   32.90
 -21   9   0  215.48   30.70
   9 -21   0  231.38   28.90
  12 -21   0  253.17   30.00
  12   9   0  288.17   34.50
  21  -9   0  227.68   31.80
 -12  21   0  181.18   28.50
  21 -12   0  219.68   29.30
  -9  21   0  282.07   27.50
  15   6   0  110.79   22.60
  15 -21   0  109.29   19.60
 -21  15   0  121.79   24.40
   6  15   0  103.49   20.70
   6  15   0  153.18   21.60
   6 -21   0  111.09   24.90
 -21   6   0  154.48   24.40
  15   6   0  167.48   21.90
  21  -6   0   95.79   24.10
  21 -15   0  106.89   26.80
 -15  21   0  161.98   25.90
  18   3   0  106.49   27.90
   3 -21   0  145.29   24.40
 -21  18   0  154.68   25.60
   3  18   0  194.88   22.80
  18 -21   0  153.58   24.80
 -21   3   0  170.88   26.80
   3  18   0  144.09   29.30
  21  -3   0  108.89   22.90
 -18  21   0  150.48   26.30
  -3  21   0  192.88   24.50
  21   0   0  260.27   33.70
   0  21   0  266.47   28.90
  21 -21   0  296.27   31.20
  11  11   0   69.99   19.30
  11  11   0   91.69   20.50
 -22  11   0  134.09   24.20
  11 -22   0   65.89   16.50
  22 -11   0   28.30   17.70
 -11  22   0  106.09   23.60
   8 -22   0  221.48   28.80
  14   8   0  278.07   27.50
   8  14   0  262.07   33.10
 -22  14   0  263.57   30.40
 -22   8   0  269.87   30.30
   8  14   0  302.77   28.70
  14   8   0  189.88   32.20
  14 -22   0  255.97   30.20
 -14  22   0  241.28   28.60
  -8  22   0  268.07   27.20
   5  17   0  360.86   35.70
 -22  17   0  289.57   33.30
   5  17   0  355.76   30.70
   5 -22   0  252.67   31.90
  17   5   0  242.68   35.40
  17   5   0  371.56   30.00
  17 -22   0  305.87   32.30
  -5  22   0  310.97   29.60
  22 -17   0  311.77   31.30
  22  -5   0  259.97   32.40
 -22  20   0  133.79   27.70
  20 -22   0  133.19   24.90
   2  20   0  149.19   28.30
  20   2   0  130.99   28.10
  22 -20   0  135.69   25.40
  22  -2   0  129.29   28.60
 -20  22   0  126.39   25.30
  -2  22   0  158.18   22.10
  10  13   0  107.39   20.80
 -23  10   0  169.08   25.40
  13  10   0  101.99   21.10
  10 -23   0   90.49   23.00
  13 -23   0  135.89   24.10
  10  13   0  124.99   21.30
 -23  13   0   98.59   24.00
  13  10   0   90.79   20.50
  23 -10   0   92.79   23.90
 -13  23   0  107.39   21.80
 -10  23   0  134.89   20.30
  23 -13   0  113.39   24.70
   7  16   0  412.96   37.40
  16 -23   0  364.76   34.30
  16   7   0  336.97   37.70
   7  16   0  330.17   32.00
   7 -23   0  342.87   33.60
  16   7   0  403.46   32.00
 -23  16   0  310.77   34.50
  23  -7   0  298.07   35.10
  -7  23   0  325.57   31.40
 -16  23   0  292.87   32.60
 -23  19   0  420.66   37.00
   4  19   0  397.56   35.20
  19   4   0  387.86   40.20
  23  -4   0  303.87   37.20
 -19  23   0  388.86   36.90
  23 -19   0  415.66   38.00
  -4  23   0  389.66   34.30
  22   1   0   61.09   19.40
 -23  22   0   78.29   19.30
  22 -23   0  104.29   24.50
   1  22   0   62.59   15.20
  23 -22   0   63.69   17.80
  23  -1   0   74.99   21.40
 -22  23   0  100.29   20.00
  -1  23   0   49.70   14.20
  12  12   0   56.39   18.60
 -24  12   0   38.80   16.40
  12  12   0   37.00   13.40
  12 -24   0   44.90   14.50
 -12  24   0   27.70   14.40
  24 -12   0   34.80   15.20
 -24  15   0    7.60   14.20
   9  15   0    7.60   17.70
 -24   9   0   27.30   15.00
  15   9   0   21.70   12.20
   9 -24   0   -4.80   13.20
  15   9   0    7.20   18.20
   9  15   0   -8.00   12.40
  15 -24   0   29.00   14.70
  24  -9   0    2.10   13.80
  24 -15   0   17.20   15.60
 -15  24   0   16.90   13.00
  -9  24   0   17.50   12.80
 -24  18   0  123.49   25.30
   6  18   0   89.69   16.20
  18 -24   0   95.99   22.70
  18   6   0  111.19   28.50
  -6  24   0   96.89   19.50
  24 -18   0   88.79   21.80
  24  -6   0  100.69   23.90
 -18  24   0  134.69   25.30
   3  21   0  127.69   24.50
 -24  21   0  184.88   29.80
  21 -24   0  180.78   27.80
  21   3   0  166.18   30.60
  -3  24   0  147.29   24.60
  24 -21   0  184.48   28.60
  24  -3   0  145.09   29.40
 -21  24   0  132.69   26.40
  24   0   0  121.19   28.80
 -24  24   0   84.49   22.00
   0  24   0   89.69   18.00
  11 -25   0   13.10   14.70
  14  11   0   19.50   13.30
  14 -25   0   11.70   15.20
  11  14   0   29.30   14.80
 -25  14   0   57.89   17.30
  11  14   0   69.19   19.20
 -25  11   0   50.39   17.70
  14  11   0   42.80   19.50
 -11  25   0   53.19   14.70
 -14  25   0   35.00   13.80
  25 -11   0   18.50   15.30
  25 -14   0   31.50   16.30
  17 -25   0   97.39   18.90
 -25  17   0   81.19   19.10
   8  17   0   64.39   16.50
 -25   8   0  114.09   21.20
  25  -8   0   46.90   17.70
 -17  25   0   76.19   17.80
  25 -17   0   95.69   21.70
  -8  25   0   95.19   19.40
 -25  20   0   55.49   18.00
  20   5   0   72.89   22.20
  20 -25   0   39.40   16.80
   5  20   0   23.60   14.70
  -5  25   0   54.09   14.30
  25  -5   0   42.60   18.70
 -20  25   0   82.39   17.20
  25 -20   0   41.20   17.40
 -25  23   0   20.20   17.50
  23 -25   0   40.00   18.60
  23   2   0   23.40   20.50
   2  23   0    6.80   14.80
  -2  25   0   22.40   15.70
  25 -23   0   37.90   19.70
 -23  25   0   16.80   16.60
  25  -2   0   12.10   19.30
  13  13   0  109.09   19.50
  13  13   0  182.38   31.40
  13 -26   0  133.99   21.40
  26 -13   0  142.79   24.40
 -13  26   0  162.98   23.10
  10  16   0   88.79   18.30
  16 -26   0  131.19   26.20
 -26  16   0  108.39   21.70
 -26  10   0  169.18   29.70
  26 -16   0  109.29   23.90
 -16  26   0  131.99   24.20
 -10  26   0  147.19   21.60
  26 -10   0  119.19   24.30
  19 -26   0  286.17   34.20
 -26  19   0  340.47   37.20
  19   7   0  343.27   38.60
 -19  26   0  294.97   32.20
  26 -19   0  336.07   35.00
  26  -7   0  352.96   37.60
  -7  26   0  276.17   31.60
  22 -26   0  153.08   27.60
 -26  22   0   91.49   20.80
   4  22   0   94.79   19.60
  22   4   0  122.99   25.10
  -4  26   0   79.69   17.80
  26 -22   0  112.79   27.00
 -22  26   0  101.99   23.60
  26  -4   0  127.79   29.50
  25 -26   0   34.70   21.30
 -26  25   0   34.00   19.50
  25   1   0   50.89   21.90
   1  25   0    5.80   16.70
  26  -1   0   46.20   19.70
  -1  26   0   -2.40   16.60
 -25  26   0   15.60   18.90
  26 -25   0   23.80   20.80
 -27  15   0    8.60   19.50
  15 -27   0   44.20   16.80
  27 -15   0   22.50   15.80
 -12  27   0   25.70   14.30
  27 -12   0   18.20   16.30
 -15  27   0   21.10   13.70
  18   9   0  101.19   23.50
  18 -27   0   48.50   17.30
 -27  18   0   72.69   20.50
  -9  27   0   72.29   16.20
  27 -18   0   59.39   19.70
 -18  27   0   47.90   16.40
  27  -9   0   73.39   20.60
  21 -27   0  121.89   27.90
  21   6   0   66.29   23.50
 -27  21   0   46.50   18.90
   6  21   0   21.80   16.20
  27 -21   0   52.29   17.70
  27  -6   0   60.49   20.40
  -6  27   0   48.10   15.00
 -21  27   0   47.80   17.00
 -27  24   0   17.30   18.10
  24 -27   0   54.69   19.20
  24   3   0   26.90   22.20
   3  24   0    0.10   15.60
  -3  27   0   11.10   16.20
  27  -3   0   15.00   20.60
  27 -24   0   55.09   20.60
 -24  27   0   11.40   17.70
 -28  14   0   91.89   23.10
  28 -14   0   57.89   17.50
 -14  28   0   90.79   20.80
  17  11   0   43.60   21.90
  17 -28   0  104.49   24.80
 -17  28   0   41.60   17.10
 -11  28   0   39.00   16.50
  28 -11   0   22.70   17.30
  28 -17   0   57.29   18.90
  20   8   0   13.90   22.00
  20 -28   0   62.39   18.40
 -28  20   0   30.90   19.00
  28  -8   0   28.10   18.10
 -20  28   0   36.40   16.10
  -8  28   0   25.40   15.10
  28 -20   0   37.80   19.60
  23 -28   0   44.00   20.10
 -28  23   0   39.20   19.20
   5  23   0  -12.20   17.00
  23   5   0   21.90   22.20
  28  -5   0   27.30   18.90
  -5  28   0   23.90   15.80
  28 -23   0   35.70   20.90
 -23  28   0   28.60   16.80
 -13  29   0   37.90   15.60
  29 -13   0   59.39   19.30
  29 -16   0   31.30   17.50
 -16  29   0   41.10   15.10
  19  10   0  111.79   24.80
  19 -29   0   61.19   19.50
  29 -19   0   68.19   20.10
  29 -10   0   64.19   20.50
 -19  29   0   69.89   17.10
 -10  29   0   47.60   16.50
   7  22   0   24.90   19.10
 -29  22   0   75.79   21.00
  22   7   0   54.59   24.00
  22 -29   0   71.29   21.70
  -7  29   0   98.49   21.80
  29 -22   0   53.89   19.90
  29  -7   0   84.59   23.10
 -22  29   0   53.59   17.50
  30 -15   0   36.10   18.80
 -15  30   0   11.10   14.90
  18  12   0   26.60   32.60
 -30  18   0   62.29   24.40
  30 -18   0   18.70   16.50
  30 -12   0   39.00   19.20
 -18  30   0   59.59   17.70
 -12  30   0   25.40   15.00
 -30  21   0   61.29   22.40
  21   9   0   42.20   23.20
  21 -30   0   46.70   21.60
  30 -21   0   57.59   21.50
  30  -9   0   72.89   22.50
  -9  30   0   45.00   17.70
 -21  30   0   34.00   16.50
  -1   1   1  748.63   54.19
   1   0   1  702.03   54.29
   0  -1   1  796.42   54.19
   0  -1   1  784.62   53.99
   1   0   1  731.63   53.79
  -1   1   1  795.02   54.19
   0   2   1 1223.08   84.89
   0   2   1 1277.27   85.59
   2  -2   1 1275.67   85.09
  -2   2  -1 1040.00   84.89
  -2   0   1 1191.78   85.19
  -3   2   1  425.76   30.60
   2   1   1  401.16   29.50
  -3   1  -1  416.76   29.60
   1  -3   1  388.16   29.70
  -3   2   1  373.06   30.70
  -1  -2   1  412.36   30.70
  -2   3   1  426.36   31.20
   3  -1   1  444.56   30.80
  -2   3   1  416.16   30.40
  -1   3  -1  445.86   30.60
  -4   4   1 3006.70  212.68
   4   0   1 3019.10  212.88
  -4   3  -1  593.14   40.60
   1   3   1  469.85   42.10
   1   3   1  609.24   40.60
   3   1  -1  498.75   40.70
   3  -4   1  644.24   40.90
  -4   1   1  634.84   41.60
  -1   4   1  624.94   41.00
   4  -1  -1  467.75   41.30
   4  -3   1  490.35   41.40
  -3  -1   1  612.54   41.60
  -3   4  -1  562.34   40.90
   2   3  -1 1054.39   76.59
   2  -5   1 1079.39   76.59
  -5   2  -1  996.40   76.59
   3   2   1 1177.58   78.49
  -5   3   1 1126.09   77.79
  -3   5   1 1108.29   77.59
   5  -2   1 1183.98   78.09
  -2   5  -1  935.31   77.49
  -2  -3   1 1065.19   77.89
   5  -3  -1 1080.19   78.09
  -3   5   1 1131.39   78.49
  -5   5  -1  658.63   43.60
   0   5   1  572.34   45.20
   5  -5   1  552.14   43.80
  -6   5   1 1008.00   75.99
   1   5  -1 1057.89   74.39
   1   5  -1 1106.09   76.19
  -1   6  -1 1082.29   75.79
   6  -5  -1 1022.70   76.89
   2   4   1  845.02   58.39
   4   2  -1  701.73   56.39
   4  -6   1  819.72   56.49
   2   4   1  778.72   56.29
  -6   2   1  754.72   57.79
  -6   4  -1  783.52   56.29
  -4  -2   1  743.03   57.39
   6  -4   1  807.32   57.29
  -2   6   1  884.71   57.39
   6  -2  -1  770.92   57.39
  -4   6  -1  790.72   56.89
  -2   6   1  761.22   57.69
   7   0   1 1285.87   93.99
  -7   0  -1 1457.75   91.89
   7  -7  -1 1222.18   94.19
   0   7  -1 1375.46   93.29
  -7   7   1 1168.98   93.59
  -7   4   1 3054.79  193.48
   4   3   1 2538.15  193.68
  -4   7   1 2482.85  193.58
   7  -3   1 2714.63  193.68
  -3  -4   1 2854.31  193.58
  -3   7  -1 2988.30  193.18
  -4   7   1 2493.45  193.58
   6   1  -1  514.45   36.80
  -7   6  -1  458.55   36.70
   1   6   1  496.05   36.80
   6  -7   1  522.25   37.00
  -7   1   1  472.75   37.80
   7  -1  -1  525.05   37.30
  -6  -1   1  471.35   37.90
  -1   7   1  462.55   38.10
  -1   7   1  510.65   37.50
   7  -6   1  530.45   37.60
  -6   7  -1  492.25   37.20
  -8   2  -1 1274.77   94.69
   6   2   1 1379.06   94.49
  -8   6   1 1374.96   96.19
   2   6  -1 1163.68   94.79
   2  -8   1 1523.15   94.59
   6  -8  -1 1377.96   96.79
   6   2   1 1414.66   96.79
   2   6  -1 1216.48   95.99
   3   5   1  168.98   18.30
  -8   5  -1  182.28   15.20
   3   5   1  183.38   15.70
  -5  -3   1  207.08   18.60
  -5   8  -1  162.58   16.70
   8  -3  -1  178.48   17.60
  -8   0   1  125.59   14.60
   8  -8   1  146.99   15.00
   0   8   1  110.39   14.90
   8   0  -1  161.28   14.60
   0   8   1  141.79   17.50
  -8   8  -1  134.69   13.80
  -9   8   1  120.59   17.90
   1   8  -1  172.18   16.50
  -9   1  -1  181.48   12.90
   1   8  -1  177.68   13.40
   8  -9  -1  155.98   19.10
  -8   9   1  137.49   17.00
   9  -1   1  123.09   18.10
  -1   9  -1  169.48   17.50
   9  -8  -1  189.68   17.70
   5   4   1  953.80   75.79
  -9   4  -1 1116.49   76.09
   4   5  -1  974.00   76.19
   4  -9   1 1070.09   75.89
  -4   9  -1 1092.59   76.99
   9  -5  -1 1206.28   77.59
   9  -4   1 1055.09   77.39
  -5   9   1 1083.59   77.39
   2   7   1 1207.48   94.99
   7   2  -1 1442.76   94.09
  -9   7  -1 1340.87   93.89
   7  -9   1 1351.66   93.99
   2   7   1 1228.38   93.79
  -9   2   1 1339.17   94.59
  -7   9  -1 1294.57   93.99
  -2   9   1 1243.98   94.59
  -7  -2   1 1354.96   94.69
   9  -2  -1 1350.86   94.39
  -2   9   1 1319.97   94.79
  10 -10  -1  252.67   23.00
 -10   0  -1  244.78   19.00
   0  10  -1  233.98   23.80
   7   3   1 1624.84  112.99
   3   7  -1 1545.15  114.49
 -10   3  -1 1534.85  113.29
   7   3   1 1823.02  115.39
 -10   7   1 1666.63  114.49
   3   7  -1 1418.56  113.39
  10  -7  -1 1690.63  114.89
  -7  10   1 1363.56  114.79
  -3  10  -1 1501.35  114.09
  10  -3   1 1853.41  115.29
   4   6   1 2039.40  137.59
   6 -10   1 2022.40  136.29
   4   6   1 1901.61  136.19
 -10   6  -1 1896.41  136.39
 -10   4   1 1990.10  137.29
  -6  10  -1 1756.82  136.59
  10  -4  -1 1843.32  136.89
  10  -6   1 2013.20  137.29
  -6  -4   1 1839.92  137.09
  -4  10   1 1933.71  137.59
   9   1  -1   40.00    8.10
 -10   9  -1   47.30   10.40
   1   9   1   21.10    7.30
   9 -10   1   28.60    9.30
   1   9   1   22.60    9.50
 -10   1   1   12.90    7.30
  -1  10   1   21.50    7.50
  -9  10  -1   33.60    7.90
  -1  10   1   12.90    8.50
  -9  -1   1   22.60    8.50
  10  -1  -1   23.40    7.70
  10  -9   1   24.10    7.80
   2   9  -1  646.34   45.00
 -11   9   1  539.95   46.80
   9   2   1  703.83   44.30
   2 -11   1  603.44   44.60
 -11   2  -1  606.84   44.60
  11  -2   1  602.94   48.00
  -2  11  -1  607.24   46.30
   6   5   1  112.89   11.00
   5   6  -1   94.69   15.30
 -11   5  -1  106.49   11.90
   5 -11   1  102.59   11.20
   5   6  -1   79.09   12.20
 -11   6   1  129.89   15.00
   6   5   1  116.69   16.80
  11  -6  -1  115.59   16.50
  -5  11  -1  121.49   21.20
  11  -5   1   99.29   16.30
   8   3  -1  310.47   26.30
   8 -11   1  342.07   26.10
   3   8   1  319.97   28.60
 -11   8  -1  359.46   26.30
   3   8   1  298.77   26.00
 -11   3   1  310.57   26.70
  -8  11  -1  331.07   26.40
  -8  -3   1  301.57   27.40
  11  -3  -1  354.86   27.40
  11  -8   1  356.06   27.90
  -3  11   1  299.77   27.70
 -11   0   1 1877.71  122.19
 -11  11  -1 1709.73  122.29
  11   0  -1 1857.71  121.89
   0  11   1 1787.72  121.49
  11 -11   1 1528.65  121.49
   0  11   1 1429.26  122.19
   1  11  -1  130.49   12.90
 -12  11   1  125.89   17.40
  11 -12  -1  114.99   18.90
   1 -12   1  107.29   12.40
  11   1   1  117.29   20.50
   1  11  -1  114.19   16.10
  12  -1   1  123.59   21.00
  12 -11  -1   87.89   17.30
  -1  12  -1  136.09   17.40
 -11  12   1  125.59   17.60
 -12   4  -1  425.36   29.60
   8   4   1  332.87   28.80
   4 -12   1  351.36   29.20
 -12   8   1  320.67   31.20
   4   8  -1  434.16   30.10
   4   8  -1  404.76   33.60
  12  -8  -1  438.36   32.10
  -4  12  -1  419.96   32.10
  -8  12   1  400.86   32.90
 -12   5   1  853.21   61.49
   7 -12   1  829.22   60.09
   7   5  -1  905.81   60.79
   5   7   1  792.42   59.79
 -12   7  -1  819.02   60.09
   5   7   1  834.22   61.99
  -7  -5   1  773.02   61.39
  -5  12   1  801.92   61.99
  -7  12  -1  768.62   60.49
  12  -7   1  903.31   62.09
 -12  10  -1  955.30   67.29
 -12   2   1  846.32   67.29
  10 -12   1  970.40   67.09
   2  10   1  936.31   66.99
  10   2  -1  973.60   67.49
  12  -2  -1  961.00   67.69
  -2  12   1  893.91   67.89
 -10  12  -1  907.51   67.19
 -10  -2   1  882.11   67.69
  -2  12   1  843.02   68.09
 -13   0  -1  563.14   39.60
  13   0   1  513.85   43.90
 -13  13   1  529.35   43.70
  13 -13  -1  495.55   43.30
   0  13  -1  564.64   41.60
   0  13  -1  506.65   39.60
  10 -13  -1  384.66   30.50
   3  10  -1  354.66   26.50
 -13  10   1  311.37   28.50
   3  10  -1  317.77   29.20
  10   3   1  304.37   25.10
 -13   3  -1  332.67   25.70
   3 -13   1  320.07   25.60
  13 -10  -1  357.86   29.30
 -10  13   1  318.37   29.60
  -3  13  -1  348.67   29.10
  13  -3   1  341.77   30.70
   7   6   1  114.09   18.20
   7   6   1   83.69   11.70
   6 -13   1   96.89   12.30
 -13   7   1  103.49   15.00
   7 -13  -1  107.39   19.20
   6   7  -1   89.79   19.80
 -13   6  -1  109.69   12.70
   6   7  -1  101.79   14.30
  -7  13   1  123.19   18.60
  13  -7  -1  126.99   17.50
  -6  13  -1  120.89   15.50
   9 -13   1  281.67   23.10
   9   4  -1  289.17   25.00
   4   9   1  213.18   27.40
 -13   9  -1  289.97   24.60
  13  -9   1  276.37   24.90
  -4  13   1  287.67   26.70
  -9  13  -1  259.27   23.90
  -4  13   1  270.07   24.60
  -9  -4   1  255.87   24.90
  13  -4  -1  278.57   24.50
  12 -13   1  374.26   32.50
 -13   1   1  379.06   32.60
   1  12   1  404.56   31.60
 -13  12  -1  380.46   32.20
  12   1  -1  401.46   32.90
   1  12   1  423.16   34.90
 -12  13  -1  345.47   31.80
  -1  13   1  411.56   32.60
 -12  -1   1  387.06   32.80
  13  -1  -1  399.66   33.00
  -1  13   1  381.76   34.20
  13 -12   1  423.26   33.20
  12   2   1  981.90   71.89
   2  12  -1  916.41   70.29
  12 -14  -1  819.02   71.39
 -14   2  -1 1007.00   68.99
   2  12  -1  936.61   69.09
  12   2   1  950.50   68.29
   2 -14   1  987.10   68.89
  -2  14  -1  911.91   70.19
  14 -12  -1  887.91   71.49
  14  -2   1 1071.09   72.39
 -12  14   1 1033.00   71.69
 -14   9   1   65.09   14.20
   9 -14  -1   53.89   13.50
   9   5   1   64.09    9.70
   5   9  -1   55.59   11.70
   5 -14   1   64.19   10.60
   5   9  -1   46.80   12.20
 -14   5  -1   56.59   11.10
   9   5   1   74.69   17.20
  14  -5   1   74.19   18.80
  -9  14   1   82.09   18.60
  -5  14  -1   65.29   14.20
  14  -9  -1   47.30   12.50
 -14   8  -1  421.46   31.90
   6   8   1  390.16   34.50
   6   8   1  370.56   30.70
   8 -14   1  375.16   30.90
 -14   6   1  401.76   33.00
  -8  14  -1  402.56   32.60
  14  -6  -1  418.76   33.40
  14  -8   1  385.26   33.30
  11 -14   1 1376.06  117.09
 -14   3   1 1611.14  117.69
 -14  11  -1 1632.14  117.69
   3  11   1 1703.63  117.19
   3  11   1 1770.82  118.79
 -11  14  -1 1581.04  117.29
  -3  14   1 1663.73  117.79
  -3  14   1 1670.83  118.59
  14  -3  -1 1731.23  118.09
 -11  -3   1 1607.84  117.89
  14 -11   1 1635.44  118.09
  14 -14   1 1642.94  117.19
  14   0  -1 1684.93  117.49
   0  14   1 1576.54  117.99
   0  14   1 1646.64  116.79
 -14  14  -1 1548.05  116.89
  14   1   1  307.57   34.30
  14 -15  -1  328.47   32.10
 -15   1  -1  315.67   26.80
   1  14  -1  284.77   27.20
  14   1   1  378.86   25.80
 -15  14   1  318.57   31.10
   1  14  -1  309.17   30.20
   1 -15   1  321.47   26.60
  -1  15  -1  318.97   29.40
  15 -14  -1  322.27   32.10
 -15  11   1  357.06   31.40
  11   4   1  402.36   34.10
   4 -15   1  361.96   27.40
   4  11  -1  303.07   31.00
  11   4   1  357.86   26.60
  11 -15  -1  302.17   31.50
 -15   4  -1  314.17   27.40
  -4  15  -1  320.47   29.60
  15  -4   1  400.56   33.90
 -11  15   1  375.86   32.10
   7   8  -1   58.39   12.10
   8   7   1   48.90    8.20
   7 -15   1   53.49    9.00
   8   7   1   32.30   13.40
 -15   8   1   53.99   11.80
   7   8  -1   62.19   15.10
   8 -15  -1   76.69   19.00
  15  -8  -1   70.19   15.80
  -8  15   1   80.39   17.10
  -7  15  -1   89.29   15.00
 -15   5   1  323.77   30.00
 -15  10  -1  366.36   29.00
   5  10   1  317.17   27.90
  10 -15   1  338.27   28.30
  10   5  -1  391.96   30.60
   5  10   1  276.87   31.00
 -10  15  -1  372.46   29.70
 -10  -5   1  330.77   30.80
  -5  15   1  329.27   29.70
  15 -10   1  321.87   30.20
  -5  15   1  317.97   32.00
  15  -5  -1  352.56   30.80
  13 -15   1  476.65   38.70
 -15   2   1  460.85   39.40
  13   2  -1  474.95   39.50
   2  13   1  455.85   37.70
 -15  13  -1  505.95   39.20
  -2  15   1  481.25   39.10
 -13  -2   1  433.96   39.30
 -13  15  -1  493.85   38.30
  -2  15   1  447.76   41.20
  15 -13   1  447.46   39.50
  15  -2  -1  537.55   40.30
  16 -16  -1  501.55   44.00
  16   0   1  498.35   44.80
 -16  16   1  531.45   44.60
   0  16  -1  494.55   42.60
   3  13  -1  348.07   29.70
   3 -16   1  370.36   28.20
  13   3   1  272.97   35.40
  13 -16  -1  364.16   33.90
 -16   3  -1  295.17   28.60
   3  13  -1  333.57   32.70
 -16  13   1  415.06   34.00
  13   3   1  408.96   27.50
  -3  16  -1  353.96   31.50
  16  -3   1  325.87   34.80
 -13  16   1  393.76   34.10
 -16   6  -1   26.30    8.40
   6 -16   1   22.90    7.40
 -16  10   1   20.10   11.20
  10   6   1   -7.30   13.90
   6  10  -1   13.60   10.20
  10   6   1   15.40    6.60
  10 -16  -1    9.00   12.50
   6  10  -1   26.90    9.60
  16 -10  -1    0.90   12.40
 -10  16   1   32.60   12.10
  16  -6   1   21.90   13.90
  -6  16  -1   37.40   10.80
 -16   7   1  487.65   39.00
   9 -16   1  495.35   36.70
 -16   9  -1  385.06   37.00
   7   9   1  386.66   39.90
   9   7  -1  487.55   38.20
   9   7  -1  467.95   39.00
   7 -16  -1  486.35   40.00
   7   9   1  460.25   36.20
  -7  16   1  492.35   40.40
  16  -7  -1  481.85   39.30
  -9  16  -1  470.65   38.60
  16  -9   1  499.35   39.90
   4  12   1  713.13   56.39
 -16  12  -1  645.54   51.49
  12   4  -1  698.13   53.19
   4  12   1  660.53   50.79
 -16   4   1  666.13   52.19
 -12  -4   1  638.64   52.69
 -12  16  -1  641.44   51.29
  16 -12   1  655.13   51.99
  -4  16   1  721.33   51.89
   1  15   1  275.77   27.70
  15   1  -1  313.97   30.60
 -16   1   1  268.37   30.20
 -16  15  -1  295.77   29.50
 -15  16  -1  337.47   30.50
  -1  16   1  295.77   28.80
 -15  -1   1  270.47   29.80
  16  -1  -1  294.07   30.10
  -1  16   1  271.97   32.90
  16 -15   1  234.78   29.60
  15   2   1  392.26   28.60
   2  15  -1  307.27   31.60
  15   2   1  391.66   36.50
   2 -17   1  373.16   30.20
  15 -17  -1  419.16   36.60
   2  15  -1  344.07   33.10
 -17   2  -1  366.96   31.30
 -15  17   1  353.06   35.20
  -2  17  -1  328.77   32.90
  17  -2   1  416.26   39.00
  12   5   1  551.14   55.49
 -17  12   1  688.03   53.79
   5 -17   1  732.33   50.79
   5  12  -1  680.23   53.59
  12   5   1  656.33   49.80
 -17   5  -1  620.14   50.79
  12 -17  -1  720.63   54.49
   5  12  -1  620.14   51.89
 -12  17   1  686.23   54.49
  17 -12  -1  729.63   54.39
  17  -5   1  714.93   54.69
  -5  17  -1  739.03   53.19
   8 -17   1   56.29   14.50
   9   8   1   81.79   16.60
   8   9  -1   72.79   13.60
   9 -17  -1   93.19   22.00
   8   9  -1   76.89   14.50
 -17   9   1   90.69   20.60
 -17   8  -1   77.59   15.00
  17  -9  -1   58.09   14.90
  17  -8   1   68.69   15.60
  -9  17   1  122.29   19.80
   6  11   1  773.12   59.89
  11 -17   1  748.43   58.79
  11   6  -1  820.72   60.39
 -17  11  -1  822.12   59.89
   6  11   1  790.22   61.49
 -17   6   1  762.42   59.99
  -6  17   1  795.82   60.89
  17  -6  -1  776.72   60.09
 -11  17  -1  758.02   59.19
  14 -17   1  973.30   74.69
   3  14   1 1002.30   74.29
  14   3  -1  817.12   76.29
   3  14   1 1029.10   77.09
 -17   3   1 1007.40   75.79
 -17  14  -1 1080.39   75.19
  -3  17   1 1028.90   75.19
 -14  -3   1  963.90   75.49
  17 -14   1 1013.10   76.09
 -14  17  -1 1065.19   75.39
  -3  17   1 1049.79   76.99
   0  17   1  533.85   48.00
  17   0  -1  588.34   46.10
   0  17   1  511.85   42.70
  17 -17   1  476.45   44.90
 -17   0   1  494.45   45.10
 -17  17  -1  565.24   44.20
  17 -18  -1  258.57   30.90
   1  17  -1  257.17   29.20
  -1  18  -1  258.17   28.80
  18  -1   1  219.38   31.90
 -17  18   1  235.68   32.40
  14   4   1  506.95   41.10
   4 -18   1  535.95   42.00
  14 -18  -1  542.95   46.80
  14   4   1  578.64   49.60
   4  14  -1  567.84   46.00
   4  14  -1  558.94   43.80
 -18   4  -1  566.84   43.10
 -18  14   1  533.35   46.40
  18 -14  -1  594.84   46.90
 -14  18   1  517.55   45.60
  -4  18  -1  565.74   44.50
 -18  11   1  651.63   52.49
  11 -18  -1  639.64   53.39
   7  11  -1  637.74   51.89
   7  11  -1  661.13   51.39
 -18   7  -1  644.94   50.29
  11   7   1  641.54   48.90
  11   7   1  706.23   54.59
  18  -7   1  631.84   52.79
  -7  18  -1  657.83   50.89
 -11  18   1  650.83   53.49
  18 -11  -1  693.43   52.89
   8 -18  -1   64.49   15.70
  10   8  -1   65.89   14.10
 -18   8   1   48.80   14.60
  10   8  -1   63.19   14.60
   8  10   1   48.30   17.30
  10 -18   1   27.60   10.20
   8  10   1   40.20   10.00
 -18  10  -1   68.89   12.00
  18  -8  -1   55.29   15.80
  -8  18   1   52.99   14.70
  18 -10   1   40.80   14.80
   5  13   1   64.69   17.60
  13   5  -1   69.89   16.50
   5  13   1   42.20   12.00
 -18  13  -1   46.20   14.40
 -18   5   1   69.99   14.80
  -5  18   1  100.39   20.80
  18  -5  -1   69.79   15.90
  18 -13   1   37.50   15.70
  -5  18   1   60.79   17.00
 -13  18  -1  111.29   18.70
  16 -18   1   73.99   16.80
 -18   2   1  102.29   18.80
  16   2  -1  103.79   25.70
   2  16   1   87.49   18.60
   2  16   1   92.69   19.70
 -18  16  -1  147.99   22.90
 -16  -2   1  106.99   23.10
  -2  18   1  134.89   21.40
  18  -2  -1   68.29   17.30
  -2  18   1  124.09   26.70
  19 -19  -1  511.75   48.10
   0  19  -1  584.84   45.40
 -19  16   1  381.16   36.80
  16 -19  -1  339.17   36.30
   3  16  -1  349.96   35.10
  -3  19  -1  332.87   33.10
 -16  19   1  361.96   37.00
  19 -16  -1  370.56   36.60
  19  -3   1  359.76   37.30
  13   6   1   88.39   21.10
 -19   6  -1  130.49   18.20
   6  13  -1   98.29   20.30
   6  13  -1   84.79   19.90
  13 -19  -1   73.49   17.70
   6 -19   1   70.29   15.60
 -19  13   1  100.59   22.50
  13   6   1   83.99   14.10
  19  -6   1   95.29   19.70
 -13  19   1   81.29   17.50
  19 -13  -1  124.79   23.80
   9  10  -1  394.66   52.69
  10   9   1  493.55   39.50
   9 -19   1  503.05   40.50
   9  10  -1  525.25   42.90
  10 -19  -1  558.14   45.10
  10   9   1  401.06   45.80
 -19  10   1  413.86   44.30
 -19   9  -1  506.15   41.20
  19 -10  -1  560.34   43.10
 -10  19   1  558.44   43.20
  -9  19  -1  585.34   42.90
  19  -9   1  515.95   43.30
   7 -19  -1  657.73   54.39
 -19  12  -1  717.63   52.89
 -19   7   1  639.74   53.39
   7  12   1  632.24   50.39
  12 -19   1  610.24   50.99
   7  12   1  667.73   55.49
  12   7  -1  625.34   53.59
  12   7  -1  687.03   53.09
 -12  19  -1  673.83   51.59
  19  -7  -1  672.13   53.79
 -19   4   1  294.27   30.30
 -19  15  -1  227.18   29.10
   4  15   1  263.47   32.40
   4  15   1  233.98   26.00
  15 -19   1  229.48   27.80
  15   4  -1  184.98   30.50
  19  -4  -1  244.48   30.60
 -15  -4   1  275.97   30.90
 -15  19  -1  182.68   27.50
  19 -15   1  251.07   29.50
  -4  19   1  269.37   33.40
 -19  18  -1   16.10   14.30
  18   1  -1    9.00   16.90
 -19   1   1    9.70   15.90
  18 -19   1   -7.50   14.70
   1  18   1  -12.30   12.40
   1  18   1   -2.40   18.40
 -18  -1   1   -1.20   14.80
 -18  19  -1   15.60   15.70
  -1  19   1    4.70   18.80
  -1  19   1   -7.40   13.50
  19 -18   1   -7.50   15.60
  19  -1  -1    6.00   16.60
   2  18  -1  222.68   26.30
  18 -20  -1  206.48   29.50
  18   2   1  225.68   32.50
 -20  18   1  220.58   28.20
 -18  20   1  194.18   28.40
  20  -2   1  201.18   32.50
 -20  15   1  194.38   28.30
 -20   5  -1  207.38   27.10
  15 -20  -1  174.18   29.30
   5  15  -1  217.78   27.10
  15   5   1  134.69   32.60
  20  -5   1  115.99   31.60
  -5  20  -1  205.18   24.50
 -15  20   1  202.08   28.70
  20 -15  -1  205.58   26.40
 -20  12   1  276.27   31.20
  12   8   1  184.88   34.60
   8  12  -1  301.77   30.10
 -20   8  -1  277.77   30.70
   8  12  -1  274.07   30.30
  12 -20  -1  297.97   32.20
  12   8   1  227.28   25.00
  20 -12  -1  307.77   32.20
  -8  20  -1  337.57   30.70
 -12  20   1  289.07   33.70
   9 -20  -1  314.27   35.40
 -20  11  -1  313.97   30.70
   9  11   1  299.17   27.80
   9  11   1  258.77   35.70
  11   9  -1  324.37   33.50
 -20   9   1  243.48   33.60
  11   9  -1  327.37   32.30
  11 -20   1  301.57   29.60
 -11  20  -1  339.27   30.60
  -9  20   1  353.86   32.10
  20  -9  -1  351.86   34.40
  14   6  -1  271.17   28.40
 -20  14  -1  223.18   29.30
 -20   6   1  210.08   27.80
   6  14   1  151.68   30.80
  14   6  -1  175.58   29.50
   6  14   1  178.38   23.50
  14 -20   1  195.78   26.20
  -6  20   1  199.88   28.40
  20  -6  -1  238.68   29.60
 -14  20  -1  265.07   26.10
  17   3  -1   60.09   18.80
   3  17   1   24.80   12.40
   3  17   1   25.60   18.00
 -20   3   1   48.20   17.30
  17 -20   1   35.10   14.80
 -20  17  -1   61.49   16.70
 -17  -3   1   32.80   16.70
  20 -17   1   21.00   15.20
  -3  20   1   21.40   20.20
 -17  20  -1   65.99   16.00
  20  -3  -1   36.90   17.20
  -3  20   1   36.50   13.80
  20 -20   1   91.69   18.50
   0  20   1   92.09   20.50
   0  20   1   96.49   21.90
 -20  20  -1   60.09   19.00
  20   0  -1   72.89   20.00
 -20   0   1  123.99   23.80
  20   1   1   97.39   24.60
   1  20  -1  129.19   22.60
 -21  20   1   66.69   17.10
  21  -1   1   58.09   18.20
 -20  21   1  116.19   25.70
  21 -20  -1   79.09   17.90
   4  17  -1  374.36   33.90
 -21  17   1  385.76   37.10
  17 -21  -1  365.06   37.50
  17   4   1  419.26   41.20
  -4  21  -1  361.66   33.40
 -17  21   1  304.37   35.00
  21  -4   1  357.66   37.10
  21 -17  -1  358.36   34.60
 -21  14   1  654.93   54.39
  14 -21  -1  722.73   56.49
  14   7   1  755.52   58.79
   7  14  -1  729.03   55.29
   7  14  -1  581.24   54.89
  21 -14  -1  557.64   60.39
  -7  21  -1  762.22   61.89
  11  10   1  597.04   49.90
 -21  10  -1  535.95   45.60
  10  11  -1  436.46   46.20
  10 -21   1  560.14   43.90
  10  11  -1  553.24   46.70
 -21  11   1  591.24   47.70
 -10  21  -1  504.95   45.10
  21 -10   1  512.05   47.20
 -11  21   1  585.04   45.90
  13   8  -1   69.19   18.50
  13 -21   1  123.59   21.20
   8  13   1   78.59   14.40
   8 -21  -1  122.09   26.40
  13   8  -1  130.59   24.20
 -21   8   1  114.79   25.80
 -21  13  -1   97.59   23.50
   8  13   1  115.39   28.00
  21 -13   1  104.99   19.70
  21  -8  -1   71.69   18.30
 -13  21  -1  149.29   24.00
  -8  21   1  133.89   25.80
 -21  16  -1   41.40   16.20
  16 -21   1   46.90   14.90
   5  16   1   29.00   12.40
   5  16   1   35.80   19.30
  16   5  -1   35.60   16.90
 -21   5   1   58.09   16.70
 -16  21  -1   32.70   18.40
  21 -16   1   20.00   17.30
  -5  21   1   30.40   14.20
  21  -5  -1   15.40   15.40
   2  19   1   -2.50   12.40
 -21  19  -1    4.40   14.70
  19 -21   1   -2.80   15.50
 -21   2   1    2.20   15.20
   2  19   1   -0.60   18.30
  19   2  -1   -3.30   16.30
 -19  -2   1  -11.90   15.30
  -2  21   1  -17.20   19.30
 -19  21  -1    7.90   16.30
  21  -2  -1  -11.40   16.60
  21 -19   1    1.50   17.30
  -2  21   1   -5.40   12.30
   0  22  -1  188.28   24.90
  22   0   1  153.88   30.60
  22 -22  -1  161.68   27.70
 -22  22   1  147.49   28.90
  19 -22  -1  214.38   28.40
   3  19  -1  254.07   28.90
  19   3   1  268.27   33.80
 -22  19   1  258.47   30.70
 -19  22   1  253.77   29.50
  -3  22  -1  268.47   28.40
  22 -19  -1  258.27   30.00
  22  -3   1  257.37   33.10
   6  16  -1  175.78   25.30
  16   6   1  195.68   30.50
 -22  16   1  148.19   26.80
  16 -22  -1  155.58   27.40
  22 -16  -1  101.89   25.60
  -6  22  -1  172.58   24.20
  22  -6   1  138.89   27.60
 -16  22   1  123.19   23.20
   9  13  -1  119.49   24.40
 -22  13   1  122.89   26.70
  13 -22  -1   97.49   25.20
  13   9   1  132.39   29.80
   9  13  -1  127.29   23.50
 -22   9  -1  140.79   23.30
  -9  22  -1  136.49   22.40
  12  10  -1  163.78   29.60
  12 -22   1  192.08   23.50
 -22  10   1  207.68   28.50
 -22  12  -1  154.28   25.00
  10  12   1  183.18   30.70
  12  10  -1  217.08   26.30
  10 -22  -1  179.88   28.00
 -10  22   1  175.48   27.20
  22 -12   1  128.29   26.80
 -12  22  -1  193.68   23.70
   7  15   1   78.89   14.60
 -22  15  -1   57.29   16.00
  15   7  -1   58.19   17.60
   7 -22  -1   81.99   17.70
 -22   7   1  100.59   24.00
   7  15   1   72.09   20.50
  22 -15   1  107.79   24.80
  -7  22   1   56.49   18.00
 -15  22  -1  106.29   20.60
  22  -7  -1   41.00   17.90
  18   4  -1   18.70   17.30
  18 -22   1   46.40   15.90
   4  18   1   33.80   17.80
 -22  18  -1   16.00   15.40
   4  18   1    7.30   12.30
  -4  22   1   19.30   13.50
  22  -4  -1   13.50   15.00
  22 -18   1   10.50   15.90
 -18  22  -1   14.50   13.90
   1  21   1   76.49   18.30
 -22   1   1   91.19   19.50
 -22  21  -1   59.59   17.60
  21   1  -1  105.19   26.30
  21 -22   1  127.59   26.40
   1  21   1   12.60   21.70
 -21  22  -1   61.29   16.00
  22 -21   1  115.39   25.60
 -21  -1   1   41.30   18.80
  22  -1  -1   54.99   18.70
  -1  22   1   72.39   16.10
  -1  22   1   76.19   24.20
 -23  21   1   63.09   18.20
   2  21  -1   58.89   15.20
  21 -23  -1   61.29   17.40
  21   2   1   70.89   21.60
  -2  23  -1   60.99   14.90
  23 -21  -1   75.29   18.10
 -21  23   1   63.49   18.60
  23  -2   1   48.30   18.20
 -23  18   1  102.49   24.60
  18 -23  -1   89.49   19.00
  18   5   1   73.99   20.40
   5  18  -1   94.99   21.00
 -18  23   1   53.39   15.80
  23 -18  -1   72.69   17.50
  -5  23  -1  109.79   21.80
  23  -5   1  107.89   26.40
 -23  15   1  159.28   24.60
  15 -23  -1  164.98   27.20
  15   8   1  188.68   30.80
   8  15  -1  161.38   23.80
  23 -15  -1  123.79   25.20
  -8  23  -1  153.48   21.30
  23  -8   1  170.18   27.90
 -15  23   1  157.28   26.00
 -23  12   1  300.37   35.60
  12  11   1  359.56   39.50
 -23  11  -1  362.96   34.80
  12 -23  -1  349.17   35.10
  11  12  -1  376.96   34.60
  11  12  -1  388.26   36.00
  23 -12  -1  343.27   34.90
  23 -11   1  310.67   35.60
 -12  23   1  316.27   34.60
 -11  23  -1  352.66   33.60
  14   9  -1  150.08   23.90
 -23  14  -1  126.39   23.10
   9  14   1  108.89   28.20
   9 -23  -1  117.69   26.90
  14   9  -1  168.58   26.60
 -23   9   1  151.48   27.10
  23  -9  -1  106.99   24.70
  -9  23   1  108.59   21.50
 -14  23  -1  137.19   21.10
   6 -23  -1   33.60   15.50
  17 -23   1   23.20   13.60
  17   6  -1   16.30   16.40
   6  17   1  -18.70   11.90
 -23  17  -1    3.30   15.00
   6  17   1  -10.40   19.10
 -23   6   1    3.50   15.70
  23  -6  -1    0.30   13.50
  23 -17   1    2.40   15.50
  -6  23   1    0.40   12.60
 -17  23  -1    5.20   14.90
 -23  20  -1  177.68   29.70
   3  20   1  140.89   27.00
  20   3  -1  129.19   30.60
 -23   3   1  212.58   31.00
   3  20   1  158.88   24.60
 -20  23  -1  159.58   28.80
  23 -20   1  170.28   27.90
  23  -3  -1  197.68   29.30
  -3  23   1  166.88   24.60
 -23  23  -1  323.77   36.50
   0  23   1  290.07   33.50
   0  23   1  301.87   44.50
  23   0  -1  373.36   38.50
  23 -23   1  325.67   37.40
   1  23  -1   -3.20   14.20
  23 -24  -1   -8.50   15.70
 -24  23   1    0.40   15.70
  23   1   1  -16.10   17.80
 -23  24   1    7.00   17.30
  -1  24  -1   -4.90   14.50
  24 -23  -1  -13.70   16.20
  24  -1   1   -5.50   19.20
  20 -24  -1   36.30   17.00
 -24  20   1   26.00   17.40
   4  20  -1   14.00   15.60
  20   4   1   24.30   20.40
  -4  24  -1   29.00   13.80
  24  -4   1   18.20   17.20
 -20  24   1   26.30   16.70
  24 -20  -1   12.40   16.10
  17   7   1  272.27   34.20
 -24  17   1  259.57   31.20
   7  17  -1  220.08   28.10
  17 -24  -1  253.47   30.70
 -17  24   1  241.78   28.80
  24  -7   1  237.88   30.20
  24 -17  -1  220.58   27.90
  -7  24  -1  214.38   25.40
  14 -24  -1  311.47   33.40
  10  14  -1  309.17   32.40
  14  10   1  347.77   37.80
  24 -10   1  301.07   33.90
  24 -14  -1  283.87   31.50
 -14  24   1  270.77   33.20
 -10  24  -1  312.67   31.10
  11 -24  -1  157.88   25.80
  13 -24   1  176.48   28.30
  13  11  -1  163.08   26.80
 -24  11   1  138.79   26.80
  13  11  -1  177.88   24.60
  11  13   1  127.79   29.50
 -24  13  -1  115.79   25.40
  24 -11  -1  120.79   24.60
 -11  24   1  114.99   21.90
 -13  24  -1  152.28   23.20
  24 -13   1  129.49   23.70
  16 -24   1   18.60   14.40
   8  16   1  -23.70   12.20
   8  16   1    4.50   19.50
   8 -24  -1    5.80   16.60
 -24  16  -1   -6.00   14.70
 -24   8   1   34.80   15.20
  16   8  -1   23.30   16.90
  16   8  -1   39.00   15.20
  24 -16   1    0.20   15.30
  -8  24   1   -5.80   13.80
  24  -8  -1   -9.70   14.90
 -16  24  -1    8.20   13.70
   5 -24  -1   57.79   17.80
 -24  19  -1   73.89   18.40
  19 -24   1   49.50   18.20
   5  19   1   30.90   15.60
   5  19   1   24.50   22.00
  24 -19   1   73.99   19.80
  -5  24   1   43.20   15.00
 -19  24  -1   59.59   16.50
  24  -5  -1   58.19   18.70
 -24   2   1  157.68   33.90
  22   2  -1  203.68   33.90
 -24  22  -1  229.98   32.00
  22 -24   1  274.87   32.60
   2  22   1  185.38   28.10
  -2  24   1  194.18   27.30
  24 -22   1  191.68   32.00
 -22  24  -1  203.18   26.80
  24  -2  -1  199.48   31.50
  25   0   1   51.69   20.00
 -25  25   1   31.70   17.30
   0  25  -1    0.00   16.60
  25 -25  -1   48.80   19.40
  22   3   1   23.90   19.50
  22 -25  -1    7.80   16.30
 -25  22   1   25.30   17.50
   3  22  -1   -8.80   15.50
  25 -22  -1    4.10   16.50
  25  -3   1   11.00   18.40
 -22  25   1   14.10   17.10
  -3  25  -1   13.30   14.60
 -25  19   1    9.60   15.90
  19   6   1   17.20   20.30
  19 -25  -1    6.60   16.50
   6  19  -1   -3.10   15.40
  25 -19  -1   -5.50   15.40
  -6  25  -1   13.30   12.90
  25  -6   1   -2.00   17.70
 -19  25   1    1.20   14.10
 -25  16   1   17.60   16.80
  16 -25  -1   17.10   17.40
   9  16  -1   12.60   14.40
  16   9   1   13.60   20.70
  25  -9   1   -0.30   16.40
 -16  25   1   19.70   14.30
  -9  25  -1   24.30   12.80
  25 -16  -1    6.10   16.20
  13 -25  -1   64.89   17.00
 -25  13   1   63.69   18.60
  13  12   1   53.59   41.40
  12  13  -1   53.79   16.60
 -13  25   1   27.80   15.00
  25 -13  -1   38.90   17.20
 -12  25  -1   55.69   14.50
  25 -12   1   19.20   15.80
  15  10  -1   76.09   17.20
  10  15   1   73.69   23.00
  15 -25   1   39.00   15.60
 -25  10   1   82.49   19.50
  10 -25  -1   56.99   17.30
 -25  15  -1   54.89   17.00
  15  10  -1   80.89   20.90
  25 -15   1   85.89   21.60
  25 -10  -1   46.80   17.50
 -15  25  -1   68.69   16.00
 -10  25   1   56.19   14.90
   7  18   1   82.59   23.70
   7 -25  -1   80.59   20.60
   7  18   1   61.09   16.60
  25  -7  -1   67.19   17.60
 -18  25  -1   71.29   16.80
  25 -18   1   62.39   18.10
  -7  25   1   56.99   15.60
  21 -25   1  265.27   31.90
 -25  21  -1  267.07   32.90
  21   4  -1  207.98   33.70
 -25   4   1  243.38   36.60
   4  21   1  171.28   29.60
  -4  25   1  203.08   29.00
  25 -21   1  283.77   33.80
 -21  25  -1  299.57   30.60
  25  -4  -1  235.38   33.30
  24   1  -1   50.09   21.30
   1  24   1   46.50   16.90
  24 -25   1   72.89   23.20
 -25  24  -1   37.50   19.60
  25  -1  -1   83.59   21.60
 -24  25  -1   63.19   19.90
  -1  25   1  110.29   25.10
  25 -24   1  116.09   28.80
  24   2   1   49.10   21.90
 -26  24   1   41.90   19.50
   2  24  -1    4.10   17.10
  24 -26  -1   31.00   19.20
  26 -24  -1   26.00   17.80
 -24  26   1   33.80   17.40
  -2  26  -1    7.80   14.80
  26  -2   1   29.50   20.30
 -26  21   1   31.80   17.60
  21 -26  -1   -1.50   17.20
  21   5   1   59.89   20.80
   5  21  -1    3.50   16.60
 -21  26   1   28.40   16.10
  -5  26  -1   26.90   14.60
  26 -21  -1   19.80   18.00
  26  -5   1   33.10   20.20
   8  18  -1   50.89   18.50
 -26  18   1   65.19   19.30
  18   8   1   93.89   23.60
  18 -26  -1   61.59   18.60
  26  -8   1   59.59   19.10
  26 -18  -1   54.99   17.90
  -8  26  -1   93.69   20.10
 -18  26   1   65.09   16.50
 -26  15   1  183.48   31.10
  15 -26  -1  199.18   30.30
  15  11   1  180.08   32.60
  11  15  -1  158.48   27.60
  26 -11   1  187.28   28.00
 -11  26  -1  195.98   25.40
 -15  26   1  176.88   24.90
  26 -15  -1  121.19   27.20
 -26  12   1  279.47   35.20
  14  12  -1  282.87   30.60
  12 -26  -1  236.88   32.90
  12  14   1  202.88   35.80
  26 -14   1  245.28   31.70
 -14  26  -1  215.68   26.40
  26 -12  -1  231.98   31.00
 -12  26   1  230.78   27.90
   9 -26  -1   69.49   19.80
 -26   9   1   59.49   27.50
  17   9  -1  127.49   28.40
 -26  17  -1   97.59   20.50
   9  17   1  133.79   32.00
  26  -9  -1  103.39   25.30
  -9  26   1   72.79   17.80
 -17  26  -1   80.29   17.90
  26 -17   1   87.09   19.70
   6  20   1    2.10   25.00
  20 -26   1  110.29   26.20
 -26  20  -1   92.09   20.70
  20   6  -1   70.59   22.40
   6  20   1   39.90   16.40
   6 -26  -1   31.90   26.70
 -20  26  -1   80.19   18.90
  26 -20   1   64.29   20.50
  26  -6  -1   50.09   17.70
  -6  26   1   47.20   15.70
  23   3  -1  215.68   31.80
  23 -26   1  179.48   32.30
 -26  23  -1  254.47   32.20
  26  -3  -1  209.18   32.50
  26 -23   1  238.38   34.60
 -23  26  -1  182.18   29.40
  -3  26   1  176.98   28.90
   0  26   1  293.47   31.80
  26   0  -1  293.47   37.10
 -26  26  -1  195.48   35.10
  26 -27  -1   18.10   19.50
 -27  26   1    5.20   19.30
   1  26  -1  -15.30   16.60
  26   1   1   42.10   22.50
 -26  27   1    9.90   18.70
  27  -1   1   19.20   22.00
  -1  27  -1   -9.10   16.00
  27 -26  -1   23.40   19.50
 -27  23   1   18.20   18.80
  23   4   1   48.40   22.70
   4  23  -1   -5.90   16.20
  23 -27  -1   16.00   19.30
 -23  27   1   20.70   18.00
  -4  27  -1   -8.30   14.20
  27  -4   1   27.10   17.60
  27 -23  -1   30.60   18.10
  20   7   1   29.20   21.90
  20 -27  -1   24.80   17.80
 -27  20   1   18.90   18.90
   7  20  -1   -1.40   15.70
 -20  27   1   21.60   15.10
  27 -20  -1   39.50   18.50
  27  -7   1   18.20   18.40
  -7  27  -1   18.20   14.80
  17  10   1   64.19   22.70
  17 -27  -1   65.49   20.00
 -27  17   1   62.49   20.50
  10  17  -1   34.40   16.10
  27 -17  -1   55.19   18.10
 -17  27   1   42.30   14.50
 -10  27  -1   45.30   14.40
  27 -10   1   51.69   18.90
 -27  14   1   85.79   21.90
  14 -27  -1  105.89   25.90
  14  13   1   82.99   23.10
 -13  27  -1   83.09   19.80
  27 -14  -1   46.10   17.70
 -14  27   1  108.39   24.70
  27 -13   1   55.99   19.70
 -27  16  -1   40.10   20.80
  11 -27  -1   46.50   17.50
 -27  11   1   41.00   20.30
  11  16   1   12.40   22.20
  27 -16   1   29.20   17.20
  27 -11  -1   24.30   15.90
 -11  27   1   20.20   14.30
 -16  27  -1   45.70   16.30
  19   8  -1   18.20   19.50
 -27  19  -1  -14.80   17.30
   8  19   1  -30.20   24.10
  19 -27   1   20.20   18.70
  -8  27   1    0.50   14.70
  27  -8  -1  -14.80   16.80
  27 -19   1   13.00   15.90
 -19  27  -1    6.10   15.10
 -27  22  -1   62.49   21.20
  22   5  -1  111.29   23.90
  27  -5  -1  142.09   28.70
  27 -22   1   62.19   21.40
  -5  27   1   72.19   18.50
 -22  27  -1   74.29   19.60
   2  25   1  140.69   27.80
  25   2  -1   70.29   23.20
 -27  25  -1  175.48   30.10
  27  -2  -1  133.09   30.40
  -2  27   1   84.19   20.40
  27 -25   1   95.79   26.00
 -25  27  -1  162.08   29.10
   3  25  -1   20.80   18.60
  -3  28  -1   20.00   17.40
  22   6   1   -2.40   22.60
  22 -28  -1   40.10   17.60
 -28  22   1    7.90   18.90
 -22  28   1    5.50   16.10
  28  -6   1   14.60   19.80
  28 -22  -1   15.10   17.80
  -6  28  -1   -4.20   14.30
  19   9   1   30.30   21.60
 -28  19   1   43.60   20.00
  19 -28  -1   44.60   17.80
   9  19  -1  -25.60   16.20
 -19  28   1    9.20   14.40
  -9  28  -1    9.00   13.60
  28  -9   1   15.60   18.10
  28 -19  -1   24.30   17.00
  16 -28  -1   43.80   18.10
  12  16  -1  -13.50   15.90
  16  12   1   15.20   22.40
 -28  16   1   70.79   21.10
 -12  28  -1   15.30   14.60
 -16  28   1   19.80   14.70
  28 -16  -1   18.60   16.30
  28 -12   1   15.00   18.50
  13 -28  -1   66.19   18.20
  15  13  -1   20.60   16.00
  13  15   1   44.50   23.20
 -13  28   1   38.40   16.30
 -15  28  -1   30.50   15.90
  28 -15   1   55.29   19.20
  28 -13  -1   27.80   16.70
 -28  10   1   88.59   22.90
 -28  18  -1   68.39   21.00
  10  18   1   70.29   25.90
  28 -10  -1   47.20   17.40
  28 -18   1   85.09   21.40
 -18  28  -1   69.59   17.70
 -10  28   1   70.19   17.20
 -28  21  -1  179.68   33.30
  21   7  -1  137.89   27.90
  -7  28   1  187.28   28.50
  28  -7  -1  225.38   31.90
 -21  28  -1  200.48   27.80
  28 -21   1  220.48   29.60
   4  24   1   53.69   19.10
  24   4  -1   69.29   23.60
 -28  24  -1   63.69   22.40
 -24  28  -1   83.89   20.70
  28  -4  -1   81.79   23.50
  -4  28   1   35.40   16.90
  28 -24   1   83.29   24.90
  21 -29  -1   14.50   19.30
  21   8   1    7.20   23.10
 -29  21   1   18.50   21.10
   8  21  -1  -34.90   17.30
  29 -21  -1   43.90   18.50
  -8  29  -1   11.60   15.00
 -21  29   1   16.90   15.50
  29  -8   1    6.60   19.90
  18 -29  -1   19.40   19.10
  18  11   1   32.20   23.00
 -29  18   1   20.00   21.80
 -18  29   1   34.00   15.70
  29 -11   1   25.40   19.80
 -11  29  -1   11.00   14.40
  29 -18  -1   11.00   17.60
 -29  15   1  108.39   25.10
  14  15  -1   45.50   18.30
  15 -29  -1   71.99   19.70
  15  14   1  148.99   34.20
 -14  29  -1   60.89   16.30
  29 -15  -1   56.39   17.80
 -15  29   1   68.49   17.50
  29 -14   1  105.49   22.60
  12  17   1  108.29   28.50
  29 -17   1  114.69   25.30
 -17  29  -1  111.39   22.30
 -12  29   1  117.69   23.50
  29 -12  -1  110.29   26.70
 -29  20  -1   41.20   20.90
  29 -20   1   51.39   20.80
  -9  29   1   46.90   17.50
  29  -9  -1   55.29   18.60
 -20  29  -1   60.69   18.60
  23 -29   1   28.90   24.00
  23   6  -1   12.40   22.90
 -29  23  -1    6.30   20.40
  -6  29   1    9.50   16.70
 -23  29  -1    3.00   16.30
  29  -6  -1   23.60   20.20
 -30  20   1   31.00   23.50
  20 -30  -1   16.90   20.30
  20  10   1   75.59   23.70
 -10  30  -1   34.60   15.90
  30 -10   1   48.00   21.40
 -20  30   1   38.80   16.30
  30 -20  -1   42.20   19.20
 -30  17   1   45.00   22.80
  17  13   1   52.79   23.10
  17 -30  -1   25.70   20.20
  30 -17  -1   54.09   19.20
 -17  30   1   34.50   14.70
  30 -13   1   55.69   20.80
 -13  30  -1   48.70   16.30
  14  16   1  157.48   37.90
 -30  14   1  113.99   26.30
  30 -14  -1  133.69   27.60
 -14  30   1  107.99   25.40
 -16  30  -1  129.09   23.40
  30 -16   1  145.79   30.10
  30 -11  -1  108.99   27.30
 -11  30   1   58.59   17.50
 -19  30  -1   54.69   17.40
  30 -19   1   70.39   21.90
   1  -1   2  160.78   16.10
   0   1   2  117.09   17.00
  -1   0   2  110.99   15.60
  -1   0   2  157.38   15.90
   1  -1   2  157.98   15.10
   0   1   2  160.38   14.20
   2   0   2   81.49   11.20
   0  -2   2   99.49   13.00
   0  -2   2  108.19   12.70
  -2   2   2   97.19   12.40
   2   0   2  103.19   13.90
  -3   1   2  309.67   26.20
   1   2   2  326.47   24.20
   2  -3   2  320.47   25.30
   2  -3   2  280.07   24.90
  -3   1   2  331.77   25.60
   1   2   2  261.67   27.20
   3  -2   2  346.87   25.80
  -1   3   2  328.07   24.60
  -2  -1   2  325.27   25.20
   3  -2   2  320.87   24.70
  -2  -1   2  300.07   25.90
  -4   3   2  114.09   16.60
  -4   3   2  124.99   14.40
   3   1   2  110.29   10.90
   1  -4   2  119.89   12.00
   1  -4   2  130.99   15.40
  -3   4   2  119.59   14.10
   4  -1   2  125.19   15.40
   4  -1   2  119.09   11.60
  -1  -3   2   98.49   14.60
  -3   4   2  129.49   16.70
  -1  -3   2  115.69   12.10
  -4   0   2 2748.02  187.58
   4   0  -2 2706.23  187.38
  -4   4  -2 2413.36  186.88
   4  -4   2 2799.02  187.18
   0   4   2 2566.74  186.88
   5   0   2   64.69   13.50
  -5   5   2   68.99   12.30
   0  -5   2   81.09   12.70
  -5   5   2   78.69   15.00
   0  -5   2   53.59    7.90
   3  -5   2  380.36   25.90
   3   2  -2  350.56   25.90
  -5   3  -2  321.87   25.30
   2   3   2  291.27   25.30
  -3   5  -2  304.57   26.40
  -2   5   2  366.16   26.60
   5  -2  -2  343.27   27.60
   2  -6   2  107.89   10.60
  -6   2  -2  106.49   10.10
  -6   4   2  142.09   14.80
   4   2   2  123.39    9.70
   2   4  -2  106.49   10.40
   4   2   2  102.39   16.90
  -4   6   2  147.09   17.20
  -2   6  -2   93.09   15.70
  -2  -4   2  112.69   16.00
  -4   6   2  108.69   15.10
   5  -6   2 1492.25  109.69
  -6   1   2 1554.14  110.49
   1   5   2 1672.13  111.29
   1   5   2 1470.95  109.39
   5   1  -2 1583.14  109.79
  -6   5  -2 1485.05  109.49
  -5   6  -2 1482.65  109.79
   6  -5   2 1515.75  110.09
  -5  -1   2 1633.64  110.79
   6  -1  -2 1573.24  110.19
  -1   6   2 1510.55  109.79
   6   1   2  241.38   23.20
  -7   1  -2  223.08   18.40
  -7   6   2  277.57   22.50
   7  -1   2  279.87   23.90
  -1   7  -2  236.98   22.40
  -6   7   2  294.37   22.90
  -6   7   2  270.17   23.50
   7  -6  -2  260.47   23.70
   3   4   2 2494.65  177.38
   3   4   2 2807.12  179.48
  -7   4  -2 2427.66  177.38
   4  -7   2 2554.04  177.58
   4   3  -2 2477.65  177.48
  -7   3   2 2740.83  178.88
  -3   7   2 2619.14  179.18
   7  -3  -2 2306.57  179.18
  -4  -3   2 2547.45  178.68
  -3   7   2 2347.17  178.48
  -4   7  -2 2351.56  178.08
   7   0  -2 9584.24  651.93
   0  -7  -2 9165.88  652.03
  -7   7  -2 8588.54  651.73
   7  -7   2 9614.34  653.03
   0  -7  -2 8698.23  651.63
  -8   8   2 1003.50   73.59
   8  -8  -2  962.30   74.49
   0   8  -2 1058.79   73.69
  -8   3  -2  805.72   60.29
  -8   5   2  742.13   62.29
   5   3   2  867.41   60.09
   3  -8   2  745.43   60.29
  -3   8  -2  808.92   61.79
   8  -3   2  960.30   62.99
  -5   8   2  939.51   62.39
  -3  -5   2  856.71   62.49
  -5   8   2  929.41   63.29
  -8   2   2 1688.13  109.29
   6   2  -2 1481.95  107.59
   2   6   2 1710.83  109.69
   2   6   2 1606.24  107.59
  -8   6  -2 1447.46  107.49
   6  -8   2 1311.07  107.79
  -6  -2   2 1665.13  109.19
   8  -2  -2 1556.94  108.39
  -6   8  -2 1360.16  107.89
   8  -6   2 1270.67  108.39
  -2   8   2 1565.74  109.19
   7   2   2  895.71   66.19
  -9   7   2  883.11   65.39
   2   7  -2  855.21   65.79
  -7   9   2  906.01   66.19
  -2   9  -2  849.91   65.09
   9  -2   2  957.30   66.39
   4   5   2 1377.56  110.89
  -9   5  -2 1481.95  110.99
   5  -9   2 1673.13  111.29
   5   4  -2 1389.26  110.99
  -5   9  -2 1501.85  111.89
  -4   9   2 1725.93  112.69
  -5  -4   2 1819.32  116.89
   9  -4  -2 1447.26  112.39
   9  -5   2 1734.13  113.09
   1   8   2 2520.25  167.38
   1   8   2 2358.16  165.68
   8  -9   2 2130.89  165.98
  -9   8  -2 2076.69  165.98
  -9   1   2 2468.05  166.88
   8   1  -2 2331.07  165.68
  -8   9  -2 2264.57  165.68
  -8  -1   2 2288.87  166.78
  -1   9   2 2396.06  165.98
   9  -1  -2 2392.06  165.98
  -1   9   2 2484.55  167.38
 -10   9   2   95.49   15.00
   9 -10  -2   72.09   16.70
   9   1   2   59.99   13.20
   1   9  -2   70.39   15.30
  -9  10   2   83.09   15.30
  10  -1   2   60.99   13.00
  10  -9  -2   82.09   14.00
  -1  10  -2   69.69   14.70
   6   4   2 1377.86   98.09
 -10   4  -2 1289.67   95.49
   6   4   2 1272.87   95.09
   4   6  -2 1312.77   95.39
  -4  -6   2 1355.76   97.79
  -6  10   2 1431.96   97.59
  -6  10   2 1358.36   97.99
  10  -6  -2 1346.37   97.69
  10  -4   2 1513.25   98.29
  -4  10  -2 1232.58   97.09
 -10   7  -2 4010.00  309.67
   7 -10   2 4774.22  310.27
   7   3  -2 4304.67  309.77
   3   7   2 4450.55  309.77
  -7  -3   2 4230.78  310.77
  10  -7   2 4752.92  311.17
  10  -3  -2 4479.95  310.67
  -7  10  -2 4208.18  310.17
  -3  10   2 4364.66  311.37
  -3  10   2 4370.96  310.67
 -10   0   2 4658.73  369.96
   0  10   2 5834.52  370.96
  10   0  -2 5648.53  369.46
 -10  10  -2 5257.57  369.06
  10 -10   2 4772.02  369.66
  11   0   2  593.44   49.50
 -11  11   2  560.44   48.10
   0  11  -2  651.73   48.30
  11 -11  -2  702.13   49.80
   3   8  -2  684.23   51.59
 -11   3  -2  664.23   48.20
 -11   8   2  610.94   51.09
   8   3   2  676.53   52.89
  -3  11  -2  693.03   51.29
  -8  11   2  690.43   52.29
  11  -8  -2  729.23   51.89
  11  -3   2  679.83   52.99
 -11   6  -2  622.24   42.80
   5   6   2  595.14   42.40
   6   5  -2  515.05   42.90
   6 -11   2  496.85   42.80
   5   6   2  596.54   46.30
  11  -5  -2  621.44   44.90
  -5  11   2  601.84   46.70
  -5  11   2  634.04   45.30
  -6  -5   2  540.25   45.10
  -6  11  -2  592.44   44.20
  11  -6   2  622.54   46.30
   9   2  -2 1200.98   79.19
   2   9   2  934.11   79.39
 -11   9  -2 1095.99   78.89
 -11   2   2  958.50   80.09
   2   9   2 1000.50   80.89
  -2  11   2 1183.88   80.39
  11  -2  -2 1206.48   79.79
  -9  -2   2 1090.59   80.39
  -2  11   2 1106.59   81.19
  -9  11  -2 1163.58   79.49
  10   2   2  566.74   46.80
   2  10  -2  593.14   45.50
 -12  10   2  534.25   44.70
  10 -12  -2  640.44   46.00
  -2  12  -2  605.74   44.80
  12  -2   2  457.25   46.30
  12 -10  -2  612.14   45.40
 -12   5  -2  344.27   25.30
   7   5   2  314.47   24.10
   5   7  -2  328.97   25.50
   5 -12   2  368.66   24.90
   7   5   2  323.77   31.10
  12  -7  -2  266.07   29.70
  -7  12   2  328.27   30.50
  -5  12  -2  338.57   29.10
 -12   8  -2  234.18   21.10
   8 -12   2  275.67   22.30
   4   8   2  223.18   21.50
 -12   4   2  231.08   24.10
   4   8   2  209.38   25.10
   8   4  -2  274.77   21.50
  -8  -4   2  217.48   24.90
  12  -4  -2  272.37   23.60
  -8  12  -2  248.18   23.30
  -4  12   2  252.97   24.80
 -12   1   2  309.87   29.10
 -12  11  -2  300.37   25.40
   1  11   2  306.07   27.10
   1  11   2  253.87   30.70
  11   1  -2  257.97   28.40
  12 -11   2  340.37   28.40
  12  -1  -2  279.77   26.30
  -1  12   2  349.27   28.90
 -11  12  -2  336.47   26.30
 -11  -1   2  225.68   29.00
  12   1   2  349.17   31.30
   1  12  -2  258.37   29.90
 -13  12   2  327.67   30.30
  12 -13  -2  314.27   30.90
  13  -1   2  334.07   30.80
  13 -12  -2  304.57   31.00
  -1  13  -2  261.57   30.00
 -12  13   2  334.27   31.10
   4   9  -2  157.98   22.20
   4   9  -2  174.58   14.10
   9 -13  -2  175.68   23.70
   9   4   2  161.58   23.60
 -13   4  -2  176.48   14.20
 -13   9   2  159.68   20.10
  -9  13   2  185.58   21.90
  -4  13  -2  164.98   20.20
  13  -9  -2  180.18   21.30
  13  -4   2  171.58   22.80
   6   7   2  128.89   14.70
 -13   7  -2  126.09   15.80
   7   6  -2  156.38   15.50
   6   7   2  142.49   21.20
  -6  13   2  152.28   21.30
  13  -7   2  173.48   22.70
  -6  13   2  167.78   21.30
  -7  13  -2  159.28   18.20
  -7  -6   2  149.09   19.30
  13  -6  -2  160.08   20.10
 -13  10  -2  392.86   31.50
  10   3  -2  456.35   31.80
 -13   3   2  411.76   34.30
   3  10   2  372.36   35.70
   3  10   2  352.46   32.00
  13 -10   2  389.36   35.00
 -10  13  -2  426.56   31.80
  -3  13   2  405.16   35.80
  13  -3  -2  329.77   32.90
 -10  -3   2  365.86   33.40
  13   0  -2  706.03   51.99
 -13   0   2  682.73   54.59
 -13  13  -2  671.03   51.49
   0  13   2  714.33   54.79
   0  13   2  608.54   52.79
  13 -13   2  682.93   52.99
  14 -14  -2 1137.69   90.49
   0  14  -2 1309.07   90.09
 -14  14   2 1369.16   90.19
  14   0   2 1033.30   90.59
 -14  11   2  708.73   58.09
  11 -14  -2  780.92   59.19
   3  11  -2  744.53   58.49
  11   3   2  743.83   60.39
  14 -11  -2  812.72   58.69
 -11  14   2  758.62   58.99
  -3  14  -2  782.82   58.49
  14  -3   2  751.42   59.59
 -14   8   2  156.78   21.10
   8   6   2  131.59   22.40
   6   8  -2  166.18   20.90
   8   6   2  148.09   13.50
   6   8  -2  164.28   16.10
 -14   6  -2  157.98   15.90
  14  -6   2  197.08   24.70
  -6  14  -2  203.78   21.40
  14  -8  -2  122.99   20.40
  -8  14   2  204.78   22.60
 -14   5   2   73.79   13.40
 -14   9  -2   55.39    9.90
   9   5  -2   64.09   14.80
   5   9   2   60.99   15.60
   5   9   2   50.49   10.00
  14  -5  -2   79.99   17.30
  -9  -5   2   72.79   14.00
  -5  14   2  107.39   21.90
  14  -9   2   64.79   14.40
  -9  14  -2   81.09   15.70
  -5  14   2   76.49   13.90
 -14  12  -2  170.28   21.00
 -14   2   2  206.18   23.60
   2  12   2  237.18   28.40
   2  12   2  153.18   27.00
  12   2  -2  186.98   21.70
  -2  14   2  159.78   27.00
  -2  14   2  206.68   25.60
  14  -2  -2  199.68   22.50
  14 -12   2  197.78   24.70
 -12  -2   2  203.08   25.30
 -12  14  -2  204.78   22.40
   2  13  -2  588.64   45.90
 -15  13   2  637.34   47.30
  13 -15  -2  476.05   47.30
  15 -13  -2  648.54   46.90
  -2  15  -2  632.24   45.80
 -13  15   2  440.06   48.10
  15  -2   2  491.55   48.50
 -15   5  -2  616.14   43.60
   5  10  -2  614.34   43.60
   5  10  -2  579.44   48.30
  10 -15  -2  598.24   48.40
  10   5   2  592.34   49.00
 -15  10   2  603.74   48.30
  -5  15  -2  590.94   46.80
  15 -10  -2  547.75   47.50
   7   8   2  156.68   27.30
   7   8   2  175.98   18.10
   8   7  -2  171.08   19.60
   8 -15   2  206.18   19.30
 -15   8  -2  191.18   19.30
 -15   7   2  131.59   24.90
  -8  15  -2  206.08   21.70
  -7  15   2  215.98   24.30
  -7  15   2  241.28   25.90
 -15   4   2  218.68   23.80
  11 -15   2  192.68   22.10
 -15  11  -2  187.08   21.50
   4  11   2  222.18   28.30
  11   4  -2  151.68   21.10
  -4  15   2  246.18   28.30
  15  -4  -2  207.38   23.50
 -11  15  -2  227.88   23.30
  15 -11   2  163.48   24.40
  -4  15   2  147.59   27.80
 -11  -4   2  219.38   25.30
 -15   1   2   73.89   18.00
   1  14   2  110.49   20.90
 -15  14  -2  141.09   19.80
  14   1  -2  109.29   20.80
 -14  15  -2  126.89   18.50
 -14  -1   2  105.09   18.40
  15  -1  -2  128.79   20.90
  -1  15   2  101.69   25.80
 -16  15   2  361.76   34.90
  15   1   2  410.86   39.90
   1  15  -2  346.57   36.20
  16  -1   2  381.56   37.00
 -15  16   2  375.66   35.90
  -1  16  -2  328.77   35.80
  12   4   2  333.57   39.40
 -16  12   2  486.35   37.10
   4  12  -2  379.36   35.40
  12 -16  -2  351.16   38.20
  16 -12  -2  396.16   36.10
  -4  16  -2  430.96   36.70
   9   7   2  441.86   42.70
   9 -16  -2  462.15   41.90
   7   9  -2  400.66   41.00
 -16   7  -2  435.46   35.90
 -16   9   2  452.35   41.00
   9   7   2  460.75   35.10
   7   9  -2  497.65   36.80
   7 -16   2  545.35   35.90
  -9  16   2  459.35   41.60
  16  -9  -2  483.25   40.90
  -7  16  -2  472.95   40.00
  16  -7   2  460.95   42.90
 -16   6   2  195.18   25.70
  10   6  -2  168.08   22.30
   6  10   2  164.08   26.00
 -16  10  -2  187.58   20.90
  16 -10   2  224.08   27.70
 -10  -6   2  187.58   26.00
  16  -6  -2  193.18   23.30
 -10  16  -2  215.88   22.40
  -6  16   2  202.88   29.10
  -6  16   2  190.98   28.10
 -16  13  -2  157.88   21.10
  13   3  -2  102.79   20.60
   3  13   2  143.99   28.20
 -16   3   2  140.79   24.90
 -13  -3   2  148.29   24.80
  -3  16   2  124.69   26.00
  16 -13   2  181.38   25.30
 -13  16  -2  157.28   19.50
  -3  16   2  114.19   26.50
  16  -3  -2  105.59   22.50
   0  16   2  630.44   50.89
   0  16   2  464.75   47.70
  16   0  -2  496.15   47.50
 -16  16  -2  675.93   47.10
 -16   0   2  586.34   48.00
  17   0   2  721.63   63.89
  17 -17  -2  766.32   61.29
 -17  17   2  765.92   62.09
   0  17  -2  813.42   61.39
   3  14  -2  664.83   53.49
  14 -17  -2  691.03   53.99
 -17  14   2  648.94   53.79
  14   3   2  698.53   56.79
 -14  17   2  663.63   54.09
  17 -14  -2  577.94   52.79
  -3  17  -2  645.94   51.99
  11 -17  -2  355.66   35.70
  11   6   2  306.87   34.90
 -17  11   2  319.57   33.00
 -17   6  -2  342.27   27.70
   6  11  -2  314.67   32.70
  -6  17  -2  387.26   34.00
  17 -11  -2  379.96   33.10
   9   8  -2   39.50   15.00
   9 -17   2   46.60   10.70
 -17   9  -2   45.20   11.00
 -17   8   2   44.40   15.10
   8   9   2   36.60   19.00
  17  -9   2    8.80   16.50
  17  -8  -2   55.99   14.60
  -8  17   2   46.30   14.80
  -9  17  -2   87.89   18.40
 -17   5   2   48.80   14.10
  12   5  -2   49.10   13.10
 -17  12  -2   56.39   13.10
  12 -17   2   14.80   13.20
   5  12   2   65.39   19.30
 -12  17  -2   98.59   20.50
  -5  17   2   24.90   17.70
  -5  17   2   31.40   18.70
 -12  -5   2   48.40   14.80
  17 -12   2   30.10   15.60
  17  -5  -2   41.50   13.80
 -17  15  -2   97.59   20.90
  15   2  -2   42.30   14.00
   2  15   2   64.39   15.20
   2  15   2   76.19   19.50
 -17   2   2  104.79   19.40
  17  -2  -2   62.69   16.20
  17 -15   2   22.00   16.20
 -15  -2   2   73.59   16.80
  -2  17   2   58.19   16.30
 -15  17  -2   99.99   18.90
  -2  17   2  110.49   21.50
   2  16  -2  299.47   31.20
  16 -18  -2  350.06   34.00
 -18  16   2  243.78   33.50
  -2  18  -2  341.77   33.00
  18  -2   2  295.07   33.70
  18 -16  -2  212.98   32.90
 -16  18   2  241.18   35.20
  13 -18  -2  267.27   32.80
  13   5   2  330.57   36.30
   5  13  -2  224.78   29.80
 -18  13   2  268.97   31.70
 -13  18   2  302.97   34.10
  -5  18  -2  298.87   29.50
  18  -5   2  258.47   34.40
  18 -13  -2  304.87   32.30
 -18   8  -2  156.08   18.60
  10 -18  -2  107.89   27.70
  10   8   2  149.39   30.40
   8  10  -2  147.59   21.30
   8  10  -2  122.99   23.80
 -18  10   2  163.48   26.70
  18  -8   2  186.98   27.00
  18 -10  -2  181.38   25.60
  -8  18  -2  212.48   25.70
 -10  18   2  172.88   25.30
  11   7  -2  271.47   36.70
 -18  11  -2  298.17   28.50
 -18   7   2  263.77   32.00
   7  11   2  200.48   34.20
  18  -7  -2  267.47   30.70
  -7  18   2  242.78   33.60
 -11  18  -2  321.87   29.60
  18 -11   2  326.07   33.30
  -7  18   2  296.67   32.90
   4  14   2  130.49   30.20
 -18   4   2  129.89   25.80
 -18  14  -2  106.59   24.10
  14   4  -2  144.39   24.40
  -4  18   2  157.48   30.60
 -14  -4   2  120.19   26.20
  18  -4  -2  147.49   24.70
 -14  18  -2  193.58   24.60
  -4  18   2  117.79   27.70
  18 -14   2  134.19   21.70
  17   1  -2  105.59   23.60
 -18  17  -2  155.38   25.40
 -18   1   2  133.99   28.30
   1  17   2  151.88   30.30
   1  17   2  130.09   20.10
 -17  18  -2  143.69   25.00
  18  -1  -2  160.78   25.60
 -17  -1   2  145.29   28.00
  18 -17   2  100.69   24.80
  -1  18   2   97.69   19.10
  -1  18   2  171.18   31.50
 -19  18   2  169.48   25.50
  18 -19  -2  173.68   27.90
  18   1   2  198.98   32.10
   1  18  -2  175.78   25.00
  19 -18  -2  169.38   27.60
  -1  19  -2  179.78   27.00
 -18  19   2  185.08   26.20
  19  -1   2  115.19   24.10
   4  15  -2  287.17   33.60
 -19  15   2  280.57   31.90
  15 -19  -2  256.37   33.80
  19 -15  -2  301.37   33.50
 -15  19   2  330.47   34.20
  19  -4   2  315.37   37.60
  -4  19  -2  326.17   33.60
   7  12  -2  421.06   37.50
 -19  12   2  351.76   38.60
  12   7   2  445.16   43.10
  12 -19  -2  339.37   41.20
  19 -12  -2  470.35   38.50
  -7  19  -2  470.75   37.80
  19  -7   2  392.86   41.90
   9  10   2  368.46   33.50
 -19   9   2  417.66   38.50
 -19  10  -2  368.06   33.20
   9  10   2  398.16   40.90
  10   9  -2  324.57   34.30
  10   9  -2  367.56   36.00
   9 -19  -2  385.16   38.70
  -9  19   2  320.37   36.50
  19  -9  -2  422.76   36.70
 -10  19  -2  427.56   36.00
  13 -19   2  152.08   25.80
 -19  13  -2  207.58   24.30
  13   6  -2  168.68   26.80
   6  13   2  190.78   31.30
 -19   6   2  178.88   28.40
  19 -13   2  152.58   24.70
  19  -6  -2  122.99   24.50
 -13  19  -2  226.18   25.40
 -13  -6   2  181.88   29.00
  -6  19   2  193.68   30.60
  16   3  -2  220.98   29.10
   3  16   2  234.78   36.50
 -19   3   2  240.48   33.10
 -19  16  -2  193.58   31.50
   3  16   2  199.28   28.30
  -3  19   2  256.77   32.10
 -16  19  -2  260.77   27.30
  19  -3  -2  278.47   30.00
  -3  19   2  279.57   36.60
  19 -16   2  293.07   30.50
 -16  -3   2  222.88   31.70
 -19   0   2  350.46   34.80
  19   0  -2  306.97   32.90
   0  19   2  327.67   39.50
 -19  19  -2  296.57   33.10
   0  20  -2  203.28   28.20
  20 -20  -2  164.48   25.80
  20   0   2  226.88   31.90
 -20  20   2  201.98   26.30
  17   3   2  178.98   32.10
   3  17  -2  176.48   24.00
 -20  17   2  131.99   24.90
  17 -20  -2  140.99   26.70
  -3  20  -2  186.78   24.00
  20  -3   2  140.39   26.50
  20 -17  -2  154.48   25.70
  14   6   2  135.39   32.90
 -20  14   2  185.78   28.30
   6  14  -2  231.28   29.20
  14 -20  -2  153.38   27.90
   9  11  -2   99.59   19.40
 -20  11   2  116.39   26.50
  11   9   2  108.49   23.50
  11 -20  -2  109.99   27.00
 -11  20   2  103.29   24.60
  20 -11  -2  147.79   26.10
  20  -9   2   88.79   21.00
  12   8  -2  139.09   23.20
   8  12   2   90.29   22.10
  12   8  -2  131.89   26.30
 -20   8   2   79.29   18.80
   8  12   2   51.49   13.40
  12 -20   2   83.59   23.00
  -8  20   2   79.49   18.60
  20 -12   2   83.39   20.10
 -20   5   2   65.09   18.50
   5  15   2   35.50   20.70
  15   5  -2   64.89   17.20
  15 -20   2  116.99   25.50
 -20  15  -2   35.30   14.60
  -5  20   2   54.69   19.10
 -15  -5   2   34.60   16.60
 -15  20  -2   59.89   14.80
  20 -15   2   17.00   16.60
  20  -5  -2   44.80   16.60
  -5  20   2   53.79   21.50
 -20  18  -2   15.60   15.60
  18 -20   2   -6.10   15.10
  18   2  -2   15.10   15.70
   2  18   2   -1.80   18.40
 -20   2   2   11.80   15.60
  20 -18   2   34.10   17.00
  20  -2  -2   17.50   14.40
 -18  20  -2   20.20   15.70
 -18  -2   2    8.10   15.80
  -2  20   2   -6.80   18.80
  19   2   2   46.00   19.30
  19 -21  -2   42.90   15.70
 -21  19   2   42.70   16.50
   2  19  -2   53.19   16.50
 -19  21   2   41.90   16.90
  21  -2   2   42.30   17.10
  21 -19  -2   33.70   15.40
  -2  21  -2   53.59   15.20
  16   5   2  189.18   30.80
   5  16  -2  174.98   24.40
  16 -21  -2  170.68   27.00
 -21  16   2  151.28   26.90
  21 -16  -2  167.18   24.30
  -5  21  -2  187.08   26.40
 -16  21   2  144.49   26.10
  21  -5   2  148.49   26.70
  13 -21  -2   29.30   16.90
   8  13  -2   20.40   15.00
 -21  13   2    7.00   16.20
  13   8   2    8.90   19.20
 -13  21   2   10.90   15.80
  -8  21  -2   29.40   14.40
  21 -13  -2   12.20   14.90
  21  -8   2    2.20   17.80
  10  11   2  216.88   36.70
  10 -21  -2  318.37   35.20
  11  10  -2  294.27   33.30
 -21  10   2  292.87   33.60
 -21  11  -2  307.47   33.10
 -10  21   2  302.67   47.60
  21 -10  -2  316.37   32.90
 -11  21  -2  314.57   30.20
 -21  14  -2  321.47   33.70
  14   7  -2  302.87   32.40
 -21   7   2  374.46   35.10
  14   7  -2  350.36   33.70
   7  14   2  287.97   37.70
 -14  21  -2  309.87   33.90
  21 -14   2  308.47   36.30
  -7  21   2  243.18   36.40
   4  17   2  223.18   33.20
   4  17   2  177.18   26.50
  17 -21   2  169.58   29.50
 -21   4   2  262.57   31.60
  17   4  -2  222.28   29.10
 -21  17  -2  191.08   28.20
 -17  -4   2  189.78   29.80
  -4  21   2  190.48   32.90
 -17  21  -2  228.78   25.40
  21 -17   2  266.77   31.50
  -4  21   2  203.38   29.60
  21  -4  -2  198.08   32.80
  20 -21   2   69.89   18.50
  20   1  -2  103.09   25.80
   1  20   2   60.79   22.40
   1  20   2   82.19   18.40
 -21   1   2  117.19   27.90
 -20  21  -2  116.09   19.80
  -1  21   2  100.09   24.50
  21  -1  -2   95.89   24.60
 -20  -1   2   95.59   19.50
  21   1   2  -11.80   18.10
 -22  21   2    4.70   15.80
  21 -22  -2    7.40   16.20
   1  21  -2   11.30   15.20
 -21  22   2    7.70   14.90
  22 -21  -2    4.70   15.00
  -1  22  -2   12.70   14.50
  22  -1   2    6.70   18.60
  18 -22  -2   40.20   17.00
 -22  18   2   49.90   16.60
   4  18  -2   47.50   15.50
  18   4   2   44.50   20.40
  -4  22  -2   38.10   14.40
 -18  22   2   24.70   16.80
  22 -18  -2   44.10   16.30
  22  -4   2   35.40   17.50
 -22  15   2  114.89   23.60
   7  15  -2   92.79   18.60
  15 -22  -2   93.69   24.30
  15   7   2  134.79   26.70
  -7  22  -2  128.69   22.90
 -15  22   2  101.79   23.00
  22 -15  -2   79.19   18.20
  22  -7   2  111.89   26.90
  10  12  -2  183.58   26.20
  12  10   2  174.28   32.30
  12 -22  -2  154.28   27.20
 -12  22   2  140.19   27.60
 -10  22  -2  207.08   23.80
  22 -10   2  164.48   29.10
 -22   9   2   77.89   18.50
   9 -22  -2   48.00   18.00
  13   9  -2   68.39   16.60
   9  13   2   74.59   20.80
 -13  22  -2   92.99   21.20
  -9  22   2   57.69   17.20
  22 -13   2   75.89   19.60
   6  16   2   40.00   20.20
  16 -22   2   -3.40   17.00
 -22   6   2   41.60   16.40
  16   6  -2   44.40   15.40
 -22  16  -2   43.30   16.20
  22 -16   2   45.60   16.80
  22  -6  -2   33.40   14.90
 -16  22  -2   43.70   14.60
  -6  22   2   23.20   17.10
   3  19   2  139.19   25.80
  19   3  -2  118.79   26.40
 -22   3   2  235.28   47.20
 -22  19  -2  101.89   20.00
   3  19   2  146.99   27.40
 -19  -3   2  129.39   27.90
  -3  22   2  175.58   33.20
  22  -3  -2  167.78   25.50
 -19  22  -2  169.98   24.30
  -3  22   2  131.19   27.10
  22 -19   2  117.09   27.70
  22 -22   2  263.17   36.20
   0  22   2  345.57   36.50
 -22  22  -2  402.76   36.60
 -22   0   2  296.37   37.10
   0  22   2  258.47   43.00
  22   0  -2  344.07   36.70
   0  23  -2  149.09   23.60
 -23  23   2  121.49   24.50
  23   0   2   97.69   24.10
 -23  20   2   26.90   15.90
  20   3   2   41.20   19.40
  20 -23  -2   53.79   17.80
   3  20  -2   64.79   17.50
  -3  23  -2   49.50   15.20
  23 -20  -2   46.20   16.20
 -20  23   2   13.40   15.40
  23  -3   2   35.90   19.10
   6  17  -2   17.90   15.80
  17   6   2    1.60   18.60
 -23  17   2    7.20   15.10
  17 -23  -2   -1.40   14.80
 -17  23   2    1.70   14.70
  23 -17  -2    9.20   14.80
  -6  23  -2    9.30   14.00
  23  -6   2  -11.10   15.70
   9  14  -2  163.88   24.70
 -23  14   2  128.59   24.30
  14 -23  -2  144.59   26.00
  14   9   2  131.99   29.60
  23 -14  -2  119.39   24.70
  -9  23  -2  148.59   23.90
 -23  11   2  308.77   33.90
  11  12   2  303.07   36.60
  12  11  -2  304.97   42.90
 -11  23   2  252.97   30.20
  23 -12   2  234.88   33.90
 -12  23  -2  279.47   28.10
  23 -11  -2  307.77   32.00
 -23  15  -2  108.49   24.30
  15   8  -2  160.78   25.30
   8 -23  -2  102.09   25.60
  15   8  -2  156.78   25.90
 -23   8   2   88.89   20.80
  -8  23   2  114.29   20.80
  23  -8  -2   96.89   19.50
 -15  23  -2  119.99   20.90
  23 -15   2  128.69   26.50
 -23   5   2   62.29   18.80
   5  18   2   30.90   23.50
  18   5  -2   34.00   17.70
  18 -23   2   30.80   18.60
  23  -5  -2   25.80   16.90
  23 -18   2   41.20   19.00
  -5  23   2   46.90   16.40
 -18  23  -2   28.20   15.10
  -5  23   2   17.30   29.60
   2  21   2   73.09   26.20
  21   2  -2  101.09   22.10
  21 -23   2  117.79   21.80
   2  21   2  105.69   37.10
 -23   2   2   77.99   20.80
 -23  21  -2   43.70   18.00
 -21  23  -2   68.59   18.30
 -21  -2   2   60.79   20.90
  -2  23   2   96.09   20.20
  -2  23   2   78.59   26.10
  23 -21   2   53.09   21.70
  23  -2  -2  121.49   26.90
  22 -24  -2  117.89   23.10
 -24  22   2   87.79   20.40
  22   2   2  116.79   29.70
   2  22  -2  139.49   25.80
  24 -22  -2  119.99   24.90
 -22  24   2   66.39   18.40
  24  -2   2  110.39   24.10
  -2  24  -2  124.49   22.10
  19 -24  -2   31.90   18.50
  19   5   2    1.70   19.90
 -24  19   2    9.70   15.50
   5  19  -2   27.20   15.60
 -19  24   2    9.60   16.30
  24 -19  -2   29.40   16.20
  -5  24  -2   27.50   14.20
  24  -5   2    4.90   17.10
  16   8   2    6.70   20.50
 -24  16   2    5.30   17.50
   8  16  -2    6.20   14.20
  16 -24  -2   11.70   15.80
  -8  24  -2   14.90   13.70
  24 -16  -2   14.50   15.30
 -16  24   2   -5.10   15.10
  24  -8   2  -10.30   16.40
  11  13  -2   95.39   22.50
  13 -24  -2   57.29   18.00
  13  11   2   67.49   22.50
 -24  13   2   50.29   17.70
  24 -13  -2   64.89   17.60
  24 -11   2   47.80   18.70
 -11  24  -2   65.59   15.30
 -13  24   2   45.40   17.00
  10  14   2  244.98   34.30
 -24  10   2  221.98   30.60
  10 -24  -2  208.98   31.00
  14  10  -2  264.47   29.30
  24 -10  -2  231.58   27.70
  24 -14   2  191.88   31.80
 -14  24  -2  230.28   27.90
 -10  24   2  197.68   29.60
   7  17   2  122.69   26.40
 -24   7   2  140.79   29.30
  17   7  -2  197.58   28.00
  -7  24   2  175.18   28.40
  24  -7  -2  113.89   26.80
 -17  24  -2  130.59   25.00
  24 -17   2  152.98   29.00
 -24   4   2   77.79   20.50
  20   4  -2   42.90   19.20
  20 -24   2  106.79   20.70
   4  20   2   55.89   24.30
  24  -4  -2   64.59   18.90
  24 -20   2   51.59   20.60
  -4  24   2   29.20   23.30
 -20  24  -2   54.89   17.40
  -4  24   2   73.59   18.30
  23   1  -2    5.60   19.30
   1  23   2  -44.80   23.70
 -24   1   2    6.80   18.80
 -24  23  -2   -2.50   17.30
   1  23   2    9.30   17.50
  -1  24   2   14.70   17.70
  -1  24   2    6.10   26.00
  24  -1  -2   29.50   18.90
 -23  24  -2   21.00   17.80
 -25  24   2   26.50   17.30
  24 -25  -2   17.00   16.90
   1  24  -2   14.00   16.00
  24   1   2   18.80   22.60
  -1  25  -2   26.50   15.00
 -24  25   2   11.80   16.80
  25 -24  -2   42.30   18.30
  25  -1   2   41.10   21.30
   4  21  -2   55.69   18.30
  21   4   2   24.50   21.10
  21 -25  -2   37.30   18.20
 -25  21   2   43.30   17.20
  -4  25  -2   44.70   15.60
  25  -4   2   33.20   19.40
  25 -21  -2   27.60   15.80
 -21  25   2   30.80   17.00
   7  18  -2   44.40   16.90
  18   7   2   82.59   24.10
 -25  18   2   60.39   20.10
  18 -25  -2   68.09   19.60
 -18  25   2   44.10   17.50
  25  -7   2   52.19   19.90
  25 -18  -2   46.70   17.60
  -7  25  -2   55.59   16.00
  10  15  -2  102.39   23.40
 -25  15   2   77.29   19.80
  15 -25  -2   61.79   18.00
  15  10   2  111.99   24.50
  25 -15  -2   52.49   16.50
 -10  25  -2   82.79   19.90
  25 -10   2   42.50   19.20
 -15  25   2   38.70   16.70
  12  13   2   93.29   23.90
  13  12  -2  156.58   25.90
 -25  12   2  142.39   29.60
  12 -25  -2  109.09   27.50
  25 -12  -2  135.89   26.20
 -13  25  -2  149.49   24.40
  25 -13   2  125.09   29.40
   9  16   2   79.49   23.40
  16   9  -2   60.39   17.40
   9 -25  -2   12.90   18.40
 -25   9   2   47.30   18.20
 -16  25  -2   43.20   14.90
  25  -9  -2   32.00   16.70
  -9  25   2   24.10   16.30
  25 -16   2   38.70   20.60
   6 -25  -2    5.90   17.50
 -25   6   2   53.69   20.00
   6  19   2   77.39   23.80
  19   6  -2   20.80   19.50
 -25  19  -2   59.29   19.40
 -19  25  -2   39.10   18.00
  25 -19   2   37.30   19.60
  25  -6  -2   25.30   16.60
  -6  25   2   21.30   18.10
  22   3  -2   28.60   19.80
  22 -25   2   64.89   23.00
 -25  22  -2  142.79   27.20
   3  22   2   36.30   19.30
   3  22   2   76.69   26.60
 -25   3   2   46.40   21.00
  25 -22   2   82.19   22.60
 -22  25  -2   55.49   20.50
  25  -3  -2   77.19   20.50
  25   0  -2   15.60   20.10
  25 -25   2  -38.20   21.30
 -25  25  -2  -27.40   18.30
  26 -26  -2  166.08   28.20
 -26  26   2  164.98   30.60
   0  26  -2  126.19   27.40
  26   0   2  185.78   34.70
 -26  23   2  233.88   33.00
   3  23  -2  249.18   32.30
  23   3   2  219.48   35.70
  23 -26  -2  326.27   32.70
 -23  26   2  224.38   30.50
  26 -23  -2  269.87   29.90
  -3  26  -2  278.97   30.80
  26  -3   2  257.57   35.70
  20   6   2   59.29   22.00
 -26  20   2   57.89   19.00
  20 -26  -2   81.29   20.10
   6  20  -2   60.19   17.90
  26 -20  -2   22.10   15.50
  -6  26  -2   44.20   16.00
  26  -6   2   49.50   18.50
 -20  26   2   31.30   16.40
  17   9   2   75.69   23.60
 -26  17   2  122.39   27.90
  17 -26  -2  102.39   25.60
   9  17  -2  104.29   23.90
 -17  26   2  118.99   26.50
  -9  26  -2  107.09   23.60
  26  -9   2  102.99   22.20
  26 -17  -2  111.79   22.60
 -26  14   2  220.48   33.40
  14  12   2  216.68   37.00
  12  14  -2  272.77   31.10
  14 -26  -2  237.68   31.90
 -12  26  -2  297.17   29.60
  26 -12   2  196.08   32.00
  26 -14  -2  230.98   29.90
 -14  26   2  203.38   30.40
 -26  11   2  129.39   29.10
  11 -26  -2  159.28   29.90
  15  11  -2  186.78   27.40
  11  15   2  148.99   34.50
 -11  26   2  134.69   26.00
  26 -11  -2  129.29   27.10
  26 -15   2  122.69   30.40
 -15  26  -2  177.58   25.70
   8 -26  -2    7.60   17.70
 -26   8   2   29.00   19.90
   8  18   2   -4.50   23.70
  18   8  -2   44.50   16.50
 -26  18  -2  -10.70   17.30
  26 -18   2   -2.40   19.20
  -8  26   2   -6.10   15.80
 -18  26  -2   11.40   15.50
  26  -8  -2    8.60   17.60
 -26   5   2  151.68   34.90
  21   5  -2  103.39   23.30
   5  21   2  195.48   34.40
 -26  21  -2  135.89   30.90
  -5  26   2  152.08   29.40
  26  -5  -2  102.99   23.00
  26 -21   2  188.28   31.10
 -21  26  -2  114.39   27.40
  24   2  -2    0.60   20.20
 -26   2   2   -4.40   20.40
 -26  24  -2   42.70   19.50
 -24  26  -2  -22.90   17.50
  26 -24   2   22.10   20.70
  26  -2  -2   49.40   20.40
  22   5   2   21.70   21.50
   5  22  -2   26.60   17.90
 -27  22   2   29.80   18.70
  22 -27  -2   27.30   17.20
 -22  27   2   25.40   16.80
  27  -5   2   16.90   17.60
  27 -22  -2   27.60   17.30
  -5  27  -2   28.50   16.60
  19 -27  -2    4.80   17.20
   8  19  -2    6.40   17.00
 -27  19   2   23.10   19.10
  19   8   2    2.70   23.40
  27 -19  -2    1.90   15.40
 -19  27   2   14.20   15.90
  -8  27  -2    5.40   14.00
  27  -8   2   -7.70   16.40
  16 -27  -2   30.30   17.80
  16  11   2   65.39   23.70
  11  16  -2   55.19   18.40
 -27  16   2   48.60   20.50
 -16  27   2   45.80   16.90
 -11  27  -2   42.90   14.40
  27 -11   2   36.10   19.90
  27 -16  -2   46.80   18.10
  14  13  -2   46.00   17.20
  13 -27  -2   47.70   18.40
  13  14   2   57.19   24.10
  27 -14   2   46.90   19.70
 -13  27   2   32.70   15.60
  27 -13  -2   19.80   16.50
 -14  27  -2   37.50   15.90
  10  17   2   52.99   25.00
  10 -27  -2   52.29   17.90
 -27  10   2   32.80   20.90
  17  10  -2   45.20   16.80
  27 -17   2   36.40   19.90
 -17  27  -2   44.70   16.50
 -10  27   2   23.90   15.90
  27 -10  -2   34.50   16.60
   7  20   2   53.79   24.90
 -27  20  -2   45.00   20.70
   7 -27  -2   66.59   20.40
  -7  27   2   28.90   16.80
  27  -7  -2   42.20   17.10
 -20  27  -2   60.49   19.10
  27 -20   2   60.69   23.80
 -27   4   2    6.10   20.90
   4 -27  -2  -31.30   18.50
 -27  23  -2    5.40   20.50
  23   4  -2   -1.70   19.20
  23 -27   2  -34.50   23.20
  27 -23   2   35.50   22.90
 -23  27  -2   41.70   19.60
  27  -4  -2   -6.20   19.10
   7  21  -2   58.49   19.30
  21   7   2   90.79   28.30
 -28  21   2   91.29   22.80
  21 -28  -2   85.39   21.10
 -21  28   2  134.29   27.30
  28 -21  -2  109.49   21.20
  28  -7   2  118.89   27.90
  -7  28  -2  121.99   24.10
  18  10   2   98.19   24.60
  10  18  -2   54.99   17.80
  18 -28  -2  102.39   22.90
 -28  18   2   86.19   22.90
  28 -18  -2   69.49   18.50
 -18  28   2   61.29   17.30
 -10  28  -2   57.29   15.90
  28 -10   2   52.39   20.00
 -28  15   2   25.80   21.40
  15 -28  -2   64.69   18.90
  15  13   2   68.29   23.80
  13  15  -2   38.50   17.10
  28 -13   2   28.70   19.80
 -15  28   2   46.50   17.20
  28 -15  -2   18.50   15.80
 -13  28  -2   24.60   15.10
  12 -28  -2   58.89   18.30
 -28  12   2   45.00   20.70
  12  16   2    8.50   24.40
  28 -16   2   30.50   19.50
  28 -12  -2   46.70   18.60
 -16  28  -2   58.39   16.30
 -12  28   2   56.19   17.40
   9 -28  -2   36.60   17.40
   9  19   2   13.30   24.70
  -9  28   2   -4.20   15.50
  28  -9  -2   14.90   17.10
 -19  28  -2   12.80   18.00
  28 -19   2    7.10   21.80
 -28   6   2   53.39   23.80
 -28  22  -2   -0.50   20.30
   6 -28  -2   46.90   20.90
   6  22   2   48.30   27.10
 -22  28  -2   30.60   18.90
  28 -22   2   31.30   25.20
  28  -6  -2   47.80   19.60
  -6  28   2   32.30   18.70
  20   9   2   86.09   25.90
  20 -29  -2   62.09   21.90
 -29  20   2   56.39   21.50
   9  20  -2   36.90   19.10
 -20  29   2   50.19   16.80
  29  -9   2   31.90   17.80
  29 -20  -2   74.09   19.60
  -9  29  -2   40.10   16.30
  17  12   2  156.78   36.10
 -29  17   2  174.28   32.70
  17 -29  -2  187.28   31.70
  12  17  -2  125.79   28.30
 -17  29   2  164.08   27.50
  29 -12   2  170.48   30.70
  29 -17  -2  141.89   27.80
 -12  29  -2  134.29   25.70
  15  14  -2  161.48   28.20
  14 -29  -2  173.58   27.60
  14  15   2  143.09   36.30
 -29  14   2   94.59   23.10
  29 -15   2  118.19   29.80
  29 -14  -2  127.99   26.70
 -15  29  -2   86.49   19.30
 -14  29   2  131.89   26.70
 -29  11   2   32.80   22.60
  11  18   2   36.10   25.90
  18  11  -2   47.60   18.00
  11 -29  -2   40.70   17.80
  29 -18   2   37.50   23.60
  29 -11  -2   19.50   19.00
 -18  29  -2   41.00   16.70
   8 -29  -2   60.29   19.10
 -21  29  -2   32.30   18.70
  29  -8  -2   40.00   21.10
  -8  29   2    6.40   16.80
  29 -21   2   77.19   25.50
  16  14   2  144.49   36.40
  14  16  -2   80.29   21.00
  16 -30  -2  142.79   31.10
 -16  30   2  131.79   27.30
  30 -16  -2  104.29   25.80
  30 -14   2  136.09   32.00
   0   0   3  473.95   47.10
   0   0   3  632.04   45.20
   1   1   3  243.98   22.40
  -2   1   3  223.48   22.00
  -2   1   3  234.08   20.90
   1   1   3  241.18   20.60
   1  -2   3  209.88   21.00
   1  -2   3  246.68   22.00
  -1   2   3  227.48   22.80
  -1   2   3  248.48   20.90
   2  -1   3  225.88   20.40
   2  -1   3  246.38   22.50
  -1  -1   3  232.38   21.40
   3   0   3 1489.85  107.69
   3   0   3 1608.44  109.19
   0  -3   3 1484.55  108.49
   0  -3   3 1458.15  107.99
  -3   3   3 1513.45  108.99
  -3   0   3 1079.49   75.69
  -3   0   3  910.31   75.69
   0   3   3  942.41   76.49
   3  -3   3 1095.39   75.19
   3  -3   3 1160.38   75.79
   2   2   3  813.42   56.59
  -4   2   3  841.82   57.79
  -4   2   3  697.53   57.99
   2   2   3  873.81   58.79
   2  -4   3  654.03   57.09
   2  -4   3  747.63   57.19
  -2  -2   3  761.22   57.09
   4  -2   3  791.72   56.79
  -2  -2   3  781.92   57.79
  -2   4   3  770.62   56.99
  -2   4   3  826.52   58.79
   1  -5   3  184.48   19.50
   4   1   3  172.48   19.60
  -5   4   3  171.38   19.70
  -5   4   3  141.79   20.60
   4   1   3  169.68   15.30
   1  -5   3  167.18   16.60
  -1  -4   3  152.18   16.40
   5  -1   3  163.18   15.80
  -1  -4   3  166.38   18.60
  -4   5   3  191.48   18.10
  -4   5   3  169.18   19.30
   4  -5   3  148.99   18.70
  -5   1   3  181.18   20.20
   1   4   3  200.58   23.60
  -5   4  -3  205.38   18.00
   1   4   3  183.78   17.50
   5  -4   3  186.98   19.50
  -1   5   3  201.88   18.30
  -4  -1   3  204.98   21.10
  -1   5   3  204.98   23.10
  -4   5  -3  214.78   18.80
  -6   6   3  526.15   41.00
  -6   6   3  551.54   42.80
   6   0   3  522.75   41.80
   0  -6   3  509.15   41.20
  -6   3   3  667.63   51.99
   3   3   3  649.24   49.90
   3  -6   3  714.33   50.69
  -6   3  -3  698.33   49.99
   3   3   3  726.03   53.49
  -3  -3   3  667.53   52.29
   6  -3   3  699.23   51.89
  -3   6  -3  671.53   51.39
  -3   6   3  672.73   52.59
   6  -6   3   52.99   13.60
   0   6   3   77.59   15.90
  -6   6  -3   93.89   12.60
   6   0  -3   92.19   14.20
  -7   5   3  743.43   51.39
   2  -7   3  562.64   49.30
   5   2   3  704.23   48.80
   2   5  -3  668.33   49.00
  -7   2  -3  672.83   48.70
  -2  -5   3  691.03   51.79
  -5   7   3  725.63   51.29
  -2   7  -3  632.54   50.69
  -5   7   3  681.03   51.99
   2   5   3  234.98   18.70
   2   5   3  167.98   23.50
   5   2  -3  207.28   19.30
  -7   2   3  177.68   21.90
   5  -7   3  221.48   19.70
  -7   5  -3  191.98   18.40
  -2   7   3  253.37   25.10
   7  -5   3  215.48   20.80
   7  -2  -3  200.78   21.20
  -5  -2   3  262.37   24.20
  -2   7   3  236.78   20.10
  -5   7  -3  194.88   20.60
  -8   1  -3  219.28   17.40
   1   7  -3  198.58   17.30
  -8   7   3  237.88   24.00
  -7   8   3  248.18   25.50
   8  -7  -3  236.28   23.80
  -7   8   3  229.98   22.10
  -7  -1  -3  259.67   17.10
   8  -1   3  224.08   23.40
  -1   8  -3  215.08   22.70
  -8   4   3  407.06   32.90
   4   4  -3  380.26   28.70
   4  -8   3  322.57   29.20
   4   4   3  408.76   34.20
  -8   4  -3  372.96   28.60
   4   4   3  374.56   28.60
  -4   8   3  355.16   33.00
  -4   8  -3  367.56   30.60
   8  -4  -3  393.76   32.40
  -4  -4   3  373.56   31.90
  -4   8   3  390.56   30.80
   7  -8   3   76.59   15.40
   1   7   3  140.49   22.20
   1   7   3  132.89   13.30
  -8   1   3  122.29   19.70
  -8   7  -3   84.59   13.60
   7   1  -3   72.99   14.20
   8  -1  -3   81.89   15.80
  -1   8   3  125.99   14.40
   8  -7   3  123.59   16.00
  -7   8  -3   92.99   15.10
  -1   8   3  138.59   21.80
  -7  -1   3  128.09   21.00
   0   9  -3  723.53   54.79
   9  -9  -3  737.43   55.69
  -9   9   3  662.33   53.79
   9   0   3  713.93   55.69
   3   6  -3   58.49    7.40
   6   3   3   54.99   14.10
  -9   6   3   34.30   11.90
   6   3   3   63.09    7.50
  -9   3  -3   46.00    6.50
   3  -9   3   62.59    9.70
  -6   9   3   53.19   10.90
   9  -6  -3   65.79   13.00
  -3   9  -3   48.40   11.00
  -6   9   3   34.20   13.20
   9  -3   3   46.50   11.70
  -3  -6   3   73.89   17.80
  -9   6  -3  139.49   14.50
   6  -9   3  146.89   15.30
   3   6   3  125.99   14.20
   6   3  -3  139.89   14.50
  -9   3   3  133.59   19.00
   3   6   3  171.98   21.50
  -3   9   3   98.89   22.20
   9  -3  -3  143.09   18.00
  -6  -3   3  130.29   20.90
  -3   9   3  135.49   16.70
  -6   9  -3  133.89   17.60
   0   9   3  155.78   26.30
   0   9   3  177.98   18.30
  -9   0   3  187.68   23.10
   9  -9   3  190.58   20.60
   9   0  -3  173.38   19.20
  -9   9  -3  196.68   20.50
 -10   8   3  174.78   20.70
   8   2   3  119.89   21.20
   2   8  -3  110.79   19.80
  10  -8  -3  166.98   22.50
  -8  10   3  182.98   21.70
  -8  10   3  189.68   19.30
  -2  10  -3  148.59   20.90
  10  -2   3  162.88   21.00
   5 -10   3  684.33   47.50
 -10   5  -3  593.34   46.90
   5   5   3  640.74   46.70
   5   5   3  644.24   50.99
 -10   5   3  659.83   50.09
   5   5  -3  634.64   46.70
  -5  -5   3  646.14   50.69
  -5  10   3  647.44   49.20
  10  -5  -3  635.04   49.40
  -5  10  -3  606.34   48.80
  -5  10   3  699.03   51.79
 -10   2   3  394.96   35.00
   8 -10   3  335.77   31.90
 -10   8  -3  394.86   31.70
   2   8   3  423.36   37.60
   2   8   3  407.96   31.20
   8   2  -3  414.56   31.60
  -2  10   3  422.46   37.10
  -2  10   3  415.26   32.70
  -8  -2   3  391.96   35.00
  -8  10  -3  398.96   32.20
  10  -2  -3  418.56   33.40
  10 -11  -3  673.93   52.79
   1  10  -3  610.64   51.39
  10   1   3  692.63   52.79
 -11  10   3  661.03   51.39
 -10  11   3  668.93   51.89
  11 -10  -3  679.63   52.99
  -1  11  -3  628.84   50.99
   4 -11   3 1520.85  110.19
 -11   4  -3 1543.25  110.29
   7   4   3 1623.74  113.89
   4   7  -3 1586.44  110.09
  11  -7  -3 1647.14  113.29
  -7  11   3 1517.65  112.69
  -7  11   3 1522.85  113.49
  -4  11  -3 1577.84  112.69
  -4  -7   3 1480.25  112.89
   4   7   3 1355.06  114.49
 -11   7  -3 1520.95  111.49
   7 -11   3 1550.14  111.89
 -11   4   3 1667.23  113.89
   4   7   3 1502.65  111.29
  -4  11   3 1590.34  112.99
  -7  -4   3 1611.64  113.99
  -4  11   3 1598.04  114.39
  -7  11  -3 1573.54  112.79
  11  -4  -3 1671.13  113.39
   1  10   3  186.88   20.30
  10 -11   3  226.78   22.80
 -11  10  -3  185.68   20.80
   1  10   3  204.08   29.80
  11 -10   3  226.98   23.80
 -10  11  -3  201.08   21.80
  11  -1  -3  189.78   21.40
  -1  11   3  208.98   21.70
 -12  12   3  960.70   74.49
  12 -12  -3 1025.40   76.29
   0  12  -3  995.80   74.89
   3   9  -3  679.93   55.19
 -12   9   3  725.53   55.79
  -3  12  -3  704.93   54.99
  12  -9  -3  748.03   55.59
  -9  12   3  712.83   55.09
   6   6   3  390.06   41.90
   6 -12   3  444.16   35.30
   6   6   3  439.56   34.50
 -12   6  -3  523.45   35.40
 -12   6   3  508.95   39.40
  -6  12   3  496.45   41.10
  -6  -6   3  444.86   39.20
  12  -6  -3  403.96   39.20
  -6  12  -3  536.35   39.40
  -6  12   3  488.65   39.10
   9   3  -3  436.56   32.70
   3   9   3  414.86   38.30
   9 -12   3  350.66   34.00
 -12   9  -3  424.36   32.90
  -9  12  -3  434.66   34.90
  -3  12   3  390.86   35.00
  12  -3  -3  400.36   35.10
  12  -9   3  431.66   36.70
  -9  -3   3  409.66   36.50
  -3  12   3  436.06   38.40
  12   0  -3  255.07   27.80
 -12   0   3  312.37   33.00
   0  12   3  374.66   35.60
 -12  12  -3  306.27   28.10
   0  12   3  323.47   29.40
  11   2   3   25.00   16.70
 -13  11   3   37.10   14.30
   2  11  -3   28.90   14.30
  11 -13  -3   33.10   15.50
  13 -11  -3   54.39   16.10
  -2  13  -3   38.10   15.00
 -11  13   3   42.20   14.00
  13  -2   3   33.30   15.90
   8   5   3  293.77   29.90
   5   8  -3  262.97   21.00
 -13   5  -3  229.68   20.20
 -13   8   3  209.88   27.40
  -5  13  -3  240.28   27.70
  13  -5   3  276.07   28.60
  -8  13   3  310.17   30.70
  -8  13   3  289.17   28.30
  13  -8  -3  240.08   28.60
   5   8   3  449.46   42.90
 -13   5   3  463.45   40.30
   5   8   3  408.06   35.10
   8   5  -3  487.05   35.90
  13  -8   3  495.95   41.10
  -5  13   3  478.35   40.10
  -8  -5   3  461.15   41.40
  13  -5  -3  495.55   39.40
  -5  13   3  468.25   41.20
  -8  13  -3  463.95   38.20
   2  11   3   65.19   18.40
 -13  11  -3   44.20   10.90
 -13   2   3   54.39   16.50
   2  11   3   45.80   10.80
  11   2  -3   50.89   10.70
  13  -2  -3   44.30   11.80
  -2  13   3   56.39   13.50
 -11  13  -3   47.50   12.10
 -11  -2   3   59.89   16.10
  -2  13   3   75.39   19.00
 -14  13   3  223.18   26.20
  13   1   3  224.38   31.20
   1  13  -3  214.48   26.50
  13 -14  -3  158.78   27.60
  14 -13  -3  188.18   29.00
  14  -1   3  286.67   32.30
 -13  14   3  243.08   27.20
  -1  14  -3  236.18   26.70
  10 -14  -3  854.21   67.89
   4  10  -3  835.62   66.99
  10   4   3  821.42   69.29
 -14  10   3  914.51   67.19
 -10  14   3  929.31   67.09
  -4  14  -3  895.61   67.39
  14  -4   3  955.40   68.29
  14 -10  -3  792.92   67.59
 -14   7  -3 1641.34  110.49
   7 -14   3 1465.95  110.19
 -14   7   3 1462.65  112.89
   7   7  -3 1591.54  110.19
   7   7   3 1481.05  109.49
  -7  14   3 1580.34  113.09
  -7  -7   3 1486.25  113.29
  14  -7   3 1572.24  113.79
  -7  14  -3 1686.03  112.59
  14  -7  -3 1468.25  112.89
  -7  14   3 1561.44  114.29
 -14  10  -3  566.84   44.80
   4  10   3  508.95   46.60
   4  10   3  515.95   49.30
  10   4  -3  611.34   44.60
  10 -14   3  625.34   46.00
  14  -4  -3  600.64   46.80
 -10  -4   3  537.75   49.00
  -4  14   3  584.14   48.60
  14 -10   3  645.54   49.70
 -10  14  -3  597.14   46.00
 -14  13  -3   64.89   12.80
  13   1  -3   50.99   12.00
   1  13   3   40.10   12.90
   1  13   3   61.19   19.50
 -14   1   3   50.29   18.60
 -13  14  -3   85.49   18.80
  14  -1  -3   56.89   12.80
  -1  14   3   63.69   19.60
  -1  14   3   44.50   14.50
 -13  -1   3   36.50   16.00
  15 -15  -3  164.58   26.80
  15   0   3  118.29   27.90
   0  15  -3  160.38   27.90
 -15  15   3  152.78   27.80
   3  12  -3  294.97   31.30
 -15  12   3  300.47   33.30
  12 -15  -3  358.26   34.30
  12   3   3  297.97   33.50
 -12  15   3  306.97   33.40
  -3  15  -3  328.97   31.60
  15  -3   3  311.97   35.60
  15 -12  -3  230.18   30.90
   9   6   3  248.08   31.00
   6   9  -3  166.58   25.10
 -15   9   3  130.39   25.20
  15  -9  -3  152.78   24.50
  -9  15   3  211.38   25.80
  15  -6   3  209.58   29.10
 -15   6   3  173.58   26.30
   6   9   3  175.68   17.20
   9   6  -3  136.89   23.50
 -15   9  -3  205.48   20.80
   6   9   3  202.68   31.00
  -6  15   3  157.88   27.00
  -9  15  -3  214.18   24.00
  -6  15   3  196.18   30.30
  15  -6  -3  202.98   23.40
  -9  -6   3  199.68   25.40
  15  -9   3  133.19   28.00
 -15  12  -3  143.99   21.00
   3  12   3  165.88   31.30
  12   3  -3  137.09   20.10
 -15   3   3  171.68   28.40
 -12  15  -3  175.18   22.50
  15  -3  -3  102.59   22.10
  -3  15   3  214.28   28.00
  -3  15   3  157.18   26.00
 -12  -3   3  145.69   25.40
   0  15   3  145.89   30.80
   0  15   3  144.69   24.90
 -15  15  -3  155.78   21.70
  15   0  -3  120.89   21.60
 -15   0   3  112.29   22.10
  14   2   3   81.69   20.50
   2  14  -3   69.79   18.10
  14 -16  -3  113.09   23.20
 -16  14   3  106.29   25.10
  -2  16  -3   83.59   18.40
  16  -2   3   52.09   19.60
  16 -14  -3   57.69   17.10
 -14  16   3   81.79   17.80
  11   5   3  195.68   30.90
  11 -16  -3  109.89   28.30
   5  11  -3  129.99   20.30
  16 -11  -3  117.99   23.70
  16  -5   3  127.59   26.40
  -5  16  -3  170.48   25.80
 -16   8   3  366.86   34.80
   8   8   3  290.07   39.10
 -16   8  -3  383.86   29.90
  16  -8  -3  368.76   35.40
  16  -8   3  341.57   37.70
  -8  16  -3  388.46   35.40
  -8  16   3  273.97   35.50
  -8  16   3  437.96   38.00
   5  11   3   96.89   17.10
  11   5  -3  130.59   18.10
 -16  11  -3  113.49   20.20
  -5  16   3   96.69   19.90
  -5  16   3  110.09   22.90
  16  -5  -3  130.99   22.90
 -11  -5   3   78.69   19.20
 -11  16  -3  160.88   23.20
  14   2  -3  139.89   21.80
   2  14   3   80.19   23.60
   2  14   3  121.49   23.40
 -16   2   3  107.99   22.20
 -16  14  -3  128.29   21.00
  16 -14   3  201.18   28.80
  -2  16   3  146.29   31.00
 -14  16  -3  164.98   23.50
  16  -2  -3  133.69   23.30
 -14  -2   3  122.39   22.20
  -2  16   3  104.69   26.10
  16 -17  -3   13.20   15.60
  16   1   3  -11.80   18.80
 -17  16   3    7.90   14.20
   1  16  -3    0.00   15.10
  -1  17  -3    8.40   15.80
  17  -1   3    5.90   18.00
 -16  17   3   -1.80   15.90
  17 -16  -3    7.30   14.60
 -17  13   3  252.17   31.70
   4  13  -3  269.57   30.70
  13 -17  -3  302.77   34.90
  13   4   3  291.47   34.60
  -4  17  -3  333.47   31.30
  17  -4   3  320.47   36.30
  17 -13  -3  212.88   30.90
 -13  17   3  292.37   34.00
  10   7   3  393.16   45.30
 -17  10   3  346.47   40.00
  10 -17  -3  478.35   43.30
   7  10  -3  404.86   40.20
  17  -7   3  517.25   41.80
  -7  17  -3  502.85   40.60
 -10  17   3  475.45   41.70
 -17   7   3  522.15   45.80
  10   7  -3  453.25   41.70
 -17  10  -3  571.74   42.10
   7  10   3  544.25   49.20
 -10  -7   3  466.55   44.90
  -7  17   3  586.74   49.10
  17 -10   3  593.14   48.30
  -7  17   3  551.24   48.10
  17  -7  -3  415.16   44.80
 -10  17  -3  530.55   43.20
  13   4  -3  250.77   27.10
 -17  13  -3  217.48   28.40
   4  13   3  284.77   34.10
   4  13   3  201.48   27.40
 -17   4   3  248.38   31.30
  17  -4  -3  283.47   29.40
  -4  17   3  293.27   36.20
 -13  17  -3  287.27   29.10
 -13  -4   3  262.97   33.50
  -4  17   3  247.68   33.70
  17 -13   3  273.87   34.30
 -17  16  -3    3.10   12.80
  16   1  -3   -3.00   13.00
 -17   1   3  -15.10   17.60
   1  16   3    2.20   19.30
 -16  17  -3   11.40   13.00
  -1  17   3    0.90   15.50
  17 -16   3   26.90   18.20
 -16  -1   3   11.50   16.80
  17  -1  -3   -1.70   13.40
  -1  17   3   -7.40   21.10
   0  18  -3  133.69   23.40
  18   0   3  191.28   29.70
 -18  18   3  148.09   27.10
  18 -18  -3  134.59   25.00
 -18  15   3   17.40   14.70
  15   3   3   25.80   19.70
  15 -18  -3    7.20   14.80
   3  15  -3    5.80   16.00
 -15  18   3   18.90   16.80
  18 -15  -3    7.30   14.80
  -3  18  -3   30.00   16.80
  18  -3   3   29.90   19.10
   6  12  -3   -9.00   15.30
  12 -18  -3   11.20   18.20
  12   6   3   -1.40   19.70
 -18  12   3    5.30   15.10
  18  -6   3   22.30   18.40
 -12  18   3    6.70   17.00
  18 -12  -3    6.90   16.30
  -6  18  -3   21.20   16.50
   9   9   3   23.70   21.50
 -18   9   3   16.60   15.60
   9   9  -3   -0.70   15.90
  -9  18   3   13.50   17.50
  18  -9   3   21.90   17.80
  18  -9  -3    4.20   15.40
  -9  18  -3   24.90   14.90
 -18   6   3   43.40   17.30
   6  12   3   42.90   19.80
 -18  12  -3   58.99   14.50
  12 -18   3   48.90   15.00
  12   6  -3   41.00   13.10
 -12  -6   3   58.39   17.80
 -12  18  -3   54.09   15.20
  18  -6  -3   39.30   15.70
  -6  18   3   62.29   19.40
  -6  18   3   66.19   23.10
  18 -12   3   83.19   20.70
 -18   3   3   50.09   18.40
   3  15   3   42.50   21.90
  15 -18   3   79.59   18.60
  15   3  -3   88.59   20.20
 -18  15  -3  110.39   22.80
   3  15   3   56.69   14.60
 -15  -3   3   41.20   17.00
  -3  18   3   35.80   17.00
 -15  18  -3   94.29   21.50
  18 -15   3   12.90   17.50
  18  -3  -3   58.39   15.00
  -3  18   3   69.69   21.20
 -18   0   3  344.67   35.60
  18   0  -3  301.97   31.10
  18 -18   3  356.96   36.90
   0  18   3  244.48   36.50
 -18  18  -3  277.47   31.20
  17   2   3  108.39   22.30
 -19  17   3   97.49   22.20
   2  17  -3   79.69   17.70
 -17  19   3  101.29   22.80
  19  -2   3   83.69   21.00
  19 -17  -3   96.09   23.40
  -2  19  -3  102.09   24.30
   5  14  -3  279.07   31.70
  14 -19  -3  257.47   30.40
 -19  14   3  260.37   31.20
  14   5   3  254.97   36.10
  -5  19  -3  310.47   31.70
  19  -5   3  235.08   34.20
 -14  19   3  314.97   34.30
  11 -19  -3   64.79   20.10
   8  11  -3   75.69   17.90
  11   8   3   91.79   35.90
  -8  19  -3  131.89   29.00
  19  -8   3  158.28   39.90
 -11  19   3   68.59   19.90
   8  11   3   59.99   22.40
 -19   8   3   56.49   18.90
 -11  19  -3   89.59   21.40
  19  -8  -3   65.29   17.50
  -8  19   3   64.29   20.40
  -8  19   3   81.19   21.50
  19 -11   3   60.49   19.00
 -19  14  -3  212.18   27.20
  14 -19   3  178.98   29.00
   5  14   3  202.48   32.70
  14   5  -3  203.68   25.10
   5  14   3  217.38   34.40
 -19   5   3  198.88   31.40
  -5  19   3  122.19   31.10
 -14  -5   3  173.48   27.60
  19  -5  -3  236.28   27.30
 -14  19  -3  248.28   27.30
  -5  19   3  210.38   33.40
   2  17   3  203.38   32.50
   2  17   3  170.88   27.00
 -19   2   3  180.48   30.20
 -19  17  -3  214.68   26.40
  17 -19   3  201.28   27.40
  17   2  -3  241.08   25.50
  19  -2  -3  177.88   25.40
 -17  19  -3  217.28   25.80
 -17  -2   3  182.98   26.90
  -2  19   3  156.38   31.50
  -2  19   3  130.29   29.80
  19 -20  -3   45.00   16.30
 -20  19   3   66.59   17.60
   1  19  -3  101.89   24.10
  19   1   3   50.99   19.20
  -1  20  -3   67.39   17.80
  20  -1   3  100.69   22.00
 -19  20   3   63.69   17.20
  20 -19  -3   55.19   16.30
  16 -20  -3  189.88   25.70
  16   4   3  222.68   32.30
   4  16  -3  197.68   27.90
 -20  16   3  185.78   27.20
  20 -16  -3  177.58   28.10
  20  -4   3  226.88   31.30
  -4  20  -3  197.18   25.20
 -16  20   3  211.88   29.40
 -20  13   3  243.98   31.90
  13   7   3  246.98   34.50
  13 -20  -3  267.27   31.40
   7  13  -3  241.18   30.50
  20  -7   3  253.37   33.10
 -13  20   3  248.18   31.30
  20 -13  -3  263.07   28.40
  -7  20  -3  291.17   28.90
 -20  10   3   12.00   15.50
  10 -20  -3   13.30   16.80
  10  10  -3    3.00   16.30
  10  10   3   16.60   20.20
 -10  20  -3   20.10   14.20
  20 -10  -3    0.70   14.50
 -10  20   3   12.10   16.80
  20 -10   3   23.30   18.30
 -20   7   3   58.79   18.30
   7  13   3   95.89   22.70
 -20  13  -3   79.69   18.00
  -7  20   3   74.29   21.80
  20 -13   3   36.90   25.00
  -7  20   3   40.60   18.20
  20  -7  -3   52.29   18.60
 -13  20  -3  114.09   22.40
  16   4  -3  108.89   21.60
 -20  16  -3   64.19   16.70
   4  16   3   59.79   21.90
 -20   4   3   63.89   18.60
  16 -20   3   15.10   17.70
  -4  20   3   63.79   22.60
 -16  20  -3   61.69   15.60
  -4  20   3   46.00   17.80
  20  -4  -3   74.79   28.30
 -16  -4   3   59.49   18.30
   1  19   3   64.19   22.40
 -20  19  -3   50.79   17.10
  19   1  -3  119.99   23.20
 -20   1   3   76.79   18.90
   1  19   3   84.39   18.10
 -19  20  -3   73.49   18.00
 -19  -1   3   70.69   18.50
  -1  20   3   30.40   17.50
  -1  20   3   53.29   21.50
   0  21  -3  244.38   27.30
 -21  21   3  247.18   30.90
  21   0   3  189.58   33.70
  21 -21  -3  180.38   29.00
  18   3   3  191.78   32.20
  18 -21  -3  164.38   24.80
   3  18  -3  185.28   27.40
 -21  18   3  185.08   26.20
  21 -18  -3  166.68   26.40
  21  -3   3  143.99   31.20
 -18  21   3  191.68   28.80
  -3  21  -3  173.38   25.40
  15 -21  -3   82.69   18.40
  15   6   3  142.19   30.30
   6  15  -3   97.59   21.80
 -21  15   3  138.69   23.50
  -6  21  -3  110.79   21.60
  21 -15  -3  106.09   23.40
 -15  21   3  117.09   26.40
  21  -6   3   76.39   20.20
 -21  12   3   21.60   14.50
  12 -21  -3   34.50   16.50
   9  12  -3   38.80   15.20
  12   9   3   31.70   18.80
  -9  21  -3   48.60   15.50
  21 -12  -3   41.50   15.70
  21  -9   3   15.70   16.90
 -12  21   3   12.10   17.40
   9  12   3   14.20   20.10
  12   9  -3    6.60   15.00
 -21   9   3    3.60   15.40
  21 -12   3  -11.80   17.10
  -9  21   3  -17.30   15.90
 -12  21  -3   10.80   12.90
  21  -9  -3   11.70   13.80
 -21   6   3  141.39   27.40
   6  15   3  133.49   30.10
 -21  15  -3   89.99   17.50
 -15  21  -3  121.89   22.30
  21  -6  -3  110.59   22.90
  -6  21   3  103.79   23.10
 -15  -6   3   84.59   19.00
   3  18   3  351.06   40.30
 -21  18  -3  328.97   37.30
  18   3  -3  335.07   35.30
   3  18   3  440.36   36.70
 -21   3   3  326.57   38.90
 -18  21  -3  340.07   35.00
  -3  21   3  360.26   41.80
 -18  -3   3  365.66   38.70
  21  -3  -3  354.76   35.40
  21   0  -3  409.26   38.30
 -21  21  -3  408.96   39.10
   0  21   3  359.06   43.70
   0  21   3  299.97   44.70
 -21   0   3  451.75   41.20
 -22  20   3   23.10   16.90
  20   2   3   17.40   19.70
   2  20  -3   15.80   15.50
  20 -22  -3   29.20   17.60
  22  -2   3   19.60   19.70
 -20  22   3    9.80   17.10
  -2  22  -3   19.40   15.70
  22 -20  -3    8.50   15.40
 -22  17   3   61.59   18.80
  17 -22  -3   93.69   24.00
   5  17  -3  103.79   22.10
  17   5   3  122.19   30.20
  -5  22  -3  106.89   24.10
 -17  22   3   87.89   19.10
  22 -17  -3   79.59   18.00
  22  -5   3   85.49   20.60
  14 -22  -3   40.50   15.70
   8  14  -3   69.79   16.80
 -22  14   3   39.40   16.20
  14   8   3   58.79   20.10
 -14  22   3   59.59   19.10
  22 -14  -3   61.29   16.40
  -8  22  -3   55.99   15.50
  22  -8   3   42.00   17.90
  11  11   3   62.19   20.40
  11 -22  -3   65.49   17.70
 -22  11   3   67.19   17.50
  11  11  -3   70.89   16.30
  22 -11  -3   83.29   20.10
 -11  22  -3   98.09   22.40
 -11  22   3   39.00   18.20
  22 -11   3   67.89   20.30
  14   8  -3  143.39   22.50
   8  14   3  120.19   25.30
 -14  22  -3  131.09   23.50
  22 -14   3   79.59   22.10
  22  -8  -3  137.49   23.90
 -22  17  -3  132.59   27.90
 -22   5   3  217.88   32.70
  17   5  -3  242.88   29.70
   5  17   3  202.98   35.70
 -17  -5   3  155.18   28.20
 -17  22  -3  238.48   25.30
  22  -5  -3  200.68   27.70
  -5  22   3  166.78   34.20
   2  20   3   62.09   19.00
  20   2  -3  125.19   31.50
 -22   2   3  151.58   29.70
  20 -22   3   97.49   25.60
 -22  20  -3  155.18   29.50
   2  20   3  100.69   24.80
 -20  -2   3   93.49   21.00
  22  -2  -3  123.29   25.30
  -2  22   3  131.09   28.00
  -2  22   3   91.49   21.00
  22   1   3   37.80   20.20
 -23  22   3   45.50   18.10
  22 -23  -3   52.79   17.20
   1  22  -3   59.29   18.20
 -22  23   3   45.50   17.70
  23 -22  -3   59.79   17.70
  -1  23  -3   58.79   16.40
  23  -1   3   38.50   19.40
 -23  19   3  167.98   27.10
   4  19  -3  165.88   26.50
  19   4   3  151.48   32.80
  19 -23  -3  132.39   23.90
 -19  23   3  139.69   26.00
  23 -19  -3  119.79   26.10
  23  -4   3  111.09   27.40
  -4  23  -3  154.48   24.30
   7  16  -3  191.18   28.20
  16   7   3  158.58   32.40
 -23  16   3  195.08   29.70
  16 -23  -3  155.78   24.90
  23  -7   3  120.99   29.50
  -7  23  -3  173.38   25.20
  23 -16  -3  189.68   26.80
 -16  23   3  149.39   29.70
  10  13  -3   16.90   15.70
  13 -23  -3   11.00   15.90
 -23  13   3   22.50   16.60
  13  10   3   26.30   21.40
  23 -13  -3   27.10   16.30
  23 -10   3    8.10   16.90
 -10  23  -3   26.30   14.50
 -13  23   3    9.60   17.80
 -23  10   3   98.39   20.30
  10 -23  -3   57.29   18.10
  10  13   3  105.49   24.00
  13  10  -3  138.69   25.30
  23 -13   3   81.09   21.30
 -10  23   3   56.19   20.20
 -13  23  -3  131.49   24.20
  23 -10  -3   93.89   23.80
 -23   7   3  281.97   35.30
   7  16   3  233.58   38.50
  23  -7  -3  302.57   32.50
 -16  23  -3  298.97   31.80
  19   4  -3  222.68   30.90
 -23   4   3  252.17   33.50
 -23  19  -3  153.08   24.70
   4  19   3  181.58   35.20
 -19  23  -3  204.58   27.80
 -19  -4   3  151.78   31.60
  23  -4  -3  218.08   30.00
  -4  23   3  158.68   37.10
  -4  23   3  165.38   30.60
   1  22   3   74.39   23.90
  22   1  -3   47.90   19.50
 -23  22  -3   80.59   19.60
 -23   1   3   49.00   20.30
  22 -23   3   90.69   25.80
  23  -1  -3   65.69   18.90
  -1  23   3   44.70   26.50
 -22  -1   3   38.40   19.40
 -22  23  -3   59.59   19.80
  23 -22   3   74.99   25.90
 -24  24   3  140.19   26.10
  24 -24  -3  143.09   24.30
   0  24  -3  149.79   26.90
  24   0   3  156.58   32.80
  21 -24  -3  109.29   26.00
 -24  21   3   87.99   19.70
  21   3   3   89.09   24.60
   3  21  -3  100.89   22.60
 -21  24   3   61.09   18.00
  24  -3   3  106.19   23.00
  -3  24  -3  104.59   22.70
  24 -21  -3  104.79   25.10
 -24  18   3   30.10   18.10
  18 -24  -3   49.30   16.70
  18   6   3   33.50   23.30
   6  18  -3   44.40   17.70
  24  -6   3   25.60   20.20
 -18  24   3   21.10   17.20
  -6  24  -3   32.50   16.80
  24 -18  -3   36.30   16.10
 -24  15   3    5.30   16.40
   9  15  -3   18.40   16.80
  15   9   3   17.50   20.70
  15 -24  -3   -2.90   14.70
  24 -15  -3   15.00   15.40
 -15  24   3    9.30   19.60
  24  -9   3   -2.80   17.10
  -9  24  -3   14.50   14.70
  12  12   3  145.39   32.90
 -24  12   3  135.79   25.90
  12 -24  -3  140.79   27.50
  12  12  -3  169.68   26.30
  24 -12   3  124.99   24.60
  24 -12  -3  100.19   25.80
 -12  24  -3  169.18   26.10
 -24   9   3   66.29   19.70
   9 -24  -3   27.00   17.20
  15   9  -3   55.89   16.70
   9  15   3   42.40   22.70
  24 -15   3   65.89   22.00
 -15  24  -3   37.90   14.90
  24  -9  -3   35.30   17.60
  -9  24   3   -9.90   17.80
   6  18   3  195.98   36.80
 -24   6   3  215.88   34.20
  24  -6  -3  183.38   28.60
 -18  24  -3  182.48   28.70
  -6  24   3  160.48   34.60
   3  21   3  215.18   36.40
 -24   3   3  187.28   33.70
  21   3  -3  219.68   31.70
  -3  24   3  186.18   34.10
  24 -21   3  227.58   36.20
  24  -3  -3  225.28   29.00
 -21  24  -3  191.98   30.70
 -21  -3   3  153.88   34.30
 -24   0   3   48.60   22.20
   0  24   3   10.10   26.90
  24 -24   3   65.19   27.10
 -24  24  -3   88.79   21.40
  23   2   3   26.40   22.10
   2  23  -3   12.40   17.50
  23 -25  -3    9.30   16.30
 -25  23   3   15.70   16.90
  -2  25  -3    9.40   16.50
  25 -23  -3   27.40   16.90
 -23  25   3   15.20   17.10
  25  -2   3    6.30   20.20
 -25  20   3   86.39   20.70
   5  20  -3   39.80   16.80
  20   5   3   38.60   21.20
  20 -25  -3   75.19   19.20
  25 -20  -3   77.89   18.40
  25  -5   3   49.10   20.30
  -5  25  -3   64.89   16.30
 -20  25   3   45.30   18.20
 -25  17   3   77.19   20.40
  17 -25  -3   66.99   18.50
   8  17  -3   85.99   18.90
  17   8   3  149.09   33.90
  25 -17  -3   93.69   23.70
 -17  25   3   55.49   19.40
  -8  25  -3   99.39   21.90
  25  -8   3   67.79   20.50
  14 -25  -3   41.80   16.80
  14  11   3  102.49   25.50
  11  14  -3  111.49   25.20
 -25  14   3   74.89   20.10
 -14  25   3   27.40   18.30
  25 -11   3   50.39   19.90
 -11  25  -3  108.69   23.50
  25 -14  -3   51.49   16.20
  11  14   3  230.98   35.80
 -25  11   3  201.18   31.60
  14  11  -3  231.48   28.80
  11 -25  -3  197.28   30.40
  25 -11  -3  180.98   26.70
  25 -14   3  210.68   33.30
 -14  25  -3  217.28   27.80
 -11  25   3  167.18   32.50
   8  17   3   68.89   24.60
   8 -25  -3   56.19   18.60
 -25   8   3   74.29   20.50
  25  -8  -3   55.79   17.40
  -8  25   3   63.39   21.30
  25 -17   3   93.39   24.20
 -17  25  -3  107.69   24.80
   5  20   3   32.40   24.80
 -25   5   3   78.79   22.50
  25 -20   3   43.00   22.60
  25  -5  -3   51.39   19.20
  -5  25   3    8.10   24.80
  -5  25   3   33.60   18.20
 -20  25  -3   74.09   19.40
 -25   2   3   -0.10   18.90
   2  23   3   -3.90   24.80
  23   2  -3   17.00   20.50
 -23  25  -3  -17.70   19.50
  25 -23   3    5.70   24.90
 -23  -2   3  -22.80   19.40
  22   4   3   92.99   24.70
  22 -26  -3  139.69   26.90
 -26  22   3  146.39   29.90
   4  22  -3  110.29   23.90
  26  -4   3  121.99   30.20
  26 -22  -3  108.59   25.20
  -4  26  -3  112.69   23.00
 -22  26   3  106.59   24.80
  19   7   3  225.88   35.10
   7  19  -3  202.28   28.50
  19 -26  -3  204.98   28.40
 -26  19   3  207.18   30.00
 -19  26   3  157.28   30.30
  26 -19  -3  198.68   28.20
  -7  26  -3  213.28   28.80
  26  -7   3  219.28   33.50
 -26  16   3  142.29   25.80
  16 -26  -3   57.59   18.00
  10  16  -3  120.29   26.20
  16  10   3   91.79   23.90
 -10  26  -3  126.49   24.90
  26 -16  -3   57.39   16.90
 -16  26   3   86.49   20.10
  26 -10   3  110.69   22.60
  13 -26  -3    9.00   16.60
  13  13   3   10.90   22.00
  13  13  -3   17.00   15.30
 -26  13   3   25.10   18.40
 -13  26   3    9.80   18.00
 -13  26  -3    8.20   14.30
  26 -13   3   21.50   17.90
  26 -13  -3    3.80   15.90
  16  10  -3  301.57   32.30
  10 -26  -3  242.38   33.60
 -26  10   3  299.67   36.60
  10  16   3  276.77   39.10
 -10  26   3  261.17   35.70
  26 -16   3  284.17   38.20
 -16  26  -3  281.37   30.50
  26 -10  -3  306.87   33.40
  19   7  -3  389.06   35.00
   7  19   3  388.96   41.40
   7 -26  -3  254.57   35.70
 -19  26  -3  320.77   34.80
  26 -19   3  274.97   39.40
  -7  26   3  281.67   37.60
  26  -7  -3  323.87   35.50
 -26   4   3  174.38   33.20
   4  22   3  103.59   30.90
  26  -4  -3  150.78   27.50
  26 -22   3  140.29   28.50
 -22  26  -3  105.19   23.00
  -4  26   3   57.49   29.70
  21   6   3   49.90   24.60
   6  21  -3   11.30   15.90
 -27  21   3   29.30   20.40
  21 -27  -3   38.20   19.30
  27  -6   3   22.80   18.70
  -6  27  -3   17.30   15.00
 -21  27   3   22.20   16.50
  27 -21  -3   17.00   16.40
   9  18  -3   14.30   15.80
  18   9   3    6.00   22.60
 -27  18   3   13.10   18.40
  18 -27  -3    9.30   16.90
  27 -18  -3   18.40   14.40
  27  -9   3    8.00   18.30
 -18  27   3   -0.50   15.50
  -9  27  -3   15.20   15.60
  15  12   3   72.99   25.40
 -27  15   3   79.39   20.90
  12  15  -3   45.40   16.90
  15 -27  -3   76.99   18.70
  27 -12   3   57.79   19.00
  27 -15  -3   54.79   18.40
 -12  27  -3   56.69   17.20
 -15  27   3   60.39   19.60
 -27  12   3   63.99   20.90
  12  15   3   68.49   25.20
  15  12  -3   65.49   16.90
  12 -27  -3   67.99   19.10
  27 -15   3   38.00   20.10
 -12  27   3   83.29   21.30
 -15  27  -3   53.99   16.90
  27 -12  -3   63.49   19.00
   9  18   3  117.89   28.30
   9 -27  -3  124.59   27.90
  -9  27   3   64.79   21.30
  27 -18   3   69.99   25.30
 -18  27  -3   62.29   19.40
  27  -9  -3   44.90   18.00
 -27   6   3   96.19   24.00
   6  21   3   57.79   28.20
  27 -21   3  132.09   31.70
  27  -6  -3   79.49   20.30
  -6  27   3   57.89   21.00
 -21  27  -3   65.79   20.20
  20   8   3   76.99   27.30
  17 -28  -3   53.59   16.00
  17  11   3   47.30   25.10
 -28  17   3   47.50   19.90
  11  17  -3   55.19   18.80
  28 -11   3   48.80   19.30
  28 -17  -3   60.39   18.40
 -11  28  -3   38.60   15.60
 -17  28   3   55.69   18.70
  14 -28  -3  100.69   25.90
 -28  14   3   94.59   22.60
  14  14  -3  107.49   25.00
  14  14   3  143.29   33.70
  28 -14  -3  106.89   21.70
  28 -14   3  124.39   29.40
 -14  28  -3   67.49   18.20
 -14  28   3  166.98   28.40
  11  17   3  183.18   38.80
  11 -28  -3  117.99   29.90
 -28  11   3  194.68   33.90
  17  11  -3  198.88   26.90
  28 -17   3  128.69   26.90
 -11  28   3  158.98   31.00
  28 -11  -3  137.99   28.40
 -17  28  -3  137.79   24.60
   0  -1   4  229.38   23.50
  -1   1   4  235.88   25.30
   1   0   4  258.67   26.80
  -1   1   4  220.28   23.90
  -2   0   4  611.64   52.09
   2  -2   4  748.73   53.79
   2  -2   4  663.63   51.39
  -2   0   4  642.74   52.29
   0   2   4  728.03   53.69
   1  -3   4  161.08   20.50
   2   1   4  137.49   23.00
  -3   2   4  158.38   19.40
  -3   2   4  168.18   21.50
   1  -3   4  130.19   19.20
   2   1   4  167.58   18.20
  -1  -2   4  154.08   19.80
  -2   3   4   99.29   22.30
   3  -1   4  152.28   18.10
  -2   3   4  153.78   19.70
   3  -1   4  152.98   21.90
  -1  -2   4  156.88   20.70
   0  -4   4 1772.02  126.39
   0  -4   4 1725.73  126.59
  -4   4   4 1768.62  127.59
   4   0   4 1791.72  125.89
  -4   4   4 1733.93  126.59
  -4   1   4  462.55   40.60
   1   3   4  510.35   38.70
   3  -4   4  462.55   39.10
   3  -4   4  513.05   40.50
   1   3   4  535.55   43.20
  -4   1   4  536.75   41.60
  -1   4   4  505.95   41.70
  -3  -1   4  479.05   40.10
   4  -3   4  418.76   40.30
  -1   4   4  483.35   39.10
   2  -5   4  547.35   41.10
   2  -5   4  436.86   40.50
   3   2   4  478.55   39.30
  -5   3   4  529.15   41.00
   3   2   4  549.45   42.40
  -5   3   4  552.44   42.30
  -2  -3   4  462.05   40.10
  -3   5   4  553.74   42.30
   5  -2   4  513.05   41.60
  -2  -3   4  499.05   40.80
  -3   5   4  422.76   40.40
   0   5   4  504.75   38.40
   0   5   4  502.25   41.30
  -5   0   4  473.35   40.40
  -5   5  -4  418.16   37.50
  -6   5   4  705.93   52.49
   5   1   4  670.13   50.19
   5   1   4  543.75   52.79
   1  -6   4  665.63   50.89
  -6   5   4  709.53   53.99
  -5   6   4  713.93   51.89
  -1  -5   4  658.63   52.79
  -1  -5   4  715.73   51.29
  -5   6   4  676.03   53.49
  -6   4  -4  122.29   16.10
   4  -6   4  117.29   19.40
   2   4   4  125.19   22.50
   2   4   4  142.79   17.00
  -6   2   4  131.59   22.40
  -2   6   4  131.99   18.10
  -4  -2   4  139.19   20.60
  -4   6  -4  106.39   18.90
   6  -4   4  152.08   21.10
  -2   6   4  152.28   24.80
   7   0   4 3150.28  215.28
  -7   7   4 2918.11  214.38
  -7   7   4 2861.71  215.08
   0  -7   4 3102.49  213.28
   4   3   4 1452.75  100.39
  -7   4   4 1310.87   98.59
   3  -7   4 1421.86   98.09
   4   3   4 1461.25   97.19
  -4   7   4 1334.37   98.09
  -3  -4   4 1343.27   98.99
   7  -3   4 1205.18   98.69
  -3   7  -4 1242.08   98.09
  -7   1   4  127.39   19.20
   6  -7   4   95.69   19.20
   1   6   4  123.39   24.30
   1   6   4  116.39   16.70
  -1   7   4   94.69   16.90
  -1   7   4   91.79   22.00
  -6  -1   4  115.49   18.00
   7  -1  -4   96.69   19.00
   7  -6   4  119.59   19.40
   6   2   4  605.34   48.80
   2   6  -4  569.14   43.00
  -8   6   4  563.64   46.30
  -8   2  -4  578.84   42.50
   2  -8   4  566.94   43.70
   6   2   4  547.05   42.90
  -2   8  -4  577.04   46.60
   8  -2   4  583.84   46.60
  -2  -6   4  567.04   46.20
   5   3  -4  124.69   19.10
   3   5   4  212.48   28.60
   5  -8   4  163.78   20.90
  -8   3   4  174.38   23.70
  -8   5  -4  178.58   18.50
  -5   8  -4  156.78   21.20
  -3   8   4  215.98   25.90
  -3   8   4  169.88   21.20
  -5  -3   4  174.08   25.60
   8  -5   4  179.28   23.50
   8  -3  -4  173.58   23.40
   8  -8   4    9.00   10.70
   0   8   4   15.30   16.10
   8   0  -4   -7.30   10.50
   0   8   4    4.40    9.40
  -8   8  -4   -1.60    9.30
  -8   0   4  -17.40   14.00
   1   8  -4  684.53   52.99
  -9   8   4  798.42   58.19
   8   1   4  591.34   58.19
  -9   1  -4  736.23   52.99
   9  -8  -4  771.52   59.29
  -8   9   4  798.42   57.99
  -8   9   4  769.72   58.29
  -1   9  -4  753.72   58.29
   4  -9   4  467.35   38.40
  -9   5   4  492.95   40.40
   4   5  -4  452.45   36.50
  -9   4  -4  489.55   36.50
   5   4   4  390.86   43.30
  -5   9   4  527.75   42.40
   9  -5  -4  462.35   41.00
  -5   9   4  497.45   39.70
  -4   9  -4  448.76   39.70
  -4  -5   4  501.55   41.90
  -9   2   4   57.09   16.30
   7  -9   4   79.29   18.50
   7   2  -4   75.99   16.10
   2   7   4  105.39   26.70
   2   7   4   65.19   15.10
  -7   9  -4   54.79   12.90
  -2   9   4   85.99   19.00
   9  -2  -4   72.49   14.30
  -2   9   4   73.69   17.40
  -7  -2   4   64.19   16.30
   9  -7   4   79.29   19.90
 -10  10   4 2716.13  197.68
   0  10  -4 2697.93  197.58
  10   0   4 2887.11  198.98
  10 -10  -4 2745.93  198.48
   7   3   4 1833.82  133.19
   3 -10   4 2085.69  131.49
 -10   7   4 1981.90  132.89
 -10   3  -4 1767.22  129.39
   3   7  -4 1739.03  129.29
  -7  10   4 1775.72  131.89
  -3  -7   4 1670.93  132.09
  -7  10   4 1864.71  133.69
  -3  10  -4 1757.12  131.69
  10  -7  -4 1799.32  132.39
  10  -3   4 1798.62  132.89
   6   4  -4  245.48   23.20
   4   6   4  270.97   23.30
 -10   6  -4  255.27   23.30
   6 -10   4  281.67   27.20
  10  -4  -4  258.67   28.00
  10  -6   4  267.87   29.00
  -6  10  -4  240.18   27.20
  -6  -4   4  247.58   30.90
  -4  10   4  204.88   26.60
   9 -10   4   25.70   11.70
   9   1  -4   20.90   10.80
   1   9   4   26.50   10.20
 -10   1   4   -1.00   15.80
   1   9   4    0.90   17.40
 -10   9  -4   25.20   10.50
  -9  -1   4    5.40   15.40
  -9  10  -4   22.10   11.70
  -1  10   4   36.30   11.80
  10  -9   4   20.40   12.90
  -1  10   4   30.00   17.30
  10  -1  -4   18.70   11.70
   9   2   4  700.53   67.69
 -11   9   4  880.11   65.79
   2   9  -4  846.12   66.29
  11  -2   4  895.91   67.59
  -9  11   4  830.22   66.19
  11  -9  -4  944.81   67.19
  -2  11  -4  859.61   65.19
 -11   5  -4  353.46   30.90
   5 -11   4  354.16   32.50
   5   6  -4  387.56   30.30
   6   5   4  383.06   30.70
   6   5   4  448.76   40.50
 -11   6   4  427.26   38.00
  -5  11  -4  352.06   35.30
  -6  11   4  425.26   36.20
  -5  -6   4  413.36   36.70
  11  -6  -4  373.86   36.30
  -6  11   4  451.15   39.00
 -11   3   4   42.80   16.00
   3   8   4   50.59   18.50
   3   8   4   53.39   10.50
   8   3  -4   35.70   10.10
 -11   8  -4   39.00   17.60
   8 -11   4   74.99   18.50
  -8  11  -4   36.50   12.70
  11  -3  -4   53.29   14.40
  -3  11   4   53.89   12.60
  11  -8   4   64.09   15.50
  -3  11   4   71.29   19.80
  -8  -3   4   51.69   17.20
 -11  11  -4  378.16   32.60
   0  11   4  378.56   32.40
  11   0  -4  311.37   32.00
 -12  11   4  224.88   27.10
   1  11  -4  152.78   27.90
  11 -12  -4  149.59   29.90
  11   1   4  219.38   30.90
  12 -11  -4  183.98   26.20
  -1  12  -4  148.99   25.00
  12  -1   4  180.38   29.90
 -11  12   4  109.49   24.80
 -12   8   4  176.18   25.00
   8   4   4  123.79   28.90
  -4  12  -4  115.69   22.20
  12  -8  -4  125.39   23.10
  12  -4   4  142.09   26.50
  -8  12   4  167.98   22.60
 -12   5   4  218.68   29.90
   5   7   4  221.68   32.20
   5   7   4  251.37   21.90
   7 -12   4  251.87   24.10
  -7  -5   4  239.08   29.00
  12  -7   4  278.97   29.90
  -5  12   4  292.97   33.50
  -7  12  -4  179.98   27.30
  -5  12   4  216.08   26.90
  12  -5  -4  198.38   27.80
 -12  10  -4   36.20   11.80
 -12   2   4   41.60   18.00
   2  10   4   83.99   22.20
  10   2  -4   55.69   11.60
  10 -12   4   43.70   12.80
 -10  12  -4   54.49   14.00
  -2  12   4   60.99   13.70
  12  -2  -4   61.49   14.40
 -10  -2   4   44.80   16.80
  -2  12   4   22.30   18.60
  12 -10   4   56.59   14.90
 -13  13   4   -5.00   17.20
  13   0   4   21.00   18.00
  13 -13  -4    8.40   17.20
   0  13  -4  -23.10   14.50
  10   3   4  330.57   41.20
   3  10  -4  359.96   38.70
 -13  10   4  412.66   39.10
  13  -3   4  419.06   40.30
  13 -10  -4  417.96   39.20
 -10  13   4  425.96   38.10
  -3  13  -4  415.86   38.50
 -13   7   4  225.78   29.20
   7   6   4  239.58   31.30
  -7  13   4  246.08   27.70
  -6  -7   4  269.87   29.20
  -7  13   4  240.48   31.60
  13  -6   4  244.48   29.00
  13  -7  -4  226.18   28.90
  -6  13  -4  199.68   26.70
   4   9   4   98.39   21.50
   4   9   4  136.49   17.70
 -13   4   4  127.59   25.40
   9   4  -4  117.19   17.10
  -9  13  -4  140.79   23.00
  13  -4  -4   98.39   22.90
  -9  -4   4  135.59   25.60
  -4  13   4  131.59   22.20
  -4  13   4   89.09   21.60
 -13  12  -4  213.88   25.40
   1  12   4  218.28   25.30
 -13   1   4  183.48   34.40
   1  12   4  275.57   34.50
  12   1  -4  223.18   24.50
  12 -13   4  232.68   28.70
  13  -1  -4  182.58   25.20
  -1  13   4  259.77   34.40
 -12  13  -4  215.38   26.00
  -1  13   4  228.98   26.90
 -12  -1   4  203.48   30.60
 -14  12   4    5.90   14.90
  12   2   4   14.30   18.20
   2  12  -4   14.70   15.70
  12 -14  -4   40.80   18.80
  -2  14  -4   11.80   17.00
 -12  14   4    6.60   15.00
  14  -2   4   10.50   18.50
  14 -12  -4   49.40   17.70
   9   5   4  179.68   34.20
 -14   9   4  254.97   30.80
  -9  14   4  291.57   31.60
  14  -5   4  261.67   30.70
  -5  14  -4  213.98   30.00
  -9  14   4  237.78   30.30
  14  -9  -4  250.17   30.50
 -14   6   4   -2.50   14.80
   8   6  -4    4.40    8.40
   6   8   4    6.60   17.40
  -8  14  -4   -1.00   13.20
  -6  14   4   -0.60   13.50
  -6  14   4   23.10   19.40
  14  -6  -4   14.80   14.60
  -8  -6   4    2.10   15.70
  14  -8   4   21.00   16.50
 -14  11  -4  365.46   34.50
   3  11   4  418.86   44.70
  11   3  -4  379.56   34.10
  11 -14   4  408.16   37.40
 -11  14  -4  408.76   37.20
  14  -3  -4  404.26   36.70
  14 -11   4  490.35   41.90
  -3  14   4  409.86   41.20
 -11  -3   4  367.56   42.00
  -3  14   4  398.16   37.90
 -14   0   4  671.63   73.19
  14   0  -4  740.63   59.09
   0  14   4  749.92   72.09
 -14  14  -4  752.42   59.49
  14 -14   4  835.62   63.49
   0  14   4  823.02   60.59
   1  14  -4   18.10   15.40
 -15  14   4    7.80   15.00
  14   1   4   13.20   17.50
  14 -15  -4   22.00   16.60
 -14  15   4   19.90   15.90
  -1  15  -4   18.10   16.30
  15 -14  -4   37.20   16.60
  15  -1   4   15.50   18.00
 -15  11   4   22.70   28.70
  11 -15  -4   58.99   26.30
  11   4   4   27.90   30.50
   4  11  -4   38.30   28.90
 -11  15   4   41.30   15.80
  -4  15  -4   39.40   16.50
  15 -11  -4   60.09   16.70
  15  -4   4   67.49   20.40
 -15   8   4  180.58   31.40
   8   7   4  207.68   34.10
  -7  15  -4  180.48   26.40
  -8  15   4  217.38   27.50
  15  -8  -4  216.18   28.30
  -8  15   4  264.37   30.90
  15  -7   4  216.68   32.30
 -15   5   4   89.79   18.90
   5  10   4   96.79   22.80
  10   5  -4   57.69   11.50
 -15  10  -4   47.10   13.40
 -10  15  -4   57.39   15.80
  -5  15   4  136.79   31.20
  15  -5  -4   32.90   15.30
 -10  -5   4   91.79   20.00
  -5  15   4   78.29   16.40
 -15  13  -4   89.69   21.20
  13   2  -4  134.89   20.00
   2  13   4  140.29   32.10
   2  13   4  126.19   21.60
 -15   2   4  109.19   22.30
  15  -2  -4  133.59   21.90
  -2  15   4  136.49   24.00
 -13  -2   4  121.49   26.90
 -13  15  -4  110.69   22.90
  -2  15   4  176.98   34.50
  16 -16  -4  181.98   26.30
  16   0   4  239.48   32.20
   0  16  -4  261.27   27.40
 -16  16   4  201.68   30.50
 -16  13   4  133.79   27.30
  13   3   4  114.89   29.10
  13 -16  -4  177.08   27.60
   3  13  -4  131.19   24.40
  -3  16  -4  168.38   27.00
  16 -13  -4  188.08   26.70
  16  -3   4  198.08   30.20
 -13  16   4  135.79   27.40
  10   6   4   81.89   22.10
   6  10  -4  121.79   21.00
 -16  10   4  114.79   26.10
  16  -6   4  164.48   30.40
  16 -10  -4  169.18   23.90
 -10  16   4  114.89   26.80
  -6  16  -4  155.88   24.10
 -16   7   4  219.28   32.50
   7   9   4  225.18   36.40
  -7  16   4  267.67   32.00
  16  -9   4  303.77   34.80
  -9  16  -4  240.58   30.20
  16  -7  -4  249.38   29.80
  -9  -7   4  185.18   32.60
  -7  16   4  261.27   46.00
   4  12   4  235.08   35.20
 -16   4   4  302.87   36.40
  12   4  -4  327.07   28.20
 -12  16  -4  325.27   32.00
  -4  16   4  331.87   37.70
  -4  16   4  310.77   32.80
  16  -4  -4  257.67   31.10
 -12  -4   4  303.77   35.40
 -16  15  -4  143.29   23.30
   1  15   4  201.48   31.30
 -16   1   4  186.88   31.20
   1  15   4  195.18   25.00
  15   1  -4  175.18   22.90
  -1  16   4  183.18   32.70
  16  -1  -4  160.48   23.60
  16 -15   4  249.78   32.50
 -15  16  -4  163.58   24.10
  -1  16   4  202.78   26.30
 -15  -1   4  184.68   30.70
 -17  15   4   40.30   16.00
  15 -17  -4   95.79   23.70
  15   2   4   60.29   19.10
   2  15  -4   64.79   17.10
  17 -15  -4   75.49   17.50
 -15  17   4   61.49   17.30
  17  -2   4   67.39   20.10
  -2  17  -4   76.59   17.50
  12 -17  -4   34.50   16.80
   5  12  -4   51.89   15.60
  12   5   4   53.79   20.10
 -17  12   4   27.30   15.00
  -5  17  -4   42.60   15.30
  17 -12  -4   47.80   15.30
 -12  17   4   21.40   15.20
  17  -5   4   41.60   18.80
   9   8   4   43.30   18.90
 -17   9   4   45.20   17.40
  -9  17   4   99.89   24.80
  -9  17   4   45.80   17.00
  17  -9  -4   61.69   22.10
   6  11   4   93.59   22.20
 -17   6   4   64.29   17.80
 -11  17  -4   88.29   17.60
  17  -6  -4  100.69   22.60
  -6  17   4   92.79   18.60
  -6  17   4   52.59   21.70
 -11  -6   4   63.29   17.50
 -17   3   4  512.75   46.50
  14   3  -4  419.26   39.30
   3  14   4  544.15   46.80
 -17  14  -4  401.36   39.80
  -3  17   4  400.96   46.20
 -14  17  -4  481.95   40.90
  -3  17   4  514.45   43.30
  17  -3  -4  495.15   40.60
 -14  -3   4  525.05   44.80
   0  17   4  408.36   36.80
   0  17   4  297.87   40.70
 -17  17  -4  350.96   34.20
  17   0  -4  358.26   34.80
 -17   0   4  427.96   39.70
   1  17  -4  139.79   25.80
  17   1   4  152.38   30.20
  17 -18  -4  129.69   24.60
  18 -17  -4   93.39   21.60
  18  -1   4   84.79   22.10
  -1  18  -4  130.59   25.60
 -17  18   4  122.99   26.30
   4  14  -4  249.48   28.50
  14 -18  -4  259.57   32.20
  14   4   4  293.97   35.10
 -18  14   4  283.57   32.20
 -14  18   4  255.87   32.00
  -4  18  -4  303.67   31.50
  18 -14  -4  268.17   30.50
  18  -4   4  211.18   33.20
  11   7   4  126.39   30.60
   7  11  -4  175.98   24.70
  11 -18  -4  178.58   28.60
 -18  11   4  119.89   24.30
 -11  18   4  126.19   29.10
  18 -11  -4  191.38   26.30
  -7  18  -4  187.88   26.50
  18  -7   4  169.88   29.80
 -18   8   4  194.78   28.50
   8  10   4  203.78   31.50
  -8  18   4  189.38   30.20
  18  -8  -4  210.28   26.30
  -8  18   4  170.28   31.10
 -10  18  -4  188.28   25.00
 -18   5   4  102.69   24.40
   5  13   4   62.99   20.60
 -13  -5   4   61.29   17.70
  18  -5  -4  102.69   21.60
  -5  18   4   73.49   17.30
  -5  18   4  133.39   30.40
 -18  16  -4   63.19   16.30
 -18   2   4  122.29   26.10
  16   2  -4   93.19   21.00
  16 -18   4  157.98   29.40
   2  16   4  117.29   29.10
 -16  -2   4  100.69   20.40
  18  -2  -4  123.39   22.30
  -2  18   4   89.99   18.50
 -16  18  -4   82.59   16.50
  -2  18   4   88.59   23.10
  19   0   4  265.27   32.80
 -19  19   4  245.68   31.80
   0  19  -4  259.37   29.80
  19 -19  -4  244.88   30.40
   3  16  -4  391.26   36.70
 -19  16   4  374.96   37.90
  16   3   4  421.56   40.70
  16 -19  -4  420.86   38.50
  19  -3   4  422.16   41.80
 -16  19   4  357.66   38.20
  19 -16  -4  379.26   38.20
  -3  19  -4  402.06   36.70
  13 -19  -4  177.48   28.30
 -19  13   4  190.98   26.70
  13   6   4  225.58   33.50
   6  13  -4  159.18   27.60
 -13  19   4  210.28   30.60
  19  -6   4  224.88   29.30
  -6  19  -4  195.18   27.80
  19 -13  -4  183.28   27.20
  10   9   4  234.18   33.10
 -19  10   4  200.88   28.00
   9  10  -4  212.58   28.40
  -9  19  -4  211.48   28.40
 -10  19   4  166.58   30.50
  19 -10  -4  238.28   27.90
  19  -9   4  215.78   33.30
   7  12   4  327.97   38.30
 -19   7   4  306.07   33.80
  -7  19   4  308.07   37.50
 -12  -7   4  308.27   34.90
 -12  19  -4  353.96   33.50
  -7  19   4  261.77   34.80
  19  -7  -4  312.47   32.20
 -19   4   4  148.89   30.80
   4  15   4  161.78   32.10
 -19  15  -4  195.78   25.50
 -15  -4   4  173.28   29.50
  -4  19   4  134.79   28.90
  19  -4  -4  127.79   24.10
 -15  19  -4  152.08   25.10
  -4  19   4  155.98   31.90
 -19   1   4   18.70   17.00
   1  18   4   14.30   20.40
   1  18   4    7.80   14.80
 -19  18  -4  -15.60   14.70
 -18  -1   4   11.50   17.30
  -1  19   4   35.80   20.90
  -1  19   4  -24.50   15.60
 -18  19  -4    2.50   14.20
  18   2   4   78.19   22.20
 -20  18   4   64.29   18.00
  18 -20  -4   58.49   17.20
   2  18  -4   69.59   17.10
  20  -2   4   76.09   21.50
  -2  20  -4   77.79   17.40
 -18  20   4   88.59   19.30
  20 -18  -4   67.49   18.80
  15 -20  -4  145.09   26.40
   5  15  -4  143.59   25.90
  15   5   4  161.78   31.80
  -5  20  -4  146.49   24.00
  20  -5   4  129.29   28.90
 -15  20   4  113.89   22.10
  20 -15  -4  152.38   24.90
  12   8   4   13.90   19.90
 -20  12   4   -0.80   13.70
  12 -20  -4   14.00   16.10
   8  12  -4   19.60   14.70
 -12  20   4  -11.60   15.60
  20 -12  -4   16.10   14.50
  -8  20  -4   10.40   15.10
  20  -8   4   25.30   19.50
  11   9  -4  115.49   25.00
   9  11   4   78.79   20.80
 -20   9   4  115.59   24.20
  20  -9  -4  127.39   24.00
 -11  20  -4  131.99   24.50
  -9  20   4   93.89   21.70
  20 -11   4  162.48   31.00
   6  14   4   69.29   21.80
 -20   6   4  113.99   26.70
 -14  20  -4   93.59   20.70
  -6  20   4   68.99   20.10
  20  -6  -4  116.89   22.20
 -14  -6   4   84.29   18.90
  -6  20   4   89.39   24.80
 -20   3   4  138.59   29.20
 -20  17  -4   80.59   19.00
   3  17   4   89.09   22.80
  -3  20   4  120.79   25.60
 -17  -3   4   85.49   20.60
  -3  20   4   15.90   27.20
  20  -3  -4  115.09   24.40
 -17  20  -4   61.79   16.80
   0  20   4   87.79   25.60
 -20  20  -4   46.80   18.30
  20 -20   4   95.59   27.50
 -20   0   4   86.89   22.00
  20   0  -4  127.19   25.40
  20   1   4   28.70   20.20
   1  20  -4   31.30   16.60
  20 -21  -4   30.30   15.20
 -21  20   4    9.30   17.60
  21 -20  -4   21.40   16.00
 -20  21   4    4.40   15.70
  -1  21  -4   29.30   17.40
  21  -1   4   23.60   18.70
 -21  17   4  310.97   35.10
   4  17  -4  308.27   33.40
  17 -21  -4  296.17   32.70
  17   4   4  267.67   37.70
  21  -4   4  258.17   36.40
  21 -17  -4  296.57   30.80
  -4  21  -4  308.17   33.20
 -17  21   4  266.27   34.70
  14 -21  -4  337.37   38.10
   7  14  -4  336.97   34.80
  14   7   4  400.16   42.70
 -21  14   4  374.86   36.50
  -7  21  -4  391.86   35.70
  21 -14  -4  360.46   36.00
 -14  21   4  350.66   38.30
  21  -7   4  406.36   41.40
  11  10   4  229.28   36.10
  10  11  -4  273.97   29.60
 -21  11   4  221.78   30.30
  11 -21  -4  254.97   32.40
  21 -10   4  273.67   36.70
  21 -11  -4  241.68   30.20
 -10  21  -4  283.77   31.10
 -11  21   4  205.08   34.10
 -21   8   4  133.49   29.00
   8  13   4   82.89   23.10
  -8  21   4  125.19   24.70
 -13  21  -4  129.19   24.70
  21 -13   4  118.59   30.10
  21  -8  -4  109.59   23.80
  -8  21   4   68.59   19.60
 -21   5   4   47.90   19.80
   5  16   4   57.29   23.80
 -16  21  -4   30.70   16.10
 -16  -5   4   40.90   18.40
  21 -16   4   63.29   21.10
  21  -5  -4   23.40   15.50
  -5  21   4   11.20   18.00
  -5  21   4   34.10   24.40
 -21   2   4   60.99   18.60
 -21  19  -4    7.50   18.30
   2  19   4   62.49   22.90
  21 -19   4   21.00   22.10
 -19  21  -4   36.60   16.60
  -2  21   4   11.70   18.50
  21  -2  -4   59.49   16.70
 -19  -2   4   48.10   18.20
  -2  21   4   66.69   22.90
 -22  22   4   72.59   20.40
   0  22  -4   31.00   16.30
  22   0   4   52.69   21.90
  22 -22  -4   39.50   17.10
   3  19  -4  137.39   25.00
 -22  19   4  132.39   28.90
  19 -22  -4  131.59   25.10
  19   3   4  161.88   29.90
  -3  22  -4  166.58   26.90
  22 -19  -4  117.09   24.80
 -19  22   4  135.49   28.70
  22  -3   4  136.69   31.50
   6  16  -4  148.09   24.50
 -22  16   4  159.48   28.30
  16   6   4  147.99   33.40
  16 -22  -4  123.29   25.60
  22 -16  -4  142.69   25.50
 -16  22   4  159.78   30.70
  22  -6   4  148.59   31.80
  -6  22  -4  128.19   24.50
   9  13  -4  170.88   27.00
 -22  13   4  156.08   26.80
  13 -22  -4  168.38   28.50
  13   9   4  200.08   33.90
 -13  22   4  172.78   31.60
  22  -9   4  178.38   33.20
  22 -13  -4  144.19   26.70
  -9  22  -4  181.18   25.30
 -22  10   4  387.96   37.90
  10 -22  -4  401.16   39.30
  12  10  -4  401.96   36.40
  10  12   4  325.27   42.40
 -10  22   4  351.56   41.40
 -12  22  -4  438.46   35.70
  22 -10  -4  321.97   36.80
  22 -12   4  338.97   41.50
 -22   7   4  227.28   32.70
   7  15   4  239.28   36.50
 -15  22  -4  195.48   29.10
  -7  22   4  142.59   31.50
  -7  22   4  209.58   34.00
  22  -7  -4  223.98   28.30
 -22   4   4   54.49   18.90
   4  18   4   28.40   21.70
 -18  -4   4   22.90   18.50
  22  -4  -4   62.89   17.50
  -4  22   4  -17.90   17.30
 -18  22  -4   24.00   15.90
  -4  22   4   58.49   24.30
  22 -18   4   65.49   23.60
   1  21   4    2.80   22.40
 -22   1   4   -5.20   18.70
 -21  22  -4   31.80   17.10
  -1  22   4    4.80   22.70
  22  -1  -4  -10.50   16.40
 -21  -1   4   -1.90   17.20
 -23  21   4   87.29   21.00
  21 -23  -4   67.79   18.50
  21   2   4   68.99   23.30
   2  21  -4   63.59   17.60
 -21  23   4   47.90   17.80
  23 -21  -4   53.39   16.60
  -2  23  -4   57.89   17.40
  23  -2   4   63.09   20.60
  18   5   4  191.68   34.70
  18 -23  -4  165.68   26.40
 -23  18   4  120.69   26.70
   5  18  -4  196.08   28.40
 -18  23   4  124.29   27.00
  -5  23  -4  179.18   25.50
  23 -18  -4  160.38   25.30
  23  -5   4  129.79   27.50
 -23  15   4   38.20   17.70
   8  15  -4   48.80   16.60
  15   8   4   44.70   20.70
  15 -23  -4   29.00   15.90
 -15  23   4   40.60   19.90
  23  -8   4   36.40   20.70
  -8  23  -4   32.40   16.10
  23 -15  -4   48.90   17.20
  11  12  -4   53.79   16.50
  12  11   4   59.89   23.10
 -23  12   4   55.59   17.00
  12 -23  -4   62.59   18.80
  23 -12  -4   47.30   17.00
  23 -11   4   29.80   20.80
 -12  23   4   25.70   18.90
 -11  23  -4   52.29   17.60
 -23   9   4  236.78   29.80
  14   9  -4  227.58   29.30
   9  14   4  217.48   34.00
  23  -9  -4  171.28   27.70
  -9  23   4  136.49   27.00
 -14  23  -4  197.28   28.10
 -23   6   4   37.60   18.00
   6  17   4   30.80   21.90
  -6  23   4  -13.80   17.90
  -6  23   4   29.00   24.00
  23  -6  -4   20.10   16.30
 -17  23  -4   24.70   16.80
 -23   3   4   29.90   19.30
   3  20   4   37.30   23.60
  23  -3  -4   46.20   17.90
 -20  -3   4   -2.40   18.30
  -3  23   4   36.60   24.90
   0  23   4   59.79   26.40
  23   0  -4   59.79   27.20
 -23   0   4   50.39   19.30
  20 -24  -4   33.90   15.80
 -24  20   4   53.29   19.70
  20   4   4   18.70   20.70
   4  20  -4   36.80   16.00
  -4  24  -4   38.20   16.70
  24  -4   4   32.00   21.30
 -20  24   4   16.70   17.40
  24 -20  -4   31.50   15.30
  17   7   4  162.48   33.30
  17 -24  -4  162.68   26.40
   7  17  -4  148.29   27.40
 -24  17   4  121.79   29.30
  -7  24  -4  159.18   27.30
  24 -17  -4  137.59   25.90
  24  -7   4  125.59   31.60
  14 -24  -4  165.18   28.80
 -24  14   4  195.08   30.70
  14  10   4  254.37   33.10
  10  14  -4  201.98   27.50
 -14  24   4  166.28   31.60
 -10  24  -4  199.38   26.30
  24 -14  -4  205.08   27.60
  24 -10   4  132.49   33.00
  11 -24  -4   24.40   15.30
  11  13   4   39.70   22.30
 -24  11   4   31.00   17.40
  24 -13   4   -2.90   21.40
 -11  24   4   16.00   20.00
  24 -11  -4   62.49   16.40
 -13  24  -4   50.39   16.90
  16   8  -4   43.20   17.20
   8  16   4   17.50   24.60
 -24   8   4   41.70   19.30
 -16  24  -4    6.80   15.80
  24  -8  -4   29.70   15.90
   5  19   4   -1.50   22.80
 -24   5   4   31.20   20.10
 -19  -5   4   -6.70   17.90
 -19  24  -4   -4.20   16.60
  -5  24   4   -1.50   22.50
  24  -5  -4   14.70   17.60
   2  22   4   45.60   24.60
 -24   2   4   24.70   19.40
  -2  24   4   45.90   26.00
  24 -22   4  -24.10   24.80
   6  19  -4   37.60   16.20
  19 -25  -4   26.50   14.70
 -25  19   4   49.99   19.80
  19   6   4   28.90   22.90
 -19  25   4   20.60   18.10
  25  -6   4   40.50   21.00
  25 -19  -4   25.60   16.20
  -6  25  -4   19.80   16.30
 -25  16   4   23.40   17.30
  16   9   4   31.60   22.60
  16 -25  -4   12.70   15.30
   9  16  -4   38.50   17.10
 -16  25   4   -1.70   18.00
  -9  25  -4   15.80   15.70
  25  -9   4   17.30   19.90
  25 -16  -4   20.40   15.80
  13 -25  -4   10.20   17.00
  13  12   4    2.70   21.70
 -25  13   4   13.60   16.60
  12  13  -4   28.10   16.00
  25 -12   4  -22.00   20.10
 -12  25  -4   10.70   15.30
  25 -13  -4   19.40   16.60
 -13  25   4  -15.20   18.70
  10  15   4   82.79   25.80
  10 -25  -4   49.00   17.80
 -25  10   4   57.79   18.50
  15  10  -4  116.59   24.50
  25 -10  -4  109.59   25.00
  25 -15   4   15.80   22.00
 -15  25  -4   56.89   18.20
 -25   7   4   16.10   19.00
   7  18   4   17.40   22.50
 -18  25  -4    7.40   17.60
  25 -18   4    5.60   20.00
 -25   4   4   13.80   18.70
   4  21   4   16.70   26.30
  25 -21   4   27.50   26.10
  -4  25   4  -30.70   24.80
  25  -4  -4    9.70   18.40
 -21  -4   4   -5.70   20.80
 -21  25  -4   40.00   18.70
  18 -26  -4   25.80   15.90
   8  18  -4   18.90   15.90
 -26  18   4   17.20   17.40
  18   8   4    1.20   22.10
  -8  26  -4   36.70   17.30
  26 -18  -4   24.60   16.40
  26  -8   4   10.60   21.50
 -18  26   4   -2.10   17.40
  11  15  -4   65.39   17.50
  15 -26  -4   48.20   17.30
  15  11   4   98.29   25.80
 -26  15   4  129.69   28.10
 -11  26  -4   65.69   17.70
  26 -11   4   67.49   23.20
  26 -15  -4   99.69   23.40
  14  12  -4   64.69   17.40
  12 -26  -4   66.79   19.30
  12  14   4   80.19   26.20
 -26  12   4  121.19   28.70
 -12  26   4   21.20   21.10
 -14  26  -4   67.79   18.80
  26 -14   4   49.40   23.90
  26 -12  -4   83.59   18.80
  17   9  -4  123.29   26.10
 -26   9   4   84.89   22.40
   9  17   4  111.99   27.50
   9 -26  -4   43.80   17.60
  26 -17   4   64.19   21.10
 -17  26  -4   48.00   18.10
  26  -9  -4   72.99   20.60
 -27  14   4   41.50   20.40
  13  14  -4   38.10   17.40
  14 -27  -4   30.30   16.20
  14  13   4   43.30   24.40
 -13  27  -4   23.60   17.30
  27 -13   4   -1.10   22.00
  27 -14  -4   15.90   16.60
 -14  27   4   16.70   19.10
   1  -1   5  177.58   25.70
  -1   0   5  129.79   23.40
   0   1   5  173.38   27.20
   1  -1   5  151.88   22.60
   0   1   5  149.59   23.60
  -1   0   5  151.78   27.00
   2   0   5  411.46   36.10
  -2   2   5  426.96   39.60
  -2   2   5  387.66   36.80
   2   0   5  352.46   40.10
   0  -2   5  399.76   36.90
   0  -2   5  431.56   37.90
  -3   1   5   37.40   15.90
   1   2   5   61.99   18.00
   2  -3   5   55.89   17.00
   2  -3   5   66.59   14.80
  -3   1   5   66.39   17.00
   1   2   5   48.10   13.30
   3  -2   5   43.80   13.00
  -2  -1   5   42.40   15.50
  -1   3   5   48.30   14.20
  -2  -1   5   48.20   14.60
  -1   3   5   32.30   17.00
   3  -2   5   56.99   17.20
   1  -4   5  330.77   35.70
  -4   3   5  400.36   38.70
   1  -4   5  411.86   35.50
   3   1   5  318.47   39.60
  -4   3   5  301.87   36.40
   3   1   5  390.76   33.50
  -1  -3   5  400.66   36.10
   4  -1   5  349.87   38.20
   4  -1   5  354.96   33.90
  -3   4   5  404.16   38.80
  -3   4   5  434.66   36.50
  -1  -3   5  383.46   35.70
   0   4   5 1515.25  110.19
   0   4   5 1337.97  108.29
  -4   0   5 1524.55  109.39
   4  -4   5 1599.14  109.89
  -4   0   5 1409.36  108.79
   0  -5   5  570.14   48.20
   5   0   5  606.24   50.49
  -5   5   5  530.05   47.60
   3  -5   5  700.43   53.19
   2   3   5  537.55   50.49
   2   3   5  658.83   55.29
  -5   2   5  600.74   53.69
  -5   2   5  611.14   52.39
   5  -3   5  685.63   54.09
  -2   5   5  632.74   50.89
  -3  -2   5  614.94   51.69
  -3  -2   5  594.54   51.89
  -2   5   5  713.23   54.89
  -6   4   5  105.49   25.30
   4   2   5   83.89   20.50
   2  -6   5   88.59   21.60
  -6   4   5  153.08   26.30
  -2  -4   5  109.49   22.00
  -2  -4   5  107.79   19.00
  -4   6   5  112.09   22.30
  -4   6   5  155.78   28.80
   6  -2   5  132.49   27.10
   1   5   5  476.45   38.50
  -6   5  -5  441.16   38.00
   5  -6   5  410.26   41.00
   5   1  -5  433.76   39.50
   1   5   5  443.76   43.90
  -1   6   5  404.86   38.00
   6  -5   5  428.66   40.70
  -5   6  -5  426.86   38.90
  -5  -1   5  448.56   41.80
  -1   6   5  448.86   43.90
  -7   6   5  154.98   27.50
  -7   1  -5  153.58   17.60
   6   1   5  101.39   15.20
   1  -7   5  100.19   16.50
  -7   6   5   90.69   22.60
   6   1   5  127.89   27.80
  -1  -6   5  132.09   23.70
   7  -1   5  105.99   26.80
  -6   7   5  128.79   26.80
  -6   7   5   99.89   23.50
   4  -7   5 1092.59   81.69
  -7   4  -5 1066.29   78.89
   4   3  -5 1160.88   80.49
   3   4   5  901.11   79.39
   7  -4   5 1094.29   82.09
  -4   7  -5 1090.59   80.69
  -4  -3   5 1085.09   81.99
  -3   7   5 1040.60   80.19
  -3   7   5 1088.39   83.49
   7  -7   5 1621.74  122.69
   7   0  -5 1680.63  121.59
  -7   0   5 1676.83  122.69
  -7   7  -5 1609.94  120.69
   0   7   5 1721.53  123.79
   0   7   5 1678.83  121.39
   0   8  -5   97.59   19.10
  -8   8   5  113.09   25.20
   8   0   5   94.49   21.60
  -8   8   5   71.59   17.70
  -8   3  -5  284.97   25.40
   3   5  -5  257.77   27.00
   5   3   5  253.87   26.40
   3  -8   5  236.98   28.20
   5   3   5  320.57   36.20
  -8   5   5  266.37   30.30
   8  -5  -5  281.67   33.70
   8  -3   5  249.08   32.80
  -3  -5   5  304.07   33.20
  -3   8  -5  246.78   30.90
  -5   8   5  303.57   35.70
  -5   8   5  250.97   30.60
  -8   2   5  263.57   37.20
  -8   6  -5  304.47   29.50
   2   6   5  370.56   31.80
   6  -8   5  319.37   34.30
   2   6   5  241.98   36.00
   6   2  -5  351.36   31.50
  -2   8   5  372.96   39.60
   8  -6   5  258.17   35.60
   8  -2  -5  334.27   34.20
  -2   8   5  327.37   32.10
  -6   8  -5  310.77   31.70
  -6  -2   5  310.97   34.60
  -9   7   5   74.99   17.70
   7   2   5   91.19   21.90
  -7   9   5   95.99   18.20
   9  -2   5   89.29   20.80
  -2   9  -5  121.09   19.90
   9  -7  -5  114.29   27.50
  -7   9   5  129.69   26.90
  -9   4   5  281.67   34.60
   5  -9   5  237.48   32.60
   4   5   5  301.77   36.40
   5   4  -5  305.67   27.70
   4   5   5  263.97   28.00
  -9   5  -5  320.07   27.10
  -5   9  -5  289.57   30.60
  -4   9   5  276.17   30.70
  -4   9   5  303.07   37.40
   9  -5   5  219.18   33.80
   9  -4  -5  303.17   33.30
  -5  -4   5  259.87   32.40
   8  -9   5  246.58   30.70
   1   8   5  234.68   34.40
   8   1  -5  205.98   26.30
   1   8   5  226.08   27.00
  -9   8  -5  223.28   25.70
  -8   9  -5  219.78   27.00
  -1   9   5  199.18   27.00
   9  -1  -5  260.87   27.60
  -1   9   5  229.78   32.80
   9  -8   5  240.98   32.40
  -8  -1   5  193.88   30.60
   1   9  -5   12.20   15.90
   9   1   5   31.00   18.80
 -10   9   5   12.10   14.90
  10  -9  -5   23.40   18.80
  10  -1   5   15.70   17.30
  -1  10  -5   12.80   16.80
  -9  10   5   21.50   14.00
   6   4   5  111.29   27.80
 -10   6   5  121.79   21.30
  -4  -6   5  184.08   28.20
  10  -4   5  195.58   30.40
  -4  10  -5  183.68   25.90
  -6  10   5   93.99   24.60
  -6  10   5  150.88   24.50
   7 -10   5  462.65   43.30
   3   7   5  444.16   45.40
   7   3  -5  407.96   39.30
   3   7   5  484.65   40.40
 -10   3   5  491.55   46.70
 -10   7  -5  506.25   39.20
  -7  -3   5  454.95   43.60
  -3  10   5  408.06   40.70
  10  -3  -5  500.95   42.80
  10  -7   5  491.65   45.60
  -7  10  -5  525.45   41.70
  -3  10   5  486.55   47.60
   0  10   5  202.08   26.20
  10   0  -5  202.48   25.60
   0  10   5  234.88   31.10
 -10  10  -5  191.08   25.50
  10 -10   5  234.18   31.20
 -10   0   5  182.88   29.70
 -11  11   5  597.74   46.50
   0  11  -5  515.45   47.60
  11 -11  -5  528.55   49.60
   8   3   5   85.99   31.20
 -11   8   5   72.59   17.30
  -8  11   5   90.39   17.00
  11  -3   5   84.79   20.30
  -3  11  -5   60.19   17.40
  -8  11   5  164.38   40.90
  11  -8  -5   93.49   23.80
 -11   6  -5   24.90   16.60
   6   5  -5   34.70   10.70
 -11   5   5   23.50   18.60
  -6  11  -5   26.90   15.00
  11  -5  -5   32.80   16.50
  11  -6   5   30.00   17.40
  -5  11   5   43.90   34.40
  -5  11   5   33.70   14.80
 -11   9  -5   10.60   11.20
   2   9   5    7.20   11.90
   9 -11   5   13.80   15.10
 -11   2   5  -17.10   17.20
   9   2  -5    9.70   11.80
   2   9   5   10.60   19.30
  -2  11   5   17.60   18.50
  11  -2  -5   32.50   13.90
  -9  11  -5   12.10   13.40
  -9  -2   5  -11.30   16.30
  -2  11   5   -1.40   12.70
  11  -9   5   -0.70   16.00
 -12  10   5  143.09   24.20
   2  10  -5  123.99   24.10
  12  -2   5  134.89   33.50
  12 -10  -5  163.58   27.30
  -2  12  -5  124.39   23.40
   7   5   5  180.08   29.20
 -12   7   5  204.18   27.80
  -5  12  -5  202.18   28.60
  -7  12   5  293.97   35.20
  -7  12   5  146.69   28.30
  -5  -7   5  245.28   28.70
  12  -7  -5  225.28   29.10
   8   4  -5  257.17   25.30
 -12   4   5  188.38   31.70
   4   8   5  227.48   32.90
 -12   8  -5  217.58   25.90
  12  -8   5  306.17   33.30
  -4  12   5  234.88   29.50
  -8  -4   5  329.77   34.20
  -8  12  -5  275.37   28.70
  12  -4  -5  296.57   30.20
 -12  11  -5   43.60   13.40
   1  11   5   60.79   14.10
  11   1  -5   41.90   13.20
 -12   1   5   45.40   17.40
  11 -12   5   65.09   17.90
   1  11   5   38.80   18.70
  -1  12   5   30.80   19.50
  12 -11   5   80.09   18.20
  12  -1  -5   39.90   14.10
 -11  12  -5   37.30   13.40
  -1  12   5   80.09   15.70
 -11  -1   5   55.29   17.50
 -13  12   5  127.59   24.20
  12   1   5  151.28   28.50
  12 -13  -5  146.29   24.90
   1  12  -5  124.29   23.20
  13 -12  -5  139.29   24.40
  13  -1   5  112.49   28.10
 -12  13   5  119.89   25.00
  -1  13  -5  125.79   22.40
 -13   9   5    5.20   13.50
   9   4   5    6.40   16.30
   4   9  -5  -12.60   14.80
  -9  13   5   18.70   15.60
  -9  13   5   28.80   17.60
  -4  13  -5   -5.30   14.80
  13  -9  -5    6.60   18.20
 -13   6   5  297.07   33.70
   6   7   5  299.17   35.70
  13  -7   5  356.96   36.50
  -7  -6   5  278.17   32.30
  -6  13   5  233.08   34.00
  -6  13   5  276.77   32.10
  13  -6  -5  291.57   31.80
  -7  13  -5  274.27   30.90
 -13  10  -5  111.79   16.20
  10   3  -5  145.29   19.20
 -13   3   5  110.49   22.00
   3  10   5  117.79   30.40
 -10  -3   5  144.59   28.30
 -10  13  -5  136.99   22.50
  -3  13   5   87.49   22.60
  -3  13   5  146.29   24.20
  13  -3  -5  118.49   22.50
 -13   0   5  133.69   28.30
 -13  13  -5  106.29   17.00
   0  13   5  116.09   26.70
  13   0  -5  142.79   21.40
  14   0   5  405.16   44.40
 -14  14   5  448.36   41.70
   0  14  -5  466.75   39.20
  14 -14  -5  457.35   42.50
 -14  11   5  232.98   28.40
  11 -14  -5  210.98   31.70
   3  11  -5  205.78   29.70
  11   3   5  240.58   32.20
  14 -11  -5  232.48   28.50
 -11  14   5  250.97   28.10
  -3  14  -5  163.98   26.20
  14  -3   5  225.28   31.70
   8   6   5    2.00   17.40
 -14   8   5  -11.90   14.20
  -8  14   5   14.50   17.50
  -8  14   5    1.50   14.80
  -6  14  -5    2.30   14.50
  14  -8  -5   12.20   16.90
 -14   5   5   27.40   16.00
   5   9   5   24.90   17.60
  14  -5  -5   43.70   15.20
  -5  14   5   48.00   20.90
  -9  14  -5   33.70   13.80
  -9  -5   5   40.80   17.90
  14  -9   5   69.49   18.90
  -5  14   5   37.80   16.10
  12 -14   5  143.19   36.80
  12   2  -5  145.39   20.00
 -14  12  -5   92.19   16.70
  14  -2  -5  117.39   22.00
  14 -12   5  162.18   29.80
  -2  14   5  118.09   29.70
 -12  14  -5  112.89   22.50
  -2  14   5  138.09   25.40
 -12  -2   5  139.39   28.90
  13 -15  -5   52.49   17.60
  13   2   5   66.09   20.80
   2  13  -5   51.49   16.10
 -15  13   5   61.09   15.50
 -13  15   5   52.69   16.20
  -2  15  -5   50.49   15.60
  15 -13  -5   50.69   16.30
  15  -2   5   64.09   20.00
  10   5   5   22.40   17.20
   5  10  -5   16.90   16.10
 -15  10   5   12.70   14.10
  15  -5   5   30.70   18.60
  15 -10  -5   31.50   16.10
  -5  15  -5   21.10   15.00
 -10  15   5   16.00   15.30
 -15   7   5  144.79   25.50
   7   8   5  141.09   27.40
  15  -7  -5  147.39   25.00
  -7  15   5  172.28   31.40
  -8  -7   5  171.28   27.90
  -8  15  -5  150.18   22.70
  -7  15   5  151.48   26.40
   4  11   5   77.39   21.20
 -15   4   5   76.29   19.80
 -11  15  -5   63.49   15.60
  -4  15   5   95.69   22.50
  -4  15   5  110.49   23.90
  15 -11   5  137.59   30.90
  15  -4  -5   64.59   16.20
 -11  -4   5   87.89   19.80
   1  14   5   65.59   19.80
 -15   1   5   61.39   18.80
 -15  14  -5   21.30   13.50
  14   1  -5   29.00   12.70
 -14  15  -5   25.00   14.60
  15  -1  -5   88.09   20.50
  15 -14   5  138.39   30.90
 -14  -1   5   36.10   17.40
  -1  15   5   62.99   21.20
  -1  15   5   39.00   16.20
 -16  15   5   99.09   24.20
  15   1   5   92.09   22.50
  15 -16  -5  127.19   25.90
   1  15  -5  141.29   25.10
  -1  16  -5  114.19   23.40
  16  -1   5  139.19   26.90
  16 -15  -5  108.39   24.90
 -15  16   5  123.39   27.40
  12   4   5  183.68   30.70
   4  12  -5  160.48   27.80
  12 -16  -5  142.59   28.80
 -16  12   5  166.08   26.80
  16 -12  -5  160.88   26.20
  16  -4   5  218.38   31.90
 -12  16   5  201.68   29.10
  -4  16  -5  158.18   25.20
   7   9  -5   73.29   17.40
   9   7   5  108.39   27.30
 -16   9   5   73.19   17.10
  -7  16  -5  108.99   24.00
  16  -9  -5  102.39   19.80
  16  -7   5  130.89   29.30
  -9  16   5  110.09   20.90
  -9  16   5  121.49   28.60
   6  10   5   33.80   19.30
 -16   6   5   15.00   16.50
 -10  16  -5   24.40   15.30
  16  -6  -5   28.40   15.60
  -6  16   5   38.30   21.40
  -6  16   5   12.70   20.40
 -10  -6   5   17.90   16.80
 -16   3   5    2.60   17.10
   3  13   5   46.50   19.80
  -3  16   5   53.39   17.30
 -13  -3   5   12.70   17.00
  16  -3  -5   36.30   14.90
  -3  16   5   15.60   19.00
  16 -13   5   86.79   22.90
   0  16   5  384.96   42.60
 -16  16  -5  276.47   34.80
  16 -16   5  436.86   45.10
 -16   0   5  364.06   38.40
  16   0  -5  362.66   34.10
  17 -17  -5  281.17   33.10
 -17  17   5  237.08   32.70
   0  17  -5  312.37   33.60
  17   0   5  325.07   38.00
 -17  14   5  238.48   31.10
   3  14  -5  273.37   32.50
  14   3   5  261.97   36.40
  14 -17  -5  297.67   34.40
  -3  17  -5  289.27   31.00
  17 -14  -5  304.37   31.20
 -14  17   5  273.67   34.30
  17  -3   5  323.67   37.80
  11 -17  -5   26.80   17.20
  11   6   5   42.60   18.30
   6  11  -5   23.60   16.00
 -17  11   5   33.50   15.60
  -6  17  -5   32.70   17.00
  17 -11  -5   38.70   17.50
  17  -6   5   71.89   21.90
 -11  17   5   54.39   18.90
 -17   8   5   23.80   16.20
   8   9   5   25.40   18.10
  -9  17  -5   24.50   15.90
  -8  17   5   37.50   20.30
  17  -8  -5   26.50   16.40
  -8  17   5   53.49   18.40
   5  12   5  196.98   33.90
 -17   5   5  197.88   30.40
  17 -12   5  257.67   34.70
 -12  17  -5  160.98   27.10
  17  -5  -5  221.68   27.00
 -12  -5   5  182.78   31.50
  -5  17   5  203.88   32.10
   2  15   5   48.70   21.00
 -17   2   5   36.70   17.70
 -15  -2   5   37.40   19.10
  -2  17   5   25.30   19.60
 -15  17  -5   23.40   14.80
  17  -2  -5   43.80   22.90
 -18  16   5   58.29   17.60
  16 -18  -5   58.89   18.00
  16   2   5   76.49   23.00
   2  16  -5   54.49   17.80
  18  -2   5   49.90   20.80
  18 -16  -5   31.10   16.00
  -2  18  -5   36.10   16.50
 -16  18   5   52.49   19.30
  13 -18  -5   58.59   18.40
   5  13  -5   66.19   17.40
  13   5   5   72.09   19.80
 -18  13   5   36.80   16.70
  18 -13  -5   99.39   24.00
  18  -5   5   83.99   22.10
 -13  18   5   78.49   21.00
  -5  18  -5  107.59   22.70
  10   8   5  196.38   32.60
   8  10  -5  191.48   29.70
 -18  10   5  177.78   28.90
  18 -10  -5  218.68   28.40
  -8  18  -5  169.58   25.80
  18  -8   5  278.17   35.10
 -10  18   5  199.88   33.20
   7  11   5  393.06   41.70
 -18   7   5  357.66   38.70
 -11  -7   5  388.06   39.70
  -7  18   5  379.16   39.90
  18  -7  -5  328.77   36.30
  -7  18   5  381.46   42.20
 -11  18  -5  357.16   36.10
 -18   4   5  334.17   38.80
   4  14   5  336.57   38.60
 -14  -4   5  297.37   35.70
  18  -4  -5  301.77   33.00
  18 -14   5  345.47   44.80
 -14  18  -5  271.37   33.30
  -4  18   5  371.56   39.10
  -4  18   5  316.87   40.40
   1  17   5  193.18   34.80
 -18   1   5  260.47   35.00
  18  -1  -5  274.17   28.80
 -17  -1   5  207.28   33.80
  -1  18   5  212.88   36.60
 -19  18   5   20.90   16.60
  18 -19  -5   18.50   15.30
   1  18  -5   22.10   15.70
  18   1   5   37.50   22.00
  -1  19  -5   30.30   16.00
 -18  19   5   13.10   16.60
  19 -18  -5   18.40   15.50
  19  -1   5   32.40   19.50
 -19  15   5  112.09   26.10
  15 -19  -5   81.99   19.80
   4  15  -5  118.09   25.30
  15   4   5   84.39   23.10
  -4  19  -5  133.49   26.40
  19  -4   5  123.99   31.80
  19 -15  -5  131.69   25.70
 -15  19   5   94.59   20.70
  12 -19  -5  281.17   35.90
 -19  12   5  304.77   34.60
   7  12  -5  296.57   34.30
  12   7   5  258.47   38.20
 -12  19   5  338.97   38.70
  -7  19  -5  304.47   31.60
  19 -12  -5  292.37   33.00
  19  -7   5  345.77   39.80
 -19   9   5  212.28   30.00
  10   9  -5  209.28   31.20
   9  10   5  265.17   33.30
 -10  19  -5  239.78   28.20
  19  -9  -5  243.68   29.20
  -9  19   5  221.48   34.20
 -19   6   5   36.60   18.30
   6  13   5   74.69   22.80
  19  -6  -5   59.29   17.40
  -6  19   5   74.39   23.80
 -13  -6   5   42.00   17.70
 -13  19  -5   45.10   17.80
  -6  19   5   42.30   19.20
 -19   3   5  273.27   35.20
   3  16   5  204.38   33.10
  -3  19   5  246.58   37.10
  19  -3  -5  239.58   29.60
  -3  19   5  258.37   35.10
 -16  -3   5  230.08   31.90
 -16  19  -5  185.38   29.40
  19 -16   5  302.57   42.40
   0  19   5  403.46   42.70
 -19   0   5  420.96   43.00
  20   0   5   66.69   22.00
   0  20  -5   62.89   18.80
 -20  20   5   66.59   19.90
  20 -20  -5   70.29   18.70
 -20  17   5   75.49   18.60
   3  17  -5   65.09   17.50
  17 -20  -5   68.09   18.20
  17   3   5  113.79   25.20
  20 -17  -5   85.39   19.10
 -17  20   5   65.09   20.00
  -3  20  -5  102.29   23.00
  20  -3   5  122.69   31.10
  14   6   5   48.10   19.70
 -20  14   5   38.40   17.40
  14 -20  -5   46.90   18.20
   6  14  -5   48.30   16.30
  20  -6   5   87.99   23.80
  20 -14  -5   56.39   18.20
 -14  20   5   54.89   19.80
  -6  20  -5   62.09   17.20
  11   9   5   14.70   17.70
 -20  11   5   21.80   16.30
  11 -20  -5   26.20   18.40
   9  11  -5   15.20   15.80
  20  -9   5   53.49   22.20
 -11  20   5   17.30   18.60
  20 -11  -5   30.00   17.90
  -9  20  -5   18.40   17.30
 -20   8   5   35.30   18.10
   8  12   5   55.69   20.70
  -8  20   5   52.89   21.50
  20  -8  -5   41.10   16.50
  -8  20   5   33.00   20.80
 -12  20  -5   26.70   16.00
 -20   5   5  138.59   30.70
   5  15   5  164.78   31.80
 -15  -5   5   95.79   21.50
 -15  20  -5   72.39   17.80
  -5  20   5  130.39   31.50
  20  -5  -5  125.89   23.30
  -5  20   5   73.89   23.70
   2  18   5   53.49   21.90
 -20   2   5   43.00   18.80
  20 -18   5   43.40   26.70
  20  -2  -5   52.79   17.50
  -2  20   5   44.50   22.50
 -18  -2   5   58.49   20.10
  19 -21  -5   13.70   14.90
 -21  19   5   23.40   16.60
   2  19  -5   -6.00   15.80
  19   2   5   17.80   20.20
 -19  21   5    0.30   17.40
  -2  21  -5   22.20   17.10
  21  -2   5   19.30   22.00
  21 -19  -5   -4.40   15.70
  16   5   5   24.00   21.40
 -21  16   5    8.10   15.80
  16 -21  -5    3.30   15.20
   5  16  -5   -2.30   15.60
  21 -16  -5   -1.10   15.10
  21  -5   5   17.60   20.80
 -16  21   5   16.50   18.80
  -5  21  -5   15.40   16.40
   8  13  -5  105.29   23.20
  13 -21  -5  101.79   26.00
  13   8   5   86.69   23.20
 -21  13   5   58.29   17.40
  21  -8   5  141.79   32.50
  -8  21  -5   73.99   18.90
  21 -13  -5  107.69   20.10
 -13  21   5   63.09   22.00
 -21  10   5  295.37   32.20
  11  10  -5  253.17   33.10
  10  11   5  312.37   38.20
  21 -10  -5  215.78   30.80
 -11  21  -5  261.77   30.10
 -10  21   5  252.67   37.60
   7  14   5  333.47   39.70
 -21   7   5  329.37   35.40
 -14  21  -5  222.28   32.70
  21  -7  -5  288.37   32.10
  -7  21   5  302.47   38.50
  -7  21   5  286.47   38.20
   4  17   5  200.28   35.10
 -21   4   5  242.88   34.20
  -4  21   5  171.08   34.80
  21  -4  -5  272.97   28.20
 -17  -4   5  228.18   33.40
 -17  21  -5  140.89   28.80
  -4  21   5  156.78   36.10
   1  20   5   62.99   23.00
 -21   1   5   32.10   18.10
  -1  21   5   30.40   23.70
 -20  -1   5   41.20   18.50
 -22  18   5   13.20   16.30
   4  18  -5   10.60   16.10
  18   4   5   17.30   20.20
  18 -22  -5    3.50   16.20
  22  -4   5   15.70   21.50
 -18  22   5    3.10   19.00
  22 -18  -5    7.10   15.60
  -4  22  -5   11.50   17.50
  15 -22  -5   62.69   18.60
 -22  15   5   95.19   20.00
   7  15  -5  104.89   25.00
  15   7   5   62.79   21.90
  22 -15  -5   98.59   24.30
  22  -7   5   74.19   23.40
 -15  22   5   45.20   21.40
  -7  22  -5  104.19   20.10
 -22  12   5  135.09   28.90
  12 -22  -5  141.39   27.40
  10  12  -5  194.98   25.90
  12  10   5  149.09   33.10
 -12  22   5  114.89   25.40
  22 -10   5  191.18   36.20
  22 -12  -5  160.78   26.60
 -10  22  -5  175.18   28.10
  13   9  -5  116.39   23.70
   9  13   5  103.69   25.20
 -22   9   5   74.29   18.90
  -9  22   5   52.09   22.70
 -13  22  -5   67.59   18.60
  22  -9  -5  100.09   23.40
 -22   6   5   41.30   18.30
   6  16   5   84.29   23.60
 -16  22  -5   48.80   18.60
  22  -6  -5   54.19   17.00
  -6  22   5   62.09   24.70
 -16  -6   5   25.70   17.70
  -6  22   5   20.90   20.20
 -22   3   5   91.49   21.30
   3  19   5  102.69   24.90
 -19  -3   5   56.49   19.20
 -19  22  -5   55.09   19.40
  -3  22   5   87.39   25.20
 -23  17   5   20.30   17.30
   6  17  -5   22.30   15.80
  17 -23  -5   17.10   15.00
  17   6   5   25.30   20.10
 -17  23   5   39.00   19.80
  23  -6   5   53.79   23.60
  23 -17  -5   28.40   16.50
  -6  23  -5   18.60   16.60
  14   9   5   79.19   24.20
   9  14  -5   73.19   18.30
  14 -23  -5   58.09   18.40
 -23  14   5   42.90   17.20
  23  -9   5   86.79   26.70
 -14  23   5   46.20   22.10
  -9  23  -5   61.09   19.00
  23 -14  -5   70.69   18.20
  11 -23  -5   32.20   17.90
  12  11  -5   61.09   18.40
 -23  11   5   43.00   17.80
  11  12   5   55.99   22.70
  23 -12   5   77.69   26.30
 -11  23   5   46.40   22.60
 -12  23  -5   33.30   17.10
  23 -11  -5   65.89   17.30
  15   8  -5   62.59   17.70
   8  15   5   57.89   23.00
 -23   8   5   80.19   20.50
 -15  23  -5   31.60   17.90
  -8  23   5   18.70   22.50
  23  -8  -5   55.99   16.70
 -23   5   5  135.29   30.10
   5  18   5  116.09   26.80
  23  -5  -5  103.79   20.90
 -18  -5   5   72.89   21.40
  -5  23   5   79.29   24.80
  23 -18   5  162.28   37.40
 -18  23  -5   53.99   18.90
  -5  23   5   54.99   23.70
  16   8   5   25.90   22.00
  16 -24  -5   -3.00   15.50
   8  16  -5   19.50   16.00
 -24  16   5   10.10   16.70
 -16  24   5   -8.80   19.90
  24 -16  -5   19.50   15.50
  -8  24  -5   -6.80   17.80
  24  -8   5   18.40   23.60
  11  13  -5   60.29   17.30
  13  11   5   50.99   22.90
  13 -24  -5   38.90   16.90
 -24  13   5   56.19   18.40
  24 -11   5   -2.90   23.50
 -11  24  -5   58.59   19.50
  24 -13  -5   66.39   18.00
 -13  24   5   44.90   20.40
  14  10  -5  115.29   23.90
  10  14   5   93.69   26.00
  10 -24  -5   89.89   21.30
 -24  10   5   84.19   20.20
 -10  24   5   51.09   23.80
 -14  24  -5   80.89   20.40
  24 -10  -5  131.19   25.90
   0   0   6 1399.46  106.59
   0   0   6 1422.56  104.99
  -2   1   6  261.87   34.70
  -2   1   6  287.37   32.70
   1   1   6  317.77   35.20
   1   1   6  267.87   31.60
   1  -2   6  274.17   32.30
   1  -2   6  266.07   34.70
  -1   2   6  326.77   32.60
  -1  -1   6  257.77   35.10
   2  -1   6  307.47   34.90
  -1   2   6  249.08   35.80
   2  -1   6  284.37   31.70
  -1  -1   6  291.67   32.80
   0  -3   6  575.04   55.79
  -3   3   6  691.73   57.39
   3   0   6  671.03   54.49
   0  -3   6  672.03   55.39
   3   0   6  691.83   57.59
  -3   3   6  701.63   55.39
   3  -3   6 1103.19   85.89
  -3   0   6 1118.59   84.99
   0   3   6 1112.09   86.29
   0   3   6 1137.99   84.39
  -3   0   6 1076.59   85.69
   2   2   6  159.88   25.50
   2  -4   6  195.88   30.10
  -4   2   6  152.78   28.00
   2   2   6  219.28   31.70
  -4   2   6  170.48   31.80
  -2   4   6  226.88   31.80
  -2  -2   6  161.08   30.10
  -2  -2   6  163.78   26.30
  -2   4   6  205.28   28.60
   4  -2   6  240.88   32.60
   1  -5   6   10.90   15.70
   4   1   6   45.70   19.60
  -5   4   6   32.20   18.20
  -5   4   6   46.80   17.60
   4   1   6   28.10   13.70
  -4   5   6   65.29   21.60
  -4   5   6   53.19   16.70
  -1  -4   6   13.80   16.70
  -1  -4   6   39.70   16.30
   5  -1   6   64.29   20.00
   1   4   6  141.79   25.30
  -5   4  -6  180.88   23.20
   4  -5   6  168.68   29.10
   5  -4   6  121.49   31.60
  -1   5   6  104.99   34.50
  -1   5   6  174.68   26.30
  -4   5  -6  160.58   25.10
  -6   6   6   78.09   29.90
   3   3   6  274.17   35.20
  -6   3   6  204.28   32.50
   3  -6   6  259.87   32.30
   3   3   6  258.17   28.80
  -6   3  -6  291.37   27.80
  -3   6   6  268.67   31.60
   6  -3   6  256.77   35.70
  -3   6   6  269.87   35.20
  -3   6  -6  220.58   30.10
  -3  -3   6  259.07   32.00
  -6   0   6  342.17   37.10
   0   6   6  443.36   38.20
   6  -6   6  376.36   40.90
   6   0  -6  356.66   38.20
  -6   6  -6  404.56   35.70
  -7   5   6   19.10   15.60
   5   2   6   50.99   19.80
  -2   7  -6   22.20   15.80
  -5   7   6   29.90   15.40
   7  -2   6   28.60   17.90
  -5   7   6   40.90   19.00
  -2  -5   6   29.40   15.20
   2   5   6   84.39   20.30
  -7   2   6  105.69   24.40
   5   2  -6  112.09   24.20
   2   5   6  137.09   23.00
  -7   5  -6  147.59   21.20
   5  -7   6  121.49   26.70
  -2   7   6  182.38   25.30
   7  -5   6  154.98   30.00
  -5  -2   6  120.79   24.30
  -2   7   6   88.79   21.90
  -5   7  -6  104.59   23.20
   7  -2  -6  124.99   27.50
   7   1   6   12.90   18.00
  -8   7   6   23.90   15.50
   8  -1   6   36.20   18.30
  -7   8   6   48.30   20.10
  -1   8  -6   39.20   15.30
  -7   8   6   31.70   14.60
  -8   4   6   29.00   16.60
   4   4   6   26.00   18.90
   4   4  -6   44.20   19.10
   8  -4  -6   51.29   18.30
  -4   8   6   42.10   14.80
   8  -4   6   44.90   19.20
  -4   8  -6   75.49   16.30
  -4   8   6   56.19   21.30
  -4  -4   6   44.20   17.10
  -8   1   6    3.10   15.70
   7  -8   6   13.50   18.10
  -8   7  -6   24.80   12.00
   7   1  -6   32.50   14.20
   1   7   6   37.90   14.10
   1   7   6   16.70   19.00
   8  -7   6   24.10   17.70
   8  -1  -6   21.80   15.30
  -1   8   6   16.40   19.10
  -1   8   6    8.80   14.60
  -7  -1   6    0.70   15.00
  -7   8  -6   22.20   12.70
   9   0   6   53.29   19.30
   0   9  -6   86.29   17.80
  -9   9   6   60.59   16.50
   6   3   6   35.60   18.30
  -9   6   6   24.10   15.70
  -3   9  -6   38.00   15.30
   9  -3   6   43.90   19.50
  -3  -6   6   30.70   16.30
  -6   9   6   35.30   20.50
   9  -6  -6   38.20   19.30
  -9   3   6   12.90   16.40
   3   6   6    8.00   17.20
  -9   6  -6   27.40   11.40
   6   3  -6   -0.50   13.30
  -6  -3   6    5.90   15.40
  -3   9   6   23.30   19.80
   9  -6   6   31.50   18.30
  -6   9  -6   12.40   13.80
  -3   9   6   12.60   14.40
   9  -3  -6    5.60   15.50
  -9   0   6    9.10   15.80
   0   9   6    9.10   19.30
   9   0  -6    2.00   13.60
   0   9   6   29.40   14.80
   9  -9   6    6.40   18.40
  -9   9  -6   26.50   13.00
   2   8  -6   62.49   18.00
   8   2   6   49.50   19.40
 -10   8   6   60.79   16.80
  10  -2   6   73.19   20.00
  10  -8  -6   44.30   18.20
  -2  10  -6   77.09   17.40
  -8  10   6   44.60   18.80
  -8  10   6   60.39   15.90
 -10   5   6  111.29   27.30
   5   5   6  133.39   30.70
  -5  -5   6  137.59   27.50
  -5  10   6  148.59   25.20
  -5  10   6  123.69   31.50
  10  -5  -6  114.39   27.00
  -5  10  -6  176.08   23.90
   8   2  -6   37.70   13.00
 -10   2   6   -4.80   15.60
   2   8   6    3.60   17.40
 -10   8  -6   16.50   11.70
  -8  10  -6   10.50   13.10
  -8  -2   6   15.40   16.60
  10  -8   6   -7.50   18.60
  -2  10   6   -8.70   17.50
  10  -2  -6   24.80   14.80
 -11  10   6   59.89   16.20
  10   1   6   56.19   19.60
  10 -11  -6   72.69   21.10
   1  10  -6   67.29   19.40
 -10  11   6   71.89   17.20
  -1  11  -6   59.59   17.40
  11  -1   6   64.49   21.00
  11 -10  -6   55.79   19.30
 -11   7   6  451.65   42.50
   7   4   6  490.05   45.90
  11  -4   6  504.15   46.50
  -4  11  -6  474.35   41.80
  11  -7  -6  484.25   44.50
  -7  11   6  444.16   46.30
  -7  11   6  443.86   42.20
 -11   4   6  323.17   36.70
   4   7   6  332.97   39.00
  -7  -4   6  331.07   38.10
  -7  11  -6  367.46   34.50
  -4  11   6  302.57   37.90
  11  -7   6  434.96   41.60
  11  -4  -6  313.17   46.20
  -4  11   6  379.86   36.80
 -11   1   6   37.50   17.50
  10   1  -6   73.69   15.30
   1  10   6   67.29   21.40
 -11  10  -6   53.19   14.20
  11  -1  -6   71.69   17.40
  -1  11   6   58.59   20.40
 -10  11  -6   49.90   14.60
  11 -10   6  113.49   22.90
 -10  -1   6   74.09   19.60
  12 -12  -6   84.29   22.20
 -12  12   6  116.49   25.70
   0  12  -6   87.79   19.90
  12   0   6  148.39   29.60
 -12   9   6  130.19   26.80
   9   3   6  155.98   30.00
   3   9  -6   83.29   19.60
  -3  12  -6  121.49   25.50
  12  -9  -6  123.09   28.60
  -9  12   6  136.89   27.00
  12  -3   6  166.78   30.40
   6   6   6  246.18   35.10
 -12   6   6  213.18   30.50
  -6  12  -6  249.58   29.80
  -6  -6   6  246.98   33.10
  -6  12   6  252.47   31.50
  12  -6  -6  251.67   32.00
  -6  12   6  258.07   36.00
  12  -6   6  261.37   35.20
 -12   3   6  293.37   37.10
  12  -9   6  371.46   41.60
  -3  12   6  342.47   39.60
  -9  -3   6  309.77   35.30
  -3  12   6  353.96   35.20
  -9  12  -6  282.77   33.60
   0  12   6  576.94   52.29
  12 -12   6  526.75   52.29
  12   0  -6  505.65   46.40
 -12  12  -6  562.04   46.10
 -12   0   6  574.64   49.40
  11   2   6  119.79   30.40
  11 -13  -6  101.49   22.20
 -13  11   6   97.29   23.00
   2  11  -6   76.19   18.80
  -2  13  -6   74.39   17.70
  13  -2   6   94.39   23.80
 -11  13   6   96.29   19.90
  13 -11  -6   65.69   20.00
   8   5   6  122.29   31.00
 -13   8   6  152.78   26.40
  -8  13   6  168.98   27.70
  13  -5   6  181.28   31.60
  -8  13   6  167.58   31.90
  13  -8  -6  161.28   27.80
  -5  13  -6  186.88   26.70
 -13   5   6   12.60   17.30
   5   8   6   20.60   19.30
  13  -5  -6   49.10   17.20
  -8  -5   6    6.30   16.30
  13  -8   6   39.50   20.70
  -5  13   6   29.00   22.20
  -8  13  -6   17.70   14.30
   2  11   6  237.58   34.20
 -13   2   6  216.88   32.50
  -2  13   6  162.78   31.10
  13 -11   6  242.08   38.60
 -11  -2   6  216.48   30.40
  -2  13   6  234.18   31.50
 -11  13  -6  159.68   26.80
 -14  13   6    6.50   15.20
  13 -14  -6    1.60   18.70
  13   1   6   28.80   20.60
   1  13  -6   16.00   16.60
  -1  14  -6    6.90   15.70
  14 -13  -6    5.70   17.00
  14  -1   6   10.70   19.10
 -13  14   6   19.80   15.70
   4  10  -6  345.07   37.70
 -14  10   6  355.16   38.40
  10   4   6  375.46   41.40
 -10  14   6  401.66   39.50
  -4  14  -6  394.96   38.70
  14 -10  -6  391.36   39.10
  14  -4   6  441.16   42.60
 -14   7   6  517.95   51.19
   7   7   6  531.35   54.29
  -7  14  -6  612.14   50.29
  -7  14   6  697.73   55.59
  14  -7  -6  668.33   52.39
  14  -7   6  575.54   54.89
 -14   4   6  405.96   45.50
   4  10   6  481.45   45.40
  -4  14   6  540.35   44.10
  -4  14   6  468.05   47.10
 -10  14  -6  408.66   40.40
 -10  -4   6  489.95   45.00
  14 -10   6  475.45   48.00
  14  -4  -6  367.76   41.00
   1  13   6   73.29   22.60
 -14   1   6   91.39   21.50
 -13  14  -6   77.99   17.80
 -13  -1   6   88.49   20.70
  -1  14   6  138.59   31.70
  14  -1  -6  129.99   32.00
   0  15  -6  122.39   27.40
  15 -15  -6  121.59   28.50
 -15  15   6   90.79   20.20
  15   0   6  149.59   28.30
 -15  12   6   68.39   17.50
   3  12  -6   68.99   19.10
  12 -15  -6   34.10   20.40
  12   3   6  132.89   30.00
 -12  15   6   63.49   17.80
  -3  15  -6   50.59   17.10
  15 -12  -6   57.69   18.60
  15  -3   6   66.99   22.90
 -15   9   6  201.88   29.40
   9   6   6  143.19   28.10
   6   9  -6  131.39   27.00
  -6  15  -6  169.28   25.00
  15  -9  -6  178.08   28.50
  -9  15   6  199.48   29.60
 -15   6   6  333.07   36.50
   6   9   6  322.37   39.00
  15  -6  -6  270.17   33.30
  -6  15   6  317.97   37.30
  -9  15  -6  242.68   32.30
  -6  15   6  295.87   35.30
  -9  -6   6  303.87   36.70
  15  -9   6  349.47   41.50
   3  12   6  277.67   35.60
 -15   3   6  257.77   34.50
  15 -12   6  310.77   38.40
  -3  15   6  240.48   33.90
  15  -3  -6  216.78   30.50
 -12  15  -6  184.78   30.10
 -12  -3   6  240.08   32.30
   0  15   6   99.59   24.10
 -15   0   6  106.59   22.10
 -16  14   6  161.88   26.30
  14 -16  -6  136.99   29.90
  14   2   6  169.58   32.20
   2  14  -6  137.99   26.60
 -14  16   6  141.29   29.30
  16  -2   6  162.88   34.10
  -2  16  -6  145.79   27.40
  16 -14  -6  139.39   27.60
 -16  11   6  206.08   32.30
   5  11  -6  283.97   32.10
  11 -16  -6  269.57   33.80
  11   5   6  265.97   33.50
  16  -5   6  330.67   39.80
  16 -11  -6  276.97   33.40
  -5  16  -6  259.27   30.30
 -11  16   6  282.07   33.60
   8   8   6   68.09   20.60
 -16   8   6   66.29   18.90
  -8  16   6   85.69   23.00
  -8  16   6   68.69   19.10
  -8  16  -6  108.49   24.40
  16  -8  -6  110.59   25.70
 -16   5   6  154.08   28.30
   5  11   6  153.38   31.60
  -5  16   6  133.59   29.20
  16 -11   6  232.18   36.70
 -11  -5   6  142.19   30.50
  16  -5  -6  149.19   27.10
  -5  16   6  100.79   26.40
 -11  16  -6  110.29   26.10
 -16   2   6   28.20   18.00
   2  14   6   33.10   20.50
  16  -2  -6   10.10   15.30
 -14  -2   6   27.40   18.40
  16 -14   6   43.50   31.70
  -2  16   6   38.00   21.50
  16   1   6   18.50   20.90
 -17  16   6    4.40   16.00
  16 -17  -6    5.20   16.80
   1  16  -6   19.80   16.60
  -1  17  -6    8.60   15.90
  17  -1   6   24.40   20.50
 -16  17   6  -14.50   16.70
  17 -16  -6  -14.30   15.70
 -17  13   6   66.49   18.80
   4  13  -6   91.59   20.10
  13   4   6   86.59   23.50
  13 -17  -6   98.79   22.90
  17 -13  -6  107.99   21.60
 -13  17   6   74.19   20.60
  -4  17  -6   97.29   20.10
  17  -4   6  142.49   33.70
 -17  10   6  363.26   37.50
   7  10  -6  335.57   39.40
  17  -7   6  427.66   45.80
  -7  17  -6  377.76   38.30
  17 -10  -6  386.16   38.80
 -10  17   6  396.26   40.50
   7  10   6  437.46   44.80
 -17   7   6  468.65   43.40
  -7  17   6  408.16   44.80
  -7  17   6  439.16   44.10
 -10  17  -6  358.06   39.60
  17 -10   6  450.25   51.29
  17  -7  -6  425.76   41.10
 -17   4   6   45.50   17.80
   4  13   6   42.90   19.60
 -13  17  -6    5.00   16.10
  17  -4  -6   64.09   16.50
  -4  17   6   45.00   19.20
  -4  17   6   44.30   21.70
 -13  -4   6   38.70   18.30
   1  16   6  -13.50   19.20
 -17   1   6    1.10   17.00
 -16  -1   6    5.20   17.70
  -1  17   6   -8.90   19.50
  18   0   6  184.18   35.20
 -18  18   6  116.29   28.00
  18 -18  -6  144.39   28.20
   0  18  -6  180.08   28.30
  15 -18  -6   36.20   17.60
   3  15  -6   57.69   17.00
  15   3   6   56.29   20.40
 -18  15   6   43.70   17.40
  18  -3   6  102.29   25.90
  -3  18  -6   57.49   18.60
 -15  18   6   68.79   20.10
  18 -15  -6   64.89   19.30
  12 -18  -6   15.00   17.30
 -18  12   6   12.70   15.70
   6  12  -6   14.10   16.40
  12   6   6   24.60   19.80
 -12  18   6   25.90   18.20
  -6  18  -6   20.80   17.20
  18  -6   6   60.79   24.80
  18 -12  -6   34.90   18.60
 -18   9   6  114.49   25.70
   9   9  -6  122.79   27.60
   9   9   6   85.09   21.80
  -9  18  -6   69.09   18.30
  18  -9  -6  115.09   25.60
  -9  18   6   98.09   21.70
 -18   6   6   13.80   18.40
   6  12   6   -1.70   20.30
  -6  18   6    0.40   21.60
  -6  18   6    4.10   18.70
 -12  -6   6   -1.20   16.90
  18  -6  -6   25.70   17.30
 -12  18  -6  -10.90   15.80
 -18   3   6   -0.50   16.20
   3  15   6   15.80   21.10
  -3  18   6    3.30   20.70
 -15  -3   6    1.70   17.70
  18 -15   6   47.80   27.50
   0  18   6   44.00   23.60
 -18   0   6   26.80   17.70
  17 -19  -6   91.39   21.40
   2  17  -6  130.39   27.80
  17   2   6  133.49   32.10
 -19  17   6  133.99   28.90
  -2  19  -6  135.49   27.80
 -17  19   6   79.09   20.80
  19  -2   6  153.88   33.60
  19 -17  -6  134.69   27.80
  14 -19  -6  142.59   30.00
  14   5   6  159.18   33.20
   5  14  -6  149.59   28.30
 -19  14   6  121.49   25.80
  19  -5   6  143.29   36.30
  -5  19  -6  151.18   25.40
 -14  19   6  130.59   31.50
  19 -14  -6  160.48   25.10
   8  11  -6   43.50   18.00
  11 -19  -6   24.50   18.50
 -19  11   6   29.90   16.30
  11   8   6   37.20   19.60
  19 -11  -6   31.60   17.50
  -8  19  -6   44.40   17.70
 -11  19   6   70.39   20.90
 -19   8   6  120.29   26.50
   8  11   6   95.89   23.40
  19 -11   6  191.48   39.70
  -8  19   6  104.29   24.80
  19  -8  -6   81.69   19.10
 -11  19  -6   75.79   19.10
 -19   5   6   55.19   19.00
   5  14   6   36.30   20.60
  -5  19   6   23.50   21.90
  19  -5  -6   96.19   24.00
 -14  -5   6   15.70   17.70
  19 -14   6   90.19   28.80
   2  17   6    2.50   21.60
 -19   2   6    3.50   18.20
 -17  -2   6  -10.40   16.90
  -2  19   6  -14.80   21.70
 -20  16   6   43.70   17.90
  13 -20  -6   35.00   19.50
  13   7   6   58.49   22.80
   7  13  -6   43.00   17.00
 -20  13   6   43.90   17.70
 -13  20   6   34.50   19.50
  20 -13  -6   52.99   17.90
  -7  20  -6   47.50   17.90
  10 -20  -6  136.39   29.40
 -20  10   6  182.68   27.70
  10  10   6  186.28   34.00
  10  10  -6  188.88   27.40
 -10  20  -6  113.19   22.70
 -10  20   6  217.18   35.00
  20 -10  -6  155.78   27.70
 -20   7   6   26.20   18.30
   7  13   6   11.10   21.80
  20  -7  -6  -10.10   17.00
  20 -13   6   74.19   28.90
  -7  20   6    9.70   21.00
 -20   4   6   13.70   16.80
 -16  -4   6   12.00   18.10
  12   9   6   18.40   21.20
 -21  12   6   28.90   17.90
   9  12  -6   23.90   17.40
  12 -21  -6   19.70   18.40
 -12  21   6   50.79   21.60
  21 -12  -6   -5.30   16.80
  -9  21  -6  -17.10   16.60
   9  12   6    5.60   22.40
 -21   9   6    0.80   16.80
  12   9  -6   11.00   17.50
  -9  21   6   35.80   22.40
  21  -9  -6  -17.40   16.70
  -1   1   7   19.20   16.00
   0  -1   7   -1.00   15.60
  -1   1   7    6.40   19.50
   0  -1   7  -12.10   20.60
   1   0   7   43.50   19.00
   1   0   7   -5.60   26.10
  -2   0   7  190.38   28.90
   0   2   7  215.98   32.20
  -2   0   7  104.89   25.30
   2  -2   7  138.29   32.90
   0   2   7  169.08   39.80
  -3   2   7  -32.80   20.30
  -3   2   7   -4.30   15.30
   2   1   7  -12.40   19.50
  -1  -2   7  -15.90   16.10
  -2   3   7    6.80   15.40
   3  -1   7   26.40   19.30
  -2   3   7  -24.70   20.20
   4   0   7  140.09   32.90
   0  -4   7  104.69   41.60
  -4   4   7  182.28   27.60
  -4   4   7  126.99   24.70
   1   3   7  145.09   28.30
   3  -4   7  149.19   25.40
   1   3   7  142.69   32.60
  -4   1   7  144.29   26.80
   4  -3   7  110.79   23.90
  -3  -1   7  156.78   28.50
  -1   4   7  125.49   25.30
  -1   4   7  155.98   27.80
   2  -5   7   92.09   41.10
   3   2   7  121.59   32.00
  -5   3   7  151.88   27.60
  -2   5  -7  207.48   28.30
  -3   5   7  150.78   35.10
  -3   5   7  167.78   28.20
  -2  -3   7  146.49   29.50
   5  -2   7  150.78   32.20
   0   5   7  202.18   33.50
  -5   5  -7  235.28   27.90
   0   5   7  230.38   31.20
  -5   0   7  184.68   30.60
   5  -5   7  179.88   35.40
   5   0  -7  179.28   33.70
   5   1   7   91.79   22.70
  -6   5   7   69.09   18.20
   6  -1   7   69.89   24.40
  -5   6   7  121.19   27.10
  -5   6   7   49.70   21.60
  -6   2   7   10.20   15.80
   4   2  -7   38.90   18.80
   4  -6   7  -50.79   32.80
   2   4   7   -1.10   20.40
  -4  -2   7  -14.90   15.00
  -4   6  -7   32.60   16.30
   6  -4   7   39.60   19.60
  -2   6   7    0.90   20.70
  -2   6   7   -2.80   14.90
   6  -2  -7   -0.90   19.60
   0   7  -7  766.22   56.69
  -7   7   7  673.63   56.69
   7   0   7  524.75   57.99
   4   3   7  376.46   44.00
  -7   4   7  400.46   42.20
  -4   7   7  443.36   42.30
  -4   7   7  460.95   47.20
  -3  -4   7  392.06   43.20
   7  -4  -7  418.76   45.70
   7  -3   7  411.66   47.00
  -3   7  -7  498.45   41.90
   6   1  -7   21.10   17.90
  -7   1   7   34.80   17.70
   1   6   7   43.10   23.20
   6  -7   7    2.60   27.30
  -1   7   7   30.60   23.70
  -1   7   7   38.60   20.50
   7  -1  -7   17.50   19.10
  -6  -1   7   31.30   16.50
   7  -6   7   50.29   20.90
   6   2   7  192.28   35.40
  -8   6   7  238.58   33.20
  -6   8   7  241.48   33.00
   8  -2   7  252.07   38.40
  -2   8  -7  315.27   32.80
   8  -6  -7  232.78   36.30
  -6   8   7  204.18   35.70
   3   5   7   64.49   23.10
  -8   3   7   60.99   18.60
  -5   8  -7  118.89   25.60
  -3   8   7  140.19   27.40
  -3   8   7   65.29   24.80
   8  -5   7   75.69   23.60
  -5  -3   7   75.29   20.00
   8  -3  -7   43.20   20.50
  -8   0   7   79.09   20.10
   0   8   7   93.39   24.30
   8   0  -7  102.29   25.30
   8   1   7  125.59   27.60
   1   8  -7  119.99   28.60
  -9   8   7  119.79   28.20
  -8   9   7  134.59   27.10
   9  -8  -7   94.89   24.00
   9  -1   7  129.39   32.90
  -1   9  -7  116.19   28.10
   5   4   7   73.99   21.50
  -9   5   7   74.39   19.20
   9  -4   7   69.79   24.10
  -4  -5   7   48.50   18.30
  -5   9   7   54.29   23.20
  -4   9  -7  127.49   25.60
   9  -5  -7   47.80   20.80
  -9   2   7   97.49   20.10
   2   7   7   97.89   24.40
   9  -2  -7   46.60   18.80
   9  -7   7   82.09   25.20
  -7  -2   7   82.29   19.20
  -2   9   7   88.09   23.00
  10 -10  -7  242.38   36.50
 -10  10   7  297.67   34.50
   0  10  -7  311.87   34.90
  10   0   7  293.27   39.80
 -10   7   7  403.16   43.00
   7   3   7  347.77   45.50
   3   7  -7  440.06   42.60
  10  -3   7  443.36   46.50
  -7  10   7  443.26   42.70
  -3  10  -7  462.35   42.00
  10  -7  -7  442.56   44.40
 -10   4   7   62.09   19.20
   4   6   7   79.69   23.60
  10  -4  -7   72.69   20.90
  -4  10   7   82.19   25.00
  10  -6   7   67.69   25.40
  -6  -4   7   63.79   19.40
  -6  10  -7  131.19   24.80
   1   9   7    6.00   20.40
 -10   1   7   15.70   17.90
  -9  -1   7   16.50   17.60
  -9  10  -7   32.00   14.60
  10  -1  -7   42.70   17.00
  -1  10   7   16.60   20.40
   9 -11  -7  183.18   34.60
   2   9  -7  205.68   30.40
   9   2   7  137.99   32.40
 -11   9   7  159.88   27.30
  -2  11  -7  210.48   28.80
  11  -2   7  167.98   32.50
  11  -9  -7  159.48   32.40
  -9  11   7  118.69   23.60
   6   5   7   75.39   23.60
 -11   6   7   56.69   19.30
  -5  11  -7  109.59   25.20
  11  -5   7   79.69   24.40
  11  -6  -7   81.59   20.70
  -6  11   7   51.49   22.80
  -6  11   7  134.59   28.10
   3   8   7  169.18   33.20
 -11   3   7  199.28   31.20
  11  -3  -7  136.09   30.20
  11  -8   7  271.97   38.60
  -3  11   7  201.68   35.30
  -8  11  -7  237.68   28.30
  -8  -3   7  177.58   31.40
 -11   0   7  346.07   37.00
   0  11   7  277.97   39.20
   1  11  -7   25.10   18.60
 -12  11   7    7.70   16.50
  11 -12  -7   11.30   21.10
  11   1   7   26.40   20.90
  -1  12  -7   29.00   17.50
 -11  12   7   36.90   17.10
  12  -1   7   34.20   22.30
  12 -11  -7   12.20   21.90
   8   4   7  149.39   33.10
   4   8  -7  176.08   29.80
 -12   8   7  143.29   28.70
  -8  12   7  152.18   28.30
  -4  12  -7  148.09   28.00
  12  -4   7  172.88   31.30
  12  -8  -7  136.79   31.20
 -12   5   7  159.68   29.40
   5   7   7  174.78   31.40
  -7  12  -7  196.18   28.50
  12  -7   7  173.48   38.80
  -5  12   7  166.08   36.00
  -7  -5   7  142.59   29.20
  12  -5  -7  200.38   30.60
  -5  12   7  196.78   31.40
   2  10   7  244.88   35.60
 -12   2   7  208.78   30.10
 -10  -2   7  181.08   32.20
  -2  12   7  209.78   35.70
 -10  12  -7  168.88   28.40
  12  -2  -7  259.47   30.40
  13 -13  -7  101.99   24.50
   0  13  -7   82.59   19.40
  13   0   7   73.29   25.50
 -13  13   7  120.69   27.50
   3  10  -7  147.29   29.30
  10   3   7   82.19   24.40
 -13  10   7  119.39   25.50
  10 -13  -7   92.89   24.20
  13  -3   7  176.58   33.40
  -3  13  -7  124.09   27.30
  13 -10  -7  133.59   25.20
 -10  13   7  129.49   28.60
   7   6   7   87.09   24.60
 -13   7   7   82.69   20.00
  -7  13   7   50.79   18.50
  -7  13   7   40.20   22.50
  13  -6   7   81.99   24.70
  13  -7  -7   98.69   21.80
  -6  13  -7   60.69   18.10
   4   9   7   24.60   21.20
 -13   4   7   20.80   16.70
  -4  13   7   14.80   22.90
  -9  -4   7   12.00   17.00
  -9  13  -7   23.30   15.70
  13  -9   7   -7.60   25.20
  13  -4  -7   20.40   19.00
  -4  13   7   22.90   18.40
   1  12   7   44.70   21.20
 -13   1   7   42.20   18.90
  -1  13   7   55.69   22.70
 -12  -1   7   45.00   18.10
  12   2   7   56.39   23.60
   2  12  -7   46.10   19.10
 -14  12   7   41.90   17.80
  12 -14  -7   39.90   23.30
  -2  14  -7   57.39   19.40
  14  -2   7   85.39   24.10
 -12  14   7   60.39   18.90
  14 -12  -7   28.50   19.70
   5   9  -7   53.79   19.70
   9   5   7   31.00   24.40
 -14   9   7   17.90   17.10
  -9  14   7   47.40   17.00
  -5  14  -7   40.30   17.40
  14  -5   7   32.80   25.20
  14  -9  -7   38.80   20.40
   6   8   7   54.69   20.60
 -14   6   7   42.70   18.10
  14  -6  -7   79.49   21.30
  -6  14   7   64.89   24.20
  -8  14  -7   54.29   17.80
  14  -8   7  101.39   27.00
   3  11   7  210.88   35.40
 -14   3   7  290.37   34.50
 -11  14  -7  174.78   31.10
  14  -3  -7  264.87   32.70
  -3  14   7  296.17   38.60
 -11  -3   7  209.78   32.30
   0  14   7  428.26   46.00
  11   4   7   15.10   22.90
 -15  11   7    5.50   16.30
  11 -15  -7   27.90   20.50
   4  11  -7    4.90   17.30
  15 -11  -7  -13.60   18.00
  15  -4   7   16.80   25.00
 -11  15   7   27.70   17.60
  -4  15  -7    2.60   17.30
   7   8  -7   62.09   18.90
   8   7   7   53.69   21.10
 -15   8   7   44.40   19.50
  15  -8  -7   58.39   20.30
  -7  15  -7   74.29   19.50
  15  -7   7   53.29   26.10
 -15   5   7   80.09   19.30
   5  10   7   84.09   22.40
  15  -5  -7  103.89   21.70
 -10  -5   7   77.89   20.20
 -10  15  -7   94.59   19.80
  -5  15   7   95.79   25.60
  10 -16  -7   14.20   21.90
 -16  10   7   22.30   18.10
  16 -10  -7   17.90   19.40
 -10  16   7   13.30   19.50
 -16   7   7  124.49   27.80
   7   9   7  163.58   32.40
  16  -7  -7  200.58   30.60
  16  -9   7  201.28   43.00
  -7  16   7  135.39   33.20
  -9  16  -7  132.79   28.00
  -7  16   7  183.88   33.80
   0   1   8   49.30   23.30
   1  -1   8   17.50   22.40
  -2   2   8  -14.50   17.00
  -3   1   8    3.90   18.60
  -1   3   8   48.70   23.70
   3   1   8   85.59   22.90
  -4   3   8   33.90   19.00
   4  -1   8   13.20   22.80
  -3   4   8   -3.10   23.50
  -3   4   8   29.40   18.10
   0   4   8  259.47   40.90
  -4   0   8  298.97   36.50
   5   0   8    6.50   23.80
  -5   5   8   23.50   18.10
  -5   2   8   52.89   19.00
   2   3   8   82.49   24.90
  -2   5   8   56.89   20.70
  -3  -2   8   33.70   21.10
  -2   5   8   34.00   25.60
   5  -2  -8   60.59   25.20
   4   2   8    9.40   24.20
  -6   4   8   35.90   18.30
   6  -4  -8   41.80   25.00
  -4   6   8   59.39   19.10
  -4   6   8   -7.80   24.70
   6  -2   8   95.59   24.60
  -6   1   8  123.59   29.30
   1   5   8  107.99   27.20
  -5  -1   8  132.89   24.10
  -1   6   8  111.99   27.80
  -7   3   8  306.97   36.90
  -3   7   8  319.37   38.70
   0   0   0    0.00    0.00

_computing_structure_solution     'SHELXT 2014/5 (Sheldrick, 2014)'
;
_shelx_hkl_checksum              93690
_olex2_submission_special_instructions 'No special instructions were received'
loop_
_space_group_symop_id
_space_group_symop_operation_xyz
1 'x, y, z'
2 '-y, x-y, z'
3 '-x+y, -x, z'
4 '-y, -x, z'
5 '-x+y, y, z'
6 'x, x-y, z'
7 'x+2/3, y+1/3, z+1/3'
8 '-y+2/3, x-y+1/3, z+1/3'
9 '-x+y+2/3, -x+1/3, z+1/3'
10 '-y+2/3, -x+1/3, z+1/3'
11 '-x+y+2/3, y+1/3, z+1/3'
12 'x+2/3, x-y+1/3, z+1/3'
13 'x+1/3, y+2/3, z+2/3'
14 '-y+1/3, x-y+2/3, z+2/3'
15 '-x+y+1/3, -x+2/3, z+2/3'
16 '-y+1/3, -x+2/3, z+2/3'
17 '-x+y+1/3, y+2/3, z+2/3'
18 'x+1/3, x-y+2/3, z+2/3'
loop_
_atom_site_label
_atom_site_type_symbol
_atom_site_fract_x
_atom_site_fract_y
_atom_site_fract_z
_atom_site_U_iso_or_equiv
_atom_site_adp_type
_atom_site_occupancy
_atom_site_site_symmetry_order
_atom_site_calc_flag
_atom_site_refinement_flags_posn
_atom_site_refinement_flags_adp
_atom_site_refinement_flags_occupancy
Co1 Co 0.65812(5) 0.61731(5) 0.4739(2) 0.0282(3) Uani 1 1 d . . .
O1 O 0.5882(2) 0.5947(3) 0.6621(9) 0.0313(13) Uani 1 1 d . . .
O3 O 0.6143(3) 0.5617(3) 1.2531(8) 0.0336(14) Uani 1 1 d . . .
O2 O 0.6453(3) 0.6293(2) 1.0154(7) 0.0293(13) Uani 1 1 d . . .
C2 C 0.5513(4) 0.5441(4) 0.7562(12) 0.0320(18) Uani 1 1 d . . .
C5 C 0.6098(4) 0.5774(4) 1.0842(11) 0.0284(18) Uani 1 1 d . . .
C1 C 0.5004(3) 0.4996(3) 0.660(2) 0.036(3) Uani 1 2 d S T P
H1 H 0.495961 0.504038 0.523307 0.044 Uiso 1 2 calc RS T P
C3 C 0.5605(4) 0.5340(4) 0.9559(12) 0.0315(19) Uani 1 1 d . . .
C4 C 0.5178(3) 0.4822(3) 1.0494(18) 0.036(3) Uani 1 2 d S T P
H4 H 0.524352 0.475647 1.182019 0.043 Uiso 1 2 calc RS T P
C6 C 0.6887(8) 0.5504(6) 0.683(2) 0.096(5) Uani 1 1 d D U .
C7 C 0.6634(12) 0.5167(9) 0.528(2) 0.136(8) Uani 1 1 d D U .
loop_
_atom_site_aniso_label
_atom_site_aniso_U_11
_atom_site_aniso_U_22
_atom_site_aniso_U_33
_atom_site_aniso_U_23
_atom_site_aniso_U_13
_atom_site_aniso_U_12
Co1 0.0318(6) 0.0318(6) 0.0194(5) -0.0009(5) -0.0008(5) 0.0147(5)
O1 0.029(3) 0.035(3) 0.025(3) 0.009(2) 0.003(2) 0.012(3)
O3 0.039(3) 0.034(3) 0.018(3) -0.001(2) -0.007(2) 0.011(3)
O2 0.039(3) 0.028(3) 0.019(3) 0.003(2) -0.004(2) 0.015(3)
C2 0.036(5) 0.034(4) 0.026(4) 0.001(3) -0.001(3) 0.017(4)
C5 0.035(4) 0.029(4) 0.021(4) -0.003(3) -0.004(3) 0.017(4)
C1 0.039(5) 0.039(5) 0.027(6) 0.001(3) -0.001(3) 0.016(6)
C3 0.035(4) 0.035(4) 0.022(4) 0.000(3) 0.000(3) 0.016(4)
C4 0.042(5) 0.042(5) 0.023(6) 0.003(3) -0.003(3) 0.021(6)
C6 0.097(11) 0.060(8) 0.123(13) -0.014(8) 0.038(9) 0.033(8)
C7 0.24(2) 0.157(18) 0.087(14) -0.006(10) -0.035(14) 0.15(2)
loop_
_atom_type_symbol
_atom_type_description
_atom_type_scat_dispersion_real
_atom_type_scat_dispersion_imag
_atom_type_scat_source
C C 0.0060 0.0030
'ANOMDisVal Program in PLATON Spek, A. L. J. Appl. Crystallogr. 2003, 36, 7-13'
H H 0.0000 0.0000
'ANOMDisVal Program in PLATON Spek, A. L. J. Appl. Crystallogr. 2003, 36, 7-13'
Co Co 0.3080 1.4420
'ANOMDisVal Program in PLATON Spek, A. L. J. Appl. Crystallogr. 2003, 36, 7-13'
O O 0.0180 0.0100
'ANOMDisVal Program in PLATON Spek, A. L. J. Appl. Crystallogr. 2003, 36, 7-13'
loop_
_geom_angle_atom_site_label_1
_geom_angle_atom_site_label_2
_geom_angle_atom_site_label_3
_geom_angle
_geom_angle_site_symmetry_1
_geom_angle_site_symmetry_3
O1 Co1 O1 164.9(3) . 14_654
O1 Co1 O2 82.2(2) . 14_654
O1 Co1 O2 83.1(2) 14_654 14_654
O1 Co1 O2 92.9(3) . 9_564
O1 Co1 O2 81.1(2) 14_654 9_564
O3 Co1 O1 99.6(3) 1_554 .
O3 Co1 O1 94.5(3) 1_554 14_654
O3 Co1 O2 92.9(2) 1_554 9_564
O3 Co1 O2 173.4(2) 1_554 14_654
O2 Co1 O2 80.57(6) 14_654 9_564
Co1 O1 Co1 96.4(2) . 9_565
C2 O1 Co1 120.2(6) . 9_565
C2 O1 Co1 132.5(6) . .
C5 O3 Co1 125.2(5) . 1_556
Co1 O2 Co1 94.1(2) 9_565 14_655
C5 O2 Co1 132.7(5) . 14_655
C5 O2 Co1 127.0(5) . 9_565
O1 C2 C1 119.4(8) . .
O1 C2 C3 122.3(7) . .
C1 C2 C3 118.2(8) . .
O3 C5 O2 123.2(7) . .
O3 C5 C3 119.0(7) . .
O2 C5 C3 117.9(7) . .
C2 C1 C2 122.5(12) 4_665 .
C2 C1 H1 118.8 4_665 .
C2 C1 H1 118.8 . .
C2 C3 C5 125.6(7) . .
C4 C3 C2 119.2(8) . .
C4 C3 C5 114.8(7) . .
C3 C4 C3 122.4(11) 4_665 .
C3 C4 H4 118.8 . .
C3 C4 H4 118.8 4_665 .
loop_
_geom_bond_atom_site_label_1
_geom_bond_atom_site_label_2
_geom_bond_distance
_geom_bond_site_symmetry_2
Co1 O1 2.051(6) 14_654
Co1 O1 2.045(6) .
Co1 O3 1.994(5) 1_554
Co1 O2 2.064(6) 14_654
Co1 O2 2.105(5) 9_564
O1 C2 1.332(10) .
O3 C5 1.245(9) .
O2 C5 1.273(10) .
C2 C1 1.401(11) .
C2 C3 1.428(11) .
C5 C3 1.485(11) .
C1 H1 0.9500 .
C3 C4 1.390(10) .
C4 H4 0.9500 .
C6 C7 1.312(7) .
loop_
_geom_torsion_atom_site_label_1
_geom_torsion_atom_site_label_2
_geom_torsion_atom_site_label_3
_geom_torsion_atom_site_label_4
_geom_torsion
_geom_torsion_site_symmetry_1
_geom_torsion_site_symmetry_4
Co1 O1 C2 C1 -84.3(11) . .
Co1 O1 C2 C1 140.8(8) 9_565 .
Co1 O1 C2 C3 97.9(9) . .
Co1 O1 C2 C3 -37.0(11) 9_565 .
Co1 O3 C5 O2 19.9(12) 1_556 .
Co1 O3 C5 C3 -159.5(6) 1_556 .
Co1 O2 C5 O3 -150.4(6) 9_565 .
Co1 O2 C5 O3 -5.4(13) 14_655 .
Co1 O2 C5 C3 29.0(10) 9_565 .
Co1 O2 C5 C3 174.1(5) 14_655 .
O1 C2 C1 C2 -171.8(8) . 4_665
O1 C2 C3 C5 1.4(14) . .
O1 C2 C3 C4 175.1(9) . .
O3 C5 C3 C2 -176.6(8) . .
O3 C5 C3 C4 9.6(12) . .
O2 C5 C3 C2 4.0(13) . .
O2 C5 C3 C4 -169.9(9) . .
C2 C3 C4 C3 -0.3(18) . 4_665
C5 C3 C4 C3 174.0(8) . 4_665
C1 C2 C3 C5 -176.4(9) . .
C1 C2 C3 C4 -2.8(14) . .
C3 C2 C1 C2 6.1(18) . 4_665
