#------------------------------------------------------------------------------
#$Date: 2017-10-20 01:39:40 +0300 (Fri, 20 Oct 2017) $
#$Revision: 202151 $
#$URL: file:///home/coder/svn-repositories/cod/cif/4/12/66/4126610.cif $
#------------------------------------------------------------------------------
#
# This file is available in the Crystallography Open Database (COD),
# http://www.crystallography.net/
#
# All data on this site have been placed in the public domain by the
# contributors.
#
data_4126610
loop_
_publ_author_name
'Bachman, Jonathan E.'
'Kapelewski, Matthew T.'
'Reed, Douglas A.'
'Gonzalez, Miguel I.'
'Long, Jeffrey R.'
_publ_section_title
;
 M2(m-dobdc) (M = Mn, Fe, Co, Ni) Metal-Organic Frameworks as
 Highly-Selective, High-Capacity Adsorbents for Olefin/Paraffin
 Separations.
;
_journal_name_full               'Journal of the American Chemical Society'
_journal_paper_doi               10.1021/jacs.7b06397
_journal_year                    2017
_chemical_formula_moiety         'Co2 (C8 H2 O6), 1.89(C2 H4)'
_chemical_formula_sum            'C11.78 H9.57 Co2 O6'
_chemical_formula_weight         365.03
_space_group_crystal_system      trigonal
_space_group_IT_number           148
_space_group_name_Hall           '-R 3'
_space_group_name_H-M_alt        'R -3'
_symmetry_space_group_name_Hall  '-R 3'
_symmetry_space_group_name_H-M   'R -3 :H'
_atom_sites_solution_hydrogens   mixed
_atom_sites_solution_primary     direct
_atom_sites_solution_secondary   difmap
_audit_creation_date             2017-05-15
_audit_creation_method
;
Olex2 1.2
(compiled 2017.03.28 svn.r3405 for OlexSys, GUI svn.r5335)
;
_cell_angle_alpha                90
_cell_angle_beta                 90
_cell_angle_gamma                120
_cell_formula_units_Z            9
_cell_length_a                   25.720(7)
_cell_length_b                   25.720(7)
_cell_length_c                   6.853(2)
_cell_measurement_reflns_used    4864
_cell_measurement_temperature    100(2)
_cell_measurement_theta_max      26.616
_cell_measurement_theta_min      2.659
_cell_volume                     3926.0(19)
_computing_cell_refinement       'SAINT v8.34A (Bruker, 2013)'
_computing_data_collection       'Bruker APEX3'
_computing_data_reduction        'SAINT v8.34A (Bruker, 2013)'
_computing_molecular_graphics    'Olex2 (Dolomanov et al., 2009)'
_computing_publication_material  'Olex2 (Dolomanov et al., 2009)'
_computing_structure_refinement  'ShelXL (Sheldrick, 2015)'
_computing_structure_solution    'ShelXS (Sheldrick, 2008)'
_diffrn_ambient_temperature      100(2)
_diffrn_detector_area_resol_mean 10.42
_diffrn_measured_fraction_theta_full 0.983
_diffrn_measured_fraction_theta_max 0.966
_diffrn_measurement_device_type  'Bruker D8 with PHOTON100 CMOS detector'
_diffrn_measurement_method       '\f and \w shutterless scans'
_diffrn_radiation_monochromator  'silicon 111'
_diffrn_radiation_type           synchrotron
_diffrn_radiation_wavelength     0.6888
_diffrn_reflns_av_R_equivalents  0.0849
_diffrn_reflns_av_unetI/netI     0.0811
_diffrn_reflns_Laue_measured_fraction_full 0.983
_diffrn_reflns_Laue_measured_fraction_max 0.966
_diffrn_reflns_limit_h_max       15
_diffrn_reflns_limit_h_min       -33
_diffrn_reflns_limit_k_max       33
_diffrn_reflns_limit_k_min       0
_diffrn_reflns_limit_l_max       8
_diffrn_reflns_limit_l_min       0
_diffrn_reflns_number            2092
_diffrn_reflns_point_group_measured_fraction_full 0.983
_diffrn_reflns_point_group_measured_fraction_max 0.966
_diffrn_reflns_theta_full        24.411
_diffrn_reflns_theta_max         26.713
_diffrn_reflns_theta_min         2.659
_diffrn_source                   'Advanced Light Source station 11.3.1'
_diffrn_standards_number         0
_exptl_absorpt_coefficient_mu    1.748
_exptl_absorpt_correction_T_max  0.933
_exptl_absorpt_correction_T_min  0.525
_exptl_absorpt_correction_type   multi-scan
_exptl_absorpt_process_details
;
 TWINABS-2012/1 (Bruker,2012) was used for absorption correction.
 
For component 1:
 wR2(int) was 0.1096 before and 0.0766 after correction.
 The Ratio of minimum to maximum transmission not present.
 The \l/2 correction factor is Not present
 
For component 2:
 wR2(int) was 0.1155 before and 0.0778 after correction.
 The Ratio of minimum to maximum transmission is 0.56.
 The \l/2 correction factor is Not present

Final HKLF 4 output contains 24025 reflections, Rint = 0.0849
 (15116 with I > 3sig(I), Rint = 0.0728)
;
_exptl_crystal_colour            violet
_exptl_crystal_colour_primary    violet
_exptl_crystal_density_diffrn    1.390
_exptl_crystal_density_method    'not measured'
_exptl_crystal_description       needle
_exptl_crystal_F_000             1640
_exptl_crystal_size_max          0.1
_exptl_crystal_size_mid          0.04
_exptl_crystal_size_min          0.04
_refine_diff_density_max         0.827
_refine_diff_density_min         -0.845
_refine_diff_density_rms         0.162
_refine_ls_extinction_method     none
_refine_ls_goodness_of_fit_ref   1.101
_refine_ls_hydrogen_treatment    mixed
_refine_ls_matrix_type           full
_refine_ls_number_parameters     104
_refine_ls_number_reflns         2092
_refine_ls_number_restraints     12
_refine_ls_restrained_S_all      1.103
_refine_ls_R_factor_all          0.0827
_refine_ls_R_factor_gt           0.0613
_refine_ls_shift/su_max          0.001
_refine_ls_shift/su_mean         0.000
_refine_ls_structure_factor_coef Fsqd
_refine_ls_weighting_details
'w=1/[\s^2^(Fo^2^)+51.6791P] where P=(Fo^2^+2Fc^2^)/3'
_refine_ls_weighting_scheme      calc
_refine_ls_wR_factor_gt          0.1113
_refine_ls_wR_factor_ref         0.1204
_reflns_Friedel_coverage         0.000
_reflns_number_gt                1733
_reflns_number_total             2092
_reflns_threshold_expression     'I > 2\s(I)'
_cod_data_source_file            ja7b06397_si_003.cif
_cod_data_source_block           twin4
_cod_original_cell_volume        3926(2)
_cod_database_code               4126610
_shelx_shelxl_version_number     2016/6
_shelx_space_group_comment
;
The symmetry employed for this shelxl refinement is uniquely defined
by the following loop, which should always be used as a source of
symmetry information in preference to the above space-group names.
They are only intended as comments.
;
_shelx_estimated_absorpt_t_max   0.933
_shelx_estimated_absorpt_t_min   0.845
_olex2_refinement_description
;
1. Twinned data refinement
 Scales: 0.570(2)
 0.430(2)
2. Fixed Uiso
 At 1.2 times of:
  All C(H) groups
 At 1.5 times of:
  All C(H,H) groups
3. Restrained distances
 C5-C6
 1.3305 with sigma of 0.005
 C6-H6A = C6-H6B = C5-H5A = C5-H5B
 0.95 with sigma of 0.02
 H6B-C5 = H6A-C5 = C6-H5B = C6-H5A
 2.081 with sigma of 0.02
4. Restrained planarity
 C5, H5A, H5B, C6, H6A, H6B
 with sigma of 0.1
5. Others
 Fixed Sof: C5(0.946) H5A(0.946) H5B(0.946) C6(0.946) H6A(0.946) H6B(0.946)
6.a Aromatic/amide H refined with riding coordinates:
 C3(H3)
;
_shelx_res_file
;
TITL twin4 in R-3 #148
    twin4.res
    created by SHELXL-2016/6 at 16:31:45 on 15-May-2017
REM reset to R-3 #148
CELL 0.6888 25.7202 25.7202 6.8525 90 90 120
ZERR 9 0.0072 0.0072 0.002 0 0 0
LATT 3
SYMM -Y,+X-Y,+Z
SYMM +Y-X,-X,+Z
SFAC C H Co O
DISP C 0.003 0.002 10.6
DISP Co 0.348 0.924 3658
DISP H -0 0 0.7
DISP O 0.01 0.006 29.6
UNIT 106.06 86.11 18 54
DFIX 1.3305 0.005 C5 C6
DFIX 0.95 C6 H6a C6 H6b C5 H5a C5 H5b
DFIX 2.081 H6b C5 H6a C5 C6 H5b C6 H5a
FLAT C5 H5a H5b C6 H6a H6b

L.S. 4 0 63
PLAN  20
SIZE 0.04 0.04 0.1
TEMP -173(2)
BOND
MORE -1
BOND $H
CONF
fmap 2
acta
REM <olex2.extras>
REM <HklSrc "%./twin5.hkl">
REM </olex2.extras>

WGHT    0.000000   51.679096
BASF   0.42983
FVAR       0.21914
CO1   3    0.699356    0.717403    0.188473    11.00000    0.01469    0.01231 =
         0.00966   -0.00040   -0.00047    0.00736
O1    4    0.645424    0.726447   -0.002426    11.00000    0.01907    0.00900 =
         0.01238    0.00154   -0.00213    0.00670
O2    4    0.628547    0.638353    0.311656    11.00000    0.01067    0.01532 =
         0.00905   -0.00100   -0.00049    0.00371
O3    4    0.697262    0.769707    0.404935    11.00000    0.01999    0.01566 =
         0.01344    0.00172    0.00034    0.00947
C1    1    0.555066    0.545271    0.578769    11.00000    0.01178    0.01772 =
         0.01572    0.00041    0.00074    0.00625
C2    1    0.540948    0.547708    0.381281    11.00000    0.01864    0.01643 =
         0.01556    0.00324    0.00129    0.00713
C3    1    0.486154    0.502389    0.308845    11.00000    0.01753    0.01662 =
         0.01453    0.00070    0.00033    0.00619
AFIX  43
H3    2    0.476659    0.504315    0.176031    11.00000   -1.20000
AFIX   0
C4    1    0.579672    0.595901    0.244798    11.00000    0.01331    0.01587 =
         0.01425   -0.00135   -0.00086    0.00780

C5    1    0.507707    0.636431    0.800528    10.94600    0.03237    0.06407 =
         0.04504    0.00818   -0.00242    0.03340
H5A   2    0.506699    0.651950    0.929991    10.94600   -1.50000
H5B   2    0.484054    0.593161    0.813143    10.94600   -1.50000
C6    1    0.536290    0.667913    0.645282    10.94600    0.02605    0.03519 =
         0.04486   -0.00330    0.00348    0.01635
H6A   2    0.556933    0.711632    0.631432    10.94600   -1.50000
H6B   2    0.537124    0.653052    0.515835    10.94600   -1.50000
HKLF 5




REM  twin4 in R-3 #148
REM R1 =  0.0613 for    1733 Fo > 4sig(Fo)  and  0.0827 for all    2092 data
REM    104 parameters refined using     12 restraints

END

WGHT      0.0000     51.6572

REM Highest difference peak  0.827,  deepest hole -0.845,  1-sigma level  0.162
Q1    1   0.6830  0.7568  0.2737  11.00000  0.05    0.83
Q2    1   0.5360  0.6424  0.7074  11.00000  0.05    0.79
Q3    1   0.6473  0.7089  0.1059  11.00000  0.05    0.73
Q4    1   0.6011  0.6895 -0.0932  11.00000  0.05    0.67
Q5    1   0.7321  0.7743  0.1169  11.00000  0.05    0.66
Q6    1   0.3333  0.6667  0.9225  10.33333  0.05    0.62
Q7    1   0.4705  0.6787  1.0486  11.00000  0.05    0.60
Q8    1   0.5451  0.6667  0.7908  11.00000  0.05    0.57
Q9    1   0.4021  0.5004  0.1215  11.00000  0.05    0.54
Q10   1   0.4950  0.4531  0.2668  11.00000  0.05    0.53
Q11   1   0.6310  0.6298  0.5019  11.00000  0.05    0.51
Q12   1   0.6701  0.7230  0.0186  11.00000  0.05    0.51
Q13   1   0.6974  0.7173  0.0951  11.00000  0.05    0.50
Q14   1   0.5507  0.7401  0.4674  11.00000  0.05    0.50
Q15   1   0.5201  0.7290  0.5984  11.00000  0.05    0.49
Q16   1   0.5834  0.5868  0.4058  11.00000  0.05    0.49
Q17   1   0.7578  0.8408  0.4868  11.00000  0.05    0.49
Q18   1   0.5861  0.6933  0.7142  11.00000  0.05    0.49
Q19   1   0.5424  0.7145  0.3063  11.00000  0.05    0.49
Q20   1   0.6595  0.7578  0.0084  11.00000  0.05    0.49
;
_shelx_res_checksum              65528
_shelx_hkl_file
;
   0   3   0 9999.99 298.011  -2
   0   3   0 9999.99 298.011   1
  -2   4   0 221.972 4.92990  -2
  -2   4   0 221.972 4.92990   1
  -1   5   0 1416.06 29.9009  -2
  -4   5   0 1416.06 29.9009   1
  -4   5   0 1889.88 38.3279  -2
  -1   5   0 1889.88 38.3279   1
  -3   6   0 6.43349 1.52879  -2
  -3   6   0 6.43349 1.52879   1
   0   6   0 2936.75 57.9006  -2
   0   6   0 2936.75 57.9006   1
  -2   7   0 454.716 10.1905  -2
  -5   7   0 454.716 10.1905   1
  -5   7   0 587.328 12.3277  -2
  -2   7   0 587.328 12.3277   1
  -1   8   0 1635.92 34.7821  -2
  -7   8   0 1635.92 34.7821   1
  -4   8   0 214.953 5.06799  -2
  -4   8   0 214.953 5.06799   1
  -7   8   0 2128.52 42.3106  -2
  -1   8   0 2128.52 42.3106   1
  -3   9   0 434.926 10.1758  -2
  -6   9   0 434.926 10.1758   1
  -6   9   0 419.002 8.56764  -2
  -3   9   0 419.002 8.56764   1
   0   9   0 8.75728 2.07448  -2
   0   9   0 8.75728 2.07448   1
  -2  10   0 1137.79 23.8388  -2
  -8  10   0 1137.79 23.8388   1
  -5  10   0 687.581 13.7121  -2
  -5  10   0 687.581 13.7121   1
  -8  10   0 1474.31 30.4759  -2
  -2  10   0 1474.31 30.4759   1
  -1  11   0 2065.97 54.1192  -2
 -10  11   0 2065.97 54.1192   1
  -4  11   0 737.901 15.9952  -2
  -7  11   0 737.901 15.9952   1
  -7  11   0 622.022 13.4240  -2
  -4  11   0 622.022 13.4240   1
 -10  11   0 1799.62 37.2939  -2
  -1  11   0 1799.62 37.2939   1
  -3  12   0 991.377 21.4012  -2
  -9  12   0 991.377 21.4012   1
  -6  12   0 664.731 13.9243  -2
  -6  12   0 664.731 13.9243   1
  -9  12   0 1177.59 27.3234  -2
  -3  12   0 1177.59 27.3234   1
   0  12   0 829.786 19.8546  -2
   0  12   0 829.786 19.8546   1
  -2  13   0 1463.72 36.3711  -2
 -11  13   0 1463.72 36.3711   1
  -5  13   0 721.671 14.2795  -2
  -8  13   0 721.671 14.2795   1
  -8  13   0 538.125 13.1804  -2
  -5  13   0 538.125 13.1804   1
 -11  13   0 1610.51 36.5789  -2
  -2  13   0 1610.51 36.5789   1
  -1  14   0 3039.44 62.5473  -2
 -13  14   0 3039.44 62.5473   1
  -4  14   0 2205.05 47.4061  -2
 -10  14   0 2205.05 47.4061   1
  -7  14   0 945.793 19.0604  -2
  -7  14   0 945.793 19.0604   1
 -10  14   0 1760.52 44.0759  -2
  -4  14   0 1760.52 44.0759   1
 -13  14   0 2522.16 50.7033  -2
  -1  14   0 2522.16 50.7033   1
  -3  15   0 1149.27 25.0189  -2
 -12  15   0 1149.27 25.0189   1
  -6  15   0 208.585 6.44579  -2
  -9  15   0 208.585 6.44579   1
  -9  15   0 214.805 6.67761  -2
  -6  15   0 214.805 6.67761   1
 -12  15   0 917.173 20.6202  -2
  -3  15   0 917.173 20.6202   1
   0  15   0 333.609 10.0265  -2
   0  15   0 333.609 10.0265   1
  -2  16   0 1320.66 30.9935  -2
 -14  16   0 1320.66 30.9935   1
  -5  16   0 458.031 11.1382  -2
 -11  16   0 458.031 11.1382   1
  -8  16   0 97.1952 4.56584  -2
  -8  16   0 97.1952 4.56584   1
 -11  16   0 420.037 10.8513  -2
  -5  16   0 420.037 10.8513   1
 -14  16   0 1405.82 28.5329  -2
  -2  16   0 1405.82 28.5329   1
  -1  17   0 1985.27 45.8643  -2
 -16  17   0 1985.27 45.8643   1
  -4  17   0 2595.86 56.7882  -2
 -13  17   0 2595.86 56.7882   1
  -7  17   0 604.289 14.1706  -2
 -10  17   0 604.289 14.1706   1
 -10  17   0 468.672 11.8051  -2
  -7  17   0 468.672 11.8051   1
 -13  17   0 2061.99 48.3340  -2
  -4  17   0 2061.99 48.3340   1
 -16  17   0 1791.59 39.5836  -2
  -1  17   0 1791.59 39.5836   1
  -3  18   0 507.162 13.5228  -2
 -15  18   0 507.162 13.5228   1
  -6  18   0 590.151 15.9116  -2
 -12  18   0 590.151 15.9116   1
  -9  18   0 19.4948 3.57442  -2
  -9  18   0 19.4948 3.57442   1
 -12  18   0 457.586 12.8194  -2
  -6  18   0 457.586 12.8194   1
 -15  18   0 374.574 10.9475  -2
  -3  18   0 374.574 10.9475   1
   0  18   0 122.164 7.15648  -2
   0  18   0 122.164 7.15648   1
  -2  19   0 284.082 10.4837  -2
 -17  19   0 284.082 10.4837   1
  -5  19   0 220.718 8.11127  -2
 -14  19   0 220.718 8.11127   1
  -8  19   0 39.9122 3.77223  -2
 -11  19   0 39.9122 3.77223   1
 -11  19   0 34.3693 4.57517  -2
  -8  19   0 34.3693 4.57517   1
 -14  19   0 185.033 7.17459  -2
  -5  19   0 185.033 7.17459   1
 -17  19   0 279.816 9.35488  -2
  -2  19   0 279.816 9.35488   1
  -1  20   0 180.183 8.70084  -2
 -19  20   0 180.183 8.70084   1
  -4  20   0 910.503 23.2954  -2
 -16  20   0 910.503 23.2954   1
  -7  20   0 543.843 13.5651  -2
 -13  20   0 543.843 13.5651   1
 -10  20   0 5.60906 4.23052  -2
 -10  20   0 5.60906 4.23052   1
 -13  20   0 457.771 13.1956  -2
  -7  20   0 457.771 13.1956   1
 -16  20   0 740.921 19.0007  -2
  -4  20   0 740.921 19.0007   1
 -19  20   0 139.081 7.86696  -2
  -1  20   0 139.081 7.86696   1
  -3  21   0 467.160 12.3217  -2
 -18  21   0 467.160 12.3217   1
  -6  21   0 563.594 13.9309  -2
 -15  21   0 563.594 13.9309   1
  -9  21   0 174.725 7.33857  -2
 -12  21   0 174.725 7.33857   1
 -12  21   0 232.278 9.47876  -2
  -9  21   0 232.278 9.47876   1
 -15  21   0 645.771 16.6747  -2
  -6  21   0 645.771 16.6747   1
 -18  21   0 411.729 12.6175  -2
  -3  21   0 411.729 12.6175   1
   0  21   0 280.445 10.9299  -2
   0  21   0 280.445 10.9299   1
  -2  22   0 432.202 12.4243  -2
 -20  22   0 432.202 12.4243   1
  -5  22   0 119.376 6.53339  -2
 -17  22   0 119.376 6.53339   1
  -8  22   0 90.3700 5.49153  -2
 -14  22   0 90.3700 5.49153   1
 -11  22   0 120.634 6.70354  -2
 -11  22   0 120.634 6.70354   1
 -14  22   0 80.4132 5.98756  -2
  -8  22   0 80.4132 5.98756   1
 -17  22   0 139.590 7.95392  -2
  -5  22   0 139.590 7.95392   1
 -20  22   0 356.305 12.0296  -2
  -2  22   0 356.305 12.0296   1
  -1  23   0 486.856 22.1056  -2
 -22  23   0 486.856 22.1056   1
  -4  23   0 202.281 8.16789  -2
 -19  23   0 202.281 8.16789   1
  -7  23   0 572.324 15.1727  -2
 -16  23   0 572.324 15.1727   1
 -10  23   0 585.280 16.3606  -2
 -13  23   0 585.280 16.3606   1
 -13  23   0 626.323 15.6913  -2
 -10  23   0 626.323 15.6913   1
 -16  23   0 638.677 16.8704  -2
  -7  23   0 638.677 16.8704   1
 -19  23   0 222.831 9.67999  -2
  -4  23   0 222.831 9.67999   1
 -22  23   0 465.562 26.5825  -2
  -1  23   0 465.562 26.5825   1
  -3  24   0 19.3821 6.59205  -2
 -21  24   0 19.3821 6.59205   1
  -6  24   0 649.844 20.9135  -2
 -18  24   0 649.844 20.9135   1
  -9  24   0 956.601 26.3959  -2
 -15  24   0 956.601 26.3959   1
 -12  24   0 315.150 10.9848  -2
 -12  24   0 315.150 10.9848   1
 -15  24   0 1210.89 30.8784  -2
  -9  24   0 1210.89 30.8784   1
 -18  24   0 802.242 20.0053  -2
  -6  24   0 802.242 20.0053   1
 -21  24   0 31.0123 9.85421  -2
  -3  24   0 31.0123 9.85421   1
   0  24   0 -1.0697 9.55025  -2
   0  24   0 -1.0697 9.55025   1
  -2  25   0 325.074 24.7289  -2
 -23  25   0 325.074 24.7289   1
  -5  25   0 269.134 15.6291  -2
 -20  25   0 269.134 15.6291   1
  -8  25   0 172.006 7.65840  -2
 -17  25   0 172.006 7.65840   1
 -11  25   0 37.3137 5.39611  -2
 -14  25   0 37.3137 5.39611   1
 -14  25   0 48.7491 6.07656  -2
 -11  25   0 48.7491 6.07656   1
 -17  25   0 214.040 9.75684  -2
  -8  25   0 214.040 9.75684   1
 -20  25   0 209.148 15.1132  -2
  -5  25   0 209.148 15.1132   1
 -23  25   0 399.365 24.7621  -2
  -2  25   0 399.365 24.7621   1
  -1  26   0 107.547 17.7523  -2
 -25  26   0 107.547 17.7523   1
  -4  26   0 202.854 13.8122  -2
 -22  26   0 202.854 13.8122   1
  -7  26   0 343.658 15.2637  -2
 -19  26   0 343.658 15.2637   1
 -10  26   0 370.362 19.4934  -2
 -16  26   0 370.362 19.4934   1
 -13  26   0 56.9524 8.75301  -2
 -13  26   0 56.9524 8.75301   1
 -16  26   0 401.472 23.4255  -2
 -10  26   0 401.472 23.4255   1
 -19  26   0 352.126 18.8994  -2
  -7  26   0 352.126 18.8994   1
 -22  26   0 167.808 16.6161  -2
  -4  26   0 167.808 16.6161   1
 -25  26   0 129.440 31.5688  -2
  -1  26   0 129.440 31.5688   1
  -3  27   0 64.7934 15.3425  -2
 -24  27   0 64.7934 15.3425   1
  -6  27   0 124.491 13.8577  -2
 -21  27   0 124.491 13.8577   1
  -9  27   0 554.791 26.1780  -2
 -18  27   0 554.791 26.1780   1
 -12  27   0 360.050 19.6334  -2
 -15  27   0 360.050 19.6334   1
 -15  27   0 439.469 21.9477  -2
 -12  27   0 439.469 21.9477   1
 -18  27   0 855.116 42.5128  -2
  -9  27   0 855.116 42.5128   1
 -21  27   0 125.874 15.4066  -2
  -6  27   0 125.874 15.4066   1
 -24  27   0 67.3905 14.9432  -2
  -3  27   0 67.3905 14.9432   1
   0  27   0 89.9597 17.2193  -2
   0  27   0 89.9597 17.2193   1
  -2  28   0 164.552 23.5135  -2
 -26  28   0 164.552 23.5135   1
  -5  28   0 501.697 45.2493  -2
 -23  28   0 501.697 45.2493   1
  -8  28   0 192.406 14.3897  -2
 -20  28   0 192.406 14.3897   1
 -11  28   0 126.232 13.7641  -2
 -17  28   0 126.232 13.7641   1
 -14  28   0 141.956 14.6735  -2
 -14  28   0 141.956 14.6735   1
 -17  28   0 141.180 15.9205  -2
 -11  28   0 141.180 15.9205   1
 -20  28   0 210.927 22.4204  -2
  -8  28   0 210.927 22.4204   1
 -23  28   0 317.930 34.1445  -2
  -5  28   0 317.930 34.1445   1
 -26  28   0 137.936 22.0618  -2
  -2  28   0 137.936 22.0618   1
  -1  29   0 37.9745 15.4402  -2
 -28  29   0 37.9745 15.4402   1
  -4  29   0 28.3114 12.7540  -2
 -25  29   0 28.3114 12.7540   1
  -7  29   0 169.898 16.8545  -2
 -22  29   0 169.898 16.8545   1
 -10  29   0 181.847 14.6308  -2
 -19  29   0 181.847 14.6308   1
 -13  29   0 19.0865 9.23607  -2
 -16  29   0 19.0865 9.23607   1
 -16  29   0 24.6456 9.42800  -2
 -13  29   0 24.6456 9.42800   1
 -19  29   0 192.135 17.3972  -2
 -10  29   0 192.135 17.3972   1
 -22  29   0 137.733 16.9947  -2
  -7  29   0 137.733 16.9947   1
 -25  29   0 7.11479 11.5751  -2
  -4  29   0 7.11479 11.5751   1
 -28  29   0 35.3750 13.6735  -2
  -1  29   0 35.3750 13.6735   1
  -3  30   0 53.3621 15.2187  -2
 -27  30   0 53.3621 15.2187   1
  -6  30   0 84.5583 14.2417  -2
 -24  30   0 84.5583 14.2417   1
  -9  30   0 75.0259 12.9052  -2
 -21  30   0 75.0259 12.9052   1
 -12  30   0 174.940 14.8861  -2
 -18  30   0 174.940 14.8861   1
 -15  30   0 143.192 13.5874  -2
 -15  30   0 143.192 13.5874   1
 -18  30   0 235.283 18.9051  -2
 -12  30   0 235.283 18.9051   1
 -21  30   0 147.003 17.4139  -2
  -9  30   0 147.003 17.4139   1
 -24  30   0 62.2380 16.2964  -2
  -6  30   0 62.2380 16.2964   1
 -27  30   0 86.4667 16.8131  -2
  -3  30   0 86.4667 16.8131   1
  -5  31   0 247.051 30.2466  -2
 -26  31   0 247.051 30.2466   1
  -8  31   0 182.518 16.7769  -2
 -23  31   0 182.518 16.7769   1
 -11  31   0 66.7187 12.3891  -2
 -20  31   0 66.7187 12.3891   1
 -14  31   0 72.8095 12.4002  -2
 -17  31   0 72.8095 12.4002   1
 -17  31   0 134.978 14.4338  -2
 -14  31   0 134.978 14.4338   1
 -20  31   0 82.1817 15.8189  -2
 -11  31   0 82.1817 15.8189   1
 -23  31   0 135.711 19.8142  -2
  -8  31   0 135.711 19.8142   1
 -26  31   0 195.326 22.7469  -2
  -5  31   0 195.326 22.7469   1
 -10  32   0 109.498 15.2449  -2
 -22  32   0 109.498 15.2449   1
 -13  32   0 27.0658 10.9481  -2
 -19  32   0 27.0658 10.9481   1
 -16  32   0 43.4847 11.3854  -2
 -16  32   0 43.4847 11.3854   1
 -19  32   0 19.9845 12.6433  -2
 -13  32   0 19.9845 12.6433   1
 -22  32   0 83.6893 22.0851  -2
 -10  32   0 83.6893 22.0851   1
 -12  33   0 41.7802 12.1416  -2
 -21  33   0 41.7802 12.1416   1
 -15  33   0 10.1136 12.4761  -2
 -18  33   0 10.1136 12.4761   1
 -18  33   0 24.1471 13.9224  -2
 -15  33   0 24.1471 13.9224   1
 -21  33   0 28.8507 19.0055  -2
 -12  33   0 28.8507 19.0055   1
  -1   1   1 286.401 5.65013   1
  -3   2   1 1382.20 26.2027   1
   0   2   1 311.315 6.09295   1
  -5   3   1 720.174 15.3052   1
  -2   3   1 809.414 15.2969   1
   1   3   1 42.6830 1.85598   1
  -7   4   1 42.2469 1.99507   1
  -4   4   1 39.0415 2.51768   1
  -1   4   1 0.98809 1.20297   1
   2   4   1 1315.30 28.5693   1
  -9   5   1 624.398 13.8503   1
  -6   5   1 545.529 12.7187   1
  -3   5   1 1526.82 28.6024   1
   0   5   1 1259.30 24.2630   1
   3   5   1 456.868 9.39850   1
 -11   6   1 93.8253 3.54862   1
  -8   6   1 247.809 6.60520   1
  -5   6   1 3898.26 79.5899   1
  -2   6   1 4.44442 1.75415   1
   1   6   1 90.2938 3.38249   1
   4   6   1 190.729 5.17327   1
 -13   7   1 0.47530 2.17322   1
 -10   7   1 377.166 8.40395   1
  -7   7   1 19.8684 2.19693   1
  -4   7   1 310.809 7.49232   1
  -1   7   1 442.674 9.68215   1
   2   7   1 1822.55 36.1565   1
   5   7   1 133.226 5.07942   1
 -15   8   1 135.236 4.60267   1
 -12   8   1 112.958 4.27976   1
  -9   8   1 1130.13 22.9754   1
  -6   8   1 4140.57 82.5628   1
  -3   8   1 415.025 8.98837   1
   0   8   1 559.257 12.0416   1
   3   8   1 153.159 4.91022   1
   6   8   1 37.9926 3.07027   1
 -17   9   1 289.725 8.34326   1
 -14   9   1 6.55806 2.12800   1
 -11   9   1 6.29835 1.93653   1
  -8   9   1 876.514 17.5732   1
  -5   9   1 20.6673 1.96915   1
  -2   9   1 31.0708 2.26709   1
   1   9   1 65.3784 3.39522   1
   4   9   1 11.6571 2.48895   1
   7   9   1 205.703 6.55563   1
 -19  10   1 683.203 15.2224   1
 -16  10   1 394.264 9.24091   1
 -13  10   1 2.21726 1.98423   1
 -10  10   1 215.453 5.77900   1
  -7  10   1 2002.34 39.4149   1
  -4  10   1 1054.56 20.9607   1
  -1  10   1 96.3456 3.68931   1
   2  10   1 43.9390 3.19127   1
   5  10   1 -2.1620 3.01879   1
   8  10   1 11.4062 3.68740   1
 -21  11   1 60.6925 4.37227   1
 -18  11   1 115.005 5.23644   1
 -15  11   1 113.531 4.22560   1
 -12  11   1 42.9004 3.00945   1
  -9  11   1 1687.62 34.6020   1
  -6  11   1 156.414 4.90132   1
  -3  11   1 142.862 4.79799   1
   0  11   1 535.676 12.7149   1
   3  11   1 50.2819 3.57830   1
   6  11   1 218.522 7.88315   1
   9  11   1 1445.53 30.6425   1
 -23  12   1 591.941 14.0625   1
 -20  12   1 119.829 5.56083   1
 -17  12   1 48.2475 3.83905   1
 -14  12   1 632.794 15.7446   1
 -11  12   1 820.542 17.5085   1
  -8  12   1 398.090 9.25963   1
  -5  12   1 1503.96 29.5761   1
  -2  12   1 1147.95 23.1803   1
   1  12   1 613.469 13.5104   1
   4  12   1 36.2603 3.60080   1
   7  12   1 320.137 9.40680   1
  10  12   1 647.309 15.0055   1
 -25  13   1 168.652 7.69607   1
 -22  13   1 31.0613 4.26034   1
 -19  13   1 5.23817 3.39622   1
 -16  13   1 401.587 10.1623   1
 -13  13   1 1846.80 37.3209   1
 -10  13   1 307.280 8.20011   1
  -7  13   1 523.398 11.4090   1
  -4  13   1 534.635 11.9988   1
  -1  13   1 111.041 4.57431   1
   2  13   1 206.067 7.23730   1
   5  13   1 233.323 9.07380   1
   8  13   1 342.327 9.85573   1
  11  13   1 54.3033 4.69660   1
 -27  14   1 4.33829 8.96217   1
 -24  14   1 87.1866 6.15296   1
 -21  14   1 62.9208 5.05110   1
 -18  14   1 31.6883 3.89255   1
 -15  14   1 179.828 6.66226   1
 -12  14   1 79.0500 3.85303   1
  -9  14   1 23.0454 2.71849   1
  -6  14   1 433.422 10.1029   1
  -3  14   1 293.699 7.86882   1
   0  14   1 195.650 7.28807   1
   3  14   1 186.602 7.58673   1
   6  14   1 1147.20 25.8332   1
   9  14   1 1449.49 30.6033   1
  12  14   1 326.918 15.8911   1
 -29  15   1 6.15986 10.0893   1
 -26  15   1 35.4964 8.33585   1
 -23  15   1 19.3549 4.44771   1
 -20  15   1 45.8328 4.23880   1
 -17  15   1 267.039 8.54324   1
 -14  15   1 1416.03 27.5586   1
 -11  15   1 122.814 4.95868   1
  -8  15   1 1728.30 35.3736   1
  -5  15   1 1956.79 40.0193   1
  -2  15   1 1063.24 24.6470   1
   1  15   1 257.071 8.45728   1
   4  15   1 111.239 6.49649   1
   7  15   1 372.187 11.1342   1
  10  15   1 487.805 14.2821   1
  13  15   1 155.720 18.1219   1
 -31  16   1 96.4601 14.6675   1
 -28  16   1 85.2201 15.5109   1
 -25  16   1 12.9206 4.95202   1
 -22  16   1 185.197 8.32699   1
 -19  16   1 832.895 19.9321   1
 -16  16   1 1724.29 36.6827   1
 -13  16   1 200.355 6.63952   1
 -10  16   1 681.949 15.5814   1
  -7  16   1 875.034 19.0541   1
  -4  16   1 1041.26 21.6563   1
  -1  16   1 405.231 10.7012   1
   2  16   1 294.321 9.97143   1
   5  16   1 213.500 8.94952   1
   8  16   1 143.300 6.75123   1
 -27  17   1 40.5000 41.6794  -2
  11  16   1 40.5000 41.6794   1
  14  16   1 42.8801 11.2792   1
 -33  17   1 229.208 31.7252   1
 -30  17   1 273.331 22.9841   1
 -27  17   1 21.2463 10.4130   1
 -24  17   1 61.0268 5.50466   1
 -21  17   1 310.971 10.2770   1
 -18  17   1 626.538 15.5730   1
 -15  17   1 44.5623 3.42857   1
 -12  17   1 147.198 6.35291   1
  -9  17   1 212.289 7.27400   1
  -6  17   1 141.666 6.16238   1
  -3  17   1 7.48349 3.70196   1
 -17  18   1 264.861 39.5835  -2
   0  17   1 264.861 39.5835   1
   3  17   1 644.802 18.3353   1
   6  17   1 666.839 17.6233   1
 -26  18   1 592.705 60.9610  -2
   9  17   1 592.705 60.9610   1
  12  17   1 26.2940 7.55634   1
  15  17   1 38.8148 12.9925   1
 -32  18   1 67.7352 15.7107   1
 -29  18   1 8.36707 9.97234   1
 -26  18   1 40.5341 10.3842   1
 -23  18   1 -0.7172 4.84552   1
 -20  18   1 110.420 6.20645   1
 -17  18   1 374.745 9.91222   1
 -14  18   1 9.02798 3.48141   1
 -11  18   1 1314.58 27.9975   1
  -8  18   1 1898.26 36.6912   1
  -5  18   1 1384.15 32.8097   1
 -16  19   1 809.503 71.3075  -2
  -2  18   1 809.503 71.3075   1
   1  18   1 10.0305 5.06256   1
   4  18   1 128.365 7.65021   1
   7  18   1 173.436 10.7938   1
  10  18   1 56.5004 7.92417   1
  13  18   1 7.84425 11.1570   1
 -31  19   1 120.110 15.6785   1
 -28  19   1 0.66422 9.49325   1
 -25  19   1 100.118 11.3832   1
 -22  19   1 684.619 18.9549   1
 -19  19   1 1516.49 31.7403   1
 -16  19   1 402.302 10.3942   1
 -13  19   1 1.98710 3.59353   1
 -10  19   1 716.673 17.1064   1
  -7  19   1 496.904 13.6430   1
  -4  19   1 708.004 16.6975   1
  -1  19   1 110.704 6.51138   1
   2  19   1 84.2072 6.79190   1
   5  19   1 42.1373 5.02795   1
   8  19   1 52.0206 7.25675   1
  11  19   1 13.3883 7.44740   1
  14  19   1 11.9024 12.6623   1
 -33  20   1 413.659 43.7918   1
 -30  20   1 72.8202 12.8000   1
 -27  20   1 8.00482 9.61707   1
 -24  20   1 134.532 12.6486   1
 -21  20   1 454.517 13.1631   1
 -18  20   1 62.3968 4.43653   1
 -15  20   1 34.7110 4.47532   1
 -12  20   1 19.7548 4.35011   1
  -9  20   1 18.1229 4.20923   1
  -6  20   1 21.4920 4.24089   1
  -3  20   1 5.04096 4.61559   1
   0  20   1 9.21342 4.67116   1
   3  20   1 128.764 8.35662   1
   6  20   1 242.404 13.4864   1
   9  20   1 35.8423 7.53036   1
  12  20   1 14.4536 11.6040   1
 -32  21   1 30.7081 11.8772   1
 -29  21   1 32.7594 11.2839   1
 -26  21   1 66.0768 11.0530   1
 -23  21   1 15.3474 5.39452   1
 -20  21   1 538.155 15.2279   1
 -17  21   1 242.607 9.45339   1
 -14  21   1 40.5802 4.55858   1
 -11  21   1 71.6038 4.94555   1
  -8  21   1 45.8644 4.91837   1
  -5  21   1 49.3840 5.34863   1
  -2  21   1 30.6104 5.01481   1
 -21  20   1 496.324 69.4154  -2
   1  21   1 496.324 69.4154   1
   4  21   1 260.130 13.7474   1
   7  21   1 13.1786 6.62408   1
  10  21   1 45.7373 8.74806   1
 -31  22   1 35.1819 11.2607   1
 -28  22   1 -20.701 8.65690   1
 -25  22   1 151.857 16.0774   1
 -22  22   1 654.808 19.5809   1
 -19  22   1 636.843 16.7195   1
 -16  22   1 240.735 9.33451   1
 -13  22   1 2.62353 4.27099   1
 -10  22   1 2.58530 4.07697   1
  -7  22   1 33.2742 4.53798   1
  -4  22   1 170.874 7.71401   1
 -21  23   1 430.153 61.4783  -2
  -1  22   1 430.153 61.4783   1
   2  22   1 234.759 21.3953   1
   5  22   1 22.8640 7.36103   1
   8  22   1 25.7547 8.01469   1
 -30  23   1 108.190 16.1680   1
 -27  23   1 18.9674 13.7346   1
 -24  23   1 166.121 16.8661   1
 -21  23   1 24.5529 5.85096   1
 -18  23   1 25.5564 5.47817   1
 -15  23   1 2.12141 4.24921   1
 -12  23   1 3.39205 4.65484   1
 -13  22   1 6.36135 35.0291  -2
  -9  23   1 6.36135 35.0291   1
 -17  24   1 232.504 44.6400  -2
  -6  23   1 232.504 44.6400   1
 -20  24   1 1129.22 116.652  -2
 -19  22   1 1129.22 116.652  -2
  -3  23   1 1129.22 116.652   1
   0  23   1 435.336 24.5165   1
   3  23   1 8.07865 5.98200   1
   6  23   1 5.26751 7.15419   1
   9  23   1 8.07959 10.8217   1
 -29  24   1 13.8949 10.0393   1
 -26  24   1 -15.180 18.2299   1
 -23  24   1 46.8658 11.3576   1
 -20  24   1 236.436 20.8238   1
 -17  24   1 44.8458 5.39593   1
 -11  24   1 -27.208 36.8564  -2
 -14  24   1 -27.208 36.8564   1
 -11  24   1 35.1438 5.03065   1
  -8  24   1 22.6926 5.48198   1
 -19  25   1 70.2208 41.5046  -2
  -5  24   1 70.2208 41.5046   1
 -22  25   1 299.392 57.9740  -2
  -2  24   1 299.392 57.9740   1
   1  24   1 60.0254 12.5070   1
   4  24   1 12.6618 6.94112   1
   7  24   1 164.676 27.1495   1
 -31  25   1 47.1709 13.2501   1
 -28  25   1 -10.836 9.83795   1
 -25  25   1 59.4062 13.5291   1
  -4  25   1 236.346 46.9214  -2
 -22  25   1 236.346 46.9214   1
  -7  25   1 108.712 41.4826  -2
 -19  25   1 108.712 41.4826   1
 -10  25   1 61.7344 35.6576  -2
 -16  25   1 61.7344 35.6576   1
 -13  25   1 24.6438 38.6226  -2
 -13  25   1 24.6438 38.6226   1
 -16  25   1 158.438 73.1185  -2
 -10  25   1 158.438 73.1185   1
 -14  24   1 30.3981 34.9064  -2
 -10  25   1 30.3981 34.9064   1
 -19  25   1 137.436 41.0732  -2
  -7  25   1 137.436 41.0732   1
  -4  25   1 269.464 18.6907   1
  -1  25   1 628.271 32.4711   1
   2  25   1 132.950 10.5546   1
   5  25   1 2.20032 13.9899   1
   5  25   1 -54.347 41.5020  -2
 -30  26   1 -54.347 41.5020   1
 -27  26   1 7.25272 10.5236   1
  -3  26   1 385.643 54.5430  -2
 -24  26   1 385.643 54.5430   1
 -21  26   1 3.35085 9.26799   1
  -9  26   1 38.2756 38.7434  -2
 -18  26   1 38.2756 38.7434   1
 -15  26   1 117.611 13.8005   1
 -13  25   1 42.5144 39.7171  -2
 -12  26   1 42.5144 39.7171   1
 -18  26   1 1.93756 38.1009  -2
  -9  26   1 1.93756 38.1009   1
 -21  26   1 377.382 52.5168  -2
  -6  26   1 377.382 52.5168   1
  -3  26   1 606.264 38.5933   1
 -27  26   1 195.778 48.0949  -2
   0  26   1 195.778 48.0949   1
   3  26   1 36.5973 15.3734   1
 -29  27   1 24.4030 11.5547   1
 -26  27   1 36.1005 11.4013   1
 -23  27   1 -0.0595 9.66308   1
  -8  27   1 123.099 43.5543  -2
 -20  27   1 123.099 43.5543   1
 -11  27   1 69.7486 43.2251  -2
 -17  27   1 69.7486 43.2251   1
 -14  27   1 153.155 46.7236  -2
 -14  27   1 153.155 46.7236   1
 -15  26   1 116.296 41.1149  -2
 -11  27   1 116.296 41.1149   1
 -17  27   1 77.1127 42.6768  -2
 -11  27   1 77.1127 42.6768   1
 -20  27   1 227.030 48.7808  -2
  -8  27   1 227.030 48.7808   1
 -23  27   1 102.992 45.7551  -2
  -5  27   1 102.992 45.7551   1
  -2  27   1 82.4234 14.9646   1
   1  27   1 2.21488 13.1581   1
 -28  28   1 18.9871 10.6101   1
 -25  28   1 0.69329 10.9729   1
 -22  28   1 13.1648 11.1951   1
 -10  28   1 81.7946 45.1407  -2
 -19  28   1 81.7946 45.1407   1
 -13  28   1 18.6943 45.2351  -2
 -16  28   1 18.6943 45.2351   1
 -16  28   1 145.783 45.5214  -2
 -13  28   1 145.783 45.5214   1
 -19  28   1 -12.772 41.7840  -2
 -10  28   1 -12.772 41.7840   1
 -22  28   1 300.261 53.8567  -2
  -7  28   1 300.261 53.8567   1
  -4  28   1 803.040 51.5829   1
  -1  28   1 515.429 48.1806   1
 -27  29   1 43.3357 11.3162   1
 -24  29   1 31.0912 13.2585   1
  -9  29   1 232.306 50.1525  -2
 -21  29   1 232.306 50.1525   1
 -12  29   1 588.971 66.8864  -2
 -18  29   1 588.971 66.8864   1
 -15  29   1 599.292 65.2826  -2
 -15  29   1 599.292 65.2826   1
 -18  29   1 598.795 68.0205  -2
 -12  29   1 598.795 68.0205   1
  -9  29   1 1.70786 10.5548   1
  -6  29   1 393.760 29.4848   1
  -3  29   1 214.943 30.5561   1
 -26  30   1 84.0488 14.2226   1
  -8  30   1 -48.672 49.1437  -2
 -23  30   1 -48.672 49.1437   1
 -11  30   1 185.728 52.3765  -2
 -20  30   1 185.728 52.3765   1
 -14  30   1 122.494 51.0251  -2
 -17  30   1 122.494 51.0251   1
 -17  30   1 288.481 55.9700  -2
 -14  30   1 288.481 55.9700   1
 -11  30   1 113.537 15.2840   1
  -8  30   1 -0.1774 11.4422   1
  -5  30   1 182.378 22.1839   1
 -25  31   1 30.0001 13.4268   1
 -22  31   1 74.0331 15.7072   1
 -19  31   1 65.3736 16.3500   1
 -16  31   1 139.142 52.5178  -2
 -16  31   1 139.142 52.5178   1
 -13  31   1 19.6482 11.6902   1
 -10  31   1 16.2167 11.9434   1
  -7  31   1 502.895 35.2258   1
 -21  32   1 436.267 42.2392   1
 -18  32   1 447.161 42.6907   1
 -18  32   1 587.480 73.9228  -2
 -15  32   1 587.480 73.9228   1
 -12  32   1 84.3739 14.9337   1
  -9  32   1 99.7443 17.3717   1
 -20  33   1 144.974 25.3399   1
 -17  33   1 239.787 64.5096  -2
 -17  33   1 239.787 64.5096   1
 -14  33   1 11.3212 11.5920   1
  -2   2   2 101.450 19.7381  -2
   0   1   2 101.450 19.7381   1
   0   1   2 86.7967 18.3002  -2
   0   1   2 86.7967 18.3002   1
   0   1   2 182.522 22.0987  -2
  -2   2   2 182.522 22.0987   1
   1   2   2 62.9217 2.51691   1
  -4   3   2 20.2435 1.55597   1
  -1   3   2 602.162 11.8398   1
  -6   4   2 271.721 32.3006  -2
   2   3   2 271.721 32.3006   1
  -6   4   2 13.0874 1.54670   1
  -1   3   2 572.738 52.8098  -2
  -3   4   2 572.738 52.8098   1
  -5   5   2 394.743 40.4358  -2
   0   4   2 394.743 40.4358   1
  -8   5   2 40.2722 23.8542  -2
   3   4   2 40.2722 23.8542   1
  -8   5   2 14.4525 1.86382   1
  -5   5   2 4.59671 1.43690   1
  -2   5   2 398.693 8.20102   1
  -7   6   2 597.993 58.7308  -2
   1   5   2 597.993 58.7308   1
   4   5   2 7.48595 1.80874   1
 -10   6   2 11.2005 2.19909   1
  -7   6   2 465.146 10.1667   1
  -4   6   2 1553.28 28.5650   1
  -1   6   2 4345.65 76.0783   1
   2   6   2 814.211 17.4658   1
   5   6   2 12.6453 2.19471   1
 -12   7   2 370.922 9.40679   1
  -9   7   2 65.1576 3.79821   1
  -6   7   2 405.293 8.19283   1
  -3   7   2 1914.58 34.0698   1
   0   7   2 1457.46 27.5232   1
   3   7   2 356.203 8.68926   1
   6   7   2 4.36350 2.57112   1
 -14   8   2 1387.86 28.6809   1
 -11   8   2 1081.91 24.6471   1
  -8   8   2 1646.64 35.0068   1
  -5   8   2 876.400 16.6583   1
  -2   8   2 1694.15 34.0340   1
   1   8   2 142.056 5.14787   1
   4   8   2 7.50097 2.41888   1
   7   8   2 1333.79 31.4390   1
 -16   9   2 83.6751 4.11589   1
 -13   9   2 32.5074 3.99307   1
 -10   9   2 807.086 19.0040   1
  -7   9   2 3802.62 70.8561   1
  -4   9   2 7369.52 135.062   1
  -1   9   2 6600.78 128.601   1
   2   9   2 559.595 13.2026   1
   5   9   2 201.055 6.52179   1
   8   9   2 957.802 20.6406   1
 -18  10   2 1699.69 35.6338   1
 -15  10   2 1724.51 39.4675   1
 -12  10   2 274.244 8.41881   1
  -9  10   2 154.272 6.29674   1
  -6  10   2 1756.59 33.3954   1
  -3  10   2 3318.07 65.2462   1
   0  10   2 1463.83 29.7783   1
   3  10   2 23.7992 3.12962   1
   6  10   2 52.5999 4.15452   1
   9  10   2 41.2528 3.74854   1
 -20  11   2 591.371 13.5772   1
 -17  11   2 791.729 19.3385   1
 -14  11   2 731.861 18.4071   1
 -11  11   2 92.7510 4.64885   1
  -8  11   2 270.837 6.88817   1
  -5  11   2 82.5336 3.87515   1
  -2  11   2 218.294 6.60222   1
   1  11   2 1.54695 2.76782   1
 -16  12   2 406.404 56.5308  -2
   4  11   2 406.404 56.5308   1
   7  11   2 624.748 16.4645   1
  10  11   2 603.479 13.7757   1
 -22  12   2 196.734 7.70251   1
 -19  12   2 154.236 6.78503   1
 -16  12   2 109.366 5.14318   1
 -13  12   2 3.64921 3.00228   1
 -10  12   2 308.602 9.52810   1
  -7  12   2 1231.14 25.3493   1
  -4  12   2 2366.67 48.7214   1
  -1  12   2 863.469 18.7293   1
   2  12   2 249.702 7.84407   1
 -18  13   2 1313.40 130.541  -2
   5  12   2 1313.40 130.541   1
   8  12   2 260.959 8.57402   1
  11  12   2 13.0884 3.95752   1
 -24  13   2 92.4180 6.20900   1
 -21  13   2 1109.72 26.9570   1
 -18  13   2 1341.51 30.5335   1
 -15  13   2 616.937 15.1638   1
 -12  13   2 68.2562 4.51249   1
  -9  13   2 226.608 7.52436   1
  -6  13   2 1249.29 25.9790   1
  -3  13   2 521.873 12.0237   1
   0  13   2 30.7642 3.65500   1
   3  13   2 74.5758 5.25721   1
   6  13   2 72.6393 5.41127   1
   9  13   2 95.5850 5.30965   1
  12  13   2 181.824 11.6961   1
 -26  14   2 67.0579 8.19245   1
 -23  14   2 108.193 6.10720   1
 -20  14   2 670.388 17.0582   1
 -17  14   2 551.817 14.9733   1
 -14  14   2 14.2924 3.88318   1
 -11  14   2 16.0900 2.94658   1
  -8  14   2 3.49783 2.68569   1
  -5  14   2 5.72149 2.95142   1
  -2  14   2 467.724 11.1029   1
 -16  15   2 -1.1565 37.4103  -2
   1  14   2 -1.1565 37.4103   1
   4  14   2 -0.1783 4.32653   1
   7  14   2 3.02623 4.14992   1
  10  14   2 9.53488 4.23727   1
  13  14   2 6.87878 6.89110   1
 -28  15   2 89.3245 9.47787   1
 -25  15   2 2.46962 5.77032   1
 -22  15   2 55.2041 4.76166   1
 -19  15   2 23.1556 4.72145   1
 -16  15   2 -4.0136 4.30241   1
 -13  15   2 -0.1901 3.99379   1
 -10  15   2 21.5255 2.98051   1
  -7  15   2 300.434 8.53207   1
 -12  16   2 479.074 54.5090  -2
  -4  15   2 479.074 54.5090   1
 -15  16   2 -34.208 34.8383  -2
  -1  15   2 -34.208 34.8383   1
   2  15   2 246.022 9.06858   1
   5  15   2 32.4309 5.27466   1
   8  15   2 79.5866 5.29602   1
  11  15   2 254.955 13.8690   1
  14  15   2 516.010 24.5253   1
 -30  16   2 57.6840 12.6362   1
 -27  16   2 41.7109 8.73303   1
 -24  16   2 19.2494 5.06644   1
 -21  16   2 644.902 16.1347   1
 -18  16   2 292.913 11.8512   1
 -15  16   2 5.29945 4.36742   1
 -12  16   2 4.16932 2.99714   1
  -9  16   2 63.3409 4.10493   1
  -6  16   2 14.2400 3.42725   1
  -3  16   2 322.315 9.66105   1
 -16  15   2 102.634 37.0716  -2
   0  16   2 102.634 37.0716   1
 -17  17   2 128.470 41.9203  -2
   0  16   2 128.470 41.9203   1
   3  16   2 427.830 12.9234   1
   6  16   2 31.0229 5.76669   1
 -25  15   2 48.5163 38.0348  -2
   9  16   2 48.5163 38.0348   1
  12  16   2 283.818 16.6157   1
  15  16   2 173.071 17.1188   1
 -32  17   2 125.993 16.8721   1
 -29  17   2 162.282 18.2157   1
 -26  17   2 8.43127 8.77268   1
 -23  17   2 24.4040 5.93538   1
 -20  17   2 134.782 7.73806   1
 -17  17   2 5.94048 4.82497   1
 -14  17   2 43.1608 5.65859   1
 -11  17   2 270.773 8.29677   1
  -8  17   2 3.13915 3.30779   1
 -13  18   2 760.550 77.9985  -2
  -5  17   2 760.550 77.9985   1
 -16  18   2 413.214 54.1325  -2
  -2  17   2 413.214 54.1325   1
 -18  16   2 247.817 41.3719  -2
   1  17   2 247.817 41.3719   1
   4  17   2 242.032 9.56600   1
   7  17   2 56.1520 5.37794   1
  10  17   2 3.86739 6.67865   1
  13  17   2 32.0136 7.97412   1
 -31  18   2 35.5872 11.8069   1
 -28  18   2 34.9581 10.7075   1
 -25  18   2 14.6743 9.72076   1
 -22  18   2 41.2310 6.16127   1
 -19  18   2 25.7618 5.60190   1
 -16  18   2 49.3754 5.81411   1
 -13  18   2 536.500 13.0934   1
 -10  18   2 200.287 7.54540   1
  -7  18   2 4.88254 3.86502   1
 -15  19   2 28.2673 37.7008  -2
  -4  18   2 28.2673 37.7008   1
 -14  17   2 37.0235 36.4654  -2
  -4  18   2 37.0235 36.4654   1
 -18  19   2 52.6051 41.6172  -2
  -1  18   2 52.6051 41.6172   1
   2  18   2 23.4521 5.21194   1
   5  18   2 38.0683 5.84481   1
   8  18   2 154.142 12.1154   1
  11  18   2 505.689 24.2745   1
  14  18   2 267.426 20.1228   1
 -30  19   2 69.2678 12.8839   1
 -27  19   2 113.911 14.7778   1
 -24  19   2 6.50414 9.35775   1
 -21  19   2 40.2403 5.82032   1
 -18  19   2 51.9360 5.83584   1
 -15  19   2 19.6953 4.94911   1
 -12  19   2 56.4274 4.57126   1
  -9  19   2 8.70093 4.14376   1
 -14  20   2 862.749 87.9945  -2
  -6  19   2 862.749 87.9945   1
  -3  19   2 417.596 12.6885   1
 -19  18   2 392.596 47.8062  -2
   0  19   2 392.596 47.8062   1
 -23  20   2 439.213 76.9539  -2
   3  19   2 439.213 76.9539   1
   2  21   2 439.213 76.9539   1
   6  19   2 3.06733 7.00188   1
   9  19   2 344.498 18.4929   1
  12  19   2 336.501 19.3380   1
 -32  20   2 15.8278 11.8084   1
 -29  20   2 6.54207 10.1027   1
 -26  20   2 -0.9527 10.4748   1
 -23  20   2 -5.1728 8.44138   1
 -20  20   2 54.8273 6.38634   1
 -17  20   2 38.5654 5.59757   1
 -14  20   2 917.143 20.1458   1
 -10  21   2 1145.15 112.087  -2
 -11  20   2 1145.15 112.087   1
  -8  20   2 16.8336 4.58694   1
 -16  21   2 468.648 66.1449  -2
  -5  20   2 468.648 66.1449   1
  -6  22   2 468.648 66.1449   1
 -19  21   2 763.207 86.8833  -2
  -2  20   2 763.207 86.8833   1
  -3  22   2 763.207 86.8833   1
 -18  19   2 196.457 41.0084  -2
  -2  20   2 196.457 41.0084   1
   1  20   2 68.7565 6.30519   1
 -24  19   2 10.1382 54.4875  -2
   4  20   2 10.1382 54.4875   1
   7  20   2 14.7103 6.48321   1
  10  20   2 38.1470 8.25654   1
 -31  21   2 74.7354 13.8368   1
 -28  21   2 258.549 22.4235   1
 -25  21   2 236.102 20.7105   1
 -22  21   2 15.3654 9.09243   1
 -19  21   2 31.0156 5.49666   1
 -16  21   2 157.752 8.82709   1
  -9  22   2 630.155 69.9777  -2
 -13  21   2 630.155 69.9777   1
 -10  21   2 193.310 7.70662   1
 -15  22   2 380.606 51.9199  -2
  -7  21   2 380.606 51.9199   1
 -18  22   2 603.816 75.4390  -2
  -4  21   2 603.816 75.4390   1
  -5  23   2 603.816 75.4390   1
 -20  20   2 103.945 28.8255  -2
  -1  21   2 103.945 28.8255   1
 -23  20   2 439.213 76.9539  -2
   3  19   2 439.213 76.9539   1
   2  21   2 439.213 76.9539   1
   5  21   2 56.8725 8.52889   1
   8  21   2 46.1994 8.00809   1
  11  21   2 48.2358 9.69331   1
 -30  22   2 227.206 21.3211   1
 -27  22   2 253.057 21.6571   1
 -24  22   2 370.857 34.9224   1
 -21  22   2 198.874 18.2471   1
 -18  22   2 16.8697 5.66009   1
 -15  22   2 102.293 6.30179   1
 -11  23   2 206.737 44.6960  -2
 -12  22   2 206.737 44.6960   1
  -9  22   2 111.327 40.3849  -2
 -12  22   2 111.327 40.3849   1
 -14  23   2 771.013 80.3197  -2
  -9  22   2 771.013 80.3197   1
 -16  21   2 468.648 66.1449  -2
  -5  20   2 468.648 66.1449   1
  -6  22   2 468.648 66.1449   1
 -19  21   2 763.207 86.8833  -2
  -2  20   2 763.207 86.8833   1
  -3  22   2 763.207 86.8833   1
 -19  21   2 722.312 68.4176  -2
  -3  22   2 722.312 68.4176   1
 -22  21   2 541.194 70.8686  -2
   0  22   2 541.194 70.8686   1
   3  22   2 346.391 27.4526   1
   6  22   2 9.22510 6.81017   1
   9  22   2 52.7798 9.07910   1
 -29  23   2 -2.4689 9.86637   1
 -26  23   2 0.93766 8.92316   1
 -23  23   2 122.550 15.0851   1
 -20  23   2 35.7541 10.2656   1
 -17  23   2 443.330 16.2461   1
 -14  23   2 1087.46 24.1077   1
 -13  24   2 434.137 58.2123  -2
 -11  23   2 434.137 58.2123   1
 -11  23   2 286.260 46.0493  -2
 -11  23   2 286.260 46.0493   1
 -16  24   2 384.411 54.2185  -2
  -8  23   2 384.411 54.2185   1
 -18  22   2 603.816 75.4390  -2
  -4  21   2 603.816 75.4390   1
  -5  23   2 603.816 75.4390   1
 -21  22   2 659.264 76.8419  -2
  -2  23   2 659.264 76.8419   1
   1  23   2 101.904 14.3755   1
 -26  23   2 62.5652 43.0643  -2
   4  23   2 62.5652 43.0643   1
   7  23   2 6.86930 7.54601   1
 -31  24   2 186.228 19.0762   1
 -28  24   2 310.722 24.7493   1
 -25  24   2 214.783 25.4725   1
 -22  24   2 26.0005 10.0837   1
 -19  24   2 86.6854 12.5994   1
  -7  24   2 450.044 54.2403  -2
 -16  24   2 450.044 54.2403   1
 -10  24   2 335.348 48.6676  -2
 -13  24   2 335.348 48.6676   1
 -15  25   2 41.4486 38.6605  -2
 -10  24   2 41.4486 38.6605   1
 -13  24   2 341.753 63.8171  -2
 -10  24   2 341.753 63.8171   1
  -7  24   2 60.5122 6.17915   1
 -19  24   2 95.5605 39.8340  -2
  -4  24   2 95.5605 39.8340   1
  -1  24   2 33.3740 11.8412   1
   2  24   2 74.0434 23.3914   1
   5  24   2 10.2160 7.43811   1
 -30  25   2 125.981 16.8347   1
 -27  25   2 333.931 25.5484   1
 -24  25   2 435.928 30.3717   1
 -21  25   2 25.6488 10.0827   1
  -6  25   2 110.671 41.9260  -2
 -18  25   2 110.671 41.9260   1
  -9  25   2 61.4987 41.3135  -2
 -15  25   2 61.4987 41.3135   1
 -12  25   2 4.20782 39.7730  -2
 -12  25   2 4.20782 39.7730   1
 -17  26   2 539.689 65.9727  -2
  -9  25   2 539.689 65.9727   1
 -15  25   2 42.0867 40.0519  -2
  -9  25   2 42.0867 40.0519   1
 -18  25   2 185.158 42.4264  -2
  -6  25   2 185.158 42.4264   1
 -21  25   2 302.552 47.7450  -2
  -3  25   2 302.552 47.7450   1
   0  25   2 201.855 22.3268   1
 -27  25   2 308.149 53.0427  -2
   3  25   2 308.149 53.0427   1
 -29  26   2 -1.1974 9.77158   1
 -26  26   2 24.5863 10.1434   1
 -23  26   2 19.6673 9.17475   1
  -5  26   2 260.757 48.2358  -2
 -20  26   2 260.757 48.2358   1
  -8  26   2 562.784 62.2251  -2
 -17  26   2 562.784 62.2251   1
 -11  26   2 329.010 51.1191  -2
 -14  26   2 329.010 51.1191   1
 -14  26   2 306.112 48.5481  -2
 -11  26   2 306.112 48.5481   1
 -17  26   2 480.436 57.3694  -2
  -8  26   2 480.436 57.3694   1
 -20  26   2 326.121 50.2966  -2
  -5  26   2 326.121 50.2966   1
  -2  26   2 81.0280 14.2881   1
 -26  26   2 -4.1132 45.9243  -2
   1  26   2 -4.1132 45.9243   1
   4  26   2 59.6648 9.43912   1
 -28  27   2 174.726 18.5179   1
 -25  27   2 190.774 19.8046   1
 -22  27   2 39.9010 11.4340   1
 -19  27   2 330.855 33.1075   1
 -10  27   2 192.194 45.6780  -2
 -16  27   2 192.194 45.6780   1
 -13  27   2 138.059 43.8745  -2
 -13  27   2 138.059 43.8745   1
 -16  27   2 207.785 47.8079  -2
 -10  27   2 207.785 47.8079   1
 -19  27   2 314.997 49.9973  -2
  -7  27   2 314.997 49.9973   1
 -22  27   2 54.3419 44.9144  -2
  -4  27   2 54.3419 44.9144   1
  -1  27   2 20.4017 13.0946   1
 -28  27   2 255.355 54.6904  -2
   2  27   2 255.355 54.6904   1
 -27  28   2 239.853 22.8564   1
 -24  28   2 7.61297 10.9391   1
 -21  28   2 -1.7886 10.2564   1
  -9  28   2 -2.1442 42.6240  -2
 -18  28   2 -2.1442 42.6240   1
 -15  28   2 7.86947 12.1556   1
 -15  28   2 53.6187 44.3941  -2
 -12  28   2 53.6187 44.3941   1
  -9  28   2 17.6938 12.4043   1
 -21  28   2 98.4454 46.0142  -2
  -6  28   2 98.4454 46.0142   1
  -3  28   2 38.0204 25.2279   1
   0  28   2 8.66046 17.4893   1
 -26  29   2 37.5593 11.4505   1
 -23  29   2 -0.0509 9.25385   1
 -20  29   2 111.509 20.4521   1
 -17  29   2 73.1193 16.0995   1
 -14  29   2 -26.658 46.0373  -2
 -14  29   2 -26.658 46.0373   1
 -17  29   2 139.499 48.5894  -2
 -11  29   2 139.499 48.5894   1
 -20  29   2 174.364 51.4828  -2
  -8  29   2 174.364 51.4828   1
 -23  29   2 110.827 51.4190  -2
  -5  29   2 110.827 51.4190   1
  -2  29   2 1.33540 17.0930   1
 -25  30   2 -14.285 9.87423   1
 -22  30   2 194.568 25.5192   1
 -19  30   2 74.8352 14.9950   1
 -16  30   2 -2.2986 12.1626   1
 -16  30   2 48.3436 48.4644  -2
 -13  30   2 48.3436 48.4644   1
 -19  30   2 353.297 57.6498  -2
 -10  30   2 353.297 57.6498   1
  -7  30   2 84.8810 15.7728   1
  -4  30   2 2.64152 17.8820   1
 -24  31   2 216.953 18.7456   1
 -21  31   2 188.904 26.0587   1
 -18  31   2 24.7205 13.3978   1
 -15  31   2 -16.722 50.1312  -2
 -15  31   2 -16.722 50.1312   1
 -18  31   2 -72.188 50.7496  -2
 -12  31   2 -72.188 50.7496   1
 -21  31   2 314.439 62.7613  -2
  -9  31   2 314.439 62.7613   1
 -20  32   2 46.4779 14.9360   1
 -17  32   2 15.4471 14.7004   1
 -17  32   2 159.699 56.6600  -2
 -14  32   2 159.699 56.6600   1
 -20  32   2 239.631 59.6342  -2
 -11  32   2 239.631 59.6342   1
   0   0   3 129.933 9.85316  -2
   0   0   3 129.933 9.85316   1
   1   1   3 1475.84 33.5033  -2
   1   1   3 1475.84 33.5033   1
  -1   2   3 463.307 13.1554  -2
  -1   2   3 463.307 13.1554   1
   2   2   3 32.3100 2.42133  -2
   2   2   3 32.3100 2.42133   1
   0   3   3 1184.77 23.6296  -2
  -3   3   3 1184.77 23.6296   1
  -3   3   3 1070.04 21.5547  -2
   0   3   3 1070.04 21.5547   1
   3   3   3 1047.93 22.4005  -2
   3   3   3 1047.93 22.4005   1
   1   4   3 1015.12 21.6718  -2
  -5   4   3 1015.12 21.6718   1
  -2   4   3 3442.15 65.9826  -2
  -2   4   3 3442.15 65.9826   1
  -5   4   3 839.236 16.4036  -2
   1   4   3 839.236 16.4036   1
   4   4   3 13.6038 2.35752  -2
   4   4   3 13.6038 2.35752   1
   2   5   3 140.551 4.63930  -2
  -7   5   3 140.551 4.63930   1
  -1   5   3 415.741 9.34151  -2
  -4   5   3 415.741 9.34151   1
  -4   5   3 347.230 7.75625  -2
  -1   5   3 347.230 7.75625   1
  -7   5   3 171.837 5.29977  -2
   2   5   3 171.837 5.29977   1
   5   5   3 871.014 19.0231  -2
   5   5   3 871.014 19.0231   1
   3   6   3 9.80059 2.06820  -2
  -9   6   3 9.80059 2.06820   1
   0   6   3 62.8782 3.06125  -2
  -6   6   3 62.8782 3.06125   1
  -3   6   3 679.233 12.9963  -2
  -3   6   3 679.233 12.9963   1
  -6   6   3 53.0714 2.86978  -2
   0   6   3 53.0714 2.86978   1
  -9   6   3 12.1393 2.76304  -2
   3   6   3 12.1393 2.76304   1
   6   6   3 327.128 8.84843  -2
   6   6   3 327.128 8.84843   1
   4   7   3 1729.34 33.8766  -2
 -11   7   3 1729.34 33.8766   1
   1   7   3 489.538 12.0597  -2
  -8   7   3 489.538 12.0597   1
  -2   7   3 818.761 15.6369  -2
  -5   7   3 818.761 15.6369   1
  -5   7   3 665.909 13.5883  -2
  -2   7   3 665.909 13.5883   1
  -8   7   3 617.746 13.3159  -2
   1   7   3 617.746 13.3159   1
 -11   7   3 2095.03 40.9925  -2
   4   7   3 2095.03 40.9925   1
   7   7   3 1785.69 38.3932  -2
   7   7   3 1785.69 38.3932   1
   5   8   3 1280.64 30.4431  -2
 -13   8   3 1280.64 30.4431   1
   2   8   3 1737.58 33.0911  -2
 -10   8   3 1737.58 33.0911   1
  -1   8   3 986.262 21.8896  -2
  -7   8   3 986.262 21.8896   1
  -4   8   3 135.801 4.39682  -2
  -4   8   3 135.801 4.39682   1
  -7   8   3 791.946 15.9844  -2
  -1   8   3 791.946 15.9844   1
 -10   8   3 2098.04 43.5722  -2
   2   8   3 2098.04 43.5722   1
 -13   8   3 1710.15 35.3073  -2
   5   8   3 1710.15 35.3073   1
   8   8   3 490.478 13.0226  -2
   8   8   3 490.478 13.0226   1
   6   9   3 352.482 11.8639  -2
 -15   9   3 352.482 11.8639   1
   3   9   3 730.008 20.0880  -2
 -12   9   3 730.008 20.0880   1
   0   9   3 599.660 13.2883  -2
  -9   9   3 599.660 13.2883   1
  -3   9   3 116.673 4.15552  -2
  -6   9   3 116.673 4.15552   1
  -6   9   3 107.108 4.48887  -2
  -3   9   3 107.108 4.48887   1
  -9   9   3 482.521 11.3910  -2
   0   9   3 482.521 11.3910   1
 -12   9   3 575.111 15.1249  -2
   3   9   3 575.111 15.1249   1
 -15   9   3 285.462 8.46335  -2
   6   9   3 285.462 8.46335   1
   9   9   3 227.385 8.15657  -2
   9   9   3 227.385 8.15657   1
   7  10   3 316.839 11.3986  -2
 -17  10   3 316.839 11.3986   1
   4  10   3 924.296 21.5206  -2
 -14  10   3 924.296 21.5206   1
   1  10   3 1188.24 29.0014  -2
 -11  10   3 1188.24 29.0014   1
  -2  10   3 176.766 6.28644  -2
  -8  10   3 176.766 6.28644   1
  -5  10   3 186.236 5.73420  -2
  -5  10   3 186.236 5.73420   1
  -8  10   3 152.909 5.84039  -2
  -2  10   3 152.909 5.84039   1
 -11  10   3 1564.13 31.0446  -2
   1  10   3 1564.13 31.0446   1
 -14  10   3 1047.59 23.2485  -2
   4  10   3 1047.59 23.2485   1
 -17  10   3 325.790 9.44702  -2
   7  10   3 325.790 9.44702   1
  10  10   3 31.9603 4.18033  -2
  10  10   3 31.9603 4.18033   1
   8  11   3 465.584 13.4120  -2
 -19  11   3 465.584 13.4120   1
   5  11   3 514.293 14.0861  -2
 -16  11   3 514.293 14.0861   1
   2  11   3 1559.64 37.3384  -2
 -13  11   3 1559.64 37.3384   1
  -1  11   3 1956.70 44.5937  -2
 -10  11   3 1956.70 44.5937   1
  -4  11   3 723.192 14.9375  -2
  -7  11   3 723.192 14.9375   1
  -7  11   3 586.318 12.6792  -2
  -4  11   3 586.318 12.6792   1
 -10  11   3 1717.61 33.8274  -2
  -1  11   3 1717.61 33.8274   1
 -13  11   3 1618.92 32.1918  -2
   2  11   3 1618.92 32.1918   1
 -16  11   3 694.831 17.3949  -2
   5  11   3 694.831 17.3949   1
 -19  11   3 445.659 12.5436  -2
   8  11   3 445.659 12.5436   1
  11  11   3 373.070 12.1336  -2
  11  11   3 373.070 12.1336   1
   9  12   3 922.682 22.3936  -2
 -21  12   3 922.682 22.3936   1
   6  12   3 5.13911 4.09930  -2
 -18  12   3 5.13911 4.09930   1
   3  12   3 484.141 14.1848  -2
 -15  12   3 484.141 14.1848   1
   0  12   3 1034.05 27.5118  -2
 -12  12   3 1034.05 27.5118   1
  -3  12   3 763.831 16.6708  -2
  -9  12   3 763.831 16.6708   1
  -6  12   3 625.472 14.6032  -2
  -6  12   3 625.472 14.6032   1
  -9  12   3 587.614 13.4433  -2
  -3  12   3 587.614 13.4433   1
 -12  12   3 810.263 17.4513  -2
   0  12   3 810.263 17.4513   1
 -15  12   3 365.950 11.2070  -2
   3  12   3 365.950 11.2070   1
 -18  12   3 6.31965 4.93860  -2
   6  12   3 6.31965 4.93860   1
 -21  12   3 727.413 17.7313  -2
   9  12   3 727.413 17.7313   1
  12  12   3 313.794 17.0100  -2
  12  12   3 313.794 17.0100   1
  10  13   3 250.290 10.0073  -2
 -23  13   3 250.290 10.0073   1
   7  13   3 58.9386 5.27726  -2
 -20  13   3 58.9386 5.27726   1
   4  13   3 432.937 12.9216  -2
 -17  13   3 432.937 12.9216   1
   1  13   3 554.877 15.2144  -2
 -14  13   3 554.877 15.2144   1
  -2  13   3 410.418 13.2714  -2
 -11  13   3 410.418 13.2714   1
  -5  13   3 27.8607 3.68064  -2
  -8  13   3 27.8607 3.68064   1
  -8  13   3 31.3043 4.43234  -2
  -5  13   3 31.3043 4.43234   1
 -11  13   3 540.758 13.3843  -2
  -2  13   3 540.758 13.3843   1
 -14  13   3 697.293 16.3722  -2
   1  13   3 697.293 16.3722   1
 -17  13   3 586.310 15.0407  -2
   4  13   3 586.310 15.0407   1
 -20  13   3 57.1595 5.84025  -2
   7  13   3 57.1595 5.84025   1
 -23  13   3 168.710 7.28134  -2
  10  13   3 168.710 7.28134   1
  13  13   3 254.178 17.2141  -2
  13  13   3 254.178 17.2141   1
  11  14   3 1.44532 6.16270  -2
 -25  14   3 1.44532 6.16270   1
   8  14   3 115.580 7.27005  -2
 -22  14   3 115.580 7.27005   1
   5  14   3 127.488 6.73404  -2
 -19  14   3 127.488 6.73404   1
   2  14   3 561.558 15.4253  -2
 -16  14   3 561.558 15.4253   1
  -1  14   3 1132.92 26.8598  -2
 -13  14   3 1132.92 26.8598   1
  -4  14   3 837.634 19.6314  -2
 -10  14   3 837.634 19.6314   1
  -7  14   3 734.488 18.2113  -2
  -7  14   3 734.488 18.2113   1
 -10  14   3 698.267 15.8837  -2
  -4  14   3 698.267 15.8837   1
 -13  14   3 978.776 21.6497  -2
  -1  14   3 978.776 21.6497   1
 -16  14   3 555.099 13.6329  -2
   2  14   3 555.099 13.6329   1
 -19  14   3 162.392 7.94568  -2
   5  14   3 162.392 7.94568   1
 -22  14   3 91.6343 7.13180  -2
   8  14   3 91.6343 7.13180   1
 -25  14   3 11.7369 6.44532  -2
  11  14   3 11.7369 6.44532   1
  14  14   3 0.83278 8.92832  -2
  14  14   3 0.83278 8.92832   1
  12  15   3 354.535 18.6701  -2
 -27  15   3 354.535 18.6701   1
   9  15   3 609.493 27.6466  -2
 -24  15   3 609.493 27.6466   1
   6  15   3 261.607 10.0459  -2
 -21  15   3 261.607 10.0459   1
   3  15   3 20.0767 4.60851  -2
 -18  15   3 20.0767 4.60851   1
   0  15   3 643.320 17.0148  -2
 -15  15   3 643.320 17.0148   1
  -3  15   3 513.667 15.5055  -2
 -12  15   3 513.667 15.5055   1
  -6  15   3 872.104 18.8403  -2
  -9  15   3 872.104 18.8403   1
  -9  15   3 717.566 17.5084  -2
  -6  15   3 717.566 17.5084   1
 -12  15   3 383.484 10.9255  -2
  -3  15   3 383.484 10.9255   1
 -15  15   3 489.590 14.2819  -2
   0  15   3 489.590 14.2819   1
 -18  15   3 15.5907 4.59305  -2
   3  15   3 15.5907 4.59305   1
 -21  15   3 216.242 9.29651  -2
   6  15   3 216.242 9.29651   1
 -24  15   3 595.897 27.0351  -2
   9  15   3 595.897 27.0351   1
 -27  15   3 332.121 17.7284  -2
  12  15   3 332.121 17.7284   1
  15  15   3 114.935 11.0950  -2
  15  15   3 114.935 11.0950   1
  13  16   3 221.342 14.8457  -2
 -29  16   3 221.342 14.8457   1
  10  16   3 457.659 22.2496  -2
 -26  16   3 457.659 22.2496   1
   7  16   3 247.709 14.6590  -2
 -23  16   3 247.709 14.6590   1
   4  16   3 113.601 6.65127  -2
 -20  16   3 113.601 6.65127   1
   1  16   3 235.217 9.36694  -2
 -17  16   3 235.217 9.36694   1
  -2  16   3 64.5266 6.26530  -2
 -14  16   3 64.5266 6.26530   1
  -5  16   3 130.230 6.35656  -2
 -11  16   3 130.230 6.35656   1
  -8  16   3 11.9122 4.72379  -2
  -8  16   3 11.9122 4.72379   1
 -11  16   3 106.013 5.90781  -2
  -5  16   3 106.013 5.90781   1
 -14  16   3 79.5724 5.83469  -2
  -2  16   3 79.5724 5.83469   1
 -17  16   3 310.332 11.1264  -2
   1  16   3 310.332 11.1264   1
 -20  16   3 104.653 7.08549  -2
   4  16   3 104.653 7.08549   1
 -23  16   3 190.252 20.1443  -2
   7  16   3 190.252 20.1443   1
 -26  16   3 398.502 22.9683  -2
  10  16   3 398.502 22.9683   1
 -29  16   3 222.782 15.0832  -2
  13  16   3 222.782 15.0832   1
  14  17   3 14.9812 7.76478  -2
 -31  17   3 14.9812 7.76478   1
  11  17   3 10.7724 6.91699  -2
 -28  17   3 10.7724 6.91699   1
   8  17   3 108.219 10.7291  -2
 -25  17   3 108.219 10.7291   1
   5  17   3 25.4950 5.24504  -2
 -22  17   3 25.4950 5.24504   1
   2  17   3 102.624 6.66838  -2
 -19  17   3 102.624 6.66838   1
  -1  17   3 450.738 13.2963  -2
 -16  17   3 450.738 13.2963   1
  -4  17   3 458.344 14.7445  -2
 -13  17   3 458.344 14.7445   1
  -7  17   3 1031.41 22.5249  -2
 -10  17   3 1031.41 22.5249   1
 -10  17   3 818.318 19.7758  -2
  -7  17   3 818.318 19.7758   1
 -13  17   3 381.042 12.4155  -2
  -4  17   3 381.042 12.4155   1
 -16  17   3 432.759 12.6657  -2
  -1  17   3 432.759 12.6657   1
 -19  17   3 104.834 6.51398  -2
   2  17   3 104.834 6.51398   1
 -22  17   3 35.1543 6.44917  -2
   5  17   3 35.1543 6.44917   1
 -25  17   3 181.228 14.3624  -2
   8  17   3 181.228 14.3624   1
 -28  17   3 9.24123 7.49428  -2
  11  17   3 9.24123 7.49428   1
 -31  17   3 7.76398 7.66895  -2
  14  17   3 7.76398 7.66895   1
  12  18   3 175.424 14.0420  -2
 -30  18   3 175.424 14.0420   1
   9  18   3 522.260 25.2528  -2
 -27  18   3 522.260 25.2528   1
   6  18   3 576.793 26.8076  -2
 -24  18   3 576.793 26.8076   1
   3  18   3 95.6414 7.20647  -2
 -21  18   3 95.6414 7.20647   1
   0  18   3 56.7917 6.94377  -2
 -18  18   3 56.7917 6.94377   1
  -3  18   3 335.785 12.0566  -2
 -15  18   3 335.785 12.0566   1
  -6  18   3 73.8617 6.06325  -2
 -12  18   3 73.8617 6.06325   1
  -9  18   3 228.190 8.67292  -2
  -9  18   3 228.190 8.67292   1
 -12  18   3 67.6602 5.56496  -2
  -6  18   3 67.6602 5.56496   1
 -15  18   3 303.406 10.3121  -2
  -3  18   3 303.406 10.3121   1
 -18  18   3 38.7060 5.26318  -2
   0  18   3 38.7060 5.26318   1
 -21  18   3 80.9002 6.81287  -2
   3  18   3 80.9002 6.81287   1
 -24  18   3 629.249 44.1731  -2
   6  18   3 629.249 44.1731   1
 -27  18   3 510.301 24.4181  -2
   9  18   3 510.301 24.4181   1
 -30  18   3 161.210 13.6500  -2
  12  18   3 161.210 13.6500   1
  10  19   3 234.763 20.8116  -2
 -29  19   3 234.763 20.8116   1
   7  19   3 233.460 20.7116  -2
 -26  19   3 233.460 20.7116   1
   4  19   3 73.2699 12.5455  -2
 -23  19   3 73.2699 12.5455   1
   1  19   3 10.1000 6.13643  -2
 -20  19   3 10.1000 6.13643   1
  -2  19   3 64.8395 6.71194  -2
 -17  19   3 64.8395 6.71194   1
  -5  19   3 71.0448 7.28890  -2
 -14  19   3 71.0448 7.28890   1
  -8  19   3 249.953 9.35997  -2
 -11  19   3 249.953 9.35997   1
 -11  19   3 208.616 8.77425  -2
  -8  19   3 208.616 8.77425   1
 -14  19   3 88.9624 6.27844  -2
  -5  19   3 88.9624 6.27844   1
 -17  19   3 71.2245 5.79924  -2
  -2  19   3 71.2245 5.79924   1
 -20  19   3 2.84223 5.48064  -2
   1  19   3 2.84223 5.48064   1
 -23  19   3 79.6680 11.1393  -2
   4  19   3 79.6680 11.1393   1
 -26  19   3 207.091 20.2264  -2
   7  19   3 207.091 20.2264   1
 -29  19   3 192.759 30.1826  -2
  10  19   3 192.759 30.1826   1
  11  20   3 56.4532 12.5410  -2
 -31  20   3 56.4532 12.5410   1
   8  20   3 437.587 29.8458  -2
 -28  20   3 437.587 29.8458   1
   2  20   3 50.5414 10.5042  -2
 -22  20   3 50.5414 10.5042   1
  -1  20   3 48.6032 6.73952  -2
 -19  20   3 48.6032 6.73952   1
  -4  20   3 183.698 9.52003  -2
 -16  20   3 183.698 9.52003   1
  -7  20   3 23.2690 4.85520  -2
 -13  20   3 23.2690 4.85520   1
 -10  20   3 89.6113 6.57597  -2
 -10  20   3 89.6113 6.57597   1
 -13  20   3 25.4883 5.57794  -2
  -7  20   3 25.4883 5.57794   1
 -16  20   3 258.020 9.47358  -2
  -4  20   3 258.020 9.47358   1
 -19  20   3 65.0554 6.33602  -2
  -1  20   3 65.0554 6.33602   1
 -22  20   3 78.1611 10.8955  -2
   2  20   3 78.1611 10.8955   1
 -25  20   3 534.556 31.5705  -2
   5  20   3 534.556 31.5705   1
 -28  20   3 696.459 31.4775  -2
   8  20   3 696.459 31.4775   1
 -31  20   3 60.8131 9.98788  -2
  11  20   3 60.8131 9.98788   1
   9  21   3 430.277 30.1970  -2
 -30  21   3 430.277 30.1970   1
   6  21   3 535.360 34.3521  -2
 -27  21   3 535.360 34.3521   1
   0  21   3 2.32143 8.54112  -2
 -21  21   3 2.32143 8.54112   1
  -3  21   3 346.728 13.3195  -2
 -18  21   3 346.728 13.3195   1
  -6  21   3 524.798 16.8412  -2
 -15  21   3 524.798 16.8412   1
  -9  21   3 322.623 10.7549  -2
 -12  21   3 322.623 10.7549   1
 -12  21   3 355.491 12.0559  -2
  -9  21   3 355.491 12.0559   1
 -15  21   3 701.526 17.5583  -2
  -6  21   3 701.526 17.5583   1
 -18  21   3 403.799 12.9554  -2
  -3  21   3 403.799 12.9554   1
 -21  21   3 19.3570 9.79887  -2
   0  21   3 19.3570 9.79887   1
 -24  21   3 402.273 22.0691  -2
   3  21   3 402.273 22.0691   1
 -27  21   3 821.038 42.5665  -2
   6  21   3 821.038 42.5665   1
 -30  21   3 614.334 28.9756  -2
   9  21   3 614.334 28.9756   1
   7  22   3 118.279 17.0432  -2
 -29  22   3 118.279 17.0432   1
   4  22   3 71.9795 13.2286  -2
 -26  22   3 71.9795 13.2286   1
   1  22   3 20.5199 21.9589  -2
 -23  22   3 20.5199 21.9589   1
  -2  22   3 188.251 17.0314  -2
 -20  22   3 188.251 17.0314   1
  -5  22   3 270.715 12.1457  -2
 -17  22   3 270.715 12.1457   1
  -8  22   3 493.105 14.1336  -2
 -14  22   3 493.105 14.1336   1
 -11  22   3 923.539 21.8400  -2
 -11  22   3 923.539 21.8400   1
 -14  22   3 639.120 16.1092  -2
  -8  22   3 639.120 16.1092   1
 -17  22   3 299.369 11.4243  -2
  -5  22   3 299.369 11.4243   1
 -20  22   3 206.677 15.4422  -2
  -2  22   3 206.677 15.4422   1
 -23  22   3 -1.7944 10.0636  -2
   1  22   3 -1.7944 10.0636   1
 -26  22   3 93.5230 25.0836  -2
   4  22   3 93.5230 25.0836   1
 -29  22   3 114.769 23.9315  -2
   7  22   3 114.769 23.9315   1
   5  23   3 413.595 29.0667  -2
 -28  23   3 413.595 29.0667   1
   2  23   3 243.999 21.4490  -2
 -25  23   3 243.999 21.4490   1
  -1  23   3 54.0043 13.3152  -2
 -22  23   3 54.0043 13.3152   1
  -4  23   3 39.8207 9.35794  -2
 -19  23   3 39.8207 9.35794   1
  -7  23   3 20.2396 8.13758  -2
 -16  23   3 20.2396 8.13758   1
 -10  23   3 75.6985 6.77984  -2
 -13  23   3 75.6985 6.77984   1
 -13  23   3 68.7776 7.85277  -2
 -10  23   3 68.7776 7.85277   1
 -16  23   3 34.0600 8.76525  -2
  -7  23   3 34.0600 8.76525   1
 -19  23   3 51.3645 9.94208  -2
  -4  23   3 51.3645 9.94208   1
 -22  23   3 74.1578 11.5977  -2
  -1  23   3 74.1578 11.5977   1
 -25  23   3 335.374 23.1402  -2
   2  23   3 335.374 23.1402   1
 -28  23   3 786.870 41.4619  -2
   5  23   3 786.870 41.4619   1
   3  24   3 151.648 17.3068  -2
 -27  24   3 151.648 17.3068   1
   0  24   3 47.5830 10.9983  -2
 -24  24   3 47.5830 10.9983   1
  -3  24   3 150.973 16.1594  -2
 -21  24   3 150.973 16.1594   1
  -6  24   3 435.942 26.0400  -2
 -18  24   3 435.942 26.0400   1
  -9  24   3 388.589 31.8233  -2
 -15  24   3 388.589 31.8233   1
 -12  24   3 1234.97 59.3427  -2
 -12  24   3 1234.97 59.3427   1
 -15  24   3 731.141 37.7019  -2
  -9  24   3 731.141 37.7019   1
 -18  24   3 714.633 37.4870  -2
  -6  24   3 714.633 37.4870   1
 -21  24   3 196.259 16.0740  -2
  -3  24   3 196.259 16.0740   1
 -24  24   3 62.8296 14.3447  -2
   0  24   3 62.8296 14.3447   1
 -27  24   3 219.852 25.4808  -2
   3  24   3 219.852 25.4808   1
   4  25   3 11.8798 10.8670  -2
 -29  25   3 11.8798 10.8670   1
   1  25   3 83.3459 14.3232  -2
 -26  25   3 83.3459 14.3232   1
  -2  25   3 317.950 22.2366  -2
 -23  25   3 317.950 22.2366   1
  -5  25   3 380.029 27.7434  -2
 -20  25   3 380.029 27.7434   1
  -8  25   3 660.080 43.6489  -2
 -17  25   3 660.080 43.6489   1
 -11  25   3 920.187 46.3124  -2
 -14  25   3 920.187 46.3124   1
 -14  25   3 1185.17 72.0422  -2
 -11  25   3 1185.17 72.0422   1
 -17  25   3 712.677 32.3035  -2
  -8  25   3 712.677 32.3035   1
 -20  25   3 567.850 32.0125  -2
  -5  25   3 567.850 32.0125   1
 -23  25   3 268.826 20.7769  -2
  -2  25   3 268.826 20.7769   1
 -26  25   3 56.9817 15.6165  -2
   1  25   3 56.9817 15.6165   1
 -29  25   3 58.2435 18.5318  -2
   4  25   3 58.2435 18.5318   1
   2  26   3 267.427 29.8666  -2
 -28  26   3 267.427 29.8666   1
  -1  26   3 306.189 21.3743  -2
 -25  26   3 306.189 21.3743   1
  -4  26   3 148.203 14.2865  -2
 -22  26   3 148.203 14.2865   1
  -7  26   3 122.405 14.4282  -2
 -19  26   3 122.405 14.4282   1
 -10  26   3 95.5807 16.9365  -2
 -16  26   3 95.5807 16.9365   1
 -13  26   3 20.2410 10.9977  -2
 -13  26   3 20.2410 10.9977   1
 -16  26   3 87.1992 10.5807  -2
 -10  26   3 87.1992 10.5807   1
 -19  26   3 124.097 13.6309  -2
  -7  26   3 124.097 13.6309   1
 -22  26   3 130.606 13.8841  -2
  -4  26   3 130.606 13.8841   1
 -25  26   3 258.647 26.3038  -2
  -1  26   3 258.647 26.3038   1
 -28  26   3 261.036 25.3468  -2
   2  26   3 261.036 25.3468   1
   0  27   3 44.9062 11.4806  -2
 -27  27   3 44.9062 11.4806   1
  -3  27   3 18.4779 8.39688  -2
 -24  27   3 18.4779 8.39688   1
  -6  27   3 109.270 12.8697  -2
 -21  27   3 109.270 12.8697   1
  -9  27   3 290.268 21.3668  -2
 -18  27   3 290.268 21.3668   1
 -12  27   3 890.519 56.6628  -2
 -15  27   3 890.519 56.6628   1
 -15  27   3 908.735 58.9384  -2
 -12  27   3 908.735 58.9384   1
 -18  27   3 524.844 30.3463  -2
  -9  27   3 524.844 30.3463   1
 -21  27   3 177.005 15.9893  -2
  -6  27   3 177.005 15.9893   1
 -24  27   3 23.5259 14.3899  -2
  -3  27   3 23.5259 14.3899   1
 -27  27   3 81.6580 18.9084  -2
   0  27   3 81.6580 18.9084   1
  -2  28   3 309.694 22.4424  -2
 -26  28   3 309.694 22.4424   1
  -5  28   3 278.052 24.4063  -2
 -23  28   3 278.052 24.4063   1
  -8  28   3 316.862 22.2504  -2
 -20  28   3 316.862 22.2504   1
 -11  28   3 490.939 35.5397  -2
 -17  28   3 490.939 35.5397   1
 -14  28   3 217.740 27.3516  -2
 -14  28   3 217.740 27.3516   1
 -17  28   3 476.110 33.4433  -2
 -11  28   3 476.110 33.4433   1
 -20  28   3 369.509 27.6017  -2
  -8  28   3 369.509 27.6017   1
 -23  28   3 203.835 22.3468  -2
  -5  28   3 203.835 22.3468   1
 -26  28   3 258.697 31.4241  -2
  -2  28   3 258.697 31.4241   1
  -4  29   3 123.237 14.2432  -2
 -25  29   3 123.237 14.2432   1
  -7  29   3 59.3376 10.6005  -2
 -22  29   3 59.3376 10.6005   1
 -10  29   3 22.0539 10.1185  -2
 -19  29   3 22.0539 10.1185   1
 -13  29   3 15.0542 11.8957  -2
 -16  29   3 15.0542 11.8957   1
 -16  29   3 16.3650 9.96654  -2
 -13  29   3 16.3650 9.96654   1
 -19  29   3 6.63155 12.7373  -2
 -10  29   3 6.63155 12.7373   1
 -22  29   3 66.8502 15.5391  -2
  -7  29   3 66.8502 15.5391   1
 -25  29   3 93.2583 18.3397  -2
  -4  29   3 93.2583 18.3397   1
  -9  30   3 39.0886 10.1997  -2
 -21  30   3 39.0886 10.1997   1
 -12  30   3 155.992 15.9228  -2
 -18  30   3 155.992 15.9228   1
 -15  30   3 2.62404 11.7296  -2
 -15  30   3 2.62404 11.7296   1
 -18  30   3 246.246 25.3000  -2
 -12  30   3 246.246 25.3000   1
 -21  30   3 50.4770 14.1371  -2
  -9  30   3 50.4770 14.1371   1
 -11  31   3 118.856 13.4365  -2
 -20  31   3 118.856 13.4365   1
 -14  31   3 5.28080 9.71988  -2
 -17  31   3 5.28080 9.71988   1
 -17  31   3 -5.1640 11.3101  -2
 -14  31   3 -5.1640 11.3101   1
 -20  31   3 63.0686 16.8885  -2
 -11  31   3 63.0686 16.8885   1
   0   2   4 212.970 32.4501  -2
  -1   1   4 212.970 32.4501   1
   1   3   4 1320.99 121.168  -2
  -3   2   4 1320.99 121.168   1
   0   2   4 1305.27 121.011  -2
  -3   2   4 1305.27 121.011   1
  -3   2   4 1175.26 109.895  -2
   0   2   4 1175.26 109.895   1
  -1   1   4 212.368 32.8701  -2
   0   2   4 212.368 32.8701   1
   2   4   4 1926.53 145.750  -2
  -5   3   4 1926.53 145.750   1
  -5   3   4 1564.32 143.707  -2
  -5   3   4 1564.32 143.707   1
   0   2   4 475.554 50.2397  -2
  -2   3   4 475.554 50.2397   1
  -1   4   4 879.925 83.1654  -2
  -2   3   4 879.925 83.1654   1
  -3   2   4 960.429 91.4179  -2
   1   3   4 960.429 91.4179   1
  -7   4   4 55.6540 3.76746   1
   0   5   4 255.781 35.1013  -2
  -4   4   4 255.781 35.1013   1
  -1   4   4 611.273 67.6012  -2
  -4   4   4 611.273 67.6012   1
   1   3   4 150.933 31.5188  -2
  -4   4   4 150.933 31.5188   1
  -2   3   4 864.770 82.7450  -2
  -1   4   4 864.770 82.7450   1
  -3   5   4 757.836 72.8131  -2
  -1   4   4 757.836 72.8131   1
   2   4   4 1231.26 27.2985   1
   3   5   4 3280.67 295.576  -2
  -9   5   4 3280.67 295.576   1
   1   6   4 2186.79 164.542  -2
  -6   5   4 2186.79 164.542   1
  -2   6   4 115.114 25.8845  -2
  -3   5   4 115.114 25.8845   1
   0   5   4 341.698 9.94263   1
  -7   4   4 1083.57 103.284  -2
   3   5   4 1083.57 103.284   1
   4   6   4 1913.85 177.350  -2
 -11   6   4 1913.85 177.350   1
  -8   6   4 1824.69 39.7816   1
  -1   7   4 486.482 51.1218  -2
  -5   6   4 486.482 51.1218   1
  -4   7   4 84.5879 24.5840  -2
  -2   6   4 84.5879 24.5840   1
  -7   7   4 98.8094 33.3519  -2
   1   6   4 98.8094 33.3519   1
  -9   5   4 1742.29 161.253  -2
   4   6   4 1742.29 161.253   1
 -10   7   4 -40.535 32.4058  -2
   4   6   4 -40.535 32.4058   1
   5   7   4 1505.67 145.466  -2
 -13   7   4 1505.67 145.466   1
   2   7   4 598.368 74.5879  -2
 -10   7   4 598.368 74.5879   1
   0   8   4 214.099 27.5553  -2
  -7   7   4 214.099 27.5553   1
  -3   8   4 -23.443 23.3659  -2
  -4   7   4 -23.443 23.3659   1
  -5   6   4 529.443 60.6097  -2
  -1   7   4 529.443 60.6097   1
  -8   6   4 2165.06 197.380  -2
   2   7   4 2165.06 197.380   1
 -12   8   4 2677.83 203.350  -2
   5   7   4 2677.83 203.350   1
 -11   6   4 3128.57 283.114  -2
   5   7   4 3128.57 283.114   1
   6   8   4 568.661 72.7173  -2
 -15   8   4 568.661 72.7173   1
   3   8   4 2392.63 133.220  -2
 -12   8   4 2392.63 133.220   1
   0   8   4 2158.25 152.526  -2
  -9   8   4 2158.25 152.526   1
  -1   7   4 385.256 47.9252  -2
  -6   8   4 385.256 47.9252   1
  -5   9   4 14.3488 26.2958  -2
  -3   8   4 14.3488 26.2958   1
  -7   7   4 161.898 35.4708  -2
   0   8   4 161.898 35.4708   1
 -10   7   4 469.821 56.8663  -2
   3   8   4 469.821 56.8663   1
 -13   7   4 228.924 51.3093  -2
   6   8   4 228.924 51.3093   1
   7   9   4 315.555 35.2193  -2
 -17   9   4 315.555 35.2193   1
   4   9   4 335.454 33.8452  -2
 -14   9   4 335.454 33.8452   1
   1   9   4 1770.80 125.707  -2
 -11   9   4 1770.80 125.707   1
   2  10   4 2211.59 169.808  -2
 -11   9   4 2211.59 169.808   1
  -1  10   4 616.066 51.7057  -2
  -8   9   4 616.066 51.7057   1
   0   8   4 742.689 77.8864  -2
  -8   9   4 742.689 77.8864   1
  -3   8   4 31.4911 32.3676  -2
  -5   9   4 31.4911 32.3676   1
  -4  10   4 70.9551 25.0384  -2
  -5   9   4 70.9551 25.0384   1
  -6   8   4 141.697 34.8596  -2
  -2   9   4 141.697 34.8596   1
  -7  10   4 -2.4609 34.9354  -2
  -2   9   4 -2.4609 34.9354   1
 -10  10   4 -29.223 33.8571  -2
   1   9   4 -29.223 33.8571   1
  -9   8   4 1639.27 152.307  -2
   1   9   4 1639.27 152.307   1
 -12   8   4 1706.04 159.335  -2
   4   9   4 1706.04 159.335   1
 -13  10   4 112.871 35.5162  -2
   4   9   4 112.871 35.5162   1
 -15   8   4 725.025 83.1145  -2
   7   9   4 725.025 83.1145   1
 -19  10   4 8.43770 4.65802   1
 -16  10   4 19.4621 4.53105   1
 -13  10   4 0.26524 3.90820   1
 -10  10   4 22.5577 3.11721   1
  -2   9   4 121.060 36.2069  -2
  -7  10   4 121.060 36.2069   1
  -5   9   4 7.96008 30.8727  -2
  -4  10   4 7.96008 30.8727   1
  -9  11   4 15.9136 35.5431  -2
  -1  10   4 15.9136 35.5431   1
  -8   9   4 327.346 47.4013  -2
  -1  10   4 327.346 47.4013   1
 -12  11   4 510.380 54.5970  -2
   2  10   4 510.380 54.5970   1
 -11   9   4 1580.34 147.775  -2
   2  10   4 1580.34 147.775   1
 -15  11   4 164.364 35.5878  -2
   5  10   4 164.364 35.5878   1
 -14   9   4 395.130 57.7144  -2
   5  10   4 395.130 57.7144   1
 -17   9   4 139.666 49.5556  -2
   8  10   4 139.666 49.5556   1
 -21  11   4 173.419 56.2066  -2
 -21  11   4 173.419 56.2066   1
 -18  11   4 51.4250 5.44256   1
 -15  11   4 1.44909 4.35007   1
 -12  11   4 676.442 16.2489   1
  -1  10   4 149.481 40.6548  -2
  -9  11   4 149.481 40.6548   1
  -5  12   4 53.9059 22.9698  -2
  -6  11   4 53.9059 22.9698   1
  -4  10   4 52.1420 34.9919  -2
  -6  11   4 52.1420 34.9919   1
  -8  12   4 -9.1868 30.1948  -2
  -3  11   4 -9.1868 30.1948   1
 -11  12   4 98.7895 38.3050  -2
   0  11   4 98.7895 38.3050   1
 -13  10   4 96.5306 40.0373  -2
   3  11   4 96.5306 40.0373   1
 -14  12   4 -2.0666 36.7006  -2
   3  11   4 -2.0666 36.7006   1
 -16  10   4 309.529 56.1488  -2
   6  11   4 309.529 56.1488   1
   9  11   4 153.680 8.87183   1
 -23  12   4 488.254 46.6785  -2
 -23  12   4 488.254 46.6785   1
 -20  12   4 47.2474 5.55612   1
 -17  12   4 40.8513 4.59597   1
 -14  12   4 1.02391 3.86951   1
 -11  12   4 198.866 6.74183   1
  -3  11   4 111.611 39.0960  -2
  -8  12   4 111.611 39.0960   1
  -6  11   4 124.104 35.8105  -2
  -5  12   4 124.104 35.8105   1
  -9  11   4 226.467 42.8273  -2
  -2  12   4 226.467 42.8273   1
 -10  13   4 248.492 42.9912  -2
  -2  12   4 248.492 42.9912   1
 -13  13   4 -0.2984 38.7330  -2
   1  12   4 -0.2984 38.7330   1
 -12  11   4 415.627 55.5192  -2
   1  12   4 415.627 55.5192   1
 -16  13   4 234.887 38.5726  -2
   4  12   4 234.887 38.5726   1
 -15  11   4 364.006 53.6896  -2
   4  12   4 364.006 53.6896   1
 -18  11   4 666.372 78.4801  -2
   7  12   4 666.372 78.4801   1
  10  12   4 137.621 14.0573   1
 -25  13   4 141.582 24.0775   1
  10  12   4 144.392 27.6231  -2
 -22  13   4 144.392 27.6231   1
 -19  13   4 27.9456 4.51995   1
 -16  13   4 24.6069 4.40172   1
 -13  13   4 59.9420 4.81680   1
  -2  12   4 364.444 55.0855  -2
 -10  13   4 364.444 55.0855   1
  -6  14   4 89.8021 39.0980  -2
  -7  13   4 89.8021 39.0980   1
  -5  12   4 247.491 44.9633  -2
  -7  13   4 247.491 44.9633   1
  -9  14   4 252.641 42.2574  -2
  -4  13   4 252.641 42.2574   1
  -8  12   4 191.500 40.9117  -2
  -4  13   4 191.500 40.9117   1
 -12  14   4 151.057 41.6488  -2
  -1  13   4 151.057 41.6488   1
 -11  12   4 376.527 52.9930  -2
  -1  13   4 376.527 52.9930   1
 -15  14   4 35.0662 37.4359  -2
   2  13   4 35.0662 37.4359   1
 -14  12   4 -51.275 37.4066  -2
   2  13   4 -51.275 37.4066   1
   5  13   4 18.5183 5.23290   1
 -20  12   4 128.901 52.1292  -2
   8  13   4 128.901 52.1292   1
  11  13   4 7.90790 8.45193   1
 -27  14   4 -26.408 25.1106  -2
 -27  14   4 -26.408 25.1106   1
 -24  14   4 -15.270 8.50397   1
   8  13   4 113.585 24.3535  -2
 -21  14   4 113.585 24.3535   1
 -18  14   4 354.663 11.3778   1
   2  13   4 141.053 24.4683  -2
 -15  14   4 141.053 24.4683   1
 -12  14   4 9.88659 3.89191   1
  -4  13   4 346.535 52.3907  -2
  -9  14   4 346.535 52.3907   1
  -8  15   4 176.141 42.1926  -2
  -6  14   4 176.141 42.1926   1
  -7  13   4 41.5225 37.1072  -2
  -6  14   4 41.5225 37.1072   1
 -10  13   4 -7.1284 36.9696  -2
  -3  14   4 -7.1284 36.9696   1
 -11  15   4 34.7290 39.1206  -2
  -3  14   4 34.7290 39.1206   1
 -14  15   4 59.5904 39.8631  -2
   0  14   4 59.5904 39.8631   1
 -13  13   4 75.1468 40.0973  -2
   0  14   4 75.1468 40.0973   1
 -16  13   4 200.166 44.1630  -2
   3  14   4 200.166 44.1630   1
 -17  15   4 136.579 36.1471  -2
   3  14   4 136.579 36.1471   1
 -20  15   4 633.400 72.4071  -2
   6  14   4 633.400 72.4071   1
 -19  13   4 609.978 73.6753  -2
   6  14   4 609.978 73.6753   1
   9  14   4 222.358 17.1774   1
  12  14   4 142.105 14.6273   1
 -29  15   4 -8.0970 27.2043  -2
 -29  15   4 -8.0970 27.2043   1
  12  14   4 136.295 27.6660  -2
 -26  15   4 136.295 27.6660   1
   9  14   4 166.548 27.5965  -2
 -23  15   4 166.548 27.5965   1
   6  14   4 494.040 44.5512  -2
 -20  15   4 494.040 44.5512   1
 -17  15   4 20.5191 4.33175   1
 -14  15   4 207.194 8.36694   1
  -3  14   4 185.416 47.5366  -2
 -11  15   4 185.416 47.5366   1
  -6  14   4 355.449 53.7531  -2
  -8  15   4 355.449 53.7531   1
  -9  14   4 772.199 81.0487  -2
  -5  15   4 772.199 81.0487   1
 -10  16   4 892.473 79.1217  -2
  -5  15   4 892.473 79.1217   1
 -12  14   4 470.746 59.4524  -2
  -2  15   4 470.746 59.4524   1
 -13  16   4 390.355 49.9029  -2
  -2  15   4 390.355 49.9029   1
 -15  14   4 139.872 41.7833  -2
   1  15   4 139.872 41.7833   1
 -16  16   4 136.315 39.8391  -2
   1  15   4 136.315 39.8391   1
   4  15   4 324.312 11.9054   1
 -21  14   4 839.866 93.8946  -2
   7  15   4 839.866 93.8946   1
  10  15   4 98.1173 11.4954   1
 -28  16   4 106.406 29.8813  -2
  13  15   4 106.406 29.8813   1
 -28  16   4 7.66631 7.09141   1
 -25  16   4 2.20155 8.67089   1
 -22  16   4 63.0586 7.98503   1
   4  15   4 796.837 85.2445  -2
 -19  16   4 796.837 85.2445   1
 -16  16   4 279.988 9.81641   1
 -13  16   4 14.7938 4.13762   1
  -5  15   4 802.289 85.5869  -2
 -10  16   4 802.289 85.5869   1
  -9  17   4 493.652 55.6111  -2
  -7  16   4 493.652 55.6111   1
  -8  15   4 736.304 78.6829  -2
  -7  16   4 736.304 78.6829   1
 -12  17   4 673.759 64.8883  -2
  -4  16   4 673.759 64.8883   1
 -11  15   4 691.809 75.2090  -2
  -4  16   4 691.809 75.2090   1
 -14  15   4 469.068 59.1195  -2
  -1  16   4 469.068 59.1195   1
 -15  17   4 817.265 75.0781  -2
  -1  16   4 817.265 75.0781   1
 -17  15   4 119.114 41.8402  -2
   2  16   4 119.114 41.8402   1
 -18  17   4 562.568 59.1268  -2
   2  16   4 562.568 59.1268   1
   5  16   4 30.3031 11.8637   1
   8  16   4 16.3341 19.1676   1
  11  16   4 3.87956 9.14012   1
  14  16   4 11.5857 11.2307   1
  11  16   4 84.5745 25.6828  -2
 -27  17   4 84.5745 25.6828   1
 -24  17   4 1.85735 8.51523   1
   5  16   4 401.456 39.2262  -2
 -21  17   4 401.456 39.2262   1
 -18  17   4 772.658 19.8015   1
 -15  17   4 823.362 20.1347   1
  -4  16   4 604.930 72.4952  -2
 -12  17   4 604.930 72.4952   1
  -7  16   4 378.009 55.1852  -2
  -9  17   4 378.009 55.1852   1
 -11  18   4 135.669 50.6085  -2
 -10  16   4 135.669 50.6085  -2
  -6  17   4 135.669 50.6085   1
 -11  18   4 147.343 41.1529  -2
  -6  17   4 147.343 41.1529   1
 -13  16   4 2.04539 38.8228  -2
  -3  17   4 2.04539 38.8228   1
 -14  18   4 197.048 42.4442  -2
  -3  17   4 197.048 42.4442   1
 -16  16   4 259.544 46.7223  -2
   0  17   4 259.544 46.7223   1
 -17  18   4 65.3173 38.1333  -2
   0  17   4 65.3173 38.1333   1
   3  17   4 481.363 31.7549   1
   6  17   4 680.974 43.1105   1
   9  17   4 95.9240 13.5591   1
 -29  18   4 193.187 33.6288  -2
  12  17   4 193.187 33.6288   1
 -29  18   4 50.5595 8.29783   1
   9  17   4 246.137 31.8240  -2
 -26  18   4 246.137 31.8240   1
 -23  18   4 7.89315 9.29771   1
   3  17   4 333.221 34.7258  -2
 -20  18   4 333.221 34.7258   1
 -17  18   4 42.8254 5.02069   1
 -14  18   4 259.098 10.5058   1
  -6  17   4 251.447 48.0560  -2
 -11  18   4 251.447 48.0560   1
 -10  19   4 742.906 69.0758  -2
  -8  18   4 742.906 69.0758   1
  -9  17   4 737.622 78.8520  -2
  -8  18   4 737.622 78.8520   1
 -13  19   4 723.099 68.2974  -2
  -5  18   4 723.099 68.2974   1
 -12  17   4 796.211 83.3155  -2
  -5  18   4 796.211 83.3155   1
 -15  17   4 775.782 82.0318  -2
  -2  18   4 775.782 82.0318   1
 -16  19   4 454.780 53.9249  -2
  -2  18   4 454.780 53.9249   1
 -19  19   4 1070.44 113.165  -2
 -18  17   4 1070.44 113.165  -2
   1  18   4 1070.44 113.165   1
   4  18   4 656.375 40.8358   1
   7  18   4 450.208 48.7583   1
  10  18   4 63.4319 11.2348   1
  10  18   4 80.2458 27.0166  -2
 -28  19   4 80.2458 27.0166   1
 -25  19   4 47.4794 7.69558   1
 -19  19   4 962.492 48.0315   1
  -4  19   4 770.797 81.2344  -2
 -16  19   4 770.797 81.2344   1
 -13  19   4 73.1303 6.54628   1
  -8  18   4 670.752 75.1496  -2
 -10  19   4 670.752 75.1496   1
  -7  19   4 802.097 19.1148   1
 -15  20   4 689.062 83.2970  -2
 -14  18   4 689.062 83.2970  -2
  -4  19   4 689.062 83.2970   1
 -15  20   4 524.492 57.6821  -2
  -4  19   4 524.492 57.6821   1
 -17  18   4 159.955 42.1937  -2
  -1  19   4 159.955 42.1937   1
   2  19   4 4.27698 11.4088   1
   5  19   4 -3.3054 19.8217   1
   8  19   4 7.58328 9.17488   1
   8  19   4 10.1679 24.0843  -2
 -27  20   4 10.1679 24.0843   1
 -24  20   4 94.5988 10.2466   1
 -21  20   4 395.533 51.3703   1
 -18  20   4 1014.44 80.0216   1
  -6  20   4 454.855 65.5052  -2
 -15  20   4 454.855 65.5052   1
 -12  20   4 10.5499 5.01469   1
 -10  19   4 54.7161 39.2610  -2
  -9  20   4 54.7161 39.2610   1
 -13  19   4 188.022 43.2773  -2
  -6  20   4 188.022 43.2773   1
 -17  21   4 395.605 64.7114  -2
 -16  19   4 395.605 64.7114  -2
  -3  20   4 395.605 64.7114   1
   0  20   4 8.22071 11.4913   1
   3  20   4 80.6167 15.3296   1
   6  20   4 188.022 33.8317   1
   9  20   4 14.6382 8.00982   1
 -26  21   4 16.3954 9.42864   1
 -23  21   4 -6.2679 16.1476   1
 -20  21   4 9.09478 18.9382   1
 -17  21   4 6.44551 9.08580   1
 -14  21   4 215.977 19.7417   1
 -11  21   4 334.220 49.5579  -2
 -11  21   4 334.220 49.5579   1
  -9  20   4 179.214 45.7927  -2
 -11  21   4 179.214 45.7927   1
 -12  20   4 381.131 53.9776  -2
  -8  21   4 381.131 53.9776   1
 -16  22   4 418.358 60.0292  -2
  -5  21   4 418.358 60.0292   1
 -19  22   4 946.503 104.198  -2
 -18  20   4 946.503 104.198  -2
  -2  21   4 946.503 104.198   1
   1  21   4 3.78277 12.4872   1
   4  21   4 18.1616 22.5791   1
 -29  21   4 247.790 30.3395  -2
   7  21   4 247.790 30.3395   1
   7  21   4 82.4964 28.4939  -2
 -28  22   4 82.4964 28.4939   1
   4  21   4 124.509 28.0765  -2
 -25  22   4 124.509 28.0765   1
   1  21   4 350.812 39.6916  -2
 -22  22   4 350.812 39.6916   1
 -19  22   4 291.028 36.0388   1
  -7  22   4 167.359 42.7638  -2
 -16  22   4 167.359 42.7638   1
 -10  22   4 429.504 55.2028  -2
 -13  22   4 429.504 55.2028   1
 -11  21   4 381.700 55.8162  -2
 -10  22   4 381.700 55.8162   1
 -14  21   4 481.445 62.7126  -2
  -7  22   4 481.445 62.7126   1
  -4  22   4 0.08503 10.3925   1
  -1  22   4 52.5549 13.4828   1
   2  22   4 27.8993 14.9429   1
   5  22   4 19.1546 21.3499   1
   5  22   4 42.8672 28.2411  -2
 -27  23   4 42.8672 28.2411   1
   2  22   4 296.982 37.3697  -2
 -24  23   4 296.982 37.3697   1
 -21  23   4 318.782 24.6182   1
 -18  23   4 96.0041 24.0004   1
  -9  23   4 -7.0070 41.7137  -2
 -15  23   4 -7.0070 41.7137   1
 -12  23   4 227.494 46.3380  -2
 -12  23   4 227.494 46.3380   1
 -13  22   4 134.380 44.8788  -2
  -9  23   4 134.380 44.8788   1
  -6  23   4 -0.2456 10.6613   1
  -3  23   4 44.2614 12.9430   1
   0  23   4 28.7268 13.9199   1
   3  23   4 32.2528 21.9291   1
   3  23   4 27.8161 28.2915  -2
 -26  24   4 27.8161 28.2915   1
 -23  24   4 20.3401 10.0216   1
  -3  23   4 52.8306 27.0722  -2
 -20  24   4 52.8306 27.0722   1
 -17  24   4 8.40075 10.9106   1
 -11  24   4 0.25630 42.1531  -2
 -14  24   4 0.25630 42.1531   1
 -14  24   4 21.9987 42.2502  -2
 -11  24   4 21.9987 42.2502   1
  -8  24   4 59.4494 12.5937   1
  -5  24   4 21.9745 12.2528   1
  -2  24   4 41.2223 14.3118   1
   1  24   4 45.4401 16.2076   1
   1  24   4 53.0794 29.2383  -2
 -25  25   4 53.0794 29.2383   1
 -22  25   4 99.1176 13.9837   1
  -5  24   4 84.5758 29.2387  -2
 -19  25   4 84.5758 29.2387   1
 -16  25   4 38.6269 13.7859   1
 -13  25   4 48.5476 22.6018   1
 -16  25   4 -47.814 44.6555  -2
 -10  25   4 -47.814 44.6555   1
  -7  25   4 10.4723 11.3960   1
  -4  25   4 206.248 20.9621   1
 -25  25   4 92.7664 46.0333  -2
  -1  25   4 92.7664 46.0333   1
 -24  26   4 58.2611 12.5615   1
  -4  25   4 107.119 29.0923  -2
 -21  26   4 107.119 29.0923   1
  -6  26   4 -11.295 43.5193  -2
 -21  26   4 -11.295 43.5193   1
  -9  26   4 11.1720 43.2864  -2
 -18  26   4 11.1720 43.2864   1
 -15  26   4 114.334 20.9505   1
 -12  26   4 23.6551 14.0696   1
  -9  26   4 23.3767 13.9272   1
  -6  26   4 82.7104 15.5609   1
  -3  26   4 71.0367 17.6736   1
   0  26   4 75.4597 23.7603   1
 -23  27   4 -3.0542 9.17592   1
  -8  27   4 30.6164 44.1881  -2
 -20  27   4 30.6164 44.1881   1
  -6  26   4 84.9864 29.6289  -2
 -20  27   4 84.9864 29.6289   1
 -11  27   4 244.595 53.1195  -2
 -17  27   4 244.595 53.1195   1
 -14  27   4 75.5148 16.6205   1
 -11  27   4 39.2587 15.4961   1
  -8  27   4 23.0769 18.4533   1
 -23  27   4 2.73384 49.1286  -2
  -5  27   4 2.73384 49.1286   1
  -7  28   4 -62.883 44.8030  -2
 -22  28   4 -62.883 44.8030   1
  -5  27   4 12.0529 28.3671  -2
 -22  28   4 12.0529 28.3671   1
 -10  28   4 17.7580 47.1275  -2
 -19  28   4 17.7580 47.1275   1
 -13  28   4 -16.839 47.1920  -2
 -16  28   4 -16.839 47.1920   1
 -16  28   4 61.5220 48.8491  -2
 -13  28   4 61.5220 48.8491   1
 -19  28   4 34.8719 48.5231  -2
 -10  28   4 34.8719 48.5231   1
 -22  28   4 -31.889 48.8611  -2
  -7  28   4 -31.889 48.8611   1
 -12  29   4 79.1680 47.2052  -2
 -18  29   4 79.1680 47.2052   1
 -15  29   4 161.667 51.0894  -2
 -15  29   4 161.667 51.0894   1
 -18  29   4 62.3286 49.1499  -2
 -12  29   4 62.3286 49.1499   1
  -9  29   4 18.5112 13.9740   1
   0   1   5 123.793 31.6853  -2
   0   1   5 123.793 31.6853   1
  -1   3   5 722.445 66.0603  -2
  -2   2   5 722.445 66.0603   1
   1   2   5 264.887 38.2592  -2
   1   2   5 264.887 38.2592   1
  -4   3   5 95.2902 38.6971  -2
   1   2   5 95.2902 38.6971   1
  -2   2   5 223.289 56.0613  -2
   1   2   5 223.289 56.0613   1
   2   3   5 251.267 47.1657  -2
  -4   3   5 251.267 47.1657   1
   0   4   5 585.254 64.3897  -2
  -4   3   5 585.254 64.3897   1
  -1   3   5 1136.50 66.0509  -2
  -1   3   5 1136.50 66.0509   1
  -3   4   5 1488.29 140.068  -2
  -1   3   5 1488.29 140.068   1
   2   3   5 690.449 44.8853  -2
   2   3   5 690.449 44.8853   1
  -6   4   5 544.460 63.1819  -2
   2   3   5 544.460 63.1819   1
   3   4   5 212.293 35.4138  -2
  -6   4   5 212.293 35.4138   1
   1   5   5 289.874 47.0370  -2
  -6   4   5 289.874 47.0370   1
   2   3   5 555.732 52.6547  -2
  -6   4   5 555.732 52.6547   1
  -2   5   5 1135.32 108.951  -2
  -3   4   5 1135.32 108.951   1
  -4   3   5 880.963 53.5991  -2
   0   4   5 880.963 53.5991   1
  -5   5   5 795.561 81.5951  -2
   0   4   5 795.561 81.5951   1
   3   4   5 52.5138 25.2196  -2
   3   4   5 52.5138 25.2196   1
   2   6   5 133.822 26.3998  -2
  -8   5   5 133.822 26.3998   1
   4   5   5 109.044 54.0279  -2
  -8   5   5 109.044 54.0279   1
   0   4   5 878.817 73.7045  -2
  -5   5   5 878.817 73.7045   1
  -1   6   5 739.238 56.1708  -2
  -5   5   5 739.238 56.1708   1
   1   5   5 12.2072 47.9110  -2
  -5   5   5 12.2072 47.9110   1
  -4   6   5 687.698 74.0552  -2
  -2   5   5 687.698 74.0552   1
  -6   4   5 278.019 42.0624  -2
   1   5   5 278.019 42.0624   1
   4   5   5 8.63767 26.1194  -2
   4   5   5 8.63767 26.1194   1
 -10   6   5 41.6001 38.9221  -2
   4   5   5 41.6001 38.9221   1
   5   6   5 143.041 37.5923  -2
 -10   6   5 143.041 37.5923   1
   2   6   5 103.287 49.3994  -2
  -7   6   5 103.287 49.3994   1
   1   5   5 181.137 44.3699  -2
  -7   6   5 181.137 44.3699   1
   0   7   5 859.007 89.1717  -2
  -7   6   5 859.007 89.1717   1
  -3   7   5 2738.21 248.156  -2
  -4   6   5 2738.21 248.156   1
  -1   6   5 1427.48 87.3281  -2
  -4   6   5 1427.48 87.3281   1
  -6   7   5 1555.86 125.923  -2
  -1   6   5 1555.86 125.923   1
  -8   5   5 108.571 28.0935  -2
   2   6   5 108.571 28.0935   1
  -9   7   5 162.415 19.2993  -2
   2   6   5 162.415 19.2993   1
   5   6   5 123.579 26.3506  -2
   5   6   5 123.579 26.3506   1
 -12   7   5 284.729 50.6139  -2
   5   6   5 284.729 50.6139   1
   6   7   5 170.946 57.8445  -2
 -12   7   5 170.946 57.8445   1
   3   7   5 255.247 54.6115  -2
  -9   7   5 255.247 54.6115   1
  -1   6   5 1665.54 131.686  -2
  -6   7   5 1665.54 131.686   1
  -2   8   5 1334.95 114.269  -2
  -6   7   5 1334.95 114.269   1
  -4   6   5 2868.88 217.971  -2
  -3   7   5 2868.88 217.971   1
  -5   8   5 2560.09 188.657  -2
  -3   7   5 2560.09 188.657   1
  -8   8   5 1095.81 70.7867  -2
   0   7   5 1095.81 70.7867   1
  -7   6   5 992.082 85.0273  -2
   0   7   5 992.082 85.0273   1
 -11   8   5 305.061 49.7799  -2
   3   7   5 305.061 49.7799   1
 -10   6   5 214.075 39.8516  -2
   3   7   5 214.075 39.8516   1
 -14   8   5 162.519 48.1202  -2
   6   7   5 162.519 48.1202   1
   7   8   5 249.005 53.6416  -2
 -14   8   5 249.005 53.6416   1
   2   9   5 138.998 45.5449  -2
 -11   8   5 138.998 45.5449   1
   4   8   5 478.057 61.2216  -2
 -11   8   5 478.057 61.2216   1
  -1   9   5 240.640 62.0830  -2
  -8   8   5 240.640 62.0830   1
   1   8   5 314.376 52.8411  -2
  -8   8   5 314.376 52.8411   1
  -3   7   5 2295.54 124.478  -2
  -5   8   5 2295.54 124.478   1
  -4   9   5 630.807 77.1511  -2
  -5   8   5 630.807 77.1511   1
  -2   8   5 519.187 62.9862  -2
  -5   8   5 519.187 62.9862   1
  -6   7   5 1140.41 95.7439  -2
  -2   8   5 1140.41 95.7439   1
  -7   9   5 404.555 25.1701  -2
  -2   8   5 404.555 25.1701   1
  -9   7   5 294.507 45.6392  -2
   1   8   5 294.507 45.6392   1
 -10   9   5 212.251 43.0843  -2
   1   8   5 212.251 43.0843   1
 -13   9   5 718.819 78.5199  -2
   4   8   5 718.819 78.5199   1
 -12   7   5 802.196 70.8623  -2
   4   8   5 802.196 70.8623   1
 -16   9   5 156.840 48.4082  -2
   7   8   5 156.840 48.4082   1
 -16   9   5 7.72009 5.01055   1
   5   9   5 239.404 48.1345  -2
 -13   9   5 239.404 48.1345   1
 -10   9   5 6.68671 3.65391   1
  -3  10   5 411.947 69.8349  -2
  -7   9   5 411.947 69.8349   1
  -2   8   5 313.558 45.9035  -2
  -7   9   5 313.558 45.9035   1
  -5   8   5 797.368 68.9105  -2
  -4   9   5 797.368 68.9105   1
  -6  10   5 784.210 39.0810  -2
  -4   9   5 784.210 39.0810   1
  -8   8   5 273.510 45.0718  -2
  -1   9   5 273.510 45.0718   1
  -9  10   5 246.026 36.1305  -2
  -1   9   5 246.026 36.1305   1
 -12  10   5 289.291 48.3493  -2
   2   9   5 289.291 48.3493   1
 -15  10   5 265.708 49.7858  -2
   5   9   5 265.708 49.7858   1
   8   9   5 555.846 52.1342  -2
   8   9   5 555.846 52.1342   1
 -18  10   5 729.470 83.3244  -2
   8   9   5 729.470 83.3244   1
 -18  10   5 403.377 41.0814   1
   4  11   5 406.275 78.1214  -2
 -15  10   5 406.275 78.1214   1
   2   9   5 519.204 56.2362  -2
 -12  10   5 519.204 56.2362   1
  -1   9   5 286.506 36.9255  -2
  -9  10   5 286.506 36.9255   1
  -2  11   5 -4.0734 59.3801  -2
  -9  10   5 -4.0734 59.3801   1
  -5  11   5 467.389 30.3088  -2
  -6  10   5 467.389 30.3088   1
  -4   9   5 741.589 69.7991  -2
  -6  10   5 741.589 69.7991   1
  -7   9   5 449.711 53.4641  -2
  -3  10   5 449.711 53.4641   1
  -8  11   5 367.262 40.4897  -2
  -3  10   5 367.262 40.4897   1
 -10   9   5 300.409 46.8746  -2
   0  10   5 300.409 46.8746   1
 -11  11   5 511.926 49.1444  -2
   0  10   5 511.926 49.1444   1
 -14  11   5 493.413 60.7508  -2
   3  10   5 493.413 60.7508   1
 -13   9   5 119.605 37.6912  -2
   3  10   5 119.605 37.6912   1
   6  10   5 181.533 8.80420   1
   9  10   5 29.7431 18.5102   1
 -20  11   5 619.905 33.5575   1
   5  12   5 1140.44 126.950  -2
 -17  11   5 1140.44 126.950   1
 -14  11   5 410.676 13.0174   1
  -1  12   5 363.269 71.3155  -2
 -11  11   5 363.269 71.3155   1
   0  10   5 568.005 48.7301  -2
 -11  11   5 568.005 48.7301   1
  -4  12   5 240.533 39.3405  -2
  -8  11   5 240.533 39.3405   1
  -7  12   5 2.65154 33.2018  -2
  -5  11   5 2.65154 33.2018   1
  -6  10   5 366.393 50.4707  -2
  -5  11   5 366.393 50.4707   1
 -10  12   5 -43.064 38.2226  -2
  -2  11   5 -43.064 38.2226   1
  -9  10   5 -11.851 39.4838  -2
  -2  11   5 -11.851 39.4838   1
 -13  12   5 96.3972 32.2244  -2
   1  11   5 96.3972 32.2244   1
 -12  10   5 463.343 41.1948  -2
   1  11   5 463.343 41.1948   1
 -16  12   5 212.147 46.2428  -2
   4  11   5 212.147 46.2428   1
 -15  10   5 151.828 36.0130  -2
   4  11   5 151.828 36.0130   1
   7  11   5 24.9639 10.1020   1
  10  11   5 177.548 15.6201   1
 -22  12   5 -1.5548 8.08080   1
   6  13   5 372.871 39.1184  -2
 -19  12   5 372.871 39.1184   1
   3  13   5 368.052 37.5254  -2
 -16  12   5 368.052 37.5254   1
   1  11   5 83.6310 37.4835  -2
 -13  12   5 83.6310 37.4835   1
  -2  11   5 130.873 30.5643  -2
 -10  12   5 130.873 30.5643   1
  -5  11   5 160.689 41.1228  -2
  -7  12   5 160.689 41.1228   1
  -6  13   5 401.776 40.9605  -2
  -7  12   5 401.776 40.9605   1
  -9  13   5 537.679 47.0189  -2
  -4  12   5 537.679 47.0189   1
  -8  11   5 249.703 43.8869  -2
  -4  12   5 249.703 43.8869   1
 -12  13   5 171.337 34.8877  -2
  -1  12   5 171.337 34.8877   1
 -11  11   5 232.565 36.2595  -2
  -1  12   5 232.565 36.2595   1
 -14  11   5 369.601 38.3998  -2
   2  12   5 369.601 38.3998   1
 -15  13   5 213.780 44.5144  -2
   2  12   5 213.780 44.5144   1
   5  12   5 151.046 8.24640   1
   8  12   5 227.188 32.1435   1
  11  12   5 44.9049 9.52017   1
  10  14   5 54.2958 26.2029  -2
 -24  13   5 54.2958 26.2029   1
 -21  13   5 313.414 45.6212   1
   4  14   5 425.095 42.2510  -2
 -18  13   5 425.095 42.2510   1
 -15  13   5 227.003 9.00476   1
 -12  13   5 93.0055 5.16133   1
  -9  13   5 333.969 10.5031   1
  -8  14   5 312.648 38.7650  -2
  -6  13   5 312.648 38.7650   1
  -7  12   5 358.916 48.9888  -2
  -6  13   5 358.916 48.9888   1
 -10  12   5 156.524 40.6586  -2
  -3  13   5 156.524 40.6586   1
 -11  14   5 64.2332 39.3973  -2
  -3  13   5 64.2332 39.3973   1
 -13  12   5 90.7623 31.6119  -2
   0  13   5 90.7623 31.6119   1
 -14  14   5 63.0409 70.0902  -2
   0  13   5 63.0409 70.0902   1
 -16  12   5 420.816 35.8447  -2
   3  13   5 420.816 35.8447   1
   6  13   5 406.339 29.6952   1
   9  13   5 34.5573 20.9153   1
  12  13   5 23.7077 27.4183  -2
  12  13   5 23.7077 27.4183   1
  11  15   5 82.4068 27.0173  -2
 -26  14   5 82.4068 27.0173   1
   8  15   5 47.5361 24.3500  -2
 -23  14   5 47.5361 24.3500   1
 -20  14   5 439.528 26.0055   1
 -17  14   5 538.105 24.9582   1
  -1  15   5 348.996 35.4902  -2
 -14  14   5 348.996 35.4902   1
  -4  15   5 -80.854 62.4778  -2
 -11  14   5 -80.854 62.4778   1
  -7  15   5 186.422 63.7235  -2
  -8  14   5 186.422 63.7235   1
  -9  13   5 258.742 37.1369  -2
  -5  14   5 258.742 37.1369   1
 -12  13   5 91.5368 34.2819  -2
  -2  14   5 91.5368 34.2819   1
 -13  15   5 -2.9165 33.4760  -2
  -2  14   5 -2.9165 33.4760   1
 -15  13   5 485.905 43.2016  -2
   1  14   5 485.905 43.2016   1
 -16  15   5 275.289 46.9261  -2
   1  14   5 275.289 46.9261   1
   4  14   5 83.8704 13.3489   1
   7  14   5 8.45288 18.7442   1
 -23  14   5 70.9971 23.3700  -2
  10  14   5 70.9971 23.3700   1
  13  14   5 26.1885 27.4932  -2
  13  14   5 26.1885 27.4932   1
   9  16   5 95.2576 26.8767  -2
 -25  15   5 95.2576 26.8767   1
   6  16   5 124.549 26.2231  -2
 -22  15   5 124.549 26.2231   1
 -19  15   5 18.0193 6.64221   1
 -16  15   5 6.63570 6.07038   1
  -3  16   5 286.009 66.9480  -2
 -13  15   5 286.009 66.9480   1
 -10  15   5 0.91788 4.05452   1
  -8  14   5 88.5090 38.0632  -2
  -7  15   5 88.5090 38.0632   1
 -10  15   5 17.3507 35.9435  -2
  -4  15   5 17.3507 35.9435   1
 -11  14   5 -28.860 37.2043  -2
  -4  15   5 -28.860 37.2043   1
 -15  16   5 306.237 49.2868  -2
  -1  15   5 306.237 49.2868   1
 -14  14   5 426.851 42.3531  -2
  -1  15   5 426.851 42.3531   1
 -17  14   5 368.659 48.8615  -2
   2  15   5 368.659 48.8615   1
   5  15   5 191.485 20.4245   1
   8  15   5 -4.8892 21.0900   1
 -25  15   5 149.463 26.4853  -2
  11  15   5 149.463 26.4853   1
 -26  14   5 97.6987 30.2198  -2
  11  15   5 97.6987 30.2198   1
  10  17   5 28.9114 26.8852  -2
 -27  16   5 28.9114 26.8852   1
   7  17   5 47.9023 24.4889  -2
 -24  16   5 47.9023 24.4889   1
 -21  16   5 80.9238 8.65271   1
 -18  16   5 182.027 12.9307   1
 -15  16   5 88.3319 9.13235   1
  -5  17   5 83.6400 44.8816  -2
 -12  16   5 83.6400 44.8816   1
  -9  16   5 157.061 7.20855   1
 -11  17   5 203.422 43.2426  -2
  -6  16   5 203.422 43.2426   1
 -10  15   5 55.7145 37.8436  -2
  -6  16   5 55.7145 37.8436   1
 -13  15   5 -43.896 38.7040  -2
  -3  16   5 -43.896 38.7040   1
 -14  17   5 174.861 43.9603  -2
  -3  16   5 174.861 43.9603   1
 -16  15   5 175.204 29.3375  -2
   0  16   5 175.204 29.3375   1
   3  16   5 390.025 28.2502   1
   6  16   5 87.8237 23.4797   1
   9  16   5 29.1439 21.4179   1
   8  18   5 100.684 27.1882  -2
 -26  17   5 100.684 27.1882   1
 -23  17   5 35.4046 7.24380   1
 -20  17   5 102.458 13.3844   1
 -17  17   5 50.1664 7.54264   1
 -14  17   5 183.797 12.8632   1
 -11  17   5 310.180 11.7044   1
  -9  16   5 298.172 40.3476  -2
  -8  17   5 298.172 40.3476   1
 -12  16   5 -13.841 39.6069  -2
  -5  17   5 -13.841 39.6069   1
 -11  17   5 245.466 46.6664  -2
  -5  17   5 245.466 46.6664   1
 -15  16   5 675.145 67.8890  -2
  -2  17   5 675.145 67.8890   1
 -18  16   5 583.084 62.0848  -2
   1  17   5 583.084 62.0848   1
   4  17   5 181.123 22.8643   1
   7  17   5 -0.3372 19.8960   1
 -26  17   5 48.6176 24.8015  -2
  10  17   5 48.6176 24.8015   1
   6  19   5 106.160 27.4712  -2
 -25  18   5 106.160 27.4712   1
   3  19   5 316.738 34.8060  -2
 -22  18   5 316.738 34.8060   1
 -19  18   5 4.51587 6.27496   1
 -16  18   5 172.445 12.4999   1
 -13  18   5 300.138 17.0251   1
 -10  18   5 153.443 16.0605   1
 -11  17   5 335.389 50.3752  -2
  -7  18   5 335.389 50.3752   1
 -14  17   5 217.301 45.5051  -2
  -4  18   5 217.301 45.5051   1
 -17  17   5 96.2263 29.4837  -2
  -1  18   5 96.2263 29.4837   1
   2  18   5 20.7422 20.3730   1
   8  18   5 78.6252 24.9984   1
 -27  19   5 -2.1283 10.2918   1
   4  20   5 224.325 31.2689  -2
 -24  19   5 224.325 31.2689   1
   1  20   5 555.726 49.7985  -2
 -21  19   5 555.726 49.7985   1
 -18  19   5 61.8768 8.34818   1
 -15  19   5 6.89412 6.79946   1
  -6  19   5 8.31366 43.1822  -2
 -12  19   5 8.31366 43.1822   1
 -10  18   5 129.240 37.1946  -2
  -9  19   5 129.240 37.1946   1
 -13  18   5 244.735 47.6980  -2
  -6  19   5 244.735 47.6980   1
  -3  19   5 736.641 43.9016   1
   0  19   5 631.759 40.2334   1
   3  19   5 392.687 45.5331   1
   6  19   5 12.2957 23.4461   1
 -26  20   5 14.1420 7.30390   1
 -23  20   5 2.21759 6.54363   1
  -1  21   5 47.7743 23.0002  -2
 -20  20   5 47.7743 23.0002   1
 -17  20   5 186.369 14.3368   1
 -14  20   5 332.455 25.2101   1
  -8  20   5 357.843 52.4428  -2
 -11  20   5 357.843 52.4428   1
 -12  19   5 164.771 44.5406  -2
  -8  20   5 164.771 44.5406   1
  -5  20   5 314.573 25.1437   1
  -2  20   5 903.849 77.5195   1
   1  20   5 792.572 70.8709   1
   4  20   5 170.329 31.1487   1
 -25  21   5 187.181 14.4307   1
   0  22   5 122.794 27.3937  -2
 -22  21   5 122.794 27.3937   1
  -3  22   5 549.279 50.9234  -2
 -19  21   5 549.279 50.9234   1
 -16  21   5 287.172 34.4422   1
 -13  21   5 330.962 29.3581   1
 -10  21   5 270.558 30.1187   1
 -14  20   5 271.843 47.3074  -2
  -7  21   5 271.843 47.3074   1
  -4  21   5 24.9290 11.6924   1
  -1  21   5 31.8667 15.2530   1
   2  21   5 41.7608 38.5588   1
   5  21   5 1.86011 23.8226   1
   1  23   5 225.721 33.4810  -2
 -24  22   5 225.721 33.4810   1
  -2  23   5 355.509 39.5056  -2
 -21  22   5 355.509 39.5056   1
  -5  23   5 181.833 31.6938  -2
 -18  22   5 181.833 31.6938   1
 -15  22   5 15.2261 10.1631   1
 -12  22   5 3.41881 12.2998   1
  -9  22   5 -7.0149 11.5830   1
  -6  22   5 89.5214 14.7569   1
  -3  22   5 464.614 33.0696   1
 -21  22   5 166.954 39.8835  -2
   0  22   5 166.954 39.8835   1
   3  22   5 -8.4271 24.7784   1
  -1  24   5 15.2530 28.3506  -2
 -23  23   5 15.2530 28.3506   1
  -4  24   5 165.594 31.5879  -2
 -20  23   5 165.594 31.5879   1
 -17  23   5 212.892 20.2396   1
 -14  23   5 237.443 28.7698   1
 -11  23   5 204.508 48.0982  -2
 -11  23   5 204.508 48.0982   1
  -8  23   5 -11.922 12.0474   1
 -17  23   5 207.159 46.5632  -2
  -5  23   5 207.159 46.5632   1
  -2  23   5 408.956 32.5837   1
 -23  23   5 66.4882 44.2395  -2
   1  23   5 66.4882 44.2395   1
  -3  25   5 158.519 31.8495  -2
 -22  24   5 158.519 31.8495   1
  -6  25   5 311.011 39.5553  -2
 -19  24   5 311.011 39.5553   1
  -4  24   5 251.373 47.7822  -2
 -19  24   5 251.373 47.7822   1
  -9  25   5 486.555 50.2700  -2
 -16  24   5 486.555 50.2700   1
  -7  24   5 243.736 49.3809  -2
 -16  24   5 243.736 49.3809   1
 -10  24   5 185.471 47.9785  -2
 -13  24   5 185.471 47.9785   1
 -13  24   5 133.298 47.3407  -2
 -10  24   5 133.298 47.3407   1
 -16  24   5 247.191 50.3684  -2
  -7  24   5 247.191 50.3684   1
  -4  24   5 -0.3970 24.8941   1
 -22  24   5 43.4813 44.2225  -2
  -1  24   5 43.4813 44.2225   1
  -5  26   5 88.6503 31.1169  -2
 -21  25   5 88.6503 31.1169   1
  -8  26   5 16.4976 30.0518  -2
 -18  25   5 16.4976 30.0518   1
  -6  25   5 20.5059 43.2207  -2
 -18  25   5 20.5059 43.2207   1
 -11  26   5 14.8619 31.0249  -2
 -15  25   5 14.8619 31.0249   1
 -12  25   5 -9.0297 44.7138  -2
 -12  25   5 -9.0297 44.7138   1
 -15  25   5 71.5264 44.9195  -2
  -9  25   5 71.5264 44.9195   1
 -18  25   5 17.9443 46.0789  -2
  -6  25   5 17.9443 46.0789   1
 -21  25   5 79.7128 45.5089  -2
  -3  25   5 79.7128 45.5089   1
  -5  26   5 107.438 46.0739  -2
 -20  26   5 107.438 46.0739   1
 -10  27   5 159.693 34.4002  -2
 -17  26   5 159.693 34.4002   1
  -8  26   5 19.8621 46.5606  -2
 -17  26   5 19.8621 46.5606   1
 -11  26   5 -17.916 45.9816  -2
 -14  26   5 -17.916 45.9816   1
 -14  26   5 92.4835 46.0592  -2
 -11  26   5 92.4835 46.0592   1
 -16  27   5 92.0278 35.7186  -2
 -11  26   5 92.0278 35.7186   1
 -17  26   5 50.9012 47.2371  -2
  -8  26   5 50.9012 47.2371   1
 -20  26   5 -7.6940 46.2263  -2
  -5  26   5 -7.6940 46.2263   1
 -19  27   5 63.7966 21.9794   1
 -10  27   5 67.3127 48.6104  -2
 -16  27   5 67.3127 48.6104   1
 -13  27   5 16.0388 48.1157  -2
 -13  27   5 16.0388 48.1157   1
 -16  27   5 10.6996 46.9422  -2
 -10  27   5 10.6996 46.9422   1
   0   0   6 1270.02 51.7899  -2
   0   0   6 1270.02 51.7899   1
   1   1   6 1776.53 40.3297  -2
   1   1   6 1776.53 40.3297   1
  -1   2   6 122.193 7.58160  -2
  -1   2   6 122.193 7.58160   1
   2   2   6 2.46626 5.99833  -2
   2   2   6 2.46626 5.99833   1
   0   3   6 846.926 22.2869  -2
  -3   3   6 846.926 22.2869   1
  -3   3   6 864.819 21.7032  -2
   0   3   6 864.819 21.7032   1
   3   3   6 156.921 9.03818  -2
   3   3   6 156.921 9.03818   1
   1   4   6 229.590 9.58932  -2
  -5   4   6 229.590 9.58932   1
  -2   4   6 1672.01 39.4067  -2
  -2   4   6 1672.01 39.4067   1
  -5   4   6 267.502 11.2054  -2
   1   4   6 267.502 11.2054   1
   4   4   6 36.7734 7.28865  -2
   4   4   6 36.7734 7.28865   1
   2   5   6 178.456 10.2010  -2
  -7   5   6 178.456 10.2010   1
  -1   5   6 0.09573 6.35108  -2
  -4   5   6 0.09573 6.35108   1
  -4   5   6 4.36217 5.99906  -2
  -1   5   6 4.36217 5.99906   1
  -7   5   6 179.105 9.18363  -2
   2   5   6 179.105 9.18363   1
   5   5   6 152.010 6.89547  -2
   5   5   6 152.010 6.89547   1
   3   6   6 78.9807 6.73765  -2
  -9   6   6 78.9807 6.73765   1
   0   6   6 382.412 13.7111  -2
  -6   6   6 382.412 13.7111   1
  -3   6   6 772.569 20.9278  -2
  -3   6   6 772.569 20.9278   1
  -6   6   6 483.179 15.4832  -2
   0   6   6 483.179 15.4832   1
  -9   6   6 104.061 6.04666  -2
   3   6   6 104.061 6.04666   1
   6   6   6 71.8982 5.52547  -2
   6   6   6 71.8982 5.52547   1
   4   7   6 36.8963 5.12788  -2
 -11   7   6 36.8963 5.12788   1
   1   7   6 33.3201 6.41622  -2
  -8   7   6 33.3201 6.41622   1
  -2   7   6 296.596 11.2093  -2
  -5   7   6 296.596 11.2093   1
  -5   7   6 343.263 11.9249  -2
  -2   7   6 343.263 11.9249   1
  -8   7   6 41.5397 4.84214  -2
   1   7   6 41.5397 4.84214   1
 -11   7   6 52.6192 4.92961  -2
   4   7   6 52.6192 4.92961   1
   7   7   6 33.1850 9.81675  -2
   7   7   6 33.1850 9.81675   1
   5   8   6 217.422 16.1907  -2
 -13   8   6 217.422 16.1907   1
   2   8   6 89.0989 5.89183  -2
 -10   8   6 89.0989 5.89183   1
  -1   8   6 95.4642 9.15066  -2
  -7   8   6 95.4642 9.15066   1
  -4   8   6 76.6881 5.74743  -2
  -4   8   6 76.6881 5.74743   1
  -7   8   6 98.5313 6.25872  -2
  -1   8   6 98.5313 6.25872   1
 -10   8   6 90.1337 5.59330  -2
   2   8   6 90.1337 5.59330   1
 -13   8   6 229.217 16.4797  -2
   5   8   6 229.217 16.4797   1
   8   8   6 135.465 14.1399  -2
   8   8   6 135.465 14.1399   1
   6   9   6 53.5871 12.7550  -2
 -15   9   6 53.5871 12.7550   1
   3   9   6 88.4770 6.13188  -2
 -12   9   6 88.4770 6.13188   1
   0   9   6 421.286 12.9810  -2
  -9   9   6 421.286 12.9810   1
  -3   9   6 383.273 13.6093  -2
  -6   9   6 383.273 13.6093   1
  -6   9   6 325.115 11.8319  -2
  -3   9   6 325.115 11.8319   1
  -9   9   6 337.572 10.3207  -2
   0   9   6 337.572 10.3207   1
 -12   9   6 90.3958 6.11056  -2
   3   9   6 90.3958 6.11056   1
 -15   9   6 51.1352 9.20087  -2
   6   9   6 51.1352 9.20087   1
   9   9   6 31.7306 12.2058  -2
   9   9   6 31.7306 12.2058   1
   7  10   6 202.178 15.7078  -2
 -17  10   6 202.178 15.7078   1
   4  10   6 557.094 24.0906  -2
 -14  10   6 557.094 24.0906   1
   1  10   6 339.831 10.4174  -2
 -11  10   6 339.831 10.4174   1
  -2  10   6 180.685 8.75677  -2
  -8  10   6 180.685 8.75677   1
  -5  10   6 238.140 9.18300  -2
  -5  10   6 238.140 9.18300   1
  -8  10   6 184.612 7.31738  -2
  -2  10   6 184.612 7.31738   1
 -11  10   6 474.780 12.9251  -2
   1  10   6 474.780 12.9251   1
 -14  10   6 836.036 45.4685  -2
   4  10   6 836.036 45.4685   1
 -17  10   6 178.742 20.1014  -2
   7  10   6 178.742 20.1014   1
  10  10   6 6.22867 7.96057  -2
  10  10   6 6.22867 7.96057   1
   8  11   6 161.555 14.8148  -2
 -19  11   6 161.555 14.8148   1
   5  11   6 320.310 19.5192  -2
 -16  11   6 320.310 19.5192   1
   2  11   6 666.079 32.0436  -2
 -13  11   6 666.079 32.0436   1
  -1  11   6 628.661 15.8271  -2
 -10  11   6 628.661 15.8271   1
  -4  11   6 241.768 8.77317  -2
  -7  11   6 241.768 8.77317   1
  -7  11   6 214.816 8.81406  -2
  -4  11   6 214.816 8.81406   1
 -10  11   6 674.682 16.1684  -2
  -1  11   6 674.682 16.1684   1
 -13  11   6 903.933 40.2061  -2
   2  11   6 903.933 40.2061   1
 -16  11   6 367.556 25.5996  -2
   5  11   6 367.556 25.5996   1
 -19  11   6 181.806 17.0970  -2
   8  11   6 181.806 17.0970   1
  11  11   6 -13.936 8.68122  -2
  11  11   6 -13.936 8.68122   1
   9  12   6 85.1705 12.4682  -2
 -21  12   6 85.1705 12.4682   1
   6  12   6 114.710 11.8367  -2
 -18  12   6 114.710 11.8367   1
   3  12   6 7.17890 8.85643  -2
 -15  12   6 7.17890 8.85643   1
   0  12   6 611.118 29.6645  -2
 -12  12   6 611.118 29.6645   1
  -3  12   6 1005.01 24.4483  -2
  -9  12   6 1005.01 24.4483   1
  -6  12   6 571.788 13.6552  -2
  -6  12   6 571.788 13.6552   1
  -9  12   6 796.839 17.3930  -2
  -3  12   6 796.839 17.3930   1
 -12  12   6 446.625 20.3872  -2
   0  12   6 446.625 20.3872   1
 -15  12   6 3.96265 9.49091  -2
   3  12   6 3.96265 9.49091   1
 -18  12   6 58.0087 12.1649  -2
   6  12   6 58.0087 12.1649   1
 -21  12   6 94.1236 14.9075  -2
   9  12   6 94.1236 14.9075   1
  12  12   6 92.7359 10.9636  -2
  12  12   6 92.7359 10.9636   1
  10  13   6 310.530 17.2905  -2
 -23  13   6 310.530 17.2905   1
   7  13   6 393.240 19.1324  -2
 -20  13   6 393.240 19.1324   1
   4  13   6 237.634 15.7562  -2
 -17  13   6 237.634 15.7562   1
   1  13   6 365.846 17.9541  -2
 -14  13   6 365.846 17.9541   1
  -2  13   6 139.177 10.6598  -2
 -11  13   6 139.177 10.6598   1
  -5  13   6 265.454 14.9571  -2
  -8  13   6 265.454 14.9571   1
  -8  13   6 261.110 12.1373  -2
  -5  13   6 261.110 12.1373   1
 -11  13   6 169.471 10.2044  -2
  -2  13   6 169.471 10.2044   1
 -14  13   6 408.494 22.1583  -2
   1  13   6 408.494 22.1583   1
 -17  13   6 208.080 14.7572  -2
   4  13   6 208.080 14.7572   1
 -20  13   6 262.169 22.4274  -2
   7  13   6 262.169 22.4274   1
 -23  13   6 248.628 18.7846  -2
  10  13   6 248.628 18.7846   1
   8  14   6 179.223 13.1951  -2
 -22  14   6 179.223 13.1951   1
   5  14   6 269.278 17.3567  -2
 -19  14   6 269.278 17.3567   1
   2  14   6 374.985 26.4881  -2
 -16  14   6 374.985 26.4881   1
  -1  14   6 1131.62 43.6964  -2
 -13  14   6 1131.62 43.6964   1
  -4  14   6 884.603 39.4277  -2
 -10  14   6 884.603 39.4277   1
  -7  14   6 83.0563 9.26626  -2
  -7  14   6 83.0563 9.26626   1
 -10  14   6 777.614 30.9004  -2
  -4  14   6 777.614 30.9004   1
 -13  14   6 1226.96 52.7730  -2
  -1  14   6 1226.96 52.7730   1
 -16  14   6 530.893 30.5180  -2
   2  14   6 530.893 30.5180   1
 -19  14   6 212.537 17.9251  -2
   5  14   6 212.537 17.9251   1
 -22  14   6 161.322 23.2950  -2
   8  14   6 161.322 23.2950   1
   9  15   6 72.6870 9.50189  -2
 -24  15   6 72.6870 9.50189   1
   6  15   6 70.6945 8.44290  -2
 -21  15   6 70.6945 8.44290   1
   3  15   6 32.1453 7.00606  -2
 -18  15   6 32.1453 7.00606   1
   0  15   6 293.416 27.7373  -2
 -15  15   6 293.416 27.7373   1
  -3  15   6 1305.98 56.4202  -2
 -12  15   6 1305.98 56.4202   1
  -6  15   6 734.253 29.4234  -2
  -9  15   6 734.253 29.4234   1
  -9  15   6 603.512 25.2352  -2
  -6  15   6 603.512 25.2352   1
 -12  15   6 960.539 47.9195  -2
  -3  15   6 960.539 47.9195   1
 -15  15   6 216.921 18.8193  -2
   0  15   6 216.921 18.8193   1
 -18  15   6 56.5945 13.6568  -2
   3  15   6 56.5945 13.6568   1
 -21  15   6 59.4599 13.6693  -2
   6  15   6 59.4599 13.6693   1
 -24  15   6 83.9116 14.5321  -2
   9  15   6 83.9116 14.5321   1
   7  16   6 460.111 21.3178  -2
 -23  16   6 460.111 21.3178   1
   4  16   6 185.201 12.6609  -2
 -20  16   6 185.201 12.6609   1
   1  16   6 35.4755 7.16383  -2
 -17  16   6 35.4755 7.16383   1
  -2  16   6 131.472 15.2005  -2
 -14  16   6 131.472 15.2005   1
  -5  16   6 93.8639 10.7372  -2
 -11  16   6 93.8639 10.7372   1
  -8  16   6 33.4414 8.34011  -2
  -8  16   6 33.4414 8.34011   1
 -11  16   6 80.7722 12.9385  -2
  -5  16   6 80.7722 12.9385   1
 -14  16   6 152.835 16.9006  -2
  -2  16   6 152.835 16.9006   1
 -17  16   6 64.4638 11.1621  -2
   1  16   6 64.4638 11.1621   1
 -20  16   6 213.744 27.2157  -2
   4  16   6 213.744 27.2157   1
 -23  16   6 325.293 24.5489  -2
   7  16   6 325.293 24.5489   1
   5  17   6 41.4831 7.07673  -2
 -22  17   6 41.4831 7.07673   1
   2  17   6 116.493 10.4253  -2
 -19  17   6 116.493 10.4253   1
  -1  17   6 126.156 10.7572  -2
 -16  17   6 126.156 10.7572   1
  -4  17   6 530.155 34.1107  -2
 -13  17   6 530.155 34.1107   1
  -7  17   6 303.799 17.7883  -2
 -10  17   6 303.799 17.7883   1
 -10  17   6 251.644 27.1650  -2
  -7  17   6 251.644 27.1650   1
 -13  17   6 582.175 36.5843  -2
  -4  17   6 582.175 36.5843   1
 -16  17   6 97.7002 12.0060  -2
  -1  17   6 97.7002 12.0060   1
 -19  17   6 106.858 14.8223  -2
   2  17   6 106.858 14.8223   1
 -22  17   6 45.1593 12.8588  -2
   5  17   6 45.1593 12.8588   1
   3  18   6 31.0222 6.81329  -2
 -21  18   6 31.0222 6.81329   1
   0  18   6 74.2888 8.78556  -2
 -18  18   6 74.2888 8.78556   1
  -3  18   6 270.809 14.9370  -2
 -15  18   6 270.809 14.9370   1
  -6  18   6 426.107 30.9037  -2
 -12  18   6 426.107 30.9037   1
  -9  18   6 100.236 15.1964  -2
  -9  18   6 100.236 15.1964   1
 -12  18   6 311.033 21.5025  -2
  -6  18   6 311.033 21.5025   1
 -15  18   6 173.270 14.4645  -2
  -3  18   6 173.270 14.4645   1
 -18  18   6 67.7980 11.5747  -2
   0  18   6 67.7980 11.5747   1
 -21  18   6 46.2559 14.8520  -2
   3  18   6 46.2559 14.8520   1
   4  19   6 54.6758 8.12195  -2
 -23  19   6 54.6758 8.12195   1
   1  19   6 18.6658 7.70144  -2
 -20  19   6 18.6658 7.70144   1
  -2  19   6 60.8407 9.17308  -2
 -17  19   6 60.8407 9.17308   1
  -5  19   6 6.26761 7.77141  -2
 -14  19   6 6.26761 7.77141   1
  -8  19   6 47.1257 11.2090  -2
 -11  19   6 47.1257 11.2090   1
 -11  19   6 55.1014 11.1659  -2
  -8  19   6 55.1014 11.1659   1
 -14  19   6 7.13458 10.7621  -2
  -5  19   6 7.13458 10.7621   1
 -17  19   6 81.1927 11.8114  -2
  -2  19   6 81.1927 11.8114   1
 -20  19   6 -0.2416 13.5054  -2
   1  19   6 -0.2416 13.5054   1
 -23  19   6 48.2572 15.9703  -2
   4  19   6 48.2572 15.9703   1
   2  20   6 16.4149 7.01312  -2
 -22  20   6 16.4149 7.01312   1
  -1  20   6 -4.6798 7.41981  -2
 -19  20   6 -4.6798 7.41981   1
  -4  20   6 18.7280 8.08849  -2
 -16  20   6 18.7280 8.08849   1
  -7  20   6 131.003 14.4969  -2
 -13  20   6 131.003 14.4969   1
 -10  20   6 92.5649 12.8849  -2
 -10  20   6 92.5649 12.8849   1
 -13  20   6 45.4031 17.7504  -2
  -7  20   6 45.4031 17.7504   1
 -16  20   6 23.9630 11.6141  -2
  -4  20   6 23.9630 11.6141   1
 -19  20   6 22.1903 11.9918  -2
  -1  20   6 22.1903 11.9918   1
 -22  20   6 18.7048 13.5912  -2
   2  20   6 18.7048 13.5912   1
   0  21   6 20.3802 7.35911  -2
 -21  21   6 20.3802 7.35911   1
  -3  21   6 12.0627 7.02590  -2
 -18  21   6 12.0627 7.02590   1
  -6  21   6 29.3448 9.58228  -2
 -15  21   6 29.3448 9.58228   1
  -9  21   6 35.8448 10.5227  -2
 -12  21   6 35.8448 10.5227   1
 -12  21   6 54.8960 12.3878  -2
  -9  21   6 54.8960 12.3878   1
 -15  21   6 11.8083 12.9408  -2
  -6  21   6 11.8083 12.9408   1
 -18  21   6 32.0628 11.6699  -2
  -3  21   6 32.0628 11.6699   1
 -21  21   6 31.9307 13.4886  -2
   0  21   6 31.9307 13.4886   1
  -2  22   6 39.7920 11.1055  -2
 -20  22   6 39.7920 11.1055   1
  -5  22   6 110.058 18.8247  -2
 -17  22   6 110.058 18.8247   1
  -8  22   6 42.0503 10.8461  -2
 -14  22   6 42.0503 10.8461   1
 -11  22   6 173.093 16.8734  -2
 -11  22   6 173.093 16.8734   1
 -14  22   6 77.4350 18.9997  -2
  -8  22   6 77.4350 18.9997   1
 -17  22   6 156.111 17.2456  -2
  -5  22   6 156.111 17.2456   1
 -20  22   6 60.8252 14.2016  -2
  -2  22   6 60.8252 14.2016   1
  -4  23   6 105.395 14.2587  -2
 -19  23   6 105.395 14.2587   1
  -7  23   6 108.273 16.4216  -2
 -16  23   6 108.273 16.4216   1
 -10  23   6 29.5011 11.1267  -2
 -13  23   6 29.5011 11.1267   1
 -13  23   6 3.64079 10.9409  -2
 -10  23   6 3.64079 10.9409   1
 -16  23   6 88.7166 19.7700  -2
  -7  23   6 88.7166 19.7700   1
 -19  23   6 91.0649 14.0099  -2
  -4  23   6 91.0649 14.0099   1
  -9  24   6 28.6509 11.1845  -2
 -15  24   6 28.6509 11.1845   1
 -12  24   6 81.8240 12.9554  -2
 -12  24   6 81.8240 12.9554   1
 -15  24   6 46.2260 14.8990  -2
  -9  24   6 46.2260 14.8990   1
   0   2   7 92.9053 37.2844  -2
  -1   1   7 92.9053 37.2844   1
   1   3   7 122.022 38.6326  -2
  -3   2   7 122.022 38.6326   1
  -3   2   7 103.927 38.2914  -2
   0   2   7 103.927 38.2914   1
   2   4   7 248.034 43.0592  -2
  -5   3   7 248.034 43.0592   1
  -5   3   7 643.530 96.4960  -2
  -5   3   7 643.530 96.4960   1
   1   3   7 643.530 96.4960   1
  -1   4   7 288.198 45.4455  -2
  -2   3   7 288.198 45.4455   1
  -4   4   7 91.1034 38.4069  -2
   1   3   7 91.1034 38.4069   1
  -5   3   7 198.810 41.6860  -2
   1   3   7 198.810 41.6860   1
  -5   3   7 643.530 96.4960  -2
  -5   3   7 643.530 96.4960   1
   1   3   7 643.530 96.4960   1
   3   5   7 785.949 74.6777  -2
  -7   4   7 785.949 74.6777   1
   0   5   7 194.941 41.4597  -2
  -4   4   7 194.941 41.4597   1
  -3   5   7 280.257 44.6943  -2
  -1   4   7 280.257 44.6943   1
  -6   5   7 228.755 41.7099  -2
   2   4   7 228.755 41.7099   1
  -7   4   7 359.613 49.3493  -2
   2   4   7 359.613 49.3493   1
  -9   5   7 435.397 49.6541  -2
  -9   5   7 435.397 49.6541   1
   1   6   7 284.718 46.8607  -2
  -6   5   7 284.718 46.8607   1
  -2   6   7 148.070 41.4236  -2
  -3   5   7 148.070 41.4236   1
  -6   5   7 232.905 42.4304  -2
   0   5   7 232.905 42.4304   1
  -5   6   7 401.603 51.8688  -2
   0   5   7 401.603 51.8688   1
  -8   6   7 1240.49 103.075  -2
   3   5   7 1240.49 103.075   1
  -9   5   7 987.050 86.3755  -2
   3   5   7 987.050 86.3755   1
   4   6   7 1465.54 91.1573  -2
 -11   6   7 1465.54 91.1573   1
  -8   6   7 770.541 65.4987   1
  -1   7   7 485.809 55.7872  -2
  -5   6   7 485.809 55.7872   1
  -4   7   7 159.388 41.9386  -2
  -2   6   7 159.388 41.9386   1
  -7   7   7 365.137 49.0422  -2
   1   6   7 365.137 49.0422   1
  -8   6   7 831.539 77.3815  -2
   1   6   7 831.539 77.3815   1
 -11   6   7 1160.96 99.2082  -2
   4   6   7 1160.96 99.2082   1
  -9   5   7 519.765 37.7906  -2
   4   6   7 519.765 37.7906   1
   3   8   7 412.183 54.7941  -2
 -10   7   7 412.183 54.7941   1
   0   8   7 379.855 51.0089  -2
  -7   7   7 379.855 51.0089   1
  -3   8   7 117.265 41.9615  -2
  -4   7   7 117.265 41.9615   1
  -6   8   7 19.6577 40.2110  -2
  -1   7   7 19.6577 40.2110   1
 -10   7   7 156.333 42.7152  -2
   2   7   7 156.333 42.7152   1
  -8   6   7 836.532 55.1450  -2
   2   7   7 836.532 55.1450   1
  -2   9   7 118.270 42.3431  -2
  -6   8   7 118.270 42.3431   1
  -5   9   7 8.70325 39.0255  -2
  -3   8   7 8.70325 39.0255   1
  -9   8   7 255.883 44.7938  -2
   0   8   7 255.883 44.7938   1
  -7   7   7 465.239 35.2279  -2
   0   8   7 465.239 35.2279   1
  -8   9   7 232.619 31.5338   1
  -6   8   7 136.588 20.9642  -2
  -2   9   7 136.588 20.9642   1
  -9   8   7 342.262 22.6359  -2
   1   9   7 342.262 22.6359   1
 -11   9   7 563.619 61.6892  -2
   1   9   7 563.619 61.6892   1
 -13  10   7 159.820 38.2535  -2
   4   9   7 159.820 38.2535   1
   6  11   7 63.2902 22.2585  -2
 -16  10   7 63.2902 22.2585   1
  -8   9   7 277.852 20.1895  -2
  -1  10   7 277.852 20.1895   1
 -10  10   7 126.365 42.5463  -2
  -1  10   7 126.365 42.5463   1
 -12  11   7 13.1507 35.8897  -2
   2  10   7 13.1507 35.8897   1
   7  12   7 225.475 28.4182  -2
 -18  11   7 225.475 28.4182   1
  -7  10   7 8.53884 13.4741  -2
  -3  11   7 8.53884 13.4741   1
 -10  10   7 164.854 26.1023  -2
   0  11   7 164.854 26.1023   1
 -11  12   7 102.281 38.7527  -2
   0  11   7 102.281 38.7527   1
   3  11   7 51.4792 13.6414   1
   6  11   7 25.4774 22.1937   1
 -20  12   7 175.446 52.2530  -2
   9  11   7 175.446 52.2530   1
 -20  12   7 78.5846 24.7247   1
   2  13   7 110.670 45.2442  -2
 -14  12   7 110.670 45.2442   1
 -11  12   7 -29.113 17.5447   1
  -8  12   7 6.00772 17.9623   1
  -6  11   7 200.181 18.2724  -2
  -5  12   7 200.181 18.2724   1
  -9  11   7 373.738 37.4155  -2
  -2  12   7 373.738 37.4155   1
   1  12   7 131.176 20.3744   1
   7  12   7 242.617 38.1866   1
   3  14   7 94.8154 43.1978  -2
 -16  13   7 94.8154 43.1978   1
  -1  13   7 82.4127 45.1309  -2
 -13  13   7 82.4127 45.1309   1
 -10  13   7 4.85534 16.4511   1
  -5  12   7 468.943 28.3123  -2
  -7  13   7 468.943 28.3123   1
  -8  12   7 673.682 57.4018  -2
  -4  13   7 673.682 57.4018   1
  -1  13   7 136.626 20.5055   1
   5  13   7 31.3516 23.9208   1
   5  13   7 104.854 28.2380  -2
 -18  14   7 104.854 28.2380   1
   2  13   7 41.3460 25.1741  -2
 -15  14   7 41.3460 25.1741   1
 -12  14   7 6.22349 17.6811   1
  -9  14   7 94.5428 20.7270   1
  -7  13   7 509.640 46.6365  -2
  -6  14   7 509.640 46.6365   1
 -10  13   7 75.5048 22.8423  -2
  -3  14   7 75.5048 22.8423   1
   0  14   7 10.3303 13.2666   1
   6  14   7 97.9750 16.6429   1
   3  14   7 92.6298 26.5504  -2
 -17  15   7 92.6298 26.5504   1
   2  16   7 93.3057 44.1880  -2
 -17  15   7 93.3057 44.1880   1
   0  14   7 26.2174 25.1953  -2
 -14  15   7 26.2174 25.1953   1
  -2  15   7 61.0150 44.9300  -2
 -14  15   7 61.0150 44.9300   1
 -11  15   7 10.9850 15.3932   1
  -6  14   7 275.358 33.2817  -2
  -8  15   7 275.358 33.2817   1
  -9  14   7 339.037 36.0258  -2
  -5  15   7 339.037 36.0258   1
  -2  15   7 102.102 18.1450   1
   1  15   7 14.9646 15.7756   1
   4  15   7 163.316 31.8179   1
   4  15   7 195.742 30.9449  -2
 -19  16   7 195.742 30.9449   1
   1  15   7 58.1156 24.7692  -2
 -16  16   7 58.1156 24.7692   1
  -2  15   7 90.4508 26.3733  -2
 -13  16   7 90.4508 26.3733   1
 -10  16   7 241.421 32.2462   1
  -8  15   7 957.386 78.0514  -2
  -7  16   7 957.386 78.0514   1
  -4  16   7 475.694 43.3674   1
 -16  16   7 13.9793 52.7910  -2
  -1  16   7 13.9793 52.7910   1
   2  16   7 -20.922 30.6407   1
   2  16   7 140.652 28.6103  -2
 -18  17   7 140.652 28.6103   1
  -3  17   7 0.79989 44.6065  -2
 -15  17   7 0.79989 44.6065   1
  -1  16   7 163.941 28.6610  -2
 -15  17   7 163.941 28.6610   1
  -4  16   7 430.157 42.9257  -2
 -12  17   7 430.157 42.9257   1
 -10  16   7 488.591 46.5929  -2
  -6  17   7 488.591 46.5929   1
 -15  17   7 113.622 53.4767  -2
  -3  17   7 113.622 53.4767   1
 -13  16   7 110.720 32.2792  -2
  -3  17   7 110.720 32.2792   1
   0  17   7 13.6797 12.4913   1
   0  17   7 99.7580 26.5848  -2
 -17  18   7 99.7580 26.5848   1
  -5  18   7 -52.777 42.9826  -2
 -14  18   7 -52.777 42.9826   1
  -3  17   7 76.8490 25.7416  -2
 -14  18   7 76.8490 25.7416   1
  -6  17   7 156.311 28.8130  -2
 -11  18   7 156.311 28.8130   1
  -8  18   7 149.381 47.5647  -2
 -11  18   7 149.381 47.5647   1
 -12  17   7 108.179 31.5839  -2
  -5  18   7 108.179 31.5839   1
  -2  18   7 95.3159 26.7336  -2
 -16  19   7 95.3159 26.7336   1
  -5  18   7 62.2518 25.1734  -2
 -13  19   7 62.2518 25.1734   1
  -7  19   7 86.4692 46.3347  -2
 -13  19   7 86.4692 46.3347   1
  -8  18   7 348.024 39.3933  -2
 -10  19   7 348.024 39.3933   1
 -10  19   7 328.763 52.2945  -2
 -10  19   7 328.763 52.2945   1
 -16  19   7 83.9828 42.5670  -2
  -4  19   7 83.9828 42.5670   1
  -9  20   7 8.77124 46.5961  -2
 -12  20   7 8.77124 46.5961   1
  -7  19   7 255.321 33.7542  -2
 -12  20   7 255.321 33.7542   1
 -10  19   7 275.391 38.1410  -2
  -9  20   7 275.391 38.1410   1
  -6  20   7 17.6248 20.9272   1
   1   2   8 266.109 75.6766  -2
  -4   3   8 266.109 75.6766   1
 -10   6   8 81.4805 22.3230  -2
   4   5   8 81.4805 22.3230   1
  -8   8   8 376.811 32.5587  -2
   0   7   8 376.811 32.5587   1
  -7   9   8 111.780 23.1986  -2
  -2   8   8 111.780 23.1986   1
   4   8   8 107.559 49.1987  -2
 -13   9   8 107.559 49.1987   1
  -9  10   8 153.580 28.3556  -2
  -1   9   8 153.580 28.3556   1
  -8  11   8 447.543 28.1382  -2
  -3  10   8 447.543 28.1382   1
  -4  12   8 161.349 31.1474  -2
  -8  11   8 161.349 31.1474   1
 -10  12   8 49.7174 26.2998  -2
  -2  11   8 49.7174 26.2998   1
 -13  12   8 26.0476 13.5991   1
  -3  13   8 208.615 33.7010  -2
 -10  12   8 208.615 33.7010   1
 -12  13   8 97.1001 28.6969  -2
  -1  12   8 97.1001 28.6969   1
 -12  13   8 11.1951 12.9903   1
  -5  14   8 34.7120 26.9520  -2
  -9  13   8 34.7120 26.9520   1
 -10  12   8 133.093 46.1997  -2
  -3  13   8 133.093 46.1997   1
  -8  14   8 -4.2101 11.3476   1
  -5  14   8 -2.1923 8.25243   1
  -7  15   8 24.0766 11.3811   1
   0   0   0    0.00    0.00   0
;
_shelx_hkl_checksum              15928
_olex2_submission_special_instructions 'No special instructions were received'
loop_
_space_group_symop_operation_xyz
'x, y, z'
'-y, x-y, z'
'-x+y, -x, z'
'x+2/3, y+1/3, z+1/3'
'-y+2/3, x-y+1/3, z+1/3'
'-x+y+2/3, -x+1/3, z+1/3'
'x+1/3, y+2/3, z+2/3'
'-y+1/3, x-y+2/3, z+2/3'
'-x+y+1/3, -x+2/3, z+2/3'
'-x, -y, -z'
'y, -x+y, -z'
'x-y, x, -z'
'-x+2/3, -y+1/3, -z+1/3'
'y+2/3, -x+y+1/3, -z+1/3'
'x-y+2/3, x+1/3, -z+1/3'
'-x+1/3, -y+2/3, -z+2/3'
'y+1/3, -x+y+2/3, -z+2/3'
'x-y+1/3, x+2/3, -z+2/3'
loop_
_atom_site_label
_atom_site_type_symbol
_atom_site_fract_x
_atom_site_fract_y
_atom_site_fract_z
_atom_site_U_iso_or_equiv
_atom_site_adp_type
_atom_site_occupancy
_atom_site_site_symmetry_order
_atom_site_calc_flag
_atom_site_refinement_flags_posn
_atom_site_refinement_flags_occupancy
Co1 Co 0.69936(3) 0.71740(3) 0.18847(11) 0.01195(19) Uani 1 1 d . .
O1 O 0.64542(15) 0.72645(15) -0.0024(5) 0.0136(8) Uani 1 1 d . .
O2 O 0.62855(15) 0.63835(15) 0.3117(5) 0.0129(8) Uani 1 1 d . .
O3 O 0.69726(16) 0.76971(16) 0.4049(6) 0.0161(8) Uani 1 1 d . .
C1 C 0.5551(2) 0.5453(2) 0.5788(8) 0.0156(11) Uani 1 1 d . .
C2 C 0.5409(2) 0.5477(2) 0.3813(8) 0.0176(12) Uani 1 1 d . .
C3 C 0.4862(2) 0.5024(2) 0.3088(8) 0.0173(11) Uani 1 1 d . .
H3 H 0.476659 0.504315 0.176031 0.021 Uiso 1 1 calc R .
C4 C 0.5797(2) 0.5959(2) 0.2448(8) 0.0143(11) Uani 1 1 d . .
C5 C 0.5077(3) 0.6364(4) 0.8005(11) 0.043(2) Uani 0.946 1 d D P
H5A H 0.507(3) 0.652(2) 0.930(3) 0.065 Uiso 0.946 1 d DR P
H5B H 0.484(2) 0.5932(11) 0.813(7) 0.065 Uiso 0.946 1 d DR P
C6 C 0.5363(3) 0.6679(3) 0.6453(11) 0.0349(17) Uani 0.946 1 d D P
H6A H 0.557(3) 0.7116(11) 0.631(7) 0.052 Uiso 0.946 1 d DR P
H6B H 0.537(3) 0.653(2) 0.516(4) 0.052 Uiso 0.946 1 d DR P
loop_
_atom_site_aniso_label
_atom_site_aniso_U_11
_atom_site_aniso_U_22
_atom_site_aniso_U_33
_atom_site_aniso_U_23
_atom_site_aniso_U_13
_atom_site_aniso_U_12
Co1 0.0147(4) 0.0123(3) 0.0097(3) -0.0004(3) -0.0005(3) 0.0074(3)
O1 0.0191(19) 0.0090(17) 0.0124(18) 0.0015(14) -0.0021(15) 0.0067(15)
O2 0.0107(17) 0.0153(18) 0.0090(19) -0.0010(14) -0.0005(14) 0.0037(14)
O3 0.0200(19) 0.0157(18) 0.013(2) 0.0017(15) 0.0003(16) 0.0095(16)
C1 0.012(2) 0.018(3) 0.016(3) 0.000(2) 0.001(2) 0.006(2)
C2 0.019(3) 0.016(3) 0.016(3) 0.003(2) 0.001(2) 0.007(2)
C3 0.018(3) 0.017(3) 0.015(3) 0.001(2) 0.000(2) 0.006(2)
C4 0.013(2) 0.016(3) 0.014(3) -0.001(2) -0.001(2) 0.008(2)
C5 0.032(4) 0.064(6) 0.045(5) 0.008(4) -0.002(4) 0.033(4)
C6 0.026(4) 0.035(4) 0.045(5) -0.003(4) 0.003(3) 0.016(3)
loop_
_atom_type_symbol
_atom_type_description
_atom_type_scat_dispersion_real
_atom_type_scat_dispersion_imag
_atom_type_scat_source
C C 0.0030 0.0020
'ANOMDisVal Program in PLATON Spek, A. L. J. Appl. Crystallogr. 2003, 36, 7-13'
H H 0.0000 0.0000
'ANOMDisVal Program in PLATON Spek, A. L. J. Appl. Crystallogr. 2003, 36, 7-13'
Co Co 0.3480 0.9240
'ANOMDisVal Program in PLATON Spek, A. L. J. Appl. Crystallogr. 2003, 36, 7-13'
O O 0.0100 0.0060
'ANOMDisVal Program in PLATON Spek, A. L. J. Appl. Crystallogr. 2003, 36, 7-13'
loop_
_geom_angle_atom_site_label_1
_geom_angle_atom_site_label_2
_geom_angle_atom_site_label_3
_geom_angle
_geom_angle_site_symmetry_1
_geom_angle_site_symmetry_3
O1 Co1 O1 163.47(16) . 6_565
O1 Co1 O2 80.82(13) 6_565 .
O1 Co1 O2 81.58(14) . 8_654
O1 Co1 O2 93.38(14) . .
O1 Co1 O2 82.27(14) 6_565 8_654
O1 Co1 O3 98.71(14) . .
O1 Co1 O3 97.04(15) 6_565 .
O2 Co1 O2 81.85(4) 8_654 .
O3 Co1 O2 92.88(14) . .
O3 Co1 O2 174.74(14) . 8_654
Co1 O1 Co1 98.06(14) . 8_654
C1 O1 Co1 125.3(3) 6_564 .
C1 O1 Co1 124.3(3) 6_564 8_654
Co1 O2 Co1 92.34(13) 6_565 .
C4 O2 Co1 133.7(3) . .
C4 O2 Co1 128.2(3) . 6_565
C4 O3 Co1 125.4(3) 6_565 .
O1 C1 C2 124.1(5) 8_655 .
O1 C1 C3 117.7(5) 8_655 10_666
C3 C1 C2 118.2(5) 10_666 .
C1 C2 C4 124.5(5) . .
C3 C2 C1 118.6(5) . .
C3 C2 C4 116.9(5) . .
C1 C3 C2 123.2(5) 10_666 .
C1 C3 H3 118.4 10_666 .
C2 C3 H3 118.4 . .
O2 C4 C2 117.2(5) . .
O3 C4 O2 122.7(5) 8_654 .
O3 C4 C2 120.1(5) 8_654 .
H5A C5 H5B 105(4) . .
C6 C5 H5A 127(3) . .
C6 C5 H5B 128(3) . .
C5 C6 H6A 127(3) . .
C5 C6 H6B 128(3) . .
H6A C6 H6B 105(4) . .
loop_
_geom_bond_atom_site_label_1
_geom_bond_atom_site_label_2
_geom_bond_distance
_geom_bond_site_symmetry_2
Co1 O1 2.003(4) .
Co1 O1 2.004(3) 6_565
Co1 O2 2.082(3) 8_654
Co1 O2 2.112(4) .
Co1 O3 2.021(4) .
O1 C1 1.347(6) 6_564
O2 C4 1.269(6) .
O3 C4 1.250(7) 6_565
C1 C2 1.411(8) .
C1 C3 1.386(7) 10_666
C2 C3 1.396(7) .
C2 C4 1.473(7) .
C3 H3 0.9500 .
C5 H5A 0.98(2) .
C5 H5B 0.97(2) .
C5 C6 1.316(5) .
C6 H6A 0.979(19) .
C6 H6B 0.97(2) .
loop_
_geom_torsion_atom_site_label_1
_geom_torsion_atom_site_label_2
_geom_torsion_atom_site_label_3
_geom_torsion_atom_site_label_4
_geom_torsion
_geom_torsion_site_symmetry_1
_geom_torsion_site_symmetry_4
Co1 O2 C4 O3 -0.2(8) . 8_654
Co1 O2 C4 O3 -145.7(4) 6_565 8_654
Co1 O2 C4 C2 35.0(6) 6_565 .
Co1 O2 C4 C2 -179.5(3) . .
O1 C1 C2 C3 178.7(5) 8_655 .
O1 C1 C2 C4 -2.7(9) 8_655 .
C1 C2 C3 C1 -0.4(9) . 10_666
C1 C2 C4 O2 -1.1(8) . .
C1 C2 C4 O3 179.6(5) . 8_654
C3 C1 C2 C3 0.4(9) 10_666 .
C3 C1 C2 C4 179.0(5) 10_666 .
C3 C2 C4 O2 177.5(5) . .
C3 C2 C4 O3 -1.8(8) . 8_654
C4 C2 C3 C1 -179.1(5) . 10_666
loop_
_twin_individual_id
_twin_individual_mass_fraction_refined
1 0.570(2)
2 0.430(2)
