#------------------------------------------------------------------------------
#$Date: 2017-09-12 06:33:31 +0300 (Tue, 12 Sep 2017) $
#$Revision: 200657 $
#$URL: file:///home/coder/svn-repositories/cod/cif/4/12/61/4126192.cif $
#------------------------------------------------------------------------------
#
# This file is available in the Crystallography Open Database (COD),
# http://www.crystallography.net/
#
# All data on this site have been placed in the public domain by the
# contributors.
#
data_4126192
loop_
_publ_author_name
'Xia, Qingchun'
'Li, Zijian'
'Tan, Chunxia'
'Liu, Yan'
'Gong, Wei'
'Cui, Yong'
_publ_section_title
;
 Multivariate Metal-Organic Frameworks as Multifunctional Heterogeneous
 Asymmetric Catalysts for Sequential Reactions.
;
_journal_issue                   24
_journal_name_full               'Journal of the American Chemical Society'
_journal_page_first              8259
_journal_page_last               8266
_journal_paper_doi               10.1021/jacs.7b03113
_journal_volume                  139
_journal_year                    2017
_chemical_absolute_configuration rmad
_chemical_formula_moiety         'C720 H816 Cu24 N48 O152 Zn32'
_chemical_formula_sum            'C720 H816 Cu24 N48 O152 Zn32'
_chemical_formula_weight         16190.96
_chemical_name_systematic
;
 ?
;
_space_group_crystal_system      cubic
_space_group_IT_number           210
_space_group_name_Hall           'F 4d 2 3'
_space_group_name_H-M_alt        'F 41 3 2'
_symmetry_space_group_name_Hall  'F 4d 2 3'
_symmetry_space_group_name_H-M   'F 41 3 2'
_atom_sites_solution_hydrogens   geom
_audit_creation_date             2016-10-14
_audit_creation_method
;
Olex2 1.2
(compiled 2016.09.09 svn.r3337 for OlexSys, GUI svn.r5227)
;
_cell_angle_alpha                90
_cell_angle_beta                 90
_cell_angle_gamma                90
_cell_formula_units_Z            2
_cell_length_a                   41.7868(4)
_cell_length_b                   41.7868(4)
_cell_length_c                   41.7868(4)
_cell_measurement_reflns_used    9936
_cell_measurement_temperature    296(2)
_cell_measurement_theta_max      66.96
_cell_measurement_theta_min      2.99
_cell_volume                     72965.5(12)
_computing_molecular_graphics    'Olex2 (Dolomanov et al., 2009)'
_computing_publication_material  'Olex2 (Dolomanov et al., 2009)'
_computing_structure_refinement  'ShelXL (Sheldrick, 2015)'
_diffrn_ambient_temperature      296.15
_diffrn_measured_fraction_theta_full 0.996
_diffrn_measured_fraction_theta_max 0.995
_diffrn_measurement_device_type  'CCD area detector'
_diffrn_measurement_method       'phi and omega scans'
_diffrn_radiation_monochromator  graphite
_diffrn_radiation_type           CuK\a
_diffrn_radiation_wavelength     1.54178
_diffrn_reflns_av_R_equivalents  0.0537
_diffrn_reflns_av_unetI/netI     0.0290
_diffrn_reflns_Laue_measured_fraction_full 0.996
_diffrn_reflns_Laue_measured_fraction_max 0.995
_diffrn_reflns_limit_h_max       33
_diffrn_reflns_limit_h_min       -48
_diffrn_reflns_limit_k_max       39
_diffrn_reflns_limit_k_min       -44
_diffrn_reflns_limit_l_max       38
_diffrn_reflns_limit_l_min       -34
_diffrn_reflns_number            43506
_diffrn_reflns_point_group_measured_fraction_full 0.995
_diffrn_reflns_point_group_measured_fraction_max 0.993
_diffrn_reflns_theta_full        63.274
_diffrn_reflns_theta_max         63.274
_diffrn_reflns_theta_min         2.991
_exptl_absorpt_coefficient_mu    1.240
_exptl_absorpt_correction_type   none
_exptl_crystal_colour            blue
_exptl_crystal_density_diffrn    0.737
_exptl_crystal_description       block
_exptl_crystal_F_000             16688
_exptl_crystal_size_max          0.12
_exptl_crystal_size_mid          0.11
_exptl_crystal_size_min          0.06
_refine_diff_density_max         1.761
_refine_diff_density_min         -0.833
_refine_diff_density_rms         0.161
_refine_ls_abs_structure_details
;
 Flack x determined using 912 quotients [(I+)-(I-)]/[(I+)+(I-)]
 (Parsons, Flack and Wagner, Acta Cryst. B69 (2013) 249-259).
;
_refine_ls_abs_structure_Flack   0.17(4)
_refine_ls_extinction_method     none
_refine_ls_goodness_of_fit_ref   1.566
_refine_ls_hydrogen_treatment    constr
_refine_ls_matrix_type           full
_refine_ls_number_parameters     310
_refine_ls_number_reflns         4964
_refine_ls_number_restraints     1051
_refine_ls_restrained_S_all      1.551
_refine_ls_R_factor_all          0.1709
_refine_ls_R_factor_gt           0.1242
_refine_ls_shift/su_max          0.001
_refine_ls_shift/su_mean         0.000
_refine_ls_structure_factor_coef Fsqd
_refine_ls_weighting_details
'w=1/[\s^2^(Fo^2^)+(0.2000P)^2^] where P=(Fo^2^+2Fc^2^)/3'
_refine_ls_weighting_scheme      calc
_refine_ls_wR_factor_gt          0.3640
_refine_ls_wR_factor_ref         0.4225
_reflns_Friedel_coverage         0.701
_reflns_Friedel_fraction_full    0.993
_reflns_Friedel_fraction_max     0.991
_reflns_number_gt                2764
_reflns_number_total             4964
_reflns_threshold_expression     'I > 2\s(I)'
_iucr_refine_instructions_details
;

    x.res created by SHELXL-2014/7

TITL x in F4(1)32
rem sadi 0.02 O3 C4 O3 C4A O4 C7 O4 C7A
CELL 1.54178 41.7868 41.7868 41.7868 90 90 90
ZERR 2 0.0004 0.0004 0.0004 0 0 0
LATT -4
SYMM -X,0.5-Y,0.5+Z
SYMM 0.5-X,0.5+Y,-Z
SYMM 0.5+X,-Y,0.5-Z
SYMM +Z,+X,+Y
SYMM 0.5+Z,-X,0.5-Y
SYMM -Z,0.5-X,0.5+Y
SYMM 0.5-Z,0.5+X,-Y
SYMM +Y,+Z,+X
SYMM 0.5-Y,0.5+Z,-X
SYMM 0.5+Y,-Z,0.5-X
SYMM -Y,0.5-Z,0.5+X
SYMM 0.75+Y,0.25+X,0.75-Z
SYMM 0.25-Y,0.25-X,0.25-Z
SYMM 0.25+Y,0.75-X,0.75+Z
SYMM 0.75-Y,0.75+X,0.25+Z
SYMM 0.75+X,0.25+Z,0.75-Y
SYMM 0.75-X,0.75+Z,0.25+Y
SYMM 0.25-X,0.25-Z,0.25-Y
SYMM 0.25+X,0.75-Z,0.75+Y
SYMM 0.75+Z,0.25+Y,0.75-X
SYMM 0.25+Z,0.75-Y,0.75+X
SYMM 0.75-Z,0.75+Y,0.25+X
SYMM 0.25-Z,0.25-Y,0.25-X
SFAC C H Cu N O Zn
UNIT 1440 1632 48 96 304 64
DFIX 1.25 N1 C11 N2 C12
DFIX 1.4 C1 C2 C9 C10
DFIX 1.5 C4 C11 C7 C12
DFIX 1.524 C13 C14 C14 C15 C15 C16 C16 C17 C17 C18 C18 C13
DFIX 1.42 N1 C13 N2 C14
DFIX 1.32 0.01 C5 O3 C6 O4
DFIX 2 N1 O3
DFIX 2.4 O3 C4
DFIX 2.4 O3 C4A
DFIX 2.4 O4 C7
DFIX 2.4 O4 C7A
DFIX 2.45 C6 C23 C5 C19
DFIX 2.45 C20 C21 C20 C22 C21 C22 C24 C25 C24 C26 C25 C26 C4A C20 C4A C21 =
 C4A C22 C7A C24 C7A C25 C7A C26
DFIX 1.53 C4A C19 C7A C23 C19 C20 C19 C21 C19 C22 C23 C24 C23 C25 C23 C26
SADI C19 C3A C19 C5 C23 C6 C23 C8A
FLAT C2 C3 C4 C5 C4A C3A C19 C11 O3
FLAT C6 C7 C8 C9 C7A C8A C23 C12 O4
SIMU 0.03 0.04 3.8 $n $c $o
 
L.S. 10
PLAN  10
TEMP 23
BOND $h
MORE -1
CONF
fmap 2
acta
REM <olex2.extras>
REM <HklSrc "%.\\x.hkl">
REM </olex2.extras>
 
WGHT    0.200000
FVAR       0.01303
ZN1   6    0.973280    0.973280    0.473280    10.33333    0.06104    0.06104 =
         0.06104   -0.00404   -0.00404   -0.00404
ZN2   6    1.026674    0.526674    0.526674    10.33333    0.05837    0.05837 =
         0.05837   -0.00243   -0.00243   -0.00243
O1    5    0.981374    0.928556    0.481663    11.00000    0.14956    0.05146 =
         0.15861    0.00436   -0.03795   -0.00458
O2    5    1.019284    0.571757    0.518285    11.00000    0.12917    0.05228 =
         0.12652   -0.00496   -0.02906   -0.00647
O5    5    1.000000    1.000000    0.500000    10.08333    0.05764    0.05764 =
         0.05764    0.00000    0.00000    0.00000
O6    5    1.000000    0.500000    0.500000    10.08333    0.05172    0.05172 =
         0.05172    0.00000    0.00000    0.00000
C1    1    1.000000    0.914532    0.500000    10.50000    0.15593    0.04972 =
         0.17320    0.00000   -0.03150    0.00000
C10   1    1.000000    0.585755    0.500000    10.50000    0.14379    0.04623 =
         0.11069    0.00000   -0.01423    0.00000
PART -1
AFIX  66
C2    1    0.993601    0.879450    0.499908    10.50000    0.17729    0.04488 =
         0.19926    0.01133   -0.07608   -0.00055
C3    1    1.015668    0.861067    0.516688    10.50000    0.17788    0.05741 =
         0.21702    0.00114   -0.08029   -0.01429
AFIX  43
H3    2    1.032055    0.870963    0.528040    10.50000   -1.20000
AFIX  65
C4    1    1.013243    0.827892    0.516503    10.50000    0.19148    0.06843 =
         0.22887    0.00610   -0.07522   -0.00434
C5    1    0.988751    0.813100    0.499537    10.50000    0.19748    0.06318 =
         0.23431   -0.00257   -0.07978   -0.00185
C4A   1    0.966684    0.831483    0.482756    10.50000    0.20298    0.07586 =
         0.23627    0.00514   -0.06999   -0.00307
C3A   1    0.969109    0.864658    0.482942    10.50000    0.19424    0.06610 =
         0.22438    0.01374   -0.07263   -0.01239
AFIX  43
H3A   2    0.954344    0.876958    0.471714    10.50000   -1.20000
AFIX  66
C6    1    1.001679    0.686333    0.485970    10.50000    0.25269    0.05847 =
         0.16827    0.02256   -0.08700    0.00240
C7    1    1.019833    0.672227    0.510011    10.50000    0.21300    0.05390 =
         0.14854    0.01356   -0.08675   -0.01114
C8    1    1.019171    0.639230    0.514164    10.50000    0.20352    0.04927 =
         0.14776    0.01565   -0.08090   -0.00731
AFIX  43
H8    2    1.031317    0.629793    0.530249    10.50000   -1.20000
AFIX  65
C9    1    1.000355    0.620338    0.494276    10.50000    0.19787    0.05153 =
         0.13521    0.00969   -0.06793   -0.00768
C8A   1    0.982200    0.634443    0.470235    10.50000    0.22313    0.06356 =
         0.16923    0.01629   -0.06549   -0.00692
AFIX  43
H8A   2    0.969611    0.621803    0.456928    10.50000   -1.20000
AFIX  65
C7A   1    0.982863    0.667440    0.466082    10.50000    0.22761    0.07896 =
         0.18042    0.02632   -0.07489   -0.00703
AFIX   0
CU1   3    1.015750    0.750228    0.513272    10.50000    0.26124    0.04926 =
         0.24606   -0.00302   -0.14821    0.00454
O3    5    0.986933    0.781547    0.503181    10.50000    0.21757    0.06618 =
         0.25849    0.00449   -0.05134   -0.01499
O4    5    1.001150    0.718342    0.484124    10.50000    0.26390    0.06771 =
         0.18162    0.00769   -0.09238    0.00180
N1    4    1.030393    0.780900    0.537267    10.50000    0.23795    0.07284 =
         0.22912   -0.00968   -0.08889   -0.02182
N2    4    1.043609    0.720637    0.533219    10.50000    0.21431    0.05461 =
         0.19785   -0.00010   -0.09413    0.00190
C11   1    1.038674    0.809388    0.532086    10.50000    0.19429    0.06701 =
         0.23321    0.00589   -0.09580   -0.01066
AFIX  43
H11   2    1.058584    0.817729    0.537503    10.50000   -1.20000
AFIX   0
C12   1    1.040177    0.690427    0.531563    10.50000    0.22235    0.06301 =
         0.19400    0.01404   -0.08888   -0.00074
AFIX  43
H12   2    1.052214    0.678476    0.545972    10.50000   -1.20000
AFIX   0
C13   1    1.049482    0.768920    0.563868    10.50000    0.23663    0.08903 =
         0.24482   -0.01581   -0.06867   -0.01391
AFIX  13
H13   2    1.032055    0.761197    0.577531    10.50000   -1.20000
AFIX   0
C15   1    1.091660    0.716076    0.569924    10.50000    0.23831    0.10544 =
         0.24490    0.00928   -0.09784    0.00613
AFIX  23
H15A  2    1.106336    0.709200    0.553306    10.50000   -1.20000
H15B  2    1.082809    0.697235    0.580198    10.50000   -1.20000
AFIX   0
C18   1    1.071153    0.783409    0.590123    10.50000    0.23828    0.10101 =
         0.22697   -0.00627   -0.08778    0.00083
AFIX  23
H18A  2    1.085290    0.798248    0.579223    10.50000   -1.20000
H18B  2    1.057218    0.796327    0.603455    10.50000   -1.20000
AFIX   0
C14   1    1.064438    0.736730    0.555297    10.50000    0.22620    0.08147 =
         0.23661    0.00617   -0.09645   -0.01532
AFIX  13
H14   2    1.078065    0.745696    0.538447    10.50000   -1.20000
AFIX   0
C16   1    1.109516    0.737272    0.594977    10.50000    0.24096    0.13514 =
         0.25580   -0.00662   -0.08271   -0.01278
AFIX  23
H16A  2    1.117974    0.722985    0.611200    10.50000   -1.20000
H16B  2    1.127772    0.746687    0.584163    10.50000   -1.20000
AFIX   0
C17   1    1.091967    0.764813    0.612760    10.50000    0.25614    0.11073 =
         0.24510   -0.00791   -0.08181   -0.01881
AFIX  23
H17A  2    1.078904    0.755951    0.629780    10.50000   -1.20000
H17B  2    1.107605    0.779035    0.622354    10.50000   -1.20000
AFIX   0
C19   1    0.941537    0.815752    0.463424    10.50000    0.21038    0.07363 =
         0.25434    0.00945   -0.07364   -0.00440
C20   1    0.920266    0.794397    0.483811    10.50000    0.23487    0.09651 =
         0.26534    0.01216   -0.05822   -0.03895
AFIX  33
H20A  2    0.904273    0.784607    0.470538    10.50000   -1.50000
H20B  2    0.933044    0.778072    0.493711    10.50000   -1.50000
H20C  2    0.910052    0.807030    0.500055    10.50000   -1.50000
AFIX   0
C21   1    0.954206    0.794491    0.437129    10.50000    0.21811    0.07257 =
         0.24360   -0.04023   -0.07721   -0.03020
AFIX  33
H21A  2    0.936610    0.785164    0.425676    10.50000   -1.50000
H21B  2    0.966992    0.806968    0.422685    10.50000   -1.50000
H21C  2    0.967076    0.777815    0.446297    10.50000   -1.50000
AFIX   0
C22   1    0.918886    0.840421    0.448686    10.50000    0.23943    0.12898 =
         0.26535   -0.01463   -0.09264   -0.02435
AFIX  33
H22A  2    0.902830    0.829633    0.436291    10.50000   -1.50000
H22B  2    0.908803    0.852516    0.465414    10.50000   -1.50000
H22C  2    0.930802    0.854604    0.435098    10.50000   -1.50000
AFIX   0
C23   1    0.964246    0.682240    0.439498    10.50000    0.25067    0.08897 =
         0.17989    0.01240   -0.06995   -0.00110
C24   1    0.937505    0.703797    0.452822    10.50000    0.27012    0.12861 =
         0.21078    0.04483   -0.08656    0.01677
AFIX  33
H24A  2    0.925783    0.713112    0.435397    10.50000   -1.50000
H24B  2    0.923282    0.691237    0.465773    10.50000   -1.50000
H24C  2    0.946776    0.720485    0.465603    10.50000   -1.50000
AFIX   0
C25   1    0.986496    0.704421    0.420238    10.50000    0.28607    0.11852 =
         0.18942    0.02371   -0.08085    0.00728
AFIX  33
H25A  2    0.974688    0.714064    0.403050    10.50000   -1.50000
H25B  2    0.994740    0.720846    0.434024    10.50000   -1.50000
H25C  2    1.003930    0.692183    0.411631    10.50000   -1.50000
AFIX   0
C26   1    0.948762    0.658718    0.417387    10.50000    0.28355    0.12458 =
         0.18111    0.02636   -0.09065    0.00838
AFIX  33
H26A  2    0.937288    0.670018    0.401002    10.50000   -1.50000
H26B  2    0.964896    0.645523    0.407725    10.50000   -1.50000
H26C  2    0.934166    0.645523    0.429245    10.50000   -1.50000
AFIX   0
HKLF 4
 
REM  x in F4(1)32
REM R1 =  0.1242 for    2764 Fo > 4sig(Fo)  and  0.1709 for all    4964 data
REM    310 parameters refined using   1051 restraints
 
END  
     
WGHT      0.2000      0.0000 

REM Highest difference peak  1.761,  deepest hole -0.833,  1-sigma level  0.161
Q1    1   0.9190  0.5810  0.4190  10.33333  0.05    0.84
Q2    1   1.0675  0.5675  0.4326  10.33333  0.05    0.71
Q3    1   0.9114  0.9114  0.4114  10.33333  0.05    0.63
Q4    1   0.8933  0.6067  0.3933  10.33333  0.05    0.58
Q5    1   1.0681  0.9284  0.4364  11.00000  0.05    0.55
Q6    1   1.0557  0.7300  0.4480  11.00000  0.05    0.55
Q7    1   1.0292  0.7181  0.4771  11.00000  0.05    0.54
Q8    1   1.0722  0.7139  0.4512  11.00000  0.05    0.52
Q9    1   1.0430  0.5430  0.4570  10.33333  0.05    0.52
Q10   1   1.0705  0.7183  0.4434  11.00000  0.05    0.52

  REM The information below was added by Olex2.
  REM
  REM R1 = 0.1242 for 2764 Fo > 4sig(Fo) and 0.1709 for all 43530 data
  REM n/a parameters refined using n/a restraints
  REM Highest difference peak 1.76, deepest hole -0.83
  REM Mean Shift 0, Max Shift 0.001.
  
  REM +++ Tabular Listing of Refinement Information +++
  REM R1_all = 0.1709
  REM R1_gt = 0.1242
  REM wR_ref = 0.4225
  REM GOOF = 1.566
  REM Shift_max = 0.001
  REM Shift_mean = 0
  REM Reflections_all = 43530
  REM Reflections_gt = 2764
  REM Parameters = n/a
  REM Hole = -0.83
  REM Peak = 1.76
  REM Flack = 0.47(4)
  
  
;
_cod_data_source_file            ja7b03113_si_002.cif
_cod_data_source_block           1-Cu
_cod_depositor_comments          'Adding full bibliography for 4126192.cif.'
_cod_original_cell_volume        72965(2)
_cod_database_code               4126192
_shelx_space_group_comment
;
The symmetry employed for this shelxl refinement is uniquely defined
by the following loop, which should always be used as a source of
symmetry information in preference to the above space-group names.
They are only intended as comments.
;
_olex2_refinement_description
;
1. Fixed Uiso
 At 1.2 times of:
  All C(H) groups, All C(H,H) groups
 At 1.5 times of:
  All C(H,H,H) groups
2. Restrained distances
 N1-C11 = N2-C12
 1.25 with sigma of 0.02
 C1-C2 = C9-C10
 1.4 with sigma of 0.02
 C4-C11 = C7-C12
 1.5 with sigma of 0.02
 C13-C14 = C14-C15 = C15-C16 = C16-C17 = C17-C18 = C18-C13
 1.524 with sigma of 0.02
 N1-C13 = N2-C14
 1.42 with sigma of 0.02
 C5-O3 = C6-O4
 1.32 with sigma of 0.01
 N1-O3
 2 with sigma of 0.02
 O3-C4
 2.4 with sigma of 0.02
 O3-C4A
 2.4 with sigma of 0.02
 O4-C7
 2.4 with sigma of 0.02
 O4-C7A
 2.4 with sigma of 0.02
 C6-C23 = C5-C19
 2.45 with sigma of 0.02
 C20-C21 = C20-C22 = C21-C22 = C24-C25 = C24-C26 = C25-C26 = C4A-C20 = C4A-C21
 = C4A-C22 = C7A-C24 = C7A-C25 = C7A-C26
 2.45 with sigma of 0.02
 C4A-C19 = C7A-C23 = C19-C20 = C19-C21 = C19-C22 = C23-C24 = C23-C25 = C23-C26
 1.53 with sigma of 0.02
 C19-C3A \\sim C19-C5 \\sim C23-C6 \\sim C23-C8A
 with sigma of 0.02
3. Restrained planarity
 C2, C3, C4, C5, C4A, C3A, C19, C11, O3
 with sigma of 0.1
 C6, C7, C8, C9, C7A, C8A, C23, C12, O4
 with sigma of 0.1
4. Uiso/Uaniso restraints and constraints
N1 \\sim N2 \\sim C1 \\sim C10 \\sim C2 \\sim C3 \\sim C4 \\sim C5 \\sim C4A
\\sim C3A \\sim C6 \\sim C7 \\sim C8 \\sim C9 \\sim C8A \\sim C7A \\sim C11
\\sim C12 \\sim C13 \\sim C15 \\sim C18 \\sim C14 \\sim C16 \\sim C17 \\sim C19
\\sim C20 \\sim C21 \\sim C22 \\sim C23 \\sim C24 \\sim C25 \\sim C26 \\sim O1
\\sim O2 \\sim O5 \\sim O6 \\sim O3 \\sim O4: within 3.8A with sigma of 0.03
and sigma for terminal atoms of 0.04
5. Others
 Fixed Sof: C2(0.5) C3(0.5) H3(0.5) C4(0.5) C5(0.5) C4A(0.5) C3A(0.5) H3A(0.5)
 C6(0.5) C7(0.5) C8(0.5) H8(0.5) C9(0.5) C8A(0.5) H8A(0.5) C7A(0.5) Cu1(0.5)
 O3(0.5) O4(0.5) N1(0.5) N2(0.5) C11(0.5) H11(0.5) C12(0.5) H12(0.5) C13(0.5)
 H13(0.5) C15(0.5) H15A(0.5) H15B(0.5) C18(0.5) H18A(0.5) H18B(0.5) C14(0.5)
 H14(0.5) C16(0.5) H16A(0.5) H16B(0.5) C17(0.5) H17A(0.5) H17B(0.5) C19(0.5)
 C20(0.5) H20A(0.5) H20B(0.5) H20C(0.5) C21(0.5) H21A(0.5) H21B(0.5) H21C(0.5)
 C22(0.5) H22A(0.5) H22B(0.5) H22C(0.5) C23(0.5) C24(0.5) H24A(0.5) H24B(0.5)
 H24C(0.5) C25(0.5) H25A(0.5) H25B(0.5) H25C(0.5) C26(0.5) H26A(0.5) H26B(0.5)
 H26C(0.5)
6.a Ternary CH refined with riding coordinates:
 C13(H13), C14(H14)
6.b Secondary CH2 refined with riding coordinates:
 C15(H15A,H15B), C18(H18A,H18B), C16(H16A,H16B), C17(H17A,H17B)
6.c Me refined with riding coordinates:
 C20(H20A,H20B,H20C), C21(H21A,H21B,H21C), C22(H22A,H22B,H22C), C24(H24A,H24B,
 H24C), C25(H25A,H25B,H25C), C26(H26A,H26B,H26C)
6.d Aromatic/amide H refined with riding coordinates:
 C3(H3), C3A(H3A), C8(H8), C8A(H8A), C11(H11), C12(H12)
6.e Fitted hexagon refined as free rotating group:
 C2(C3,C4,C5,C4A,C3A), C6(C7,C8,C9,C8A,C7A)
;
_shelx_shelxl_version_number     2014/7
_olex2_submission_special_instructions 'No special instructions were received'
loop_
_space_group_symop_operation_xyz
'x, y, z'
'-x, -y+1/2, z+1/2'
'-x+1/2, y+1/2, -z'
'x+1/2, -y, -z+1/2'
'z, x, y'
'z+1/2, -x, -y+1/2'
'-z, -x+1/2, y+1/2'
'-z+1/2, x+1/2, -y'
'y, z, x'
'-y+1/2, z+1/2, -x'
'y+1/2, -z, -x+1/2'
'-y, -z+1/2, x+1/2'
'y+3/4, x+1/4, -z+3/4'
'-y+1/4, -x+1/4, -z+1/4'
'y+1/4, -x+3/4, z+3/4'
'-y+3/4, x+3/4, z+1/4'
'x+3/4, z+1/4, -y+3/4'
'-x+3/4, z+3/4, y+1/4'
'-x+1/4, -z+1/4, -y+1/4'
'x+1/4, -z+3/4, y+3/4'
'z+3/4, y+1/4, -x+3/4'
'z+1/4, -y+3/4, x+3/4'
'-z+3/4, y+3/4, x+1/4'
'-z+1/4, -y+1/4, -x+1/4'
'x, y+1/2, z+1/2'
'-x, -y+1, z+1'
'-x+1/2, y+1, -z+1/2'
'x+1/2, -y+1/2, -z+1'
'z, x+1/2, y+1/2'
'z+1/2, -x+1/2, -y+1'
'-z, -x+1, y+1'
'-z+1/2, x+1, -y+1/2'
'y, z+1/2, x+1/2'
'-y+1/2, z+1, -x+1/2'
'y+1/2, -z+1/2, -x+1'
'-y, -z+1, x+1'
'y+3/4, x+3/4, -z+5/4'
'-y+1/4, -x+3/4, -z+3/4'
'y+1/4, -x+5/4, z+5/4'
'-y+3/4, x+5/4, z+3/4'
'x+3/4, z+3/4, -y+5/4'
'-x+3/4, z+5/4, y+3/4'
'-x+1/4, -z+3/4, -y+3/4'
'x+1/4, -z+5/4, y+5/4'
'z+3/4, y+3/4, -x+5/4'
'z+1/4, -y+5/4, x+5/4'
'-z+3/4, y+5/4, x+3/4'
'-z+1/4, -y+3/4, -x+3/4'
'x+1/2, y, z+1/2'
'-x+1/2, -y+1/2, z+1'
'-x+1, y+1/2, -z+1/2'
'x+1, -y, -z+1'
'z+1/2, x, y+1/2'
'z+1, -x, -y+1'
'-z+1/2, -x+1/2, y+1'
'-z+1, x+1/2, -y+1/2'
'y+1/2, z, x+1/2'
'-y+1, z+1/2, -x+1/2'
'y+1, -z, -x+1'
'-y+1/2, -z+1/2, x+1'
'y+5/4, x+1/4, -z+5/4'
'-y+3/4, -x+1/4, -z+3/4'
'y+3/4, -x+3/4, z+5/4'
'-y+5/4, x+3/4, z+3/4'
'x+5/4, z+1/4, -y+5/4'
'-x+5/4, z+3/4, y+3/4'
'-x+3/4, -z+1/4, -y+3/4'
'x+3/4, -z+3/4, y+5/4'
'z+5/4, y+1/4, -x+5/4'
'z+3/4, -y+3/4, x+5/4'
'-z+5/4, y+3/4, x+3/4'
'-z+3/4, -y+1/4, -x+3/4'
'x+1/2, y+1/2, z'
'-x+1/2, -y+1, z+1/2'
'-x+1, y+1, -z'
'x+1, -y+1/2, -z+1/2'
'z+1/2, x+1/2, y'
'z+1, -x+1/2, -y+1/2'
'-z+1/2, -x+1, y+1/2'
'-z+1, x+1, -y'
'y+1/2, z+1/2, x'
'-y+1, z+1, -x'
'y+1, -z+1/2, -x+1/2'
'-y+1/2, -z+1, x+1/2'
'y+5/4, x+3/4, -z+3/4'
'-y+3/4, -x+3/4, -z+1/4'
'y+3/4, -x+5/4, z+3/4'
'-y+5/4, x+5/4, z+1/4'
'x+5/4, z+3/4, -y+3/4'
'-x+5/4, z+5/4, y+1/4'
'-x+3/4, -z+3/4, -y+1/4'
'x+3/4, -z+5/4, y+3/4'
'z+5/4, y+3/4, -x+3/4'
'z+3/4, -y+5/4, x+3/4'
'-z+5/4, y+5/4, x+1/4'
'-z+3/4, -y+3/4, -x+1/4'
loop_
_atom_site_label
_atom_site_type_symbol
_atom_site_fract_x
_atom_site_fract_y
_atom_site_fract_z
_atom_site_U_iso_or_equiv
_atom_site_adp_type
_atom_site_occupancy
_atom_site_site_symmetry_order
_atom_site_calc_flag
_atom_site_refinement_flags_posn
_atom_site_refinement_flags_adp
_atom_site_refinement_flags_occupancy
_atom_site_disorder_assembly
_atom_site_disorder_group
Zn1 Zn 0.97328(2) 0.97328(2) 0.47328(2) 0.0610(8) Uani 1 3 d S T P . .
Zn2 Zn 1.02667(2) 0.52667(2) 0.52667(2) 0.0584(8) Uani 1 3 d S T P . .
O1 O 0.9814(3) 0.92856(15) 0.4817(3) 0.120(3) Uani 1 1 d . U . . .
O2 O 1.0193(3) 0.57176(14) 0.5183(3) 0.103(2) Uani 1 1 d . U . . .
O5 O 1.0000 1.0000 0.5000 0.058(4) Uani 1 12 d S TU P . .
O6 O 1.0000 0.5000 0.5000 0.052(3) Uani 1 12 d S TU P . .
C1 C 1.0000 0.9145(3) 0.5000 0.126(5) Uani 1 2 d DS TU P . .
C10 C 1.0000 0.5858(3) 0.5000 0.100(4) Uani 1 2 d DS TU P . .
C2 C 0.9936(7) 0.8795(2) 0.4999(9) 0.140(6) Uani 0.5 1 d D U . A -1
C3 C 1.0157(6) 0.8611(3) 0.5167(8) 0.151(6) Uani 0.5 1 d G U . A -1
H3 H 1.0321 0.8710 0.5280 0.181 Uiso 0.5 1 calc R . . A -1
C4 C 1.0132(5) 0.8279(3) 0.5165(6) 0.163(7) Uani 0.5 1 d DG U . A -1
C5 C 0.9888(5) 0.8131(2) 0.4995(6) 0.165(7) Uani 0.5 1 d DG U . A -1
C4A C 0.9667(4) 0.8315(3) 0.4828(6) 0.172(7) Uani 0.5 1 d DG U . A -1
C3A C 0.9691(6) 0.8647(3) 0.4829(8) 0.162(7) Uani 0.5 1 d DG U . A -1
H3A H 0.9543 0.8770 0.4717 0.194 Uiso 0.5 1 calc R . . A -1
C6 C 1.0017(5) 0.6863(2) 0.4860(4) 0.160(7) Uani 0.5 1 d D U . A -1
C7 C 1.0198(5) 0.6722(3) 0.5100(4) 0.138(6) Uani 0.5 1 d DG U . A -1
C8 C 1.0192(7) 0.6392(3) 0.5142(5) 0.134(6) Uani 0.5 1 d G U . A -1
H8 H 1.0313 0.6298 0.5302 0.160 Uiso 0.5 1 calc R . . A -1
C9 C 1.0004(8) 0.6203(2) 0.4943(6) 0.128(6) Uani 0.5 1 d DG U . A -1
C8A C 0.9822(7) 0.6344(3) 0.4702(5) 0.152(7) Uani 0.5 1 d DG U . A -1
H8A H 0.9696 0.6218 0.4569 0.182 Uiso 0.5 1 calc R . . A -1
C7A C 0.9829(5) 0.6674(3) 0.4661(4) 0.162(7) Uani 0.5 1 d DG U . A -1
Cu1 Cu 1.01575(10) 0.75023(7) 0.51327(10) 0.186(3) Uani 0.5 1 d . . . A -1
O3 O 0.9869(5) 0.7815(3) 0.5032(6) 0.181(6) Uani 0.5 1 d D U . A -1
O4 O 1.0011(6) 0.7183(3) 0.4841(5) 0.171(6) Uani 0.5 1 d D U . A -1
N1 N 1.0304(7) 0.7809(5) 0.5373(8) 0.180(7) Uani 0.5 1 d D U . A -1
N2 N 1.0436(7) 0.7206(4) 0.5332(7) 0.156(6) Uani 0.5 1 d D U . A -1
C11 C 1.0387(7) 0.8094(5) 0.5321(9) 0.165(7) Uani 0.5 1 d D U . A -1
H11 H 1.0586 0.8177 0.5375 0.198 Uiso 0.5 1 calc R . . A -1
C12 C 1.0402(8) 0.6904(5) 0.5316(8) 0.160(7) Uani 0.5 1 d D U . A -1
H12 H 1.0522 0.6785 0.5460 0.192 Uiso 0.5 1 calc R . . A -1
C13 C 1.0495(9) 0.7689(7) 0.5639(8) 0.190(7) Uani 0.5 1 d D U . A -1
H13 H 1.0321 0.7612 0.5775 0.228 Uiso 0.5 1 calc R . . A -1
C15 C 1.0917(9) 0.7161(7) 0.5699(10) 0.196(9) Uani 0.5 1 d D U . A -1
H15A H 1.1063 0.7092 0.5533 0.235 Uiso 0.5 1 calc R . . A -1
H15B H 1.0828 0.6972 0.5802 0.235 Uiso 0.5 1 calc R . . A -1
C18 C 1.0712(10) 0.7834(7) 0.5901(9) 0.189(8) Uani 0.5 1 d D U . A -1
H18A H 1.0853 0.7982 0.5792 0.227 Uiso 0.5 1 calc R . . A -1
H18B H 1.0572 0.7963 0.6035 0.227 Uiso 0.5 1 calc R . . A -1
C14 C 1.0644(7) 0.7367(6) 0.5553(8) 0.181(7) Uani 0.5 1 d D U . A -1
H14 H 1.0781 0.7457 0.5384 0.218 Uiso 0.5 1 calc R . . A -1
C16 C 1.1095(8) 0.7373(8) 0.5950(8) 0.211(10) Uani 0.5 1 d D U . A -1
H16A H 1.1180 0.7230 0.6112 0.253 Uiso 0.5 1 calc R . . A -1
H16B H 1.1278 0.7467 0.5842 0.253 Uiso 0.5 1 calc R . . A -1
C17 C 1.0920(8) 0.7648(7) 0.6128(8) 0.204(10) Uani 0.5 1 d D U . A -1
H17A H 1.0789 0.7560 0.6298 0.245 Uiso 0.5 1 calc R . . A -1
H17B H 1.1076 0.7790 0.6224 0.245 Uiso 0.5 1 calc R . . A -1
C19 C 0.9415(5) 0.8158(5) 0.4634(6) 0.179(8) Uani 0.5 1 d D U . A -1
C20 C 0.9203(7) 0.7944(6) 0.4838(7) 0.199(10) Uani 0.5 1 d D U . A -1
H20A H 0.9043 0.7846 0.4705 0.298 Uiso 0.5 1 calc R . . A -1
H20B H 0.9330 0.7781 0.4937 0.298 Uiso 0.5 1 calc R . . A -1
H20C H 0.9101 0.8070 0.5001 0.298 Uiso 0.5 1 calc R . . A -1
C21 C 0.9542(7) 0.7945(6) 0.4371(7) 0.178(9) Uani 0.5 1 d D U . A -1
H21A H 0.9366 0.7852 0.4257 0.267 Uiso 0.5 1 calc R . . A -1
H21B H 0.9670 0.8070 0.4227 0.267 Uiso 0.5 1 calc R . . A -1
H21C H 0.9671 0.7778 0.4463 0.267 Uiso 0.5 1 calc R . . A -1
C22 C 0.9189(7) 0.8404(6) 0.4487(8) 0.211(11) Uani 0.5 1 d D U . A -1
H22A H 0.9028 0.8296 0.4363 0.317 Uiso 0.5 1 calc R . . A -1
H22B H 0.9088 0.8525 0.4654 0.317 Uiso 0.5 1 calc R . . A -1
H22C H 0.9308 0.8546 0.4351 0.317 Uiso 0.5 1 calc R . . A -1
C23 C 0.9642(6) 0.6822(5) 0.4395(5) 0.173(8) Uani 0.5 1 d D U . A -1
C24 C 0.9375(7) 0.7038(7) 0.4528(8) 0.203(10) Uani 0.5 1 d D U . A -1
H24A H 0.9258 0.7131 0.4354 0.305 Uiso 0.5 1 calc R . . A -1
H24B H 0.9233 0.6912 0.4658 0.305 Uiso 0.5 1 calc R . . A -1
H24C H 0.9468 0.7205 0.4656 0.305 Uiso 0.5 1 calc R . . A -1
C25 C 0.9865(7) 0.7044(7) 0.4202(7) 0.198(10) Uani 0.5 1 d D U . A -1
H25A H 0.9747 0.7141 0.4031 0.297 Uiso 0.5 1 calc R . . A -1
H25B H 0.9947 0.7208 0.4340 0.297 Uiso 0.5 1 calc R . . A -1
H25C H 1.0039 0.6922 0.4116 0.297 Uiso 0.5 1 calc R . . A -1
C26 C 0.9488(8) 0.6587(6) 0.4174(7) 0.196(10) Uani 0.5 1 d D U . A -1
H26A H 0.9373 0.6700 0.4010 0.295 Uiso 0.5 1 calc R . . A -1
H26B H 0.9649 0.6455 0.4077 0.295 Uiso 0.5 1 calc R . . A -1
H26C H 0.9342 0.6455 0.4292 0.295 Uiso 0.5 1 calc R . . A -1
loop_
_atom_site_aniso_label
_atom_site_aniso_U_11
_atom_site_aniso_U_22
_atom_site_aniso_U_33
_atom_site_aniso_U_23
_atom_site_aniso_U_13
_atom_site_aniso_U_12
Zn1 0.0610(8) 0.0610(8) 0.0610(8) -0.0040(4) -0.0040(4) -0.0040(4)
Zn2 0.0584(8) 0.0584(8) 0.0584(8) -0.0024(4) -0.0024(4) -0.0024(4)
O1 0.150(8) 0.051(4) 0.159(8) 0.004(5) -0.038(6) -0.005(5)
O2 0.129(7) 0.052(4) 0.127(7) -0.005(4) -0.029(5) -0.006(4)
O5 0.058(4) 0.058(4) 0.058(4) 0.000 0.000 0.000
O6 0.052(3) 0.052(3) 0.052(3) 0.000 0.000 0.000
C1 0.156(14) 0.050(7) 0.173(14) 0.000 -0.032(11) 0.000
C10 0.144(12) 0.046(6) 0.111(11) 0.000 -0.014(9) 0.000
C2 0.177(15) 0.045(7) 0.199(13) 0.011(12) -0.076(13) -0.001(11)
C3 0.178(14) 0.057(10) 0.217(14) 0.001(11) -0.080(12) -0.014(10)
C4 0.191(15) 0.068(10) 0.229(14) 0.006(11) -0.075(13) -0.004(11)
C5 0.197(15) 0.063(9) 0.234(14) -0.003(12) -0.080(14) -0.002(10)
C4A 0.203(16) 0.076(11) 0.236(15) 0.005(12) -0.070(14) -0.003(12)
C3A 0.194(15) 0.066(10) 0.224(14) 0.014(11) -0.073(13) -0.012(11)
C6 0.253(14) 0.058(9) 0.168(14) 0.023(9) -0.087(14) 0.002(11)
C7 0.213(13) 0.054(9) 0.149(13) 0.014(9) -0.087(12) -0.011(10)
C8 0.204(13) 0.049(9) 0.148(13) 0.016(10) -0.081(12) -0.007(10)
C9 0.198(13) 0.052(7) 0.135(14) 0.010(10) -0.068(12) -0.008(12)
C8A 0.223(14) 0.064(10) 0.169(14) 0.016(10) -0.065(13) -0.007(11)
C7A 0.228(14) 0.079(11) 0.180(14) 0.026(11) -0.075(13) -0.007(11)
Cu1 0.261(6) 0.0493(19) 0.246(7) -0.003(3) -0.148(5) 0.005(4)
O3 0.218(14) 0.066(7) 0.258(12) 0.004(10) -0.051(13) -0.015(8)
O4 0.264(12) 0.068(8) 0.182(12) 0.008(7) -0.092(12) 0.002(9)
N1 0.238(14) 0.073(10) 0.229(14) -0.010(11) -0.089(13) -0.022(10)
N2 0.214(13) 0.055(8) 0.198(13) 0.000(9) -0.094(11) 0.002(10)
C11 0.194(14) 0.067(10) 0.233(13) 0.006(11) -0.096(12) -0.011(11)
C12 0.222(14) 0.063(10) 0.194(14) 0.014(11) -0.089(13) -0.001(11)
C13 0.237(15) 0.089(11) 0.245(14) -0.016(12) -0.069(14) -0.014(12)
C15 0.238(17) 0.105(14) 0.245(17) 0.009(14) -0.098(16) 0.006(14)
C18 0.238(16) 0.101(13) 0.227(16) -0.006(13) -0.088(15) 0.001(13)
C14 0.226(15) 0.081(10) 0.237(15) 0.006(12) -0.096(13) -0.015(12)
C16 0.24(2) 0.135(16) 0.26(2) -0.007(16) -0.083(19) -0.013(17)
C17 0.26(2) 0.111(15) 0.25(2) -0.008(16) -0.082(19) -0.019(16)
C19 0.210(17) 0.074(12) 0.254(16) 0.009(13) -0.074(15) -0.004(13)
C20 0.23(2) 0.097(16) 0.27(2) 0.012(17) -0.058(19) -0.039(16)
C21 0.22(2) 0.073(13) 0.24(2) -0.040(15) -0.077(17) -0.030(14)
C22 0.24(2) 0.129(18) 0.27(2) -0.015(18) -0.09(2) -0.024(18)
C23 0.251(16) 0.089(13) 0.180(16) 0.012(12) -0.070(15) -0.001(13)
C24 0.27(2) 0.129(17) 0.211(19) 0.045(16) -0.087(18) 0.017(18)
C25 0.29(2) 0.119(17) 0.189(19) 0.024(16) -0.081(18) 0.007(17)
C26 0.28(2) 0.125(17) 0.18(2) 0.026(16) -0.091(19) 0.008(18)
loop_
_atom_type_symbol
_atom_type_description
_atom_type_scat_dispersion_real
_atom_type_scat_dispersion_imag
_atom_type_scat_source
C C 0.0181 0.0091 'International Tables Vol C Tables 4.2.6.8 and 6.1.1.4'
H H 0.0000 0.0000 'International Tables Vol C Tables 4.2.6.8 and 6.1.1.4'
Cu Cu -1.9646 0.5888 'International Tables Vol C Tables 4.2.6.8 and 6.1.1.4'
N N 0.0311 0.0180 'International Tables Vol C Tables 4.2.6.8 and 6.1.1.4'
O O 0.0492 0.0322 'International Tables Vol C Tables 4.2.6.8 and 6.1.1.4'
Zn Zn -1.5491 0.6778 'International Tables Vol C Tables 4.2.6.8 and 6.1.1.4'
loop_
_geom_angle_atom_site_label_1
_geom_angle_atom_site_label_2
_geom_angle_atom_site_label_3
_geom_angle
_geom_angle_site_symmetry_1
_geom_angle_site_symmetry_3
Zn1 Zn1 Zn1 60.0 26_764 75_646
Zn1 Zn1 Zn1 60.0 26_764 52_475
Zn1 Zn1 Zn1 60.0 52_475 75_646
O1 Zn1 Zn1 124.1(3) . 26_764
O1 Zn1 Zn1 124.1(3) 33_554 75_646
O1 Zn1 Zn1 75.4(3) 33_554 52_475
O1 Zn1 Zn1 75.4(3) 53_554 26_764
O1 Zn1 Zn1 123.8(4) 53_554 75_646
O1 Zn1 Zn1 75.4(3) . 75_646
O1 Zn1 Zn1 123.8(4) . 52_475
O1 Zn1 Zn1 124.1(3) 53_554 52_475
O1 Zn1 Zn1 123.8(4) 33_554 26_764
O1 Zn1 O1 108.3(3) . 53_554
O1 Zn1 O1 108.3(3) . 33_554
O1 Zn1 O1 108.3(3) 53_554 33_554
O1 Zn1 O5 110.7(3) . .
O1 Zn1 O5 110.7(3) 33_554 .
O1 Zn1 O5 110.7(3) 53_554 .
O5 Zn1 Zn1 35.3 . 52_475
O5 Zn1 Zn1 35.3 . 26_764
O5 Zn1 Zn1 35.3 . 75_646
Zn2 Zn2 Zn2 60.003(1) 26_754 52_465
Zn2 Zn2 Zn2 60.003(2) 26_754 75_646
Zn2 Zn2 Zn2 60.003(1) 52_465 75_646
O2 Zn2 Zn2 125.0(3) . 26_754
O2 Zn2 Zn2 76.1(2) . 75_646
O2 Zn2 Zn2 125.0(3) 77_545 52_465
O2 Zn2 Zn2 124.0(3) 57_554 26_754
O2 Zn2 Zn2 124.0(3) 77_545 75_646
O2 Zn2 Zn2 125.0(3) 57_554 75_646
O2 Zn2 Zn2 76.1(2) 77_545 26_754
O2 Zn2 Zn2 76.1(2) 57_554 52_465
O2 Zn2 Zn2 124.0(3) . 52_465
O2 Zn2 O2 107.5(2) . 57_554
O2 Zn2 O2 107.5(2) 57_554 77_545
O2 Zn2 O2 107.5(2) . 77_545
O6 Zn2 Zn2 35.3 . 75_646
O6 Zn2 Zn2 35.3 . 26_754
O6 Zn2 Zn2 35.266(1) . 52_465
O6 Zn2 O2 111.4(2) . .
O6 Zn2 O2 111.4(2) . 57_554
O6 Zn2 O2 111.4(2) . 77_545
C1 O1 Zn1 132.8(8) . .
C10 O2 Zn2 131.6(7) . .
Zn1 O5 Zn1 109.471(1) 75_646 26_764
Zn1 O5 Zn1 109.5 75_646 .
Zn1 O5 Zn1 109.5 52_475 .
Zn1 O5 Zn1 109.5 52_475 75_646
Zn1 O5 Zn1 109.471(1) 52_475 26_764
Zn1 O5 Zn1 109.5 26_764 .
Zn2 O6 Zn2 109.471(1) . 52_465
Zn2 O6 Zn2 109.471(1) 52_465 75_646
Zn2 O6 Zn2 109.5 . 75_646
Zn2 O6 Zn2 109.5 . 26_754
Zn2 O6 Zn2 109.471(1) 52_465 26_754
Zn2 O6 Zn2 109.471(3) 26_754 75_646
O1 C1 O1 123.6(13) . 75_646
O1 C1 C2 110.5(10) . .
O1 C1 C2 125.4(11) 75_646 .
O2 C10 O2 124.4(11) 75_646 .
O2 C10 C9 111.5(10) 75_646 .
O2 C10 C9 123.6(10) . .
C3 C2 C1 115.0(12) . .
C3 C2 C3A 120.0 . .
C3A C2 C1 124.8(12) . .
C2 C3 H3 120.0 . .
C2 C3 C4 120.0 . .
C4 C3 H3 120.0 . .
C3 C4 C5 120.0 . .
C3 C4 C11 118.1(13) . .
C5 C4 C11 121.7(13) . .
C4A C5 C4 120.0 . .
O3 C5 C4 115.1(10) . .
O3 C5 C4A 124.6(10) . .
C5 C4A C3A 120.0 . .
C5 C4A C19 120.1(8) . .
C3A C4A C19 119.9(8) . .
C2 C3A H3A 120.0 . .
C4A C3A C2 120.0 . .
C4A C3A H3A 120.0 . .
C7 C6 C7A 120.0 . .
O4 C6 C7 118.3(9) . .
O4 C6 C7A 121.5(9) . .
C6 C7 C12 123.0(13) . .
C8 C7 C6 120.0 . .
C8 C7 C12 117.0(13) . .
C7 C8 H8 120.0 . .
C7 C8 C9 120.0 . .
C9 C8 H8 120.0 . .
C8 C9 C10 117.9(12) . .
C8A C9 C10 122.1(12) . .
C8A C9 C8 120.0 . .
C9 C8A H8A 120.0 . .
C9 C8A C7A 120.0 . .
C7A C8A H8A 120.0 . .
C6 C7A C23 120.3(8) . .
C8A C7A C6 120.0 . .
C8A C7A C23 119.6(8) . .
O3 Cu1 O4 98.2(9) . .
O3 Cu1 N2 167.2(13) . .
N1 Cu1 O3 80.6(8) . .
N1 Cu1 O4 175.4(14) . .
N1 Cu1 N2 90.6(10) . .
N2 Cu1 O4 91.2(7) . .
C5 O3 Cu1 134.3(13) . .
C6 O4 Cu1 131.0(11) . .
C11 N1 Cu1 134(3) . .
C11 N1 C13 108(2) . .
C13 N1 Cu1 112.3(16) . .
C12 N2 Cu1 123.7(18) . .
C12 N2 C14 125(2) . .
C14 N2 Cu1 110.5(15) . .
C4 C11 H11 124.0 . .
N1 C11 C4 112(2) . .
N1 C11 H11 124.0 . .
C7 C12 H12 115.9 . .
N2 C12 C7 128(2) . .
N2 C12 H12 115.9 . .
N1 C13 H13 98.7 . .
N1 C13 C18 137(3) . .
N1 C13 C14 110(2) . .
C18 C13 H13 98.7 . .
C14 C13 H13 98.7 . .
C14 C13 C18 106(2) . .
H15A C15 H15B 108.5 . .
C14 C15 H15A 110.2 . .
C14 C15 H15B 110.2 . .
C14 C15 C16 107(2) . .
C16 C15 H15A 110.2 . .
C16 C15 H15B 110.2 . .
C13 C18 H18A 105.9 . .
C13 C18 H18B 105.9 . .
H18A C18 H18B 106.2 . .
C17 C18 C13 126(2) . .
C17 C18 H18A 105.9 . .
C17 C18 H18B 105.9 . .
N2 C14 C13 108(2) . .
N2 C14 C15 116(2) . .
N2 C14 H14 94.0 . .
C13 C14 C15 134(2) . .
C13 C14 H14 94.0 . .
C15 C14 H14 94.0 . .
C15 C16 H16A 107.1 . .
C15 C16 H16B 107.1 . .
H16A C16 H16B 106.8 . .
C17 C16 C15 121(3) . .
C17 C16 H16A 107.1 . .
C17 C16 H16B 107.1 . .
C18 C17 C16 111(3) . .
C18 C17 H17A 109.5 . .
C18 C17 H17B 109.5 . .
C16 C17 H17A 109.5 . .
C16 C17 H17B 109.5 . .
H17A C17 H17B 108.1 . .
C4A C19 C20 111.7(17) . .
C4A C19 C21 114.2(17) . .
C4A C19 C22 111.1(15) . .
C20 C19 C22 105.0(17) . .
C21 C19 C20 105.5(16) . .
C21 C19 C22 108.7(17) . .
C19 C20 H20A 109.5 . .
C19 C20 H20B 109.5 . .
C19 C20 H20C 109.5 . .
H20A C20 H20B 109.5 . .
H20A C20 H20C 109.5 . .
H20B C20 H20C 109.5 . .
C19 C21 H21A 109.5 . .
C19 C21 H21B 109.5 . .
C19 C21 H21C 109.5 . .
H21A C21 H21B 109.5 . .
H21A C21 H21C 109.5 . .
H21B C21 H21C 109.5 . .
C19 C22 H22A 109.5 . .
C19 C22 H22B 109.5 . .
C19 C22 H22C 109.5 . .
H22A C22 H22B 109.5 . .
H22A C22 H22C 109.5 . .
H22B C22 H22C 109.5 . .
C7A C23 C24 110.6(17) . .
C7A C23 C25 108.9(15) . .
C7A C23 C26 114.4(15) . .
C24 C23 C25 106.0(16) . .
C26 C23 C24 107.1(17) . .
C26 C23 C25 109.5(18) . .
C23 C24 H24A 109.5 . .
C23 C24 H24B 109.5 . .
C23 C24 H24C 109.5 . .
H24A C24 H24B 109.5 . .
H24A C24 H24C 109.5 . .
H24B C24 H24C 109.5 . .
C23 C25 H25A 109.5 . .
C23 C25 H25B 109.5 . .
C23 C25 H25C 109.5 . .
H25A C25 H25B 109.5 . .
H25A C25 H25C 109.5 . .
H25B C25 H25C 109.5 . .
C23 C26 H26A 109.5 . .
C23 C26 H26B 109.5 . .
C23 C26 H26C 109.5 . .
H26A C26 H26B 109.5 . .
H26A C26 H26C 109.5 . .
H26B C26 H26C 109.5 . .
loop_
_geom_bond_atom_site_label_1
_geom_bond_atom_site_label_2
_geom_bond_distance
_geom_bond_site_symmetry_2
Zn1 Zn1 3.158(3) 52_475
Zn1 Zn1 3.158(3) 75_646
Zn1 Zn1 3.158(3) 26_764
Zn1 O1 1.931(6) 33_554
Zn1 O1 1.931(6) 53_554
Zn1 O1 1.931(6) .
Zn1 O5 1.9339(16) .
Zn2 Zn2 3.153(3) 75_646
Zn2 Zn2 3.153(3) 52_465
Zn2 Zn2 3.153(3) 26_754
Zn2 O2 1.941(6) 77_545
Zn2 O2 1.941(6) .
Zn2 O2 1.941(6) 57_554
Zn2 O6 1.9306(16) .
O1 C1 1.239(9) .
O2 C10 1.255(9) .
O5 Zn1 1.9337(16) 26_764
O5 Zn1 1.9337(16) 75_646
O5 Zn1 1.9337(16) 52_475
O6 Zn2 1.9308(16) 52_465
O6 Zn2 1.9308(16) 26_754
O6 Zn2 1.9308(16) 75_646
C1 O1 1.239(9) 75_646
C1 C2 1.490(15) .
C10 O2 1.255(9) 75_646
C10 C9 1.465(13) .
C2 C3 1.3900 .
C2 C3A 1.3900 .
C3 H3 0.9300 .
C3 C4 1.3900 .
C4 C5 1.3900 .
C4 C11 1.47(2) .
C5 C4A 1.3900 .
C5 O3 1.329(10) .
C4A C3A 1.3900 .
C4A C19 1.480(15) .
C3A H3A 0.9300 .
C6 C7 1.3900 .
C6 C7A 1.3900 .
C6 O4 1.340(10) .
C7 C8 1.3900 .
C7 C12 1.45(2) .
C8 H8 0.9300 .
C8 C9 1.3900 .
C9 C8A 1.3900 .
C8A H8A 0.9300 .
C8A C7A 1.3900 .
C7A C23 1.491(15) .
Cu1 O3 1.828(16) .
Cu1 O4 1.906(14) .
Cu1 N1 1.74(2) .
Cu1 N2 1.89(2) .
N1 C11 1.26(2) .
N1 C13 1.46(2) .
N2 C12 1.272(19) .
N2 C14 1.44(2) .
C11 H11 0.9300 .
C12 H12 0.9300 .
C13 H13 0.9800 .
C13 C18 1.55(2) .
C13 C14 1.53(2) .
C15 H15A 0.9700 .
C15 H15B 0.9700 .
C15 C14 1.55(2) .
C15 C16 1.56(2) .
C18 H18A 0.9700 .
C18 H18B 0.9700 .
C18 C17 1.50(2) .
C14 H14 0.9800 .
C16 H16A 0.9700 .
C16 H16B 0.9700 .
C16 C17 1.55(3) .
C17 H17A 0.9700 .
C17 H17B 0.9700 .
C19 C20 1.52(2) .
C19 C21 1.51(2) .
C19 C22 1.529(19) .
C20 H20A 0.9600 .
C20 H20B 0.9600 .
C20 H20C 0.9600 .
C21 H21A 0.9600 .
C21 H21B 0.9600 .
C21 H21C 0.9600 .
C22 H22A 0.9600 .
C22 H22B 0.9600 .
C22 H22C 0.9600 .
C23 C24 1.54(2) .
C23 C25 1.54(2) .
C23 C26 1.496(19) .
C24 H24A 0.9600 .
C24 H24B 0.9600 .
C24 H24C 0.9600 .
C25 H25A 0.9600 .
C25 H25B 0.9600 .
C25 H25C 0.9600 .
C26 H26A 0.9600 .
C26 H26B 0.9600 .
C26 H26C 0.9600 .
loop_
_geom_torsion_atom_site_label_1
_geom_torsion_atom_site_label_2
_geom_torsion_atom_site_label_3
_geom_torsion_atom_site_label_4
_geom_torsion
_geom_torsion_site_symmetry_1
_geom_torsion_site_symmetry_4
Zn1 O1 C1 O1 0.5(9) . 75_646
Zn1 O1 C1 C2 173(2) . .
Zn2 O2 C10 O2 -1.7(8) . 75_646
Zn2 O2 C10 C9 -173.0(18) . .
O1 C1 C2 C3 172.5(13) . .
O1 C1 C2 C3 -15(3) 75_646 .
O1 C1 C2 C3A -3(3) . .
O1 C1 C2 C3A 169.1(13) 75_646 .
O2 C10 C9 C8 176.1(13) 75_646 .
O2 C10 C9 C8 -12(3) . .
O2 C10 C9 C8A 169.6(12) . .
O2 C10 C9 C8A -3(2) 75_646 .
C1 C2 C3 C4 -176(3) . .
C1 C2 C3A C4A 175(3) . .
C10 C9 C8A C7A 179(3) . .
C2 C3 C4 C5 0.0 . .
C2 C3 C4 C11 175(2) . .
C3 C2 C3A C4A 0.0 . .
C3 C4 C5 C4A 0.0 . .
C3 C4 C5 O3 -174(2) . .
C3 C4 C11 N1 164(3) . .
C4 C5 C4A C3A 0.0 . .
C4 C5 C4A C19 177.1(19) . .
C4 C5 O3 Cu1 -26(3) . .
C5 C4 C11 N1 -22(4) . .
C5 C4A C3A C2 0.0 . .
C5 C4A C19 C20 60(2) . .
C5 C4A C19 C21 -60(2) . .
C5 C4A C19 C22 177(2) . .
C4A C5 O3 Cu1 159.7(19) . .
C3A C2 C3 C4 0.0 . .
C3A C4A C19 C20 -123(2) . .
C3A C4A C19 C21 117(2) . .
C3A C4A C19 C22 -6(3) . .
C6 C7 C8 C9 0.0 . .
C6 C7 C12 N2 4(5) . .
C6 C7A C23 C24 -67(2) . .
C6 C7A C23 C25 49(2) . .
C6 C7A C23 C26 172(2) . .
C7 C6 C7A C8A 0.0 . .
C7 C6 C7A C23 -177.8(18) . .
C7 C6 O4 Cu1 -12(3) . .
C7 C8 C9 C10 -179(3) . .
C7 C8 C9 C8A 0.0 . .
C8 C7 C12 N2 -177(4) . .
C8 C9 C8A C7A 0.0 . .
C9 C8A C7A C6 0.0 . .
C9 C8A C7A C23 177.8(18) . .
C8A C7A C23 C24 115(2) . .
C8A C7A C23 C25 -128.7(19) . .
C8A C7A C23 C26 -6(3) . .
C7A C6 C7 C8 0.0 . .
C7A C6 C7 C12 180(2) . .
C7A C6 O4 Cu1 163.6(17) . .
Cu1 N1 C11 C4 55(5) . .
Cu1 N1 C13 C18 172(4) . .
Cu1 N1 C13 C14 27(5) . .
Cu1 N2 C12 C7 14(6) . .
Cu1 N2 C14 C13 20(4) . .
Cu1 N2 C14 C15 -172(3) . .
O3 C5 C4A C3A 174(3) . .
O3 C5 C4A C19 -9(3) . .
O3 Cu1 N1 C11 -53(4) . .
O3 Cu1 N1 C13 158(3) . .
O3 Cu1 N2 C12 116(4) . .
O3 Cu1 N2 C14 -52(6) . .
O4 C6 C7 C8 175(2) . .
O4 C6 C7 C12 -5(3) . .
O4 C6 C7A C8A -175(2) . .
O4 C6 C7A C23 7(2) . .
O4 Cu1 O3 C5 -140(3) . .
O4 Cu1 N2 C12 -21(3) . .
O4 Cu1 N2 C14 171(3) . .
N1 Cu1 O3 C5 36(3) . .
N1 Cu1 N2 C12 163(4) . .
N1 Cu1 N2 C14 -5(3) . .
N1 C13 C18 C17 -171(4) . .
N1 C13 C14 N2 -30(5) . .
N1 C13 C14 C15 165(4) . .
N2 Cu1 O3 C5 83(5) . .
N2 Cu1 N1 C11 136(4) . .
N2 Cu1 N1 C13 -13(3) . .
C11 C4 C5 C4A -174(2) . .
C11 C4 C5 O3 11(3) . .
C11 N1 C13 C18 15(7) . .
C11 N1 C13 C14 -130(4) . .
C12 C7 C8 C9 -180(2) . .
C12 N2 C14 C13 -148(4) . .
C12 N2 C14 C15 20(6) . .
C13 N1 C11 C4 -155(3) . .
C13 C18 C17 C16 42(6) . .
C15 C16 C17 C18 -43(5) . .
C18 C13 C14 N2 174(3) . .
C18 C13 C14 C15 9(8) . .
C14 N2 C12 C7 -180(3) . .
C14 C13 C18 C17 -26(6) . .
C14 C15 C16 C17 28(5) . .
C16 C15 C14 N2 -176(3) . .
C16 C15 C14 C13 -12(7) . .
C19 C4A C3A C2 -177.1(19) . .
loop_
_refln_index_h
_refln_index_k
_refln_index_l
_refln_F_squared_meas
_refln_F_squared_sigma
-8 0 0 318.02 13.76
-10 0 0 -0.63 0.06
-12 0 0 138.12 6.1
12 0 0 141.12 5.99
14 0 0 -0.13 0.06
-14 0 0 -0.02 0.08
-16 0 0 97.69 4.23
16 0 0 93.11 4.13
-18 0 0 -0.24 0.14
18 0 0 -0.13 0.1
18 0 0 -0.22 0.17
20 0 0 419.36 17.69
20 0 0 399.45 17.46
22 0 0 -0.23 0.2
24 0 0 29.46 1.57
-28 0 0 12.39 0.66
-30 0 0 -0.08 0.11
-32 0 0 37.86 1.78
-34 0 0 -0.06 0.13
-36 0 0 45.81 2.14
-38 0 0 0.57 0.18
-40 0 0 17.64 0.94
-44 0 0 6.69 0.47
-46 0 0 -0.23 0.12
-6 2 0 207.47 8.98
-8 2 0 0.85 0.1
-10 -2 0 78.43 3.71
-10 2 0 90.25 3.72
-12 2 0 3.09 0.22
12 2 0 2.55 0.19
-14 -2 0 28.02 1.28
-14 2 0 28.41 1.28
14 2 0 25.61 1.24
16 -2 0 0.32 0.09
-16 -2 0 0.46 0.12
16 -2 0 0.21 0.14
16 2 0 0.35 0.1
-16 2 0 0.34 0.12
18 -2 0 351.04 15.37
-18 2 0 366.73 15.47
18 2 0 350.37 15.22
20 -2 0 0.03 0.22
-20 2 0 -0.37 0.15
20 2 0 0.11 0.13
20 2 0 -0.26 0.2
22 -2 0 172.95 7.47
22 2 0 169.61 7.3
22 2 0 163.8 7.51
24 -2 0 0.11 0.18
26 -2 0 44.66 2.46
-26 2 0 55.27 2.32
-28 -2 0 -0.06 0.11
28 -2 0 -0.29 0.21
-28 2 0 -0.05 0.11
-30 -2 0 -0.23 0.1
-30 2 0 0 0.1
-32 -2 0 0.08 0.16
-32 2 0 0.31 0.16
-34 -2 0 2.93 0.31
-34 2 0 2.26 0.25
-36 -2 0 0.48 0.21
-36 2 0 1.08 0.22
-38 -2 0 11.54 0.69
-38 2 0 12.42 0.69
-40 -2 0 0.58 0.21
-42 -2 0 12.51 0.71
-42 2 0 12.14 0.71
-44 -2 0 0.26 0.16
-44 2 0 0.26 0.16
-46 -2 0 -0.15 0.12
-46 2 0 -0.03 0.13
2 -4 0 0.16 0.04
2 -4 0 0.13 0.02
-6 4 0 -0.15 0.01
-8 4 0 105.92 4.62
-10 4 0 1.81 0.16
10 4 0 1.44 0.14
12 -4 0 20.12 0.95
-12 4 0 17.93 0.92
12 4 0 20.19 0.9
14 -4 0 0.6 0.16
14 4 0 0.38 0.1
-14 4 0 0.39 0.11
16 -4 0 9.35 0.58
16 4 0 8.43 0.51
-16 4 0 11.58 0.55
18 -4 0 -0.05 0.15
-18 4 0 -0.03 0.14
18 4 0 0.18 0.12
20 -4 0 217.59 9.97
-20 4 0 244.59 10.03
20 4 0 225 9.86
22 -4 0 -0.18 0.17
-22 4 0 -0.01 0.15
22 4 0 0.17 0.14
24 -4 0 9.93 0.7
24 4 0 10.42 0.61
26 -4 0 -0.09 0.2
-26 4 0 0.08 0.1
-28 -4 0 18.26 0.85
28 -4 0 14.07 1.03
-28 4 0 16.53 0.83
-30 -4 0 0.06 0.11
30 -4 0 -0.15 0.22
-30 4 0 -0.18 0.1
32 -4 0 23.6 1.53
-32 -4 0 28.36 1.3
-32 4 0 27.05 1.29
-34 -4 0 0.01 0.14
-34 4 0 -0.01 0.13
-36 -4 0 36.82 1.82
-36 4 0 40.48 1.83
-38 -4 0 -0.04 0.15
-38 4 0 0.15 0.15
-40 -4 0 14.59 0.83
-40 4 0 15.35 0.82
-42 -4 0 -0.12 0.15
-42 4 0 0.35 0.17
-44 -4 0 3.95 0.36
-44 4 0 3.98 0.38
-46 -4 0 -0.08 0.12
-46 4 0 -0.26 0.12
4 -6 0 -0.16 0.01
-6 6 0 531.78 22.96
8 -6 0 0.03 0.09
-8 6 0 -0.11 0.03
10 -6 0 8.76 0.48
10 6 0 10.45 0.45
-10 6 0 7.7 0.45
12 -6 0 0.79 0.15
-12 6 0 0.71 0.12
12 6 0 0.45 0.09
14 -6 0 44.14 1.95
14 6 0 38.38 1.88
-14 6 0 44.69 1.93
16 -6 0 0.7 0.16
-16 6 0 0.72 0.13
16 6 0 0.48 0.11
18 -6 0 133.84 5.89
18 6 0 130.94 5.8
-18 6 0 136.85 5.91
20 -6 0 0.18 0.16
20 6 0 0.12 0.13
-20 6 0 0.02 0.13
22 -6 0 43.14 2.15
22 6 0 44.71 2.08
-22 6 0 46.99 2.12
24 -6 0 -0.03 0.15
24 6 0 0.04 0.13
-24 6 0 0.27 0.14
26 -6 0 9.96 0.74
-26 6 0 11.29 0.57
26 6 0 10.41 0.66
-28 -6 0 0.26 0.13
28 -6 0 -0.12 0.2
-28 6 0 0.06 0.11
30 -6 0 0.29 0.23
-30 -6 0 0.31 0.12
-30 6 0 0.24 0.12
-32 -6 0 0.14 0.15
-32 6 0 0.17 0.14
-34 -6 0 0.08 0.13
-34 6 0 0.18 0.15
-36 -6 0 -0.01 0.17
-36 6 0 0.61 0.18
-38 -6 0 0.05 0.15
-38 6 0 0.17 0.16
-40 -6 0 0.03 0.17
-40 6 0 0.41 0.17
-42 -6 0 1.78 0.23
-42 6 0 2.01 0.24
-44 -6 0 0.11 0.14
-44 6 0 0.14 0.15
-46 -6 0 0.2 0.12
-46 6 0 -0.09 0.13
6 -8 0 0.02 0.06
-6 8 0 0.07 0.05
-8 8 0 498.73 21.54
10 -8 0 -0.1 0.09
10 8 0 0 0.06
-10 8 0 -0.12 0.02
12 -8 0 99.86 4.15
-12 8 0 91.74 4.17
12 8 0 92.96 4.1
14 -8 0 -0.1 0.1
-14 8 0 0.04 0.08
14 8 0 0.05 0.07
16 -8 0 13.14 0.73
-16 8 0 14.74 0.73
16 8 0 13.62 0.7
18 -8 0 0.08 0.15
-18 8 0 0.11 0.12
18 8 0 0 0.1
20 -8 0 10.24 0.64
-20 8 0 10.98 0.62
20 8 0 10.11 0.6
22 -8 0 0.01 0.16
-22 8 0 -0.2 0.11
22 8 0 0.06 0.13
24 -8 0 1.65 0.28
-24 8 0 1.9 0.27
24 8 0 2.1 0.28
-26 -8 0 0.09 0.1
26 -8 0 -0.01 0.15
26 8 0 -0.08 0.15
-26 8 0 0 0.09
-26 8 0 -0.09 0.13
-28 -8 0 9.72 0.53
28 -8 0 8.6 0.7
-28 8 0 9.59 0.53
28 8 0 9.43 0.66
30 -8 0 -0.01 0.21
-30 -8 0 0.03 0.11
-30 8 0 0.11 0.12
-32 -8 0 6.04 0.41
-32 8 0 5.54 0.41
-34 -8 0 0.09 0.14
-34 8 0 0.1 0.14
-36 -8 0 7.62 0.51
-36 8 0 8.42 0.55
-38 -8 0 -0.08 0.14
-38 8 0 -0.06 0.15
-40 -8 0 2.54 0.26
-40 8 0 2.23 0.25
-42 -8 0 0.1 0.14
-42 8 0 -0.04 0.15
-44 -8 0 0.68 0.16
-44 8 0 0.76 0.17
-46 -8 0 0.09 0.13
-46 8 0 -0.12 0.13
-6 10 0 7.25 0.34
8 -10 0 -0.06 0.06
-8 10 0 -0.08 0.05
10 10 0 42.73 1.8
-10 10 0 39.05 1.83
12 -10 0 0.55 0.12
-12 10 0 0.41 0.1
12 10 0 0.38 0.09
14 -10 0 17.17 0.82
-14 10 0 16.92 0.82
14 10 0 15.5 0.79
16 -10 0 1.32 0.2
16 10 0 1.44 0.19
-16 10 0 1.59 0.2
18 -10 0 1.34 0.22
-18 10 0 1.15 0.19
18 10 0 1.36 0.2
20 -10 0 0.68 0.19
20 10 0 0.76 0.17
-20 10 0 0.42 0.16
22 -10 0 0.83 0.2
22 10 0 0.86 0.2
-22 10 0 0.99 0.21
24 -10 0 0.13 0.2
24 10 0 -0.12 0.16
-24 10 0 -0.21 0.15
-26 -10 0 0.64 0.14
26 -10 0 0.62 0.21
26 10 0 0.42 0.19
-26 10 0 0.52 0.11
-26 10 0 0.43 0.18
28 -10 0 -0.21 0.2
-28 -10 0 0.31 0.13
-28 10 0 0.11 0.11
28 10 0 -0.16 0.19
-30 -10 0 1.42 0.19
30 -10 0 1.39 0.31
-30 10 0 1.4 0.18
30 10 0 1.62 0.32
-32 -10 0 0.02 0.13
-32 10 0 0.02 0.12
-34 -10 0 0.28 0.16
-34 10 0 0.57 0.17
-36 -10 0 0.18 0.15
-36 10 0 -0.08 0.15
-38 -10 0 1.1 0.19
-38 10 0 1.07 0.21
-40 -10 0 -0.09 0.13
-40 10 0 0.12 0.15
-42 -10 0 0.13 0.14
-42 10 0 -0.14 0.14
-44 10 0 0.08 0.14
-46 10 0 -0.08 0.12
-8 12 0 96.34 4.2
-10 12 0 0.41 0.09
12 -12 0 74.7 3.31
-12 12 0 74.51 3.36
12 12 0 78.52 3.3
14 -12 0 0.12 0.1
14 12 0 0.1 0.09
-14 12 0 0.14 0.1
16 -12 0 70.7 3.12
16 12 0 71.7 3.11
-16 12 0 69.06 3.16
18 -12 0 0.33 0.15
-18 12 0 0.29 0.14
18 12 0 0.45 0.14
20 -12 0 19.23 1.02
20 12 0 21.51 1.03
-20 12 0 19.29 1.03
22 -12 0 0.05 0.15
22 12 0 0.03 0.14
-22 12 0 -0.01 0.14
24 -12 0 17 0.96
24 -12 0 17.49 0.87
24 12 0 17.87 0.97
-24 12 0 17.81 0.98
-26 -12 0 0.04 0.11
26 -12 0 0.17 0.14
26 -12 0 0.26 0.17
26 12 0 0.01 0.17
-26 12 0 -0.05 0.14
-26 12 0 0.04 0.1
-28 -12 0 0.11 0.13
28 -12 0 0.13 0.18
-28 12 0 -0.22 0.18
28 12 0 0.06 0.2
-28 12 0 -0.09 0.11
-30 -12 0 0.15 0.13
30 12 0 0.16 0.21
-30 12 0 0.03 0.11
-32 -12 0 1.12 0.18
-32 12 0 1.01 0.17
-34 -12 0 0.28 0.15
-34 12 0 0.13 0.15
-36 -12 0 1.8 0.22
-36 12 0 2.25 0.25
-38 -12 0 0.16 0.14
-38 12 0 0.11 0.16
-40 -12 0 0.57 0.16
-40 12 0 0.63 0.18
-42 12 0 0.04 0.14
-44 12 0 -0.21 0.13
-46 12 0 0.08 0.12
-8 14 0 0.02 0.05
-10 14 0 16.89 0.8
12 14 0 0.14 0.08
-12 14 0 0.28 0.1
14 14 0 42.65 1.92
-14 14 0 43.27 1.96
16 -14 0 0.42 0.13
-16 14 0 0.16 0.13
16 14 0 0.27 0.12
18 -14 0 41.56 1.9
-18 14 0 41.95 1.94
18 14 0 40.77 1.9
20 -14 0 0.02 0.14
20 14 0 0.32 0.16
-20 14 0 0.13 0.15
22 -14 0 27.02 1.36
22 14 0 28.01 1.38
-22 14 0 28.72 1.41
24 -14 0 0.24 0.17
24 -14 0 0.29 0.13
24 14 0 0.11 0.17
-24 14 0 -0.08 0.16
26 -14 0 1.66 0.22
-26 -14 0 1.85 0.19
26 14 0 2.06 0.3
-26 14 0 1.86 0.29
-28 -14 0 0.07 0.12
-28 14 0 0.23 0.21
-28 14 0 0.14 0.12
28 14 0 -0.03 0.19
-30 -14 0 7.07 0.47
-30 14 0 7.33 0.47
30 14 0 8.66 0.65
-32 -14 0 0.11 0.13
32 14 0 0.21 0.24
-32 14 0 0.14 0.13
-34 -14 0 4.01 0.35
-34 14 0 4.04 0.37
-36 -14 0 0.49 0.16
-36 14 0 0.69 0.18
-38 14 0 6.55 0.49
-40 14 0 0.34 0.16
-42 14 0 2.3 0.25
-44 14 0 0.04 0.14
-46 14 0 0.09 0.12
-8 16 0 12.01 0.56
-10 16 0 1.58 0.16
-12 16 0 69.54 3.09
14 16 0 0.27 0.11
-14 16 0 0.43 0.13
-16 16 0 119.91 5.25
16 16 0 117.53 5.16
18 16 0 0.13 0.14
-18 16 0 -0.11 0.15
20 16 0 80.12 3.56
-20 16 0 79.43 3.62
22 -16 0 0.37 0.13
22 16 0 0.3 0.18
-22 16 0 -0.08 0.18
24 -16 0 26.39 1.3
-24 16 0 27.47 1.42
24 16 0 28.28 1.4
26 -16 0 0.09 0.14
-26 16 0 -0.07 0.18
26 16 0 0.05 0.19
28 16 0 1.02 0.26
-28 16 0 0.77 0.15
-28 16 0 0.67 0.26
-30 16 0 0.13 0.13
30 16 0 0.1 0.22
-32 16 0 7.61 0.5
32 16 0 8.13 0.68
-34 16 0 0.13 0.15
-36 16 0 14.64 0.81
-38 16 0 0.58 0.18
-40 16 0 7.94 0.53
-42 16 0 0.09 0.14
-44 16 0 0.67 0.16
-8 18 0 0.1 0.05
-10 18 0 1.16 0.13
-12 18 0 0.46 0.12
-14 18 0 42.37 1.85
14 18 0 37.46 1.79
-16 18 0 0.23 0.15
16 18 0 0.12 0.13
18 18 0 120.6 5.54
-18 18 0 133.76 5.65
-20 18 0 0.24 0.2
20 18 0 0.16 0.19
22 -18 0 85.38 3.84
-22 18 0 84.06 3.92
22 18 0 88.77 3.87
24 -18 0 0.5 0.15
-24 18 0 -0.33 0.2
24 18 0 0.27 0.2
26 -18 0 11.98 0.68
-26 18 0 11.94 0.79
26 18 0 11.69 0.78
28 -18 0 0.05 0.17
-28 18 0 0.16 0.12
28 18 0 0.39 0.21
-28 18 0 0.21 0.22
-30 18 0 4.71 0.39
30 18 0 5.31 0.56
32 18 0 0.13 0.23
-32 18 0 0.25 0.14
-34 18 0 7.11 0.49
-36 18 0 0.43 0.17
-38 18 0 11.21 0.65
-40 18 0 0.52 0.16
-42 18 0 4.25 0.37
-44 18 0 0.14 0.13
-8 20 0 11.49 0.55
-10 20 0 0.54 0.1
-12 20 0 18.93 0.92
-14 20 0 0.11 0.12
16 20 0 78.91 3.47
-16 20 0 78.36 3.54
-18 20 0 0.1 0.18
18 20 0 0.19 0.17
20 -20 0 104.09 4.62
20 20 0 103.71 4.6
-20 20 0 103.81 4.67
-22 20 0 -0.32 0.22
22 20 0 0.02 0.2
24 -20 0 34.66 1.62
24 20 0 36.27 1.72
-24 20 0 32.1 1.72
26 -20 0 0.31 0.17
-26 20 0 -0.17 0.2
26 20 0 0.1 0.2
28 -20 0 0.29 0.17
-28 20 0 0.23 0.12
28 20 0 0.7 0.25
30 20 0 -0.15 0.22
-30 20 0 0.19 0.13
32 20 0 3.21 0.45
-32 20 0 3.34 0.33
-34 20 0 0.17 0.15
-36 20 0 8.55 0.55
-38 20 0 0.49 0.17
-40 20 0 8.02 0.52
-42 20 0 0.07 0.14
-8 22 0 -0.02 0.05
-10 22 0 0.88 0.12
-12 22 0 0.09 0.09
-14 22 0 26.33 1.26
16 -22 0 0.85 0.15
-16 22 0 -0.16 0.14
16 22 0 0.23 0.15
18 -22 0 82.94 3.77
18 22 0 85.7 3.75
-18 22 0 84.71 3.82
20 22 0 -0.22 0.17
-20 22 0 -0.27 0.2
22 -22 0 49.96 2.28
-22 22 0 48.29 2.38
22 22 0 50.84 2.34
24 -22 0 0.76 0.17
24 22 0 0.31 0.22
-24 22 0 -0.16 0.22
26 -22 0 13.86 0.75
26 22 0 13.3 0.87
-26 22 0 12.95 0.87
28 -22 0 0.05 0.17
28 22 0 0.32 0.22
-28 22 0 0.21 0.13
30 22 0 1.01 0.31
-30 22 0 0.6 0.16
-32 22 0 0.03 0.13
-34 22 0 2.31 0.25
-36 22 0 0.1 0.16
-38 22 0 5.55 0.43
-40 22 0 0.34 0.15
-42 22 0 1.65 0.2
-8 24 0 2.12 0.16
-10 24 0 0.1 0.09
-12 24 0 16.44 0.82
14 -24 0 0.48 0.13
-14 24 0 0.17 0.12
16 -24 0 26.6 1.26
-16 24 0 26.46 1.3
18 -24 0 0.53 0.15
-18 24 0 0 0.17
18 24 0 0.03 0.15
20 -24 0 34.78 1.61
-20 24 0 33.69 1.69
20 24 0 33.86 1.66
22 -24 0 0.68 0.17
22 24 0 0.43 0.2
-22 24 0 -0.04 0.21
24 -24 0 16.45 0.86
24 24 0 17.49 0.97
-24 24 0 14.77 0.96
26 -24 0 0.38 0.17
26 24 0 0.09 0.21
28 -24 0 0.37 0.19
-28 24 0 0.36 0.14
28 24 0 0.28 0.23
-30 24 0 0.04 0.13
-32 24 0 0.47 0.16
-34 24 0 0.14 0.16
-36 24 0 1.67 0.23
-38 24 0 -0.03 0.14
-40 24 0 2.28 0.24
-8 26 0 -0.03 0.06
-10 26 0 0.59 0.11
12 -26 0 0.02 0.12
-12 26 0 0.18 0.1
14 -26 0 2.02 0.21
-14 26 0 1.75 0.22
16 -26 0 0.12 0.12
-16 26 0 -0.02 0.13
18 -26 0 11.62 0.65
-18 26 0 11.27 0.7
18 26 0 11.52 0.69
20 -26 0 0.44 0.16
20 26 0 0.24 0.18
-20 26 0 0.12 0.19
22 -26 0 12.68 0.7
22 26 0 12.6 0.78
-22 26 0 11.72 0.79
24 -26 0 0.39 0.17
24 26 0 0.18 0.2
26 -26 0 1.89 0.25
26 26 0 2.85 0.4
-28 26 0 0.04 0.13
28 26 0 0.04 0.21
-30 26 0 -0.06 0.14
-32 26 0 -0.06 0.13
-34 26 0 0.01 0.15
-36 26 0 -0.14 0.15
-38 26 0 0.1 0.15
-40 26 0 -0.35 0.11
-6 28 0 0.05 0.06
-8 28 0 8.12 0.43
-10 28 0 0.15 0.1
-12 28 0 0 0.1
14 -28 0 0.28 0.14
-14 28 0 0.21 0.13
16 -28 0 0.81 0.16
-16 28 0 0.83 0.19
18 -28 0 0.16 0.15
-18 28 0 0.1 0.15
20 -28 0 0.21 0.15
-20 28 0 0.18 0.16
20 28 0 0.52 0.19
22 -28 0 0.03 0.15
22 28 0 0 0.17
24 -28 0 0.29 0.17
24 28 0 0.59 0.24
26 -28 0 0.07 0.16
26 28 0 0.05 0.22
-28 28 0 2.33 0.25
-30 28 0 -0.04 0.14
-32 28 0 0.16 0.14
-34 28 0 -0.24 0.14
-36 28 0 -0.03 0.14
-38 28 0 -0.09 0.13
-8 30 0 0.07 0.08
-10 30 0 1.42 0.17
-12 30 0 0.14 0.11
-14 30 0 5.56 0.41
16 -30 0 0.24 0.15
-16 30 0 -0.12 0.13
18 -30 0 4.19 0.38
20 -30 0 0.09 0.15
20 30 0 0 0.16
22 -30 0 0.68 0.19
22 30 0 0.74 0.24
24 -30 0 -0.06 0.16
24 30 0 0.03 0.23
26 -30 0 0.2 0.18
-28 30 0 -0.08 0.14
-30 30 0 0 0.14
-32 30 0 0.16 0.15
-34 30 0 1.86 0.23
-36 30 0 -0.01 0.12
-10 32 0 -0.04 0.09
-12 32 0 0.96 0.16
20 -32 0 2.26 0.28
20 32 0 3.07 0.37
22 -32 0 -0.28 0.15
24 -32 0 0.66 0.19
-26 32 0 -0.14 0.13
-28 32 0 -0.01 0.13
-30 32 0 0.11 0.14
-32 32 0 1.3 0.2
-34 32 0 0.24 0.14
-47 -1 1 -0.03 0.12
-47 1 1 -0.2 0.12
-45 -1 1 0.03 0.13
-45 1 1 -0.16 0.13
-43 -1 1 -0.06 0.14
-43 1 1 -0.13 0.14
-41 -1 1 0.19 0.16
-41 1 1 0.1 0.16
-39 -1 1 0.01 0.15
-39 1 1 0.07 0.15
-37 -1 1 -0.05 0.15
-37 1 1 0.04 0.16
-35 -1 1 0.22 0.15
-35 1 1 0.05 0.14
-33 -1 1 -0.06 0.13
-33 1 1 -0.08 0.13
-31 -1 1 0.08 0.12
-31 1 1 0.01 0.11
-29 -1 1 -0.05 0.11
-29 1 1 -0.04 0.11
-27 -1 1 -0.04 0.09
27 -1 -1 0.01 0.21
-27 1 1 -0.07 0.09
25 -1 -1 -0.07 0.16
23 -1 -1 0 0.16
23 1 -1 0.18 0.2
21 -1 -1 0.24 0.18
21 1 -1 0.03 0.15
21 1 -1 -0.02 0.09
19 -1 -1 0.65 0.2
19 1 -1 0.78 0.14
-19 1 1 0.61 0.14
19 1 -1 0.61 0.2
17 -1 -1 0.18 0.13
17 -1 -1 -0.1 0.06
-17 1 1 -0.01 0.08
17 1 -1 0.08 0.13
17 1 -1 0.01 0.07
15 -1 -1 1.39 0.14
15 -1 -1 1.19 0.2
-15 -1 1 1.13 0.15
15 1 -1 0.97 0.13
-15 1 1 1.1 0.15
15 1 -1 1.38 0.21
13 -1 -1 1.98 0.16
13 -1 -1 1.73 0.21
-13 -1 1 1.6 0.18
13 1 -1 1.95 0.17
-13 1 1 1.67 0.18
11 1 -1 1.89 0.16
-11 1 1 2.08 0.18
-9 -1 1 0.99 0.11
-9 1 1 1.03 0.12
-7 1 1 4.16 0.23
5 -1 -1 5.21 0.27
3 -1 -1 0.49 0.05
5 -1 1 4.85 0.24
-5 1 -1 5.03 0.25
7 -1 1 4.28 0.22
-7 1 -1 4.21 0.24
7 1 1 4.4 0.21
-9 -1 -1 1.06 0.12
-9 1 -1 1.04 0.12
-11 1 -1 2.36 0.19
11 1 1 2.29 0.17
13 -1 1 2.07 0.16
-13 -1 -1 1.89 0.19
13 1 1 1.99 0.17
-13 1 -1 1.54 0.17
15 -1 1 1.36 0.14
-15 -1 -1 1.38 0.17
15 1 1 1.23 0.15
-15 1 -1 1.09 0.15
17 -1 1 -0.01 0.06
-17 -1 -1 -0.02 0.08
-17 1 -1 0.02 0.08
17 1 1 -0.03 0.07
19 1 1 0.43 0.12
-19 1 -1 0.5 0.13
21 -1 1 0.03 0.16
21 1 1 -0.11 0.08
21 1 1 0.15 0.16
23 -1 1 -0.11 0.16
23 1 1 -0.07 0.16
25 -1 1 0.37 0.22
27 -1 1 -0.09 0.19
-27 -1 -1 -0.07 0.09
-27 1 -1 0.06 0.1
-29 -1 -1 -0.02 0.11
-29 1 -1 -0.08 0.11
-31 -1 -1 -0.15 0.11
-31 1 -1 -0.05 0.11
-33 -1 -1 -0.28 0.12
-33 1 -1 -0.18 0.13
-35 -1 -1 0.19 0.15
-35 1 -1 0.17 0.15
-37 -1 -1 -0.14 0.14
-37 1 -1 -0.03 0.15
-39 -1 -1 0.15 0.15
-39 1 -1 0.14 0.15
-41 -1 -1 0.15 0.16
-41 1 -1 -0.08 0.15
-43 -1 -1 -0.04 0.14
-43 1 -1 0.01 0.15
-45 -1 -1 0.05 0.14
-45 1 -1 -0.08 0.13
-47 -1 -1 -0.12 0.11
-47 1 -1 -0.22 0.11
-47 -3 1 0.03 0.11
-47 3 1 -0.03 0.12
-45 -3 1 0.06 0.13
-45 3 1 -0.12 0.13
-43 -3 1 -0.14 0.14
-43 3 1 0 0.15
-41 -3 1 0.23 0.16
-41 3 1 0.15 0.16
-39 -3 1 0.28 0.16
-39 3 1 0.13 0.16
-37 -3 1 0.37 0.17
-37 3 1 0.2 0.16
-35 -3 1 -0.05 0.14
-35 3 1 0.1 0.15
-33 -3 1 0.11 0.13
-33 3 1 0.01 0.14
-31 -3 1 0.14 0.12
-31 3 1 -0.07 0.1
29 -3 -1 0.08 0.23
-29 -3 1 0.06 0.11
-29 3 1 0.02 0.11
27 -3 -1 0.32 0.25
-27 -3 1 0.29 0.11
-27 3 1 0.29 0.1
25 -3 -1 0.12 0.17
23 -3 -1 -0.02 0.15
23 3 -1 0.08 0.11
21 -3 -1 0.07 0.14
-21 3 1 0.04 0.11
21 3 -1 -0.1 0.09
19 -3 -1 0.48 0.17
-19 3 1 0.65 0.14
19 3 -1 0.58 0.2
19 3 -1 0.52 0.12
17 -3 -1 1.07 0.2
17 3 -1 1.19 0.23
17 3 -1 0.96 0.14
-17 3 1 1.19 0.16
15 -3 -1 7.78 0.48
15 3 -1 7.16 0.41
-15 3 1 7.62 0.44
13 -3 -1 7.42 0.44
13 3 -1 6.83 0.38
-13 3 1 7.04 0.4
11 -3 -1 19.3 0.9
-11 3 1 17.81 0.86
11 3 -1 17.69 0.84
9 -3 -1 13.64 0.66
-9 3 1 12.92 0.63
7 -3 -1 8.16 0.41
-7 3 1 7.77 0.39
3 -3 -1 3.34 0.17
3 -3 1 3.54 0.18
7 -3 1 7.54 0.37
-7 3 -1 7.34 0.37
-9 3 -1 13.54 0.65
-11 -3 -1 17.2 0.85
-11 3 -1 18.07 0.84
11 3 1 17.58 0.81
-13 -3 -1 7.1 0.41
-13 3 -1 7.32 0.42
13 3 1 7.44 0.39
-15 3 -1 7.63 0.45
15 3 1 8.01 0.43
-17 3 -1 0.92 0.15
17 3 1 1.16 0.15
19 -3 1 0.33 0.16
19 3 1 0.56 0.13
-19 3 -1 0.56 0.14
21 -3 1 -0.12 0.13
-21 3 -1 0.07 0.1
21 3 1 0.01 0.1
23 -3 1 -0.21 0.13
23 3 1 -0.01 0.1
25 -3 1 -0.03 0.16
27 -3 1 0.05 0.21
-27 -3 -1 0.29 0.11
-27 3 -1 0.09 0.09
29 -3 1 0.14 0.24
-29 -3 -1 -0.04 0.1
-29 3 -1 0.05 0.1
-31 -3 -1 0.09 0.12
-31 3 -1 -0.2 0.1
-33 -3 -1 0.02 0.12
-33 3 -1 -0.15 0.12
-35 -3 -1 -0.1 0.13
-35 3 -1 0.1 0.14
-37 -3 -1 0.35 0.16
-37 3 -1 0.13 0.16
-39 -3 -1 0.2 0.16
-39 3 -1 0.25 0.16
-41 -3 -1 0.15 0.16
-41 3 -1 0.06 0.15
-43 -3 -1 0.17 0.15
-43 3 -1 0 0.15
-45 -3 -1 -0.01 0.13
-45 3 -1 -0.17 0.13
-47 -3 -1 -0.02 0.11
-47 3 -1 -0.33 0.12
-47 -5 1 0.02 0.11
-47 5 1 -0.16 0.12
-45 -5 1 -0.01 0.13
-45 5 1 -0.22 0.13
-43 -5 1 -0.1 0.14
-43 5 1 0.06 0.15
-41 -5 1 -0.09 0.14
-41 5 1 0.16 0.16
-39 -5 1 -0.08 0.15
-39 5 1 0.07 0.15
-37 -5 1 0.24 0.16
-37 5 1 0.13 0.15
-35 -5 1 -0.1 0.14
-35 5 1 0.05 0.14
-33 -5 1 0.02 0.12
-33 5 1 0.01 0.14
31 -5 -1 -0.1 0.22
-31 -5 1 -0.1 0.12
-31 5 1 0.11 0.13
-29 -5 1 0.27 0.12
29 -5 -1 0.07 0.21
-29 5 1 0.1 0.11
-27 -5 1 0.52 0.12
27 -5 -1 0.7 0.25
-27 5 1 0.44 0.11
25 -5 -1 0.12 0.17
25 5 -1 0.31 0.16
23 -5 -1 0.01 0.15
23 5 -1 0.05 0.12
-23 5 1 0.1 0.13
21 -5 -1 0.24 0.16
21 5 -1 0.19 0.12
-21 5 1 0.18 0.12
19 -5 -1 1.37 0.24
19 5 -1 1.33 0.18
-19 5 1 1.14 0.18
17 -5 -1 2.9 0.28
17 5 -1 2.42 0.22
-17 5 1 2.51 0.24
17 5 -1 2.8 0.34
15 -5 -1 8.87 0.54
-15 5 1 9.37 0.51
15 5 -1 9.54 0.5
13 -5 -1 8.5 0.48
-13 5 1 8.07 0.45
13 5 -1 8.17 0.43
11 -5 -1 28.26 1.3
-11 5 1 27.95 1.29
9 -5 -1 32.98 1.44
-9 5 1 32.27 1.43
9 5 -1 30.33 1.4
7 -5 -1 48.35 2.12
-5 5 1 43.75 1.91
-1 -5 1 5.13 0.24
1 -5 1 5.05 0.25
5 -5 1 43.26 1.81
-5 5 -1 44.83 1.93
7 -5 1 47.74 1.97
-9 5 -1 33.65 1.51
-11 5 -1 27.45 1.26
11 5 1 27.43 1.23
-13 5 -1 8.42 0.46
13 5 1 8.39 0.44
15 -5 1 9.41 0.54
-15 5 -1 8.35 0.49
15 5 1 8.92 0.47
17 -5 1 2.35 0.28
-17 5 -1 2.77 0.25
17 5 1 2.66 0.23
19 -5 1 0.89 0.21
19 5 1 1.05 0.17
-19 5 -1 1.24 0.18
21 -5 1 0.27 0.16
21 5 1 0.24 0.12
-21 5 -1 0.18 0.12
23 -5 1 0.21 0.17
23 5 1 0.29 0.13
-23 5 -1 0.06 0.12
25 -5 1 0.32 0.2
25 5 1 0.13 0.14
27 -5 1 0.55 0.24
-27 -5 -1 0.59 0.13
-27 5 -1 0.59 0.11
-29 -5 -1 0.29 0.12
29 -5 1 0.51 0.26
-29 5 -1 0.15 0.11
-31 -5 -1 0.2 0.13
31 -5 1 0.4 0.28
-31 5 -1 0.03 0.12
-33 -5 -1 -0.05 0.12
-33 5 -1 -0.05 0.13
-35 -5 -1 0.12 0.14
-35 5 -1 0.18 0.14
-37 -5 -1 0.21 0.15
-37 5 -1 0.15 0.16
-39 -5 -1 -0.13 0.14
-39 5 -1 0.15 0.15
-41 -5 -1 -0.1 0.14
-41 5 -1 0.09 0.15
-43 -5 -1 0.03 0.14
-43 5 -1 -0.1 0.14
-45 -5 -1 -0.09 0.12
-45 5 -1 -0.16 0.14
-47 -5 -1 -0.05 0.11
-47 5 -1 -0.24 0.12
-47 7 1 -0.24 0.12
-45 -7 1 0.11 0.13
-45 7 1 0.03 0.14
-43 -7 1 -0.11 0.13
-43 7 1 0.01 0.15
-41 -7 1 0.07 0.15
-41 7 1 0.12 0.15
-39 -7 1 -0.19 0.14
-39 7 1 -0.03 0.15
-37 -7 1 -0.1 0.15
-37 7 1 -0.1 0.15
-35 -7 1 -0.03 0.14
-35 7 1 -0.01 0.15
-33 -7 1 -0.03 0.12
-33 7 1 0.11 0.14
-31 -7 1 0.09 0.12
31 -7 -1 -0.19 0.23
-31 7 1 -0.02 0.11
-29 -7 1 0.3 0.12
29 -7 -1 0.16 0.21
-29 7 1 0.09 0.11
-27 -7 1 0.63 0.13
27 -7 -1 0.62 0.25
-27 7 1 0.93 0.15
27 7 -1 0.93 0.23
25 -7 -1 0.42 0.21
-25 7 1 0.49 0.11
-25 7 1 0 0.14
25 7 -1 0.4 0.17
23 -7 -1 0.04 0.14
-23 7 1 0.17 0.13
23 7 -1 0.19 0.14
21 -7 -1 -0.02 0.13
21 7 -1 0.11 0.12
-21 7 1 -0.04 0.1
19 -7 -1 0.92 0.2
19 7 -1 0.75 0.15
-19 7 1 0.96 0.18
17 -7 -1 5.61 0.39
-17 7 1 5.08 0.36
17 7 -1 5.38 0.35
15 -7 -1 9.9 0.55
15 7 -1 9.03 0.5
-15 7 1 9.05 0.51
13 -7 -1 14.44 0.7
13 7 -1 13 0.66
-13 7 1 13.39 0.68
11 -7 -1 32.45 1.41
11 7 -1 30.22 1.37
-11 7 1 29.67 1.4
9 -7 -1 60.32 2.64
-7 7 1 137.88 5.98
-5 7 1 49.96 2.17
-3 -7 1 7.69 0.34
-1 -7 1 4.16 0.21
1 -7 1 3.72 0.21
3 -7 1 8.16 0.39
5 -7 1 47.23 2.06
-5 7 -1 47.75 2.07
-7 7 -1 150.08 6.51
9 -7 1 61.15 2.69
11 -7 1 32.48 1.39
-11 7 -1 29.36 1.37
11 7 1 28.56 1.34
13 -7 1 13.98 0.69
13 7 1 12.94 0.64
-13 7 -1 12.74 0.67
15 -7 1 9 0.55
-15 7 -1 10.1 0.54
15 7 1 9.85 0.51
17 -7 1 5.09 0.39
-17 7 -1 5.5 0.36
17 7 1 5.17 0.34
19 -7 1 1 0.21
-19 7 -1 0.84 0.16
19 7 1 0.86 0.16
21 -7 1 0.18 0.16
21 7 1 0.08 0.12
-21 7 -1 0.39 0.14
23 -7 1 0.18 0.17
23 7 1 0.09 0.13
-23 7 -1 0.34 0.15
25 -7 1 0.28 0.21
25 7 1 0.61 0.19
-25 7 -1 0.41 0.18
-25 7 -1 0.27 0.09
-27 -7 -1 1.08 0.16
27 -7 1 0.67 0.25
27 7 1 0.63 0.21
-27 7 -1 0.79 0.14
-29 -7 -1 0.31 0.12
29 -7 1 0.19 0.22
-29 7 -1 0.2 0.1
31 -7 1 -0.03 0.24
-31 -7 -1 0.08 0.13
-31 7 -1 0.11 0.12
-33 -7 -1 0.07 0.13
-33 7 -1 -0.12 0.12
-35 -7 -1 -0.16 0.14
-35 7 -1 0.18 0.15
-37 -7 -1 -0.08 0.14
-37 7 -1 0.12 0.15
-39 -7 -1 -0.1 0.14
-39 7 -1 0.22 0.16
-41 -7 -1 -0.03 0.14
-41 7 -1 0.02 0.14
-43 -7 -1 -0.11 0.13
-43 7 -1 -0.16 0.14
-45 -7 -1 0.2 0.13
-45 7 -1 -0.11 0.14
-47 7 -1 -0.13 0.12
-47 9 1 -0.16 0.11
-45 -9 1 0.18 0.13
-45 9 1 0.12 0.14
-43 -9 1 0.02 0.13
-43 9 1 0.02 0.15
-41 -9 1 0.01 0.14
-41 9 1 -0.03 0.14
-39 -9 1 -0.22 0.15
-39 9 1 -0.01 0.15
-37 -9 1 -0.1 0.14
-37 9 1 0 0.15
-35 -9 1 -0.32 0.15
-35 9 1 0.22 0.15
-33 -9 1 0.14 0.14
-33 9 1 0.01 0.14
-31 -9 1 0.06 0.14
-31 9 1 0.19 0.13
-29 -9 1 0.14 0.11
29 -9 -1 0.13 0.2
-29 9 1 0.14 0.11
29 9 -1 0.14 0.2
-27 -9 1 0.9 0.16
27 -9 -1 0.6 0.24
27 9 -1 0.32 0.2
-27 9 1 0.92 0.14
25 -9 -1 0.16 0.17
25 9 -1 0.11 0.16
-25 9 1 0.37 0.18
-25 9 1 0.35 0.11
23 -9 -1 0.24 0.16
-23 9 1 0.19 0.15
23 9 -1 0.29 0.16
21 -9 -1 0.14 0.14
21 9 -1 0.53 0.15
-21 9 1 0.11 0.14
19 -9 -1 1.8 0.25
19 9 -1 2.41 0.25
-19 9 1 1.44 0.21
17 -9 -1 7.03 0.46
17 9 -1 6.91 0.43
-17 9 1 6.93 0.44
15 -9 -1 8.53 0.49
-15 9 1 7.88 0.47
15 9 -1 8.41 0.46
13 -9 -1 18.39 0.85
-13 9 1 17.53 0.85
13 9 -1 16.38 0.82
-7 9 1 61.16 2.67
-3 -9 1 13.13 0.57
-1 -9 1 0.04 0.03
1 -9 1 0.93 0.12
3 -9 1 14.46 0.66
5 -9 1 35.44 1.53
7 -9 1 60.41 2.67
-7 9 -1 63.03 2.7
13 -9 1 18.66 0.89
13 9 1 17.89 0.86
-13 9 -1 18.06 0.88
15 -9 1 8.94 0.52
15 9 1 8.7 0.47
-15 9 -1 8.37 0.49
17 -9 1 7.07 0.47
-17 9 -1 7.31 0.46
17 9 1 7.14 0.44
19 -9 1 1.62 0.26
-19 9 -1 1.63 0.22
19 9 1 1.8 0.22
21 -9 1 0.26 0.16
-21 9 -1 0.18 0.14
21 9 1 0.11 0.13
23 -9 1 0.13 0.18
23 9 1 0.35 0.16
-23 9 -1 0.06 0.14
25 -9 1 0.28 0.19
25 -9 1 0.28 0.13
-25 9 -1 0.08 0.14
25 9 1 0.22 0.16
-25 9 -1 0.37 0.09
-27 -9 -1 1 0.15
27 -9 1 0.43 0.23
-27 9 -1 0.55 0.13
-27 9 -1 0.47 0.2
27 9 1 0.92 0.24
29 -9 1 0.24 0.22
-29 -9 -1 0.22 0.12
-29 9 -1 -0.02 0.11
29 9 1 -0.11 0.18
-31 -9 -1 0.13 0.13
-31 9 -1 0.15 0.12
-33 -9 -1 0.13 0.13
-33 9 -1 0.05 0.13
-35 -9 -1 -0.11 0.14
-35 9 -1 0.28 0.15
-37 -9 -1 0.17 0.14
-37 9 -1 0.13 0.16
-39 -9 -1 0.02 0.14
-39 9 -1 0.01 0.15
-41 -9 -1 0.12 0.14
-41 9 -1 0.1 0.15
-43 -9 -1 0.03 0.13
-43 9 -1 -0.12 0.14
-45 9 -1 0.16 0.14
-47 9 -1 -0.12 0.12
-47 11 1 -0.09 0.11
-45 11 1 0.13 0.14
-43 -11 1 0.08 0.13
-43 11 1 -0.04 0.14
-41 -11 1 0.05 0.14
-41 11 1 0.01 0.15
-39 -11 1 -0.09 0.14
-39 11 1 0 0.15
-37 -11 1 -0.03 0.14
-37 11 1 -0.3 0.15
-35 -11 1 -0.2 0.15
-35 11 1 0.1 0.15
-33 -11 1 0.17 0.14
-33 11 1 0.02 0.14
-31 -11 1 0.04 0.14
-31 11 1 0.09 0.13
29 -11 -1 -0.37 0.17
-29 -11 1 0.19 0.13
29 11 -1 0.09 0.2
-29 11 1 0.12 0.11
27 -11 -1 0.47 0.22
-27 -11 1 0.52 0.14
-27 11 1 0.56 0.12
27 11 -1 0.61 0.23
-25 -11 1 0.44 0.13
25 -11 -1 0.56 0.2
-25 11 1 0.32 0.18
25 11 -1 0.27 0.18
-25 11 1 0.52 0.12
23 -11 -1 0.2 0.16
23 11 -1 0.23 0.16
-23 11 1 0.27 0.16
21 -11 -1 0.06 0.12
21 11 -1 0.25 0.14
-21 11 1 0.12 0.14
19 -11 -1 1.21 0.21
19 11 -1 1.52 0.21
-19 11 1 0.96 0.19
17 -11 -1 4.07 0.32
17 11 -1 4.09 0.31
-17 11 1 3.95 0.32
15 -11 -1 6.58 0.39
15 11 -1 5.99 0.37
-15 11 1 5.87 0.38
13 -11 -1 11.85 0.6
-13 11 1 11.66 0.6
13 11 -1 11.78 0.59
11 -11 -1 18.38 0.83
-11 11 1 16.98 0.84
11 11 -1 18.05 0.83
-9 11 1 23.38 1.07
-7 11 1 30.32 1.34
-7 11 -1 29.48 1.31
9 -11 1 23.9 1.04
-9 11 -1 22.43 1.06
11 -11 1 17.59 0.83
-11 11 -1 17.48 0.84
11 11 1 17.98 0.82
13 -11 1 12.01 0.6
13 11 1 11.26 0.57
-13 11 -1 11.35 0.6
15 -11 1 5.97 0.38
15 11 1 5.96 0.36
-15 11 -1 5.78 0.38
17 -11 1 4.08 0.33
-17 11 -1 3.78 0.32
17 11 1 4.18 0.31
19 -11 1 1.32 0.22
-19 11 -1 0.87 0.18
19 11 1 1.05 0.19
21 -11 1 0.25 0.15
21 11 1 0.2 0.14
-21 11 -1 0.08 0.14
23 -11 1 0.16 0.16
23 11 1 0.01 0.14
-23 11 -1 0.28 0.15
25 -11 1 0.21 0.19
25 -11 1 0.6 0.15
-25 11 -1 0.56 0.2
25 11 1 0.15 0.18
-27 -11 -1 0.65 0.14
27 -11 1 0.14 0.21
-27 11 -1 0.58 0.12
-27 11 -1 0.53 0.23
27 11 1 0.26 0.21
29 -11 1 0.09 0.2
-29 -11 -1 0.19 0.13
-29 11 -1 -0.01 0.1
29 11 1 0.12 0.21
-31 -11 -1 0.21 0.14
-31 11 -1 0.06 0.12
-33 -11 -1 0.16 0.13
-33 11 -1 0.2 0.14
-35 -11 -1 -0.07 0.14
-35 11 -1 0.02 0.14
-37 -11 -1 0.09 0.14
-37 11 -1 0 0.15
-39 -11 -1 -0.01 0.13
-39 11 -1 -0.05 0.15
-41 11 -1 0.11 0.15
-43 11 -1 0.04 0.14
-45 11 -1 0.13 0.13
-47 11 -1 -0.11 0.12
-45 13 1 0.08 0.13
-43 13 1 -0.16 0.14
-41 -13 1 0.09 0.15
-41 13 1 0.01 0.15
-39 -13 1 -0.03 0.14
-39 13 1 -0.04 0.16
-37 -13 1 0.21 0.15
-37 13 1 -0.26 0.14
-35 -13 1 0.12 0.15
-35 13 1 0.03 0.15
-33 -13 1 -0.01 0.13
-33 13 1 0.07 0.14
-31 -13 1 -0.08 0.12
31 13 -1 -0.16 0.2
-31 13 1 0 0.12
-29 -13 1 -0.02 0.12
-29 13 1 -0.05 0.11
29 13 -1 0.25 0.21
-27 -13 1 0.22 0.12
-27 13 1 0 0.18
-27 13 1 0.24 0.11
27 13 -1 0.34 0.2
25 -13 -1 -0.06 0.12
-25 -13 1 0.03 0.11
25 -13 -1 0 0.15
25 13 -1 -0.1 0.15
-25 13 1 -0.12 0.15
23 -13 -1 -0.15 0.12
23 -13 -1 -0.12 0.14
23 13 -1 -0.12 0.13
-23 13 1 0.07 0.14
21 -13 -1 0.35 0.15
-21 13 1 0.72 0.18
21 13 -1 0.68 0.17
19 -13 -1 2.6 0.27
-19 13 1 2.35 0.27
19 13 -1 2.74 0.29
17 -13 -1 5.98 0.38
17 13 -1 5.96 0.39
-17 13 1 5.39 0.39
15 13 -1 5.49 0.35
-15 13 1 5.41 0.36
-13 13 1 9.79 0.53
13 13 -1 10.1 0.51
-11 13 1 11.3 0.57
11 13 -1 11.63 0.56
-9 13 1 17.72 0.82
-7 13 1 13.6 0.62
-7 13 -1 12.94 0.59
-9 13 -1 18.62 0.86
11 -13 1 12.59 0.57
11 13 1 11.85 0.57
-11 13 -1 11.34 0.59
13 -13 1 9.82 0.5
13 13 1 9.54 0.49
-13 13 -1 9.47 0.52
15 -13 1 5.97 0.35
-15 13 -1 4.94 0.36
15 13 1 5.27 0.34
17 -13 1 5.55 0.37
-17 13 -1 5.11 0.38
17 13 1 5.5 0.37
19 -13 1 2.03 0.25
-19 13 -1 2.18 0.26
19 13 1 2.32 0.26
21 -13 1 0.55 0.17
21 13 1 0.57 0.16
-21 13 -1 0.62 0.17
23 -13 1 0.11 0.16
23 -13 1 -0.04 0.12
-23 13 -1 0.12 0.15
23 13 1 0.24 0.17
25 -13 1 -0.08 0.13
-25 -13 -1 -0.02 0.11
25 -13 1 0 0.16
-25 13 -1 0 0.15
25 13 1 -0.21 0.14
27 -13 1 0 0.18
27 -13 1 0.21 0.15
-27 -13 -1 0.19 0.12
-27 13 -1 -0.12 0.17
-27 13 -1 0.25 0.12
27 13 1 0.16 0.2
-29 -13 -1 0.18 0.12
29 -13 1 -0.1 0.18
29 13 1 0.13 0.19
-29 13 -1 0.05 0.11
-29 13 -1 0.14 0.19
-31 -13 -1 0.11 0.12
-31 13 -1 0 0.11
31 13 1 0.08 0.22
-33 -13 -1 0.2 0.13
-33 13 -1 0.19 0.14
-35 -13 -1 -0.13 0.13
-35 13 -1 0.12 0.15
-37 13 -1 -0.13 0.15
-39 13 -1 0.05 0.15
-41 13 -1 -0.05 0.14
-43 13 -1 0.03 0.14
-45 13 -1 0.02 0.13
-45 15 1 0 0.12
-43 15 1 -0.06 0.14
-41 15 1 -0.15 0.14
-39 15 1 -0.05 0.15
-37 -15 1 -0.01 0.14
-37 15 1 -0.2 0.15
-35 -15 1 0.07 0.14
-35 15 1 -0.12 0.14
-33 -15 1 -0.06 0.13
-33 15 1 0.02 0.13
-31 -15 1 -0.09 0.13
31 15 -1 0.11 0.22
-31 15 1 0.1 0.13
-29 -15 1 0.1 0.13
-29 15 1 0.07 0.12
29 15 -1 0.24 0.21
-27 -15 1 0.21 0.12
-27 15 1 0.1 0.11
27 15 -1 0.08 0.19
-27 15 1 0.01 0.18
25 -15 -1 -0.16 0.14
-25 -15 1 0.19 0.11
-25 15 1 -0.2 0.14
25 15 -1 -0.06 0.15
23 -15 -1 -0.13 0.12
-23 15 1 0.06 0.15
23 15 -1 0.14 0.15
-21 15 1 0.27 0.15
21 15 -1 0.39 0.16
-19 15 1 1.36 0.22
19 15 -1 1.58 0.22
-17 15 1 4.32 0.35
17 15 -1 4.72 0.34
15 15 -1 7.18 0.4
-15 15 1 6.04 0.41
-13 15 1 5.95 0.37
13 15 -1 5.78 0.35
-11 15 1 6.2 0.35
-9 15 1 8.35 0.42
-7 15 1 8.77 0.41
-7 15 -1 8.67 0.4
-9 15 -1 8.29 0.42
-11 15 -1 5.79 0.34
13 15 1 5.14 0.32
-13 15 -1 5.81 0.35
15 15 1 6.6 0.39
-15 15 -1 6.26 0.41
17 15 1 4.23 0.32
-17 15 -1 4.46 0.35
19 -15 1 1.03 0.17
-19 15 -1 1.22 0.21
19 15 1 1.55 0.22
21 -15 1 0.33 0.14
-21 15 -1 0.45 0.16
21 15 1 0.43 0.16
23 -15 1 0.24 0.12
23 -15 1 -0.05 0.13
23 15 1 0.01 0.15
-23 15 -1 0 0.15
25 -15 1 0.07 0.14
-25 15 -1 -0.06 0.16
25 15 1 -0.02 0.16
27 -15 1 0.22 0.15
-27 15 -1 0.3 0.21
27 15 1 0.17 0.2
29 15 1 0.26 0.21
-29 15 -1 0.02 0.12
-29 15 -1 0.11 0.21
-31 15 -1 0.13 0.13
31 15 1 0 0.21
-33 15 -1 0.05 0.13
-35 15 -1 0 0.14
-37 15 -1 -0.02 0.16
-39 15 -1 -0.03 0.16
-41 15 -1 0.01 0.15
-43 15 -1 0.07 0.14
-45 15 -1 -0.08 0.12
-45 17 1 -0.02 0.11
-43 17 1 -0.05 0.13
-41 17 1 -0.11 0.15
-39 17 1 -0.08 0.15
-37 17 1 -0.11 0.16
-35 17 1 -0.05 0.15
-33 17 1 -0.04 0.14
33 17 -1 0.15 0.23
-31 17 1 -0.13 0.12
31 17 -1 0.26 0.23
29 17 -1 0.36 0.22
-29 17 1 -0.08 0.12
27 -17 -1 0.2 0.17
27 17 -1 0.05 0.19
-27 17 1 0.04 0.12
-27 17 1 0.05 0.2
25 -17 -1 0.31 0.17
-25 17 1 0.42 0.21
25 17 -1 0.54 0.21
23 -17 -1 0.03 0.14
23 17 -1 -0.08 0.15
-23 17 1 0.15 0.16
21 -17 -1 0.63 0.17
21 17 -1 0.89 0.19
-21 17 1 0.58 0.19
19 17 -1 1.17 0.2
-19 17 1 0.94 0.2
-17 17 1 5.14 0.38
17 17 -1 5.42 0.37
-15 17 1 4.42 0.33
15 17 -1 4.52 0.32
-13 17 1 6.11 0.37
13 17 -1 5.41 0.34
-11 17 1 3.93 0.26
-9 17 1 7.07 0.37
-7 17 1 5.19 0.25
-7 17 -1 4.96 0.24
-9 17 -1 6.83 0.36
-11 17 -1 3.7 0.26
-13 17 -1 5.77 0.36
13 17 1 5.21 0.33
15 17 1 4.45 0.31
-15 17 -1 4.27 0.33
-17 17 -1 5.6 0.4
17 17 1 5.31 0.37
-19 17 -1 1.07 0.21
19 17 1 1.21 0.21
21 -17 1 0.56 0.15
21 17 1 0.96 0.21
-21 17 -1 0.77 0.2
23 -17 1 0.14 0.12
23 17 1 0 0.15
-23 17 -1 0.13 0.17
25 -17 1 0.07 0.14
-25 17 -1 0.34 0.2
25 17 1 0.69 0.22
27 -17 1 0.26 0.16
27 17 1 0.18 0.2
-27 17 -1 0.04 0.2
-29 17 -1 0.1 0.21
29 17 1 0.13 0.22
-29 17 -1 0.01 0.12
-31 17 -1 0.16 0.13
31 17 1 0.25 0.23
-33 17 -1 -0.18 0.12
33 17 1 -0.21 0.21
-35 17 -1 -0.11 0.14
-37 17 -1 -0.05 0.16
-39 17 -1 -0.01 0.16
-41 17 -1 -0.04 0.15
-43 17 -1 -0.13 0.13
-45 17 -1 -0.05 0.12
-43 19 1 -0.02 0.13
-41 19 1 -0.02 0.14
-39 19 1 0.03 0.16
-37 19 1 -0.06 0.16
-35 19 1 -0.2 0.15
-33 19 1 -0.02 0.13
33 19 -1 -0.06 0.23
-31 19 1 -0.09 0.12
31 19 -1 0.39 0.25
-29 19 1 -0.02 0.12
29 19 -1 0.51 0.24
27 -19 -1 0.2 0.17
-27 19 1 0.18 0.12
-27 19 1 0.3 0.21
27 19 -1 0 0.2
25 -19 -1 0.04 0.14
25 19 -1 0.27 0.18
-25 19 1 0.06 0.19
23 -19 -1 0.05 0.16
-23 19 1 0.42 0.19
23 19 -1 0.73 0.22
21 -19 -1 -0.17 0.13
21 19 -1 0.21 0.15
-21 19 1 0.14 0.16
19 -19 -1 0.47 0.16
19 19 -1 0.7 0.16
-19 19 1 0.54 0.17
17 19 -1 1.15 0.19
-17 19 1 0.94 0.18
15 19 -1 1.45 0.18
-15 19 1 1.29 0.18
-13 19 1 2.25 0.23
-11 19 1 1.08 0.14
-9 19 1 1.75 0.16
-7 19 1 0.95 0.08
-7 19 -1 1 0.08
-9 19 -1 1.7 0.16
-11 19 -1 1.05 0.14
-13 19 -1 2.52 0.24
15 19 1 1.48 0.18
-15 19 -1 1.1 0.18
17 19 1 1.17 0.19
-17 19 -1 0.94 0.18
19 -19 1 0.35 0.15
-19 19 -1 0.35 0.16
19 19 1 0.77 0.17
21 -19 1 0.13 0.13
21 19 1 0.2 0.15
-21 19 -1 0.13 0.16
23 -19 1 0.22 0.15
-23 19 -1 0.36 0.2
23 19 1 0.51 0.19
25 -19 1 0.25 0.16
25 19 1 0.34 0.19
-25 19 -1 0.14 0.2
27 -19 1 0.37 0.16
27 19 1 0.46 0.22
-27 19 -1 0.3 0.21
-29 19 -1 0.25 0.22
29 19 1 0.54 0.24
-29 19 -1 0.27 0.13
31 19 1 0.3 0.24
-31 19 -1 -0.05 0.12
-33 19 -1 -0.06 0.13
33 19 1 0.23 0.25
-35 19 -1 -0.04 0.15
-37 19 -1 -0.31 0.14
-39 19 -1 0.06 0.16
-41 19 -1 -0.1 0.14
-43 19 -1 -0.06 0.13
-43 21 1 -0.15 0.12
-41 21 1 -0.22 0.13
-39 21 1 0.2 0.15
-37 21 1 0.01 0.15
-35 21 1 0.1 0.16
-33 21 1 0.01 0.14
31 21 -1 -0.03 0.22
-31 21 1 0.05 0.12
-29 21 1 0.2 0.13
29 21 -1 0.07 0.21
27 -21 -1 0.23 0.17
27 21 -1 0.15 0.21
25 -21 -1 0.9 0.2
25 21 -1 1.14 0.26
-25 21 1 0.89 0.25
23 -21 -1 0.13 0.15
-23 21 1 0.45 0.2
23 21 -1 0.54 0.21
21 -21 -1 0.8 0.19
-21 21 1 1.18 0.24
21 21 -1 1.52 0.25
19 -21 -1 0.01 0.13
-19 21 1 0.04 0.14
19 21 -1 0.12 0.14
17 21 -1 0.82 0.17
-17 21 1 0.78 0.18
15 21 -1 0.38 0.13
-15 21 1 0.36 0.13
-13 21 1 0.44 0.12
-11 21 1 0.24 0.09
-9 21 1 0.13 0.07
-7 21 1 0.18 0.05
-7 21 -1 0.18 0.04
-9 21 -1 0.26 0.08
-11 21 -1 0.26 0.09
-13 21 -1 0.54 0.13
-15 21 -1 0.25 0.12
15 21 1 0.39 0.13
17 -21 1 0.56 0.15
-17 21 -1 1.04 0.19
17 21 1 1.12 0.19
19 -21 1 0.05 0.14
19 21 1 0.37 0.16
-19 21 -1 0.2 0.15
21 -21 1 0.98 0.19
-21 21 -1 1.02 0.23
21 21 1 1.52 0.25
23 -21 1 0.3 0.16
-23 21 -1 0.4 0.2
23 21 1 0.36 0.19
25 -21 1 0.85 0.18
25 21 1 1.13 0.27
-25 21 -1 0.8 0.25
27 -21 1 0.4 0.18
27 21 1 0.18 0.22
-27 21 -1 0.31 0.23
29 21 1 0.4 0.24
-29 21 -1 0.05 0.13
31 21 1 -0.16 0.21
-31 21 -1 -0.12 0.14
-33 21 -1 -0.21 0.13
-35 21 -1 -0.08 0.15
-37 21 -1 -0.01 0.16
-39 21 -1 -0.09 0.14
-41 21 -1 -0.06 0.14
-43 21 -1 0.04 0.13
-41 23 1 -0.14 0.13
-39 23 1 0.05 0.15
-37 23 1 -0.11 0.15
-35 23 1 0.14 0.15
-33 23 1 0.04 0.14
-31 23 1 0.15 0.14
29 23 -1 0.1 0.22
-29 23 1 0.17 0.13
27 -23 -1 0.18 0.17
27 23 -1 0.11 0.23
25 -23 -1 0.39 0.17
25 23 -1 0.27 0.2
-25 23 1 0.22 0.21
23 -23 -1 0.27 0.16
-23 23 1 0.62 0.22
23 23 -1 1.08 0.24
21 -23 -1 0.13 0.15
-21 23 1 0.23 0.18
21 23 -1 0.62 0.21
19 -23 -1 0.18 0.14
-19 23 1 0.39 0.17
19 23 -1 0.71 0.18
17 -23 -1 0.17 0.13
17 23 -1 0.2 0.13
-17 23 1 -0.01 0.13
15 -23 -1 0.17 0.13
-15 23 1 -0.03 0.11
-13 23 1 -0.02 0.09
-11 23 1 0.13 0.09
-9 23 1 0.09 0.07
-7 23 1 0.13 0.05
-7 23 -1 0.23 0.05
-9 23 -1 0.19 0.08
-11 23 -1 0.13 0.09
-13 23 -1 0.09 0.1
15 -23 1 0.17 0.13
-15 23 -1 -0.11 0.1
17 -23 1 -0.03 0.13
-17 23 -1 -0.15 0.12
17 23 1 0.02 0.12
19 -23 1 0.07 0.14
19 23 1 0.71 0.19
-19 23 -1 0.39 0.17
21 -23 1 0.38 0.15
21 23 1 0.31 0.18
-21 23 -1 0.13 0.18
23 -23 1 0.37 0.17
23 23 1 0.82 0.22
-23 23 -1 0.34 0.21
25 -23 1 0.13 0.16
-25 23 -1 -0.14 0.18
25 23 1 0.44 0.22
27 -23 1 0 0.17
27 23 1 0.31 0.23
29 23 1 0.28 0.24
-29 23 -1 0.19 0.13
-31 23 -1 0.05 0.14
-33 23 -1 -0.03 0.14
-35 23 -1 -0.06 0.16
-37 23 -1 -0.13 0.15
-39 23 -1 -0.04 0.14
-41 23 -1 -0.13 0.13
-39 25 1 0.19 0.14
-37 25 1 -0.01 0.15
-35 25 1 -0.13 0.15
-33 25 1 0.13 0.15
-31 25 1 -0.11 0.13
-29 25 1 0.43 0.15
29 25 -1 0.22 0.25
27 -25 -1 0.32 0.18
27 25 -1 0.19 0.23
-27 25 1 0.39 0.14
25 -25 -1 0.7 0.19
25 25 -1 0.58 0.24
23 -25 -1 0.1 0.16
23 25 -1 0.16 0.18
-23 25 1 0.09 0.19
21 -25 -1 0.68 0.18
21 25 -1 1.22 0.24
-21 25 1 0.79 0.22
19 -25 -1 -0.01 0.13
-19 25 1 0.01 0.15
19 25 -1 0.27 0.16
17 -25 -1 0.21 0.14
17 25 -1 0.44 0.15
-17 25 1 0.47 0.16
15 -25 -1 0.19 0.13
-15 25 1 -0.07 0.11
13 -25 -1 0.18 0.12
-13 25 1 -0.07 0.1
-11 25 1 0.37 0.11
-9 25 1 0.14 0.08
-7 25 1 0.46 0.08
-7 25 -1 0.5 0.08
-9 25 -1 0.34 0.09
-11 25 -1 0.39 0.11
13 -25 1 0.06 0.12
-13 25 -1 0.04 0.1
15 -25 1 0.07 0.13
-15 25 -1 -0.03 0.11
17 -25 1 0.22 0.13
-17 25 -1 0.31 0.15
17 25 1 0.65 0.17
19 -25 1 0.12 0.14
19 25 1 0.16 0.16
-19 25 -1 -0.08 0.15
21 -25 1 0.76 0.18
21 25 1 1.12 0.23
-21 25 -1 0.62 0.21
23 -25 1 0.18 0.15
23 25 1 0.27 0.18
-23 25 -1 0.22 0.2
25 -25 1 0.57 0.18
25 25 1 0.88 0.27
27 -25 1 0.25 0.18
27 25 1 0.02 0.21
-29 25 -1 0.09 0.14
29 25 1 0.12 0.25
-31 25 -1 -0.02 0.14
-33 25 -1 0.22 0.15
-35 25 -1 -0.1 0.15
-37 25 -1 0.01 0.15
-39 25 -1 0.24 0.15
-41 25 -1 -0.12 0.13
-39 27 1 -0.04 0.13
-37 27 1 -0.14 0.14
-35 27 1 -0.07 0.14
-33 27 1 -0.11 0.14
-31 27 1 0.11 0.14
-29 27 1 0.3 0.15
27 27 -1 0.42 0.25
-27 27 1 0.23 0.14
25 -27 -1 0.51 0.18
25 27 -1 0.24 0.21
23 -27 -1 0.04 0.16
23 27 -1 0.41 0.21
21 -27 -1 0.23 0.15
-21 27 1 -0.08 0.18
21 27 -1 0.27 0.18
19 -27 -1 0.21 0.15
-19 27 1 0.05 0.16
19 27 -1 0.14 0.16
17 -27 -1 0.18 0.14
-17 27 1 -0.06 0.14
15 -27 -1 0.17 0.12
-15 27 1 -0.02 0.12
-13 27 1 -0.04 0.11
-11 27 1 0.56 0.13
-9 27 1 0.68 0.12
-7 27 1 0.71 0.1
-7 27 -1 0.92 0.11
-9 27 -1 0.9 0.13
11 -27 1 0.36 0.14
-11 27 -1 0.56 0.12
13 -27 1 0.27 0.13
-13 27 -1 0.12 0.11
15 -27 1 0.24 0.14
-15 27 -1 0.04 0.13
17 -27 1 0.13 0.13
-17 27 -1 0.01 0.14
19 -27 1 0.28 0.14
19 27 1 -0.02 0.15
-19 27 -1 0.17 0.17
21 -27 1 0.16 0.15
-21 27 -1 0.1 0.19
21 27 1 0.2 0.17
23 -27 1 0.22 0.16
23 27 1 0.1 0.19
25 -27 1 0.32 0.17
25 27 1 -0.14 0.2
27 -27 1 0.33 0.19
27 27 1 0.31 0.25
-29 27 -1 0.33 0.15
-31 27 -1 0.22 0.15
-33 27 -1 0.2 0.15
-35 27 -1 -0.03 0.15
-37 27 -1 0.11 0.14
-39 27 -1 0.06 0.13
-37 29 1 0.13 0.14
-35 29 1 0.1 0.14
-33 29 1 -0.03 0.15
-31 29 1 0.01 0.14
-29 29 1 -0.01 0.14
-27 29 1 -0.05 0.14
25 -29 -1 0.59 0.19
25 29 -1 0.24 0.24
23 -29 -1 -0.02 0.16
23 29 -1 0.11 0.2
21 -29 -1 0 0.15
21 29 -1 -0.02 0.17
19 -29 -1 0.02 0.15
19 29 -1 0.22 0.18
17 -29 -1 0.13 0.15
-17 29 1 0 0.13
-15 29 1 -0.04 0.12
-13 29 1 0.02 0.12
-11 29 1 0.13 0.1
-9 29 1 0.07 0.08
-7 29 1 0.13 0.07
-7 29 -1 0.23 0.08
-9 29 -1 0.08 0.08
-11 29 -1 0.25 0.11
13 -29 1 0.11 0.13
-13 29 -1 -0.11 0.12
15 -29 1 0.07 0.14
-15 29 -1 -0.11 0.12
17 -29 1 0.02 0.13
-17 29 -1 0.1 0.15
19 -29 1 0.14 0.15
19 29 1 0.25 0.17
21 -29 1 -0.06 0.15
21 29 1 0 0.16
23 -29 1 -0.01 0.17
23 29 1 0.48 0.22
25 -29 1 0.16 0.17
25 29 1 0.15 0.23
27 -29 1 0.41 0.19
-29 29 -1 0.16 0.15
-31 29 -1 0.12 0.15
-33 29 -1 -0.05 0.15
-35 29 -1 0.13 0.15
-37 29 -1 -0.16 0.12
-35 31 1 -0.07 0.13
-33 31 1 0.15 0.14
-31 31 1 -0.11 0.14
-29 31 1 0.18 0.13
-27 31 1 0.01 0.14
25 -31 -1 -0.04 0.16
23 -31 -1 0.06 0.17
21 -31 -1 -0.07 0.17
21 31 -1 0 0.16
-15 31 1 0.14 0.13
-13 31 1 0.09 0.11
-11 31 1 0.21 0.11
-9 31 1 0.09 0.09
-7 31 1 0.06 0.08
-9 31 -1 0.17 0.1
-11 31 -1 0.01 0.1
-13 31 -1 -0.01 0.12
15 -31 1 -0.05 0.14
-15 31 -1 0.16 0.14
17 -31 1 -0.1 0.14
19 -31 1 -0.04 0.15
21 -31 1 -0.18 0.15
21 31 1 0.04 0.17
23 -31 1 -0.15 0.16
25 -31 1 0.31 0.18
-27 31 -1 -0.06 0.14
-29 31 -1 0.1 0.15
-31 31 -1 0.19 0.15
-33 31 -1 -0.14 0.14
-35 31 -1 0.07 0.14
-11 33 -1 -0.03 0.1
19 -33 1 -0.04 0.16
21 -33 1 -0.08 0.16
23 -33 1 0.02 0.17
25 -33 1 -0.14 0.16
-27 33 -1 -0.05 0.13
-29 33 -1 0.13 0.14
-31 33 -1 0.08 0.14
-33 33 -1 -0.04 0.13
-48 0 2 -0.11 0.11
-46 0 2 -0.11 0.12
-44 0 2 0.19 0.16
-42 0 2 12.41 0.72
-40 0 2 0.45 0.2
-38 0 2 11.95 0.7
-36 0 2 0.6 0.22
-34 0 2 2.9 0.32
-32 0 2 0.28 0.17
-30 0 2 0.09 0.12
-28 0 2 -0.09 0.11
-26 0 2 52.63 2.4
24 0 -2 0.11 0.19
22 0 -2 174 7.69
20 0 -2 0.08 0.11
20 0 -2 0.3 0.22
18 0 -2 360.52 15.48
18 0 -2 364.94 15.66
16 0 -2 0.36 0.1
16 0 -2 0.3 0.15
14 0 -2 28.07 1.36
-14 0 2 28.69 1.31
14 0 -2 27.35 1.26
-12 0 2 2.63 0.22
12 0 -2 2.77 0.26
12 0 -2 2.53 0.19
10 0 -2 79.13 3.29
-10 0 2 69.38 3.27
8 0 -2 0.69 0.12
-8 0 2 0.86 0.1
6 0 -2 208.06 9.07
-6 0 2 214.88 9.16
4 0 -2 -0.06 0.04
2 0 -2 402.01 17.25
6 0 2 214.91 8.31
-6 0 -2 203.47 9.05
8 0 2 0.78 0.1
-8 0 -2 0.9 0.1
10 0 2 82.06 3.3
-10 0 -2 81.53 3.59
-12 0 -2 2.4 0.2
12 0 2 2.55 0.19
14 0 2 27.51 1.25
-14 0 -2 27.41 1.29
-16 0 -2 0.18 0.11
16 0 2 0.43 0.1
-18 0 -2 371.66 15.76
18 0 2 353.75 15.48
20 0 2 -0.18 0.11
22 0 2 169.78 7.53
24 0 2 0.06 0.2
-28 0 -2 -0.03 0.11
-30 0 -2 -0.11 0.11
-32 0 -2 0.39 0.16
-34 0 -2 2.88 0.31
-38 0 -2 12.41 0.7
-40 0 -2 0.81 0.2
-42 0 -2 13.09 0.74
-44 0 -2 0.36 0.16
-46 0 -2 -0.18 0.12
-48 2 2 -0.03 0.11
-46 -2 2 -0.1 0.12
-46 2 2 -0.06 0.13
-44 -2 2 6.29 0.45
-44 2 2 6.7 0.47
-42 -2 2 0.15 0.18
-42 2 2 0.53 0.18
-40 -2 2 21.78 1.13
-40 2 2 22.77 1.14
-38 -2 2 0.11 0.17
-38 2 2 0.35 0.17
-36 -2 2 61.69 2.93
-36 2 2 66.95 2.94
-34 -2 2 0.06 0.13
-34 2 2 0.1 0.14
-32 -2 2 57.78 2.7
-32 2 2 61.11 2.71
-30 -2 2 -0.01 0.11
-30 2 2 -0.02 0.11
-28 -2 2 31.66 1.45
28 -2 -2 28.43 1.65
-28 2 2 32 1.46
26 -2 -2 -0.18 0.2
-26 2 2 0 0.1
24 -2 -2 11.3 0.75
22 -2 -2 0.18 0.19
22 2 -2 0.11 0.12
20 -2 -2 258.57 11.39
20 2 -2 267.47 11.25
20 2 -2 260.41 11.42
18 -2 -2 -0.05 0.15
-18 2 2 -0.24 0.13
18 2 -2 0.03 0.1
18 2 -2 0.27 0.19
16 -2 -2 45.01 1.85
16 -2 -2 39.15 1.95
16 2 -2 40.34 1.97
-16 2 2 42.69 1.93
16 2 -2 41.83 1.88
14 -2 -2 0.03 0.11
-14 2 2 0.03 0.08
14 2 -2 -0.04 0.11
14 2 -2 -0.01 0.07
12 -2 -2 19.86 0.97
-12 2 2 18.81 0.94
12 2 -2 18.55 0.98
12 2 -2 21.89 0.92
10 -2 -2 0.13 0.11
-10 2 2 0.11 0.09
10 2 -2 0.27 0.09
10 2 -2 0.15 0.12
8 -2 -2 11.27 0.59
-8 2 2 12.39 0.57
8 2 -2 11.96 0.6
6 -2 -2 0.43 0.08
6 2 -2 0.54 0.09
-6 2 2 0.53 0.07
4 -2 -2 15.38 0.69
-4 2 2 14.77 0.68
4 2 -2 15.64 0.7
2 -2 2 -0.12 0.03
4 -2 2 15.44 0.68
-4 2 -2 16.55 0.72
6 -2 2 0.46 0.07
-6 2 -2 0.38 0.06
8 -2 2 11.89 0.55
8 2 2 12.29 0.53
-8 2 -2 12.4 0.59
-10 -2 -2 0.24 0.09
10 -2 2 0.06 0.1
-10 2 -2 0.09 0.09
10 2 2 0.1 0.08
12 2 2 20.76 0.92
-12 2 -2 19.03 0.94
-14 -2 -2 0.16 0.09
-14 2 -2 0.08 0.09
14 2 2 -0.01 0.07
-16 -2 -2 40.39 1.91
16 2 2 42.07 1.87
-16 2 -2 42.74 1.92
-18 2 -2 -0.37 0.12
18 2 2 -0.17 0.1
20 2 2 261.46 11.7
-20 2 -2 284.46 11.92
22 -2 2 -0.12 0.2
22 2 2 -0.06 0.12
24 -2 2 10.61 0.75
26 -2 2 -0.17 0.2
-28 -2 -2 31.75 1.44
28 -2 2 27.47 1.66
-28 2 -2 31.52 1.44
-30 -2 -2 -0.19 0.1
-30 2 -2 -0.07 0.09
-32 -2 -2 60.41 2.7
-32 2 -2 58.32 2.7
-34 -2 -2 0.21 0.14
-34 2 -2 0.24 0.14
-36 -2 -2 65.63 3
-36 2 -2 66.24 3
-38 -2 -2 0.22 0.16
-38 2 -2 0.45 0.16
-40 -2 -2 21.97 1.12
-40 2 -2 22.24 1.11
-42 -2 -2 0.57 0.18
-42 2 -2 0.37 0.17
-44 -2 -2 6.62 0.45
-44 2 -2 6.38 0.47
-46 -2 -2 -0.07 0.12
-48 4 2 0.01 0.12
-46 -4 2 0.02 0.12
-46 4 2 -0.19 0.13
-44 -4 2 0.02 0.14
-44 4 2 0.25 0.16
-42 -4 2 6.1 0.47
-42 4 2 6.32 0.47
-40 -4 2 0.18 0.18
-40 4 2 0.54 0.18
-38 -4 2 4.41 0.4
-38 4 2 4.69 0.4
-36 -4 2 0.61 0.22
-36 4 2 0.92 0.2
-34 -4 2 1.32 0.2
-34 4 2 1.12 0.19
32 -4 -2 -0.05 0.29
-32 -4 2 0.14 0.15
-32 4 2 0.19 0.15
-30 -4 2 0.03 0.11
30 -4 -2 0.11 0.24
-30 4 2 -0.01 0.11
28 -4 -2 -0.31 0.18
-28 -4 2 0.02 0.11
-28 4 2 0.05 0.11
-26 -4 2 24.39 1.13
26 -4 -2 21.38 1.28
-26 4 2 23.96 1.12
24 -4 -2 0.14 0.17
24 4 -2 0.06 0.12
22 -4 -2 89.24 4.09
22 4 -2 91.14 3.98
20 -4 -2 0.12 0.17
-20 4 2 -0.28 0.13
20 4 -2 0.19 0.13
18 -4 -2 182.97 8.24
18 4 -2 183.11 8.14
18 4 -2 192.44 8.3
-18 4 2 198.34 8.29
16 -4 -2 0.02 0.12
-16 4 2 0.01 0.08
16 4 -2 0.09 0.08
16 4 -2 0.06 0.13
14 -4 -2 55.72 2.45
-14 -4 2 54.42 2.19
14 4 -2 54.03 2.48
-14 4 2 55.25 2.44
14 4 -2 51.31 2.38
-12 -4 2 0.46 0.06
12 -4 -2 0.4 0.12
-12 4 2 0.34 0.09
12 4 -2 0.32 0.08
12 4 -2 0.23 0.12
10 -4 -2 97.92 3.99
-10 -4 2 89.11 3.64
10 4 -2 87.99 3.93
-10 4 2 90.46 4
8 -4 -2 1.09 0.13
-8 4 2 0.89 0.1
6 -4 -2 2.92 0.19
6 4 -2 3.18 0.21
4 -4 -2 0.7 0.07
-4 4 2 0.57 0.06
0 -4 2 -0.08 0.04
0 -4 2 -0.05 0.02
2 -4 2 15.17 0.65
4 -4 2 0.61 0.08
-4 4 -2 0.66 0.06
8 -4 2 1.23 0.14
-8 4 -2 0.89 0.11
10 -4 2 96.36 3.83
-10 4 -2 96.86 4.14
10 4 2 89.82 4.06
-12 4 -2 0.37 0.09
12 4 2 0.25 0.07
-14 -4 -2 54.12 2.48
14 4 2 53.7 2.41
-14 4 -2 56.07 2.46
16 4 2 0.07 0.08
-16 4 -2 0.11 0.09
-18 4 -2 195.83 8.29
18 4 2 182.67 8.15
20 -4 2 -0.3 0.18
20 4 2 -0.04 0.13
-20 4 -2 -0.28 0.14
22 -4 2 87.26 4.04
-22 4 -2 93.59 4
22 4 2 84.15 3.9
24 -4 2 0.01 0.16
24 4 2 0.02 0.12
26 -4 2 21.46 1.29
-26 4 -2 23.58 1.08
-28 -4 -2 -0.03 0.11
28 -4 2 0.09 0.27
-28 4 -2 0.04 0.11
30 -4 2 -0.09 0.22
-30 -4 -2 -0.02 0.11
-30 4 -2 -0.1 0.09
-32 -4 -2 0.11 0.15
32 -4 2 -0.09 0.3
-32 4 -2 0.55 0.16
-34 -4 -2 1.23 0.19
-34 4 -2 1.63 0.21
-36 -4 -2 0.59 0.2
-38 -4 -2 4.52 0.4
-38 4 -2 4.63 0.41
-40 -4 -2 0.2 0.17
-42 -4 -2 6.19 0.46
-42 4 -2 6.4 0.48
-44 -4 -2 -0.01 0.14
-44 4 -2 0.15 0.16
-46 -4 -2 0.04 0.12
-46 -6 2 0.07 0.12
-46 6 2 -0.04 0.13
-44 -6 2 1.5 0.21
-44 6 2 1.71 0.22
-42 -6 2 0.05 0.15
-42 6 2 0.01 0.15
-40 -6 2 7.77 0.54
-40 6 2 8.45 0.55
-38 -6 2 -0.12 0.14
-38 6 2 -0.13 0.14
-36 -6 2 25.94 1.3
-36 6 2 27.2 1.31
-34 -6 2 0.02 0.13
-34 6 2 0.12 0.15
-32 -6 2 27.96 1.33
-32 6 2 27.39 1.33
30 -6 -2 -0.04 0.22
-30 -6 2 0.07 0.12
-30 6 2 0.03 0.12
-28 -6 2 27.52 1.29
28 -6 -2 24.74 1.45
-28 6 2 28.19 1.29
26 -6 -2 -0.04 0.19
-26 -6 2 0.02 0.09
26 6 -2 -0.18 0.13
-26 6 2 0.03 0.08
24 -6 -2 0.18 0.17
24 6 -2 0.86 0.19
22 -6 -2 -0.1 0.15
22 6 -2 -0.22 0.11
-22 6 2 -0.15 0.12
20 -6 -2 67.68 3.23
-20 6 2 74.56 3.24
20 6 -2 71.51 3.17
18 -6 -2 0.12 0.13
18 6 -2 0.04 0.1
-18 6 2 -0.12 0.11
16 -6 -2 3.81 0.32
-16 6 2 3.95 0.3
16 6 -2 4.63 0.29
14 -6 -2 0.11 0.1
14 6 -2 0.02 0.11
-14 6 2 -0.03 0.07
14 6 -2 0.08 0.07
12 -6 -2 9.29 0.51
-12 6 2 8.48 0.49
12 6 -2 9.4 0.55
12 6 -2 10.7 0.49
10 -6 -2 0.05 0.08
-10 6 2 0.11 0.07
10 6 -2 0.06 0.06
6 -6 -2 0.38 0.08
-6 6 2 0.44 0.07
-4 6 2 3.17 0.16
-2 -6 2 0.45 0.06
0 -6 2 219.36 8.72
2 -6 2 0.43 0.07
4 -6 2 -0.04 0.02
6 -6 2 0.5 0.11
-6 6 -2 0.37 0.07
10 -6 2 0.21 0.1
-10 6 -2 0.11 0.07
10 6 2 0.11 0.06
-12 6 -2 8.2 0.45
-14 6 -2 0 0.08
14 6 2 0.04 0.07
16 6 2 4.22 0.29
-16 6 -2 4.01 0.3
18 -6 2 -0.23 0.13
-18 6 -2 -0.21 0.1
18 6 2 -0.04 0.1
20 -6 2 66.26 3.17
20 6 2 69.11 3.09
-20 6 -2 72.11 3.15
22 -6 2 -0.18 0.16
22 6 2 -0.01 0.12
-22 6 -2 -0.07 0.12
24 -6 2 0.61 0.22
24 6 2 0.27 0.15
-24 6 -2 0.47 0.16
26 -6 2 -0.13 0.2
26 6 2 -0.23 0.13
-26 6 -2 -0.09 0.09
28 -6 2 24.31 1.44
-28 -6 -2 27.54 1.26
-28 6 -2 26.48 1.25
30 -6 2 0.37 0.25
-30 -6 -2 0 0.11
-30 6 -2 -0.05 0.11
-32 -6 -2 27.86 1.34
-32 6 -2 27.98 1.34
-34 -6 -2 0.02 0.13
-34 6 -2 0.04 0.13
-36 -6 -2 24.8 1.26
-36 6 -2 26.71 1.27
-38 -6 -2 -0.15 0.14
-38 6 -2 0.09 0.15
-40 -6 -2 8.4 0.56
-40 6 -2 9.25 0.56
-42 -6 -2 0.02 0.14
-42 6 -2 -0.05 0.15
-44 -6 -2 1.59 0.2
-44 6 -2 1.49 0.21
-46 6 -2 -0.06 0.14
-46 -8 2 0.24 0.13
-46 8 2 0.03 0.13
-44 -8 2 0.07 0.13
-44 8 2 0.1 0.15
-42 -8 2 0.43 0.16
-42 8 2 0.43 0.17
-40 -8 2 0.03 0.15
-40 8 2 0 0.15
-38 -8 2 0.02 0.14
-38 8 2 0.01 0.15
-36 -8 2 0.3 0.17
-36 8 2 0.39 0.17
-34 -8 2 0.05 0.14
-34 8 2 0.2 0.15
-32 -8 2 0.2 0.14
-32 8 2 0.04 0.13
-30 -8 2 0.17 0.12
30 -8 -2 0.16 0.19
-30 8 2 -0.04 0.11
28 -8 -2 0.05 0.19
-28 -8 2 0.41 0.12
28 8 -2 -0.13 0.18
-28 8 2 0.13 0.1
26 -8 -2 0.34 0.19
-26 -8 2 0.4 0.12
-26 8 2 0.48 0.11
26 8 -2 0.04 0.16
24 -8 -2 0.06 0.15
-24 8 2 -0.05 0.13
24 8 -2 -0.15 0.13
22 -8 -2 3.27 0.34
-22 8 2 3.5 0.34
22 8 -2 3.5 0.33
20 -8 -2 0.08 0.14
20 8 -2 0.05 0.11
-20 8 2 0.17 0.12
18 -8 -2 11.23 0.66
18 8 -2 11.63 0.63
-18 8 2 11.86 0.65
16 -8 -2 0.08 0.11
16 8 -2 0.06 0.09
-16 8 2 0.02 0.09
14 -8 -2 1.62 0.19
14 8 -2 1.36 0.15
-14 8 2 1 0.14
12 -8 -2 0.02 0.08
-12 8 2 -0.02 0.07
12 8 -2 0.07 0.07
10 -8 -2 19.52 0.91
10 8 -2 19.63 0.9
8 -8 -2 -0.1 0.03
-8 8 2 -0.04 0.05
-6 8 2 12.63 0.58
-4 -8 2 1 0.1
-2 -8 2 11.79 0.52
0 -8 2 0.01 0.03
2 -8 2 11.8 0.54
4 -8 2 0.92 0.13
4 -8 2 0.83 0.08
8 -8 2 0.02 0.1
12 -8 2 -0.13 0.09
-12 8 -2 -0.02 0.07
12 8 2 -0.04 0.06
14 -8 2 1 0.17
-14 8 -2 1.37 0.16
14 8 2 1.79 0.17
16 -8 2 0.08 0.13
16 8 2 0.21 0.1
-16 8 -2 -0.04 0.09
18 -8 2 10.77 0.67
-18 8 -2 11.49 0.64
18 8 2 11.3 0.62
20 -8 2 0.07 0.16
-20 8 -2 0.12 0.13
20 8 2 0.14 0.13
22 -8 2 2.84 0.36
22 8 2 4.45 0.35
-22 8 -2 3.46 0.34
24 -8 2 0.17 0.19
24 8 2 0.03 0.14
-24 8 -2 -0.05 0.13
26 -8 2 0.4 0.22
26 8 2 0.26 0.17
-26 8 -2 0.26 0.17
28 -8 2 0.11 0.23
-28 -8 -2 0.02 0.11
-28 8 -2 0.03 0.1
28 8 2 -0.19 0.17
30 -8 2 0.21 0.24
-30 -8 -2 0.2 0.12
-30 8 -2 0.06 0.1
-32 -8 -2 0.01 0.13
-32 8 -2 0.08 0.12
-34 -8 -2 0.24 0.14
-34 8 -2 0.09 0.14
-36 -8 -2 0 0.15
-36 8 -2 0.39 0.16
-38 -8 -2 -0.11 0.14
-38 8 -2 0.05 0.15
-40 -8 -2 -0.01 0.14
-40 8 -2 0.14 0.15
-42 -8 -2 0.3 0.15
-42 8 -2 0.34 0.16
-44 8 -2 0.07 0.14
-46 8 -2 0.05 0.13
-46 -10 2 0.26 0.13
-46 10 2 -0.03 0.12
-44 -10 2 0.26 0.14
-44 10 2 -0.01 0.14
-42 -10 2 0.13 0.14
-42 10 2 -0.06 0.15
-40 -10 2 0.3 0.15
-40 10 2 0.26 0.16
-38 -10 2 -0.08 0.14
-38 10 2 -0.21 0.15
-36 -10 2 0.93 0.19
-36 10 2 1.39 0.23
-34 -10 2 -0.09 0.14
-34 10 2 0.04 0.14
-32 -10 2 3.55 0.33
-32 10 2 3.59 0.34
-30 -10 2 -0.03 0.13
30 -10 -2 0.35 0.23
-30 10 2 -0.03 0.11
30 10 -2 -0.02 0.19
-28 -10 2 13.18 0.68
28 -10 -2 11.72 0.82
28 10 -2 13.77 0.83
-28 10 2 12.28 0.66
26 -10 -2 0.17 0.16
-26 -10 2 0.11 0.11
26 10 -2 -0.23 0.14
-26 10 2 -0.07 0.1
24 -10 -2 30.4 1.58
24 10 -2 33.61 1.57
-24 10 2 31.8 1.59
-24 10 2 31.83 1.47
22 -10 -2 -0.23 0.13
22 10 -2 -0.04 0.13
-22 10 2 0.22 0.15
20 -10 -2 14.14 0.79
-20 10 2 14.41 0.79
20 10 -2 14.11 0.77
18 -10 -2 0.04 0.13
18 10 -2 -0.02 0.11
-18 10 2 -0.03 0.11
16 -10 -2 34.2 1.59
16 10 -2 33.18 1.57
-16 10 2 35.39 1.61
14 -10 -2 -0.1 0.09
-14 10 2 -0.08 0.08
14 10 -2 -0.07 0.07
12 -10 -2 13.58 0.66
-12 10 2 13.94 0.66
12 10 -2 12.27 0.64
-10 10 2 0.15 0.07
10 10 -2 0.12 0.07
-8 10 2 17.43 0.8
-6 -10 2 0.08 0.05
-6 10 2 0.1 0.04
-4 -10 2 92.14 3.69
-2 -10 2 0.23 0.06
0 -10 2 81.9 3.31
2 -10 2 0.21 0.09
4 -10 2 97.27 3.95
6 -10 2 0.07 0.04
6 -10 2 0.08 0.09
-6 10 -2 0.05 0.04
6 10 2 0.14 0.04
8 -10 2 18.37 0.83
-8 10 -2 17.56 0.83
10 -10 2 -0.05 0.03
10 10 2 0.01 0.06
-10 10 -2 0.05 0.07
12 -10 2 13.33 0.66
-12 10 -2 14.08 0.65
12 10 2 11.46 0.62
14 -10 2 -0.09 0.1
-14 10 -2 -0.09 0.07
14 10 2 -0.01 0.07
16 -10 2 33.83 1.57
16 10 2 32.13 1.52
-16 10 -2 33.6 1.56
18 -10 2 -0.19 0.13
18 10 2 -0.02 0.11
-18 10 -2 -0.09 0.11
20 -10 2 13.4 0.76
-20 10 -2 13.74 0.75
20 10 2 12.85 0.73
22 -10 2 -0.03 0.15
-22 10 -2 0.01 0.13
22 10 2 -0.03 0.13
24 -10 2 30.06 1.57
24 -10 2 31.24 1.46
-24 10 -2 31.19 1.56
24 10 2 31.65 1.54
26 -10 2 0.03 0.18
-26 -10 -2 -0.07 0.1
26 -10 2 0.25 0.13
-26 10 -2 -0.04 0.15
26 10 2 -0.18 0.14
28 -10 2 11.93 0.8
-28 -10 -2 12.22 0.64
28 10 2 13.02 0.8
-28 10 -2 11.79 0.63
30 -10 2 0.18 0.23
-30 -10 -2 0.08 0.12
30 10 2 -0.03 0.19
-30 10 -2 0.02 0.09
-32 -10 -2 3.17 0.31
-32 10 -2 2.99 0.29
-34 -10 -2 0.15 0.14
-34 10 -2 0.15 0.14
-36 -10 -2 1 0.19
-36 10 -2 1 0.19
-38 -10 -2 0.13 0.14
-38 10 -2 -0.11 0.15
-40 -10 -2 0.3 0.15
-40 10 -2 0.31 0.16
-42 10 -2 0.07 0.14
-44 10 -2 0.22 0.15
-46 10 -2 0.01 0.13
-46 12 2 0.06 0.13
-44 -12 2 0.11 0.14
-44 12 2 -0.07 0.14
-42 -12 2 0.79 0.17
-42 12 2 0.95 0.19
-40 -12 2 0.15 0.15
-40 12 2 -0.17 0.14
-38 -12 2 3.66 0.34
-38 12 2 2.5 0.28
-36 -12 2 0.12 0.15
-36 12 2 0.08 0.16
-34 -12 2 1.64 0.22
-34 12 2 1.64 0.22
-32 -12 2 0 0.13
-32 12 2 0.15 0.14
-30 -12 2 1.4 0.19
-30 12 2 1.15 0.17
30 12 -2 1.92 0.32
-28 -12 2 0.1 0.12
-28 12 2 0.17 0.12
28 12 -2 0.02 0.2
-26 -12 2 2.29 0.25
-26 12 2 2.03 0.22
26 12 -2 2.03 0.32
24 -12 -2 0.06 0.16
24 -12 -2 0.31 0.14
-24 12 2 0.02 0.17
-24 12 2 0.04 0.1
24 12 -2 0.13 0.17
22 -12 -2 8.13 0.55
-22 12 2 9.08 0.57
22 12 -2 8.62 0.56
20 -12 -2 -0.02 0.13
-20 12 2 0.16 0.15
20 12 -2 0.13 0.13
18 -12 -2 19.48 0.97
-18 12 2 19.66 0.99
18 12 -2 19.24 0.97
16 -12 -2 -0.12 0.11
-16 12 2 0.04 0.11
16 12 -2 0.03 0.1
-14 12 2 40.34 1.8
14 12 -2 38.18 1.76
-12 12 2 -0.03 0.07
12 12 -2 0.01 0.07
10 12 -2 12.63 0.64
-10 12 2 14.65 0.66
-8 12 2 0.02 0.05
-6 12 2 8.49 0.39
-2 -12 2 18.52 0.81
0 -12 2 2.87 0.21
2 -12 2 18.76 0.85
4 -12 2 0.38 0.11
6 12 2 7.99 0.39
8 -12 2 0.02 0.04
-8 12 -2 -0.04 0.05
10 -12 2 13.14 0.62
10 12 2 11.48 0.6
-10 12 -2 14.51 0.64
12 -12 2 -0.15 0.07
12 12 2 -0.06 0.06
-12 12 -2 -0.09 0.07
14 -12 2 39.56 1.78
14 12 2 37.04 1.75
-14 12 -2 41.13 1.81
16 -12 2 -0.18 0.12
16 12 2 -0.07 0.09
-16 12 -2 -0.14 0.11
18 -12 2 20.18 1
-18 12 -2 20.4 1.01
18 12 2 18.8 0.98
20 -12 2 0.1 0.15
-20 12 -2 0.04 0.14
20 12 2 0.1 0.13
22 -12 2 8.74 0.57
-22 12 -2 8.88 0.57
22 12 2 8.31 0.56
24 -12 2 0.12 0.18
24 -12 2 0.29 0.13
-24 12 -2 0.02 0.17
24 12 2 -0.08 0.15
26 -12 2 2.24 0.32
26 -12 2 1.96 0.22
26 12 2 1.79 0.3
-26 12 -2 1.88 0.28
-28 -12 -2 0.06 0.13
28 -12 2 0.06 0.19
28 12 2 -0.17 0.18
-28 12 -2 -0.13 0.18
-28 12 -2 0.23 0.11
-30 -12 -2 1.58 0.2
30 12 2 1.42 0.32
-30 12 -2 1.57 0.19
-32 -12 -2 0.14 0.13
-32 12 -2 0.01 0.12
-34 -12 -2 1.68 0.23
-34 12 -2 1.54 0.21
-36 12 -2 0.09 0.15
-38 12 -2 3.76 0.37
-40 12 -2 0.03 0.15
-42 12 -2 0.68 0.17
-44 12 -2 0.04 0.13
-46 12 -2 0.19 0.13
-46 14 2 -0.1 0.11
-44 14 2 0.13 0.14
-42 14 2 -0.04 0.14
-40 -14 2 2.58 0.26
-40 14 2 2.44 0.27
-38 -14 2 0.19 0.15
-38 14 2 0.19 0.16
-36 -14 2 5.85 0.45
-36 14 2 6.59 0.48
-34 -14 2 0.01 0.14
-34 14 2 -0.04 0.14
-32 -14 2 2.7 0.29
32 14 -2 2.02 0.35
-32 14 2 2.01 0.23
-30 -14 2 -0.12 0.12
30 14 -2 -0.13 0.2
-30 14 2 -0.02 0.12
-28 -14 2 0.51 0.14
-28 14 2 0.31 0.13
28 14 -2 0.99 0.26
-26 -14 2 0.23 0.12
26 14 -2 -0.06 0.16
-26 14 2 0 0.1
-26 14 2 0.27 0.19
24 -14 -2 32.3 1.55
-24 -14 2 33.85 1.54
-24 14 2 32.13 1.66
24 14 -2 35.08 1.64
22 14 -2 0.08 0.14
-22 14 2 0.05 0.15
-20 14 2 68.87 3.16
20 14 -2 69.72 3.11
-18 14 2 0.04 0.13
18 14 -2 0.13 0.12
-16 14 2 74.5 3.16
16 14 -2 66.05 3.09
14 14 -2 -0.01 0.08
-14 14 2 -0.05 0.09
-12 14 2 42 1.79
12 14 -2 36.92 1.75
-10 14 2 0 0.06
-8 14 2 1.43 0.12
6 14 2 0.02 0.04
-8 14 -2 1.06 0.11
-10 14 -2 -0.01 0.06
12 -14 2 39.87 1.72
12 14 2 35.05 1.71
-12 14 -2 41.64 1.77
14 -14 2 -0.12 0.09
-14 14 -2 -0.04 0.1
14 14 2 -0.06 0.08
16 -14 2 71.49 3.08
16 14 2 63.92 3.06
-16 14 -2 73.62 3.14
18 -14 2 -0.23 0.12
-18 14 -2 -0.2 0.13
18 14 2 -0.07 0.12
20 -14 2 62.95 2.92
20 14 2 65.84 2.93
-20 14 -2 66.44 2.99
22 -14 2 0.48 0.13
22 -14 2 -0.16 0.14
-22 14 -2 -0.17 0.14
22 14 2 0.19 0.15
24 -14 2 32.86 1.58
24 -14 2 31.42 1.51
24 14 2 33.61 1.6
-24 14 -2 31.02 1.61
26 -14 2 0.23 0.16
26 -14 2 0.18 0.14
26 14 2 0.2 0.17
-26 14 -2 -0.06 0.16
28 -14 2 0.86 0.18
28 -14 2 0.38 0.22
-28 14 -2 0.63 0.24
28 14 2 0.91 0.25
-28 14 -2 0.43 0.13
30 14 2 0 0.21
-30 14 -2 -0.02 0.11
32 14 2 2.13 0.37
-32 14 -2 2.79 0.29
-34 14 -2 0.15 0.14
-36 14 -2 6.4 0.48
-38 14 -2 0.34 0.16
-40 14 -2 3.26 0.36
-42 14 -2 0.25 0.15
-44 14 -2 0.26 0.14
-46 14 -2 -0.02 0.11
-44 16 2 0.19 0.14
-42 16 2 3.86 0.37
-40 16 2 0.4 0.16
-38 16 2 10.1 0.61
-36 16 2 0.42 0.17
-34 -16 2 6.67 0.45
-34 16 2 6.16 0.46
-32 -16 2 0.23 0.14
32 16 -2 0.07 0.22
-32 16 2 0.28 0.15
-30 -16 2 5.97 0.41
30 16 -2 6.04 0.58
-30 16 2 6.3 0.42
-28 -16 2 0.18 0.13
28 16 -2 0.07 0.2
-28 16 2 0.02 0.12
-26 -16 2 13.39 0.69
26 -16 -2 13.18 0.73
-26 16 2 12.92 0.68
-26 16 2 12.65 0.83
26 16 -2 13.6 0.83
24 -16 -2 0.14 0.16
24 16 -2 -0.03 0.16
-24 16 2 0.23 0.19
22 -16 -2 58.19 2.7
-22 16 2 57.57 2.77
22 16 -2 63.87 2.75
-20 16 2 0.07 0.16
20 16 -2 0.18 0.15
18 16 -2 106.95 4.75
-18 16 2 110.1 4.83
16 16 -2 0.18 0.11
-16 16 2 0.17 0.13
14 16 -2 65.3 3.06
-14 16 2 74.24 3.12
12 16 -2 0.01 0.08
-12 16 2 -0.08 0.08
-10 16 2 35.15 1.58
-8 16 2 0.06 0.05
-8 16 -2 0.1 0.05
-10 16 -2 35.97 1.63
-12 16 -2 -0.19 0.08
12 16 2 -0.07 0.07
-14 16 -2 75.04 3.14
14 16 2 64.9 3.06
-16 16 -2 -0.23 0.13
16 16 2 0.05 0.11
-18 16 -2 109.14 4.65
18 16 2 99.13 4.56
20 16 2 -0.16 0.13
-20 16 -2 -0.19 0.17
22 -16 2 58.1 2.61
22 16 2 56.72 2.65
-22 16 -2 58.39 2.7
24 -16 2 0.42 0.14
24 16 2 0.18 0.18
-24 16 -2 0.25 0.2
26 -16 2 12.02 0.69
26 16 2 13.86 0.82
-26 16 -2 12.75 0.82
28 -16 2 0.23 0.16
-28 16 -2 -0.03 0.2
28 16 2 0.23 0.22
-30 16 -2 6 0.4
30 16 2 6.06 0.58
-30 16 -2 5.42 0.57
-32 16 -2 0.22 0.14
32 16 2 0.28 0.24
-34 16 -2 6.71 0.46
-36 16 -2 0.42 0.16
-38 16 -2 10.66 0.64
-40 16 -2 0.28 0.16
-42 16 -2 4.42 0.38
-44 16 -2 0.2 0.14
-44 18 2 0.94 0.17
-42 18 2 0.33 0.15
-40 18 2 7.72 0.51
-38 18 2 0.78 0.19
-36 18 2 10.3 0.62
-34 18 2 0.04 0.15
32 18 -2 3.44 0.45
-32 18 2 3.93 0.37
-30 -18 2 0.32 0.14
-30 18 2 0.01 0.12
30 18 -2 0.25 0.23
-28 -18 2 0.09 0.13
-28 18 2 0.27 0.12
28 18 -2 0.48 0.23
26 -18 -2 0 0.15
-26 -18 2 0.39 0.14
26 18 -2 0.13 0.19
-26 18 2 0.07 0.1
24 -18 -2 53.18 2.53
-24 -18 2 57 2.51
-24 18 2 51.58 2.63
24 18 -2 60.67 2.61
22 -18 -2 0.94 0.17
-22 18 2 -0.08 0.2
20 -18 -2 123.31 5.48
20 18 -2 123.68 5.44
-20 18 2 125.35 5.54
18 18 -2 0.26 0.15
-18 18 2 0.16 0.16
16 18 -2 105.56 4.71
-16 18 2 110.67 4.8
14 18 -2 0.16 0.11
-14 18 2 -0.03 0.1
-12 18 2 20.33 0.97
-10 18 2 -0.03 0.07
-8 18 2 11.04 0.53
-8 18 -2 10.18 0.49
-10 18 -2 -0.09 0.07
-12 18 -2 20.87 1.01
14 18 2 -0.02 0.1
-14 18 -2 -0.15 0.11
-16 18 -2 108.07 4.71
16 18 2 103.67 4.62
18 18 2 0.01 0.15
-18 18 -2 -0.32 0.17
20 -18 2 123.12 5.32
-20 18 -2 119.13 5.37
20 18 2 118.18 5.28
-22 18 -2 -0.23 0.2
22 18 2 0.16 0.19
24 -18 2 52.89 2.46
24 18 2 57.19 2.54
-24 18 -2 51.9 2.56
26 -18 2 0.23 0.15
-26 18 -2 -0.22 0.19
26 18 2 0.1 0.19
28 -18 2 0.01 0.15
28 18 2 0.27 0.22
-28 18 -2 0.39 0.22
-30 18 -2 0.24 0.25
30 18 2 0.16 0.22
-30 18 -2 0.18 0.13
32 18 2 3.25 0.46
-32 18 -2 4.53 0.38
-34 18 -2 0.06 0.14
-36 18 -2 10.81 0.65
-38 18 -2 0.62 0.18
-40 18 -2 7.79 0.51
-42 18 -2 0.38 0.15
-44 18 -2 1.25 0.18
-42 20 2 3.49 0.33
-38 20 2 8.43 0.54
-36 20 2 0.29 0.16
-34 20 2 5.85 0.44
32 20 -2 0.31 0.23
-32 20 2 0.23 0.14
-30 20 2 4.61 0.36
30 20 -2 4.3 0.52
28 20 -2 0.12 0.2
-28 20 2 0.17 0.12
26 -20 -2 14.36 0.83
26 20 -2 17.66 0.97
24 -20 -2 0.45 0.16
-24 20 2 -0.25 0.2
24 20 -2 0.14 0.2
22 -20 -2 85.02 3.94
-22 20 2 85.76 4.02
22 20 -2 94.12 3.97
20 -20 -2 0.76 0.16
-20 20 2 0.04 0.19
20 20 -2 0.08 0.16
-18 20 2 121.34 5.28
18 20 -2 116.09 5.19
16 20 -2 0.12 0.12
-16 20 2 0.07 0.13
-14 20 2 65.44 2.94
-12 20 2 0.19 0.1
-10 20 2 12.68 0.63
-8 20 2 0.17 0.06
-8 20 -2 0.17 0.06
-10 20 -2 12.91 0.64
-12 20 -2 -0.03 0.09
-14 20 -2 63.2 2.85
-16 20 -2 -0.32 0.13
16 20 2 -0.03 0.12
18 -20 2 120.04 5.21
18 20 2 114.65 5.15
-18 20 -2 118.05 5.25
-20 20 -2 -0.23 0.19
20 20 2 -0.18 0.16
22 -20 2 84.85 3.85
22 20 2 85.98 3.87
-22 20 -2 87.34 3.94
24 20 2 0.2 0.2
-24 20 -2 -0.12 0.21
26 -20 2 14.01 0.79
-26 20 -2 14.89 0.93
26 20 2 16.02 0.93
28 -20 2 0.13 0.16
-28 20 -2 0.34 0.23
28 20 2 0.33 0.23
-30 20 -2 4.34 0.35
30 20 2 3.66 0.49
-32 20 -2 -0.08 0.13
32 20 2 0.05 0.23
-34 20 -2 5.95 0.45
-36 20 -2 0.33 0.16
-38 20 -2 9.2 0.57
-40 20 -2 0.56 0.16
-42 20 -2 3.32 0.33
-42 22 2 0.34 0.14
-40 22 2 4.25 0.37
-38 22 2 0.3 0.16
-36 22 2 4.84 0.42
-34 22 2 0.07 0.16
-32 22 2 1.06 0.19
30 22 -2 0.15 0.23
-30 22 2 -0.01 0.13
28 22 -2 0.3 0.22
-28 22 2 0.36 0.13
26 -22 -2 0.43 0.18
26 22 -2 0.13 0.2
24 -22 -2 31.92 1.59
24 22 -2 38.53 1.72
-24 22 2 31.36 1.71
22 -22 -2 0.99 0.18
22 22 -2 0.43 0.2
-22 22 2 -0.34 0.2
20 -22 -2 87.17 3.91
-20 22 2 88.49 3.98
20 22 -2 87.32 3.91
18 22 -2 -0.08 0.14
-18 22 2 0.09 0.17
16 22 -2 55.33 2.5
-16 22 2 55.94 2.55
-14 22 2 -0.01 0.1
-12 22 2 8.54 0.48
-10 22 2 0.03 0.07
-8 22 2 3.24 0.2
-8 22 -2 3.05 0.21
-10 22 -2 -0.03 0.07
-12 22 -2 8.09 0.47
-14 22 -2 0.06 0.11
16 -22 2 58.6 2.57
-16 22 -2 56.78 2.6
16 22 2 54.36 2.54
-18 22 -2 -0.42 0.17
18 22 2 -0.05 0.16
20 -22 2 83.44 3.77
-20 22 -2 84.85 3.84
20 22 2 84.27 3.77
-22 22 -2 -0.28 0.21
22 22 2 0.09 0.19
24 -22 2 32.38 1.57
24 22 2 35.62 1.69
-24 22 -2 31.4 1.69
26 -22 2 0.44 0.17
-26 22 -2 -0.06 0.21
26 22 2 0.09 0.21
28 -22 2 -0.06 0.16
28 22 2 0.25 0.22
30 22 2 0.12 0.23
-30 22 -2 -0.04 0.13
-32 22 -2 0.95 0.18
-34 22 -2 0.07 0.15
-36 22 -2 4.58 0.42
-38 22 -2 0.22 0.16
-40 22 -2 4.43 0.38
-42 22 -2 0.09 0.13
-40 24 2 0.25 0.14
-38 24 2 1.72 0.23
-36 24 2 0.02 0.15
-34 24 2 0.86 0.2
-32 24 2 0.22 0.15
-30 24 2 0.7 0.17
28 24 -2 0.14 0.23
-28 24 2 0.1 0.12
26 -24 -2 4.57 0.4
26 24 -2 4.35 0.49
24 -24 -2 0.28 0.16
24 24 -2 0.16 0.19
22 -24 -2 33.26 1.6
-22 24 2 32.72 1.71
22 24 -2 36.05 1.69
20 -24 -2 0.57 0.16
20 24 -2 0.28 0.17
-20 24 2 0.04 0.18
18 -24 -2 50.72 2.42
18 24 -2 57.51 2.45
-18 24 2 51.92 2.48
16 -24 -2 0.36 0.13
-16 24 2 0.18 0.13
-14 24 2 28.92 1.38
-12 24 2 -0.01 0.09
-10 24 2 28.58 1.32
-8 24 2 0.08 0.06
-6 24 2 0.46 0.06
-8 24 -2 -0.05 0.06
-10 24 -2 28.1 1.31
-12 24 -2 0.11 0.11
14 -24 2 30.25 1.41
-14 24 -2 29.19 1.42
16 -24 2 0.43 0.15
-16 24 -2 0.01 0.13
18 -24 2 50.57 2.37
18 24 2 53.88 2.39
-18 24 -2 51.78 2.44
20 -24 2 0.62 0.16
20 24 2 0.39 0.19
-20 24 -2 0.05 0.2
22 -24 2 32.12 1.56
-22 24 -2 31.05 1.66
22 24 2 35.64 1.65
24 -24 2 0.42 0.16
-24 24 -2 -0.14 0.2
24 24 2 0.08 0.19
26 -24 2 4.58 0.41
26 24 2 4.42 0.49
28 -24 2 -0.18 0.17
28 24 2 -0.13 0.21
-30 24 -2 0.68 0.16
-32 24 -2 -0.07 0.14
-34 24 -2 0.96 0.19
-36 24 -2 -0.05 0.15
-38 24 -2 1.45 0.21
-40 24 -2 0.36 0.14
-38 26 2 0.09 0.14
-36 26 2 0.35 0.16
-34 26 2 -0.04 0.15
-32 26 2 0.29 0.16
-30 26 2 0.1 0.13
-28 26 2 0.52 0.16
28 26 -2 0.59 0.26
26 -26 -2 0.13 0.16
26 26 -2 0.26 0.22
-26 26 2 -0.01 0.13
24 -26 -2 4.29 0.39
24 26 -2 4.8 0.49
22 -26 -2 0.29 0.16
-22 26 2 -0.05 0.18
22 26 -2 0.14 0.18
20 -26 -2 13.64 0.75
-20 26 2 13.98 0.85
20 26 -2 14.83 0.83
18 -26 -2 0.19 0.13
18 26 -2 0.27 0.16
-18 26 2 -0.06 0.14
16 -26 -2 11.01 0.62
-16 26 2 11.8 0.67
-14 26 2 0.18 0.12
-12 26 2 2.37 0.24
-10 26 2 -0.01 0.08
-8 26 2 0.4 0.08
-6 26 2 -0.01 0.04
-6 26 -2 -0.02 0.05
-8 26 -2 0.9 0.12
10 -26 2 -0.07 0.11
-10 26 -2 0.15 0.09
12 -26 2 2.12 0.23
-12 26 -2 2.02 0.22
14 -26 2 0.05 0.13
-14 26 -2 0.09 0.12
16 -26 2 11.09 0.64
-16 26 -2 12.1 0.69
18 -26 2 0.27 0.14
18 26 2 0.17 0.16
-18 26 -2 -0.1 0.14
20 -26 2 13.6 0.74
20 26 2 15.62 0.84
-20 26 -2 12.47 0.82
22 -26 2 0.45 0.17
22 26 2 0.11 0.19
-22 26 -2 0 0.2
24 -26 2 4.34 0.39
24 26 2 4.31 0.48
26 -26 2 0.24 0.17
26 26 2 0.02 0.21
28 -26 2 0.81 0.21
28 26 2 0.67 0.27
-30 26 -2 0.02 0.14
-32 26 -2 0.12 0.15
-34 26 -2 -0.01 0.15
-36 26 -2 0.1 0.16
-38 26 -2 -0.03 0.13
-40 26 -2 0.71 0.16
-38 28 2 0.01 0.13
-36 28 2 0.13 0.14
-34 28 2 -0.03 0.15
-32 28 2 0.04 0.15
-30 28 2 0.56 0.16
-28 28 2 -0.08 0.14
-26 28 2 0.51 0.16
26 28 -2 0.39 0.25
24 -28 -2 0.06 0.16
24 28 -2 0.25 0.2
22 -28 -2 0.08 0.16
22 28 -2 -0.22 0.15
20 -28 -2 0.04 0.15
20 28 -2 0.04 0.16
-18 28 2 0 0.15
-16 28 2 -0.05 0.12
-14 28 2 0.36 0.14
-12 28 2 0.14 0.11
-10 28 2 11.15 0.58
-8 28 2 0.11 0.07
-6 28 2 21.97 1
-6 28 -2 24.39 1.11
8 -28 2 0.35 0.13
-8 28 -2 -0.02 0.08
10 -28 2 11.34 0.61
-10 28 -2 11.05 0.59
12 -28 2 0.21 0.14
-12 28 -2 -0.08 0.1
14 -28 2 0.65 0.16
-14 28 -2 0.6 0.15
16 -28 2 0.02 0.14
-16 28 -2 -0.03 0.14
18 -28 2 0.15 0.14
-18 28 -2 0.2 0.16
18 28 2 0.46 0.18
20 -28 2 0.05 0.14
20 28 2 0.12 0.16
-20 28 -2 0.11 0.17
22 -28 2 0.17 0.16
22 28 2 0.03 0.17
24 -28 2 0.31 0.18
24 28 2 0.21 0.2
26 -28 2 0.55 0.19
26 28 2 0.53 0.24
28 -28 2 0.23 0.19
-30 28 -2 0.83 0.18
-32 28 -2 -0.05 0.14
-34 28 -2 0.09 0.15
-36 28 -2 -0.11 0.14
-38 28 -2 -0.07 0.13
-36 30 2 0.68 0.16
-34 30 2 0.2 0.14
-32 30 2 0.18 0.16
-30 30 2 0.23 0.14
-28 30 2 0.67 0.17
-26 30 2 -0.16 0.13
24 -30 -2 0.8 0.19
22 -30 -2 -0.13 0.16
22 30 -2 0.01 0.17
20 30 -2 4.21 0.45
-16 30 2 4.85 0.4
-14 30 2 -0.03 0.12
-12 30 2 1.16 0.17
-10 30 2 0.14 0.09
-8 30 2 0.13 0.08
-6 30 2 0.05 0.06
-8 30 -2 0.17 0.08
-10 30 -2 0.19 0.1
12 -30 2 1.34 0.19
-12 30 -2 1.57 0.2
14 -30 2 0.11 0.15
-14 30 -2 -0.01 0.12
16 -30 2 5.13 0.39
-16 30 -2 5.02 0.41
18 -30 2 0.1 0.15
20 -30 2 3.69 0.36
20 30 2 4.05 0.43
22 -30 2 0.08 0.17
22 30 2 0.1 0.18
24 -30 2 0.49 0.19
26 -30 2 0.08 0.18
-28 30 -2 0.78 0.18
-30 30 -2 0.03 0.15
-32 30 -2 0.33 0.16
-34 30 -2 0.09 0.15
-36 30 -2 0.85 0.17
20 32 -2 0.21 0.19
-8 32 -2 0.08 0.1
-10 32 -2 2.78 0.25
-12 32 -2 0.07 0.11
14 -32 2 1.86 0.22
16 -32 2 0.23 0.14
18 -32 2 2.54 0.26
20 -32 2 0.12 0.16
20 32 2 0.05 0.17
22 -32 2 1.21 0.21
24 -32 2 -0.17 0.16
26 -32 2 0.19 0.17
-28 32 -2 -0.15 0.13
-30 32 -2 0.29 0.15
-32 32 -2 0.16 0.15
-34 32 -2 3.33 0.32
18 -34 2 0 0.16
20 -34 2 4.83 0.4
22 -34 2 0.11 0.16
24 -34 2 0.71 0.19
-26 34 -2 -0.2 0.13
-28 34 -2 0.13 0.14
-30 34 -2 0.23 0.13
-32 34 -2 2.2 0.23
-47 -1 3 -0.05 0.12
-47 1 3 -0.16 0.11
-45 -1 3 -0.13 0.13
-45 1 3 -0.1 0.13
-43 -1 3 0.07 0.15
-43 1 3 0.12 0.15
-41 -1 3 0.11 0.16
-41 1 3 0.11 0.16
-39 -1 3 0.27 0.17
-39 1 3 0.14 0.16
-37 -1 3 0.33 0.17
-37 1 3 0.19 0.16
-35 -1 3 0.12 0.15
-35 1 3 0.29 0.15
-33 -1 3 -0.04 0.13
-33 1 3 -0.14 0.13
-31 -1 3 0.05 0.12
-31 1 3 -0.02 0.12
-29 -1 3 0.2 0.1
-29 1 3 0.04 0.11
-27 -1 3 0.34 0.11
-27 1 3 0.09 0.1
25 -1 -3 0.23 0.19
23 -1 -3 0.03 0.19
23 1 -3 0.06 0.17
21 -1 -3 -0.08 0.15
21 1 -3 0.07 0.1
21 1 -3 -0.12 0.13
19 -1 -3 0.46 0.17
19 1 -3 0.56 0.19
19 1 -3 0.53 0.12
17 -1 -3 1.07 0.2
17 -1 -3 1.32 0.15
17 1 -3 1.15 0.21
17 1 -3 1.27 0.15
15 -1 -3 7.55 0.49
15 -1 -3 8.04 0.42
15 1 -3 7.67 0.5
15 1 -3 8.26 0.43
13 -1 -3 7.35 0.45
13 -1 -3 7.11 0.38
13 1 -3 7.14 0.45
13 1 -3 7.3 0.38
11 -1 -3 17.7 0.88
-11 1 3 17.44 0.85
11 1 -3 17.75 0.82
11 1 -3 18.68 0.89
9 -1 -3 13.92 0.68
-9 1 3 13.47 0.65
9 1 -3 13.1 0.68
-7 -1 3 7.69 0.35
7 -1 -3 7.5 0.4
7 1 -3 7.94 0.41
-5 -1 3 7.05 0.32
5 -1 -3 7.41 0.36
5 1 -3 7.21 0.37
-3 -1 3 3.79 0.19
3 1 -3 3.95 0.2
-3 1 3 3.42 0.18
-1 1 3 0 0.01
1 -1 3 0.31 0.04
3 -1 3 3.61 0.18
5 -1 3 7.48 0.34
5 1 3 7.42 0.33
-5 1 -3 7.18 0.36
-7 -1 -3 7.84 0.41
7 -1 3 7.99 0.38
7 1 3 7.87 0.37
9 -1 3 13.26 0.62
-9 -1 -3 13.54 0.65
9 1 3 13.44 0.6
-9 1 -3 13.95 0.66
11 -1 3 18.58 0.81
11 1 3 17.77 0.79
11 1 3 18.03 0.83
-11 1 -3 17.72 0.86
-13 -1 -3 7.2 0.41
13 -1 3 7.51 0.38
-13 1 -3 7.09 0.41
13 1 3 7.41 0.39
-15 -1 -3 7.83 0.45
15 -1 3 7.79 0.41
15 1 3 7.75 0.42
-15 1 -3 7.62 0.45
17 -1 3 1.35 0.15
-17 -1 -3 1.11 0.17
17 1 3 1.01 0.14
-17 1 -3 1.13 0.16
-19 1 -3 0.56 0.14
19 1 3 0.6 0.13
21 1 3 -0.13 0.08
23 -1 3 -0.01 0.16
25 -1 3 0.22 0.19
-27 -1 -3 0.27 0.11
-27 1 -3 0.12 0.11
-29 -1 -3 -0.03 0.1
-29 1 -3 -0.02 0.11
-31 -1 -3 -0.03 0.12
-31 1 -3 -0.17 0.11
-33 -1 -3 -0.02 0.13
-33 1 -3 -0.05 0.13
-35 -1 -3 0.05 0.14
-35 1 -3 0.05 0.14
-37 -1 -3 0.21 0.16
-37 1 -3 0.17 0.15
-39 -1 -3 0.31 0.16
-39 1 -3 0.15 0.15
-41 -1 -3 0 0.14
-41 1 -3 0.12 0.15
-43 -1 -3 0.21 0.15
-43 1 -3 0.03 0.15
-45 -1 -3 -0.13 0.13
-45 1 -3 -0.24 0.13
-47 -1 -3 -0.14 0.11
-47 1 -3 -0.11 0.11
-47 -3 3 0.04 0.12
-47 3 3 -0.1 0.12
-45 -3 3 0.14 0.14
-45 3 3 0.02 0.14
-43 -3 3 0.12 0.15
-43 3 3 0.11 0.15
-41 -3 3 -0.06 0.15
-41 3 3 0.13 0.16
-39 -3 3 0.13 0.16
-39 3 3 0.15 0.16
-37 -3 3 0.43 0.18
-37 3 3 0.17 0.17
-35 -3 3 0.91 0.2
-35 3 3 1.17 0.2
-33 -3 3 1.26 0.19
-33 3 3 0.77 0.17
-31 -3 3 2.66 0.29
-31 3 3 2.61 0.28
-29 -3 3 3.71 0.3
29 -3 -3 2.84 0.44
-29 3 3 3.58 0.3
-27 -3 3 4.42 0.33
27 -3 -3 3.5 0.46
-27 3 3 5.11 0.33
25 -3 -3 3.88 0.45
23 -3 -3 1.74 0.29
23 3 -3 1.64 0.22
21 -3 -3 0.61 0.2
21 3 -3 0.73 0.16
19 -3 -3 1.39 0.24
19 3 -3 1.09 0.23
19 3 -3 1.01 0.16
17 -3 -3 4.29 0.34
-17 3 3 4.24 0.31
17 3 -3 4.37 0.37
17 3 -3 3.74 0.28
15 -3 -3 32.5 1.5
-15 -3 3 31.65 1.31
15 3 -3 30.48 1.52
-15 3 3 33.64 1.48
15 3 -3 29.57 1.43
13 -3 -3 21.49 1.03
13 3 -3 21.39 1.06
-13 3 3 21.84 1.01
13 3 -3 19.79 0.97
-11 -3 3 32.08 1.3
11 -3 -3 32.26 1.46
11 3 -3 32.2 1.48
11 3 -3 29.77 1.41
-11 3 3 32.4 1.45
-9 -3 3 12.25 0.5
9 -3 -3 11.66 0.58
-9 3 3 12.6 0.57
9 3 -3 12.24 0.61
9 3 -3 9.66 0.54
7 -3 -3 0.29 0.08
-7 -3 3 0.35 0.06
-7 3 3 0.44 0.07
7 3 -3 0.47 0.1
5 -3 -3 3.02 0.18
-5 -3 3 3.18 0.16
5 3 -3 3.07 0.19
-3 3 3 0.03 0.01
-1 -3 3 3.42 0.17
1 -3 3 3.63 0.19
1 3 3 3.68 0.18
-3 3 -3 1.16 0.08
7 -3 3 0.26 0.08
7 3 3 0.4 0.07
-7 3 -3 0.31 0.07
9 -3 3 13.47 0.61
9 3 3 13.03 0.57
-9 3 -3 13.15 0.64
11 -3 3 32.94 1.41
-11 -3 -3 32.38 1.5
11 3 3 33.32 1.36
11 3 3 32.34 1.47
-11 3 -3 34.19 1.51
-13 -3 -3 21.59 1.03
13 3 3 20.2 1
-13 3 -3 23.34 1.04
-15 -3 -3 24.75 1.33
-15 3 -3 33.29 1.37
15 3 3 28.85 1.32
17 3 3 4.44 0.3
-17 3 -3 4.32 0.32
-19 3 -3 0.81 0.15
19 3 3 0.96 0.16
21 3 3 0.66 0.15
-21 3 -3 0.86 0.17
23 -3 3 1.66 0.31
23 3 3 1.85 0.23
25 -3 3 3.5 0.45
27 -3 3 3.71 0.5
-27 -3 -3 4.28 0.31
-27 3 -3 4.73 0.31
29 -3 3 2.67 0.47
-29 -3 -3 3.41 0.29
-29 3 -3 3.21 0.27
-31 -3 -3 3.36 0.3
-31 3 -3 2.79 0.29
-33 -3 -3 0.99 0.17
-33 3 -3 1.08 0.18
-35 -3 -3 0.97 0.18
-35 3 -3 0.94 0.18
-37 -3 -3 0.39 0.16
-37 3 -3 0.4 0.17
-39 -3 -3 0.21 0.15
-39 3 -3 0.14 0.14
-41 -3 -3 0 0.14
-41 3 -3 0.13 0.15
-43 -3 -3 0.02 0.14
-43 3 -3 0.25 0.16
-45 -3 -3 0.06 0.13
-45 3 -3 0.06 0.14
-47 -3 -3 0 0.11
-47 3 -3 -0.37 0.11
-47 -5 3 0.17 0.12
-47 5 3 0.14 0.13
-45 -5 3 0.51 0.15
-45 5 3 0.32 0.15
-43 -5 3 0.58 0.16
-43 5 3 0.37 0.17
-41 -5 3 -0.06 0.15
-41 5 3 0.06 0.16
-39 -5 3 0.05 0.16
-39 5 3 0.04 0.15
-37 -5 3 0.32 0.17
-37 5 3 0.43 0.17
-35 -5 3 0.8 0.19
-35 5 3 1.01 0.19
-33 -5 3 1.34 0.2
-33 5 3 0.72 0.16
31 -5 -3 3.83 0.51
-31 -5 3 4.26 0.35
-31 5 3 3.9 0.34
-29 -5 3 5.46 0.37
29 -5 -3 4.03 0.52
27 -5 -3 7.78 0.66
-27 -5 3 9.27 0.51
-27 5 3 9.06 0.51
25 -5 -3 5.97 0.51
25 5 -3 6.26 0.46
23 -5 -3 3.51 0.37
23 5 -3 4.11 0.34
21 -5 -3 0.55 0.18
21 5 -3 0.49 0.14
19 -5 -3 2.1 0.26
19 5 -3 1.65 0.2
-19 5 3 2.13 0.24
17 -5 -3 10.04 0.59
-17 5 3 10 0.56
17 5 -3 9.94 0.54
15 -5 -3 26.4 1.28
15 5 -3 27.03 1.33
-15 5 3 27.61 1.27
15 5 -3 26.41 1.24
13 -5 -3 25.78 1.2
-13 -5 3 25.31 1.04
13 5 -3 25.54 1.24
13 5 -3 24.32 1.15
-13 5 3 25.46 1.18
-11 -5 3 42.26 1.79
11 -5 -3 47.32 2
-11 5 3 45.55 2
11 5 -3 44.66 2.03
11 5 -3 42.8 1.95
9 -5 -3 13.38 0.65
-9 -5 3 13.11 0.56
9 5 -3 13.46 0.68
9 5 -3 12.01 0.62
-9 5 3 14.65 0.64
7 -5 -3 30.08 1.35
7 5 -3 29.76 1.37
-7 5 3 30.71 1.35
-5 -5 3 7.18 0.32
-5 5 3 6.79 0.33
-3 -5 3 2.91 0.15
-3 5 3 2.75 0.14
-1 -5 3 7.4 0.34
-1 -5 3 7.8 0.34
-1 5 3 6.85 0.32
1 -5 3 7.64 0.36
5 -5 3 7.46 0.37
-5 5 -3 7.31 0.36
-7 5 -3 13.08 0.62
9 -5 3 15 0.66
-9 5 -3 14.59 0.67
9 5 3 12.33 0.64
11 -5 3 47.23 1.89
-11 5 -3 46.78 2.01
11 5 3 40.18 1.95
-13 5 -3 25.2 1.14
13 5 3 23.09 1.11
15 5 3 25.41 1.22
-15 5 -3 27.42 1.26
-17 5 -3 10.3 0.57
17 5 3 9.82 0.55
19 5 3 1.89 0.22
-19 5 -3 1.92 0.23
21 -5 3 0.6 0.19
21 5 3 0.46 0.14
-21 5 -3 0.73 0.16
23 -5 3 3.74 0.41
-23 5 -3 3.52 0.35
23 5 3 4.07 0.34
25 -5 3 5.41 0.52
25 5 3 5.99 0.45
27 -5 3 7.95 0.68
-27 -5 -3 9.12 0.5
-27 5 -3 9.19 0.5
-29 -5 -3 4.99 0.35
29 -5 3 4.3 0.56
-29 5 -3 4.62 0.33
31 -5 3 3.46 0.53
-31 -5 -3 4.13 0.34
-31 5 -3 4.12 0.33
-33 -5 -3 1.01 0.18
-33 5 -3 0.97 0.18
-35 -5 -3 0.77 0.17
-35 5 -3 0.96 0.18
-37 -5 -3 0.33 0.16
-37 5 -3 0.45 0.16
-39 -5 -3 0.13 0.15
-39 5 -3 0.14 0.15
-41 -5 -3 0.12 0.14
-41 5 -3 0.18 0.15
-43 -5 -3 0.6 0.15
-43 5 -3 0.3 0.16
-45 -5 -3 0.43 0.14
-45 5 -3 0.4 0.16
-47 5 -3 -0.09 0.12
-47 -7 3 0.5 0.14
-47 7 3 0.26 0.14
-45 -7 3 1.07 0.17
-45 7 3 0.69 0.17
-43 -7 3 0.13 0.15
-43 7 3 0.34 0.16
-41 -7 3 -0.06 0.15
-41 7 3 0.19 0.16
-39 -7 3 -0.16 0.15
-39 7 3 0.01 0.15
-37 -7 3 -0.11 0.15
-37 7 3 0.06 0.15
-35 -7 3 0.93 0.21
-33 -7 3 1.87 0.22
-33 7 3 1.78 0.23
31 -7 -3 6.78 0.67
-31 -7 3 7.45 0.48
-31 7 3 8.02 0.48
29 -7 -3 8.33 0.66
-29 -7 3 8.91 0.51
-29 7 3 8.87 0.51
27 -7 -3 16.73 1.02
-27 -7 3 16.82 0.85
27 7 -3 17.29 0.96
-27 7 3 17.56 0.85
25 -7 -3 11.28 0.77
-25 7 3 13.14 0.65
25 7 -3 13.21 0.75
23 -7 -3 7.21 0.54
23 7 -3 7.49 0.5
21 -7 -3 2.8 0.3
21 7 -3 2.96 0.29
-21 7 3 2.49 0.28
19 -7 -3 0.34 0.16
19 7 -3 0.33 0.14
-19 7 3 0.46 0.14
17 -7 -3 11.84 0.66
17 7 -3 11.36 0.61
-17 7 3 11.56 0.63
15 -7 -3 16.81 0.86
-15 7 3 17.61 0.86
15 7 -3 17 0.83
13 -7 -3 39.17 1.82
13 7 -3 40.04 1.88
-13 7 3 41.37 1.83
11 -7 -3 52.15 2.26
11 7 -3 49.96 2.22
-11 7 3 50.29 2.26
11 7 -3 50.86 2.31
9 -7 -3 56.38 2.45
9 7 -3 55.04 2.42
-7 7 3 135.66 5.89
-5 -7 3 31.23 1.26
-5 7 3 30.62 1.36
-3 -7 3 0.37 0.07
-3 7 3 0.28 0.03
-1 -7 3 8.01 0.38
1 -7 3 8.68 0.39
3 -7 3 0.23 0.08
3 7 3 0.42 0.06
5 7 3 27.89 1.23
-5 7 -3 32.02 1.33
7 -7 3 144.8 5.75
-7 7 -3 140.69 6.2
9 -7 3 57.38 2.27
9 7 3 51.85 2.36
11 -7 3 51.8 2.11
-11 7 -3 50.21 2.24
11 7 3 48.28 2.19
-13 7 -3 38.78 1.71
13 7 3 36.03 1.67
15 7 3 16.61 0.81
-15 7 -3 16.56 0.83
-17 7 -3 11.75 0.63
17 7 3 11.05 0.61
19 -7 3 0.28 0.16
19 7 3 0.67 0.15
-19 7 -3 0.45 0.15
21 -7 3 2.28 0.32
-21 7 -3 2.76 0.28
21 7 3 2.83 0.28
23 -7 3 7.55 0.57
23 7 3 7.57 0.51
25 -7 3 12.53 0.66
25 -7 3 12.06 0.83
-25 7 -3 12.23 0.76
-25 7 -3 13.21 0.64
25 7 3 12.59 0.75
27 -7 3 14.39 0.98
-27 -7 -3 17.26 0.82
-27 7 -3 16.84 0.8
27 7 3 15.39 0.91
29 -7 3 8.08 0.71
-29 -7 -3 8.89 0.5
-29 7 -3 8.62 0.49
31 -7 3 7.39 0.67
-31 -7 -3 7.85 0.48
-31 7 -3 7.49 0.47
-33 -7 -3 1.78 0.21
-33 7 -3 1.77 0.22
-35 -7 -3 2.13 0.24
-35 7 -3 2.35 0.26
-37 -7 -3 0.09 0.14
-37 7 -3 0.14 0.15
-39 -7 -3 -0.09 0.14
-39 7 -3 -0.03 0.14
-41 -7 -3 -0.06 0.13
-41 7 -3 0.13 0.14
-43 -7 -3 0.38 0.15
-43 7 -3 0.13 0.15
-45 7 -3 0.64 0.17
-47 7 -3 0.17 0.13
-47 9 3 0.36 0.13
-45 -9 3 1.08 0.17
-45 9 3 1.07 0.18
-43 -9 3 0.41 0.16
-43 9 3 0.38 0.16
-41 -9 3 0.07 0.15
-41 9 3 0.24 0.16
-39 -9 3 -0.5 0.14
-39 9 3 -0.13 0.15
-37 -9 3 -0.06 0.15
-37 9 3 0.11 0.16
-35 -9 3 1.16 0.23
-35 9 3 1.66 0.23
-33 -9 3 2.01 0.23
-33 9 3 1.67 0.22
-31 -9 3 5.71 0.43
-31 9 3 6.32 0.42
-29 -9 3 9.31 0.52
29 -9 -3 8.04 0.67
-29 9 3 9.12 0.52
29 9 -3 8.85 0.65
-27 -9 3 14.9 0.78
27 -9 -3 13.9 0.91
27 9 -3 15.7 0.9
-27 9 3 16.11 0.78
-25 -9 3 12.86 0.63
25 -9 -3 10.73 0.73
-25 9 3 11.78 0.62
25 9 -3 11.59 0.72
23 -9 -3 5.51 0.44
-23 9 3 5.35 0.43
23 9 -3 5.22 0.43
21 -9 -3 1.97 0.27
-21 9 3 1.86 0.24
21 9 -3 1.83 0.25
19 -9 -3 1.58 0.24
19 9 -3 1.67 0.22
-19 9 3 2.05 0.24
17 -9 -3 16.5 0.88
-17 9 3 17.86 0.89
17 9 -3 17.35 0.86
15 -9 -3 17.35 0.85
-15 9 3 17.3 0.84
15 9 -3 15.76 0.81
13 -9 -3 47.26 2
13 9 -3 42.14 1.97
-13 9 3 44.21 2.01
11 -9 -3 40.06 2.09
11 9 -3 54.8 2.09
-9 9 3 65.47 2.88
-7 -9 3 55.84 2.25
-7 9 3 56.02 2.45
-5 -9 3 14.9 0.63
-5 9 3 14.51 0.66
-3 -9 3 10.95 0.49
-1 -9 3 12.79 0.58
1 -9 3 13.22 0.61
3 -9 3 13.02 0.58
3 -9 3 11.5 0.52
5 -9 3 14.49 0.67
5 9 3 13.91 0.6
-7 9 -3 56.22 2.47
9 -9 3 81.21 3.27
9 9 3 75.31 3.42
-9 9 -3 81.49 3.48
11 -9 3 55.29 2.29
11 9 3 53.26 2.36
-13 9 -3 46.36 2
13 9 3 41.69 1.95
15 -9 3 16.7 0.87
-15 9 -3 17.84 0.85
15 9 3 16.15 0.82
17 -9 3 16.63 0.9
17 9 3 16.07 0.85
-17 9 -3 18.53 0.89
19 -9 3 1.95 0.28
-19 9 -3 1.64 0.22
19 9 3 1.75 0.23
21 -9 3 1.62 0.27
-21 9 -3 1.8 0.23
21 9 3 1.56 0.22
23 -9 3 4.62 0.44
-23 9 -3 5.56 0.43
23 9 3 4.99 0.42
25 -9 3 10.4 0.73
25 -9 3 11.32 0.61
-25 9 -3 10.97 0.71
25 9 3 12.57 0.72
27 -9 3 12.82 0.88
-27 -9 -3 15.19 0.74
-27 9 -3 13.67 0.9
27 9 3 13.92 0.85
-27 9 -3 14.85 0.72
-29 -9 -3 9.18 0.51
29 -9 3 8.56 0.7
-29 9 -3 8.88 0.51
29 9 3 8.74 0.65
-31 -9 -3 6.76 0.45
-31 9 -3 6.9 0.44
-33 -9 -3 1.79 0.21
-33 9 -3 2.02 0.22
-35 -9 -3 1.58 0.21
-35 9 -3 1.64 0.22
-37 -9 -3 0.16 0.14
-37 9 -3 0.1 0.14
-39 -9 -3 0.09 0.14
-39 9 -3 0.07 0.15
-41 9 -3 0.34 0.16
-43 9 -3 0.45 0.16
-45 9 -3 1.04 0.18
-47 9 -3 0.16 0.13
-47 11 3 0.31 0.14
-45 -11 3 0.9 0.16
-45 11 3 0.56 0.16
-43 -11 3 0.38 0.16
-43 11 3 0.37 0.16
-41 -11 3 0.33 0.16
-41 11 3 0.09 0.16
-39 -11 3 -0.18 0.14
-39 11 3 -0.05 0.15
-37 -11 3 0.24 0.15
-37 11 3 -0.01 0.15
-35 -11 3 1.82 0.23
-35 11 3 1.55 0.22
-33 -11 3 1.42 0.2
-33 11 3 1.61 0.22
-31 -11 3 5.73 0.41
-31 11 3 6.12 0.42
-29 -11 3 10.38 0.57
-29 11 3 9.53 0.56
29 11 -3 10.64 0.72
-27 -11 3 20.03 0.98
-27 11 3 20.1 0.98
27 11 -3 20.02 1.1
25 -11 -3 12.81 0.8
-25 -11 3 13.89 0.69
25 11 -3 13.03 0.79
-25 11 3 13.28 0.68
23 -11 -3 9.76 0.64
-23 11 3 10.35 0.65
23 11 -3 10 0.63
21 -11 -3 4.88 0.39
-21 11 3 4.76 0.4
21 11 -3 4.93 0.4
19 -11 -3 0.42 0.14
-19 11 3 0.32 0.14
19 11 -3 0.32 0.14
17 -11 -3 3.37 0.28
-17 11 3 3.45 0.3
17 11 -3 3.14 0.29
15 -11 -3 4.16 0.29
15 11 -3 3.25 0.27
-15 11 3 3.86 0.29
-13 11 3 20.48 0.95
13 11 -3 18.75 0.92
-11 11 3 22.36 1.04
11 11 -3 22.31 1.02
-9 11 3 54.42 2.4
-7 -11 3 49.41 2.02
-7 11 3 50.5 2.19
-5 11 3 44.09 1.96
-5 11 3 45.95 1.95
-3 -11 3 32.45 1.35
-1 -11 3 18.44 0.81
1 -11 3 17.33 0.78
3 -11 3 33.25 1.42
5 -11 3 46.26 1.88
5 11 3 42.79 1.95
5 11 3 44.42 1.8
7 -11 3 49.91 2.1
-7 11 -3 50.89 2.13
7 11 3 44.39 1.95
9 -11 3 52.99 2.41
-9 11 -3 57.33 2.44
11 -11 3 21.72 1.01
11 11 3 21.2 0.99
-11 11 -3 22.29 1.02
13 -11 3 20.35 0.95
13 11 3 17.77 0.9
-13 11 -3 20.53 0.95
15 -11 3 4.06 0.31
-15 11 -3 3.4 0.28
15 11 3 3.09 0.25
17 -11 3 3.52 0.31
17 11 3 3.14 0.27
-17 11 -3 3.17 0.3
19 -11 3 0.4 0.17
19 11 3 0.24 0.13
-19 11 -3 0.41 0.16
21 -11 3 4.61 0.4
-21 11 -3 4.2 0.38
21 11 3 4.92 0.39
23 -11 3 8.83 0.63
-23 11 -3 10.5 0.63
23 11 3 9.11 0.61
25 -11 3 12.5 0.79
25 -11 3 12.5 0.67
25 11 3 12.7 0.77
-25 11 -3 12.34 0.77
27 -11 3 19.61 0.95
27 -11 3 17.01 1.07
27 11 3 19.59 1.07
-27 11 -3 18.56 1.07
29 -11 3 8.88 0.7
29 11 3 10.53 0.71
-29 11 -3 9.68 0.54
-31 11 -3 6.24 0.41
-33 11 -3 1.65 0.2
-35 11 -3 1.73 0.23
-37 11 -3 0.04 0.15
-39 11 -3 0.06 0.15
-41 11 -3 0.42 0.16
-43 11 -3 0.21 0.14
-45 11 -3 1.02 0.17
-45 13 3 0.54 0.16
-43 -13 3 0.26 0.14
-43 13 3 0.09 0.15
-41 -13 3 0.55 0.16
-41 13 3 0.12 0.16
-39 -13 3 -0.05 0.14
-39 13 3 0.01 0.15
-37 -13 3 0.08 0.15
-37 13 3 0.02 0.16
-35 -13 3 1.34 0.21
-35 13 3 1.53 0.23
-33 -13 3 0.67 0.17
-33 13 3 0.5 0.16
-31 -13 3 3.3 0.32
-31 13 3 3.98 0.34
31 13 -3 3.92 0.46
-29 -13 3 5.44 0.37
-29 13 3 4.6 0.36
29 13 -3 5.96 0.53
-27 -13 3 13.87 0.72
27 13 -3 14.35 0.86
-27 13 3 13.59 0.72
-25 -13 3 6.47 0.4
25 13 -3 6.23 0.5
-25 13 3 6.14 0.38
23 -13 -3 6.09 0.42
-23 13 3 6.24 0.49
23 13 -3 6.86 0.49
21 13 -3 1.11 0.21
-21 13 3 1.11 0.2
-19 13 3 0.66 0.17
19 13 -3 0.72 0.17
-17 13 3 7.95 0.48
17 13 -3 7.1 0.45
-15 13 3 9.92 0.53
15 13 -3 8.62 0.5
-13 13 3 19.32 0.88
13 13 -3 16.71 0.85
11 13 -3 18.85 0.9
-11 13 3 20.03 0.92
-9 13 3 47.09 2.09
-7 13 3 40.92 1.8
-5 -13 3 24.59 1.04
-3 -13 3 22.23 0.96
-1 -13 3 7.32 0.39
1 -13 3 7.15 0.39
3 -13 3 22.08 0.99
5 -13 3 26.06 1.1
5 13 3 23.14 1.08
7 -13 3 39.98 1.68
7 13 3 37.08 1.58
-7 13 -3 39.4 1.71
9 -13 3 45.71 1.99
-9 13 -3 45.96 2.04
11 -13 3 18.62 0.86
-11 13 -3 20.22 0.89
11 13 3 16.9 0.84
13 -13 3 18.23 0.85
13 13 3 16.47 0.83
-13 13 -3 18.33 0.87
15 -13 3 10 0.52
15 13 3 8.16 0.5
-15 13 -3 9.78 0.54
17 -13 3 7.66 0.47
-17 13 -3 8.09 0.49
17 13 3 7.38 0.46
19 -13 3 0.51 0.17
19 13 3 0.7 0.17
-19 13 -3 0.54 0.16
21 -13 3 1.1 0.21
21 13 3 0.97 0.2
-21 13 -3 0.92 0.2
23 -13 3 6.17 0.49
23 -13 3 6.37 0.41
-23 13 -3 6.47 0.49
23 13 3 6.13 0.48
25 -13 3 5.6 0.4
25 -13 3 5.98 0.49
25 13 3 5.99 0.49
-25 13 -3 5.71 0.49
27 -13 3 11.95 0.78
27 -13 3 12.87 0.68
-27 13 -3 11.83 0.81
27 13 3 13.73 0.82
29 13 3 5.82 0.53
-29 13 -3 5.41 0.52
-29 13 -3 5.15 0.37
31 13 3 3.25 0.42
-31 13 -3 3.19 0.31
-33 13 -3 0.83 0.16
-35 13 -3 1.41 0.21
-37 13 -3 0.09 0.15
-39 13 -3 -0.02 0.15
-41 13 -3 0.21 0.15
-43 13 -3 0.14 0.14
-45 13 -3 0.45 0.15
-45 15 3 0.16 0.12
-43 15 3 -0.23 0.13
-41 -15 3 -0.03 0.14
-41 15 3 0.04 0.15
-39 -15 3 0.12 0.15
-39 15 3 -0.2 0.15
-37 -15 3 0.03 0.15
-37 15 3 -0.15 0.16
-35 -15 3 0.69 0.17
-35 15 3 0.4 0.17
-33 -15 3 0.73 0.18
-33 15 3 0.57 0.17
-31 -15 3 1.11 0.18
-31 15 3 1.09 0.19
31 15 -3 1.61 0.33
-29 -15 3 3.57 0.32
-29 15 3 3.2 0.3
29 15 -3 4.01 0.45
-27 -15 3 8.75 0.51
-27 15 3 8.31 0.5
27 15 -3 9.97 0.67
-25 -15 3 3.51 0.29
25 15 -3 4.04 0.4
-25 15 3 3.36 0.29
23 -15 -3 4.89 0.39
-23 -15 3 5.58 0.36
23 15 -3 6.06 0.47
-23 15 3 5.75 0.47
-21 15 3 0.55 0.17
21 15 -3 0.86 0.19
19 15 -3 0.31 0.14
-19 15 3 0.16 0.13
17 15 -3 3.67 0.3
-17 15 3 3.25 0.3
-15 15 3 6.55 0.42
15 15 -3 7.18 0.42
13 15 -3 8.62 0.49
-13 15 3 10.15 0.52
-11 15 3 3.88 0.26
-9 15 3 17.35 0.81
-7 15 3 16.47 0.75
5 15 3 25.18 1.12
-7 15 -3 16.64 0.76
-9 15 -3 17.62 0.83
11 15 3 3.24 0.22
-11 15 -3 3.72 0.25
13 -15 3 9.52 0.47
-13 15 -3 10.49 0.53
13 15 3 8.5 0.48
15 -15 3 6.8 0.38
15 15 3 6.57 0.4
-15 15 -3 6.44 0.42
17 -15 3 3.32 0.26
-17 15 -3 3.16 0.3
17 15 3 2.9 0.27
19 -15 3 0.17 0.12
-19 15 -3 0.07 0.13
19 15 3 0.08 0.12
21 -15 3 0.76 0.17
21 15 3 0.82 0.19
-21 15 -3 0.98 0.21
23 -15 3 5.13 0.41
23 -15 3 5.23 0.35
-23 15 -3 4.54 0.44
23 15 3 5.13 0.44
25 -15 3 3.52 0.32
25 -15 3 3.72 0.35
-25 15 -3 2.7 0.34
25 15 3 4.36 0.42
27 -15 3 8.52 0.52
27 -15 3 7.67 0.58
-27 15 -3 7.78 0.63
27 15 3 9.08 0.65
29 -15 3 3.74 0.36
-29 15 -3 3.01 0.29
-29 15 -3 3.13 0.4
29 15 3 3.88 0.45
31 15 3 1.02 0.29
-31 15 -3 0.98 0.18
-33 15 -3 0.69 0.15
-35 15 -3 0.72 0.18
-37 15 -3 0.15 0.15
-39 15 -3 -0.15 0.14
-41 15 -3 0.01 0.15
-43 15 -3 0.23 0.15
-45 15 -3 0.25 0.14
-45 17 3 0.12 0.12
-43 17 3 -0.15 0.13
-41 17 3 0.02 0.16
-39 17 3 -0.15 0.15
-37 -17 3 -0.07 0.14
-37 17 3 -0.17 0.15
-35 -17 3 0.27 0.16
-35 17 3 0.25 0.17
-33 -17 3 0.16 0.14
33 17 -3 0.45 0.26
-33 17 3 -0.09 0.14
-31 -17 3 0.1 0.14
31 17 -3 0.23 0.22
-31 17 3 0.03 0.12
-29 -17 3 0.71 0.16
-29 17 3 0.3 0.13
29 17 -3 0.79 0.25
-27 -17 3 3.54 0.31
27 17 -3 3.22 0.42
-27 17 3 3.33 0.29
-25 -17 3 1.76 0.19
25 -17 -3 1.32 0.22
-25 17 3 0.95 0.17
25 17 -3 1.97 0.29
-23 -17 3 2.03 0.21
23 -17 -3 1.4 0.22
-23 17 3 1.77 0.28
23 17 -3 2.37 0.31
21 -17 -3 -0.16 0.14
-21 17 3 -0.04 0.14
21 17 -3 -0.02 0.14
19 17 -3 0.34 0.15
-19 17 3 0.34 0.15
17 17 -3 3.42 0.3
-17 17 3 3.62 0.32
-15 17 3 3.24 0.29
15 17 -3 3.63 0.28
13 17 -3 7.5 0.43
-13 17 3 8.06 0.45
-11 17 3 2.95 0.22
-9 17 3 17.5 0.82
-7 17 3 10.99 0.51
-9 17 -3 17.99 0.85
-11 17 -3 3.55 0.26
13 17 3 6.92 0.4
-13 17 -3 7.85 0.44
15 17 3 3.67 0.27
-15 17 -3 3.04 0.29
17 17 3 3.14 0.29
-17 17 -3 3.45 0.32
19 17 3 0.33 0.15
-19 17 -3 0.32 0.15
21 -17 3 0.17 0.13
21 17 3 0.01 0.13
-21 17 -3 -0.02 0.15
23 -17 3 1.51 0.18
-23 17 -3 1.55 0.27
23 17 3 1.99 0.29
25 -17 3 1.35 0.19
-25 17 -3 1.3 0.27
25 17 3 1.57 0.27
27 -17 3 3.77 0.35
-27 17 -3 2.7 0.38
27 17 3 3.28 0.42
29 -17 3 0.66 0.19
29 17 3 0.71 0.26
-29 17 -3 0.64 0.25
-31 17 -3 0.07 0.13
31 17 3 0.05 0.22
-33 17 -3 0.03 0.13
33 17 3 0.54 0.26
-35 17 -3 0.33 0.16
-37 17 -3 -0.02 0.15
-39 17 -3 -0.12 0.14
-41 17 -3 0.16 0.15
-43 17 -3 -0.22 0.13
-45 17 -3 -0.06 0.12
-43 19 3 -0.2 0.12
-41 19 3 -0.05 0.14
-39 19 3 -0.08 0.15
-37 19 3 -0.13 0.16
-35 19 3 -0.03 0.15
-33 19 3 0.03 0.15
33 19 -3 0.06 0.23
-31 -19 3 0.11 0.14
-31 19 3 0.01 0.13
31 19 -3 0.23 0.24
-29 -19 3 0.07 0.13
-29 19 3 0.06 0.12
29 19 -3 0.09 0.2
-27 -19 3 0.53 0.14
27 19 -3 0.63 0.25
-27 19 3 0.38 0.13
25 -19 -3 -0.01 0.16
-25 -19 3 0.11 0.12
25 19 -3 0.55 0.21
23 -19 -3 1.1 0.2
-23 -19 3 1.67 0.2
-23 19 3 1.74 0.29
23 19 -3 1.94 0.28
-21 -19 3 -0.23 0.11
21 -19 -3 0.45 0.15
21 19 -3 0.13 0.14
-21 19 3 0.22 0.16
19 19 -3 0.53 0.15
-19 19 3 0.48 0.16
17 19 -3 0.46 0.14
-17 19 3 0.42 0.15
15 19 -3 0.12 0.11
-15 19 3 0.2 0.11
-13 19 3 0.64 0.13
-11 19 3 0.42 0.1
-9 19 3 1.89 0.16
-7 19 3 0.32 0.06
-9 19 -3 1.69 0.16
-11 19 -3 0.27 0.1
-13 19 -3 0.61 0.14
-15 19 -3 0.2 0.12
15 19 3 0.05 0.1
-17 19 -3 0.19 0.14
17 19 3 0.36 0.13
19 -19 3 0.61 0.15
-19 19 -3 0.4 0.17
19 19 3 0.46 0.15
21 -19 3 0.77 0.16
-21 19 -3 0.03 0.15
21 19 3 0.13 0.15
23 -19 3 1.37 0.2
-23 19 -3 1.55 0.27
23 19 3 1.28 0.24
25 -19 3 0.23 0.15
-25 19 -3 0.27 0.2
25 19 3 0.77 0.22
27 -19 3 0.53 0.17
-27 19 -3 0.58 0.24
27 19 3 0.5 0.23
29 -19 3 0.17 0.17
-29 19 -3 0.16 0.22
29 19 3 0.2 0.21
-31 19 -3 0.02 0.13
31 19 3 0.14 0.23
33 19 3 -0.15 0.23
-33 19 -3 -0.06 0.13
-35 19 -3 -0.11 0.14
-37 19 -3 -0.17 0.15
-39 19 -3 -0.15 0.14
-41 19 -3 -0.06 0.14
-43 19 -3 0.04 0.13
-43 21 3 -0.07 0.12
-41 21 3 0.04 0.14
-39 21 3 0.01 0.15
-37 21 3 0 0.16
-35 21 3 0.32 0.17
-33 21 3 -0.06 0.14
31 21 -3 0.5 0.27
-31 21 3 0.31 0.14
29 21 -3 0.73 0.27
-29 21 3 0.82 0.16
27 21 -3 0.23 0.21
-27 21 3 0.18 0.12
25 -21 -3 0.25 0.17
25 21 -3 0.05 0.18
23 -21 -3 0 0.15
23 21 -3 0.18 0.18
-23 21 3 0.03 0.17
21 -21 -3 -0.26 0.14
-21 21 3 0.11 0.17
21 21 -3 0.16 0.15
19 -21 -3 0.68 0.16
-19 21 3 0.08 0.14
19 21 -3 0.07 0.12
-17 21 3 0.01 0.13
17 21 -3 0.17 0.12
-15 21 3 0.92 0.16
15 21 -3 0.9 0.16
-13 21 3 1.11 0.16
-11 21 3 4.65 0.3
-9 21 3 1.75 0.16
-7 21 3 2.57 0.16
-7 21 -3 2.79 0.17
-9 21 -3 2.14 0.19
-11 21 -3 4.7 0.32
-13 21 -3 0.96 0.16
-15 21 -3 0.78 0.17
15 21 3 0.93 0.16
17 -21 3 -0.07 0.13
17 21 3 0.04 0.11
-17 21 -3 0.02 0.13
19 -21 3 0.59 0.14
-19 21 -3 -0.01 0.15
19 21 3 0.09 0.13
21 -21 3 -0.12 0.12
21 21 3 0.16 0.16
-21 21 -3 0.02 0.16
23 -21 3 0.48 0.16
23 21 3 0.09 0.18
-23 21 -3 0.06 0.18
25 -21 3 0.24 0.16
-25 21 -3 0.12 0.2
25 21 3 -0.14 0.18
27 -21 3 0.31 0.16
-27 21 -3 -0.04 0.21
27 21 3 0.11 0.21
29 -21 3 0.71 0.21
29 21 3 0.62 0.27
-31 21 -3 0.32 0.15
31 21 3 0.24 0.27
-33 21 -3 -0.04 0.14
-35 21 -3 -0.1 0.14
-37 21 -3 -0.1 0.15
-39 21 -3 0.05 0.15
-41 21 -3 -0.07 0.14
-43 21 -3 -0.06 0.13
-41 23 3 -0.02 0.13
-39 23 3 0.21 0.15
-37 23 3 -0.03 0.15
-35 23 3 0.07 0.15
-33 23 3 -0.01 0.15
-31 23 3 0.55 0.16
29 23 -3 1.14 0.31
-29 23 3 1.13 0.18
-27 23 3 0.8 0.15
27 23 -3 0.89 0.28
25 -23 -3 0.92 0.2
25 23 -3 0.95 0.25
23 -23 -3 -0.26 0.14
23 23 -3 0.18 0.17
21 -23 -3 0.16 0.15
21 23 -3 0.3 0.16
-21 23 3 0.11 0.18
19 -23 -3 1.58 0.21
19 23 -3 1.75 0.25
-19 23 3 1.48 0.24
17 -23 -3 1.57 0.19
17 23 -3 1.84 0.24
-17 23 3 1.84 0.24
-15 23 3 5.7 0.4
-13 23 3 5.26 0.36
-11 23 3 9.22 0.5
-9 23 3 5.03 0.3
-7 23 3 7.52 0.38
-7 23 -3 7.98 0.4
-9 23 -3 5.58 0.34
-11 23 -3 9.7 0.53
-13 23 -3 6.06 0.4
15 -23 3 4.99 0.37
-15 23 -3 5 0.38
17 -23 3 1.75 0.21
17 23 3 1.82 0.23
-17 23 -3 1.38 0.23
19 -23 3 1.17 0.19
19 23 3 1.45 0.23
-19 23 -3 1.43 0.24
21 -23 3 0.21 0.15
21 23 3 0.08 0.16
-21 23 -3 0 0.18
23 -23 3 -0.01 0.15
23 23 3 0.25 0.19
-23 23 -3 -0.25 0.17
25 -23 3 0.91 0.2
25 23 3 1.22 0.28
-25 23 -3 0.91 0.28
27 -23 3 0.41 0.18
27 23 3 0.67 0.26
29 -23 3 0.91 0.22
29 23 3 0.95 0.3
-31 23 -3 0.55 0.17
-33 23 -3 0.08 0.15
-35 23 -3 0.02 0.15
-37 23 -3 -0.28 0.15
-39 23 -3 0.03 0.14
-41 23 -3 0.06 0.14
-39 25 3 -0.04 0.14
-37 25 3 -0.05 0.14
-35 25 3 0.06 0.15
-33 25 3 0.93 0.2
-31 25 3 1.12 0.19
-29 25 3 1.94 0.23
-27 25 3 1.72 0.21
27 25 -3 1.61 0.33
25 -25 -3 2.35 0.26
25 25 -3 2.02 0.34
23 -25 -3 0.89 0.19
23 25 -3 0.77 0.24
21 -25 -3 -0.18 0.14
21 25 -3 0.21 0.17
19 -25 -3 0.07 0.14
-19 25 3 0.28 0.17
19 25 -3 0.34 0.17
17 -25 -3 1.2 0.18
-17 25 3 1.6 0.23
17 25 -3 2.02 0.25
-15 25 3 3.65 0.32
-13 25 3 5.39 0.37
-11 25 3 10.98 0.58
-9 25 3 10.28 0.53
-7 25 3 11.58 0.56
-5 25 3 5.66 0.28
-7 25 -3 12.31 0.6
-9 25 -3 11.73 0.61
11 -25 3 11.74 0.63
-11 25 -3 11.8 0.63
13 -25 3 5.55 0.39
-13 25 -3 5.75 0.39
15 -25 3 3.15 0.31
-15 25 -3 3.71 0.32
17 -25 3 1.61 0.22
-17 25 -3 1.72 0.25
17 25 3 1.83 0.24
19 -25 3 0.18 0.14
19 25 3 0.28 0.16
-19 25 -3 0.02 0.16
21 -25 3 0.21 0.15
-21 25 -3 0.21 0.19
21 25 3 0.19 0.17
23 -25 3 1.01 0.2
-23 25 -3 1.37 0.29
23 25 3 0.99 0.25
25 -25 3 1.6 0.23
25 25 3 2.16 0.35
27 -25 3 1.37 0.23
27 25 3 1.81 0.35
29 -25 3 2.05 0.28
-31 25 -3 1.14 0.2
-33 25 -3 0.46 0.17
-35 25 -3 0.13 0.15
-37 25 -3 0.03 0.14
-39 25 -3 -0.04 0.13
-41 25 -3 0 0.12
-37 27 3 -0.18 0.13
-35 27 3 0.13 0.15
-33 27 3 0.69 0.18
-31 27 3 1.01 0.2
-29 27 3 1.44 0.2
27 27 -3 1.48 0.33
-27 27 3 1.72 0.22
25 -27 -3 1.63 0.23
-25 27 3 1.6 0.21
25 27 -3 1.52 0.32
23 -27 -3 0.35 0.17
23 27 -3 0.7 0.23
21 -27 -3 0.06 0.16
21 27 -3 0.1 0.17
19 27 -3 0.55 0.2
-17 27 3 2.59 0.3
-15 27 3 7.06 0.47
-13 27 3 11.67 0.64
-11 27 3 16.88 0.84
-9 27 3 12.77 0.64
-7 27 3 13.95 0.67
-5 27 3 7.02 0.35
7 -27 3 14.57 0.77
-7 27 -3 15.66 0.74
9 -27 3 12.71 0.7
-9 27 -3 13.9 0.68
11 -27 3 17.66 0.9
-11 27 -3 17.6 0.89
13 -27 3 11.95 0.65
-13 27 -3 11.7 0.66
15 -27 3 7.55 0.48
-15 27 -3 7.01 0.49
17 -27 3 3.04 0.31
-17 27 -3 2.67 0.31
19 -27 3 0.55 0.16
-19 27 -3 0.31 0.18
19 27 3 0.74 0.2
21 -27 3 0.36 0.15
21 27 3 0.08 0.16
-21 27 -3 0.02 0.18
23 -27 3 0.59 0.18
23 27 3 0.78 0.24
25 -27 3 1.55 0.24
25 27 3 1.51 0.32
27 -27 3 1.35 0.23
27 27 3 1.22 0.32
29 -27 3 1.17 0.24
-31 27 -3 0.79 0.19
-33 27 -3 0.6 0.17
-35 27 -3 -0.08 0.14
-37 27 -3 0.11 0.14
-39 27 -3 0.08 0.13
-37 29 3 0.07 0.13
-35 29 3 0.28 0.15
-33 29 3 0.49 0.16
-31 29 3 1.02 0.19
-29 29 3 1.67 0.21
-27 29 3 1.36 0.2
-25 29 3 2.06 0.24
25 29 -3 2.06 0.4
23 -29 -3 1 0.2
23 29 -3 0.89 0.26
21 29 -3 0.55 0.22
19 29 -3 0.13 0.17
-13 29 3 4.41 0.34
-11 29 3 8.12 0.48
-9 29 3 6.87 0.39
-7 29 3 6.77 0.37
7 -29 3 7.5 0.46
-7 29 -3 7.76 0.42
9 -29 3 7.69 0.47
-9 29 -3 7.44 0.44
11 -29 3 8.9 0.52
-11 29 -3 8.67 0.51
13 -29 3 4.72 0.37
-13 29 -3 4.76 0.37
15 -29 3 3.15 0.32
-15 29 -3 3.08 0.32
17 -29 3 0.6 0.17
-17 29 -3 0.72 0.19
19 -29 3 -0.02 0.14
19 29 3 0.09 0.16
21 -29 3 0.55 0.18
21 29 3 0.69 0.23
23 -29 3 0.77 0.2
23 29 3 1.26 0.29
25 -29 3 2.12 0.26
25 29 3 2.01 0.4
27 -29 3 1.36 0.24
-29 29 -3 1.98 0.24
-31 29 -3 0.83 0.19
-33 29 -3 0.55 0.17
-35 29 -3 0.01 0.15
-37 29 -3 0.15 0.13
21 31 -3 0.36 0.2
-7 31 -3 6.22 0.36
9 -31 3 5.47 0.4
-9 31 -3 5.15 0.35
11 -31 3 5.66 0.4
-11 31 -3 4.47 0.35
13 -31 3 3.77 0.33
-13 31 -3 3 0.3
15 -31 3 0.9 0.18
-15 31 -3 1.12 0.2
17 -31 3 -0.07 0.14
19 -31 3 -0.04 0.15
19 31 3 0.02 0.17
21 -31 3 0.19 0.17
21 31 3 0.39 0.2
23 -31 3 0.24 0.18
25 -31 3 0.89 0.21
27 -31 3 1.01 0.21
-29 31 -3 0.91 0.19
-31 31 -3 0.21 0.16
-33 31 -3 0.38 0.16
-35 31 -3 0.07 0.14
-9 33 -3 1.46 0.17
-11 33 -3 1.79 0.23
13 -33 3 0.6 0.17
15 -33 3 0.44 0.16
17 -33 3 0.02 0.16
19 -33 3 -0.08 0.16
21 -33 3 -0.09 0.16
23 -33 3 0.18 0.18
25 -33 3 0.69 0.19
27 -33 3 0.3 0.18
-27 33 -3 0.57 0.17
-29 33 -3 0.6 0.17
-31 33 -3 0.48 0.16
-33 33 -3 -0.04 0.13
19 -35 3 -0.05 0.15
21 -35 3 -0.02 0.16
23 -35 3 -0.2 0.15
25 -35 3 0 0.16
-27 35 -3 0.21 0.14
-29 35 -3 0.13 0.13
-31 35 -3 0.01 0.13
-48 0 4 0.03 0.12
-46 0 4 -0.22 0.12
-44 0 4 3.92 0.37
-42 0 4 0.29 0.18
-40 0 4 13.48 0.77
-38 0 4 0.11 0.16
-36 0 4 39.02 1.86
-34 0 4 0.24 0.14
-32 0 4 26.94 1.3
-30 0 4 0.03 0.12
-28 0 4 17.31 0.86
-26 0 4 0.03 0.1
24 0 -4 9.22 0.66
22 0 -4 0.28 0.2
20 0 -4 221 9.74
20 0 -4 233.44 9.91
18 0 -4 0.19 0.16
18 0 -4 0.13 0.1
16 0 -4 8.8 0.47
16 0 -4 9.18 0.56
14 0 -4 0.48 0.15
14 0 -4 0.72 0.11
12 0 -4 20.08 1.02
12 0 -4 21.89 0.96
10 0 -4 1.3 0.17
8 0 -4 114.38 4.96
-6 0 4 -0.07 0.05
6 0 -4 -0.04 0.07
-4 0 4 857.64 34.1
-2 0 4 0 0.04
2 0 4 0.02 0.04
4 0 4 947.97 37.69
-6 0 -4 -0.01 0.06
6 0 4 -0.06 0.05
-10 0 -4 1.59 0.16
10 0 4 1.51 0.16
-12 0 -4 18.38 0.92
12 0 4 21.06 0.89
12 0 4 18 0.85
14 0 4 0.58 0.11
14 0 4 0.57 0.12
-14 0 -4 0.84 0.14
16 0 4 9.03 0.49
-16 0 -4 10.19 0.54
-18 0 -4 0.15 0.13
18 0 4 0.12 0.1
-28 0 -4 18.1 0.9
-30 0 -4 -0.03 0.11
-32 0 -4 29.69 1.42
-34 0 -4 0.05 0.13
-36 0 -4 39.76 1.87
-38 0 -4 0.03 0.14
-40 0 -4 15.36 0.84
-42 0 -4 0.12 0.16
-44 0 -4 4.18 0.38
-46 0 -4 -0.21 0.12
-48 2 4 -0.11 0.11
-46 -2 4 0 0.13
-46 2 4 -0.13 0.12
-44 -2 4 0.15 0.15
-44 2 4 0.03 0.15
-42 -2 4 5.9 0.48
-42 2 4 7.25 0.49
-40 -2 4 -0.04 0.18
-40 2 4 0.18 0.18
-38 -2 4 3.88 0.4
-38 2 4 4.16 0.39
-36 -2 4 0.32 0.21
-36 2 4 0.67 0.2
-34 -2 4 1.08 0.19
-34 2 4 1.32 0.21
-32 -2 4 0.22 0.16
-32 2 4 0.21 0.16
-30 -2 4 0 0.11
-30 2 4 0.01 0.11
-28 -2 4 0.06 0.11
28 -2 -4 -0.22 0.21
-28 2 4 0.1 0.12
26 -2 -4 20.44 1.25
-26 -2 4 23.65 1.1
-26 2 4 23.28 1.09
24 -2 -4 -0.07 0.16
22 -2 -4 89.3 4.07
22 2 -4 90.22 3.95
20 -2 -4 0.34 0.18
20 2 -4 0.19 0.12
20 2 -4 0.01 0.16
18 -2 -4 186.68 8.29
18 2 -4 196.42 8.32
18 2 -4 187.48 8.18
16 -2 -4 -0.03 0.1
-16 -2 4 0.14 0.07
16 -2 -4 0.01 0.06
16 2 -4 0.07 0.08
16 2 -4 -0.01 0.09
14 -2 -4 55.43 2.51
-14 -2 4 55.76 2.27
14 2 -4 53.95 2.44
14 2 -4 57.46 2.53
12 -2 -4 0.36 0.12
-12 -2 4 0.34 0.08
12 2 -4 0.3 0.12
12 2 -4 0.23 0.08
10 -2 -4 97.17 4.2
10 2 -4 95.95 4.21
10 2 -4 95.59 4.14
8 -2 -4 1 0.13
-8 -2 4 0.91 0.1
8 2 -4 0.88 0.13
-6 -2 4 2.97 0.17
6 -2 -4 3.13 0.2
6 2 -4 2.73 0.2
-4 -2 4 0.7 0.07
4 2 -4 0.65 0.08
0 -2 4 0.03 0.04
0 2 4 0.04 0.04
2 -2 4 17.8 0.68
-2 2 -4 16.08 0.72
2 2 4 14.02 0.66
4 -2 4 0.58 0.08
4 2 4 0.6 0.07
-4 2 -4 0.57 0.07
6 -2 4 2.99 0.2
6 2 4 3.09 0.17
8 -2 4 1 0.14
8 2 4 1.13 0.11
-8 2 -4 0.98 0.12
10 -2 4 95.33 3.82
-10 -2 -4 95.58 4.14
-10 2 -4 91.55 4.14
10 2 4 95.79 4.06
10 2 4 93 3.79
12 -2 4 0.39 0.1
12 2 4 0.49 0.09
12 2 4 0.47 0.09
-12 2 -4 0.26 0.09
-14 -2 -4 55.32 2.46
14 -2 4 54.08 2.28
14 2 4 53.81 2.41
-14 2 -4 55.73 2.47
-16 -2 -4 0.1 0.09
16 2 4 0.06 0.08
-16 2 -4 0.04 0.09
18 2 4 176.29 7.9
-18 2 -4 190.85 8.05
20 2 4 0.16 0.12
-20 2 -4 -0.13 0.12
22 2 4 82.51 3.64
24 -2 4 0.22 0.19
26 -2 4 18.73 1.26
-26 2 -4 23.86 1.07
-28 -2 -4 0.07 0.12
28 -2 4 -0.03 0.25
-28 2 -4 -0.04 0.11
-30 -2 -4 -0.04 0.11
-30 2 -4 -0.17 0.11
-32 -2 -4 0.32 0.15
-32 2 -4 0.2 0.14
-34 -2 -4 1.15 0.19
-34 2 -4 1.21 0.19
-36 -2 -4 0.72 0.19
-36 2 -4 1.31 0.21
-38 -2 -4 4.53 0.39
-38 2 -4 5.06 0.4
-40 -2 -4 0.59 0.18
-40 2 -4 0.46 0.17
-42 -2 -4 6.93 0.48
-42 2 -4 6.42 0.48
-44 -2 -4 0.2 0.14
-44 2 -4 0.31 0.16
-46 -2 -4 -0.11 0.12
-46 2 -4 -0.34 0.13
-48 4 4 0.04 0.13
-46 -4 4 -0.09 0.12
-46 4 4 0.03 0.14
-44 -4 4 1.35 0.21
-44 4 4 1.7 0.21
-42 -4 4 -0.02 0.15
-42 4 4 0.12 0.16
-40 -4 4 7.39 0.52
-40 4 4 8.39 0.53
-38 -4 4 -0.25 0.15
-38 4 4 -0.07 0.14
-36 -4 4 25.87 1.32
-36 4 4 27.69 1.32
-34 -4 4 0.11 0.14
-34 4 4 -0.03 0.14
-32 -4 4 17.21 0.86
32 -4 -4 14.11 1.07
-32 4 4 16.62 0.85
30 -4 -4 0.26 0.24
-30 -4 4 -0.07 0.11
-30 4 4 -0.2 0.1
28 -4 -4 12.35 0.91
-28 -4 4 14.57 0.73
-28 4 4 14.29 0.73
26 -4 -4 -0.07 0.18
-26 -4 4 0.1 0.09
-26 4 4 0.07 0.1
24 -4 -4 2.39 0.33
24 4 -4 2.61 0.29
22 -4 -4 0.24 0.17
22 4 -4 0 0.11
20 -4 -4 148.2 6.69
20 4 -4 156.34 6.6
18 -4 -4 0.26 0.14
18 4 -4 0.04 0.15
18 4 -4 0.18 0.1
16 -4 -4 3.08 0.27
16 4 -4 2.18 0.22
-16 4 4 3.16 0.25
16 4 -4 3.12 0.3
-14 -4 4 0.46 0.08
14 -4 -4 0.44 0.13
-14 4 4 0.29 0.1
14 4 -4 0.43 0.1
14 4 -4 0.62 0.15
12 -4 -4 -0.01 0.08
-12 -4 4 0.01 0.05
12 4 -4 0.04 0.1
12 4 -4 0.04 0.06
-12 4 4 -0.03 0.06
10 -4 -4 0.06 0.09
-10 -4 4 0.14 0.06
10 4 -4 0.07 0.09
-10 4 4 0.09 0.07
10 4 -4 0.07 0.06
8 -4 -4 0.21 0.08
8 4 -4 0.09 0.09
-8 4 4 0.17 0.07
-6 -4 4 0.12 0.05
6 4 -4 0.13 0.07
-6 4 4 0.15 0.05
-4 -4 4 149.83 5.96
-2 -4 4 0.71 0.07
0 -4 4 1000 36.38
0 4 4 832.76 36.31
2 4 4 0.58 0.07
4 -4 4 165.74 6.27
4 4 4 147.84 6.23
6 -4 4 0.22 0.09
-6 4 -4 0.07 0.05
6 4 4 0.16 0.05
8 -4 4 0.18 0.09
8 4 4 0.2 0.06
8 4 4 0.16 0.06
-8 4 -4 0.15 0.07
10 -4 4 0.23 0.09
10 4 4 0.13 0.06
-10 4 -4 0.16 0.08
10 4 4 0.09 0.05
12 -4 4 0.1 0.09
12 4 4 0.18 0.06
-12 4 -4 -0.01 0.07
12 4 4 0.1 0.07
14 -4 4 0.38 0.11
-14 4 -4 0.34 0.1
14 4 4 0.38 0.1
16 4 4 2.32 0.22
-16 4 -4 3.06 0.25
-18 4 -4 0.23 0.13
18 4 4 0.25 0.11
-20 4 -4 158.12 6.92
20 4 4 155.76 6.8
22 4 4 0.12 0.13
-22 4 -4 0.06 0.12
24 -4 4 2.63 0.38
24 4 4 2.39 0.27
26 -4 4 0.05 0.21
-26 4 -4 -0.02 0.09
28 -4 4 12.82 0.93
-28 -4 -4 13.86 0.71
-28 4 -4 13.84 0.7
30 -4 4 -0.06 0.24
-30 -4 -4 -0.04 0.11
-30 4 -4 -0.17 0.1
-32 -4 -4 16.78 0.84
32 -4 4 13.79 1.09
-32 4 -4 16.69 0.84
-34 -4 -4 0.04 0.13
-34 4 -4 -0.03 0.13
-36 -4 -4 26.11 1.31
-36 4 -4 27.5 1.31
-38 -4 -4 0.1 0.14
-38 4 -4 0.22 0.15
-40 -4 -4 8.16 0.54
-40 4 -4 8.67 0.55
-42 -4 -4 -0.02 0.14
-42 4 -4 -0.01 0.15
-44 -4 -4 1.5 0.2
-44 4 -4 1.59 0.22
-46 4 -4 -0.34 0.13
-46 -6 4 0.24 0.13
-46 6 4 0.15 0.14
-44 -6 4 0.04 0.14
-44 6 4 0.15 0.15
-42 -6 4 1.59 0.23
-42 6 4 1.98 0.24
-40 -6 4 0.06 0.15
-40 6 4 0.06 0.16
-38 -6 4 -0.02 0.15
-38 6 4 -0.03 0.15
-36 -6 4 0.22 0.17
-36 6 4 0.2 0.16
-34 -6 4 0.1 0.14
-34 6 4 0.05 0.14
-32 -6 4 0.22 0.13
-32 6 4 0.07 0.14
30 -6 -4 0.05 0.23
-30 -6 4 0.48 0.14
-30 6 4 0.12 0.12
28 -6 -4 0.18 0.19
-28 -6 4 0.25 0.12
-28 6 4 0.02 0.12
26 -6 -4 3.91 0.45
-26 -6 4 4.88 0.33
-26 6 4 4.23 0.3
26 6 -4 4.48 0.41
24 -6 -4 -0.16 0.13
24 6 -4 -0.01 0.13
22 -6 -4 20.06 1.11
22 6 -4 22.02 1.07
20 -6 -4 -0.02 0.13
20 6 -4 0.04 0.11
18 -6 -4 66.65 3.2
-18 6 4 76.34 3.23
18 6 -4 71.34 3.16
16 -6 -4 0.17 0.11
-16 6 4 0.18 0.1
16 6 -4 0.14 0.09
14 -6 -4 21.52 1.04
14 6 -4 21.14 1.09
14 6 -4 21.86 1.01
-14 6 4 21.9 1.04
12 -6 -4 0.04 0.09
-12 -6 4 0 0.04
12 6 -4 -0.03 0.06
-12 6 4 0.03 0.07
12 6 -4 0.08 0.11
10 -6 -4 59.94 2.52
-10 -6 4 56.11 2.29
10 6 -4 57.13 2.56
-10 6 4 54.95 2.53
10 6 -4 57.51 2.49
-8 -6 4 0.17 0.05
8 6 -4 0.04 0.09
-8 6 4 0.2 0.06
-6 -6 4 180.09 7.14
-6 6 4 179.44 7.78
-4 -6 4 0.17 0.05
-4 6 4 0.18 0.04
-2 -6 4 3.12 0.18
-2 -6 4 3.1 0.18
-2 6 4 3.12 0.16
0 -6 4 -0.12 0.05
2 -6 4 3.08 0.19
2 6 4 2.76 0.16
4 -6 4 -0.01 0.03
4 6 4 0.1 0.05
6 -6 4 184.38 6.99
-6 6 -4 181.15 7.56
6 6 4 158.1 6.92
8 -6 4 0.09 0.1
-8 6 -4 0.08 0.06
10 -6 4 57.97 2.35
-10 6 -4 55.77 2.5
10 6 4 55.18 2.45
12 -6 4 -0.04 0.08
12 6 4 -0.02 0.06
-12 6 -4 0.04 0.07
14 -6 4 21.72 1.01
-14 6 -4 21.71 1.05
16 6 4 0.11 0.09
-16 6 -4 0.23 0.1
18 6 4 70.55 3.06
-18 6 -4 67.1 3.11
-20 6 -4 -0.02 0.11
20 6 4 0.13 0.12
22 -6 4 19.91 1.15
-22 6 -4 21.94 1.1
22 6 4 21.33 1.07
24 -6 4 -0.06 0.18
24 6 4 -0.03 0.12
-24 6 -4 0.07 0.13
26 -6 4 4.6 0.53
-26 6 -4 4.68 0.29
26 6 4 4.08 0.4
28 -6 4 -0.19 0.21
-28 -6 -4 -0.06 0.11
-28 6 -4 0.03 0.09
-30 -6 -4 0.15 0.12
30 -6 4 0.26 0.23
-30 6 -4 0.1 0.1
-32 -6 -4 -0.04 0.13
-32 6 -4 0.12 0.13
-34 -6 -4 0.01 0.13
-34 6 -4 0.09 0.13
-36 -6 -4 0.22 0.16
-36 6 -4 0.28 0.16
-38 -6 -4 0.2 0.15
-38 6 -4 0.08 0.14
-40 -6 -4 -0.02 0.14
-40 6 -4 0.13 0.15
-42 -6 -4 1.31 0.19
-42 6 -4 1.19 0.2
-44 6 -4 -0.24 0.14
-46 6 -4 -0.14 0.13
-46 -8 4 0.12 0.13
-46 8 4 0.03 0.14
-44 -8 4 0.4 0.15
-44 8 4 0.15 0.15
-42 -8 4 0.09 0.15
-42 8 4 -0.12 0.15
-40 -8 4 0.73 0.18
-40 8 4 0.5 0.18
-38 -8 4 -0.13 0.14
-38 8 4 -0.21 0.14
-36 -8 4 4.69 0.39
-36 8 4 4.73 0.41
-34 -8 4 -0.2 0.13
-34 8 4 -0.13 0.13
-32 -8 4 4.31 0.37
-32 8 4 4.26 0.36
-30 -8 4 0.14 0.13
-30 8 4 -0.06 0.12
-28 -8 4 6.58 0.41
28 -8 -4 5.57 0.56
-28 8 4 6.45 0.41
28 8 -4 5.65 0.52
26 -8 -4 0.06 0.19
-26 -8 4 -0.04 0.1
-26 8 4 0.01 0.09
26 8 -4 0.07 0.16
24 -8 -4 3.44 0.36
24 8 -4 4.08 0.38
22 -8 -4 0.08 0.13
22 8 -4 -0.06 0.12
20 -8 -4 9.19 0.6
20 8 -4 9.98 0.58
-20 8 4 10.6 0.6
18 -8 -4 0.27 0.15
18 8 -4 0.19 0.12
-18 8 4 0.09 0.12
16 -8 -4 3.17 0.27
16 8 -4 3.6 0.27
-16 8 4 2.73 0.26
14 -8 -4 0.18 0.1
-14 8 4 0.17 0.09
14 8 -4 0.09 0.08
12 -8 -4 27.77 1.24
-12 8 4 25.11 1.23
12 8 -4 26.87 1.21
-10 -8 4 0.11 0.04
-10 8 4 -0.01 0.02
10 8 -4 0.09 0.09
10 8 -4 0.07 0.06
-8 -8 4 6.56 0.29
-8 8 4 5.83 0.32
-6 -8 4 0.14 0.06
-6 8 4 0.15 0.05
-4 -8 4 0.13 0.06
-2 8 4 0.79 0.05
-2 8 4 0.83 0.06
0 -8 4 112.24 4.46
0 -8 4 109.61 4.75
2 -8 4 1.07 0.14
4 -8 4 0.09 0.09
4 8 4 0.22 0.06
6 8 4 0.19 0.05
-6 8 -4 0.18 0.06
8 -8 4 6.21 0.36
-8 8 -4 5.79 0.32
10 -8 4 0.15 0.1
10 8 4 0.08 0.06
-10 8 -4 0 0.03
12 -8 4 25.1 1.13
-12 8 -4 24.61 1.16
12 8 4 24.57 1.13
-14 8 -4 0.05 0.08
14 8 4 0.08 0.08
-16 8 -4 2.73 0.26
16 8 4 3.27 0.25
-18 8 -4 0.11 0.12
18 8 4 0.18 0.12
20 -8 4 9.31 0.64
20 8 4 9.94 0.57
-20 8 -4 9.66 0.59
22 -8 4 -0.09 0.14
22 8 4 -0.13 0.11
-22 8 -4 0.04 0.12
24 -8 4 3.52 0.43
24 8 4 3.64 0.36
-24 8 -4 3.25 0.35
26 -8 4 -0.04 0.12
26 -8 4 -0.19 0.16
-26 8 -4 0.03 0.15
26 8 4 -0.05 0.15
-28 -8 -4 5.7 0.39
28 -8 4 5.4 0.58
28 8 4 6.12 0.51
-28 8 -4 6.42 0.37
30 -8 4 0.05 0.24
-30 -8 -4 0.07 0.12
-30 8 -4 -0.18 0.1
-32 -8 -4 3.76 0.32
-32 8 -4 4.15 0.34
-34 -8 -4 0.24 0.14
-34 8 -4 0.01 0.14
-36 -8 -4 4.14 0.38
-36 8 -4 4.54 0.38
-38 -8 -4 -0.09 0.13
-38 8 -4 -0.01 0.15
-40 8 -4 1.01 0.19
-42 8 -4 -0.05 0.14
-44 8 -4 0.07 0.15
-46 8 -4 -0.12 0.13
-46 -10 4 0.21 0.13
-46 10 4 0.02 0.13
-44 -10 4 0.13 0.14
-44 10 4 -0.14 0.13
-42 -10 4 -0.02 0.14
-42 10 4 -0.05 0.15
-40 -10 4 -0.04 0.14
-40 10 4 -0.16 0.14
-38 -10 4 0.53 0.17
-38 10 4 0.46 0.18
-36 -10 4 -0.03 0.14
-36 10 4 -0.1 0.14
-34 -10 4 -0.01 0.15
-34 10 4 -0.07 0.14
-32 -10 4 -0.04 0.13
-32 10 4 -0.11 0.13
-30 -10 4 1.59 0.21
-30 10 4 1.93 0.22
30 10 -4 2.39 0.35
-28 -10 4 0.09 0.12
28 10 -4 -0.34 0.18
-28 10 4 0.11 0.12
-26 -10 4 0.47 0.14
-26 10 4 0.55 0.13
26 10 -4 0.25 0.19
24 -10 -4 -0.01 0.15
-24 10 4 0.02 0.1
24 10 -4 -0.09 0.15
22 -10 -4 0.16 0.17
22 10 -4 0.39 0.16
20 -10 -4 0.21 0.14
20 10 -4 0.2 0.14
-20 10 4 0.09 0.14
18 -10 -4 0.6 0.17
-18 10 4 0.49 0.15
18 10 -4 0.38 0.14
16 -10 -4 0.41 0.14
-16 10 4 0.46 0.13
16 10 -4 0.46 0.13
-14 10 4 12.36 0.61
14 10 -4 10.65 0.59
-12 10 4 0.25 0.09
12 10 -4 0.28 0.09
10 10 -4 0.94 0.12
-8 -10 4 0.14 0.05
-8 10 4 0.12 0.06
-6 -10 4 57.38 2.32
-6 10 4 56.9 2.5
-4 -10 4 0.04 0.04
-4 10 4 0.12 0.03
-4 10 4 0.06 0.03
-2 -10 4 94.29 3.8
0 -10 4 1.28 0.15
2 -10 4 95.62 3.8
2 10 4 91.89 4.05
4 -10 4 -0.01 0.08
4 10 4 0.14 0.06
6 -10 4 57.49 2.31
6 10 4 52.84 2.24
-6 10 -4 55.98 2.43
8 -10 4 -0.01 0.04
-8 10 -4 0.07 0.06
10 -10 4 1.01 0.17
10 10 4 0.9 0.1
-10 10 -4 0.53 0.09
12 -10 4 0.27 0.13
-12 10 -4 0.29 0.09
12 10 4 0.25 0.08
-14 10 -4 12.64 0.61
14 10 4 10.09 0.57
16 -10 4 0.57 0.17
16 10 4 0.4 0.12
-16 10 -4 0.59 0.15
18 -10 4 0.46 0.17
18 10 4 0.3 0.14
-18 10 -4 0.55 0.15
20 -10 4 0.03 0.16
20 10 4 0.17 0.13
-20 10 -4 0.14 0.13
22 -10 4 0.75 0.22
22 10 4 1.09 0.2
-22 10 -4 0.45 0.17
24 -10 4 -0.25 0.17
24 -10 4 0.01 0.12
24 10 4 -0.04 0.15
-24 10 -4 -0.09 0.14
26 -10 4 0.35 0.21
26 -10 4 0.63 0.16
26 10 4 0.66 0.21
-26 10 -4 0.19 0.17
28 -10 4 0.02 0.22
28 10 4 -0.28 0.17
-28 10 -4 0.11 0.1
30 -10 4 2.03 0.36
-30 10 -4 1.74 0.2
30 10 4 2.12 0.37
-32 10 -4 -0.03 0.12
-34 10 -4 0.25 0.14
-36 10 -4 0.03 0.15
-38 10 -4 0.69 0.18
-40 10 -4 0.05 0.15
-42 10 -4 -0.01 0.14
-44 10 -4 -0.11 0.13
-46 10 -4 0.06 0.13
-46 12 4 0.1 0.13
-44 -12 4 0.18 0.15
-44 12 4 0 0.13
-42 -12 4 0.1 0.15
-42 12 4 -0.11 0.15
-40 -12 4 0.41 0.17
-40 12 4 0.38 0.17
-38 -12 4 -0.03 0.16
-38 12 4 -0.07 0.15
-36 -12 4 1.38 0.22
-36 12 4 1.73 0.24
-34 -12 4 -0.36 0.14
-34 12 4 -0.06 0.14
-32 -12 4 0.61 0.16
-32 12 4 0.66 0.16
-30 -12 4 -0.19 0.13
30 12 -4 0.09 0.2
-30 12 4 -0.15 0.12
-28 -12 4 0.53 0.14
-28 12 4 0.68 0.15
28 12 -4 0.31 0.22
-26 -12 4 -0.13 0.11
-26 12 4 -0.02 0.11
26 12 -4 -0.16 0.17
-24 -12 4 6.24 0.37
24 12 -4 5.46 0.46
-24 12 4 5.51 0.35
-22 12 4 0.04 0.14
22 12 -4 0.18 0.15
20 12 -4 8.6 0.54
-20 12 4 8.31 0.55
18 12 -4 0.49 0.16
-18 12 4 0.22 0.13
-16 12 4 27.31 1.34
16 12 -4 29.2 1.33
14 12 -4 0.09 0.09
-14 12 4 0.19 0.1
-12 12 4 33.41 1.62
12 12 -4 37.83 1.6
-10 12 4 0.34 0.08
10 12 -4 0.3 0.08
-8 -12 4 22.98 1
-8 12 4 24.95 1.09
-6 -12 4 0.04 0.05
-6 12 4 0.03 0.04
-4 -12 4 0.03 0.06
-2 -12 4 0.28 0.09
0 -12 4 18.52 0.83
2 -12 4 0.36 0.12
4 -12 4 0 0.09
6 -12 4 0.01 0.03
6 -12 4 0.07 0.1
6 12 4 0.07 0.06
8 -12 4 25.28 1.07
8 -12 4 22.24 1.08
-8 12 -4 23.66 1.09
10 -12 4 0.32 0.08
10 -12 4 0.01 0.11
10 12 4 0.29 0.07
-10 12 -4 0.32 0.09
12 -12 4 35.51 1.63
12 12 4 36.44 1.6
-12 12 -4 35.78 1.64
14 -12 4 0.16 0.12
-14 12 -4 0.17 0.11
14 12 4 0.23 0.09
16 -12 4 28.51 1.31
-16 12 -4 25.76 1.3
16 12 4 27.4 1.28
18 -12 4 0.08 0.15
-18 12 -4 0.14 0.14
18 12 4 0.16 0.12
20 -12 4 8.69 0.55
-20 12 -4 7.66 0.52
20 12 4 7.81 0.51
22 -12 4 0.08 0.15
-22 12 -4 0 0.13
22 12 4 0.15 0.15
24 -12 4 4.89 0.35
24 -12 4 5.18 0.46
24 12 4 5.75 0.46
-24 12 -4 5.77 0.47
26 -12 4 -0.04 0.18
26 -12 4 0.13 0.14
-26 12 -4 0.15 0.18
26 12 4 0.15 0.17
28 -12 4 0.57 0.17
28 -12 4 0.69 0.24
28 12 4 0.67 0.25
-28 12 -4 0.43 0.21
30 12 4 0 0.19
-30 12 -4 -0.07 0.11
-32 12 -4 0.58 0.15
-34 12 -4 0.19 0.14
-36 12 -4 1.48 0.21
-38 12 -4 0.38 0.16
-40 12 -4 0.45 0.17
-42 12 -4 0.12 0.14
-44 12 -4 0.04 0.13
-46 12 -4 0.01 0.13
-46 14 4 0.11 0.12
-44 -14 4 0.18 0.15
-44 14 4 -0.05 0.13
-42 -14 4 1.7 0.21
-42 14 4 1.22 0.21
-40 -14 4 0.18 0.16
-40 14 4 0.07 0.15
-38 -14 4 4.64 0.39
-38 14 4 4.01 0.39
-36 -14 4 0.19 0.16
-36 14 4 0.29 0.17
-34 -14 4 2 0.24
-34 14 4 2.11 0.24
-32 -14 4 -0.07 0.13
32 14 -4 0.17 0.22
-32 14 4 -0.18 0.13
-30 -14 4 7.59 0.49
-30 14 4 7.27 0.48
30 14 -4 8.55 0.65
-28 -14 4 0 0.13
28 14 -4 -0.05 0.18
-28 14 4 0 0.11
-26 -14 4 0.45 0.14
26 14 -4 0.4 0.2
-26 14 4 0.12 0.13
-24 -14 4 0.14 0.1
24 14 -4 -0.06 0.15
-24 14 4 -0.14 0.1
-22 14 4 11.99 0.74
22 14 -4 12.77 0.73
20 14 -4 0.2 0.14
-20 14 4 -0.16 0.13
-18 14 4 19.28 0.95
18 14 -4 17.13 0.91
-16 14 4 0.26 0.13
16 14 -4 0.11 0.11
14 14 -4 6.6 0.41
-14 14 4 7.21 0.42
12 14 -4 0.21 0.1
-12 14 4 0.21 0.1
-10 14 4 12.07 0.6
-8 14 4 0.13 0.06
-6 -14 4 20.19 0.88
-6 14 4 20.7 0.92
-4 -14 4 0.43 0.09
-2 -14 4 53.08 2.2
0 -14 4 0.61 0.13
2 -14 4 53.74 2.25
4 -14 4 0.49 0.12
4 14 4 0.43 0.05
6 -14 4 20.8 1
6 14 4 22.52 0.93
8 -14 4 0.06 0.12
-8 14 -4 0.2 0.06
10 -14 4 11.65 0.54
10 14 4 10.08 0.54
-10 14 -4 12.9 0.59
12 -14 4 0.15 0.08
12 14 4 0.12 0.07
-12 14 -4 0.21 0.1
14 -14 4 6.49 0.39
-14 14 -4 8.06 0.43
14 14 4 5.52 0.37
16 -14 4 0.18 0.13
-16 14 -4 0.13 0.13
16 14 4 0.1 0.11
18 -14 4 17.28 0.89
18 14 4 15.5 0.87
-18 14 -4 19.05 0.92
20 -14 4 -0.23 0.13
20 14 4 0.12 0.14
-20 14 -4 -0.07 0.14
22 -14 4 11.37 0.71
22 -14 4 12.73 0.65
22 14 4 11.17 0.71
-22 14 -4 13.02 0.75
24 -14 4 0.26 0.12
24 -14 4 -0.06 0.15
24 14 4 0.02 0.16
-24 14 -4 0.02 0.16
26 -14 4 0.2 0.18
26 -14 4 0.31 0.14
-26 14 -4 0.44 0.2
26 14 4 0.26 0.2
28 -14 4 0.27 0.16
28 -14 4 0.09 0.19
-28 14 -4 0.06 0.19
28 14 4 0.19 0.2
-30 14 -4 7.2 0.45
30 14 4 7.38 0.63
-32 14 -4 0 0.12
32 14 4 -0.31 0.2
-34 14 -4 1.93 0.22
-36 14 -4 0.33 0.15
-38 14 -4 4.65 0.39
-40 14 -4 0.23 0.15
-42 14 -4 1.16 0.19
-44 14 -4 0.22 0.14
-46 14 -4 0.05 0.12
-44 16 4 0.63 0.16
-42 16 4 -0.16 0.14
-40 -16 4 5.41 0.42
-40 16 4 4.8 0.42
-38 -16 4 0.52 0.16
-38 16 4 0.38 0.16
-36 -16 4 9.25 0.58
-36 16 4 10 0.61
-34 -16 4 0.17 0.15
-34 16 4 0.16 0.15
-32 -16 4 3.92 0.35
32 16 -4 5.4 0.55
-32 16 4 4.29 0.37
-30 -16 4 0.17 0.14
30 16 -4 -0.01 0.2
-30 16 4 0.02 0.11
-28 -16 4 2.88 0.3
28 16 -4 2.71 0.39
-28 16 4 2.06 0.22
-26 -16 4 0.08 0.12
-26 16 4 -0.19 0.1
26 16 -4 -0.09 0.17
-24 -16 4 9 0.5
24 -16 -4 7.57 0.53
-24 16 4 8.94 0.49
24 16 -4 9.97 0.63
22 -16 -4 0.09 0.15
-22 -16 4 0.27 0.11
22 16 -4 0.15 0.17
-22 16 4 -0.16 0.16
20 16 -4 32.42 1.51
-20 16 4 30.33 1.53
18 16 -4 0.25 0.14
-18 16 4 0.19 0.14
16 16 -4 49.13 2.2
-16 16 4 48.39 2.24
-14 16 4 0.2 0.11
14 16 -4 0.19 0.11
-12 16 4 27.11 1.31
12 16 -4 29.45 1.3
-10 16 4 0.53 0.1
-8 16 4 2.88 0.19
-6 16 4 0.21 0.04
-2 -16 4 0.03 0.08
0 -16 4 9.27 0.49
2 -16 4 0.22 0.11
4 -16 4 3.1 0.28
4 16 4 3.17 0.17
-8 16 -4 2.64 0.18
-10 16 -4 0.58 0.11
12 16 4 24.68 1.19
-12 16 -4 28.04 1.25
14 -16 4 0.2 0.08
-14 16 -4 0.01 0.11
14 16 4 0.15 0.1
16 -16 4 49.97 2.15
16 16 4 46.5 2.17
-16 16 -4 48.08 2.22
18 -16 4 0.17 0.12
-18 16 -4 0.02 0.15
18 16 4 0.04 0.13
20 -16 4 29.78 1.37
20 16 4 27.88 1.39
-20 16 -4 28.36 1.43
22 -16 4 -0.04 0.13
22 -16 4 0.51 0.14
-22 16 -4 0.05 0.18
22 16 4 0.03 0.16
24 -16 4 8.4 0.5
24 -16 4 8.36 0.54
24 16 4 8.25 0.59
-24 16 -4 7.91 0.61
26 -16 4 0.05 0.16
26 -16 4 0.27 0.15
-26 16 -4 -0.01 0.2
26 16 4 -0.12 0.17
28 -16 4 2.12 0.25
-28 16 -4 2.41 0.36
28 16 4 2.88 0.39
-30 16 -4 -0.13 0.2
-30 16 -4 -0.02 0.11
30 16 4 -0.12 0.21
-32 16 -4 4.4 0.37
32 16 4 4.76 0.53
-34 16 -4 0.15 0.14
-36 16 -4 9.67 0.59
-38 16 -4 0.42 0.16
-40 16 -4 5.57 0.43
-42 16 -4 0.16 0.15
-44 16 -4 0.72 0.15
-44 18 4 0.14 0.12
-42 18 4 1.82 0.22
-40 18 4 0.25 0.16
-38 -18 4 6.68 0.46
-38 18 4 6.69 0.47
-36 -18 4 0.29 0.15
-36 18 4 0.43 0.17
-34 -18 4 5.59 0.42
-34 18 4 5.71 0.44
-32 -18 4 -0.03 0.13
-32 18 4 0.05 0.14
32 18 -4 0.08 0.22
-30 -18 4 5.93 0.41
-30 18 4 5.07 0.39
30 18 -4 5.81 0.57
-28 -18 4 0 0.13
-28 18 4 -0.01 0.11
28 18 -4 -0.04 0.19
-26 -18 4 4.34 0.34
26 18 -4 3.14 0.4
-26 18 4 4.56 0.32
-24 -18 4 0.18 0.12
24 -18 -4 -0.13 0.15
24 18 -4 0.17 0.18
22 -18 -4 40.03 1.91
-22 -18 4 43.51 1.9
22 18 -4 42.08 1.98
-22 18 4 40.37 2
20 -18 -4 0.2 0.14
-20 18 4 -0.12 0.16
20 18 -4 0.23 0.15
18 18 -4 58.49 2.78
-18 18 4 65.34 2.84
16 18 -4 0.29 0.12
-16 18 4 0.22 0.14
14 18 -4 15.83 0.84
-14 18 4 18.6 0.87
-12 18 4 0.4 0.11
-10 18 4 1.7 0.17
-8 18 4 0.25 0.07
-6 18 4 65.26 2.84
-8 18 -4 0.19 0.07
-10 18 -4 0.8 0.13
-12 18 -4 0.29 0.12
-14 18 -4 19.15 0.9
14 18 4 15.87 0.84
16 18 4 0.18 0.13
-16 18 -4 -0.19 0.13
-18 18 -4 65.06 2.81
18 18 4 56.77 2.73
20 -18 4 0.71 0.15
20 18 4 0.03 0.16
-20 18 -4 -0.24 0.17
22 -18 4 38.54 1.78
22 18 4 39.44 1.86
-22 18 -4 37.32 1.88
24 -18 4 0.32 0.13
-24 18 -4 -0.24 0.19
24 18 4 -0.03 0.18
26 -18 4 4.32 0.34
-26 18 -4 3.09 0.4
26 18 4 4.05 0.45
28 -18 4 0.03 0.15
-28 18 -4 -0.04 0.19
28 18 4 0.11 0.2
30 -18 4 5.52 0.45
30 18 4 5.7 0.57
-30 18 -4 5.18 0.39
-32 18 -4 0.14 0.14
32 18 4 0.31 0.23
-34 18 -4 5.04 0.41
-36 18 -4 0.41 0.16
-38 18 -4 7.23 0.5
-40 18 -4 0.47 0.16
-42 18 -4 2.04 0.22
-44 18 -4 0.16 0.12
-42 20 4 0.05 0.13
-40 20 4 5.32 0.42
-38 20 4 0.41 0.16
-36 20 4 6.41 0.48
-34 20 4 0.14 0.15
-32 -20 4 2.71 0.29
-32 20 4 2.46 0.26
32 20 -4 2.69 0.41
-30 -20 4 0.08 0.13
-30 20 4 -0.05 0.12
30 20 -4 0.23 0.23
-28 -20 4 1.24 0.18
-28 20 4 1.02 0.17
28 20 -4 1.26 0.3
-26 -20 4 0.13 0.13
26 20 -4 0.14 0.19
-26 20 4 0.25 0.11
-24 -20 4 12.81 0.68
24 -20 -4 12.32 0.7
24 20 -4 13.59 0.81
-22 -20 4 0.42 0.13
22 -20 -4 0.26 0.14
-22 20 4 -0.28 0.19
22 20 -4 0.35 0.18
-20 -20 4 40.93 1.9
20 -20 -4 40.58 1.91
20 20 -4 44.05 1.97
-20 20 4 41.64 2
-18 20 4 -0.12 0.14
18 20 -4 0.13 0.14
-16 20 4 28.5 1.39
16 20 -4 29.04 1.36
-14 20 4 0.16 0.11
-12 20 4 7.68 0.44
-10 20 4 0.08 0.07
-8 20 4 9.46 0.47
-6 20 4 -0.03 0.04
-8 20 -4 9.2 0.47
-10 20 -4 0.04 0.08
-12 20 -4 7.48 0.45
-14 20 -4 -0.12 0.11
14 20 4 0.01 0.1
-16 20 -4 28.71 1.39
16 20 4 28.07 1.34
18 -20 4 0.64 0.14
18 20 4 -0.13 0.13
-18 20 -4 -0.29 0.16
20 -20 4 39.81 1.82
20 20 4 38.42 1.86
-20 20 -4 39.72 1.91
22 -20 4 0.68 0.15
22 20 4 -0.25 0.16
-22 20 -4 -0.43 0.19
24 -20 4 12.07 0.66
24 20 4 11.27 0.76
-24 20 -4 11.91 0.79
26 -20 4 0.4 0.16
-26 20 -4 -0.07 0.21
26 20 4 0.04 0.21
28 -20 4 0.65 0.18
28 20 4 1.15 0.3
-28 20 -4 1.07 0.28
30 -20 4 -0.04 0.17
30 20 4 0.03 0.23
-32 20 -4 2.42 0.26
32 20 4 2.47 0.39
-34 20 -4 -0.07 0.14
-36 20 -4 5.89 0.45
-38 20 -4 0.23 0.16
-40 20 -4 5.51 0.42
-42 20 -4 0.23 0.14
-42 22 4 0.9 0.16
-40 22 4 0.3 0.15
-38 22 4 3.89 0.37
-36 22 4 0.08 0.15
-34 22 4 1.73 0.23
-32 22 4 0.02 0.15
-30 22 4 0.91 0.17
30 22 -4 1.22 0.31
28 22 -4 -0.03 0.2
-28 22 4 -0.12 0.11
-26 22 4 6.43 0.41
26 22 -4 6.1 0.56
-24 -22 4 0.05 0.12
24 -22 -4 0.05 0.16
24 22 -4 0.22 0.19
-22 -22 4 24.74 1.2
22 -22 -4 23.86 1.21
22 22 -4 27.34 1.31
-20 -22 4 0.23 0.11
20 -22 -4 0.55 0.16
-20 22 4 -0.19 0.18
20 22 -4 0.3 0.17
18 -22 -4 39.44 1.83
-18 -22 4 39.08 1.83
-18 22 4 41.25 1.91
18 22 -4 40.17 1.87
-16 22 4 -0.01 0.13
16 22 -4 0.03 0.12
-14 22 4 12.42 0.67
-12 22 4 0.08 0.09
-10 22 4 0.41 0.1
-8 22 4 0.11 0.06
-6 22 4 20.49 0.92
-8 22 -4 0.05 0.07
-10 22 -4 0.59 0.12
-12 22 -4 0.13 0.1
-14 22 -4 11.72 0.66
16 -22 4 0.51 0.14
-16 22 -4 -0.38 0.12
16 22 4 0.16 0.14
18 -22 4 40.37 1.82
-18 22 -4 39.05 1.89
18 22 4 37.72 1.83
20 -22 4 0.4 0.14
20 22 4 -0.2 0.16
22 -22 4 23.47 1.12
-22 22 -4 22.28 1.22
22 22 4 21.45 1.19
24 -22 4 0.2 0.15
-24 22 -4 -0.43 0.19
24 22 4 -0.07 0.19
26 -22 4 6.12 0.45
-26 22 -4 6.17 0.59
26 22 4 5.51 0.56
28 -22 4 -0.11 0.16
28 22 4 -0.03 0.21
30 -22 4 0.98 0.23
30 22 4 1.34 0.33
-32 22 -4 -0.06 0.14
-34 22 -4 1.54 0.22
-36 22 -4 -0.04 0.15
-38 22 -4 3.27 0.35
-40 22 -4 0.24 0.15
-42 22 -4 1.03 0.17
-40 24 4 1.24 0.18
-38 24 4 0.11 0.14
-36 24 4 1.52 0.22
-34 24 4 0.16 0.15
-32 24 4 0.8 0.19
-30 24 4 0.03 0.13
28 24 -4 1.03 0.3
-28 24 4 0.83 0.17
-26 24 4 0.04 0.12
26 24 -4 0.06 0.21
24 -24 -4 5.72 0.45
24 24 -4 6.69 0.54
22 -24 -4 0.09 0.15
22 24 -4 0.33 0.18
20 -24 -4 11.89 0.65
20 24 -4 11.6 0.72
18 -24 -4 0.06 0.13
-18 24 4 0.02 0.15
18 24 -4 -0.03 0.14
-16 24 4 7.79 0.51
-14 24 4 -0.02 0.11
-12 24 4 4.72 0.33
-10 24 4 0.11 0.09
-8 24 4 3.06 0.21
-6 24 4 0.05 0.05
-4 24 4 2.78 0.15
-8 24 -4 3.6 0.25
-10 24 -4 0.03 0.1
12 -24 4 5.16 0.37
-12 24 -4 5.22 0.37
14 -24 4 0.05 0.13
-14 24 -4 -0.16 0.11
16 -24 4 8.15 0.48
16 24 4 7.6 0.49
-16 24 -4 7.89 0.53
18 -24 4 0.21 0.15
18 24 4 -0.22 0.13
-18 24 -4 -0.05 0.16
20 -24 4 11.13 0.62
20 24 4 10.21 0.67
-20 24 -4 11.47 0.72
22 -24 4 0.41 0.16
22 24 4 -0.42 0.15
-22 24 -4 -0.32 0.19
24 -24 4 5.53 0.43
-24 24 -4 5.55 0.53
24 24 4 4.95 0.5
26 -24 4 0.27 0.17
26 24 4 0.04 0.22
28 -24 4 0.89 0.21
28 24 4 1.14 0.32
30 -24 4 -0.09 0.2
-32 24 -4 0.81 0.19
-34 24 -4 -0.23 0.14
-36 24 -4 1.03 0.2
-38 24 -4 -0.1 0.13
-40 24 -4 1.54 0.2
-38 26 4 -0.03 0.13
-36 26 4 0.09 0.15
-34 26 4 0.07 0.15
-32 26 4 -0.02 0.15
-30 26 4 0.16 0.15
-28 26 4 -0.33 0.12
-26 26 4 0.58 0.15
26 26 -4 0.85 0.27
24 -26 -4 0.04 0.16
24 26 -4 -0.13 0.18
-24 26 4 0.11 0.12
22 -26 -4 5.34 0.41
22 26 -4 6.06 0.51
20 26 -4 0.18 0.17
18 26 -4 3.7 0.37
-16 26 4 0.02 0.13
-14 26 4 0.44 0.14
-12 26 4 0.13 0.1
-10 26 4 0.6 0.12
-8 26 4 -0.02 0.07
-6 26 4 3.87 0.23
-4 26 4 -0.03 0.04
-6 26 -4 4.15 0.26
8 -26 4 0.13 0.12
-8 26 -4 0.03 0.08
10 -26 4 0.6 0.16
-10 26 -4 0.55 0.13
12 -26 4 -0.19 0.13
-12 26 -4 0.02 0.1
14 -26 4 0.1 0.15
-14 26 -4 0.35 0.15
16 -26 4 -0.13 0.13
-16 26 -4 -0.12 0.13
18 -26 4 4.16 0.35
18 26 4 3.31 0.36
-18 26 -4 4.05 0.4
20 -26 4 0.34 0.14
-20 26 -4 -0.26 0.16
20 26 4 0.08 0.16
22 -26 4 6.46 0.45
22 26 4 5.6 0.5
-22 26 -4 4.37 0.5
24 -26 4 0.15 0.16
24 26 4 -0.08 0.18
26 -26 4 0.56 0.2
26 26 4 0.2 0.22
28 -26 4 -0.09 0.18
30 -26 4 -0.04 0.2
-30 26 -4 0.29 0.16
-32 26 -4 -0.12 0.15
-34 26 -4 -0.02 0.14
-36 26 -4 0.05 0.15
-38 26 -4 0 0.13
-40 26 -4 0.11 0.13
-36 28 4 0.17 0.14
-34 28 4 -0.07 0.14
-32 28 4 0.36 0.16
-30 28 4 0.21 0.15
-28 28 4 3.08 0.33
-26 28 4 -0.18 0.13
24 28 -4 1.53 0.3
22 28 -4 -0.04 0.17
20 28 -4 1.5 0.27
18 28 -4 0.06 0.15
-10 28 4 -0.11 0.09
2 -28 4 0.03 0.12
4 -28 4 11.64 0.63
6 -28 4 -0.07 0.12
-6 28 -4 0.02 0.08
8 -28 4 5.26 0.38
-8 28 -4 5.27 0.35
10 -28 4 0.02 0.14
-10 28 -4 -0.13 0.09
12 -28 4 0.24 0.15
-12 28 -4 0.45 0.14
14 -28 4 -0.17 0.13
-14 28 -4 0.12 0.13
16 -28 4 1.87 0.24
-16 28 -4 2.3 0.27
18 -28 4 0.05 0.14
-18 28 -4 -0.12 0.14
18 28 4 -0.01 0.14
20 -28 4 0.74 0.18
20 28 4 1.32 0.25
22 -28 4 0.18 0.16
22 28 4 -0.1 0.17
24 -28 4 1.16 0.22
24 28 4 1.29 0.29
26 -28 4 -0.02 0.18
28 -28 4 2.7 0.3
-30 28 -4 0.14 0.16
-32 28 -4 0.28 0.16
-34 28 -4 0.08 0.15
-36 28 -4 -0.07 0.14
-38 28 -4 -0.02 0.13
22 30 -4 1.5 0.28
20 30 -4 0.13 0.17
4 -30 4 -0.03 0.11
6 -30 4 0.3 0.13
-6 30 -4 0.21 0.09
8 -30 4 0.07 0.13
-8 30 -4 0.06 0.09
10 -30 4 1.82 0.22
-10 30 -4 1.96 0.22
12 -30 4 -0.08 0.14
-12 30 -4 0.11 0.12
14 -30 4 6.17 0.45
-14 30 -4 6.45 0.45
16 -30 4 0.12 0.15
-16 30 -4 -0.11 0.14
18 -30 4 4.84 0.39
20 -30 4 0.08 0.15
20 30 4 0 0.17
22 -30 4 0.78 0.2
22 30 4 1.05 0.25
24 -30 4 0.12 0.18
26 -30 4 0.27 0.19
28 -30 4 0.01 0.18
-30 30 -4 0.07 0.14
-32 30 -4 -0.16 0.14
-34 30 -4 1.17 0.19
-36 30 -4 -0.03 0.13
20 32 -4 2.63 0.36
8 -32 4 3.58 0.32
-8 32 -4 3.19 0.27
10 -32 4 0.1 0.14
-10 32 -4 0.01 0.1
12 -32 4 0.62 0.17
-12 32 -4 0.56 0.15
14 -32 4 -0.03 0.14
16 -32 4 3.7 0.35
18 -32 4 -0.05 0.15
20 -32 4 2.48 0.27
20 32 4 2.24 0.33
22 -32 4 0.21 0.17
24 -32 4 1.08 0.22
26 -32 4 -0.28 0.17
28 -32 4 0.03 0.18
-28 32 -4 0.3 0.16
-30 32 -4 -0.13 0.15
-32 32 -4 0.78 0.17
-34 32 -4 0.21 0.14
12 -34 4 -0.12 0.14
14 -34 4 1.6 0.23
16 -34 4 0.07 0.15
18 -34 4 4.73 0.41
20 -34 4 -0.03 0.16
22 -34 4 1.38 0.22
24 -34 4 -0.2 0.16
26 -34 4 -0.22 0.16
-28 34 -4 0.12 0.14
-30 34 -4 1.18 0.19
-32 34 -4 0.22 0.13
18 -36 4 0.34 0.16
20 -36 4 4.54 0.4
22 -36 4 -0.13 0.15
24 -36 4 0.83 0.19
-26 36 -4 -0.17 0.13
-28 36 -4 0.11 0.13
-30 36 -4 0.04 0.12
-47 -1 5 -0.03 0.12
-47 1 5 0 0.12
-45 -1 5 0.04 0.14
-45 1 5 0 0.14
-43 -1 5 -0.21 0.14
-43 1 5 0.25 0.15
-41 -1 5 -0.09 0.15
-41 1 5 0.15 0.16
-39 -1 5 -0.06 0.16
-39 1 5 0.15 0.16
-37 -1 5 0.21 0.16
-37 1 5 0.24 0.17
-35 -1 5 -0.05 0.15
-35 1 5 0.1 0.15
-33 -1 5 0.03 0.14
-33 1 5 -0.18 0.13
-31 -1 5 0.15 0.13
-31 1 5 0.16 0.13
-29 -1 5 0.19 0.11
-29 1 5 0.15 0.12
-27 -1 5 0.52 0.12
-27 1 5 0.41 0.12
25 -1 -5 0.18 0.19
23 -1 -5 0.07 0.16
21 -1 -5 0.21 0.16
21 1 -5 0.36 0.18
21 1 -5 0.2 0.11
19 -1 -5 1.49 0.25
-19 1 5 1.39 0.17
19 1 -5 1.19 0.16
19 1 -5 1.13 0.23
17 -1 -5 2.87 0.28
-17 -1 5 2.74 0.2
17 -1 -5 2.53 0.21
17 1 -5 2.88 0.29
17 1 -5 2.56 0.22
15 -1 -5 9.82 0.48
15 -1 -5 9.14 0.54
-15 -1 5 8.86 0.45
15 1 -5 9.35 0.48
15 1 -5 8.93 0.55
13 -1 -5 8.22 0.49
-13 -1 5 8.6 0.41
13 -1 -5 8.71 0.43
13 1 -5 8.62 0.44
13 1 -5 7.96 0.5
-11 -1 5 28.85 1.19
11 -1 -5 27.65 1.31
11 1 -5 28.49 1.27
11 1 -5 27.88 1.32
9 -1 -5 34.01 1.49
-9 -1 5 31.53 1.35
9 1 -5 32.11 1.44
9 1 -5 33.13 1.49
7 -1 -5 49.51 2.12
7 1 -5 47.75 2.12
-7 1 5 46.08 1.94
-5 -1 5 40.72 1.66
-3 -1 5 6.94 0.33
-3 1 5 7.17 0.33
-1 -1 5 4.69 0.23
1 -1 5 4.52 0.23
1 1 5 4.65 0.23
3 -1 5 7.37 0.34
-3 1 -5 7.15 0.36
3 1 5 7.02 0.33
5 -1 5 42.67 1.78
5 1 5 42.7 1.77
-5 1 -5 44.95 1.93
7 -1 5 47.27 1.95
-7 -1 -5 47.54 2.11
7 1 5 47.59 1.94
9 -1 5 31.98 1.37
9 1 5 32.15 1.44
-9 1 -5 33.25 1.48
9 1 5 32.32 1.36
11 -1 5 27.7 1.2
-11 -1 -5 27.48 1.29
11 1 5 29 1.26
-11 1 -5 27.2 1.29
11 1 5 27.55 1.19
-13 -1 -5 8.31 0.46
13 -1 5 8.07 0.44
13 -1 5 8.44 0.42
13 1 5 8.04 0.42
13 1 5 8.43 0.44
-13 1 -5 7.88 0.46
15 -1 5 9.02 0.46
15 -1 5 8.73 0.48
-15 -1 -5 8.9 0.5
15 1 5 9.08 0.48
-15 1 -5 8.9 0.51
15 1 5 9.17 0.47
17 -1 5 2.31 0.2
-17 -1 -5 2.65 0.25
17 1 5 2.48 0.22
-17 1 -5 2.29 0.24
-19 1 -5 0.81 0.16
19 1 5 0.93 0.15
21 1 5 0.13 0.1
-27 -1 -5 0.56 0.12
-27 1 -5 0.34 0.11
-29 -1 -5 -0.05 0.11
-29 1 -5 0.09 0.12
-31 -1 -5 0.23 0.13
-31 1 -5 0 0.12
-33 -1 -5 0 0.13
-33 1 -5 -0.09 0.12
-35 -1 -5 0.21 0.15
-35 1 -5 0.17 0.14
-37 -1 -5 0.17 0.15
-37 1 -5 0.21 0.16
-39 -1 -5 -0.01 0.14
-39 1 -5 0.24 0.15
-41 -1 -5 0.17 0.15
-41 1 -5 0.01 0.14
-43 -1 -5 -0.08 0.13
-43 1 -5 0.03 0.15
-45 -1 -5 0.04 0.13
-45 1 -5 -0.01 0.14
-47 1 -5 -0.08 0.12
-47 -3 5 0.26 0.13
-47 3 5 0.24 0.14
-45 -3 5 0.49 0.15
-45 3 5 0.54 0.16
-43 -3 5 0.38 0.17
-43 3 5 0.34 0.17
-41 -3 5 -0.18 0.15
-41 3 5 -0.07 0.15
-39 -3 5 0.05 0.16
-39 3 5 0.12 0.16
-37 -3 5 0.26 0.16
-37 3 5 0.09 0.17
-35 -3 5 0.5 0.18
-35 3 5 0.67 0.17
-33 -3 5 1.35 0.2
-33 3 5 1.23 0.2
-31 -3 5 4.56 0.36
-31 3 5 4.02 0.35
29 -3 -5 4.17 0.51
-29 -3 5 5.11 0.36
-29 3 5 4.62 0.35
-27 -3 5 9.48 0.51
27 -3 -5 7.98 0.65
-27 3 5 8.78 0.5
25 -3 -5 5.82 0.51
23 -3 -5 4.03 0.42
23 3 -5 3.76 0.32
21 -3 -5 0.67 0.2
21 3 -5 0.62 0.15
19 -3 -5 2.19 0.28
19 3 -5 2.5 0.32
19 3 -5 2.06 0.23
17 -3 -5 10.26 0.59
17 3 -5 10.31 0.62
17 3 -5 9.4 0.53
15 -3 -5 26.99 1.29
-15 -3 5 26.67 1.14
15 3 -5 25.34 1.23
15 3 -5 28.47 1.32
-13 -3 5 25.76 1.05
13 -3 -5 25.1 1.18
13 3 -5 25.4 1.2
13 3 -5 22.86 1.13
-11 -3 5 42.95 1.79
11 -3 -5 45.95 1.97
11 3 -5 41.86 1.92
11 3 -5 44.51 1.99
9 -3 -5 14.95 0.7
9 3 -5 13.56 0.71
-7 -3 5 31.24 1.28
7 3 -5 30.84 1.41
-5 -3 5 6.43 0.31
5 3 -5 6.99 0.36
-1 -3 5 6.89 0.33
-1 3 5 7.28 0.33
1 -3 5 4.31 0.22
3 -3 5 2.94 0.18
3 3 5 2.94 0.16
5 -3 5 7.03 0.36
-5 3 -5 7.44 0.36
5 3 5 6.49 0.32
7 -3 5 32.81 1.39
-7 3 -5 34.38 1.49
7 3 5 31.42 1.35
9 -3 5 14.13 0.67
9 3 5 14.43 0.63
9 3 5 13.53 0.67
-9 3 -5 15.46 0.7
-11 -3 -5 45.45 2.05
11 -3 5 45.05 1.92
11 3 5 44.66 1.88
11 3 5 44.83 2.01
-11 3 -5 48.22 2.06
13 -3 5 25.93 1.12
13 3 5 22.54 1.14
-13 3 -5 26.06 1.18
13 3 5 25.46 1.07
15 -3 5 25.82 1.19
15 3 5 26.35 1.23
-15 3 -5 27.19 1.27
15 3 5 27.33 1.15
-17 3 -5 9.62 0.56
17 3 5 9.95 0.54
19 3 5 2.33 0.24
-19 3 -5 2.28 0.25
21 3 5 0.69 0.15
-21 3 -5 0.76 0.17
23 3 5 3.67 0.32
25 -3 5 4.94 0.51
-27 -3 -5 9.46 0.5
27 -3 5 7.8 0.71
-27 3 -5 8.73 0.48
29 -3 5 4.43 0.6
-29 -3 -5 5.1 0.36
-29 3 -5 4.65 0.34
-31 -3 -5 4.36 0.34
-31 3 -5 3.96 0.33
-33 -3 -5 0.95 0.18
-33 3 -5 1.18 0.18
-35 -3 -5 1.15 0.19
-35 3 -5 1.22 0.2
-37 -3 -5 0.23 0.15
-37 3 -5 0.3 0.16
-39 -3 -5 0.3 0.15
-39 3 -5 0.03 0.14
-41 -3 -5 0.11 0.14
-41 3 -5 -0.02 0.15
-43 -3 -5 0.21 0.14
-43 3 -5 0.36 0.16
-45 3 -5 0.24 0.15
-47 3 -5 -0.05 0.12
-47 -5 5 0.52 0.14
-47 5 5 0.53 0.14
-45 -5 5 1.19 0.18
-45 5 5 0.92 0.18
-43 -5 5 0.5 0.17
-43 5 5 0.71 0.18
-41 -5 5 0.06 0.16
-41 5 5 0.25 0.16
-39 -5 5 -0.33 0.15
-39 5 5 -0.04 0.16
-37 -5 5 0.17 0.16
-37 5 5 -0.02 0.15
-35 -5 5 1.58 0.24
-35 5 5 1.55 0.23
-33 -5 5 1.53 0.21
-33 5 5 0.86 0.18
31 -5 -5 4.83 0.58
-31 -5 5 4.74 0.38
-31 5 5 5.21 0.39
-29 -5 5 6.99 0.43
29 -5 -5 5.55 0.59
-29 5 5 6.64 0.43
-27 -5 5 15.91 0.8
27 -5 -5 14.54 0.96
-27 5 5 16.49 0.81
25 -5 -5 11.85 0.77
-25 5 5 11.72 0.64
25 5 -5 11.61 0.69
23 -5 -5 5.36 0.46
23 5 -5 5.51 0.41
21 -5 -5 1.3 0.24
21 5 -5 1.57 0.22
19 -5 -5 5.14 0.41
19 5 -5 5.68 0.37
17 -5 -5 21.07 1.07
17 5 -5 21.72 1.03
15 -5 -5 28.32 1.36
15 5 -5 28.72 1.4
15 5 -5 28.71 1.32
13 -5 -5 21.84 1.02
13 5 -5 20.53 0.98
13 5 -5 21.22 1.05
-13 5 5 21.15 1.01
11 -5 -5 71.85 2.97
11 5 -5 65.64 2.92
11 5 -5 65.97 2.99
-11 5 5 65.15 2.97
-9 -5 5 63.28 2.57
-9 5 5 66 2.82
9 5 -5 63.39 2.83
9 5 -5 63.21 2.78
-7 -5 5 104.62 4.2
7 5 -5 105.79 4.57
-5 -5 5 12.15 0.53
-3 -5 5 7 0.34
-3 -5 5 7.37 0.38
-1 -5 5 43.35 1.77
-1 5 5 43.02 1.76
1 5 5 41.15 1.68
5 -5 5 13.18 0.58
5 5 5 11.18 0.52
7 -5 5 116.89 4.57
7 5 5 103.97 4.5
-7 5 -5 117.89 4.93
9 -5 5 69.69 2.73
9 5 5 63.72 2.66
9 5 5 63.53 2.86
-9 5 -5 67.08 2.92
11 -5 5 68.64 2.81
11 5 5 65.78 2.95
-11 5 -5 69.57 3.01
11 5 5 67.05 2.74
13 -5 5 23.17 1.02
13 5 5 21.02 1.02
13 5 5 22.89 0.94
-13 5 -5 21.35 1.05
15 -5 5 27.59 1.24
-15 5 -5 27.52 1.3
15 5 5 27.21 1.27
17 5 5 20.46 1.02
-17 5 -5 21.97 1.05
19 5 5 5.27 0.37
-19 5 -5 5.49 0.39
-21 5 -5 1.2 0.19
21 5 5 1.49 0.21
23 5 5 5.68 0.41
-23 5 -5 5.21 0.42
25 -5 5 10.84 0.77
25 5 5 10.3 0.64
-27 -5 -5 16.15 0.8
27 -5 5 13.92 1
-27 5 -5 16.91 0.8
29 -5 5 6.16 0.66
-29 -5 -5 6.69 0.44
-29 5 -5 7 0.42
-31 -5 -5 5.65 0.4
31 -5 5 4.72 0.63
-31 5 -5 5.79 0.39
-33 -5 -5 1.25 0.19
-33 5 -5 1.21 0.19
-35 -5 -5 1.71 0.22
-35 5 -5 1.52 0.21
-37 -5 -5 0.02 0.14
-37 5 -5 0.35 0.16
-39 -5 -5 0.02 0.14
-39 5 -5 0.07 0.14
-41 -5 -5 0.18 0.14
-41 5 -5 0.36 0.16
-43 5 -5 0.6 0.17
-45 5 -5 1.21 0.19
-47 5 -5 0.44 0.14
-47 -7 5 1.26 0.17
-47 7 5 0.97 0.17
-45 -7 5 3.08 0.3
-45 7 5 1.89 0.23
-43 -7 5 0.9 0.19
-43 7 5 1.09 0.2
-41 -7 5 0.21 0.17
-41 7 5 0.55 0.18
-39 7 5 -0.24 0.15
-37 -7 5 0.07 0.15
-37 7 5 -0.1 0.15
-35 -7 5 1.72 0.27
-35 7 5 3.25 0.34
-33 -7 5 2.02 0.24
-33 7 5 2 0.24
-31 -7 5 8.1 0.53
-31 7 5 8.94 0.53
-29 -7 5 13.22 0.68
-29 7 5 12.18 0.68
27 -7 -5 24.42 1.44
-27 -7 5 28.68 1.3
-27 7 5 27.84 1.3
27 7 -5 27.43 1.38
-25 -7 5 22.12 1.04
25 -7 -5 18.67 1.15
25 7 -5 23.32 1.14
-25 7 5 22.36 1.04
23 -7 -5 10.58 0.71
23 7 -5 12.64 0.69
21 -7 -5 4.89 0.41
21 7 -5 6.06 0.41
19 -7 -5 1.1 0.2
19 7 -5 1.1 0.18
17 -7 -5 23.06 1.15
17 7 -5 24.06 1.12
15 -7 -5 22.9 1.09
15 7 -5 22.93 1.07
-15 7 5 21.97 1.09
13 -7 -5 46.63 2
13 7 -5 41.86 1.96
-13 7 5 44.02 2
-11 -7 5 60.34 2.38
-11 7 5 58.92 2.62
11 7 -5 60.78 2.65
11 7 -5 55.84 2.58
-9 -7 5 77.89 3.04
9 7 -5 76.17 3.33
-9 7 5 73.42 3.32
9 7 -5 74.73 3.28
-7 7 5 70.77 3.1
-5 -7 5 112.51 4.43
-5 7 5 108.59 4.8
-3 -7 5 30.41 1.35
-1 -7 5 51.88 2.04
-1 -7 5 41.31 1.91
1 -7 5 48.28 1.97
1 7 5 47.17 1.94
3 -7 5 32.73 1.33
3 7 5 29.62 1.29
-5 7 -5 112.58 4.64
5 7 5 100.45 4.26
7 -7 5 151.95 6
7 7 5 142.16 5.93
-7 7 -5 152.67 6.48
9 -7 5 78.12 3.07
9 7 5 70.54 2.98
-9 7 -5 78.66 3.29
9 7 5 70.81 3.21
11 -7 5 59.91 2.54
-11 7 -5 62.55 2.7
11 7 5 64.03 2.45
11 7 5 55.75 2.64
13 -7 5 45.27 1.89
-13 7 -5 43.68 1.99
13 7 5 42.59 1.95
15 -7 5 21.96 1.05
-15 7 -5 22.45 1.08
15 7 5 22.47 1.06
17 7 5 22.31 1.08
-17 7 -5 22.5 1.11
19 7 5 1.06 0.18
-19 7 -5 1.16 0.19
21 7 5 5.64 0.41
-21 7 -5 5.64 0.42
23 -7 5 11.33 0.76
23 7 5 11.69 0.69
-23 7 -5 11.82 0.7
25 -7 5 20.59 0.97
25 -7 5 19.63 1.15
25 7 5 19.65 1.05
-25 7 -5 18.95 1.07
-27 -7 -5 26.7 1.23
27 -7 5 24.48 1.43
-27 7 -5 26.61 1.22
27 7 5 25.62 1.33
-29 -7 -5 11.56 0.63
29 -7 5 10.18 0.82
-29 7 -5 12.56 0.63
-31 -7 -5 8.81 0.52
31 -7 5 8.04 0.75
-31 7 -5 8.22 0.5
-33 -7 -5 2.55 0.28
-33 7 -5 2.23 0.24
-35 -7 -5 3 0.34
-35 7 -5 3.53 0.34
-37 -7 -5 -0.03 0.13
-37 7 -5 0.11 0.15
-39 7 -5 -0.03 0.14
-41 7 -5 0.55 0.17
-43 7 -5 1.36 0.21
-45 7 -5 2.02 0.22
-47 7 -5 1.07 0.17
-47 9 5 1.29 0.18
-45 -9 5 3.31 0.33
-45 9 5 3.28 0.33
-43 -9 5 1.26 0.2
-43 9 5 1.45 0.21
-41 -9 5 0.48 0.18
-41 9 5 0.84 0.2
-39 9 5 -0.15 0.15
-37 -9 5 -0.16 0.13
-37 9 5 -0.13 0.15
-35 -9 5 2.03 0.26
-33 -9 5 1.98 0.23
-33 9 5 1.73 0.22
-31 -9 5 7.95 0.51
-31 9 5 7.96 0.5
-29 -9 5 11.54 0.63
29 9 -5 11.97 0.76
-29 9 5 10.72 0.62
-27 -9 5 26.26 1.26
-27 9 5 25.98 1.25
27 9 -5 27.44 1.37
-25 -9 5 17.57 0.87
25 9 -5 17.45 0.97
-25 9 5 18.16 0.88
23 -9 -5 8.42 0.61
23 9 -5 9.78 0.59
21 -9 -5 3.88 0.37
21 9 -5 3.92 0.35
19 -9 -5 4.3 0.37
19 9 -5 4.63 0.36
17 -9 -5 41.14 1.88
17 9 -5 40.05 1.85
-17 9 5 40.68 1.89
-15 9 5 40.7 1.87
-13 9 5 73.91 3.15
13 9 -5 67.51 3.09
11 9 -5 49.6 2.25
-11 9 5 52.77 2.29
-9 -9 5 79.31 3.18
9 9 -5 79.2 3.43
-7 -9 5 75.46 3.02
-7 9 5 74.45 3.28
-3 -9 5 14.52 0.65
-3 9 5 14.63 0.65
-1 -9 5 29.57 1.36
-1 -9 5 32.59 1.31
-1 9 5 31.1 1.36
1 -9 5 32.99 1.4
3 -9 5 14.69 0.67
3 9 5 13.81 0.62
5 -9 5 67.84 2.65
5 9 5 60.43 2.59
-7 9 -5 75.9 3.09
7 9 5 64.93 2.83
9 -9 5 83.42 3.29
9 9 5 79.84 3.19
9 9 5 75.92 3.43
11 -9 5 53.1 2.14
11 9 5 49.38 2.19
-11 9 -5 47.68 2.24
13 -9 5 72.96 2.94
13 9 5 65.73 3.05
-13 9 -5 71.19 3.12
15 9 5 39.65 1.83
-15 9 -5 41.33 1.87
-17 9 -5 38.81 1.84
17 9 5 40.21 1.81
-19 9 -5 3.9 0.33
19 9 5 3.63 0.32
21 -9 5 3.65 0.37
21 9 5 3.6 0.33
-21 9 -5 3.74 0.35
23 -9 5 9.82 0.68
-23 9 -5 9.64 0.61
23 9 5 8.99 0.6
25 -9 5 15.24 0.96
25 -9 5 16.02 0.8
25 9 5 15.51 0.89
27 -9 5 24.7 1.14
27 -9 5 21.8 1.3
27 9 5 22.79 1.23
29 -9 5 9.79 0.76
29 9 5 10.06 0.71
-29 9 -5 10.89 0.57
-31 9 -5 7.76 0.47
-33 9 -5 2.18 0.23
-35 9 -5 3.96 0.36
-37 9 -5 0.1 0.14
-39 9 -5 -0.09 0.14
-41 9 -5 0.88 0.18
-43 9 -5 1.29 0.19
-45 9 -5 3.08 0.32
-45 11 5 1.82 0.21
-43 -11 5 1.34 0.2
-43 11 5 1.26 0.2
-41 -11 5 0.61 0.17
-41 11 5 0.39 0.17
-39 -11 5 -0.19 0.14
-39 11 5 -0.13 0.14
-37 -11 5 0.08 0.14
-37 11 5 -0.25 0.15
-35 -11 5 2.32 0.26
-35 11 5 3.69 0.35
-33 -11 5 1.96 0.23
-33 11 5 1.73 0.22
-31 -11 5 7.9 0.49
-31 11 5 7.65 0.49
-29 -11 5 10.1 0.56
29 11 -5 9.47 0.69
-29 11 5 9.41 0.55
-27 -11 5 30.38 1.43
27 11 -5 31.02 1.55
-27 11 5 29.91 1.43
-25 -11 5 18.3 0.91
-25 11 5 19.31 0.91
25 11 -5 17.88 1.01
23 11 -5 18.6 0.99
21 11 -5 8.61 0.55
19 11 -5 0.23 0.13
-19 11 5 0.2 0.14
17 11 -5 10.47 0.57
-17 11 5 9.36 0.57
15 11 -5 14.72 0.73
-15 11 5 14.02 0.74
13 11 -5 31.57 1.45
-13 11 5 31.88 1.47
-11 11 5 27.71 1.26
11 11 -5 26.66 1.24
-9 -11 5 50.49 2.03
9 11 -5 47.76 2.18
-9 11 5 51.74 2.22
-7 11 5 59.36 2.61
-5 -11 5 66.66 2.7
-5 11 5 66.12 2.89
-3 -11 5 46.91 1.89
-3 11 5 45.15 1.98
-3 11 5 44.74 1.99
-1 -11 5 28.83 1.19
-1 11 5 27.1 1.19
-1 11 5 26.7 1.19
1 -11 5 28.69 1.18
1 11 5 25.81 1.18
3 -11 5 48.54 1.97
3 -11 5 46.8 1.93
3 11 5 44.56 1.88
3 11 5 43.52 2.01
5 -11 5 66.94 2.71
5 11 5 63.84 2.65
-7 11 -5 57.71 2.45
7 11 5 53.51 2.25
9 11 5 46.92 2.14
-9 11 -5 51.98 2.21
11 -11 5 26.45 1.23
-11 11 -5 28.34 1.26
11 11 5 26.39 1.22
13 -11 5 33.09 1.43
-13 11 -5 32.27 1.46
13 11 5 28.83 1.41
15 11 5 13.9 0.7
-15 11 -5 13.76 0.72
17 -11 5 9.44 0.57
-17 11 -5 8.79 0.54
17 11 5 8.58 0.52
19 -11 5 0.31 0.17
19 11 5 0.24 0.13
-19 11 -5 0.22 0.14
21 -11 5 7.02 0.53
-21 11 -5 7.44 0.51
21 11 5 7.7 0.5
23 -11 5 15.85 0.95
23 11 5 16.62 0.91
-23 11 -5 17.02 0.93
25 -11 5 17.04 0.84
25 -11 5 15.27 0.96
25 11 5 16.75 0.94
-25 11 -5 16.64 0.95
27 -11 5 25.33 1.44
27 -11 5 28.92 1.3
-27 11 -5 26.29 1.43
27 11 5 26.47 1.4
29 -11 5 7.74 0.67
-29 11 -5 9.3 0.5
29 11 5 8.98 0.66
-31 11 -5 7.54 0.47
-33 11 -5 1.56 0.19
-35 11 -5 3.97 0.36
-37 11 -5 0.03 0.14
-39 11 -5 -0.13 0.14
-41 11 -5 0.58 0.17
-43 11 -5 1.13 0.18
-45 11 -5 2.9 0.32
-45 -13 5 1.76 0.2
-45 13 5 1.66 0.2
-43 -13 5 0.85 0.18
-43 13 5 0.48 0.17
-41 -13 5 0.86 0.18
-41 13 5 0.44 0.18
-39 -13 5 0.09 0.15
-39 13 5 -0.15 0.15
-37 -13 5 -0.03 0.15
-37 13 5 -0.13 0.15
-35 -13 5 1.57 0.21
-35 13 5 1.83 0.24
-33 -13 5 1.05 0.19
-33 13 5 1.06 0.19
-31 -13 5 3.8 0.33
31 13 -5 3.41 0.43
-31 13 5 3.29 0.33
-29 -13 5 4.24 0.37
29 13 -5 5.02 0.5
-29 13 5 4.97 0.36
-27 -13 5 16.33 0.82
-27 13 5 14.89 0.8
27 13 -5 17.45 0.96
-25 -13 5 6.73 0.41
25 13 -5 6.81 0.52
-25 13 5 6.26 0.39
-23 -13 5 9.04 0.49
-23 13 5 8.64 0.48
23 13 -5 8.33 0.58
21 13 -5 0.54 0.17
-19 13 5 2.02 0.26
19 13 -5 2.63 0.28
-17 13 5 22.21 1.09
17 13 -5 21.43 1.06
15 13 -5 29.09 1.35
-15 13 5 29.09 1.37
13 13 -5 40.37 1.85
-13 13 5 41.83 1.88
-11 13 5 32.72 1.49
11 13 -5 32.39 1.47
-9 13 5 72.75 3.2
-7 -13 5 41.53 1.76
-7 13 5 43.94 1.89
-5 -13 5 21.86 0.93
-5 13 5 21.05 0.95
-3 -13 5 25.12 1.09
-3 13 5 24.79 1.1
-3 13 5 25.39 1.1
-1 -13 5 7.79 0.41
1 -13 5 8.22 0.43
1 13 5 7.71 0.35
3 -13 5 24.99 1.11
3 13 5 24.71 1.1
5 -13 5 20.59 0.97
5 13 5 21.17 0.9
7 -13 5 42.29 1.84
7 -13 5 43.62 1.83
7 13 5 40.76 1.74
-7 13 -5 42.95 1.88
9 -13 5 72.61 2.9
9 -13 5 70.71 2.99
9 13 5 62.72 2.96
-9 13 -5 69.89 3.04
11 -13 5 31.66 1.44
11 -13 5 32.74 1.44
-11 13 -5 32.5 1.47
11 13 5 30.72 1.42
13 -13 5 42.11 1.8
-13 13 -5 40.15 1.82
13 13 5 36.95 1.77
15 -13 5 29.97 1.35
-15 13 -5 29.3 1.36
15 13 5 26.44 1.31
17 -13 5 20.82 1.03
17 13 5 20.6 1
-17 13 -5 19.84 1.03
19 -13 5 2.23 0.27
19 13 5 1.93 0.24
-19 13 -5 1.4 0.22
21 -13 5 0.17 0.16
-21 13 -5 0.15 0.15
21 13 5 0.29 0.15
23 -13 5 8.06 0.56
23 -13 5 8.05 0.46
-23 13 -5 7.71 0.56
23 13 5 7.82 0.56
25 -13 5 5.09 0.47
25 -13 5 6.03 0.4
-25 13 -5 6.46 0.51
25 13 5 5.72 0.49
27 -13 5 12.91 0.85
27 -13 5 15.76 0.77
-27 13 -5 13.75 0.88
27 13 5 13.78 0.88
29 -13 5 5.66 0.41
29 13 5 3.73 0.45
-31 13 -5 3.12 0.3
31 13 5 3.06 0.42
-33 13 -5 1.06 0.17
-35 13 -5 1.87 0.23
-37 13 -5 -0.13 0.14
-39 13 -5 -0.17 0.14
-41 13 -5 0.31 0.16
-43 13 -5 0.46 0.15
-45 13 -5 1.29 0.18
-45 15 5 0.78 0.16
-43 -15 5 0.25 0.15
-43 15 5 -0.01 0.14
-41 -15 5 0.33 0.16
-41 15 5 0.36 0.16
-39 -15 5 0.03 0.15
-39 15 5 -0.14 0.15
-37 -15 5 -0.21 0.15
-37 15 5 -0.14 0.15
-35 -15 5 1.26 0.21
-35 15 5 1.04 0.2
-33 -15 5 0.75 0.19
-33 15 5 0.92 0.19
-31 -15 5 1.43 0.21
-31 15 5 1.49 0.19
31 15 -5 1.75 0.32
-29 -15 5 2.99 0.32
29 15 -5 2.55 0.38
-29 15 5 3.02 0.29
-27 -15 5 10.41 0.57
27 15 -5 10.41 0.71
-27 15 5 9.36 0.55
-25 -15 5 2.63 0.26
-25 15 5 2.38 0.25
25 15 -5 2.51 0.33
-23 -15 5 7.26 0.41
23 15 -5 6.69 0.5
-23 15 5 6.04 0.38
21 15 -5 0.21 0.14
-19 15 5 0.02 0.13
19 15 -5 0.14 0.12
-17 15 5 9.4 0.57
17 15 -5 10.03 0.56
-15 15 5 13.72 0.73
15 15 -5 14.27 0.72
-13 15 5 30.08 1.39
13 15 -5 29.43 1.37
-11 15 5 14.34 0.73
11 15 -5 15.31 0.72
-9 15 5 40.31 1.8
-7 15 5 21.81 0.99
-5 -15 5 27.11 1.2
-5 15 5 27.87 1.24
-5 15 5 29.01 1.25
-3 -15 5 26.58 1.16
-1 -15 5 8.32 0.45
1 -15 5 8.78 0.48
3 -15 5 26.53 1.19
3 15 5 26.35 1.17
5 -15 5 28.3 1.3
5 15 5 29.86 1.23
7 -15 5 21.92 1.03
-7 15 -5 21.72 1
9 -15 5 40.12 1.78
-9 15 -5 40.77 1.82
11 -15 5 14.98 0.67
11 15 5 13.72 0.68
-11 15 -5 14.52 0.73
13 -15 5 28.15 1.3
13 15 5 27.88 1.31
-13 15 -5 30.16 1.36
15 -15 5 13.53 0.66
-15 15 -5 12.72 0.7
15 15 5 12.54 0.66
17 -15 5 10.32 0.55
17 15 5 8.94 0.55
-17 15 -5 10.1 0.59
19 -15 5 0.17 0.13
19 15 5 0.12 0.13
-19 15 -5 -0.07 0.12
21 -15 5 -0.05 0.12
21 -15 5 0.27 0.12
-21 15 -5 0.13 0.14
21 15 5 0 0.12
23 -15 5 6.39 0.4
23 -15 5 5.44 0.43
-23 15 -5 5.82 0.49
23 15 5 5.2 0.46
25 -15 5 2.87 0.28
25 -15 5 2.2 0.3
25 15 5 1.96 0.31
-25 15 -5 1.67 0.28
27 -15 5 7.51 0.59
27 -15 5 8.85 0.52
-27 15 -5 8.31 0.64
27 15 5 8.56 0.65
29 -15 5 2.57 0.27
-29 15 -5 2.57 0.38
29 15 5 2.31 0.37
-31 15 -5 1.48 0.19
31 15 5 2.09 0.36
-33 15 -5 0.64 0.16
-35 15 -5 1.35 0.2
-37 15 -5 -0.02 0.14
-39 15 -5 -0.08 0.14
-41 15 -5 0.39 0.16
-43 15 -5 0.25 0.14
-45 15 -5 0.65 0.15
-43 17 5 -0.15 0.13
-41 -17 5 0.25 0.16
-41 17 5 -0.13 0.14
-39 -17 5 0.03 0.16
-39 17 5 -0.06 0.15
-37 -17 5 0.03 0.15
-37 17 5 -0.14 0.15
-35 -17 5 0.26 0.16
-35 17 5 -0.07 0.15
-33 -17 5 0.28 0.16
33 17 -5 0.19 0.23
-33 17 5 0.13 0.15
-31 -17 5 -0.07 0.13
-31 17 5 -0.09 0.12
31 17 -5 0.1 0.21
-29 -17 5 0.46 0.15
29 17 -5 0.74 0.26
-29 17 5 0.43 0.13
-27 -17 5 1.78 0.21
-27 17 5 1.27 0.18
27 17 -5 1.54 0.3
-25 -17 5 -0.1 0.11
25 17 -5 -0.03 0.16
-25 17 5 -0.05 0.1
-23 -17 5 0.74 0.15
23 -17 -5 0.07 0.16
-23 17 5 0.49 0.12
23 17 -5 0.43 0.19
21 -17 -5 1.41 0.19
-21 -17 5 0.84 0.15
21 17 -5 1.27 0.22
19 17 -5 2.92 0.29
-19 17 5 2.09 0.28
17 17 -5 17.76 0.88
-17 17 5 16.76 0.9
15 17 -5 10.45 0.57
-15 17 5 10.44 0.58
-13 17 5 21.96 1.03
13 17 -5 20.42 1.01
-11 17 5 9.56 0.51
-9 17 5 39.68 1.78
-7 17 5 22.85 1.03
-5 -17 5 20.9 0.93
-5 17 5 20.71 0.93
-3 -17 5 9.03 0.47
-1 -17 5 2.39 0.22
1 -17 5 2.49 0.24
3 -17 5 10.19 0.55
5 -17 5 21.36 1.01
5 17 5 21.25 0.93
-9 17 -5 40.77 1.84
-11 17 -5 9.32 0.51
-13 17 -5 21.13 0.99
13 17 5 18.71 0.93
15 17 5 9.86 0.53
-15 17 -5 9.33 0.56
17 -17 5 17.25 0.81
17 17 5 15.99 0.85
-17 17 -5 17.04 0.89
19 -17 5 2.07 0.22
19 17 5 2.13 0.26
-19 17 -5 2.05 0.27
21 -17 5 1.01 0.17
21 -17 5 1.49 0.17
-21 17 -5 0.99 0.22
21 17 5 1.16 0.22
23 -17 5 0.86 0.16
23 -17 5 0.56 0.16
-23 17 -5 0.43 0.2
23 17 5 0.31 0.18
25 -17 5 0.06 0.14
25 -17 5 0.09 0.13
25 17 5 -0.11 0.16
-25 17 -5 -0.22 0.15
27 -17 5 1.43 0.2
27 17 5 1.46 0.3
-27 17 -5 1.31 0.3
29 -17 5 0.57 0.18
-29 17 -5 0.55 0.24
29 17 5 0.42 0.25
31 17 5 0.1 0.21
-31 17 -5 -0.14 0.12
-33 17 -5 0.3 0.14
-35 17 -5 0.13 0.14
-37 17 -5 -0.15 0.14
-39 17 -5 0.09 0.15
-41 17 -5 -0.01 0.13
-43 17 -5 0.07 0.13
-43 19 5 0.02 0.13
-41 19 5 0.11 0.14
-39 19 5 0.2 0.16
-37 -19 5 -0.28 0.14
-37 19 5 -0.07 0.15
-35 -19 5 -0.04 0.14
-35 19 5 -0.03 0.15
-33 -19 5 0 0.14
-33 19 5 -0.17 0.13
-31 -19 5 -0.09 0.13
31 19 -5 0.18 0.23
-31 19 5 -0.07 0.13
-29 -19 5 0.02 0.13
29 19 -5 -0.06 0.2
-29 19 5 0 0.11
-27 -19 5 0.04 0.13
27 19 -5 0.03 0.19
-27 19 5 0.17 0.12
-25 -19 5 0.13 0.12
25 19 -5 0.32 0.19
-25 19 5 0.13 0.11
23 -19 -5 -0.25 0.15
-23 -19 5 -0.11 0.1
23 19 -5 0.11 0.17
-21 -19 5 0.23 0.12
21 -19 -5 -0.05 0.13
21 19 -5 0.48 0.18
-19 19 5 -0.31 0.13
19 19 -5 -0.02 0.12
-17 19 5 1.92 0.25
17 19 -5 2.59 0.27
15 19 -5 0.25 0.12
-15 19 5 0.25 0.11
-13 19 5 2.04 0.22
-11 19 5 0.3 0.1
-9 19 5 3.82 0.25
-7 19 5 0.81 0.09
-5 19 5 4.86 0.25
1 19 5 1.14 0.08
-9 19 -5 3.67 0.26
-11 19 -5 0.36 0.12
13 19 5 2.1 0.2
-13 19 -5 1.74 0.21
15 19 5 0.04 0.1
-15 19 -5 0.03 0.11
17 19 5 1.96 0.24
-17 19 -5 2.24 0.27
19 -19 5 0.56 0.15
19 19 5 0.03 0.12
-19 19 -5 -0.03 0.14
21 -19 5 0.33 0.13
-21 19 -5 0.28 0.18
21 19 5 0.36 0.17
23 -19 5 0.17 0.14
23 19 5 0.01 0.16
-23 19 -5 -0.36 0.14
25 -19 5 0.25 0.15
25 19 5 0.3 0.2
-25 19 -5 0.02 0.18
27 -19 5 0.17 0.16
27 19 5 0.21 0.21
-27 19 -5 0.31 0.23
29 -19 5 0.11 0.17
29 19 5 -0.11 0.2
31 19 5 -0.05 0.21
-31 19 -5 -0.18 0.12
-33 19 -5 -0.05 0.14
-35 19 -5 -0.09 0.13
-37 19 -5 -0.13 0.14
-39 19 -5 0.25 0.15
-41 19 -5 0.11 0.14
-43 19 -5 -0.08 0.12
-41 21 5 0.04 0.13
-39 21 5 -0.03 0.14
-37 21 5 -0.05 0.15
-35 21 5 0.01 0.15
-33 -21 5 0.24 0.16
-33 21 5 0.34 0.16
-31 -21 5 1.28 0.2
-31 21 5 0.98 0.19
31 21 -5 1.1 0.3
-29 -21 5 1.62 0.21
-29 21 5 1.26 0.18
29 21 -5 1.92 0.35
-27 -21 5 0.55 0.15
-27 21 5 0.51 0.14
27 21 -5 0.73 0.25
-25 -21 5 3.28 0.32
-25 21 5 3.26 0.29
25 21 -5 4.25 0.45
-23 -21 5 0.98 0.16
23 -21 -5 0.61 0.17
23 21 -5 1.8 0.28
-21 -21 5 2.92 0.28
21 -21 -5 2.85 0.3
21 21 -5 3.39 0.36
-19 -21 5 0.12 0.12
19 -21 -5 0.09 0.14
19 21 -5 0.4 0.15
-19 21 5 -0.05 0.15
-17 21 5 1.1 0.21
17 21 -5 1.2 0.19
-15 21 5 0.12 0.11
15 21 -5 0.27 0.12
-13 21 5 0.35 0.11
-11 21 5 7.15 0.41
-9 21 5 3.55 0.24
-7 21 5 4.91 0.27
-5 21 5 1.46 0.11
-3 21 5 0.62 0.06
-7 21 -5 5.66 0.32
-9 21 -5 3.48 0.26
-11 21 -5 7.4 0.45
-13 21 -5 0.33 0.12
15 21 5 0.09 0.11
-15 21 -5 0.07 0.12
17 -21 5 1.45 0.2
-17 21 -5 0.86 0.2
17 21 5 1.05 0.19
19 -21 5 0.32 0.15
19 21 5 0.29 0.15
-19 21 -5 0.08 0.16
21 -21 5 3.51 0.32
21 21 5 2.67 0.33
-21 21 -5 2.79 0.35
23 -21 5 0.69 0.15
-23 21 -5 0.7 0.22
23 21 5 1.03 0.25
25 -21 5 3.23 0.33
-25 21 -5 2.7 0.37
25 21 5 2.69 0.37
27 -21 5 0.34 0.17
27 21 5 0.43 0.24
-27 21 -5 0.44 0.25
29 -21 5 1.14 0.22
29 21 5 1.29 0.32
31 -21 5 0.79 0.22
-31 21 -5 0.83 0.17
31 21 5 1.04 0.3
-33 21 -5 0.09 0.16
-35 21 -5 0.01 0.15
-37 21 -5 -0.13 0.14
-39 21 -5 0.06 0.14
-41 21 -5 0.01 0.14
-43 21 -5 0.12 0.13
-41 23 5 0.18 0.14
-39 23 5 0.34 0.15
-37 23 5 0.11 0.15
-35 23 5 0.31 0.16
-33 23 5 1.31 0.21
-31 23 5 1.86 0.24
-29 23 5 3.5 0.34
29 23 -5 3.13 0.44
-27 -23 5 1.02 0.18
-27 23 5 1.16 0.18
27 23 -5 0.98 0.27
-25 -23 5 2.85 0.29
25 23 -5 2.78 0.37
-25 23 5 3.17 0.29
23 -23 -5 0.65 0.18
-23 -23 5 0.85 0.16
23 23 -5 1.57 0.28
21 -23 -5 0.96 0.18
-21 -23 5 0.85 0.15
21 23 -5 1.34 0.24
-19 -23 5 -0.23 0.1
19 -23 -5 -0.06 0.13
19 23 -5 0.06 0.14
-17 -23 5 0.56 0.14
-17 23 5 0.33 0.16
17 23 -5 0.43 0.16
-15 -23 5 5.78 0.36
-15 23 5 5.57 0.4
-13 23 5 7.68 0.46
-11 23 5 16.1 0.8
-9 23 5 8.43 0.45
-7 23 5 10.74 0.53
-5 23 5 5.01 0.26
-3 23 5 3.54 0.19
-7 23 -5 11.8 0.59
-9 23 -5 9.44 0.52
-11 23 -5 17.15 0.87
13 -23 5 8.17 0.5
-13 23 -5 8.27 0.51
15 -23 5 5.71 0.41
-15 23 -5 5.73 0.42
17 -23 5 0.59 0.16
17 23 5 0.44 0.15
-17 23 -5 0.58 0.18
19 -23 5 0.17 0.14
-19 23 -5 -0.04 0.15
19 23 5 -0.1 0.13
21 -23 5 0.9 0.17
21 23 5 0.9 0.22
-21 23 -5 0.87 0.24
23 -23 5 0.74 0.18
-23 23 -5 0.92 0.25
23 23 5 1.02 0.25
25 -23 5 2.29 0.26
25 23 5 2.77 0.38
-25 23 -5 2.03 0.34
27 -23 5 0.82 0.2
27 23 5 1.13 0.3
29 -23 5 2.72 0.3
29 23 5 3.12 0.45
-31 23 -5 1.49 0.21
-33 23 -5 0.97 0.2
-35 23 -5 0.13 0.15
-37 23 -5 -0.11 0.15
-39 23 -5 0.15 0.14
-41 23 -5 -0.03 0.14
-39 25 5 0.32 0.14
-37 25 5 0.11 0.14
-35 25 5 0.36 0.16
-33 25 5 1.85 0.23
-31 25 5 3.45 0.37
-29 25 5 6.68 0.46
-27 25 5 4.51 0.37
27 25 -5 5.19 0.54
25 25 -5 6.61 0.6
-25 25 5 7.4 0.46
23 -25 -5 2.18 0.25
23 25 -5 2.53 0.35
21 25 -5 2.96 0.34
19 25 -5 0.3 0.16
17 25 -5 -0.02 0.13
-13 25 5 5.85 0.4
-11 25 5 15.91 0.8
-9 25 5 14.13 0.7
-7 25 5 19.35 0.9
-7 25 -5 19.97 0.95
9 -25 5 15.74 0.8
-9 25 -5 15.27 0.79
11 -25 5 16.84 0.83
-11 25 -5 15.73 0.84
13 -25 5 5.77 0.4
-13 25 -5 5.42 0.4
15 -25 5 2.14 0.25
-15 25 -5 2.04 0.26
17 -25 5 -0.33 0.13
-17 25 -5 -0.15 0.12
17 25 5 -0.07 0.11
19 -25 5 0.06 0.14
-19 25 -5 0.31 0.17
19 25 5 0.17 0.15
21 -25 5 3.12 0.33
-21 25 -5 2.67 0.36
21 25 5 3.27 0.38
23 -25 5 1.97 0.24
23 25 5 2.46 0.34
-23 25 -5 2.72 0.38
25 -25 5 7.78 0.53
25 25 5 6.23 0.61
27 -25 5 4.38 0.44
27 25 5 3.64 0.48
29 -25 5 5.34 0.46
-31 25 -5 3.36 0.36
-33 25 -5 1.94 0.25
-35 25 -5 0.17 0.15
-37 25 -5 -0.14 0.14
-39 25 -5 0.07 0.13
-41 25 -5 0.17 0.14
-37 27 5 -0.06 0.13
-35 27 5 0.23 0.15
-33 27 5 1.47 0.21
-31 27 5 1.88 0.23
-29 27 5 5.76 0.44
-27 27 5 3 0.32
-25 27 5 4.51 0.38
25 27 -5 3.93 0.47
23 27 -5 1.28 0.28
21 27 -5 0.74 0.21
19 27 -5 0.17 0.16
3 -27 5 7.57 0.45
5 -27 5 13.82 0.72
7 -27 5 24.01 1.17
-7 27 -5 24.43 1.15
9 -27 5 23.75 1.15
-9 27 -5 23.49 1.15
11 -27 5 25.89 1.25
-11 27 -5 25.81 1.26
13 -27 5 14.52 0.75
-13 27 -5 12.85 0.75
15 -27 5 8.05 0.51
-15 27 -5 8.11 0.54
17 -27 5 1.12 0.19
17 27 5 1.31 0.23
-17 27 -5 1.31 0.24
19 -27 5 0.18 0.14
19 27 5 0.25 0.17
-19 27 -5 0.34 0.19
21 -27 5 0.45 0.16
-21 27 -5 0.25 0.21
21 27 5 0.5 0.21
23 -27 5 0.86 0.2
23 27 5 1.29 0.28
25 -27 5 4.61 0.41
25 27 5 3.76 0.46
27 -27 5 3.58 0.4
29 -27 5 5.37 0.49
-31 27 -5 2.15 0.24
-33 27 -5 1.52 0.22
-35 27 -5 0.31 0.15
-37 27 -5 -0.07 0.13
-39 27 -5 0.22 0.12
23 29 -5 3.16 0.39
21 29 -5 1.58 0.29
19 29 -5 0.27 0.18
-1 -29 5 0.12 0.11
1 -29 5 0.05 0.11
3 -29 5 4.1 0.32
5 -29 5 5.13 0.37
-5 29 -5 5.24 0.33
7 -29 5 10.84 0.6
-7 29 -5 10.29 0.57
9 -29 5 10.01 0.57
-9 29 -5 9.32 0.54
11 -29 5 8.96 0.53
-11 29 -5 8.24 0.52
13 -29 5 4.92 0.38
-13 29 -5 4.84 0.39
15 -29 5 2.1 0.24
-15 29 -5 2.4 0.29
17 -29 5 0.48 0.17
-17 29 -5 0.45 0.18
19 -29 5 -0.17 0.13
19 29 5 0.08 0.17
21 -29 5 1.34 0.21
21 29 5 1.19 0.26
23 -29 5 3.78 0.4
23 29 5 3.05 0.4
25 -29 5 5.47 0.45
27 -29 5 5.01 0.44
29 -29 5 5.11 0.47
-31 29 -5 2.25 0.25
-33 29 -5 1.29 0.2
-35 29 -5 0.29 0.15
-37 29 -5 0.04 0.13
21 31 -5 1.08 0.25
19 31 -5 0.02 0.18
3 -31 5 3.56 0.31
5 -31 5 4.87 0.37
-5 31 -5 4.05 0.29
7 -31 5 7.24 0.46
-7 31 -5 6.64 0.42
9 -31 5 6.54 0.44
-9 31 -5 6.02 0.41
11 -31 5 6.78 0.45
-11 31 -5 5.74 0.41
13 -31 5 3.17 0.32
-13 31 -5 2.72 0.3
15 -31 5 1.6 0.22
17 -31 5 -0.15 0.14
19 -31 5 0.08 0.16
19 31 5 0.08 0.17
21 -31 5 1 0.21
21 31 5 0.86 0.24
23 -31 5 1.67 0.24
25 -31 5 2.71 0.29
27 -31 5 1.71 0.26
29 -31 5 2.11 0.27
-29 31 -5 1.94 0.24
-31 31 -5 0.88 0.19
-33 31 -5 0.49 0.16
-35 31 -5 0 0.13
7 -33 5 2.18 0.24
9 -33 5 2.18 0.24
-9 33 -5 1.94 0.22
11 -33 5 1.84 0.23
13 -33 5 1.17 0.2
15 -33 5 1.01 0.2
17 -33 5 0.14 0.16
19 -33 5 -0.08 0.15
21 -33 5 0.37 0.19
23 -33 5 1.35 0.22
25 -33 5 1.5 0.23
27 -33 5 1.26 0.22
-29 33 -5 1.32 0.2
-31 33 -5 0.48 0.16
-33 33 -5 0.51 0.16
11 -35 5 3.14 0.35
13 -35 5 1.69 0.23
15 -35 5 1.35 0.21
17 -35 5 0.18 0.16
19 -35 5 -0.05 0.16
21 -35 5 -0.06 0.16
23 -35 5 -0.07 0.16
25 -35 5 -0.04 0.16
27 -35 5 0.09 0.17
-27 35 -5 -0.02 0.14
-29 35 -5 0.26 0.15
-31 35 -5 0.29 0.14
17 -37 5 0.09 0.15
19 -37 5 -0.2 0.15
21 -37 5 -0.32 0.15
23 -37 5 -0.11 0.15
25 -37 5 0.05 0.15
-27 37 -5 -0.19 0.12
-46 0 6 0.04 0.13
-44 0 6 -0.02 0.14
-42 0 6 2.4 0.27
-40 0 6 0.38 0.19
-38 0 6 0.05 0.16
-36 0 6 0.21 0.2
-34 0 6 0.12 0.15
-32 0 6 -0.15 0.14
-30 0 6 0.3 0.13
-28 0 6 0.05 0.13
-26 0 6 11.93 0.63
24 0 -6 0.12 0.18
22 0 -6 43.42 2.1
-20 0 6 0.25 0.13
20 0 -6 0.11 0.17
-18 0 6 141.28 5.52
18 0 -6 132.48 5.9
18 0 -6 137 6.03
-16 0 6 0.82 0.13
16 0 -6 0.54 0.11
16 0 -6 0.65 0.16
14 0 -6 40.73 1.94
-14 0 6 43.44 1.76
14 0 -6 41.96 1.86
12 0 -6 0.5 0.14
12 0 -6 0.42 0.09
-12 0 6 0.59 0.11
-10 0 6 8.96 0.46
10 0 -6 9.17 0.52
10 0 -6 10.7 0.48
8 0 -6 -0.15 0.1
-8 0 6 -0.15 0.08
-6 0 6 469.65 18.63
-4 0 6 -0.16 0.02
0 0 6 -0.22 0.03
2 0 6 200.95 8
-4 0 -6 -0.01 0.06
4 0 6 -0.01 0.07
-6 0 -6 522.52 21.8
6 0 6 486.44 20.01
-8 0 -6 -0.12 0.07
8 0 6 -0.05 0.1
10 0 6 8.05 0.41
-10 0 -6 7.47 0.43
12 0 6 0.56 0.1
12 0 6 0.65 0.12
-12 0 -6 0.62 0.12
-14 0 -6 40.1 1.87
14 0 6 40.36 1.81
14 0 6 41.93 1.74
16 0 6 0.58 0.11
-16 0 -6 0.9 0.15
16 0 6 0.71 0.14
18 0 6 129.07 5.77
-18 0 -6 138.47 5.91
-28 0 -6 -0.08 0.11
-30 0 -6 0.24 0.13
-32 0 -6 -0.02 0.13
-34 0 -6 0.16 0.13
-38 0 -6 0.19 0.15
-40 0 -6 0.29 0.16
-42 0 -6 2.11 0.24
-44 0 -6 0.09 0.14
-46 0 -6 -0.12 0.12
-46 -2 6 -0.04 0.12
-46 2 6 -0.16 0.13
-44 -2 6 1.23 0.2
-44 2 6 1.71 0.22
-42 -2 6 -0.07 0.15
-42 2 6 -0.08 0.15
-40 -2 6 8.24 0.55
-40 2 6 7.71 0.53
-38 -2 6 0.01 0.15
-38 2 6 0.1 0.16
-36 -2 6 25.8 1.28
-36 2 6 25.71 1.28
-34 -2 6 0.17 0.14
-34 2 6 0 0.14
-32 -2 6 28.06 1.34
-32 2 6 27.35 1.34
-30 -2 6 0.04 0.12
-30 2 6 0.08 0.12
-28 -2 6 26.23 1.29
-28 2 6 28.36 1.3
26 -2 -6 0.11 0.2
-26 -2 6 0.08 0.1
-26 2 6 -0.02 0.09
24 -2 -6 0.21 0.19
22 -2 -6 0.01 0.15
22 2 -6 -0.05 0.1
20 -2 -6 71.33 3.32
20 2 -6 72.28 3.22
20 2 -6 69.38 3.33
-20 2 6 78.27 3.02
18 -2 -6 -0.01 0.13
-18 -2 6 0 0.09
18 2 -6 0.06 0.09
-18 2 6 0.07 0.1
18 2 -6 0.16 0.15
16 -2 -6 4.01 0.33
-16 -2 6 4.44 0.27
16 2 -6 4.25 0.35
-16 2 6 4.25 0.27
16 2 -6 4.26 0.28
14 -2 -6 -0.05 0.09
14 -2 -6 0.04 0.06
-14 -2 6 0.03 0.08
14 2 -6 0.06 0.09
14 2 -6 0.02 0.07
12 -2 -6 9.03 0.52
-12 -2 6 8.98 0.45
12 2 -6 9.32 0.53
12 2 -6 9.57 0.47
-10 -2 6 0.05 0.07
10 -2 -6 0.13 0.09
-10 2 6 0.07 0.08
10 2 -6 0.08 0.1
10 2 -6 0.09 0.07
-8 -2 6 13.57 0.65
-8 2 6 13.58 0.65
8 2 -6 16.93 0.69
8 2 -6 14.36 0.72
-6 2 6 0.37 0.09
-4 -2 6 1.72 0.13
-4 2 6 2.37 0.15
-2 -2 6 0.47 0.07
0 2 6 193.91 7.72
2 -2 6 0.49 0.08
-2 2 -6 0.56 0.08
2 2 6 0.53 0.08
4 -2 6 3.23 0.2
4 2 6 3.07 0.19
6 -2 6 0.34 0.1
-6 2 -6 0.44 0.09
6 2 6 0.39 0.09
-8 -2 -6 12.9 0.65
8 -2 6 13.22 0.63
8 2 6 14.85 0.64
-8 2 -6 13.04 0.66
8 2 6 12.96 0.61
-10 -2 -6 0.12 0.07
10 -2 6 0.11 0.1
-10 2 -6 0.16 0.08
10 2 6 0.07 0.07
10 2 6 0.09 0.07
-12 -2 -6 8.02 0.47
12 -2 6 8.61 0.46
-12 2 -6 8.76 0.48
12 2 6 9.42 0.46
12 2 6 8.77 0.44
-14 -2 -6 0.09 0.09
14 -2 6 0.04 0.1
14 2 6 0.09 0.09
14 2 6 0.06 0.07
-14 2 -6 -0.01 0.07
16 -2 6 3.53 0.3
16 2 6 4.13 0.27
16 2 6 4.15 0.29
-16 2 -6 4.47 0.31
-18 2 -6 0.1 0.11
18 2 6 0.08 0.09
-20 2 -6 70.03 3.19
20 2 6 70.61 3.12
22 2 6 -0.01 0.1
-26 2 -6 -0.05 0.09
28 -2 6 23.48 1.53
-28 -2 -6 28.61 1.28
-28 2 -6 27.39 1.27
-30 -2 -6 0.03 0.12
-30 2 -6 -0.18 0.11
-32 -2 -6 28.05 1.35
-32 2 -6 28.18 1.35
-34 -2 -6 0.13 0.14
-34 2 -6 0.07 0.13
-36 -2 -6 26.18 1.3
-36 2 -6 27.15 1.3
-38 -2 -6 0.15 0.15
-38 2 -6 0.17 0.15
-40 -2 -6 8.88 0.55
-40 2 -6 8.42 0.55
-42 -2 -6 0.11 0.14
-42 2 -6 0.08 0.15
-44 -2 -6 1.49 0.2
-44 2 -6 1.5 0.21
-46 2 -6 -0.33 0.12
-46 -4 6 0.16 0.13
-46 4 6 -0.1 0.13
-44 -4 6 -0.05 0.14
-44 4 6 -0.04 0.14
-42 -4 6 1.58 0.22
-42 4 6 1.53 0.22
-40 -4 6 -0.03 0.16
-40 4 6 -0.05 0.16
-38 -4 6 0.07 0.16
-38 4 6 0.24 0.17
-36 -4 6 0.18 0.18
-36 4 6 0.11 0.16
-34 -4 6 -0.22 0.13
-34 4 6 0.02 0.14
-32 -4 6 0.07 0.14
-32 4 6 0.05 0.14
-30 -4 6 0.27 0.14
30 -4 -6 0.67 0.28
-30 4 6 0.24 0.13
-28 -4 6 0.2 0.12
28 -4 -6 -0.2 0.18
-28 4 6 0 0.12
-26 -4 6 4.74 0.33
26 -4 -6 3.75 0.42
-26 4 6 4.63 0.31
24 -4 -6 -0.23 0.12
24 4 -6 -0.01 0.12
22 -4 -6 21.52 1.16
22 4 -6 21.86 1.09
-22 4 6 22.54 1.03
20 -4 -6 0 0.14
20 4 -6 -0.05 0.1
18 -4 -6 70.14 3.12
18 4 -6 67.75 3.04
-16 -4 6 0.1 0.08
16 -4 -6 0.08 0.11
16 4 -6 0.3 0.15
16 4 -6 0.09 0.09
14 -4 -6 20.75 1.04
-14 -4 6 21.08 0.92
14 4 -6 22.65 1.09
14 4 -6 21.35 1.01
-12 -4 6 0.01 0.06
12 -4 -6 0.01 0.08
12 4 -6 -0.05 0.09
12 4 -6 0.07 0.07
-10 -4 6 52.32 2.23
10 4 -6 57.24 2.46
10 4 -6 55.27 2.4
8 4 -6 0.15 0.07
8 4 -6 0.21 0.09
6 4 -6 184.36 7.94
-4 -4 6 0.1 0.05
-2 4 6 2.91 0.19
0 -4 6 -0.18 0.02
0 4 6 -0.06 0.07
4 -4 6 0.09 0.08
-4 4 -6 0.24 0.07
4 4 6 0.11 0.06
6 -4 6 178.91 6.95
-6 4 -6 175.17 7.53
6 4 6 166.24 6.91
8 -4 6 0.14 0.1
8 4 6 0.18 0.07
8 4 6 0.15 0.06
-8 4 -6 0.18 0.07
10 -4 6 56.34 2.37
10 4 6 54.89 2.31
10 4 6 56.84 2.48
-10 4 -6 59 2.54
12 -4 6 0.06 0.09
-12 4 -6 0.02 0.07
12 4 6 0.13 0.07
12 4 6 -0.02 0.06
14 -4 6 20.32 0.99
14 4 6 21.79 0.93
14 4 6 21.36 1.01
-14 4 -6 21.6 1.04
16 -4 6 0.07 0.11
-16 4 -6 0.18 0.1
16 4 6 0.14 0.09
-18 4 -6 69.82 3.15
18 4 6 69.34 3.08
-20 4 -6 0.24 0.13
20 4 6 -0.03 0.1
22 4 6 19.07 0.99
-22 4 -6 20.41 1.04
24 4 6 0.04 0.12
26 -4 6 3.96 0.51
-26 4 -6 4.29 0.29
-28 -4 -6 -0.02 0.11
28 -4 6 0.26 0.24
-28 4 -6 0.01 0.11
30 -4 6 0.22 0.28
-30 -4 -6 0.14 0.12
-30 4 -6 0.12 0.12
-32 -4 -6 0.01 0.13
-32 4 -6 0.22 0.14
-34 -4 -6 -0.06 0.12
-34 4 -6 0.04 0.13
-36 -4 -6 0.38 0.16
-36 4 -6 0.24 0.15
-38 -4 -6 0.12 0.14
-38 4 -6 0.11 0.14
-40 -4 -6 0.16 0.14
-40 4 -6 0.15 0.15
-42 -4 -6 1.37 0.22
-42 4 -6 1.34 0.2
-44 4 -6 -0.16 0.14
-46 4 -6 -0.02 0.13
-46 -6 6 -0.04 0.12
-46 6 6 -0.1 0.13
-44 -6 6 0.19 0.14
-44 6 6 0.17 0.15
-42 -6 6 -0.01 0.15
-42 6 6 -0.11 0.14
-40 -6 6 1.42 0.22
-40 6 6 1.2 0.21
-38 -6 6 -0.12 0.14
-38 6 6 -0.12 0.15
-36 -6 6 6.61 0.5
-36 6 6 7.6 0.5
-34 -6 6 -0.11 0.14
-34 6 6 -0.06 0.13
-32 -6 6 11.86 0.67
-32 6 6 12.19 0.67
-30 -6 6 -0.02 0.13
-30 6 6 -0.18 0.12
-28 -6 6 17.56 0.88
-28 6 6 17.23 0.88
26 -6 -6 0.01 0.18
-26 -6 6 0.1 0.11
26 6 -6 -0.16 0.14
-26 6 6 0.14 0.11
24 -6 -6 6.92 0.53
24 6 -6 7.55 0.51
-24 6 6 6.86 0.47
22 -6 -6 0.06 0.13
22 6 -6 0.01 0.13
20 -6 -6 18.67 1.05
20 6 -6 21.76 1.02
18 -6 -6 0.06 0.13
18 6 -6 -0.04 0.1
16 -6 -6 1.21 0.18
16 6 -6 0.94 0.15
14 -6 -6 -0.11 0.1
14 6 -6 0 0.07
12 6 -6 10.63 0.59
12 6 -6 10.52 0.54
10 6 -6 0.54 0.13
10 6 -6 0.8 0.12
8 6 -6 30.29 1.38
8 6 -6 29.55 1.34
-6 -6 6 -0.03 0.03
-4 -6 6 186.82 8.03
-2 -6 6 0.35 0.09
-2 -6 6 0.44 0.09
-2 6 6 0.39 0.09
0 -6 6 531.59 20.31
0 6 6 491.88 20.29
2 -6 6 0.41 0.11
2 6 6 0.21 0.09
4 6 6 159.15 6.35
6 -6 6 0.66 0.13
6 6 6 0.68 0.09
8 -6 6 31.69 1.32
-8 6 -6 32.47 1.38
8 6 6 28.86 1.25
8 6 6 27.75 1.33
10 -6 6 0.62 0.14
10 6 6 0.65 0.1
10 6 6 0.55 0.09
-10 6 -6 0.5 0.1
12 -6 6 9.56 0.53
12 6 6 9.87 0.45
-12 6 -6 8.85 0.51
12 6 6 10.24 0.5
14 -6 6 0.06 0.12
-14 6 -6 0.06 0.08
14 6 6 0.04 0.07
16 -6 6 0.85 0.17
16 6 6 1.31 0.17
-16 6 -6 0.75 0.15
-18 6 -6 0.1 0.11
18 6 6 0.17 0.11
-20 6 -6 20.29 1.05
20 6 6 20.9 1.03
22 6 6 0.03 0.12
-22 6 -6 -0.06 0.11
24 -6 6 6.84 0.57
-24 6 -6 6.6 0.49
24 6 6 6.66 0.48
26 -6 6 0.27 0.23
26 -6 6 -0.12 0.13
-26 6 -6 -0.03 0.08
26 6 6 -0.12 0.14
-28 -6 -6 18.09 0.87
28 -6 6 16.98 1.1
-28 6 -6 16.85 0.85
-30 -6 -6 -0.02 0.1
30 -6 6 -0.3 0.25
-30 6 -6 -0.19 0.1
-32 -6 -6 11.42 0.62
-32 6 -6 10.77 0.62
-34 -6 -6 -0.03 0.12
-34 6 -6 -0.06 0.12
-36 -6 -6 7.25 0.48
-36 6 -6 7.16 0.49
-38 6 -6 0.06 0.14
-40 6 -6 1.46 0.22
-42 6 -6 -0.16 0.13
-44 6 -6 -0.02 0.15
-46 6 -6 -0.03 0.14
-46 -8 6 0.13 0.13
-46 8 6 0.13 0.14
-44 -8 6 -0.03 0.14
-44 8 6 0.05 0.14
-42 -8 6 -0.02 0.14
-42 8 6 -0.07 0.15
-40 -8 6 -0.07 0.14
-40 8 6 -0.12 0.15
-38 -8 6 -0.07 0.14
-38 8 6 -0.11 0.15
-36 -8 6 -0.12 0.14
-36 8 6 0 0.15
-34 -8 6 -0.27 0.14
-34 8 6 -0.03 0.14
-32 -8 6 -0.14 0.13
-32 8 6 -0.13 0.13
-30 -8 6 -0.01 0.13
-30 8 6 -0.03 0.12
-28 -8 6 0.12 0.13
-28 8 6 -0.06 0.1
28 8 -6 -0.16 0.18
-26 -8 6 0.38 0.14
26 8 -6 -0.12 0.15
-26 8 6 -0.21 0.15
-26 8 6 0 0.11
24 8 -6 -0.14 0.14
22 8 -6 0.28 0.15
20 -8 -6 0.05 0.12
20 8 -6 0.02 0.12
18 8 -6 3.66 0.31
16 8 -6 0.07 0.1
14 8 -6 0.91 0.14
12 8 -6 -0.02 0.07
-12 8 6 0.05 0.07
-10 8 6 14.46 0.74
10 8 -6 16.34 0.74
10 8 -6 15.25 0.81
-8 -8 6 -0.03 0.03
8 8 -6 0.07 0.06
-8 8 6 -0.04 0.02
-4 -8 6 0.14 0.07
-4 -8 6 0.2 0.07
-2 -8 6 13.21 0.64
-2 -8 6 15.27 0.67
0 -8 6 0.05 0.07
0 -8 6 -0.07 0.09
0 8 6 0.01 0.09
2 -8 6 13.95 0.66
2 8 6 14.44 0.64
4 -8 6 -0.01 0.09
4 8 6 0.14 0.07
6 8 6 26.42 1.19
-6 8 -6 30.75 1.3
8 -8 6 -0.02 0.09
8 8 6 0.05 0.05
-8 8 -6 -0.03 0.02
8 8 6 0.02 0.05
10 -8 6 14.57 0.73
10 8 6 14.7 0.69
-10 8 -6 14.19 0.72
10 8 6 15.08 0.64
12 -8 6 -0.06 0.09
12 8 6 0 0.06
-12 8 -6 0.01 0.07
14 -8 6 0.96 0.19
-14 8 -6 1.34 0.17
14 8 6 1.1 0.15
16 -8 6 0 0.13
16 8 6 0.11 0.1
-16 8 -6 0.1 0.1
18 8 6 4.21 0.32
-18 8 -6 3.47 0.32
-20 8 -6 0.01 0.11
20 8 6 0.13 0.12
22 8 6 0.62 0.17
-22 8 -6 0.33 0.16
24 -8 6 0.08 0.18
24 8 6 0.03 0.14
-24 8 -6 0.05 0.14
26 -8 6 0.44 0.15
26 -8 6 -0.03 0.18
26 8 6 0.17 0.16
28 -8 6 0.25 0.26
28 8 6 0.09 0.18
-28 8 -6 0.2 0.11
30 -8 6 0.27 0.26
-30 8 -6 -0.12 0.1
-32 8 -6 0.11 0.12
-34 8 -6 -0.14 0.12
-36 8 -6 -0.1 0.13
-38 8 -6 0.09 0.15
-40 8 -6 -0.19 0.13
-42 8 -6 -0.02 0.14
-44 8 -6 -0.25 0.13
-46 8 -6 -0.02 0.14
-46 -10 6 0.06 0.13
-46 10 6 -0.03 0.13
-44 -10 6 -0.04 0.14
-44 10 6 -0.16 0.13
-42 -10 6 -0.14 0.14
-42 10 6 -0.11 0.15
-40 -10 6 0.1 0.16
-40 10 6 -0.18 0.15
-38 -10 6 -0.19 0.14
-38 10 6 -0.21 0.14
-36 -10 6 -0.09 0.14
-36 10 6 0.03 0.15
-34 -10 6 -0.46 0.14
-34 10 6 -0.18 0.13
-32 -10 6 1.07 0.18
-32 10 6 0.92 0.18
-30 -10 6 -0.32 0.12
-30 10 6 -0.16 0.12
-28 -10 6 5.01 0.37
28 10 -6 5.53 0.51
-28 10 6 4.42 0.34
-26 -10 6 -0.02 0.12
-26 10 6 0.07 0.11
26 10 -6 -0.12 0.16
-24 -10 6 18.35 0.91
24 10 -6 20.08 1.01
-24 10 6 17.88 0.9
22 10 -6 0.27 0.15
20 10 -6 8.94 0.55
18 10 -6 0.16 0.13
16 10 -6 31.65 1.47
-16 10 6 31.74 1.5
14 10 -6 -0.14 0.09
-14 10 6 0.17 0.1
12 10 -6 6.9 0.42
-12 10 6 8.27 0.43
-10 -10 6 -0.03 0.04
-10 10 6 0 0.06
-10 10 6 -0.01 0.04
10 10 -6 0.01 0.07
-8 -10 6 5.42 0.32
-8 10 6 7.98 0.36
-6 -10 6 0.49 0.09
-6 10 6 0.58 0.08
-4 -10 6 57.32 2.35
-2 -10 6 0.13 0.08
0 -10 6 6.22 0.33
0 -10 6 7.71 0.39
2 -10 6 0.09 0.1
2 10 6 0.1 0.08
4 -10 6 58.77 2.38
4 10 6 55.52 2.33
6 -10 6 0.52 0.13
6 10 6 0.56 0.09
-6 10 -6 0.66 0.09
8 10 6 15.39 0.68
-8 10 -6 14.58 0.71
8 10 6 14.16 0.64
10 -10 6 -0.04 0.1
10 10 6 0.02 0.05
-10 10 -6 0.01 0.06
12 -10 6 8.44 0.48
12 10 6 6.35 0.39
-12 10 -6 7.87 0.43
14 -10 6 -0.06 0.13
14 10 6 0.04 0.08
-14 10 -6 0.08 0.1
-16 10 -6 28.93 1.39
16 10 6 29 1.36
-18 10 -6 0.07 0.12
18 10 6 -0.13 0.11
20 -10 6 7.14 0.54
-20 10 -6 7.55 0.5
20 10 6 7.32 0.49
22 -10 6 -0.04 0.15
22 10 6 0.06 0.14
-22 10 -6 -0.16 0.11
24 -10 6 16.35 0.98
24 -10 6 16.07 0.83
-24 10 -6 15.84 0.93
24 10 6 18.92 0.95
26 -10 6 0.3 0.15
26 -10 6 0.07 0.2
-26 10 -6 0.04 0.15
26 10 6 -0.09 0.15
28 -10 6 5.18 0.54
28 -10 6 4.71 0.4
28 10 6 5.11 0.49
-30 10 -6 -0.16 0.1
-32 10 -6 1.04 0.17
-34 10 -6 0.07 0.13
-36 10 -6 -0.02 0.14
-38 10 -6 -0.04 0.14
-40 10 -6 -0.09 0.14
-42 10 -6 -0.05 0.13
-44 10 -6 -0.11 0.13
-46 10 -6 -0.07 0.13
-46 12 6 0.19 0.13
-44 -12 6 -0.07 0.14
-44 12 6 0.02 0.14
-42 -12 6 0.23 0.16
-42 12 6 0.06 0.15
-40 -12 6 -0.35 0.14
-40 12 6 -0.47 0.13
-38 -12 6 0.87 0.2
-38 12 6 0.97 0.2
-36 -12 6 -0.11 0.14
-36 12 6 -0.23 0.14
-34 -12 6 0.11 0.16
-34 12 6 0.42 0.17
-32 -12 6 -0.13 0.13
-32 12 6 -0.2 0.12
-30 -12 6 1.26 0.2
30 12 -6 2.36 0.35
-30 12 6 1.87 0.22
-28 -12 6 0.09 0.13
28 12 -6 -0.33 0.17
-28 12 6 -0.33 0.21
-28 12 6 -0.28 0.11
-26 -12 6 1.47 0.19
-26 12 6 2 0.22
26 12 -6 1.36 0.27
-24 -12 6 -0.01 0.11
-24 12 6 -0.01 0.1
24 12 -6 -0.15 0.15
22 12 -6 5.65 0.44
20 12 -6 0.07 0.13
18 12 -6 2.82 0.28
-16 12 6 -0.1 0.1
16 12 -6 0 0.11
-14 12 6 5.81 0.39
14 12 -6 6.35 0.38
12 12 -6 -0.05 0.08
-12 12 6 0.09 0.08
-10 12 6 8.43 0.4
10 12 -6 6.63 0.38
-10 12 6 6.62 0.35
-8 -12 6 0.03 0.07
-8 12 6 -0.02 0.05
-6 -12 6 9.48 0.46
-6 12 6 9.26 0.45
-4 -12 6 0.02 0.08
-4 12 6 0.03 0.04
-4 12 6 0.06 0.05
-2 -12 6 8.71 0.44
-2 12 6 8.33 0.41
0 -12 6 0.63 0.14
0 12 6 0.58 0.07
2 -12 6 8.95 0.48
2 12 6 9.49 0.43
2 12 6 8.27 0.42
4 -12 6 0.05 0.09
4 12 6 0.01 0.06
6 -12 6 9.81 0.54
6 12 6 9.73 0.47
8 -12 6 0.1 0.11
-8 12 -6 -0.01 0.05
8 12 6 0.03 0.05
10 -12 6 7.6 0.47
10 12 6 6.91 0.38
-10 12 -6 8.06 0.42
12 -12 6 -0.14 0.12
-12 12 -6 -0.02 0.08
12 12 6 -0.02 0.07
14 -12 6 5.24 0.44
-14 12 -6 5.8 0.38
14 12 6 5.49 0.34
16 -12 6 0.04 0.13
-16 12 -6 0.12 0.12
16 12 6 0.03 0.09
18 -12 6 2.54 0.29
18 12 6 1.75 0.23
-18 12 -6 2.03 0.24
20 -12 6 0.19 0.16
-20 12 -6 -0.13 0.12
20 12 6 0 0.12
22 -12 6 4.71 0.43
-22 12 -6 5.04 0.42
22 12 6 3.96 0.39
24 -12 6 0.03 0.11
24 -12 6 -0.27 0.17
24 12 6 0.13 0.16
-24 12 -6 -0.01 0.14
26 -12 6 1.61 0.31
26 -12 6 1.6 0.19
26 12 6 1.05 0.25
-26 12 -6 1.67 0.28
28 -12 6 -0.04 0.18
28 -12 6 0 0.14
28 12 6 -0.27 0.17
-28 12 -6 -0.01 0.18
-30 12 -6 1.62 0.2
30 12 6 1.68 0.33
-32 12 -6 -0.16 0.11
-34 12 -6 0.64 0.15
-36 12 -6 0.07 0.14
-38 12 -6 1.19 0.2
-40 12 -6 -0.11 0.14
-42 12 -6 0.03 0.14
-44 12 -6 -0.07 0.13
-46 12 -6 0.03 0.13
-44 -14 6 0.13 0.15
-44 14 6 0.18 0.14
-42 -14 6 0 0.15
-42 14 6 -0.18 0.14
-40 -14 6 0.88 0.19
-40 14 6 0.86 0.19
-38 -14 6 -0.05 0.15
-38 14 6 -0.25 0.14
-36 -14 6 1.63 0.22
-36 14 6 1.56 0.23
-34 -14 6 -0.12 0.13
-34 14 6 -0.08 0.14
-32 -14 6 0.51 0.16
-32 14 6 0.49 0.15
-30 -14 6 0.24 0.13
-30 14 6 -0.12 0.11
30 14 -6 0.01 0.2
-28 -14 6 -0.18 0.12
28 14 -6 -0.33 0.18
-28 14 6 -0.06 0.11
-26 -14 6 -0.13 0.12
26 14 -6 -0.05 0.16
-26 14 6 0.02 0.11
-24 -14 6 8.03 0.47
24 14 -6 9.1 0.59
-24 14 6 7.51 0.46
-22 -14 6 -0.1 0.1
-22 14 6 -0.25 0.09
22 14 -6 0.06 0.13
20 14 -6 16.98 0.9
18 14 -6 0.17 0.13
-18 14 6 -0.12 0.12
16 14 -6 22.37 1.07
-16 14 6 21.79 1.09
-14 14 6 0.06 0.1
14 14 -6 -0.13 0.08
12 14 -6 6.26 0.37
-12 14 6 5.46 0.31
-12 14 6 6.08 0.36
-10 14 6 0.02 0.07
10 14 -6 0.01 0.07
-8 14 6 1.27 0.13
-6 -14 6 -0.03 0.07
-6 14 6 0.09 0.05
-4 -14 6 21.04 0.94
-4 14 6 20.52 0.94
-4 14 6 21.68 0.96
-2 -14 6 0.09 0.08
-2 14 6 -0.02 0.04
0 -14 6 42.75 1.85
0 14 6 44.33 1.91
2 -14 6 0.1 0.1
2 14 6 0.02 0.04
4 -14 6 22.07 0.99
4 14 6 20.51 0.92
6 -14 6 0.05 0.11
6 14 6 0.08 0.08
8 -14 6 1.26 0.1
8 -14 6 1.1 0.19
-8 14 -6 0.83 0.12
10 -14 6 -0.03 0.13
10 -14 6 0.06 0.07
10 14 6 0.12 0.06
-10 14 -6 0.05 0.07
12 -14 6 6.29 0.36
12 -14 6 5.59 0.44
-12 14 -6 5.94 0.38
12 14 6 6.32 0.35
14 -14 6 -0.08 0.09
14 14 6 -0.05 0.08
-14 14 -6 -0.04 0.1
16 -14 6 22.45 1.05
16 14 6 19.59 1.02
-16 14 -6 21.97 1.07
18 -14 6 -0.14 0.12
18 14 6 -0.03 0.11
-18 14 -6 -0.1 0.12
20 -14 6 15.61 0.82
20 14 6 13.88 0.8
-20 14 -6 15.01 0.83
22 -14 6 -0.12 0.15
22 -14 6 0.22 0.11
22 14 6 -0.03 0.13
-22 14 -6 0.07 0.15
24 -14 6 7.38 0.54
24 -14 6 7.07 0.45
-24 14 -6 7.36 0.55
24 14 6 7.96 0.56
26 -14 6 0.22 0.19
26 -14 6 0 0.12
-26 14 -6 0.06 0.18
26 14 6 0.24 0.19
28 -14 6 0.06 0.13
28 14 6 0 0.19
-28 14 -6 -0.04 0.17
30 -14 6 -0.14 0.15
30 14 6 -0.08 0.2
-30 14 -6 -0.09 0.11
-32 14 -6 0.59 0.16
-34 14 -6 0 0.13
-36 14 -6 1.26 0.2
-38 14 -6 0.08 0.15
-40 14 -6 0.75 0.18
-42 14 -6 0 0.14
-44 14 -6 -0.02 0.13
-44 16 6 -0.04 0.12
-42 -16 6 1.09 0.19
-42 16 6 0.84 0.18
-40 -16 6 0.15 0.16
-40 16 6 0.04 0.14
-38 -16 6 3.43 0.35
-38 16 6 2.87 0.3
-36 -16 6 0.05 0.15
-36 16 6 0.09 0.15
-34 -16 6 2.27 0.26
-34 16 6 2.26 0.25
-32 -16 6 -0.04 0.14
-32 16 6 -0.08 0.13
32 16 -6 0.2 0.23
-30 -16 6 7.62 0.47
30 16 -6 7.79 0.63
-30 16 6 6.59 0.46
-28 -16 6 -0.03 0.13
28 16 -6 0.06 0.19
-28 16 6 -0.08 0.11
-26 -16 6 2.77 0.28
26 16 -6 2.34 0.33
-26 16 6 2.45 0.27
-24 -16 6 -0.08 0.11
24 16 -6 -0.01 0.16
-24 16 6 0.02 0.1
-22 -16 6 20.09 0.95
22 16 -6 20.43 1.04
-22 16 6 17.81 0.92
20 16 -6 0.1 0.13
-18 16 6 25.99 1.32
18 16 -6 27.59 1.3
16 16 -6 0.02 0.1
-16 16 6 0.04 0.11
14 16 -6 21.95 1.08
-14 16 6 23.52 1.1
12 16 -6 0.16 0.1
-12 16 6 -0.03 0.08
-10 16 6 31.07 1.42
-8 16 6 0.05 0.06
-6 -16 6 0.86 0.13
-6 16 6 0.94 0.1
-4 -16 6 0.23 0.1
-4 16 6 0.21 0.05
-2 -16 6 3.82 0.28
-2 16 6 4.1 0.21
0 -16 6 0.59 0.13
0 16 6 0.69 0.07
2 -16 6 3.95 0.3
4 -16 6 0.18 0.12
4 16 6 0.27 0.09
6 -16 6 0.95 0.18
8 -16 6 0.04 0.13
-8 16 -6 0.1 0.07
10 -16 6 29.74 1.41
-10 16 -6 31.29 1.42
12 -16 6 -0.02 0.06
-12 16 -6 0.1 0.1
12 16 6 0.07 0.08
14 -16 6 22.46 0.99
-14 16 -6 21.69 1.06
14 16 6 19.68 1
16 -16 6 -0.02 0.1
16 16 6 -0.07 0.09
-16 16 -6 -0.05 0.11
18 -16 6 26.87 1.24
18 16 6 25.71 1.26
-18 16 -6 25.5 1.3
20 -16 6 0.21 0.12
20 -16 6 -0.05 0.12
-20 16 -6 -0.07 0.13
20 16 6 -0.17 0.11
22 -16 6 17.67 0.88
22 -16 6 17.23 0.92
22 16 6 18.07 0.97
-22 16 -6 17.91 0.99
24 -16 6 0.22 0.13
24 -16 6 -0.09 0.13
24 16 6 0.08 0.16
-24 16 -6 -0.01 0.16
26 -16 6 3 0.3
26 -16 6 2.58 0.32
-26 16 -6 2.38 0.34
26 16 6 2.31 0.34
28 -16 6 0.06 0.14
28 16 6 0.1 0.2
-28 16 -6 0.35 0.23
30 -16 6 7.37 0.5
-30 16 -6 6.5 0.64
30 16 6 6.58 0.61
-32 16 -6 -0.1 0.12
32 16 6 0.06 0.22
-34 16 -6 2.63 0.26
-36 16 -6 0.12 0.14
-38 16 -6 3.43 0.34
-40 16 -6 0.21 0.15
-42 16 -6 1.24 0.19
-44 16 -6 0.03 0.13
-44 18 6 0.35 0.13
-42 18 6 -0.12 0.13
-40 -18 6 2.63 0.27
-40 18 6 2.36 0.25
-38 -18 6 0.11 0.16
-38 18 6 0.08 0.15
-36 -18 6 2.26 0.26
-36 18 6 2.64 0.27
-34 -18 6 -0.08 0.14
-34 18 6 0.03 0.15
-32 -18 6 1.18 0.2
32 18 -6 1.15 0.31
-32 18 6 1.04 0.19
-30 -18 6 0.1 0.13
30 18 -6 0.28 0.22
-30 18 6 -0.01 0.13
-28 -18 6 0.63 0.16
28 18 -6 0.28 0.21
-28 18 6 0.42 0.14
-26 -18 6 0.05 0.12
-26 18 6 0.01 0.11
26 18 -6 0.27 0.19
-24 -18 6 14.26 0.76
-24 18 6 14.2 0.75
24 18 -6 17.23 0.9
22 -18 -6 0.04 0.14
-22 -18 6 0.3 0.12
22 18 -6 0.13 0.15
-22 18 6 0.29 0.1
-20 -18 6 34.04 1.57
20 -18 -6 32.18 1.58
20 18 -6 36.36 1.64
18 18 -6 0.16 0.13
-16 18 6 28.24 1.32
16 18 -6 25.82 1.28
14 18 -6 -0.03 0.09
-14 18 6 0.01 0.1
-12 18 6 2.7 0.24
-10 18 6 0.05 0.08
-8 18 6 3.36 0.22
-6 18 6 0.06 0.05
-4 -18 6 65.46 2.69
-4 18 6 64.63 2.84
-2 -18 6 0.16 0.1
0 -18 6 130.74 5.32
2 -18 6 0.12 0.11
4 -18 6 68.16 2.95
4 18 6 72.03 2.88
6 -18 6 -0.14 0.12
-8 18 -6 3.33 0.24
-10 18 -6 0.02 0.08
12 18 6 2.38 0.21
-12 18 -6 3.15 0.27
14 18 6 -0.09 0.09
-14 18 -6 -0.13 0.1
-16 18 -6 24.45 1.19
16 18 6 23.03 1.14
18 -18 6 0.28 0.11
-18 18 -6 -0.08 0.14
18 18 6 -0.05 0.12
20 -18 6 30.34 1.43
-20 18 -6 30.31 1.53
20 18 6 30.77 1.49
22 -18 6 0.42 0.14
22 18 6 0.09 0.16
-22 18 -6 -0.14 0.16
24 -18 6 13.14 0.73
-24 18 -6 13.44 0.85
24 18 6 15.13 0.85
26 -18 6 0.3 0.14
26 18 6 -0.02 0.18
-26 18 -6 0.01 0.2
28 -18 6 0.19 0.16
28 18 6 0.41 0.22
-28 18 -6 0.18 0.22
30 -18 6 0.06 0.17
30 18 6 0.06 0.21
-32 18 -6 0.81 0.16
32 18 6 0.62 0.28
-34 18 -6 0 0.13
-36 18 -6 1.93 0.23
-38 18 -6 0.2 0.15
-40 18 -6 3.07 0.33
-42 18 -6 0.08 0.13
-44 18 -6 0.5 0.14
-42 20 6 0.91 0.17
-40 20 6 0.15 0.14
-38 -20 6 2.13 0.25
-38 20 6 2.12 0.25
-36 -20 6 -0.1 0.15
-36 20 6 0.04 0.14
-34 -20 6 1.55 0.22
-34 20 6 1.25 0.21
-32 -20 6 0.14 0.15
32 20 -6 0.11 0.23
-32 20 6 0 0.14
-30 -20 6 3.31 0.34
-30 20 6 3.49 0.33
30 20 -6 3.29 0.43
-28 -20 6 0.26 0.14
-28 20 6 -0.07 0.11
28 20 -6 -0.11 0.19
-26 -20 6 3.99 0.33
26 20 -6 4.08 0.45
-26 20 6 3.68 0.31
-24 -20 6 -0.02 0.11
24 20 -6 0.28 0.18
-24 20 6 0.06 0.1
-22 -20 6 26.69 1.27
22 -20 -6 24.97 1.27
22 20 -6 29.06 1.37
20 -20 -6 0.17 0.13
-20 -20 6 0.25 0.11
20 20 -6 0.05 0.13
-18 -20 6 32.73 1.49
18 20 -6 31.6 1.53
16 20 -6 0.19 0.12
-16 20 6 -0.14 0.12
-14 20 6 15.45 0.78
14 20 -6 14.35 0.76
-12 20 6 0.02 0.09
-10 20 6 7.42 0.41
-8 20 6 0 0.06
-6 20 6 18.67 0.86
-4 20 6 0.01 0.04
-8 20 -6 0.04 0.07
-10 20 -6 7.35 0.43
-12 20 -6 0 0.1
-14 20 -6 14.01 0.75
14 20 6 13.64 0.71
16 -20 6 0.18 0.13
16 20 6 -0.16 0.11
-16 20 -6 -0.27 0.11
18 -20 6 31.15 1.42
-18 20 -6 31.45 1.5
18 20 6 27.12 1.42
20 -20 6 0.21 0.13
20 20 6 -0.32 0.12
-20 20 -6 -0.03 0.16
22 -20 6 24.15 1.2
22 20 6 25.91 1.29
-22 20 -6 24.71 1.32
24 -20 6 0.13 0.14
24 20 6 -0.07 0.17
-24 20 -6 -0.24 0.16
26 -20 6 3.93 0.35
26 20 6 2.7 0.4
-26 20 -6 3.55 0.43
28 -20 6 -0.17 0.15
28 20 6 -0.12 0.2
30 -20 6 2.85 0.31
30 20 6 3.22 0.45
-32 20 -6 0.07 0.14
32 20 6 -0.03 0.23
-34 20 -6 1.51 0.22
-36 20 -6 0 0.13
-38 20 -6 1.94 0.24
-40 20 -6 0.29 0.14
-42 20 -6 0.69 0.16
-40 22 6 1.57 0.2
-38 22 6 0.19 0.15
-36 22 6 1.37 0.21
-34 -22 6 0.03 0.15
-34 22 6 -0.06 0.15
-32 -22 6 0.8 0.19
-32 22 6 0.67 0.18
-30 -22 6 -0.03 0.14
30 22 -6 0.16 0.23
-30 22 6 -0.24 0.13
-28 -22 6 1.01 0.18
-28 22 6 0.97 0.17
28 22 -6 1.58 0.31
-26 -22 6 0.01 0.12
-26 22 6 0.04 0.11
26 22 -6 0.04 0.19
-24 -22 6 8.73 0.53
24 22 -6 11.2 0.68
-24 22 6 8.49 0.51
-22 -22 6 0.08 0.11
22 -22 -6 0.02 0.14
22 22 -6 0.12 0.15
-20 -22 6 24.9 1.22
20 -22 -6 25.33 1.23
20 22 -6 27.25 1.3
-18 -22 6 0.14 0.11
18 22 -6 0.15 0.13
-16 -22 6 18.06 0.89
16 22 -6 18.14 0.93
-14 22 6 0.02 0.11
-12 22 6 4.76 0.33
-10 22 6 0.07 0.08
-8 22 6 0.25 0.08
-6 22 6 0 0.05
-8 22 -6 0.23 0.09
-10 22 -6 0.02 0.09
-12 22 -6 4.83 0.35
14 -22 6 -0.19 0.12
-14 22 -6 -0.06 0.11
16 -22 6 17.93 0.91
-16 22 -6 18.66 0.97
16 22 6 17.73 0.92
18 -22 6 0.15 0.13
18 22 6 -0.18 0.12
-18 22 -6 -0.18 0.14
20 -22 6 24.59 1.17
20 22 6 22.94 1.22
-20 22 -6 24.18 1.27
22 -22 6 0.2 0.13
-22 22 -6 -0.09 0.18
22 22 6 -0.22 0.16
24 -22 6 7.82 0.51
-24 22 -6 8.39 0.64
24 22 6 7.82 0.61
26 -22 6 0.2 0.16
26 22 6 -0.15 0.19
-26 22 -6 -0.11 0.21
28 -22 6 0.87 0.21
28 22 6 1.04 0.3
30 -22 6 0.01 0.19
30 22 6 -0.08 0.23
-32 22 -6 0.52 0.16
-34 22 -6 -0.12 0.14
-36 22 -6 1.29 0.2
-38 22 -6 0.16 0.14
-40 22 -6 1.38 0.19
-42 22 -6 0.04 0.12
-40 24 6 0.09 0.13
-38 24 6 0.37 0.16
-36 24 6 0.22 0.15
-34 24 6 0 0.15
-32 24 6 -0.14 0.14
-30 24 6 0.64 0.18
-28 -24 6 -0.09 0.14
-28 24 6 0.01 0.13
28 24 -6 0.17 0.23
-26 -24 6 0.65 0.17
-26 24 6 0.63 0.15
26 24 -6 0.79 0.27
-24 -24 6 -0.14 0.12
24 24 -6 0.1 0.18
-24 24 6 -0.1 0.11
-22 -24 6 8.28 0.51
22 24 -6 9.77 0.63
-20 -24 6 -0.05 0.11
20 24 -6 0 0.14
-18 -24 6 13.9 0.74
18 24 -6 15.53 0.81
-16 -24 6 -0.01 0.1
16 24 -6 -0.02 0.12
-14 -24 6 7.38 0.44
-8 24 -6 -0.04 0.08
10 -24 6 16.02 0.84
-10 24 -6 16.35 0.84
12 -24 6 -0.19 0.11
-12 24 -6 -0.05 0.11
14 -24 6 6.6 0.45
-14 24 -6 7.14 0.48
16 -24 6 -0.12 0.14
-16 24 -6 -0.14 0.13
16 24 6 -0.13 0.11
18 -24 6 13.13 0.74
18 24 6 14.84 0.78
-18 24 -6 13.49 0.81
20 -24 6 -0.03 0.14
20 24 6 -0.14 0.14
-20 24 -6 -0.27 0.15
22 -24 6 8.42 0.53
22 24 6 8.12 0.6
-22 24 -6 7.81 0.63
24 -24 6 0 0.15
24 24 6 -0.22 0.19
-24 24 -6 -0.06 0.2
26 -24 6 0.59 0.19
26 24 6 0.36 0.24
28 -24 6 0.16 0.18
28 24 6 0.13 0.22
30 -24 6 0.52 0.22
-32 24 -6 -0.24 0.13
-34 24 -6 0 0.15
-36 24 -6 -0.06 0.14
-38 24 -6 0.39 0.16
-40 24 -6 0.07 0.12
-38 26 6 0.11 0.12
-36 26 6 -0.01 0.13
-34 26 6 0.18 0.15
-32 26 6 0.1 0.15
-30 26 6 -0.33 0.14
-28 26 6 1.04 0.19
-26 26 6 0.04 0.13
26 26 -6 -0.07 0.19
24 26 -6 0.96 0.25
22 26 -6 -0.13 0.15
-20 -26 6 3.24 0.33
20 26 -6 3.69 0.39
-18 -26 6 -0.03 0.12
18 26 -6 -0.03 0.13
-16 -26 6 2.32 0.25
-14 -26 6 -0.15 0.1
-12 -26 6 1.67 0.19
-10 -26 6 -0.01 0.11
-8 -26 6 -0.04 0.1
6 -26 6 0.19 0.12
-6 26 -6 0.02 0.08
8 -26 6 0.42 0.14
-8 26 -6 0.06 0.09
10 -26 6 -0.16 0.12
-10 26 -6 0.08 0.1
12 -26 6 1.41 0.22
-12 26 -6 1.52 0.21
14 -26 6 -0.41 0.14
-14 26 -6 0 0.12
16 -26 6 1.92 0.24
-16 26 -6 2.2 0.29
18 -26 6 -0.11 0.14
-18 26 -6 -0.07 0.16
18 26 6 0.14 0.15
20 -26 6 3.8 0.36
-20 26 -6 3.28 0.39
20 26 6 3.19 0.37
22 -26 6 0.22 0.15
22 26 6 -0.02 0.17
-22 26 -6 -0.04 0.21
24 -26 6 0.33 0.17
24 26 6 0.36 0.22
26 -26 6 0.09 0.18
26 26 6 -0.04 0.2
28 -26 6 0.82 0.22
30 -26 6 -0.03 0.2
-32 26 -6 -0.05 0.15
-34 26 -6 -0.16 0.14
-36 26 -6 0.06 0.14
-38 26 -6 -0.11 0.12
-40 26 -6 0.15 0.13
24 28 -6 0.05 0.2
22 28 -6 1.35 0.27
20 28 -6 0.17 0.19
18 28 -6 0.24 0.17
-10 -28 6 3.68 0.32
-8 -28 6 -0.17 0.11
-6 -28 6 14.33 0.74
-4 -28 6 -0.25 0.11
-2 -28 6 22.3 1.08
0 -28 6 -0.32 0.11
2 -28 6 23.82 1.16
4 -28 6 -0.04 0.12
6 -28 6 15.15 0.78
-6 28 -6 14.53 0.75
8 -28 6 0.05 0.13
-8 28 -6 0.01 0.1
10 -28 6 4.22 0.36
-10 28 -6 4.46 0.34
12 -28 6 -0.19 0.13
-12 28 -6 0.04 0.12
14 -28 6 -0.13 0.14
-14 28 -6 0.2 0.14
16 -28 6 0.05 0.14
-16 28 -6 -0.09 0.12
18 -28 6 0.05 0.15
18 28 6 0.28 0.17
-18 28 -6 0.31 0.17
20 -28 6 0.21 0.15
20 28 6 0.01 0.16
22 -28 6 0.91 0.2
22 28 6 1.32 0.26
24 -28 6 0.2 0.17
24 28 6 0.1 0.2
26 -28 6 1 0.23
28 -28 6 0.2 0.2
30 -28 6 0.52 0.22
-32 28 -6 0.12 0.15
-34 28 -6 0.1 0.14
-36 28 -6 -0.03 0.13
-38 28 -6 0.03 0.12
22 30 -6 0.02 0.18
20 30 -6 3.47 0.39
-4 -30 6 0.1 0.11
-2 -30 6 -0.06 0.11
0 -30 6 0.18 0.12
2 -30 6 0.2 0.12
4 -30 6 0.21 0.13
6 -30 6 -0.02 0.13
-6 30 -6 0.11 0.1
8 -30 6 0.04 0.13
-8 30 -6 -0.14 0.1
10 -30 6 -0.14 0.13
-10 30 -6 0.21 0.12
12 -30 6 1.28 0.21
-12 30 -6 1.57 0.23
14 -30 6 0.02 0.15
-14 30 -6 -0.07 0.12
16 -30 6 6.48 0.45
-16 30 -6 5.83 0.47
18 -30 6 0.09 0.15
18 30 6 -0.03 0.15
20 -30 6 3.33 0.35
20 30 6 2.77 0.35
22 -30 6 -0.08 0.16
22 30 6 0.22 0.2
24 -30 6 0.64 0.21
26 -30 6 -0.09 0.19
28 -30 6 0.7 0.22
-30 30 -6 0.03 0.15
-32 30 -6 -0.03 0.15
-34 30 -6 0.11 0.14
-36 30 -6 0.03 0.13
20 32 -6 -0.04 0.17
0 -32 6 0.01 0.14
2 -32 6 22.4 1.11
4 -32 6 -0.22 0.14
6 -32 6 9.78 0.56
-6 32 -6 9.21 0.53
8 -32 6 0.13 0.15
-8 32 -6 0.08 0.11
10 -32 6 1.19 0.2
-10 32 -6 1.18 0.19
12 -32 6 0.06 0.14
-12 32 -6 -0.1 0.12
14 -32 6 0.67 0.18
16 -32 6 0.11 0.16
18 -32 6 0.96 0.2
20 -32 6 0.13 0.17
20 32 6 -0.09 0.16
22 -32 6 0.59 0.2
24 -32 6 -0.06 0.17
26 -32 6 -0.05 0.18
28 -32 6 -0.01 0.18
-30 32 -6 0.07 0.14
-32 32 -6 0 0.14
-34 32 -6 0.94 0.17
4 -34 6 0.04 0.14
6 -34 6 -0.08 0.13
8 -34 6 -0.03 0.14
10 -34 6 0.09 0.15
12 -34 6 0.36 0.17
14 -34 6 -0.12 0.16
16 -34 6 2.42 0.27
18 -34 6 0.06 0.17
20 -34 6 1.5 0.23
22 -34 6 -0.18 0.16
24 -34 6 0.05 0.17
26 -34 6 -0.06 0.17
28 -34 6 0.01 0.17
-28 34 -6 0.09 0.15
-30 34 -6 -0.05 0.13
-32 34 -6 0.56 0.15
10 -36 6 0.1 0.15
12 -36 6 -0.02 0.15
14 -36 6 1.49 0.22
16 -36 6 0.2 0.16
18 -36 6 2.2 0.25
20 -36 6 0.13 0.16
22 -36 6 1.09 0.2
24 -36 6 -0.18 0.15
26 -36 6 0.05 0.16
-28 36 -6 -0.03 0.13
-30 36 -6 0.19 0.13
16 -38 6 2.29 0.25
18 -38 6 0.01 0.15
20 -38 6 1.57 0.21
22 -38 6 -0.2 0.14
24 -38 6 0.25 0.15
-26 38 -6 -0.03 0.12
-47 -1 7 0 0.12
-47 1 7 -0.12 0.12
-45 -1 7 0.15 0.14
-45 1 7 -0.02 0.14
-43 -1 7 0.03 0.15
-43 1 7 -0.1 0.14
-41 -1 7 0.11 0.16
-41 1 7 -0.05 0.16
-39 -1 7 -0.1 0.16
-39 1 7 0.11 0.16
-37 -1 7 -0.08 0.15
-37 1 7 0.08 0.16
-35 -1 7 -0.04 0.15
-35 1 7 0 0.16
-33 -1 7 0.01 0.14
-33 1 7 0.06 0.14
-31 -1 7 0.1 0.13
-31 1 7 -0.05 0.13
-29 -1 7 0.37 0.13
-29 1 7 0.13 0.13
-27 -1 7 0.85 0.15
-27 1 7 0.59 0.15
25 -1 -7 0.47 0.23
-25 -1 7 0.55 0.14
-25 1 7 0.46 0.13
23 -1 -7 0.26 0.17
21 -1 -7 0.14 0.16
21 1 -7 0.08 0.16
-21 1 7 0.19 0.12
21 1 -7 -0.12 0.09
19 -1 -7 0.84 0.21
-19 -1 7 0.89 0.17
19 1 -7 1.08 0.17
19 1 -7 0.88 0.23
-19 1 7 1.4 0.18
17 -1 -7 5.52 0.41
17 -1 -7 5.35 0.32
-17 -1 7 5.26 0.33
17 1 -7 5.19 0.33
17 1 -7 5.85 0.42
-17 1 7 5.63 0.34
-15 -1 7 9.31 0.48
15 -1 -7 10.13 0.49
15 -1 -7 9.19 0.56
15 1 -7 9.22 0.56
-15 1 7 9.39 0.48
15 1 -7 9.89 0.5
13 -1 -7 14.33 0.65
13 -1 -7 13.46 0.72
-13 -1 7 13.55 0.64
13 1 -7 13.36 0.66
13 1 -7 12.86 0.72
-13 1 7 14.42 0.64
11 -1 -7 32.42 1.47
11 -1 -7 32.36 1.41
-11 1 7 30.95 1.34
11 1 -7 30.24 1.47
11 1 -7 32.25 1.42
-9 -1 7 60.32 2.53
-9 1 7 60.98 2.53
9 1 -7 64.6 2.75
-7 -1 7 148.54 5.95
-7 1 7 145.53 5.94
7 1 -7 151.13 6.35
-5 -1 7 48.46 1.96
-5 1 7 47.16 1.97
-3 -1 7 8.06 0.38
-3 1 7 7.49 0.38
-1 -1 7 0.01 0.02
1 -1 7 3.8 0.22
1 1 7 3.75 0.22
3 -1 7 7.87 0.37
-3 1 -7 6.95 0.38
3 1 7 7.22 0.36
-5 -1 -7 47.78 2.13
5 -1 7 48.51 1.97
5 1 7 46.92 1.96
7 -1 7 144.22 5.92
-7 -1 -7 142.71 6.42
7 1 7 151.46 6.33
7 1 7 144.21 5.91
-7 1 -7 154.54 6.43
9 -1 7 60.13 2.47
9 1 7 59.46 2.6
-9 1 -7 61.52 2.66
9 1 7 57.57 2.45
-11 -1 -7 29.89 1.38
11 -1 7 29.26 1.3
11 -1 7 30.3 1.34
11 1 7 29.59 1.29
11 1 7 30.44 1.35
-11 1 -7 29.58 1.38
13 -1 7 12.35 0.64
-13 -1 -7 12.56 0.67
13 -1 7 13.24 0.63
-13 1 -7 13.61 0.68
13 1 7 13.26 0.64
13 1 7 12.93 0.63
15 -1 7 9.24 0.5
15 -1 7 8.96 0.47
-15 -1 -7 9.2 0.52
15 1 7 9.15 0.49
-15 1 -7 8.96 0.52
15 1 7 9.15 0.49
17 -1 7 5.26 0.36
-17 -1 -7 4.57 0.37
17 -1 7 5.23 0.32
-17 1 -7 4.64 0.36
17 1 7 5.31 0.34
17 1 7 4.83 0.33
-19 1 -7 0.73 0.17
19 1 7 0.75 0.15
-27 -1 -7 0.79 0.14
-27 1 -7 0.71 0.13
-29 -1 -7 0.06 0.12
-29 1 -7 0.01 0.12
-31 -1 -7 0.07 0.13
-31 1 -7 -0.01 0.12
-33 -1 -7 -0.12 0.12
-33 1 -7 -0.01 0.12
-35 -1 -7 0 0.13
-35 1 -7 0.14 0.14
-37 -1 -7 0.15 0.15
-37 1 -7 0.04 0.14
-39 -1 -7 0.03 0.14
-39 1 -7 0.3 0.15
-41 -1 -7 0.05 0.14
-41 1 -7 0.08 0.14
-43 -1 -7 -0.02 0.13
-43 1 -7 0.15 0.14
-45 1 -7 -0.08 0.13
-47 -3 7 0.34 0.13
-47 3 7 0.2 0.13
-45 -3 7 0.72 0.16
-45 3 7 0.52 0.16
-43 -3 7 0.09 0.16
-43 3 7 0.19 0.16
-41 -3 7 0.14 0.16
-41 3 7 0 0.16
-39 -3 7 -0.1 0.16
-39 3 7 -0.07 0.15
-37 -3 7 0 0.15
-37 3 7 0.06 0.16
-35 -3 7 1.76 0.25
-35 3 7 2.06 0.25
-33 -3 7 1.71 0.22
-33 3 7 1.69 0.22
-31 -3 7 7.46 0.48
-31 3 7 7.38 0.47
-29 -3 7 9.33 0.53
-29 3 7 8.89 0.54
-27 -3 7 17.16 0.84
27 -3 -7 14.46 1.01
-27 3 7 17.09 0.84
-25 -3 7 12.89 0.66
25 -3 -7 12.05 0.81
-25 3 7 13.22 0.67
23 -3 -7 7.54 0.55
23 3 -7 7.36 0.48
21 -3 -7 2.68 0.32
21 3 -7 2.74 0.28
-21 3 7 3.31 0.27
19 -3 -7 0.26 0.16
-19 3 7 0.41 0.13
19 3 -7 0.32 0.12
17 -3 -7 11.12 0.65
-17 -3 7 11.7 0.57
17 3 -7 11.26 0.68
17 3 -7 10.91 0.6
-17 3 7 12.1 0.58
15 -3 -7 16.65 0.87
-15 -3 7 17.55 0.78
15 3 -7 17.69 0.9
15 3 -7 16.63 0.82
-15 3 7 17.13 0.79
13 -3 -7 42.61 1.85
-13 -3 7 40.59 1.67
13 3 -7 36.85 1.78
-13 3 7 40.94 1.68
13 3 -7 39.11 1.85
-11 -3 7 50.58 2.06
11 3 -7 48.18 2.2
11 3 -7 48.92 2.26
-11 3 7 52.75 2.08
-9 -3 7 56.03 2.22
-9 3 7 54.14 2.23
9 3 -7 51.4 2.37
9 3 -7 55.61 2.42
-7 -3 7 131.54 5.46
7 3 -7 145.41 5.86
-7 3 7 132.52 5.47
-5 -3 7 29 1.26
-5 3 7 31.36 1.27
-3 -3 7 0.38 0.08
-1 -3 7 7.34 0.36
-1 3 7 7.58 0.38
1 3 7 7.54 0.38
3 -3 7 1 0.12
3 3 7 0.4 0.08
-3 3 -7 0.77 0.1
5 -3 7 31.87 1.34
-5 3 -7 32.37 1.42
5 3 7 29.89 1.31
7 -3 7 142.18 5.53
7 3 7 135.51 5.5
-7 3 -7 134.87 5.99
7 3 7 136.41 5.88
-9 -3 -7 58.62 2.49
9 -3 7 55.76 2.32
-9 3 -7 56.45 2.48
9 3 7 53.01 2.43
9 3 7 54.25 2.28
11 -3 7 52.58 2.15
-11 -3 -7 51.83 2.28
-11 3 -7 50.84 2.29
11 3 7 49.75 2.24
11 3 7 49.23 2.1
13 -3 7 38.96 1.69
13 3 7 39.54 1.65
-13 3 -7 40.55 1.8
13 3 7 37.16 1.75
15 -3 7 16.09 0.81
15 3 7 16.19 0.81
-15 3 -7 17.04 0.85
15 3 7 17.44 0.78
17 -3 7 11.43 0.61
17 3 7 10.98 0.59
-17 3 -7 10.97 0.62
19 3 7 0.14 0.12
-19 3 -7 0.02 0.13
21 3 7 2.49 0.27
-21 3 -7 2.14 0.26
23 3 7 7.04 0.46
27 -3 7 14.99 1.06
-27 -3 -7 16.76 0.82
-27 3 -7 16.65 0.81
29 -3 7 8.22 0.77
-29 -3 -7 8.61 0.5
-29 3 -7 8.56 0.49
-31 -3 -7 8.25 0.49
-31 3 -7 7.57 0.48
-33 -3 -7 2.05 0.23
-33 3 -7 2.08 0.23
-35 -3 -7 2.14 0.24
-35 3 -7 2.56 0.26
-37 -3 -7 0.23 0.15
-37 3 -7 0.23 0.15
-39 -3 -7 0.07 0.14
-39 3 -7 0.09 0.15
-41 -3 -7 0.13 0.14
-41 3 -7 0.22 0.15
-43 3 -7 0.12 0.15
-45 3 -7 0.76 0.17
-47 -5 7 1.42 0.18
-47 5 7 1.13 0.18
-45 -5 7 3.08 0.3
-45 5 7 1.71 0.23
-43 -5 7 0.77 0.18
-43 5 7 1.15 0.2
-41 -5 7 0.41 0.17
-41 5 7 0.33 0.17
-39 -5 7 -0.45 0.14
-39 5 7 -0.04 0.15
-37 -5 7 0.02 0.16
-37 5 7 -0.05 0.15
-35 -5 7 2.05 0.28
-35 5 7 3.14 0.34
-33 -5 7 2.19 0.24
-33 5 7 1.81 0.23
-31 -5 7 7.79 0.5
-31 5 7 8.48 0.52
-29 -5 7 12.76 0.67
-29 5 7 11.75 0.66
-27 -5 7 27.33 1.3
-27 5 7 27.53 1.31
25 -5 -7 20.34 1.19
-25 -5 7 22.15 1.06
25 5 -7 22.27 1.13
-25 5 7 22.83 1.06
23 -5 -7 11.76 0.76
23 5 -7 12.36 0.69
-23 5 7 12.02 0.66
21 -5 -7 5.16 0.45
-21 5 7 6.19 0.4
21 5 -7 5.81 0.4
19 -5 -7 0.92 0.2
19 5 -7 1.3 0.19
17 -5 -7 22.46 1.16
17 5 -7 24.15 1.12
15 -5 -7 22.12 1.1
-15 -5 7 21.84 0.97
15 5 -7 23.07 1.14
15 5 -7 23.29 1.07
-13 -5 7 44.81 1.81
13 5 -7 42.67 2.02
-11 -5 7 56.45 2.37
11 5 -7 59.5 2.56
11 5 -7 58.9 2.62
-9 -5 7 73.57 2.95
9 5 -7 73.72 3.17
9 5 -7 71.67 3.22
-7 -5 7 140.04 5.96
7 5 -7 158.56 6.4
-5 -5 7 107.17 4.3
-3 -5 7 30.56 1.27
-3 5 7 30.25 1.28
-1 -5 7 48.12 2
-1 5 7 49.39 2.01
1 -5 7 48.27 1.96
1 5 7 46.79 1.96
3 5 7 29.07 1.22
5 -5 7 116.81 4.53
-5 5 -7 114.69 4.88
5 5 7 103.81 4.48
7 -5 7 156.96 6.2
7 5 7 156.49 6.59
-7 5 -7 157.19 6.71
7 5 7 145.31 6.15
9 -5 7 77.15 3.06
9 5 7 71.53 3
-9 5 -7 73.45 3.28
11 -5 7 60.81 2.45
-11 5 -7 56.4 2.61
11 5 7 57.73 2.38
13 -5 7 44.27 1.89
13 5 7 44.71 1.82
13 5 7 43.21 1.96
-13 5 -7 43.22 2
15 -5 7 21.26 1.05
15 5 7 23.33 1.07
-15 5 -7 22.24 1.09
17 -5 7 22.41 1.1
-17 5 -7 23.5 1.14
17 5 7 23.39 1.12
19 5 7 1 0.18
-19 5 -7 0.77 0.17
21 5 7 5.42 0.41
-21 5 -7 6.15 0.44
-23 5 -7 11.33 0.68
23 5 7 11.16 0.65
25 5 7 19.08 1
27 -5 7 23.62 1.48
-27 -5 -7 27.91 1.27
-27 5 -7 26.9 1.25
-29 -5 -7 12.07 0.64
29 -5 7 10.39 0.86
-29 5 -7 12.23 0.63
31 -5 7 7.7 0.79
-31 -5 -7 8.66 0.51
-31 5 -7 8.61 0.5
-33 -5 -7 2.08 0.23
-33 5 -7 2.13 0.22
-35 -5 -7 3 0.33
-35 5 -7 3.11 0.32
-37 5 -7 -0.07 0.13
-39 5 -7 -0.06 0.14
-41 5 -7 0.79 0.17
-43 5 -7 1.08 0.2
-45 5 -7 2.2 0.24
-47 -7 7 2.79 0.28
-47 7 7 1.7 0.2
-45 -7 7 3.81 0.34
-45 7 7 3.73 0.36
-43 -7 7 1.78 0.23
-43 7 7 2.02 0.23
-41 -7 7 0.52 0.18
-41 7 7 0.61 0.19
-39 7 7 -0.14 0.15
-37 -7 7 -0.2 0.13
-37 7 7 -0.08 0.15
-35 -7 7 2.84 0.29
-33 -7 7 4.45 0.37
-33 7 7 4.09 0.37
-31 -7 7 14.05 0.78
-31 7 7 15.08 0.78
-29 -7 7 23.51 1.12
-29 7 7 22.17 1.12
-27 -7 7 50.1 2.37
-27 7 7 52.67 2.37
27 7 -7 54.24 2.44
-25 -7 7 41.6 1.96
25 7 -7 46.05 2.04
-25 7 7 44.35 1.97
-25 7 7 40.1 1.9
23 7 -7 31.16 1.5
-23 7 7 31.27 1.43
21 7 -7 19.25 0.98
19 7 -7 -0.17 0.1
17 7 -7 15.01 0.77
15 7 -7 12.82 0.66
-13 -7 7 53.8 2.21
13 7 -7 54.61 2.4
-11 -7 7 74.05 3.02
11 7 -7 74.41 3.26
11 7 -7 75.96 3.33
-9 -7 7 74.98 3.01
9 7 -7 73.85 3.29
9 7 -7 74.34 3.24
-7 -7 7 107.06 4.15
7 7 -7 99.38 4.44
-5 -7 7 165.67 6.99
-5 -7 7 158.23 6.47
-3 -7 7 149.09 6.28
-3 -7 7 145.71 5.83
-3 7 7 141.88 5.83
-1 -7 7 147.14 6.01
-1 7 7 152.54 6
1 -7 7 150.73 6.05
1 7 7 150.86 6.04
3 -7 7 141.83 5.58
3 7 7 135.23 5.55
5 7 7 138.99 5.75
-5 7 -7 148.49 6.26
7 -7 7 106.21 4.14
7 7 7 94.4 4.06
7 7 7 97.28 4.35
-7 7 -7 107.38 4.44
9 -7 7 76.97 3.03
9 7 7 68.49 2.95
-9 7 -7 75.74 3.23
9 7 7 71 3.16
11 -7 7 73.57 3.08
11 7 7 73.7 3.22
11 7 7 74.22 3
-11 7 -7 74.73 3.29
13 -7 7 53.22 2.27
13 7 7 52 2.35
-13 7 -7 53.82 2.4
15 -7 7 12.19 0.68
15 7 7 13.44 0.67
-15 7 -7 12.73 0.68
17 -7 7 13.22 0.76
17 7 7 14.93 0.75
-17 7 -7 14.28 0.76
19 7 7 0.11 0.12
-19 7 -7 0.05 0.12
-21 7 -7 17.4 0.94
21 7 7 17.44 0.92
23 7 7 29.21 1.43
-23 7 -7 29.08 1.46
25 -7 7 38.44 1.78
25 -7 7 37.65 1.97
25 7 7 39.46 1.85
27 -7 7 48.71 2.19
27 -7 7 45.54 2.39
27 7 7 47 2.25
-27 7 -7 48.68 2.16
29 -7 7 20.47 1.31
-29 7 -7 22.43 1.05
-31 7 -7 15.11 0.78
-33 7 -7 3.71 0.32
-35 7 -7 4.43 0.37
-37 7 -7 -0.07 0.13
-39 7 -7 0.01 0.14
-41 7 -7 0.62 0.17
-43 7 -7 1.8 0.22
-45 7 -7 3.79 0.35
-47 9 7 2.67 0.28
-45 -9 7 4.71 0.36
-45 9 7 4.08 0.37
-43 -9 7 3.22 0.33
-43 9 7 2.15 0.25
-41 -9 7 1.31 0.21
-41 9 7 0.98 0.2
-39 -9 7 -0.26 0.14
-39 9 7 -0.11 0.15
-37 -9 7 -0.19 0.14
-37 9 7 -0.2 0.14
-35 -9 7 3.69 0.39
-35 9 7 4.25 0.38
-33 -9 7 2.88 0.32
-33 9 7 3.59 0.34
-31 -9 7 13.05 0.7
-31 9 7 12.33 0.7
-29 -9 7 20.88 1.02
29 9 -7 21.33 1.19
-29 9 7 19.88 1.02
-27 -9 7 46.26 2.22
27 9 -7 50.29 2.31
-27 9 7 50.13 2.23
-25 -9 7 34 1.54
-25 9 7 34.21 1.53
25 9 -7 32.79 1.61
-25 9 7 29.99 1.52
23 9 -7 27.05 1.34
21 9 -7 16.98 0.9
19 9 -7 0.21 0.14
17 9 -7 27.48 1.3
15 9 -7 35.74 1.63
13 9 -7 67.99 2.99
-11 -9 7 57.97 2.32
11 9 -7 55.96 2.51
-9 -9 7 90.91 3.72
9 9 -7 95.17 4
-9 9 7 90.91 3.97
-7 -9 7 72.11 2.89
7 9 -7 70.33 3.08
-5 -9 7 77.52 3.15
-3 -9 7 59.15 2.41
-3 -9 7 58.14 2.57
-1 -9 7 62.66 2.6
-1 -9 7 64.77 2.75
-1 9 7 62.23 2.58
1 -9 7 61.74 2.56
1 9 7 62.33 2.53
3 -9 7 56.9 2.37
3 9 7 57.24 2.34
5 -9 7 80.93 3.09
5 9 7 68.43 3.02
7 9 7 69.23 2.85
7 9 7 62.72 2.68
9 -9 7 96.58 3.72
9 9 7 88.2 3.61
9 9 7 85.07 3.87
11 -9 7 60.11 2.48
11 9 7 54.19 2.55
-11 9 -7 61.03 2.62
13 -9 7 70.54 2.89
13 9 7 66.89 2.99
-13 9 -7 67.45 3.05
15 -9 7 35.79 1.58
15 9 7 33.99 1.59
-15 9 -7 34.98 1.64
17 -9 7 28.51 1.33
17 9 7 27.66 1.32
-17 9 -7 27.33 1.35
-19 9 -7 0.16 0.13
19 9 7 0.47 0.14
-21 9 -7 14.79 0.83
21 9 7 15.19 0.82
23 -9 7 24.05 1.32
-23 9 -7 25.5 1.28
23 9 7 24.22 1.25
25 -9 7 28.87 1.34
25 -9 7 27.48 1.53
25 9 7 28.9 1.44
27 -9 7 43.14 1.97
27 -9 7 42.25 2.17
27 9 7 43.17 2.07
29 -9 7 19.73 1.22
-29 9 -7 20.12 0.97
-31 9 -7 12.81 0.68
-33 9 -7 3.73 0.32
-35 9 -7 4.37 0.37
-37 9 -7 0.13 0.14
-39 9 -7 -0.15 0.14
-41 9 -7 1.02 0.19
-43 9 -7 3.16 0.33
-45 9 -7 4.73 0.38
-45 -11 7 4.2 0.34
-45 11 7 3.78 0.35
-43 -11 7 2.17 0.23
-43 11 7 1.72 0.23
-41 -11 7 1.09 0.19
-41 11 7 0.65 0.19
-39 -11 7 -0.13 0.14
-39 11 7 -0.28 0.15
-37 -11 7 0.17 0.15
-37 11 7 -0.36 0.13
-35 -11 7 4.23 0.38
-35 11 7 4.1 0.39
-33 -11 7 1.84 0.22
-33 11 7 2.31 0.25
-31 -11 7 11.16 0.63
-31 11 7 11.03 0.64
-29 -11 7 19.21 0.99
29 11 -7 20.99 1.12
-29 11 7 19.45 0.99
-27 -11 7 56.16 2.52
-27 11 7 54 2.52
27 11 -7 60.8 2.63
-27 11 7 51.28 2.44
-25 -11 7 35.79 1.69
25 11 -7 36.93 1.77
-25 11 7 36.88 1.69
-23 -11 7 48.01 2.21
23 11 -7 49.68 2.28
21 11 -7 24.02 1.2
19 11 -7 4.89 0.38
17 11 -7 1.25 0.19
15 11 -7 3.54 0.29
13 11 -7 11.36 0.6
11 11 -7 13.62 0.68
-9 -11 7 59.03 2.34
-9 11 7 53.59 2.47
9 11 -7 59.04 2.5
-7 -11 7 74.91 3.04
-5 -11 7 59.94 2.46
-3 -11 7 52.59 2.18
-1 -11 7 31.4 1.37
-1 -11 7 30.6 1.34
1 -11 7 32.94 1.42
1 11 7 31.58 1.36
3 -11 7 53.39 2.22
3 11 7 52.06 2.17
5 -11 7 60.13 2.46
5 11 7 56.89 2.4
7 -11 7 55.13 2.72
7 11 7 68.44 2.67
-7 11 -7 72.32 2.9
9 -11 7 61.54 2.57
9 11 7 59.84 2.64
-9 11 -7 60.86 2.71
11 -11 7 11.52 0.65
-11 11 -7 12.18 0.63
11 11 7 12.09 0.59
13 -11 7 11.74 0.67
13 11 7 11.06 0.59
-13 11 -7 12.19 0.63
15 -11 7 3.49 0.35
15 11 7 3.93 0.29
-15 11 -7 3.4 0.3
17 11 7 1.6 0.21
-17 11 -7 1.56 0.22
19 11 7 4.28 0.35
-19 11 -7 4.78 0.38
21 -11 7 21.04 1.13
-21 11 -7 20.48 1.09
21 11 7 21.07 1.07
23 -11 7 43.17 2.1
23 -11 7 42.5 1.97
-23 11 -7 42.1 2.07
23 11 7 44.38 2.04
25 -11 7 31.67 1.49
25 -11 7 32.65 1.65
25 11 7 32.39 1.59
-25 11 -7 30.68 1.6
27 -11 7 48.83 2.4
27 -11 7 49.84 2.24
27 11 7 51.27 2.35
-27 11 -7 45.55 2.35
29 -11 7 18.26 0.91
29 -11 7 16.87 1.07
29 11 7 17.13 1.02
-31 11 -7 10.58 0.59
-33 11 -7 2.74 0.29
-35 11 -7 4.72 0.39
-37 11 -7 0 0.14
-39 11 -7 -0.06 0.14
-41 11 -7 1.05 0.19
-43 11 -7 1.69 0.21
-45 11 -7 3.84 0.35
-45 -13 7 3.49 0.31
-45 13 7 3.23 0.32
-43 -13 7 1.42 0.2
-43 13 7 1.03 0.19
-41 -13 7 1.47 0.21
-41 13 7 0.83 0.19
-39 -13 7 -0.21 0.15
-39 13 7 -0.21 0.14
-37 -13 7 0.01 0.15
-37 13 7 0.06 0.16
-35 -13 7 2.11 0.24
-35 13 7 1.86 0.24
-33 -13 7 1.12 0.21
-33 13 7 1.21 0.2
-31 -13 7 4.39 0.36
31 13 -7 4.34 0.48
-31 13 7 4.63 0.37
-29 -13 7 10.64 0.6
29 13 -7 11.33 0.75
-29 13 7 10.56 0.6
-29 13 7 9.52 0.73
-27 -13 7 31.07 1.46
-27 13 7 29.5 1.5
27 13 -7 32.29 1.58
-27 13 7 30.8 1.46
-25 -13 7 16.88 0.86
25 13 -7 17.08 0.96
-25 13 7 17.17 0.85
-23 -13 7 25.14 1.18
23 13 -7 25.79 1.27
-23 13 7 24.05 1.17
21 13 -7 5.43 0.42
19 13 -7 0.02 0.12
17 13 -7 14.88 0.78
15 13 -7 18.13 0.9
13 13 -7 27.82 1.3
11 13 -7 12 0.61
-11 13 7 11.46 0.56
-11 13 7 12.05 0.61
-9 13 7 70.28 3.03
9 13 -7 66.94 2.98
-7 -13 7 51.83 2.14
-5 -13 7 43.69 1.83
-3 -13 7 39.9 1.67
-3 13 7 39.06 1.77
-1 -13 7 13.02 0.65
-1 13 7 13.57 0.63
1 -13 7 13.54 0.66
1 13 7 13.01 0.63
1 13 7 13.44 0.62
3 -13 7 40.46 1.73
3 -13 7 40.51 1.73
3 13 7 39.39 1.68
5 -13 7 43.71 1.88
5 13 7 43.76 1.83
7 -13 7 51.37 2.2
-7 13 -7 51.98 2.29
7 13 7 50.6 2.11
9 -13 7 70.46 2.89
9 13 7 65.87 2.96
-9 13 -7 69.25 3.04
11 -13 7 11.56 0.66
-11 13 -7 12.19 0.63
11 13 7 11.81 0.58
13 -13 7 31.05 1.38
13 13 7 26.68 1.33
-13 13 -7 30.5 1.39
15 -13 7 18.91 0.96
15 13 7 17.37 0.88
-15 13 -7 17.72 0.92
17 -13 7 15.13 0.82
17 13 7 14.36 0.79
-17 13 -7 16.23 0.83
19 -13 7 0.14 0.15
-19 13 -7 0.05 0.13
19 13 7 0.16 0.13
21 -13 7 5.06 0.43
21 13 7 5.12 0.4
-21 13 -7 4.47 0.41
23 -13 7 21.98 1.19
23 -13 7 21.58 1.07
-23 13 -7 22.52 1.19
23 13 7 23.09 1.17
25 -13 7 15.2 0.91
25 -13 7 15.07 0.78
-25 13 -7 15.03 0.9
25 13 7 15.43 0.89
27 -13 7 28.57 1.34
27 -13 7 27.34 1.46
27 13 7 28.99 1.46
-27 13 -7 26.25 1.46
29 -13 7 10.66 0.61
29 13 7 9.8 0.72
-31 13 -7 4.47 0.34
31 13 7 4.43 0.5
-33 13 -7 1.38 0.19
-35 13 -7 2.77 0.3
-37 13 -7 0.09 0.14
-39 13 -7 0.01 0.14
-41 13 -7 1.03 0.19
-43 13 -7 1.1 0.18
-45 13 -7 3.95 0.33
-45 15 7 1.25 0.17
-43 -15 7 0.37 0.17
-43 15 7 0.48 0.16
-41 -15 7 0.43 0.17
-41 15 7 0.24 0.16
-39 -15 7 -0.2 0.14
-39 15 7 -0.04 0.15
-37 -15 7 -0.09 0.15
-37 15 7 -0.11 0.15
-35 -15 7 1.08 0.2
-35 15 7 1.14 0.21
-33 -15 7 1.02 0.2
-33 15 7 1.22 0.2
-31 -15 7 1.52 0.21
-31 15 7 1.38 0.2
31 15 -7 1.88 0.34
-29 -15 7 6.93 0.46
-29 15 7 6.83 0.45
29 15 -7 7.47 0.62
-29 15 7 6.47 0.58
-27 -15 7 18.01 0.94
-27 15 7 18.17 1.03
-27 15 7 18.34 0.93
27 15 -7 20.94 1.09
-25 -15 7 10.67 0.59
-25 15 7 9.98 0.56
25 15 -7 10.72 0.69
-23 -15 7 17.68 0.88
23 15 -7 18.88 0.98
-23 15 7 16.78 0.86
-21 -15 7 3.47 0.29
21 15 -7 4.24 0.36
19 15 -7 2.25 0.26
17 15 -7 4.03 0.33
15 15 -7 5.34 0.37
13 15 -7 19.09 0.94
-13 15 7 19.48 0.95
11 15 -7 3.28 0.25
-11 15 7 3.14 0.25
-9 15 7 35.96 1.63
-7 -15 7 11.98 0.58
-7 15 7 12.29 0.59
-5 -15 7 21.15 0.95
-3 -15 7 17.38 0.81
-1 -15 7 9.36 0.51
1 -15 7 9.02 0.51
1 15 7 9.6 0.48
3 -15 7 16.85 0.83
3 15 7 17.08 0.77
5 -15 7 21.42 1.05
5 15 7 23.27 1
7 -15 7 12.22 0.67
-7 15 -7 12.64 0.62
9 -15 7 35.3 1.53
9 -15 7 34.15 1.57
-9 15 -7 34.95 1.6
11 -15 7 3.81 0.24
11 -15 7 2.94 0.34
-11 15 -7 3.58 0.28
11 15 7 3.75 0.24
13 -15 7 18.39 0.96
13 -15 7 18.52 0.88
-13 15 -7 18.31 0.92
13 15 7 18.15 0.88
15 -15 7 4.83 0.34
-15 15 -7 4.33 0.36
15 15 7 5.63 0.34
17 -15 7 3.52 0.31
17 15 7 3.65 0.31
-17 15 -7 3.66 0.33
19 -15 7 1.86 0.24
19 15 7 1.99 0.25
-19 15 -7 1.65 0.24
21 -15 7 3.49 0.33
21 -15 7 3.65 0.29
-21 15 -7 2.59 0.32
21 15 7 3.72 0.35
23 -15 7 15.7 0.88
23 -15 7 15.38 0.8
-23 15 -7 15.5 0.91
23 15 7 16.36 0.9
25 -15 7 9.8 0.63
25 -15 7 8.4 0.52
25 15 7 8.86 0.64
-25 15 -7 9.82 0.66
27 -15 7 15.97 0.95
27 -15 7 17.55 0.87
27 15 7 17.13 1
-27 15 -7 16.03 1.01
29 -15 7 6.82 0.46
29 15 7 6.3 0.58
-29 15 -7 5.62 0.58
-31 15 -7 1.07 0.17
31 15 7 1.27 0.31
-33 15 -7 1.01 0.17
-35 15 -7 1.1 0.18
-37 15 -7 -0.05 0.14
-39 15 -7 0.08 0.15
-41 15 -7 0.32 0.16
-43 15 -7 0.4 0.14
-45 15 -7 1.55 0.18
-43 -17 7 0.05 0.14
-43 17 7 0.01 0.13
-41 -17 7 0.31 0.17
-41 17 7 0.18 0.15
-39 -17 7 0.11 0.16
-39 17 7 0.1 0.15
-37 -17 7 0.02 0.15
-37 17 7 -0.09 0.15
-35 -17 7 0.19 0.15
-35 17 7 0.26 0.16
-33 -17 7 0.26 0.15
-33 17 7 0.05 0.14
-31 -17 7 -0.07 0.14
31 17 -7 0.32 0.22
-31 17 7 -0.08 0.12
-29 -17 7 0.61 0.16
-29 17 7 0.5 0.15
29 17 -7 0.62 0.26
-27 -17 7 4.03 0.35
-27 17 7 4.29 0.33
27 17 -7 4.56 0.47
-25 -17 7 1.41 0.19
-25 17 7 1.14 0.16
25 17 -7 2 0.31
-23 -17 7 3.94 0.32
-23 17 7 3.6 0.29
23 17 -7 3.73 0.39
-21 -17 7 0.08 0.12
21 17 -7 0.44 0.17
-21 17 7 -0.03 0.09
19 17 -7 0.17 0.14
17 17 -7 10.92 0.62
15 17 -7 3.71 0.3
-13 17 7 15.34 0.76
13 17 -7 14.55 0.76
-11 17 7 1.64 0.18
-9 17 7 28.56 1.31
-5 -17 7 22.57 1.01
-3 -17 7 11.03 0.57
-1 -17 7 5.61 0.37
1 -17 7 5.25 0.37
1 17 7 6.22 0.35
3 -17 7 11.15 0.62
3 17 7 11.62 0.57
5 -17 7 23.3 1.12
5 17 7 24.04 1.06
7 -17 7 13.9 0.75
-7 17 -7 14.2 0.69
9 -17 7 28.55 1.34
-9 17 -7 28.73 1.34
11 -17 7 1.71 0.28
-11 17 -7 1.62 0.19
11 17 7 1.61 0.16
13 -17 7 15.85 0.71
13 17 7 14.44 0.75
-13 17 -7 16.13 0.81
15 -17 7 3.46 0.23
-15 17 -7 3.78 0.32
15 17 7 3.04 0.27
17 -17 7 10.37 0.54
-17 17 -7 10.51 0.62
17 17 7 9.34 0.58
19 -17 7 -0.03 0.1
19 -17 7 0.49 0.13
-19 17 -7 -0.08 0.14
19 17 7 0.07 0.13
21 -17 7 0.02 0.11
21 -17 7 0.27 0.12
-21 17 -7 -0.18 0.14
21 17 7 -0.29 0.11
23 -17 7 3.6 0.3
23 -17 7 4.06 0.34
23 17 7 2.9 0.36
-23 17 -7 2.5 0.35
25 -17 7 1.32 0.22
25 -17 7 1.12 0.18
25 17 7 1.21 0.25
-25 17 -7 1.08 0.25
27 -17 7 4.06 0.36
-27 17 -7 3.13 0.41
27 17 7 3.85 0.44
29 -17 7 0.5 0.18
29 17 7 0.4 0.23
-29 17 -7 0.35 0.24
31 -17 7 -0.09 0.17
31 17 7 -0.13 0.21
-31 17 -7 -0.11 0.12
-33 17 -7 0.11 0.14
-35 17 -7 0.24 0.14
-37 17 -7 0 0.14
-39 17 -7 -0.11 0.14
-41 17 -7 0.11 0.14
-43 17 -7 0.09 0.13
-43 19 7 -0.02 0.12
-41 -19 7 -0.04 0.14
-41 19 7 -0.15 0.13
-39 -19 7 0.11 0.17
-39 19 7 0.37 0.16
-37 -19 7 0.11 0.16
-37 19 7 -0.16 0.14
-35 -19 7 -0.28 0.15
-35 19 7 -0.03 0.14
-33 -19 7 0.08 0.15
-33 19 7 -0.03 0.13
-31 -19 7 0.37 0.16
31 19 -7 0.75 0.27
-31 19 7 0.36 0.15
-29 -19 7 0.04 0.13
29 19 -7 0.15 0.22
-29 19 7 0.18 0.14
-27 -19 7 0.38 0.14
-27 19 7 0.86 0.28
-27 19 7 0.6 0.14
27 19 -7 0.63 0.23
-25 -19 7 -0.06 0.11
25 19 -7 -0.06 0.16
-25 19 7 -0.15 0.1
-23 -19 7 1.2 0.17
23 19 -7 1.89 0.29
-23 19 7 1.48 0.17
21 -19 -7 0.02 0.14
-21 -19 7 -0.01 0.11
21 19 -7 0.37 0.16
-21 19 7 -0.02 0.09
-19 -19 7 1.27 0.17
19 19 -7 1.56 0.23
17 19 -7 0.28 0.14
15 19 -7 2.31 0.25
13 19 -7 0.06 0.11
-3 -19 7 0.28 0.12
-1 -19 7 0.82 0.17
1 -19 7 1.04 0.2
1 19 7 0.96 0.16
3 -19 7 0.22 0.14
3 19 7 0.44 0.13
5 -19 7 0.5 0.17
7 -19 7 0.09 0.15
-7 19 -7 0.17 0.08
-9 19 -7 0.28 0.1
-11 19 -7 4.51 0.33
13 19 7 -0.09 0.07
-13 19 -7 0.12 0.11
15 19 7 2.22 0.23
-15 19 -7 1.68 0.23
17 -19 7 0.58 0.14
-17 19 -7 -0.03 0.13
17 19 7 0.1 0.12
19 -19 7 1.43 0.19
19 19 7 1.32 0.22
-19 19 -7 1.27 0.24
21 -19 7 0.24 0.13
21 19 7 0.07 0.15
-21 19 -7 -0.13 0.15
23 -19 7 1.3 0.19
23 19 7 1.86 0.3
-23 19 -7 0.98 0.25
25 -19 7 0.06 0.13
-25 19 -7 -0.04 0.18
25 19 7 -0.17 0.17
27 -19 7 0.43 0.17
27 19 7 0.68 0.24
-27 19 -7 0.48 0.24
29 -19 7 -0.24 0.16
29 19 7 -0.02 0.21
31 -19 7 0.42 0.2
31 19 7 0.04 0.23
-33 19 -7 -0.19 0.13
-35 19 -7 -0.11 0.12
-37 19 -7 -0.06 0.13
-39 19 -7 0.12 0.14
-41 19 -7 0.04 0.14
-43 19 -7 0.01 0.12
-41 21 7 -0.1 0.12
-39 21 7 0.36 0.15
-37 -21 7 0.17 0.17
-37 21 7 0.01 0.15
-35 -21 7 0.11 0.16
-35 21 7 0.24 0.15
-33 -21 7 0.93 0.2
-33 21 7 0.94 0.2
-31 -21 7 1.92 0.24
-31 21 7 1.87 0.23
31 21 -7 1.56 0.32
-29 -21 7 3.95 0.37
-29 21 7 4.03 0.37
29 21 -7 4.03 0.47
-27 -21 7 0.71 0.16
-27 21 7 1 0.17
27 21 -7 0.79 0.26
-25 -21 7 2.95 0.3
-25 21 7 3.41 0.29
25 21 -7 2.56 0.36
-23 -21 7 0.22 0.12
-23 21 7 0.32 0.11
23 21 -7 0.16 0.17
-21 -21 7 0.53 0.13
21 -21 -7 0.44 0.16
-21 21 7 0.67 0.13
21 21 -7 0.65 0.19
-19 -21 7 -0.04 0.1
19 21 -7 0.19 0.14
-17 -21 7 -0.05 0.09
17 21 -7 0.1 0.12
15 21 -7 4.26 0.34
1 21 7 0.21 0.12
-7 21 -7 17.51 0.85
-9 21 -7 14.45 0.74
-11 21 -7 20.21 1.01
-13 21 -7 4.65 0.36
15 -21 7 3 0.31
15 21 7 3.63 0.29
-15 21 -7 3.37 0.33
17 -21 7 -0.04 0.13
17 21 7 -0.06 0.11
-17 21 -7 0.06 0.13
19 -21 7 0.03 0.13
-19 21 -7 -0.03 0.15
19 21 7 0 0.13
21 -21 7 0.48 0.14
21 21 7 0.27 0.18
-21 21 -7 0.36 0.2
23 -21 7 0.37 0.15
-23 21 -7 0.18 0.2
23 21 7 0.1 0.18
25 -21 7 2.46 0.26
25 21 7 2.34 0.36
-25 21 -7 2.62 0.38
27 -21 7 0.63 0.18
27 21 7 0.66 0.25
29 -21 7 3.91 0.39
29 21 7 3.25 0.47
31 -21 7 1.53 0.25
31 21 7 1.84 0.36
-33 21 -7 0.43 0.16
-35 21 -7 0.14 0.14
-37 21 -7 -0.11 0.14
-39 21 -7 0.06 0.14
-41 21 -7 -0.05 0.13
-39 23 7 0.23 0.14
-37 23 7 0.27 0.15
-35 23 7 0.47 0.16
-33 -23 7 1.7 0.23
-33 23 7 2 0.24
-31 -23 7 3.95 0.38
-31 23 7 3.78 0.38
-29 -23 7 6.71 0.47
-29 23 7 6.55 0.47
29 23 -7 6.36 0.61
-27 -23 7 3.16 0.33
-27 23 7 2.92 0.32
27 23 -7 3.24 0.43
-25 -23 7 5.26 0.4
-25 23 7 6.1 0.39
25 23 -7 5.58 0.53
-23 -23 7 0.48 0.14
23 23 -7 0.49 0.2
-21 -23 7 0.22 0.12
21 23 -7 0.32 0.18
-19 -23 7 1.58 0.19
19 23 -7 1.94 0.27
-17 -23 7 3.22 0.29
17 23 -7 3.72 0.33
-15 -23 7 15.49 0.78
15 23 -7 15.54 0.82
-13 -23 7 25.16 1.23
1 23 7 0.13 0.12
-7 23 -7 29.04 1.36
-9 23 -7 25.03 1.21
11 -23 7 45.41 2.11
-11 23 -7 45.43 2.11
13 -23 7 22.5 1.1
-13 23 -7 22.53 1.14
15 -23 7 15.88 0.82
-15 23 -7 16.39 0.87
15 23 7 14.77 0.8
17 -23 7 3.48 0.32
17 23 7 2.98 0.31
-17 23 -7 3.05 0.34
19 -23 7 1.18 0.18
-19 23 -7 1.07 0.23
19 23 7 1.14 0.22
21 -23 7 0.19 0.15
21 23 7 -0.07 0.15
-21 23 -7 -0.01 0.17
23 -23 7 0.39 0.16
-23 23 -7 0.2 0.21
23 23 7 0.37 0.21
25 -23 7 5.03 0.41
-25 23 -7 5.05 0.58
25 23 7 3.92 0.45
27 -23 7 2.54 0.28
27 23 7 2.71 0.39
29 -23 7 6.15 0.5
29 23 7 5.54 0.6
31 -23 7 2.57 0.3
-33 23 -7 1.8 0.23
-35 23 -7 0.32 0.15
-37 23 -7 0.02 0.14
-39 23 -7 0.04 0.13
-41 23 -7 0.08 0.13
-39 25 7 -0.19 0.11
-37 25 7 0.17 0.14
-35 25 7 0.65 0.17
-33 25 7 4.03 0.37
-31 25 7 5.43 0.43
-29 -25 7 10.2 0.62
-29 25 7 10.16 0.61
-27 -25 7 7.53 0.52
-27 25 7 8.1 0.5
27 25 -7 7.55 0.65
-25 -25 7 10.24 0.61
25 25 -7 10.2 0.73
-23 -25 7 5.73 0.41
23 25 -7 5.35 0.5
-21 -25 7 1.84 0.21
21 25 -7 2.75 0.33
-19 -25 7 -0.13 0.11
19 25 -7 -0.04 0.14
-17 -25 7 1.31 0.18
17 25 -7 1.45 0.22
-15 -25 7 9.16 0.52
-13 -25 7 15.15 0.77
-11 -25 7 32.26 1.51
-9 -25 7 29.41 1.39
-1 25 7 0.28 0.16
7 -25 7 37.74 1.76
-7 25 -7 37.81 1.74
9 -25 7 28.23 1.36
-9 25 -7 29.03 1.38
11 -25 7 32.05 1.52
-11 25 -7 32.32 1.55
13 -25 7 14.69 0.77
-13 25 -7 14.25 0.8
15 -25 7 8.47 0.54
-15 25 -7 8.61 0.57
17 -25 7 0.72 0.18
-17 25 -7 1.21 0.24
17 25 7 1.54 0.22
19 -25 7 0.02 0.15
-19 25 -7 0.14 0.17
19 25 7 -0.17 0.14
21 -25 7 2.38 0.26
-21 25 -7 2.65 0.36
21 25 7 2.34 0.33
23 -25 7 4.86 0.41
23 25 7 4.94 0.49
25 -25 7 10.57 0.64
25 25 7 9.94 0.75
27 -25 7 7.41 0.52
27 25 7 6.46 0.64
29 -25 7 9.54 0.62
31 -25 7 4.15 0.43
-33 25 -7 3.93 0.39
-35 25 -7 0.59 0.17
-37 25 -7 0.07 0.14
-39 25 -7 0.05 0.12
25 27 -7 7.14 0.61
-23 -27 7 3.17 0.34
23 27 -7 3.48 0.4
-21 -27 7 0.53 0.16
21 27 -7 0.92 0.24
-19 -27 7 0.66 0.16
19 27 -7 0.65 0.2
-17 -27 7 4.09 0.33
17 27 -7 4.4 0.39
-15 -27 7 15.72 0.8
-13 -27 7 27.35 1.31
-11 -27 7 48.49 2.22
-9 -27 7 42.11 1.94
-7 -27 7 44.31 2.03
-5 -27 7 23.89 1.16
-3 -27 7 14.6 0.74
-3 27 7 13.88 0.78
-1 -27 7 0.48 0.13
1 -27 7 0.63 0.15
3 -27 7 15.23 0.79
5 -27 7 24.74 1.2
7 -27 7 45.43 2.14
-7 27 -7 47.34 2.13
9 -27 7 42.7 1.97
-9 27 -7 41.72 1.97
11 -27 7 48.86 2.18
-11 27 -7 45.27 2.19
13 -27 7 27.46 1.3
-13 27 -7 25.38 1.32
15 -27 7 16.16 0.83
-15 27 -7 14.96 0.87
17 -27 7 3.84 0.36
17 27 7 4.21 0.38
-17 27 -7 4.14 0.4
19 -27 7 0.34 0.16
19 27 7 0.51 0.19
-19 27 -7 0.58 0.21
21 -27 7 0.77 0.18
21 27 7 0.85 0.23
23 -27 7 3.79 0.37
23 27 7 2.55 0.37
25 -27 7 7.83 0.54
25 27 7 6.2 0.6
27 -27 7 7.14 0.55
29 -27 7 7.5 0.57
31 -27 7 3.19 0.34
-31 27 -7 3.97 0.38
-33 27 -7 2.58 0.27
-35 27 -7 0.49 0.16
-37 27 -7 0.23 0.14
-39 27 -7 0.12 0.12
23 29 -7 6.52 0.58
21 29 -7 3.93 0.42
19 29 -7 0.27 0.17
-13 -29 7 8.87 0.52
-11 -29 7 16.54 0.85
-9 -29 7 17.24 0.88
-7 -29 7 17.94 0.91
-5 -29 7 9.72 0.55
-5 29 7 9.15 0.63
-3 -29 7 6.69 0.43
-1 -29 7 -0.1 0.11
1 -29 7 0.18 0.13
3 -29 7 7.5 0.47
5 -29 7 10.78 0.59
-5 29 -7 9.42 0.56
7 -29 7 19.59 0.97
-7 29 -7 18.34 0.96
9 -29 7 17.87 0.92
-9 29 -7 17.97 0.94
11 -29 7 16.51 0.87
-11 29 -7 17.07 0.9
13 -29 7 9.66 0.58
-13 29 -7 9.55 0.6
15 -29 7 6.26 0.44
-15 29 -7 5.9 0.47
17 -29 7 0.49 0.17
-17 29 -7 0.48 0.19
19 -29 7 0.09 0.15
19 29 7 0.29 0.17
21 -29 7 3.6 0.37
21 29 7 3.58 0.41
23 -29 7 5.57 0.45
23 29 7 5.17 0.53
25 -29 7 10.65 0.67
27 -29 7 7.5 0.56
29 -29 7 7.49 0.55
-31 29 -7 4.24 0.39
-33 29 -7 2.04 0.24
-35 29 -7 0.46 0.16
-37 29 -7 0.17 0.13
21 31 -7 1.83 0.3
19 31 -7 0.11 0.18
-9 31 7 10.51 0.72
-7 -31 7 12.16 0.66
-5 -31 7 7.06 0.45
-3 -31 7 6.17 0.42
-1 -31 7 0.02 0.12
1 -31 7 0.06 0.12
3 -31 7 6.52 0.44
5 -31 7 7.39 0.48
-5 31 -7 6.54 0.43
7 -31 7 12.95 0.7
-7 31 -7 12.05 0.68
9 -31 7 10.99 0.62
-9 31 -7 10.11 0.61
11 -31 7 10.21 0.59
-11 31 -7 8.45 0.57
13 -31 7 4.34 0.37
-13 31 -7 3.68 0.36
15 -31 7 1.36 0.21
17 -31 7 -0.14 0.15
19 -31 7 0.21 0.17
19 31 7 0.52 0.2
21 -31 7 2.01 0.26
21 31 7 1.96 0.32
23 -31 7 2.85 0.3
25 -31 7 5.04 0.46
27 -31 7 3.81 0.41
29 -31 7 4.3 0.43
-31 31 -7 1.53 0.21
-33 31 -7 1.06 0.18
-35 31 -7 0.11 0.13
-1 -33 7 0.11 0.13
1 -33 7 0.07 0.13
3 -33 7 1.58 0.21
5 -33 7 1.83 0.23
-5 33 -7 1.96 0.22
7 -33 7 3.52 0.35
-7 33 -7 3.53 0.3
9 -33 7 2.75 0.28
-9 33 -7 2.42 0.29
11 -33 7 2.11 0.25
13 -33 7 1.16 0.2
15 -33 7 0.95 0.2
17 -33 7 0.22 0.17
19 -33 7 0.14 0.17
21 -33 7 0.89 0.21
23 -33 7 1.79 0.25
25 -33 7 2.75 0.29
27 -33 7 1.96 0.25
29 -33 7 1.78 0.25
-29 33 -7 2.06 0.24
-31 33 -7 0.97 0.18
-33 33 -7 0.9 0.17
3 -35 7 2.12 0.24
5 -35 7 2.54 0.27
7 -35 7 3.27 0.36
9 -35 7 4.21 0.4
11 -35 7 3.95 0.39
13 -35 7 1.91 0.24
15 -35 7 0.98 0.2
17 -35 7 0.29 0.17
19 -35 7 0.04 0.17
21 -35 7 0.02 0.17
23 -35 7 0.22 0.18
25 -35 7 0.45 0.18
27 -35 7 0.41 0.18
-29 35 -7 0.21 0.14
-31 35 -7 -0.01 0.13
9 -37 7 0.32 0.16
11 -37 7 0 0.15
13 -37 7 -0.02 0.15
15 -37 7 0.03 0.15
17 -37 7 0.13 0.16
19 -37 7 -0.14 0.15
21 -37 7 0.02 0.16
23 -37 7 0.09 0.16
25 -37 7 0.09 0.15
-27 37 -7 -0.1 0.13
17 -39 7 -0.13 0.15
19 -39 7 -0.01 0.15
21 -39 7 -0.24 0.14
23 -39 7 0.01 0.14
-25 39 -7 0 0.12
-46 0 8 -0.18 0.12
-44 0 8 0.5 0.17
-42 0 8 0.13 0.16
-40 0 8 2.74 0.29
-38 0 8 0.1 0.16
-36 0 8 8.18 0.57
-34 0 8 -0.05 0.14
-32 0 8 5.83 0.43
-30 0 8 0.05 0.11
-28 0 8 10.28 0.58
-26 0 8 0.04 0.09
22 0 -8 0.09 0.16
20 0 -8 11.99 0.72
-20 0 8 11.79 0.62
18 0 -8 -0.03 0.09
-18 0 8 0.01 0.11
18 0 -8 0.04 0.13
-16 0 8 13.36 0.66
16 0 -8 14.04 0.77
16 0 -8 14.01 0.68
14 0 -8 0.07 0.07
-14 0 8 0.06 0.09
14 0 -8 -0.03 0.1
12 0 -8 98.63 4.24
12 0 -8 98.01 4.33
10 0 -8 0.01 0.07
-10 0 8 -0.1 0.08
-8 0 8 466.32 19.05
8 0 -8 492.84 20.41
-6 0 8 -0.02 0.11
-4 0 8 99.62 4.02
-2 0 8 1.05 0.12
0 0 8 298.81 12.96
0 0 -8 353.17 14.12
2 0 8 0.88 0.12
-2 0 -8 0.92 0.12
4 0 8 104.91 3.83
-4 0 -8 84.3 4.14
6 0 8 0.01 0.1
-6 0 -8 -0.1 0.06
-8 0 -8 479.63 20.52
8 0 8 465.3 18.85
8 0 8 478 20.19
10 0 8 0.07 0.09
10 0 8 0.03 0.07
-10 0 -8 -0.02 0.08
-12 0 -8 89.7 4.02
12 0 8 93.64 3.94
12 0 8 89.23 3.72
14 0 8 0.07 0.07
14 0 8 0.05 0.09
-14 0 -8 0.09 0.09
16 0 8 12.95 0.63
16 0 8 12.14 0.64
-16 0 -8 12.09 0.67
18 0 8 0.14 0.09
18 0 8 0.08 0.12
-28 0 -8 9.19 0.52
-30 0 -8 0 0.12
-32 0 -8 5.48 0.41
-34 0 -8 0.23 0.14
-36 0 -8 8.28 0.53
-38 0 -8 0.1 0.14
-40 0 -8 2.41 0.25
-42 0 -8 0.06 0.14
-46 -2 8 0.24 0.14
-46 2 8 0.17 0.14
-44 -2 8 -0.01 0.14
-44 2 8 -0.03 0.14
-42 -2 8 0.35 0.16
-42 2 8 0.22 0.16
-40 -2 8 -0.07 0.16
-40 2 8 0.17 0.17
-38 -2 8 0.1 0.16
-38 2 8 -0.1 0.16
-36 -2 8 0.05 0.16
-36 2 8 0.15 0.17
-34 -2 8 0.11 0.15
-34 2 8 0.12 0.15
-32 -2 8 0.28 0.15
-32 2 8 -0.02 0.14
-30 -2 8 0.18 0.12
-30 2 8 0.15 0.13
-28 -2 8 0.33 0.13
-28 2 8 -0.03 0.12
-26 -2 8 0.53 0.13
26 -2 -8 0.61 0.24
-26 2 8 0.21 0.12
24 -2 -8 0.05 0.18
22 -2 -8 3.61 0.38
22 2 -8 3.67 0.31
20 -2 -8 0.18 0.15
20 2 -8 0.07 0.15
-20 2 8 0.17 0.12
20 2 -8 0.06 0.12
18 -2 -8 11.7 0.69
-18 -2 8 12.37 0.6
-18 2 8 12.29 0.61
18 2 -8 12.06 0.71
18 2 -8 10.82 0.61
-16 -2 8 0.13 0.1
16 -2 -8 0.1 0.13
16 2 -8 0.18 0.13
-16 2 8 0.12 0.11
16 2 -8 0.05 0.08
14 -2 -8 1.22 0.19
-14 -2 8 1.2 0.16
14 -2 -8 1.67 0.15
14 2 -8 1.73 0.17
14 2 -8 1.99 0.23
-14 2 8 1.77 0.19
12 -2 -8 0.02 0.06
-12 -2 8 -0.01 0.09
12 2 -8 -0.04 0.06
-12 2 8 -0.06 0.08
12 2 -8 0.05 0.1
-10 -2 8 18.44 0.83
-10 2 8 19.27 0.84
10 2 -8 18.45 0.87
-8 -2 8 -0.13 0.08
-8 2 8 -0.05 0.08
8 2 -8 -0.07 0.06
-6 -2 8 14 0.69
-6 2 8 14.26 0.7
6 2 -8 18.08 0.73
-4 -2 8 0.7 0.11
-4 2 8 0.96 0.13
-2 -2 8 11.58 0.54
0 -2 8 0.84 0.11
0 2 8 0.92 0.12
2 -2 8 12.3 0.56
-2 2 -8 12.1 0.59
2 2 8 11.26 0.54
4 -2 8 1.11 0.14
-4 2 -8 1.12 0.14
4 2 8 0.95 0.13
6 -2 8 13.8 0.65
-6 -2 -8 12.48 0.67
-6 2 -8 13.28 0.68
6 2 8 15.11 0.65
6 2 8 14.05 0.64
-8 -2 -8 -0.07 0.07
8 -2 8 -0.13 0.09
8 2 8 -0.1 0.07
8 2 8 0 0.07
-8 2 -8 -0.05 0.07
10 -2 8 17.74 0.84
10 2 8 18.46 0.85
10 2 8 17.92 0.82
-10 2 -8 17.88 0.88
12 -2 8 0.03 0.09
-12 -2 -8 -0.06 0.08
12 2 8 0.01 0.07
-12 2 -8 0 0.08
12 2 8 0.07 0.08
-14 -2 -8 1.45 0.18
14 -2 8 1.33 0.18
14 -2 8 1.8 0.16
14 2 8 1.27 0.17
14 2 8 1.62 0.17
-14 2 -8 1.06 0.16
16 -2 8 0.11 0.11
16 2 8 0.05 0.09
16 2 8 0.15 0.11
-16 2 -8 0.07 0.1
18 -2 8 11.46 0.62
18 2 8 11.1 0.6
-18 2 -8 11.13 0.64
20 2 8 0.07 0.1
-20 2 -8 0.23 0.13
-26 2 -8 0.22 0.1
-28 -2 -8 0.24 0.12
-28 2 -8 0.02 0.11
-30 -2 -8 -0.09 0.11
-30 2 -8 0.04 0.11
-32 -2 -8 -0.01 0.12
-32 2 -8 0.07 0.13
-34 -2 -8 0.34 0.15
-34 2 -8 0.04 0.13
-36 -2 -8 0.34 0.15
-36 2 -8 0.4 0.15
-38 -2 -8 -0.09 0.13
-38 2 -8 0.1 0.14
-40 -2 -8 0.06 0.13
-40 2 -8 0.12 0.14
-42 2 -8 0.44 0.16
-44 2 -8 -0.09 0.14
-46 -4 8 0.06 0.13
-46 4 8 0.01 0.13
-44 -4 8 0.1 0.14
-44 4 8 -0.05 0.15
-42 -4 8 -0.12 0.15
-42 4 8 -0.05 0.15
-40 -4 8 0.69 0.18
-40 4 8 0.82 0.19
-38 -4 8 -0.25 0.15
-38 4 8 0.05 0.16
-36 -4 8 4.09 0.39
-36 4 8 4.6 0.4
-34 -4 8 -0.18 0.14
-34 4 8 0.06 0.15
-32 -4 8 4.46 0.37
-32 4 8 3.96 0.36
-30 -4 8 0.13 0.13
-30 4 8 -0.04 0.12
-28 -4 8 6.35 0.41
-28 4 8 5.86 0.4
-26 -4 8 0.02 0.1
-26 4 8 0.05 0.1
24 4 -8 3.61 0.34
22 -4 -8 0.19 0.15
-22 4 8 0.09 0.13
22 4 -8 -0.11 0.11
20 -4 -8 10.48 0.67
-20 4 8 12.64 0.6
20 4 -8 9.88 0.6
18 -4 -8 0.4 0.15
-18 4 8 0.32 0.12
18 4 -8 0.24 0.12
-16 -4 8 3.24 0.24
16 4 -8 3.11 0.32
-16 4 8 3.15 0.27
16 4 -8 3.66 0.26
-14 -4 8 0.22 0.09
14 4 -8 0.16 0.08
14 4 -8 0.23 0.12
-14 4 8 0.04 0.09
-12 -4 8 24.57 1.11
12 4 -8 27.06 1.19
12 4 -8 26.39 1.25
-12 4 8 25.47 1.13
-10 -4 8 0.05 0.07
10 4 -8 0.13 0.09
10 4 -8 0.07 0.07
-10 4 8 0.11 0.08
-8 -4 8 6.46 0.34
-8 4 8 6.71 0.35
-6 -4 8 0.18 0.07
6 4 -8 0.18 0.08
-6 4 8 0.22 0.09
-4 -4 8 0.07 0.07
-4 4 8 0.01 0.02
-2 -4 8 1.18 0.13
-2 4 8 0.98 0.14
0 -4 8 108.63 4.31
0 4 8 105.25 4.31
2 -4 8 0.66 0.11
2 4 8 0.84 0.12
4 -4 8 0.16 0.1
-4 4 -8 0.08 0.07
4 4 8 0.09 0.08
6 -4 8 0.12 0.09
6 4 8 0.1 0.06
6 4 8 0.07 0.06
-6 4 -8 0.1 0.07
8 -4 8 6.87 0.38
-8 4 -8 6.18 0.37
8 4 8 6.62 0.35
8 4 8 6.26 0.34
10 -4 8 0.07 0.1
10 4 8 0 0.06
-10 4 -8 0.06 0.08
10 4 8 0.06 0.07
12 -4 8 24.93 1.13
12 4 8 23.92 1.07
-12 4 -8 24.47 1.17
12 4 8 25.17 1.14
14 -4 8 0.18 0.12
14 4 8 0.2 0.09
-14 4 -8 0.12 0.1
14 4 8 0.09 0.08
16 -4 8 2.82 0.27
16 4 8 3.57 0.27
-16 4 -8 2.57 0.26
18 -4 8 0.14 0.14
18 4 8 0.31 0.13
-18 4 -8 0.14 0.12
20 4 8 8.84 0.54
-20 4 -8 9.49 0.57
22 4 8 0.06 0.11
-22 4 -8 -0.01 0.12
24 4 8 3.82 0.35
-26 4 -8 0.03 0.09
28 -4 8 4.52 0.6
-28 -4 -8 6.11 0.4
-28 4 -8 5.51 0.37
30 -4 8 -0.09 0.27
-30 -4 -8 0.11 0.12
-30 4 -8 0 0.1
-32 -4 -8 4.1 0.35
-32 4 -8 3.72 0.33
-34 -4 -8 -0.05 0.12
-34 4 -8 0.01 0.13
-36 4 -8 4.91 0.4
-38 4 -8 -0.04 0.14
-40 4 -8 0.86 0.18
-42 4 -8 0.06 0.14
-44 4 -8 0.08 0.15
-46 4 -8 -0.09 0.13
-46 -6 8 -0.06 0.13
-46 6 8 0.15 0.14
-44 -6 8 0.11 0.14
-44 6 8 -0.07 0.15
-42 -6 8 0.05 0.15
-42 6 8 0.07 0.16
-40 -6 8 -0.19 0.14
-40 6 8 -0.02 0.16
-38 -6 8 0.05 0.15
-38 6 8 -0.06 0.15
-36 -6 8 -0.18 0.14
-36 6 8 -0.33 0.14
-34 -6 8 -0.13 0.14
-34 6 8 -0.07 0.14
-32 -6 8 -0.09 0.14
-32 6 8 0.08 0.14
-30 -6 8 0.05 0.14
-30 6 8 0.04 0.13
-28 -6 8 0.27 0.13
-28 6 8 -0.06 0.11
-26 -6 8 0.23 0.13
26 6 -8 -0.17 0.14
-26 6 8 0.16 0.12
-24 6 8 -0.14 0.14
24 6 -8 0.05 0.15
-22 6 8 0.27 0.16
22 6 -8 0.49 0.16
-20 6 8 0.04 0.12
20 6 -8 -0.04 0.12
-18 6 8 3.8 0.32
18 6 -8 3.92 0.32
16 6 -8 -0.02 0.1
-14 -6 8 1.17 0.14
14 6 -8 1.03 0.15
-12 -6 8 0.03 0.07
12 6 -8 -0.06 0.08
12 6 -8 0.01 0.1
-10 -6 8 14.88 0.72
10 6 -8 16.18 0.83
10 6 -8 17.8 0.79
-8 -6 8 -0.01 0.06
8 6 -8 -0.05 0.07
-8 6 8 -0.11 0.07
-6 -6 8 30.13 1.25
6 6 -8 29.18 1.32
-6 6 8 29.53 1.31
-4 -6 8 0.3 0.09
-4 6 8 0.13 0.08
-2 -6 8 14.27 0.66
-2 6 8 14.53 0.66
0 -6 8 0.11 0.1
0 6 8 0.13 0.12
2 -6 8 13.31 0.63
2 6 8 13.09 0.62
4 -6 8 -0.01 0.03
4 6 8 0.07 0.08
6 -6 8 30.39 1.3
-6 6 -8 31.21 1.37
6 6 8 29.15 1.32
6 6 8 28.62 1.26
8 -6 8 -0.03 0.09
8 6 8 0.01 0.06
8 6 8 -0.01 0.06
-8 6 -8 -0.06 0.06
10 -6 8 15.33 0.76
10 6 8 16.71 0.74
-10 6 -8 14.7 0.76
10 6 8 14.57 0.69
12 -6 8 -0.04 0.1
12 6 8 0.02 0.07
-12 6 -8 -0.05 0.07
12 6 8 0.04 0.07
14 -6 8 1.21 0.21
14 6 8 0.82 0.13
-14 6 -8 0.75 0.13
16 -6 8 -0.03 0.13
-16 6 -8 -0.06 0.09
16 6 8 0.12 0.11
18 -6 8 3.35 0.35
-18 6 -8 3.1 0.3
18 6 8 3.36 0.29
20 6 8 0.06 0.12
-20 6 -8 -0.1 0.1
-22 6 -8 0.21 0.15
22 6 8 0.48 0.15
24 6 8 -0.05 0.13
26 -6 8 0.22 0.15
26 6 8 0.24 0.17
28 -6 8 -0.03 0.26
-28 6 -8 0.14 0.1
30 -6 8 -0.08 0.28
-30 6 -8 -0.01 0.11
-32 6 -8 -0.05 0.11
-34 6 -8 -0.04 0.12
-36 6 -8 -0.08 0.13
-38 6 -8 0.02 0.14
-40 6 -8 -0.12 0.14
-42 6 -8 0.06 0.14
-44 6 -8 -0.23 0.13
-46 6 -8 -0.01 0.14
-46 -8 8 0.11 0.14
-46 8 8 -0.04 0.13
-44 -8 8 0.06 0.14
-44 8 8 0.04 0.14
-42 -8 8 0.11 0.15
-42 8 8 -0.08 0.15
-40 -8 8 0.06 0.16
-40 8 8 0.03 0.16
-38 -8 8 -0.23 0.14
-38 8 8 -0.09 0.15
-36 -8 8 0.46 0.17
-36 8 8 0.69 0.18
-34 -8 8 -0.34 0.14
-34 8 8 -0.12 0.14
-32 -8 8 1.92 0.24
-32 8 8 2.14 0.24
-30 -8 8 -0.21 0.14
-30 8 8 -0.12 0.12
-28 -8 8 2.29 0.24
28 8 -8 2.96 0.37
-28 8 8 2.32 0.24
-26 -8 8 -0.3 0.12
-26 8 8 0 0.1
-26 8 8 -0.32 0.15
26 8 -8 -0.18 0.16
-24 -8 8 2.96 0.29
-24 8 8 3.27 0.28
24 8 -8 3.94 0.37
-24 8 8 3.49 0.33
-22 8 8 -0.05 0.13
22 8 -8 0.01 0.13
20 8 -8 0.07 0.12
18 8 -8 0.22 0.13
16 8 -8 1.77 0.21
14 8 -8 -0.03 0.09
-12 -8 8 3.26 0.22
-10 -8 8 -0.13 0.06
10 8 -8 -0.16 0.07
-8 -8 8 0.83 0.13
8 8 -8 1.38 0.15
-8 8 8 0.92 0.11
-6 -8 8 0 0.08
-6 -8 8 -0.02 0.07
6 8 -8 -0.01 0.05
-4 -8 8 7.16 0.38
-4 -8 8 5.96 0.35
-4 8 8 6.91 0.36
-2 -8 8 -0.07 0.07
-2 -8 8 0.04 0.09
-2 8 8 -0.06 0.08
0 -8 8 489.2 19.6
0 8 8 496.96 19.58
2 -8 8 -0.07 0.09
2 8 8 -0.19 0.08
4 -8 8 6.38 0.37
4 8 8 6.06 0.34
6 -8 8 -0.09 0.03
-6 8 -8 -0.05 0.02
6 8 8 -0.03 0.05
6 8 8 -0.02 0.07
8 -8 8 0.65 0.16
8 8 8 0.95 0.12
8 8 8 1.02 0.12
10 -8 8 -0.03 0.1
10 8 8 -0.06 0.06
-10 8 -8 -0.11 0.07
10 8 8 -0.14 0.05
12 -8 8 2.89 0.3
-12 8 -8 2.68 0.23
14 -8 8 -0.06 0.13
14 8 8 0.02 0.09
-14 8 -8 -0.02 0.09
16 -8 8 1.43 0.25
-16 8 -8 1.37 0.2
16 8 8 1.81 0.21
18 -8 8 -0.02 0.16
-18 8 -8 0.11 0.12
18 8 8 0.16 0.12
20 8 8 0.1 0.12
-20 8 -8 0.15 0.13
22 8 8 -0.03 0.12
-22 8 -8 -0.18 0.11
24 -8 8 3 0.29
-24 8 -8 3.13 0.35
24 8 8 3.58 0.37
26 -8 8 0.16 0.22
26 -8 8 -0.03 0.12
26 8 8 -0.04 0.15
28 -8 8 2.26 0.25
28 -8 8 2.76 0.45
-28 8 -8 2.56 0.24
30 -8 8 0.1 0.27
-30 8 -8 -0.22 0.11
-32 8 -8 1.4 0.18
-34 8 -8 0 0.12
-36 8 -8 0.32 0.16
-38 8 -8 0 0.14
-40 8 -8 -0.08 0.14
-42 8 -8 -0.09 0.14
-44 8 -8 -0.19 0.14
-46 8 -8 -0.38 0.12
-46 -10 8 0.07 0.14
-46 10 8 -0.15 0.12
-44 -10 8 0.1 0.15
-44 10 8 0.02 0.14
-42 -10 8 -0.1 0.15
-42 10 8 -0.1 0.15
-40 -10 8 -0.32 0.15
-40 10 8 -0.22 0.14
-38 -10 8 -0.41 0.14
-38 10 8 -0.3 0.14
-36 -10 8 -0.24 0.14
-36 10 8 -0.12 0.14
-34 -10 8 -0.45 0.14
-34 10 8 -0.05 0.14
-32 -10 8 -0.02 0.13
-32 10 8 -0.11 0.12
-30 -10 8 -0.13 0.13
-30 10 8 0.16 0.13
-28 -10 8 -0.17 0.12
-28 10 8 -0.1 0.12
28 10 -8 -0.19 0.18
-26 -10 8 4.38 0.35
-26 10 8 4.7 0.34
26 10 -8 4.11 0.44
-26 10 8 3.45 0.39
-24 -10 8 -0.01 0.1
-24 10 8 -0.02 0.09
-24 10 8 -0.2 0.18
24 10 -8 0.01 0.16
22 10 -8 3.94 0.36
20 10 -8 0.03 0.12
18 10 -8 2.87 0.29
16 10 -8 0.04 0.11
12 10 -8 0.09 0.1
-10 -10 8 7.65 0.38
10 10 -8 6.95 0.41
-10 10 8 7.03 0.38
-8 -10 8 -0.13 0.07
-8 10 8 -0.12 0.04
8 10 -8 -0.12 0.06
-6 -10 8 15.35 0.7
-4 -10 8 0.13 0.08
-4 -10 8 0.18 0.08
-2 -10 8 17.9 0.87
-2 -10 8 20.53 0.9
-2 10 8 19.32 0.86
0 -10 8 -0.05 0.1
0 -10 8 -0.09 0.07
0 10 8 0.04 0.1
2 -10 8 18.84 0.89
2 10 8 19.27 0.85
4 -10 8 0 0.1
4 10 8 0.09 0.08
6 10 8 13.9 0.68
6 10 8 15.67 0.68
-6 10 -8 15.06 0.73
8 -10 8 -0.14 0.07
8 10 8 -0.06 0.05
8 10 8 -0.08 0.06
-8 10 -8 -0.07 0.05
10 -10 8 7.38 0.47
10 10 8 7.35 0.4
-10 10 -8 7.55 0.43
12 -10 8 0.01 0.14
-12 10 -8 0.01 0.09
12 10 8 0.14 0.08
14 -10 8 5.89 0.45
-14 10 -8 6.61 0.42
14 10 8 5.86 0.38
16 -10 8 0.16 0.16
-16 10 -8 0.05 0.12
16 10 8 0.16 0.12
18 -10 8 2.4 0.32
18 10 8 2.78 0.29
-18 10 -8 3 0.3
20 10 8 0.15 0.13
-20 10 -8 -0.04 0.12
-22 10 -8 3.63 0.36
22 10 8 3.69 0.36
24 -10 8 0.03 0.19
24 -10 8 0.02 0.12
24 10 8 -0.05 0.14
-24 10 -8 -0.08 0.15
26 -10 8 4.07 0.34
26 -10 8 3.83 0.5
-26 10 -8 3.85 0.43
26 10 8 3.77 0.42
28 -10 8 -0.25 0.21
28 -10 8 -0.01 0.15
28 10 8 0.04 0.19
-30 10 -8 0.13 0.12
-32 10 -8 -0.1 0.11
-34 10 -8 0.21 0.14
-36 10 -8 0.05 0.14
-38 10 -8 0.09 0.14
-40 10 -8 -0.14 0.13
-42 10 -8 -0.17 0.13
-44 10 -8 -0.04 0.13
-46 10 -8 -0.26 0.12
-46 12 8 0.03 0.13
-44 -12 8 -0.04 0.15
-44 12 8 0.09 0.14
-42 -12 8 -0.11 0.15
-42 12 8 -0.1 0.14
-40 -12 8 -0.21 0.15
-40 12 8 -0.11 0.15
-38 -12 8 0.01 0.15
-38 12 8 -0.28 0.14
-36 -12 8 0.27 0.16
-36 12 8 0.02 0.15
-34 -12 8 -0.32 0.14
-34 12 8 -0.06 0.14
-32 -12 8 -0.04 0.13
-32 12 8 0.09 0.14
-30 -12 8 -0.06 0.12
-30 12 8 -0.04 0.11
30 12 -8 -0.13 0.18
-28 -12 8 -0.1 0.13
-28 12 8 -0.12 0.11
28 12 -8 -0.25 0.18
-28 12 8 -0.12 0.21
-26 -12 8 -0.17 0.12
-26 12 8 -0.07 0.11
26 12 -8 -0.08 0.17
-26 12 8 -0.11 0.19
-24 -12 8 0.13 0.13
-24 12 8 0.08 0.11
24 12 -8 0.13 0.18
-22 -12 8 -0.07 0.09
22 12 -8 0.04 0.14
20 12 -8 0.17 0.14
18 12 -8 0.13 0.13
16 12 -8 2.74 0.27
14 12 -8 -0.06 0.1
12 12 -8 0.25 0.12
10 12 -8 0.01 0.08
-10 12 8 0.03 0.06
8 12 -8 5.17 0.3
-6 -12 8 -0.02 0.08
-4 -12 8 25.05 1.1
-2 -12 8 -0.07 0.05
-2 -12 8 0.08 0.1
-2 12 8 0 0.08
0 -12 8 97.82 4.2
0 -12 8 95.15 3.98
0 12 8 99.06 3.95
2 -12 8 -0.11 0.11
2 -12 8 -0.03 0.05
2 12 8 -0.12 0.08
4 -12 8 25.17 1.15
4 12 8 25.73 1.11
6 -12 8 -0.02 0.1
6 12 8 -0.02 0.07
8 -12 8 3 0.29
8 12 8 3.09 0.21
-8 12 -8 2.54 0.21
10 -12 8 0.07 0.15
-10 12 -8 0.18 0.09
10 12 8 0.13 0.07
12 -12 8 -0.17 0.14
12 12 8 0.12 0.08
-12 12 -8 0.08 0.1
14 -12 8 -0.11 0.16
-14 12 -8 -0.02 0.1
14 12 8 0.12 0.1
16 -12 8 1.35 0.25
16 12 8 2.2 0.23
-16 12 -8 1.17 0.19
18 12 8 0.03 0.11
-18 12 -8 0.11 0.12
20 -12 8 0.1 0.15
20 12 8 0.09 0.13
-20 12 -8 0.02 0.13
22 -12 8 -0.03 0.16
22 -12 8 0.26 0.12
22 12 8 -0.11 0.13
-22 12 -8 -0.17 0.13
24 -12 8 0.01 0.12
24 -12 8 0.15 0.2
-24 12 -8 0.26 0.17
24 12 8 0.04 0.16
26 -12 8 0.09 0.21
26 -12 8 0.07 0.13
26 12 8 -0.12 0.17
-26 12 -8 -0.09 0.17
28 -12 8 0.29 0.23
28 -12 8 0.06 0.14
28 12 8 0.03 0.18
30 -12 8 0.04 0.15
-30 12 -8 -0.07 0.11
30 12 8 0.01 0.2
-32 12 -8 -0.11 0.11
-34 12 -8 -0.18 0.11
-36 12 -8 0.04 0.14
-38 12 -8 -0.05 0.14
-40 12 -8 -0.02 0.14
-42 12 -8 -0.05 0.13
-44 12 -8 0.07 0.13
-44 -14 8 -0.14 0.14
-44 14 8 -0.03 0.13
-42 -14 8 0.05 0.15
-42 14 8 -0.2 0.13
-40 -14 8 0.08 0.16
-40 14 8 -0.02 0.15
-38 -14 8 0.1 0.15
-38 14 8 -0.02 0.15
-36 -14 8 -0.11 0.15
-36 14 8 -0.18 0.14
-34 -14 8 -0.01 0.14
-34 14 8 -0.03 0.14
-32 -14 8 -0.15 0.14
-32 14 8 -0.02 0.13
-30 -14 8 2.04 0.24
30 14 -8 3.13 0.4
-30 14 8 2.6 0.28
-28 -14 8 -0.24 0.13
-28 14 8 -0.07 0.22
-28 14 8 -0.23 0.1
28 14 -8 -0.26 0.18
-26 -14 8 0.71 0.16
-26 14 8 0.66 0.15
26 14 -8 0.85 0.24
-26 14 8 0.63 0.26
-24 -14 8 -0.37 0.11
-24 14 8 0.01 0.1
24 14 -8 -0.09 0.16
-22 -14 8 3.1 0.27
-22 14 8 2.56 0.24
22 14 -8 2.74 0.31
20 14 -8 -0.05 0.12
18 14 -8 3.3 0.3
16 14 -8 0.24 0.13
14 14 -8 1.25 0.18
12 14 -8 -0.05 0.1
-12 14 8 0.01 0.07
10 14 -8 4.99 0.32
-8 -14 8 -0.21 0.09
-6 -14 8 1.33 0.17
-4 -14 8 0.18 0.1
-2 -14 8 1.4 0.18
0 -14 8 0.08 0.1
0 14 8 0.01 0.08
2 -14 8 1.18 0.19
2 14 8 1.8 0.18
4 -14 8 0.19 0.04
4 -14 8 0.09 0.12
4 14 8 0.18 0.09
6 -14 8 1.17 0.2
6 14 8 1.31 0.16
8 -14 8 0.02 0.13
8 14 8 0.03 0.05
-8 14 -8 -0.03 0.07
10 -14 8 6.76 0.46
-10 14 -8 7.19 0.4
10 14 8 5.23 0.33
12 -14 8 0.1 0.17
-12 14 -8 0.1 0.11
12 14 8 0.08 0.08
14 -14 8 1.74 0.28
14 14 8 1.04 0.16
-14 14 -8 2.02 0.22
16 -14 8 0.18 0.13
16 14 8 0.14 0.12
-16 14 -8 0 0.12
18 -14 8 3.08 0.32
18 14 8 3.12 0.3
-18 14 -8 3 0.31
20 -14 8 0.04 0.13
20 14 8 -0.05 0.11
-20 14 -8 -0.11 0.11
22 -14 8 2.92 0.28
22 -14 8 2.32 0.32
-22 14 -8 2.52 0.32
22 14 8 2.26 0.29
24 -14 8 -0.16 0.15
24 -14 8 -0.09 0.12
-24 14 -8 -0.24 0.15
24 14 8 0.11 0.16
26 -14 8 0.71 0.23
26 -14 8 0.66 0.15
-26 14 -8 0.6 0.22
26 14 8 0.44 0.22
28 -14 8 0.04 0.13
28 14 8 -0.06 0.18
-28 14 -8 -0.21 0.17
30 -14 8 2.18 0.25
30 14 8 2.18 0.35
-32 14 -8 0 0.11
-34 14 -8 -0.1 0.12
-36 14 -8 -0.03 0.14
-38 14 -8 -0.15 0.14
-40 14 -8 -0.12 0.14
-42 14 -8 -0.09 0.13
-44 14 -8 -0.07 0.12
-44 -16 8 0.36 0.16
-44 16 8 0.18 0.13
-42 -16 8 -0.1 0.16
-42 16 8 -0.1 0.13
-40 -16 8 0.69 0.19
-40 16 8 0.49 0.17
-38 -16 8 -0.15 0.15
-38 16 8 -0.2 0.14
-36 -16 8 0.43 0.18
-36 16 8 0.29 0.16
-34 -16 8 0 0.14
-34 16 8 -0.05 0.14
-32 -16 8 -0.21 0.13
-32 16 8 -0.18 0.12
32 16 -8 0.02 0.21
-30 -16 8 -0.03 0.13
30 16 -8 -0.03 0.2
-30 16 8 0.04 0.12
-28 -16 8 0.62 0.16
-28 16 8 0.58 0.28
-28 16 8 0.56 0.14
28 16 -8 0.78 0.24
-26 -16 8 -0.04 0.13
-26 16 8 -0.05 0.22
26 16 -8 -0.3 0.16
-26 16 8 0.05 0.11
-24 -16 8 0.1 0.13
-24 16 8 0.22 0.11
24 16 -8 0.57 0.21
-22 -16 8 0.1 0.12
-22 16 8 -0.13 0.09
22 16 -8 0.05 0.15
-20 -16 8 0.13 0.12
20 16 -8 0.02 0.13
18 16 -8 0.24 0.13
16 16 -8 1.34 0.2
14 16 -8 0.24 0.12
12 16 -8 2.74 0.25
10 16 -8 0.05 0.09
-6 -16 8 -0.07 0.09
-4 -16 8 2.65 0.24
-2 -16 8 0.1 0.11
0 -16 8 12.92 0.66
0 16 8 12.56 0.62
2 -16 8 0.09 0.13
2 16 8 0.03 0.09
4 -16 8 2.75 0.28
4 16 8 3.17 0.25
6 -16 8 0.06 0.13
8 -16 8 1.29 0.23
-8 16 -8 1.11 0.15
10 -16 8 0.27 0.19
10 -16 8 0.12 0.06
10 16 8 0.16 0.07
-10 16 -8 0.14 0.1
12 -16 8 1.79 0.17
12 -16 8 1.26 0.24
-12 16 -8 1.11 0.18
14 -16 8 0.28 0.18
14 -16 8 0.05 0.09
-14 16 -8 0 0.11
14 16 8 0.11 0.1
16 -16 8 0.78 0.15
-16 16 -8 0.46 0.16
16 16 8 0.59 0.14
18 -16 8 -0.07 0.11
-18 16 -8 0.04 0.13
18 16 8 -0.03 0.11
20 -16 8 -0.07 0.12
20 -16 8 0.27 0.12
-20 16 -8 0.13 0.14
20 16 8 0.19 0.15
22 -16 8 0.24 0.14
22 -16 8 -0.14 0.13
-22 16 -8 -0.15 0.14
22 16 8 -0.05 0.15
24 -16 8 0.24 0.13
24 -16 8 0.19 0.16
-24 16 -8 0.11 0.17
24 16 8 -0.01 0.16
26 -16 8 -0.23 0.15
26 -16 8 0.14 0.13
-26 16 -8 0.13 0.19
26 16 8 -0.01 0.18
28 -16 8 0.48 0.16
-28 16 -8 0.4 0.24
28 16 8 0.38 0.22
30 -16 8 0.2 0.16
30 16 8 -0.3 0.19
-32 16 -8 -0.18 0.11
32 16 8 -0.05 0.21
-34 16 -8 0 0.13
-36 16 -8 0.33 0.15
-38 16 -8 0.04 0.14
-40 16 -8 0.39 0.15
-42 16 -8 -0.03 0.13
-44 16 -8 0.18 0.13
-42 -18 8 -0.04 0.14
-42 18 8 0.02 0.13
-40 -18 8 -0.09 0.16
-40 18 8 0.27 0.15
-38 -18 8 0.41 0.18
-38 18 8 0.27 0.16
-36 -18 8 -0.11 0.15
-36 18 8 -0.05 0.15
-34 -18 8 0.13 0.16
-34 18 8 -0.07 0.14
-32 -18 8 0.07 0.14
32 18 -8 -0.19 0.21
-32 18 8 -0.02 0.14
-30 -18 8 0.88 0.18
-30 18 8 0.81 0.17
30 18 -8 1.15 0.3
-28 -18 8 0.02 0.13
-28 18 8 0 0.12
28 18 -8 -0.13 0.18
-26 -18 8 1.9 0.22
-26 18 8 1.88 0.36
26 18 -8 1.52 0.29
-26 18 8 1.82 0.2
-24 -18 8 0.05 0.11
24 18 -8 0.05 0.17
-24 18 8 -0.08 0.09
-22 -18 8 6.85 0.42
-22 18 8 7.06 0.41
22 18 -8 7.31 0.52
-20 -18 8 -0.01 0.1
-20 18 8 -0.02 0.08
20 18 -8 -0.1 0.12
18 18 -8 9.6 0.58
16 18 -8 0.15 0.12
14 18 -8 3.29 0.29
12 18 -8 0.16 0.1
-4 -18 8 0.43 0.14
-2 -18 8 10.69 0.57
0 -18 8 0.07 0.12
0 18 8 -0.05 0.11
2 -18 8 11.11 0.63
2 18 8 11.94 0.59
4 -18 8 0.26 0.16
4 18 8 0.52 0.14
6 -18 8 3.21 0.32
8 -18 8 0.22 0.16
-8 18 -8 0.17 0.09
10 -18 8 3.3 0.36
-10 18 -8 3.02 0.27
-12 18 -8 0.09 0.11
12 18 8 0 0.07
14 -18 8 3.14 0.18
14 18 8 2.8 0.25
-14 18 -8 3.17 0.31
16 -18 8 0.04 0.07
-16 18 -8 -0.14 0.13
16 18 8 -0.07 0.11
18 -18 8 8.69 0.48
18 -18 8 9.76 0.52
18 18 8 8.56 0.56
-18 18 -8 9.05 0.59
20 -18 8 0.17 0.13
20 -18 8 -0.01 0.1
-20 18 -8 -0.05 0.15
20 18 8 -0.23 0.11
22 -18 8 6.5 0.43
22 -18 8 6.5 0.42
-22 18 -8 6.31 0.52
22 18 8 6.14 0.5
24 -18 8 0.06 0.12
24 -18 8 0.08 0.12
-24 18 -8 -0.11 0.17
24 18 8 -0.07 0.15
26 -18 8 1.72 0.21
26 18 8 1.83 0.32
-26 18 -8 1.64 0.3
28 -18 8 0.04 0.15
-28 18 -8 -0.05 0.2
28 18 8 0.11 0.19
30 -18 8 1.09 0.22
30 18 8 1.16 0.31
32 18 8 -0.26 0.2
-32 18 -8 0.13 0.14
-34 18 -8 0.13 0.14
-36 18 -8 -0.19 0.12
-38 18 -8 0.05 0.14
-40 18 -8 -0.08 0.13
-42 18 -8 0.01 0.13
-44 18 -8 0.11 0.13
-42 20 8 -0.06 0.12
-40 -20 8 0.57 0.16
-40 20 8 0.23 0.15
-38 -20 8 0.05 0.16
-38 20 8 -0.02 0.14
-36 -20 8 0.19 0.17
-36 20 8 0.28 0.16
-34 -20 8 -0.21 0.15
-34 20 8 0.01 0.15
-32 -20 8 0.17 0.16
-32 20 8 0.25 0.15
-30 -20 8 0.01 0.14
-30 20 8 -0.1 0.13
30 20 -8 0.07 0.21
-28 -20 8 1.35 0.19
-28 20 8 1.44 0.2
28 20 -8 1.63 0.32
-26 -20 8 0.12 0.13
26 20 -8 -0.01 0.19
-26 20 8 0.1 0.11
-26 20 8 0.06 0.22
-24 -20 8 0.9 0.16
-24 20 8 1.05 0.15
24 20 -8 0.8 0.23
-22 -20 8 0.05 0.11
22 20 -8 -0.06 0.14
-22 20 8 -0.03 0.09
-20 -20 8 1.96 0.21
20 20 -8 2 0.27
-18 -20 8 -0.03 0.1
18 20 -8 -0.07 0.11
16 20 -8 0.18 0.13
14 20 -8 -0.03 0.1
-4 -20 8 9.17 0.52
-2 -20 8 0.17 0.12
0 -20 8 10.78 0.62
0 20 8 11.42 0.59
2 -20 8 0 0.14
2 20 8 0.09 0.11
4 -20 8 9.79 0.6
6 -20 8 0.18 0.16
8 -20 8 0.1 0.16
-8 20 -8 0.13 0.09
-10 20 -8 -0.06 0.09
-12 20 -8 0.1 0.11
12 20 8 0.31 0.11
14 20 8 -0.06 0.09
-14 20 -8 -0.12 0.1
16 -20 8 0.11 0.11
-16 20 -8 -0.29 0.12
16 20 8 -0.09 0.11
18 -20 8 0.04 0.12
-18 20 -8 -0.24 0.13
18 20 8 -0.14 0.11
20 -20 8 1.38 0.18
20 20 8 1.63 0.25
-20 20 -8 1.18 0.24
22 -20 8 0.22 0.14
-22 20 -8 -0.09 0.15
22 20 8 -0.19 0.15
24 -20 8 0.61 0.15
24 20 8 0.39 0.22
-24 20 -8 0.43 0.22
26 -20 8 0.16 0.15
26 20 8 0.01 0.19
-26 20 -8 0.07 0.21
28 -20 8 1.18 0.22
28 20 8 1.49 0.32
30 -20 8 0.08 0.18
30 20 8 -0.04 0.21
32 -20 8 -0.23 0.17
-32 20 -8 0.02 0.13
-34 20 -8 -0.11 0.14
-36 20 -8 0.2 0.14
-38 20 -8 0.01 0.13
-40 20 -8 0.47 0.15
-42 20 -8 0.01 0.13
-40 22 8 -0.1 0.12
-38 -22 8 -0.07 0.15
-38 22 8 -0.06 0.13
-36 -22 8 0 0.15
-36 22 8 -0.26 0.13
-34 -22 8 -0.09 0.15
-34 22 8 0.21 0.16
-32 -22 8 -0.18 0.15
-32 22 8 -0.07 0.15
-30 -22 8 -0.17 0.15
-30 22 8 -0.31 0.13
30 22 -8 0.2 0.22
-28 -22 8 -0.03 0.14
-28 22 8 -0.25 0.12
28 22 -8 -0.25 0.18
-26 -22 8 1.77 0.22
26 22 -8 2 0.33
-26 22 8 2.32 0.23
-24 -22 8 -0.12 0.11
24 22 -8 -0.01 0.17
-24 22 8 -0.01 0.1
-22 -22 8 5.45 0.39
22 22 -8 5.71 0.48
-20 -22 8 0.05 0.11
20 22 -8 -0.06 0.14
-18 -22 8 6.86 0.41
18 22 -8 6 0.45
-16 -22 8 0.13 0.11
16 22 -8 -0.01 0.13
-14 -22 8 2.93 0.26
14 22 -8 2.37 0.27
0 22 8 -0.06 0.12
-8 22 -8 -0.07 0.08
-10 22 -8 3.9 0.32
12 -22 8 -0.12 0.12
-12 22 -8 -0.04 0.11
14 -22 8 2.34 0.25
-14 22 -8 2.34 0.28
14 22 8 2.36 0.25
16 -22 8 0.01 0.14
-16 22 -8 -0.37 0.11
16 22 8 -0.16 0.12
18 -22 8 6.21 0.42
18 22 8 5.35 0.44
-18 22 -8 6.69 0.51
20 -22 8 0.11 0.14
20 22 8 -0.21 0.13
-20 22 -8 -0.28 0.15
22 -22 8 5.27 0.39
22 22 8 4.82 0.46
-22 22 -8 5.2 0.49
24 -22 8 -0.01 0.13
-24 22 -8 -0.41 0.18
24 22 8 -0.08 0.17
26 -22 8 1.86 0.24
26 22 8 2.49 0.38
28 -22 8 0.08 0.18
28 22 8 -0.14 0.21
30 -22 8 -0.17 0.19
30 22 8 -0.08 0.22
32 -22 8 -0.16 0.19
-32 22 -8 -0.16 0.14
-34 22 -8 -0.02 0.14
-36 22 -8 -0.1 0.13
-38 22 -8 0 0.14
-40 22 -8 -0.1 0.11
-42 22 -8 0.08 0.12
-38 24 8 -0.01 0.12
-36 24 8 0.03 0.14
-34 -24 8 -0.16 0.15
-34 24 8 0 0.14
-32 -24 8 -0.07 0.16
-32 24 8 -0.02 0.15
-30 -24 8 -0.18 0.16
-30 24 8 -0.13 0.14
-28 -24 8 0.86 0.19
-28 24 8 0.65 0.17
28 24 -8 0.66 0.27
-26 -24 8 0.02 0.14
26 24 -8 -0.14 0.18
-24 -24 8 0.89 0.18
24 24 -8 0.84 0.25
-22 -24 8 -0.05 0.12
22 24 -8 0.04 0.16
-20 -24 8 0.85 0.16
20 24 -8 1.08 0.22
-18 -24 8 0.09 0.11
18 24 -8 0 0.13
-16 -24 8 0.09 0.11
16 24 -8 0.59 0.17
-14 -24 8 -0.07 0.11
-12 -24 8 0.19 0.12
-10 -24 8 0.13 0.11
-2 24 8 0.01 0.15
0 24 8 1.49 0.23
8 -24 8 3.11 0.27
-8 24 -8 2.84 0.27
10 -24 8 -0.07 0.13
-10 24 -8 -0.13 0.1
12 -24 8 0.02 0.14
-12 24 -8 0.12 0.13
14 -24 8 -0.22 0.14
-14 24 -8 -0.02 0.12
16 -24 8 0.09 0.14
-16 24 -8 0.18 0.16
16 24 8 0.34 0.15
18 -24 8 -0.04 0.15
-18 24 -8 -0.1 0.15
18 24 8 -0.06 0.13
20 -24 8 0.34 0.16
20 24 8 0.31 0.18
-20 24 -8 0.76 0.23
22 -24 8 0.01 0.15
-22 24 -8 -0.09 0.18
22 24 8 0.01 0.16
24 -24 8 0.97 0.2
24 24 8 0.74 0.26
26 -24 8 0.01 0.16
26 24 8 0.02 0.21
28 -24 8 0.77 0.21
28 24 8 0.6 0.29
30 -24 8 -0.27 0.19
-32 24 -8 0.04 0.15
-34 24 -8 -0.04 0.14
-36 24 -8 -0.06 0.13
-38 24 -8 -0.1 0.13
-40 24 -8 -0.04 0.11
-30 -26 8 0.15 0.17
-28 -26 8 -0.18 0.16
-26 -26 8 0.24 0.16
26 26 -8 0.11 0.21
-24 -26 8 0 0.15
24 26 -8 -0.22 0.18
-22 -26 8 2.2 0.25
22 26 -8 2.77 0.35
-20 -26 8 0.04 0.12
20 26 -8 0.17 0.17
-18 -26 8 1.54 0.2
18 26 -8 1.98 0.28
-16 -26 8 0.04 0.12
16 26 -8 -0.11 0.12
-14 -26 8 0.71 0.14
-12 -26 8 -0.07 0.11
-10 -26 8 4.4 0.34
-8 -26 8 -0.04 0.12
-6 -26 8 0.02 0.12
-4 -26 8 -0.24 0.1
-4 26 8 -0.19 0.14
-2 -26 8 0.17 0.12
-2 26 8 0.37 0.17
0 -26 8 -0.14 0.09
2 -26 8 0.23 0.12
4 -26 8 0.02 0.11
6 -26 8 0.58 0.13
-6 26 -8 0.11 0.11
8 -26 8 0.03 0.13
-8 26 -8 0.08 0.11
10 -26 8 3.92 0.36
-10 26 -8 3.91 0.35
12 -26 8 -0.26 0.14
-12 26 -8 -0.02 0.12
14 -26 8 0.46 0.19
-14 26 -8 0.37 0.17
16 -26 8 -0.24 0.14
16 26 8 -0.04 0.13
-16 26 -8 -0.08 0.14
18 -26 8 1.71 0.23
-18 26 -8 2.03 0.3
18 26 8 1.81 0.28
20 -26 8 0.32 0.16
20 26 8 0.05 0.16
-20 26 -8 0.02 0.18
22 -26 8 1.84 0.24
22 26 8 2.06 0.33
24 -26 8 0.21 0.17
24 26 8 -0.05 0.19
26 -26 8 -0.12 0.16
26 26 8 0.33 0.24
28 -26 8 0.04 0.2
30 -26 8 -0.22 0.2
-32 26 -8 -0.13 0.14
-34 26 -8 0.44 0.16
-36 26 -8 -0.05 0.13
-38 26 -8 0.07 0.13
-24 -28 8 0.71 0.2
24 28 -8 1.01 0.26
-22 -28 8 -0.19 0.14
22 28 -8 0.05 0.18
-20 -28 8 1.46 0.21
20 28 -8 1.74 0.27
-18 -28 8 0.07 0.13
18 28 -8 -0.02 0.14
-16 -28 8 0.44 0.15
-14 -28 8 0.05 0.12
-12 -28 8 0 0.12
-10 -28 8 -0.26 0.11
-8 -28 8 1.41 0.19
-6 -28 8 -0.21 0.12
-6 28 8 -0.43 0.16
-4 -28 8 4.05 0.35
-4 28 8 5.42 0.44
-2 -28 8 -0.15 0.12
0 -28 8 8.13 0.5
2 -28 8 0.02 0.13
4 -28 8 5.31 0.39
6 -28 8 0.1 0.14
-6 28 -8 0.11 0.11
8 -28 8 2.83 0.31
-8 28 -8 2.59 0.29
10 -28 8 -0.02 0.14
-10 28 -8 -0.18 0.11
12 -28 8 0 0.15
-12 28 -8 0.08 0.13
14 -28 8 -0.06 0.15
-14 28 -8 -0.06 0.13
16 -28 8 0.37 0.17
-16 28 -8 0.34 0.17
18 -28 8 -0.04 0.15
18 28 8 0.11 0.15
-18 28 -8 0.14 0.16
20 -28 8 1.58 0.22
20 28 8 1.17 0.26
22 -28 8 -0.06 0.16
22 28 8 -0.03 0.16
24 -28 8 0.79 0.21
24 28 8 0.94 0.28
26 -28 8 0.14 0.19
28 -28 8 1.4 0.25
30 -28 8 -0.11 0.2
-32 28 -8 0.29 0.16
-34 28 -8 0.03 0.13
-36 28 -8 -0.16 0.12
-38 28 -8 0.1 0.12
22 30 -8 0.15 0.19
20 30 -8 0.2 0.18
18 30 -8 1.75 0.28
-16 -30 8 0 0.13
-14 -30 8 2.37 0.25
-12 -30 8 0.02 0.12
-12 30 8 -0.18 0.22
-10 -30 8 0.13 0.13
-10 30 8 0.06 0.21
-8 -30 8 -0.04 0.12
-8 30 8 0.08 0.21
-6 -30 8 -0.02 0.12
-4 -30 8 -0.11 0.11
-2 -30 8 -0.08 0.11
0 -30 8 -0.12 0.11
2 -30 8 0.14 0.13
4 -30 8 0.04 0.12
-4 30 -8 0.14 0.11
6 -30 8 -0.12 0.13
-6 30 -8 0.06 0.11
8 -30 8 -0.02 0.14
-8 30 -8 -0.06 0.11
10 -30 8 0.22 0.15
-10 30 -8 0.5 0.16
12 -30 8 -0.15 0.14
-12 30 -8 -0.23 0.11
14 -30 8 1.81 0.24
-14 30 -8 2.6 0.3
16 -30 8 0.06 0.14
18 -30 8 1 0.21
18 30 8 1.3 0.25
20 -30 8 0.22 0.17
20 30 8 0.27 0.18
22 -30 8 0.11 0.18
22 30 8 -0.01 0.18
24 -30 8 -0.18 0.18
26 -30 8 -0.04 0.19
28 -30 8 -0.09 0.19
30 -30 8 -0.21 0.19
-32 30 -8 0.03 0.14
-34 30 -8 0.34 0.15
-36 30 -8 0.05 0.12
-10 -32 8 0.05 0.13
-8 -32 8 1.67 0.21
-6 -32 8 -0.05 0.11
-4 -32 8 3.42 0.31
-2 -32 8 0.17 0.14
0 -32 8 4.63 0.37
2 -32 8 0.18 0.14
4 -32 8 3.26 0.32
-4 32 -8 3.06 0.29
6 -32 8 -0.1 0.14
-6 32 -8 -0.12 0.1
8 -32 8 1.76 0.23
-8 32 -8 1.84 0.24
10 -32 8 0.01 0.14
-10 32 -8 0.08 0.12
12 -32 8 0.06 0.16
14 -32 8 -0.02 0.15
16 -32 8 -0.11 0.15
18 -32 8 0.04 0.16
18 32 8 -0.18 0.17
20 -32 8 0.24 0.18
22 -32 8 -0.04 0.18
24 -32 8 -0.1 0.18
26 -32 8 0.11 0.2
28 -32 8 0 0.19
-30 32 -8 0.04 0.15
-32 32 -8 0.12 0.14
-34 32 -8 0.06 0.13
-4 -34 8 0.12 0.13
-2 -34 8 0.12 0.13
0 -34 8 0.14 0.13
2 -34 8 0.1 0.13
4 -34 8 0.18 0.15
6 -34 8 -0.12 0.14
8 -34 8 0.11 0.15
10 -34 8 0.15 0.16
12 -34 8 -0.12 0.15
14 -34 8 -0.18 0.15
16 -34 8 -0.27 0.16
18 -34 8 0.13 0.16
20 -34 8 -0.15 0.17
22 -34 8 0.06 0.17
24 -34 8 0.07 0.18
26 -34 8 0.02 0.18
28 -34 8 -0.18 0.17
-30 34 -8 0.63 0.17
-32 34 -8 0.05 0.12
2 -36 8 0.2 0.16
4 -36 8 4.44 0.4
6 -36 8 0.05 0.15
8 -36 8 0.63 0.18
10 -36 8 -0.21 0.15
12 -36 8 0.3 0.17
14 -36 8 0 0.16
16 -36 8 0.45 0.18
18 -36 8 0.2 0.17
20 -36 8 0.24 0.18
22 -36 8 -0.13 0.16
24 -36 8 -0.29 0.16
26 -36 8 -0.18 0.15
-28 36 -8 -0.13 0.13
-30 36 -8 -0.05 0.12
8 -38 8 -0.13 0.14
10 -38 8 -0.06 0.14
12 -38 8 0.07 0.15
14 -38 8 0.07 0.15
16 -38 8 -0.22 0.15
18 -38 8 0.29 0.16
20 -38 8 -0.14 0.15
22 -38 8 -0.35 0.15
24 -38 8 -0.05 0.15
26 -38 8 0.03 0.14
-26 38 -8 -0.15 0.12
18 -40 8 -0.05 0.14
20 -40 8 0.27 0.15
22 -40 8 -0.32 0.12
-47 -1 9 0.06 0.12
-47 1 9 0.12 0.13
-45 -1 9 -0.03 0.14
-45 1 9 0.12 0.15
-43 -1 9 0.11 0.15
-43 1 9 -0.15 0.14
-41 -1 9 0.09 0.15
-41 1 9 0.02 0.16
-39 -1 9 0.03 0.16
-39 1 9 0.04 0.16
-37 -1 9 -0.03 0.15
-37 1 9 -0.01 0.16
-35 -1 9 0.06 0.16
-35 1 9 0.21 0.17
-33 -1 9 0.11 0.15
-33 1 9 0.14 0.15
-31 -1 9 -0.04 0.13
-31 1 9 0 0.12
-29 -1 9 0.2 0.12
-29 1 9 0.18 0.13
-27 -1 9 0.57 0.13
-27 1 9 0.72 0.15
-25 -1 9 0.26 0.12
-25 1 9 0.23 0.12
23 -1 -9 0.37 0.19
21 -1 -9 0.2 0.17
21 1 -9 0.29 0.19
-21 1 9 0.2 0.14
19 -1 -9 1.94 0.28
-19 -1 9 1.73 0.22
-19 1 9 1.69 0.22
19 1 -9 1.84 0.21
19 1 -9 1.87 0.28
-17 -1 9 7.16 0.44
17 -1 -9 7.86 0.51
17 1 -9 7.3 0.51
-17 1 9 7.77 0.45
17 1 -9 7.48 0.43
15 -1 -9 9.04 0.47
-15 -1 9 9.02 0.49
15 1 -9 8.96 0.48
15 1 -9 9.62 0.57
-15 1 9 9.02 0.49
13 -1 -9 18.87 0.86
-13 -1 9 19.19 0.85
-13 1 9 17.61 0.84
13 1 -9 18.13 0.87
11 -1 -9 23.82 1.08
-11 -1 9 23.82 1.06
11 1 -9 23.92 1.09
-11 1 9 24.36 1.06
9 -1 -9 37.6 1.57
-9 -1 9 33.71 1.5
-9 1 9 35.39 1.51
9 1 -9 35.12 1.57
-7 -1 9 59.99 2.5
7 1 -9 62.07 2.64
-7 1 9 60.2 2.51
-5 -1 9 32.88 1.39
5 1 -9 33.63 1.46
-5 1 9 31.82 1.39
-3 -1 9 13.26 0.61
-3 1 9 13.26 0.62
-1 -1 9 0.92 0.12
1 -1 -9 0.7 0.11
-1 1 9 0.89 0.12
1 -1 9 0.81 0.12
-1 -1 -9 0.91 0.12
-1 1 -9 0.57 0.1
1 1 9 0.93 0.13
-3 -1 -9 14.55 0.69
3 -1 9 13.81 0.65
-3 1 -9 14.13 0.69
3 1 9 12.97 0.64
5 -1 9 32.36 1.37
-5 -1 -9 30 1.46
5 1 9 31.34 1.42
-5 1 -9 33.91 1.47
5 1 9 32.4 1.36
7 -1 9 59 2.51
-7 -1 -9 63.4 2.63
-7 1 -9 59.36 2.7
7 1 9 61.65 2.5
7 1 9 59.37 2.64
9 -1 9 33.05 1.45
-9 -1 -9 34.46 1.54
9 -1 9 33.91 1.49
-9 1 -9 33.79 1.54
9 1 9 33.05 1.5
9 1 9 32.3 1.43
11 -1 9 23.96 1.08
-11 -1 -9 24.26 1.13
11 -1 9 23.36 1.07
-11 1 -9 24.17 1.13
11 1 9 23.48 1.09
11 1 9 22.82 1.06
13 -1 9 18.41 0.84
13 -1 9 16.97 0.84
-13 -1 -9 17.53 0.88
13 1 9 17.52 0.84
-13 1 -9 17.43 0.88
13 1 9 18.12 0.85
15 -1 9 8.53 0.5
-15 -1 -9 9.04 0.51
15 -1 9 8.12 0.45
15 1 9 8.3 0.46
-15 1 -9 8.28 0.5
15 1 9 8.78 0.48
17 -1 9 7.47 0.46
-17 1 -9 6.87 0.46
17 1 9 6.86 0.42
17 1 9 7 0.44
19 -1 9 1.91 0.25
19 1 9 1.7 0.2
-27 -1 -9 0.74 0.13
-27 1 -9 0.89 0.14
-29 -1 -9 0.14 0.12
-29 1 -9 0.07 0.11
-31 -1 -9 0.02 0.12
-31 1 -9 0.12 0.13
-33 -1 -9 -0.09 0.12
-33 1 -9 0.03 0.12
-35 -1 -9 0.11 0.13
-35 1 -9 0.17 0.14
-37 -1 -9 0.06 0.14
-37 1 -9 0.11 0.14
-39 -1 -9 -0.02 0.14
-39 1 -9 -0.03 0.13
-41 1 -9 0.14 0.15
-43 1 -9 -0.15 0.13
-47 -3 9 0.43 0.14
-47 3 9 0.35 0.14
-45 -3 9 0.89 0.17
-45 3 9 0.6 0.18
-43 -3 9 0.42 0.17
-43 3 9 0.34 0.17
-41 -3 9 0.04 0.15
-41 3 9 0.15 0.16
-39 -3 9 -0.18 0.15
-39 3 9 -0.04 0.15
-37 -3 9 0.04 0.15
-37 3 9 0.01 0.16
-35 -3 9 0.87 0.21
-35 3 9 1.45 0.21
-33 -3 9 1.68 0.22
-33 3 9 1.74 0.23
-31 -3 9 6.46 0.45
-31 3 9 6.41 0.45
-29 -3 9 9.6 0.54
-29 3 9 8.71 0.54
-27 -3 9 15.08 0.77
-27 3 9 14.41 0.76
-25 -3 9 12.27 0.64
-25 3 9 11.74 0.64
23 3 -9 4.96 0.38
21 3 -9 1.55 0.21
-21 3 9 2.36 0.26
19 3 -9 1.95 0.22
-19 3 9 2.12 0.24
-17 -3 9 18.3 0.84
17 3 -9 16.74 0.88
17 3 -9 18.8 0.98
-17 3 9 18.6 0.86
-15 -3 9 17.22 0.79
-15 3 9 16.76 0.8
15 3 -9 18.6 0.92
15 3 -9 16.06 0.82
-13 -3 9 44.51 1.91
13 3 -9 42.8 2.02
13 3 -9 48.5 2.11
-13 3 9 46.88 1.93
-11 -3 9 58.43 2.26
11 3 -9 50.7 2.39
-11 3 9 54.87 2.27
-9 -3 9 76.19 3.15
9 3 -9 77.15 3.36
-9 3 9 78.89 3.17
-7 -3 9 56.03 2.26
-7 3 9 56.53 2.28
7 3 -9 52.39 2.4
-5 -3 9 14.24 0.64
5 3 -9 13.03 0.66
-5 3 9 14.84 0.66
-3 -3 9 11.38 0.53
-3 3 9 11.23 0.54
-1 -3 9 13.64 0.62
-1 3 9 13.31 0.64
1 -3 9 12.14 0.59
1 3 9 13.35 0.6
3 -3 9 12.84 0.6
3 3 9 11.54 0.58
-3 3 -9 14.55 0.63
3 3 9 10.93 0.58
5 -3 9 15.26 0.68
5 3 9 13.93 0.65
5 3 9 13.13 0.66
-5 3 -9 14.55 0.7
7 -3 9 56.85 2.31
7 3 9 53.86 2.28
-7 3 -9 56.68 2.47
7 3 9 53.28 2.41
-9 -3 -9 81.86 3.48
9 -3 9 78.55 3.24
9 3 9 75.57 3.21
9 3 9 75.55 3.41
-9 3 -9 81.64 3.49
-11 -3 -9 57.82 2.36
11 -3 9 54.2 2.29
-11 3 -9 53.51 2.44
11 3 9 52.55 2.38
11 3 9 51.89 2.25
-13 -3 -9 44.36 1.96
13 -3 9 44.68 1.93
13 3 9 44.29 1.89
-13 3 -9 47.03 2.05
13 3 9 42.85 1.99
-15 -3 -9 16.86 0.8
15 -3 9 16.4 0.85
-15 3 -9 17.59 0.88
15 3 9 17.8 0.81
15 3 9 16.64 0.84
17 -3 9 17.33 0.86
-17 3 -9 16.46 0.87
17 3 9 16.74 0.84
19 -3 9 1.99 0.27
-19 3 -9 1.99 0.24
19 3 9 1.86 0.22
21 3 9 1.61 0.21
-27 3 -9 14.95 0.75
29 -3 9 8.82 0.79
-29 3 -9 8.65 0.5
-31 -3 -9 7.09 0.45
-31 3 -9 7.09 0.45
-33 -3 -9 1.98 0.23
-33 3 -9 1.88 0.21
-35 3 -9 1.85 0.22
-37 3 -9 0.03 0.13
-39 3 -9 -0.12 0.13
-41 3 -9 0.58 0.16
-43 3 -9 0.47 0.16
-45 3 -9 1.01 0.17
-47 -5 9 1.43 0.18
-47 5 9 0.99 0.17
-45 -5 9 2.07 0.23
-45 5 9 2.26 0.24
-43 -5 9 1.04 0.2
-43 5 9 1.51 0.22
-41 -5 9 0.4 0.18
-41 5 9 0.71 0.19
-39 -5 9 -0.39 0.15
-39 5 9 -0.05 0.15
-37 -5 9 -0.04 0.14
-37 5 9 -0.18 0.14
-35 -5 9 2.02 0.27
-35 5 9 3.45 0.37
-33 -5 9 1.84 0.22
-33 5 9 1.66 0.22
-31 -5 9 7.92 0.51
-31 5 9 8.17 0.52
-29 -5 9 10.6 0.59
-29 5 9 10.7 0.61
-27 -5 9 28.11 1.3
-27 5 9 26.05 1.29
-25 -5 9 17.75 0.87
-25 5 9 17.34 0.87
25 5 -9 17.15 0.93
23 5 -9 10.56 0.61
-23 5 9 9.38 0.59
21 5 -9 4.14 0.34
-21 5 9 4.47 0.36
19 5 -9 4.44 0.34
-19 5 9 3.82 0.32
17 5 -9 40.04 1.83
-17 5 9 40.45 1.74
-15 -5 9 37.5 1.65
15 5 -9 38.24 1.77
-15 5 9 42.28 1.7
-13 -5 9 71.53 2.94
-13 5 9 73.45 2.97
13 5 -9 68.92 3.14
13 5 -9 73.71 3.23
-11 -5 9 51.84 2.11
-11 5 9 52.31 2.14
11 5 -9 49.48 2.26
-9 -5 9 76.94 3.23
-9 5 9 82.18 3.25
-7 -5 9 76.45 3.07
-7 5 9 76.35 3.08
7 5 -9 73.59 3.28
-5 -5 9 68.13 2.69
5 5 -9 63.19 2.86
-5 5 9 66.29 2.85
-3 -5 9 14.83 0.62
3 5 -9 11.44 0.61
-3 5 9 13.46 0.62
-1 -5 9 32.8 1.41
-1 5 9 33.8 1.42
1 -5 9 33.03 1.39
1 5 9 32.16 1.39
3 5 9 14.12 0.65
3 5 9 13.84 0.65
5 -5 9 67.69 2.74
5 5 9 63.16 2.86
5 5 9 62.96 2.7
-5 5 -9 70.74 2.94
7 -5 9 76.07 3.1
-7 5 -9 76.68 3.33
7 5 9 74.84 3.25
7 5 9 72.5 3.06
9 -5 9 82.27 3.31
-9 5 -9 81.4 3.55
9 5 9 78.69 3.47
9 5 9 77.31 3.26
11 -5 9 52.94 2.16
11 5 9 49.55 2.1
-11 5 -9 49.89 2.28
11 5 9 49.28 2.23
13 -5 9 71.36 3.01
13 5 9 71.89 2.95
-13 5 -9 73.44 3.22
13 5 9 70.18 3.15
15 -5 9 39.23 1.77
15 5 9 39.82 1.82
-15 5 -9 40.71 1.86
17 -5 9 39.44 1.74
17 5 9 37.99 1.77
-17 5 -9 38.53 1.82
19 -5 9 3.53 0.36
19 5 9 4.38 0.34
-19 5 -9 4.25 0.36
21 5 9 3.81 0.33
-21 5 -9 3.58 0.34
23 5 9 9.05 0.57
25 -5 9 15.85 0.8
-27 5 -9 26.9 1.26
29 -5 9 9.68 0.87
-29 5 -9 11.41 0.59
-31 5 -9 7.94 0.48
-33 5 -9 1.85 0.21
-35 5 -9 3.56 0.34
-37 5 -9 -0.1 0.13
-39 5 -9 -0.04 0.14
-41 5 -9 0.91 0.18
-43 5 -9 1.46 0.2
-45 5 -9 3.29 0.33
-47 7 9 1.92 0.21
-45 -7 9 4.45 0.36
-45 7 9 4.26 0.37
-43 -7 9 2.17 0.24
-43 7 9 2.31 0.26
-41 -7 9 1.15 0.2
-41 7 9 0.97 0.2
-39 -7 9 -0.27 0.14
-39 7 9 -0.19 0.14
-37 -7 9 0.03 0.15
-37 7 9 -0.01 0.15
-35 -7 9 3.96 0.38
-35 7 9 4.33 0.39
-33 -7 9 3.65 0.34
-33 7 9 3.36 0.34
-31 -7 9 12.72 0.7
-31 7 9 12.52 0.7
-29 -7 9 19.69 0.99
-29 7 9 20.4 1
-27 -7 9 47.11 2.16
27 7 -9 48.73 2.24
-27 7 9 46.15 2.16
-25 -7 9 32.59 1.5
-25 7 9 29.8 1.48
-25 7 9 31.58 1.49
25 7 -9 33.7 1.57
23 7 -9 27.72 1.35
-23 7 9 26.71 1.29
21 7 -9 15.56 0.82
-21 7 9 15 0.79
19 7 -9 0.37 0.14
-19 7 9 0.32 0.14
-17 7 9 29.86 1.33
17 7 -9 29.4 1.39
-15 7 9 36.87 1.58
15 7 -9 35.69 1.65
-13 -7 9 72.82 2.88
13 7 -9 68.13 3.09
-13 7 9 70.26 2.91
-11 -7 9 58.27 2.41
-11 7 9 61 2.44
11 7 -9 56.65 2.58
-9 -7 9 91.57 3.63
-9 7 9 90.41 3.65
9 7 -9 86.9 3.89
-7 -7 9 71.71 2.87
7 7 -9 68.05 3.06
-7 7 9 71.08 3.04
-5 -7 9 75.22 2.98
-5 7 9 72.11 3.15
-5 7 9 78.28 2.99
5 7 -9 67 3.16
-3 -7 9 56.37 2.44
-3 -7 9 63.53 2.63
-3 7 9 57.88 2.44
-1 -7 9 62.42 2.6
-1 7 9 63.77 2.6
1 -7 9 60.88 2.55
1 7 9 62.49 2.55
3 -7 9 56.67 2.35
3 7 9 55.08 2.32
3 7 9 56.87 2.44
-5 7 -9 78.18 3.3
5 7 9 68.97 3.03
5 7 9 76.17 3.22
7 -7 9 71.55 2.96
7 7 9 72.81 3.09
7 7 9 66.68 2.9
-7 7 -9 73.35 3.16
9 -7 9 93.9 3.75
-9 7 -9 92.43 4.01
9 7 9 85.15 3.67
9 7 9 91.43 3.93
11 -7 9 59.52 2.49
-11 7 -9 57.52 2.63
11 7 9 57.51 2.41
11 7 9 59.39 2.58
13 -7 9 70.1 2.93
-13 7 -9 69.73 3.11
13 7 9 68.27 3.05
15 -7 9 33.48 1.56
15 7 9 36.44 1.6
-15 7 -9 33.51 1.62
17 -7 9 26.8 1.33
-17 7 -9 29.12 1.38
17 7 9 28.8 1.35
19 -7 9 0.15 0.16
19 7 9 0.55 0.15
-19 7 -9 0.13 0.11
-21 7 -9 14.2 0.81
21 7 9 14.88 0.8
-23 7 -9 24.33 1.28
23 7 9 25.35 1.26
25 -7 9 29.06 1.37
25 7 9 29.11 1.45
27 -7 9 40.45 2.21
27 -7 9 44.66 1.98
29 -7 9 18.26 1.23
-29 7 -9 19.47 0.93
-31 7 -9 12.48 0.67
-33 7 -9 3.74 0.32
-35 7 -9 5.33 0.41
-37 7 -9 -0.16 0.13
-39 7 -9 -0.05 0.14
-41 7 -9 1.29 0.2
-43 7 -9 3.04 0.32
-45 7 -9 4.51 0.37
-45 -9 9 5.85 0.4
-45 9 9 4.86 0.4
-43 -9 9 3.79 0.35
-43 9 9 3.24 0.36
-41 -9 9 1.81 0.23
-41 9 9 1.55 0.23
-39 -9 9 0.01 0.15
-39 9 9 -0.12 0.15
-37 -9 9 0.03 0.15
-37 9 9 0 0.15
-35 -9 9 4.46 0.39
-35 9 9 4.85 0.42
-33 -9 9 2.14 0.25
-33 9 9 2.92 0.32
-31 -9 9 11.62 0.66
-31 9 9 11.68 0.66
-29 -9 9 17.38 0.87
-29 9 9 16.4 0.87
-27 -9 9 50.32 2.3
-27 9 9 47.54 2.29
27 9 -9 53.63 2.39
-25 -9 9 21.26 1.04
-25 9 9 21.4 1.04
-25 9 9 20.16 1.09
25 9 -9 22.54 1.13
-23 -9 9 25.32 1.19
-23 9 9 24.02 1.2
23 9 -9 25.95 1.27
-21 9 9 8.43 0.54
21 9 -9 8.55 0.54
19 9 -9 0.79 0.17
-19 9 9 0.55 0.18
17 9 -9 41.8 1.91
15 9 -9 83.99 3.69
13 9 -9 117.42 5.1
-11 -9 9 91.71 3.53
11 9 -9 82.2 3.79
-9 -9 9 129.78 4.92
-9 9 9 118.83 5.23
9 9 -9 117.23 5.26
-7 -9 9 91.75 3.65
7 9 -9 88.22 3.88
-7 9 9 89.43 3.86
-5 -9 9 82.44 3.32
-5 -9 9 83.68 3.57
5 9 -9 76.44 3.5
-5 9 9 82.79 3.32
-3 -9 9 80.65 3.34
-3 -9 9 80.51 3.57
-3 9 9 83.99 3.33
-1 -9 9 35.84 1.59
-1 -9 9 34.44 1.51
-1 9 9 36.02 1.51
1 -9 9 34.46 1.53
1 9 9 36.52 1.51
3 -9 9 80.15 3.27
3 9 9 78.72 3.24
5 9 9 76.25 3.21
5 9 9 81.01 3.39
9 -9 9 128.93 5.08
9 9 9 119.59 4.99
9 9 9 122.04 5.34
-9 9 -9 125.88 5.45
11 -9 9 88.73 3.57
11 9 9 80.58 3.71
-11 9 -9 87.15 3.8
13 -9 9 118.67 4.69
-13 9 -9 112.06 5
13 9 9 109.18 4.91
15 -9 9 78.43 3.29
-15 9 -9 76.35 3.49
15 9 9 78.07 3.42
17 -9 9 38.24 1.77
-17 9 -9 38.22 1.83
17 9 9 40.12 1.8
19 -9 9 0.51 0.19
-19 9 -9 0.54 0.16
19 9 9 0.58 0.15
21 9 9 7.06 0.5
-21 9 -9 7.98 0.53
23 9 9 23.87 1.21
-23 9 -9 23.21 1.23
25 -9 9 19.2 0.92
25 -9 9 17.59 1.09
25 9 9 19.14 1.02
-25 9 -9 16.97 1.01
27 -9 9 44.88 2.05
27 -9 9 43.93 2.26
27 9 9 44.79 2.14
29 -9 9 16.26 0.84
29 -9 9 15.07 1.03
-31 9 -9 11.54 0.63
-33 9 -9 1.9 0.21
-35 9 -9 4.67 0.38
-37 9 -9 0.04 0.15
-39 9 -9 -0.02 0.14
-41 9 -9 1.27 0.2
-43 9 -9 3.81 0.35
-45 9 -9 5.44 0.39
-45 -11 9 5.39 0.38
-45 11 9 4.84 0.4
-43 -11 9 3.15 0.32
-43 11 9 2.07 0.24
-41 -11 9 1.82 0.23
-41 11 9 1.53 0.22
-39 -11 9 -0.09 0.15
-39 11 9 -0.13 0.14
-37 -11 9 0.09 0.16
-37 11 9 0.03 0.15
-35 -11 9 3.85 0.36
-35 11 9 3.95 0.37
-33 -11 9 2.1 0.26
-33 11 9 2.28 0.25
-31 -11 9 8.46 0.53
-31 11 9 8.84 0.53
-29 -11 9 16.06 0.87
29 11 -9 17.58 0.99
-29 11 9 17.14 0.87
-27 -11 9 49.66 2.21
27 11 -9 50.93 2.31
-27 11 9 48.07 2.21
-27 11 9 43.87 2.18
-25 -11 9 29.79 1.43
-25 11 9 27.96 1.44
-25 11 9 31.79 1.43
25 11 -9 32 1.53
-23 -11 9 42.4 1.95
23 11 -9 45.16 2.02
-23 11 9 41.24 1.92
-23 11 9 41.76 1.94
21 11 -9 15.79 0.83
-21 11 9 14.45 0.8
19 11 -9 2.95 0.3
17 11 -9 4.07 0.33
15 11 -9 13.46 0.71
13 11 -9 29.6 1.38
11 11 -9 23.09 1.1
-9 -11 9 87.33 3.44
9 11 -9 83.33 3.67
-9 11 9 82.93 3.65
-7 -11 9 59.78 2.33
-7 11 9 54.63 2.43
7 11 -9 54.19 2.45
-5 -11 9 52.04 2.21
-5 11 9 54.13 2.21
-3 -11 9 55.5 2.32
-3 11 9 56.16 2.31
-1 -11 9 24.38 1.11
-1 11 9 25.29 1.09
1 -11 9 23.05 1.1
1 11 9 25.67 1.08
3 -11 9 56.76 2.39
3 11 9 56.58 2.35
5 -11 9 53.78 2.17
5 11 9 49.67 2.2
5 11 9 49.31 2.11
7 -11 9 61.65 2.53
-7 11 -9 61.37 2.66
7 11 9 60.41 2.59
7 11 9 55 2.45
9 -11 9 88.95 3.56
9 11 9 80.61 3.45
-9 11 -9 86.9 3.78
9 11 9 84.76 3.69
11 -11 9 23.73 1.09
-11 11 -9 21.54 1.08
11 11 9 21.62 1.03
13 -11 9 30.57 1.39
13 11 9 28.66 1.35
-13 11 -9 29.05 1.4
15 -11 9 10.96 0.67
-15 11 -9 10.78 0.64
15 11 9 12.13 0.63
17 -11 9 4.08 0.41
-17 11 -9 3.99 0.35
17 11 9 3.84 0.33
19 11 9 2.84 0.3
-19 11 -9 2.99 0.31
21 11 9 13.47 0.76
-21 11 -9 13.07 0.77
23 -11 9 39 1.92
23 -11 9 38.9 1.76
23 11 9 37.35 1.84
-23 11 -9 37.7 1.87
25 -11 9 26.81 1.28
25 -11 9 27.13 1.47
-25 11 -9 26.44 1.41
25 11 9 27.3 1.39
27 -11 9 45.33 2.02
27 -11 9 43.58 2.2
27 11 9 41.75 2.11
29 -11 9 16.02 0.83
29 11 9 15.32 0.94
-31 11 -9 9.42 0.54
-33 11 -9 2.81 0.29
-35 11 -9 4.42 0.38
-37 11 -9 -0.08 0.14
-39 11 -9 -0.12 0.14
-41 11 -9 1.59 0.21
-43 11 -9 2.99 0.32
-45 11 -9 5.22 0.38
-45 -13 9 3.87 0.33
-45 13 9 3.41 0.32
-43 -13 9 1.53 0.21
-43 13 9 1.28 0.2
-41 -13 9 1.25 0.22
-41 13 9 1.31 0.2
-39 -13 9 -0.26 0.15
-39 13 9 -0.05 0.15
-37 -13 9 -0.13 0.15
-37 13 9 -0.06 0.14
-35 -13 9 1.31 0.21
-35 13 9 1.42 0.22
-33 -13 9 1.14 0.21
-33 13 9 1.55 0.21
-31 -13 9 3.45 0.33
-31 13 9 3.21 0.34
-29 -13 9 10.89 0.61
29 13 -9 11.51 0.76
-29 13 9 10.04 0.6
-27 -13 9 26.84 1.29
-27 13 9 25.14 1.34
27 13 -9 29.62 1.42
-27 13 9 26.45 1.29
-25 -13 9 12.32 0.68
-25 13 9 12.44 0.67
-25 13 9 13.18 0.79
25 13 -9 14.1 0.8
-23 -13 9 19.18 0.95
-23 13 9 17.59 1.01
-23 13 9 19.51 0.94
23 13 -9 20.65 1.05
-21 -13 9 1.54 0.19
21 13 -9 1.28 0.22
19 13 -9 0.22 0.14
17 13 -9 20.49 1.02
15 13 -9 29 1.37
13 13 -9 62.52 2.78
11 13 -9 28.95 1.32
-11 13 9 27.82 1.28
-9 -13 9 117.93 4.48
-9 13 9 104.39 4.74
9 13 -9 109.35 4.77
-7 -13 9 70.37 2.83
7 13 -9 67.11 2.98
-5 -13 9 72.99 3.01
-3 -13 9 49.12 2.09
-3 13 9 50.1 2.08
-1 -13 9 17.82 0.87
-1 -13 9 18.42 0.85
-1 13 9 19.08 0.85
1 -13 9 18.79 0.9
1 -13 9 18.63 0.86
1 13 9 19.37 0.87
3 -13 9 50.5 2.12
3 -13 9 47.05 2.07
3 13 9 47.23 2.03
5 -13 9 72.04 2.98
5 13 9 70.28 2.93
7 -13 9 70.25 2.9
7 13 9 65.16 2.97
-7 13 -9 71.37 3.06
7 13 9 68.28 2.82
9 -13 9 118.94 4.75
-9 13 -9 117.98 5.07
9 13 9 108.54 4.95
11 -13 9 29.55 1.4
11 13 9 29.13 1.36
-11 13 -9 31.4 1.42
13 -13 9 69.67 2.86
-13 13 -9 67.01 2.99
13 13 9 62.57 2.92
15 -13 9 27.32 1.3
15 13 9 26.49 1.26
-15 13 -9 26.06 1.3
17 -13 9 18.99 1.01
17 13 9 18.85 0.95
-17 13 -9 18.65 0.98
19 13 9 0.14 0.13
-19 13 -9 0.07 0.13
21 -13 9 1.09 0.15
21 -13 9 1.43 0.26
-21 13 -9 1.25 0.24
21 13 9 1.38 0.24
23 -13 9 16.13 0.83
23 -13 9 16.83 0.97
-23 13 -9 17.19 0.95
23 13 9 16.34 0.93
25 -13 9 11.85 0.78
25 -13 9 12.07 0.64
25 13 9 11.33 0.74
-25 13 -9 11.25 0.76
27 -13 9 23.86 1.16
27 -13 9 24.73 1.33
-27 13 -9 22.86 1.3
27 13 9 24.28 1.29
29 -13 9 10.34 0.6
29 13 9 9.53 0.71
-33 13 -9 1.28 0.18
-35 13 -9 1.4 0.19
-37 13 -9 -0.13 0.14
-39 13 -9 0.06 0.14
-41 13 -9 1.15 0.19
-43 13 -9 1.28 0.18
-45 13 -9 3.99 0.33
-43 -15 9 0.3 0.17
-43 15 9 0.46 0.15
-41 -15 9 0.69 0.19
-41 15 9 0.63 0.17
-39 -15 9 0.13 0.17
-39 15 9 0 0.15
-37 -15 9 0.07 0.16
-37 15 9 -0.03 0.14
-35 -15 9 0.92 0.19
-35 15 9 0.79 0.18
-33 -15 9 1.34 0.21
-33 15 9 1.08 0.19
-31 -15 9 1.1 0.19
-31 15 9 0.88 0.17
31 15 -9 1.39 0.3
-29 -15 9 5.45 0.41
-29 15 9 5.58 0.39
29 15 -9 5.72 0.55
-29 15 9 5.37 0.57
-27 -15 9 15.92 0.83
-27 15 9 15.48 0.95
-27 15 9 15.26 0.81
27 15 -9 17.05 0.95
-25 -15 9 6.8 0.46
25 15 -9 8.53 0.59
-25 15 9 7.29 0.45
-25 15 9 7.38 0.56
-23 -15 9 12.98 0.67
23 15 -9 13.05 0.76
-23 15 9 12.22 0.65
-23 15 9 11.86 0.75
-21 -15 9 1.14 0.17
21 15 -9 1 0.21
19 15 -9 0.24 0.15
17 15 -9 8.39 0.51
15 15 -9 4.35 0.33
13 15 -9 28.52 1.35
-11 15 9 10.23 0.55
11 15 -9 12.44 0.6
9 15 -9 74.52 3.25
-7 -15 9 35.01 1.51
-5 -15 9 41.04 1.76
-3 -15 9 17.63 0.83
-3 15 9 16.89 0.81
-1 -15 9 8.82 0.5
-1 15 9 8.65 0.47
1 -15 9 8.09 0.49
1 15 9 8.54 0.46
3 -15 9 17.78 0.87
3 15 9 17.83 0.83
5 -15 9 42.34 1.83
5 -15 9 40.58 1.85
5 15 9 43.35 1.8
7 -15 9 34.79 1.6
-7 15 -9 36.04 1.63
9 -15 9 79.12 3.25
9 15 9 73.39 3.32
-9 15 -9 77.82 3.42
11 -15 9 11.27 0.68
11 15 9 11.73 0.58
-11 15 -9 10.81 0.62
13 -15 9 26.57 1.3
-13 15 -9 26.46 1.29
13 15 9 26.41 1.24
15 -15 9 3.24 0.38
15 -15 9 3.43 0.3
15 15 9 3.84 0.29
-15 15 -9 3.53 0.31
17 -15 9 7.42 0.47
-17 15 -9 6.97 0.48
17 15 9 6.7 0.45
19 -15 9 0.45 0.17
-19 15 -9 0.25 0.15
19 15 9 0.4 0.15
21 -15 9 0.8 0.2
21 -15 9 1.05 0.16
-21 15 -9 0.62 0.19
21 15 9 0.98 0.21
23 -15 9 10.99 0.6
23 -15 9 11.37 0.69
-23 15 -9 10.54 0.71
23 15 9 10.65 0.69
25 -15 9 5.87 0.5
25 -15 9 6.34 0.42
-25 15 -9 6.34 0.54
25 15 9 6.15 0.52
27 -15 9 14.25 0.76
27 15 9 14.74 0.89
-27 15 -9 13.76 0.9
29 -15 9 5.55 0.42
29 15 9 4.75 0.52
31 -15 9 1.04 0.2
31 15 9 0.91 0.28
-33 15 -9 1.26 0.18
-35 15 -9 0.54 0.15
-37 15 -9 -0.18 0.13
-39 15 -9 -0.13 0.14
-41 15 -9 0.77 0.17
-43 15 -9 0.33 0.14
-43 -17 9 0.13 0.15
-43 17 9 0.13 0.13
-41 -17 9 0.17 0.17
-41 17 9 0.24 0.15
-39 -17 9 0.09 0.17
-39 17 9 0 0.14
-37 -17 9 -0.12 0.16
-37 17 9 0.14 0.14
-35 -17 9 0.12 0.16
-35 17 9 0 0.15
-33 -17 9 0 0.15
-33 17 9 0.17 0.15
-31 -17 9 -0.27 0.13
31 17 -9 0.06 0.2
-31 17 9 -0.1 0.12
-29 -17 9 0.66 0.17
-29 17 9 0.49 0.14
29 17 -9 0.58 0.25
-27 -17 9 4.14 0.36
27 17 -9 4.89 0.48
-27 17 9 4.18 0.34
-27 17 9 3.94 0.49
-25 -17 9 0.44 0.15
-25 17 9 0.29 0.11
-25 17 9 0.64 0.26
25 17 -9 0.67 0.21
-23 -17 9 1.91 0.22
-23 17 9 2.03 0.32
-23 17 9 2.07 0.22
23 17 -9 2.1 0.29
-21 -17 9 0.9 0.16
-21 17 9 1.01 0.14
21 17 -9 1.09 0.23
-19 -17 9 1.46 0.17
19 17 -9 1.95 0.25
17 17 -9 20.64 1.04
15 17 -9 7.33 0.46
13 17 -9 19.87 0.98
11 17 -9 3.84 0.29
-5 -17 9 37.86 1.64
-3 -17 9 17.56 0.85
-3 17 9 17.81 0.85
-1 -17 9 6.83 0.43
-1 17 9 6.76 0.4
1 -17 9 7.26 0.47
1 17 9 7.37 0.43
3 -17 9 16.39 0.88
3 17 9 19.1 0.85
5 -17 9 39.7 1.81
5 17 9 42.19 1.76
7 -17 9 27.56 1.35
-7 17 -9 30.13 1.36
9 -17 9 39.2 1.83
-9 17 -9 41.94 1.88
11 -17 9 4.63 0.42
11 -17 9 3.79 0.22
11 17 9 3.77 0.27
-11 17 -9 4.06 0.32
13 -17 9 18.97 0.91
13 -17 9 19.58 1.03
-13 17 -9 21.01 1.01
13 17 9 19.31 0.95
15 -17 9 7.16 0.42
15 17 9 7.25 0.45
-15 17 -9 7.93 0.5
17 -17 9 18.62 0.92
-17 17 -9 18.11 0.99
17 17 9 19.38 0.96
19 -17 9 1.52 0.2
19 -17 9 1.22 0.17
19 17 9 1.58 0.23
-19 17 -9 1.55 0.25
21 -17 9 0.69 0.14
21 -17 9 0.68 0.17
21 17 9 0.66 0.19
-21 17 -9 0.54 0.19
23 -17 9 1.81 0.25
23 -17 9 1.6 0.21
-23 17 -9 1.79 0.3
23 17 9 1.54 0.26
25 -17 9 0.46 0.18
25 -17 9 0.54 0.15
-25 17 -9 0.24 0.21
25 17 9 0.15 0.18
27 -17 9 4.41 0.36
27 17 9 3.41 0.41
-27 17 -9 2.65 0.38
29 -17 9 0.35 0.16
29 17 9 0.52 0.24
-29 17 -9 0.58 0.25
31 -17 9 -0.34 0.15
31 17 9 -0.2 0.19
-33 17 -9 0.26 0.14
-35 17 -9 0.22 0.14
-37 17 -9 -0.13 0.13
-39 17 -9 -0.02 0.14
-41 17 -9 0.01 0.13
-43 17 -9 -0.13 0.12
-41 -19 9 0.12 0.15
-41 19 9 -0.02 0.13
-39 -19 9 -0.05 0.16
-39 19 9 0.16 0.15
-37 -19 9 0.06 0.17
-37 19 9 0.08 0.15
-35 -19 9 -0.15 0.15
-35 19 9 -0.03 0.15
-33 -19 9 0.17 0.16
-33 19 9 0.15 0.15
-31 -19 9 0.27 0.15
-31 19 9 0.39 0.16
31 19 -9 0.51 0.24
-29 -19 9 0.05 0.14
-29 19 9 0.31 0.14
29 19 -9 0.46 0.23
-27 -19 9 1.06 0.18
27 19 -9 0.97 0.26
-27 19 9 0.72 0.16
-25 -19 9 -0.03 0.12
25 19 -9 -0.18 0.17
-25 19 9 -0.03 0.22
-25 19 9 0.1 0.11
-23 -19 9 0.53 0.15
-23 19 9 0.69 0.13
-23 19 9 0.53 0.24
23 19 -9 0.65 0.21
-21 -19 9 0.13 0.12
21 19 -9 0.4 0.17
-19 -19 9 -0.06 0.1
19 19 -9 0.09 0.13
-17 -19 9 1.84 0.19
17 19 -9 1.68 0.23
15 19 -9 0.58 0.15
13 19 -9 0.13 0.12
-3 -19 9 1.95 0.24
-3 19 9 1.53 0.21
-1 -19 9 1.83 0.24
-1 19 9 1.67 0.21
1 -19 9 1.58 0.23
1 19 9 1.88 0.22
3 -19 9 1.69 0.25
3 19 9 2.44 0.25
5 -19 9 3.51 0.34
7 -19 9 0.27 0.16
-7 19 -9 0.24 0.1
9 -19 9 0.69 0.21
-9 19 -9 0.39 0.12
11 -19 9 3.24 0.37
11 19 9 2.31 0.21
-11 19 -9 3.56 0.29
-13 19 -9 0.7 0.16
13 19 9 0 0.08
-15 19 -9 0.32 0.14
15 19 9 0.26 0.12
17 -19 9 1.32 0.17
-17 19 -9 1.38 0.23
17 19 9 1.3 0.2
19 -19 9 0.05 0.12
19 -19 9 -0.03 0.08
19 19 9 0.04 0.12
-19 19 -9 -0.1 0.14
21 -19 9 0.09 0.1
21 -19 9 0.13 0.12
21 19 9 -0.11 0.14
-21 19 -9 -0.09 0.15
23 -19 9 0.61 0.16
-23 19 -9 0.65 0.22
23 19 9 0.94 0.23
25 -19 9 0.25 0.14
-25 19 -9 -0.06 0.19
25 19 9 -0.01 0.18
27 -19 9 0.86 0.19
-27 19 -9 0.82 0.26
27 19 9 0.77 0.26
29 -19 9 0.23 0.17
29 19 9 0.18 0.21
31 -19 9 0.28 0.19
31 19 9 0.11 0.23
-33 19 -9 0.02 0.13
-35 19 -9 -0.04 0.13
-37 19 -9 -0.11 0.13
-39 19 -9 0.07 0.14
-41 19 -9 -0.12 0.12
-43 19 -9 0.08 0.12
-41 21 9 -0.1 0.11
-39 -21 9 0.02 0.15
-39 21 9 0.28 0.15
-37 -21 9 -0.03 0.16
-37 21 9 0.29 0.15
-35 -21 9 0.2 0.16
-35 21 9 -0.06 0.15
-33 -21 9 1.3 0.23
-33 21 9 1.61 0.22
-31 -21 9 2.15 0.26
-31 21 9 1.98 0.24
-29 -21 9 4.93 0.41
29 21 -9 5.73 0.55
-29 21 9 4.67 0.39
-27 -21 9 0.71 0.17
27 21 -9 0.77 0.25
-27 21 9 0.59 0.16
-25 -21 9 4.3 0.35
25 21 -9 4.91 0.48
-25 21 9 4.6 0.35
-23 -21 9 0.53 0.15
23 21 -9 0.77 0.22
-23 21 9 0.28 0.23
-21 -21 9 2.3 0.26
21 21 -9 2.18 0.29
-19 -21 9 0.12 0.11
19 21 -9 0.25 0.15
-17 -21 9 0.84 0.15
17 21 -9 0.84 0.19
-15 -21 9 0.91 0.15
15 21 -9 0.99 0.19
13 21 -9 1.41 0.21
-3 -21 9 1.91 0.24
-3 21 9 1.82 0.23
-1 -21 9 -0.1 0.12
-1 21 9 0.15 0.12
1 -21 9 0.31 0.17
1 21 9 0.31 0.14
3 -21 9 1.9 0.28
5 -21 9 3.36 0.36
7 -21 9 15.06 0.83
-7 21 -9 14.77 0.77
-9 21 -9 6.81 0.44
-11 21 -9 12.67 0.7
13 -21 9 1.1 0.18
13 21 9 1.22 0.17
-13 21 -9 1.57 0.22
15 -21 9 0.76 0.15
-15 21 -9 0.61 0.17
15 21 9 0.84 0.16
17 -21 9 0.68 0.17
17 21 9 0.91 0.18
-17 21 -9 0.92 0.22
19 -21 9 0.14 0.14
19 21 9 0.04 0.14
-19 21 -9 0.01 0.16
21 -21 9 1.5 0.2
-21 21 -9 1.9 0.29
21 21 9 1.91 0.28
23 -21 9 0.5 0.17
23 21 9 0.28 0.19
-23 21 -9 0.8 0.25
25 -21 9 4.03 0.36
25 21 9 3.55 0.43
-25 21 -9 3.9 0.47
27 -21 9 0.44 0.18
27 21 9 0.61 0.25
29 -21 9 3.99 0.4
29 21 9 3.42 0.45
31 -21 9 2.1 0.28
-33 21 -9 1.02 0.19
-35 21 -9 0.06 0.14
-37 21 -9 0.1 0.14
-39 21 -9 0.02 0.13
-41 21 -9 -0.18 0.1
-39 23 9 0.28 0.14
-37 -23 9 0.1 0.16
-37 23 9 0.21 0.14
-35 -23 9 0.13 0.17
-35 23 9 0.07 0.14
-33 -23 9 2.4 0.27
-33 23 9 2.21 0.25
-31 -23 9 3.88 0.38
-31 23 9 3.54 0.37
-29 -23 9 7.83 0.51
29 23 -9 7.42 0.64
-29 23 9 7.21 0.49
-27 -23 9 2.26 0.25
27 23 -9 3.07 0.4
-25 -23 9 5.03 0.4
25 23 -9 5.64 0.52
-23 -23 9 0.73 0.15
-23 23 9 0.92 0.35
23 23 -9 0.84 0.22
-21 -23 9 0.55 0.15
21 23 -9 0.82 0.21
-19 -23 9 0.57 0.13
19 23 -9 0.56 0.17
-17 -23 9 2.32 0.25
17 23 -9 2.01 0.26
-15 -23 9 11.78 0.62
15 23 -9 11.21 0.66
-13 -23 9 18.09 0.9
-11 -23 9 41.31 1.9
-5 23 9 9.54 0.57
-3 23 9 5.22 0.4
-1 23 9 0.32 0.15
-7 23 -9 25.06 1.22
9 -23 9 23.16 1.12
-9 23 -9 22.21 1.13
11 -23 9 39.75 1.88
-11 23 -9 41.24 1.92
13 -23 9 17.36 0.89
-13 23 -9 17.53 0.94
15 -23 9 11.2 0.62
-15 23 -9 11.22 0.68
15 23 9 10.16 0.61
17 -23 9 1.36 0.21
-17 23 -9 1.85 0.28
17 23 9 2.09 0.26
19 -23 9 0.4 0.15
-19 23 -9 0.59 0.21
19 23 9 0.45 0.18
21 -23 9 0.7 0.17
-21 23 -9 0.66 0.23
21 23 9 0.41 0.19
23 -23 9 0.54 0.17
-23 23 -9 0.87 0.26
23 23 9 0.86 0.24
25 -23 9 4.37 0.4
25 23 9 4.63 0.5
27 -23 9 2.19 0.27
27 23 9 1.92 0.36
29 -23 9 6.97 0.51
29 23 9 6.52 0.63
31 -23 9 3.38 0.34
-33 23 -9 2.12 0.23
-35 23 -9 0.2 0.15
-37 23 -9 0.13 0.14
-39 23 -9 0.22 0.13
-41 23 -9 0.13 0.13
-33 -25 9 4.3 0.4
-31 -25 9 5.6 0.45
-29 -25 9 12.2 0.71
-27 -25 9 8.86 0.58
27 25 -9 9.19 0.69
-25 -25 9 11.37 0.66
25 25 -9 11.46 0.77
-23 -25 9 5 0.39
23 25 -9 4.96 0.47
-21 -25 9 4.06 0.36
21 25 -9 4.67 0.43
-19 -25 9 0.18 0.12
19 25 -9 0.02 0.14
-17 -25 9 0.38 0.13
17 25 -9 0.25 0.16
-15 -25 9 7.36 0.45
15 25 -9 6.73 0.49
-13 -25 9 12.62 0.67
-11 -25 9 29.21 1.38
-9 -25 9 19.7 0.98
-7 -25 9 29.8 1.4
-7 25 9 29.19 1.4
-5 -25 9 15.82 0.82
-5 25 9 16.42 0.86
-3 25 9 10.33 0.61
-1 25 9 0.16 0.15
3 -25 9 10.44 0.59
5 -25 9 15.73 0.81
7 -25 9 28.34 1.35
-7 25 -9 27.95 1.36
9 -25 9 20.03 0.98
-9 25 -9 18.92 1.01
11 -25 9 28.98 1.37
-11 25 -9 27.74 1.41
13 -25 9 11.96 0.67
-13 25 -9 11.66 0.71
15 -25 9 6.26 0.45
15 25 9 6.53 0.44
-15 25 -9 6.44 0.49
17 -25 9 -0.01 0.15
-17 25 -9 0.48 0.19
17 25 9 0.46 0.16
19 -25 9 0.16 0.16
19 25 9 0.09 0.15
-19 25 -9 0.1 0.16
21 -25 9 3.98 0.37
21 25 9 4 0.42
-21 25 -9 3.28 0.4
23 -25 9 4.5 0.4
23 25 9 4.04 0.45
25 -25 9 10.86 0.65
25 25 9 10.6 0.78
27 -25 9 8.54 0.58
27 25 9 7.66 0.68
29 -25 9 10.86 0.68
31 -25 9 5.18 0.46
-33 25 -9 4.55 0.39
-35 25 -9 0.26 0.15
-37 25 -9 0.16 0.14
-39 25 -9 0.22 0.13
-29 -27 9 9.46 0.6
-27 -27 9 6.87 0.51
-25 -27 9 9.02 0.6
25 27 -9 9.87 0.7
-23 -27 9 2.28 0.26
23 27 -9 2.55 0.35
-21 -27 9 0.71 0.18
21 27 -9 0.92 0.23
-19 -27 9 0.82 0.17
19 27 -9 0.69 0.21
-17 -27 9 3.71 0.33
17 27 -9 3.99 0.38
-17 27 9 3.53 0.46
-15 -27 9 14.81 0.78
-15 27 9 15.05 0.91
-13 -27 9 24.92 1.21
-11 -27 9 45.15 2.1
-11 27 9 46.41 2.1
-9 -27 9 44.7 2.07
-9 27 9 45.38 2.05
-7 -27 9 43.89 2
-7 27 9 42.65 1.97
-5 -27 9 22.52 1.13
-5 27 9 23.98 1.16
-3 -27 9 12.36 0.68
-3 27 9 13.38 0.75
-1 -27 9 0.57 0.15
1 -27 9 0.67 0.16
3 -27 9 13.9 0.75
5 -27 9 22.84 1.13
7 -27 9 43.37 1.95
-7 27 -9 40.14 1.96
9 -27 9 43.63 2.01
-9 27 -9 42.47 2.04
11 -27 9 44.02 2.02
-11 27 -9 42.51 2.06
13 -27 9 24.97 1.21
-13 27 -9 23.69 1.26
15 -27 9 14.36 0.76
-15 27 -9 12.74 0.81
17 -27 9 3.98 0.36
17 27 9 3.31 0.36
-17 27 -9 3.98 0.41
19 -27 9 0.79 0.19
19 27 9 0.94 0.22
-19 27 -9 0.63 0.23
21 -27 9 0.77 0.19
21 27 9 0.53 0.22
23 -27 9 3.35 0.37
23 27 9 2.38 0.36
25 -27 9 8.3 0.56
25 27 9 7.71 0.66
27 -27 9 5.89 0.48
29 -27 9 8.16 0.56
31 -27 9 3.07 0.32
-33 27 -9 3.28 0.36
-35 27 -9 0.33 0.14
-37 27 -9 0.36 0.14
-39 27 -9 0.25 0.12
-25 -29 9 10.92 0.66
-23 -29 9 7.57 0.53
23 29 -9 7.98 0.62
-21 -29 9 4.15 0.39
21 29 -9 3.75 0.42
-19 -29 9 0.2 0.15
19 29 -9 0.29 0.18
-17 -29 9 0.56 0.16
17 29 -9 0.64 0.2
-15 -29 9 5.5 0.4
-13 -29 9 10 0.57
-13 29 9 9.2 0.69
-11 -29 9 15.09 0.8
-11 29 9 15.67 0.92
-9 -29 9 14.1 0.76
-9 29 9 14.83 0.85
-7 -29 9 17.22 0.89
-7 29 9 17.81 0.98
-5 -29 9 9.1 0.55
-5 29 9 9.28 0.67
-3 -29 9 6.94 0.45
-1 -29 9 0 0.12
1 -29 9 -0.12 0.12
3 -29 9 7.39 0.48
5 -29 9 8.93 0.54
-5 29 -9 8.62 0.55
7 -29 9 17.57 0.91
-7 29 -9 17.11 0.92
9 -29 9 15.05 0.81
-9 29 -9 14.72 0.84
11 -29 9 15.24 0.81
-11 29 -9 14.57 0.84
13 -29 9 9.7 0.58
-13 29 -9 8.93 0.62
15 -29 9 5.29 0.42
-15 29 -9 5.15 0.45
17 -29 9 0.44 0.17
17 29 9 0.43 0.18
19 -29 9 0.19 0.16
19 29 9 0.63 0.2
21 -29 9 4.24 0.39
21 29 9 3.39 0.41
23 -29 9 7.4 0.52
23 29 9 6.46 0.59
25 -29 9 10.62 0.66
27 -29 9 8.29 0.57
29 -29 9 6.87 0.51
31 -29 9 4.25 0.44
-31 29 -9 4.47 0.39
-33 29 -9 2.24 0.24
-35 29 -9 0.15 0.13
-37 29 -9 -0.13 0.11
-19 -31 9 0.26 0.17
19 31 -9 0.3 0.19
-17 -31 9 -0.22 0.13
-15 -31 9 1 0.18
-13 -31 9 3.04 0.33
-11 -31 9 7.82 0.49
-9 -31 9 9.48 0.55
-9 31 9 8.48 0.67
-7 -31 9 10.08 0.58
-5 -31 9 6.42 0.44
-3 -31 9 5.66 0.41
-1 -31 9 0.13 0.13
1 -31 9 0.06 0.13
3 -31 9 6.24 0.43
5 -31 9 6.46 0.45
-5 31 -9 6.44 0.45
7 -31 9 10.57 0.62
-7 31 -9 9.97 0.62
9 -31 9 9.79 0.58
-9 31 -9 9.14 0.6
11 -31 9 8.7 0.53
-11 31 -9 6.48 0.51
13 -31 9 3.56 0.36
15 -31 9 1.16 0.21
17 -31 9 -0.03 0.16
19 -31 9 0.22 0.18
19 31 9 0.44 0.2
21 -31 9 2.02 0.27
23 -31 9 3.8 0.4
25 -31 9 5.28 0.48
27 -31 9 2.82 0.31
29 -31 9 2.66 0.3
-31 31 -9 1.46 0.21
-33 31 -9 0.73 0.17
-35 31 -9 -0.03 0.11
-11 -33 9 2.22 0.24
-9 -33 9 1.89 0.22
-7 -33 9 2.08 0.23
-5 -33 9 2.04 0.23
-3 -33 9 1.68 0.22
-1 -33 9 0.06 0.13
1 -33 9 -0.04 0.13
3 -33 9 1.28 0.2
-3 33 -9 1.47 0.21
5 -33 9 1.92 0.23
-5 33 -9 1.56 0.23
7 -33 9 2.41 0.26
-7 33 -9 2.71 0.32
9 -33 9 1.94 0.24
11 -33 9 2.45 0.27
13 -33 9 1.53 0.23
15 -33 9 1.25 0.22
17 -33 9 0.08 0.17
19 -33 9 0.27 0.18
21 -33 9 1.04 0.22
23 -33 9 1.96 0.26
25 -33 9 2.71 0.29
27 -33 9 1.83 0.25
29 -33 9 1.69 0.24
-31 33 -9 0.77 0.17
-33 33 -9 0.56 0.15
-5 -35 9 3.55 0.36
-3 -35 9 1.66 0.22
-1 -35 9 0.14 0.15
1 -35 9 0.17 0.15
3 -35 9 1.5 0.22
5 -35 9 2.82 0.28
7 -35 9 3.91 0.39
9 -35 9 4.24 0.41
11 -35 9 3.57 0.39
13 -35 9 1.21 0.22
15 -35 9 0.77 0.2
17 -35 9 0.09 0.17
19 -35 9 0.06 0.17
21 -35 9 0.1 0.17
23 -35 9 0.21 0.18
25 -35 9 0.13 0.18
27 -35 9 0.09 0.17
-29 35 -9 0.13 0.14
-31 35 -9 0.03 0.13
1 -37 9 0.11 0.16
3 -37 9 -0.02 0.15
5 -37 9 -0.12 0.14
7 -37 9 0.17 0.16
9 -37 9 0.1 0.16
11 -37 9 0.13 0.16
13 -37 9 0.2 0.16
15 -37 9 -0.03 0.15
17 -37 9 0.04 0.16
19 -37 9 0.01 0.16
21 -37 9 -0.08 0.16
23 -37 9 -0.25 0.16
25 -37 9 -0.02 0.15
27 -37 9 -0.01 0.15
-27 37 -9 -0.07 0.12
7 -39 9 -0.11 0.14
9 -39 9 0.02 0.15
11 -39 9 -0.12 0.14
13 -39 9 0.02 0.15
15 -39 9 0.16 0.16
17 -39 9 -0.15 0.14
19 -39 9 -0.05 0.15
21 -39 9 -0.03 0.15
23 -39 9 -0.02 0.14
25 -39 9 0.15 0.14
-46 0 10 0.05 0.13
-44 0 10 -0.08 0.14
-42 0 10 -0.18 0.14
-40 0 10 -0.09 0.15
-38 0 10 0.85 0.2
-36 0 10 0.13 0.16
-34 0 10 0.36 0.17
-32 0 10 0.2 0.15
-30 0 10 1.19 0.18
-28 0 10 0.25 0.14
-26 0 10 0.42 0.14
-24 0 10 0.18 0.12
-20 0 10 1.18 0.2
-18 0 10 1.19 0.2
18 0 -10 1.28 0.17
16 0 -10 1.44 0.16
-16 0 10 1.78 0.22
-14 0 10 17.75 0.82
14 0 -10 16.63 0.81
12 0 -10 0.32 0.09
-12 0 10 0.56 0.14
-10 0 10 44.16 1.85
10 0 -10 43.16 1.93
-8 0 10 -0.03 0.1
8 0 -10 -0.06 0.06
6 0 -10 11.8 0.52
-6 0 10 8.72 0.52
-4 0 10 1.48 0.17
4 0 -10 1.34 0.15
-2 0 10 79.05 3.24
0 0 10 -0.69 0.08
0 0 -10 -0.64 0.04
-2 0 -10 83.45 3.53
2 0 10 79.2 3.33
4 0 10 1.63 0.18
-4 0 -10 1.2 0.15
-4 0 -10 1.1 0.13
4 0 10 1.42 0.14
6 0 10 9.43 0.44
-6 0 -10 7.71 0.47
6 0 10 8.54 0.47
8 0 10 -0.1 0.07
-8 0 -10 -0.05 0.09
8 0 10 0.06 0.11
10 0 10 42 1.82
10 0 10 39.79 1.76
-10 0 -10 40.98 1.88
12 0 10 0.54 0.14
-12 0 -10 0.67 0.14
12 0 10 0.51 0.11
14 0 10 16.33 0.81
14 0 10 16.75 0.8
-14 0 -10 16.44 0.85
-16 0 -10 1.47 0.2
16 0 10 1.41 0.21
16 0 10 1.37 0.17
18 0 10 1.44 0.23
-26 0 -10 0.67 0.13
-28 0 -10 -0.02 0.11
-30 0 -10 1.33 0.18
-32 0 -10 -0.05 0.12
-34 0 -10 0.39 0.15
-36 0 -10 -0.05 0.14
-38 0 -10 1.01 0.19
-46 -2 10 0.08 0.13
-46 2 10 0.11 0.13
-44 -2 10 0.03 0.14
-44 2 10 0.1 0.15
-42 -2 10 -0.01 0.15
-42 2 10 -0.09 0.15
-40 -2 10 0.45 0.17
-40 2 10 0.21 0.17
-38 -2 10 -0.02 0.16
-38 2 10 -0.09 0.15
-36 -2 10 0.73 0.19
-36 2 10 0.99 0.21
-34 -2 10 0.14 0.15
-34 2 10 0.18 0.15
-32 -2 10 3.23 0.31
-32 2 10 3.62 0.35
-30 -2 10 -0.1 0.13
-30 2 10 0.1 0.13
-28 -2 10 12.93 0.7
-28 2 10 13.16 0.7
-26 -2 10 0.07 0.11
-26 2 10 0.08 0.11
-24 -2 10 33.18 1.54
-22 2 10 0.01 0.15
-20 2 10 14.71 0.73
20 2 -10 13.06 0.71
-18 -2 10 -0.1 0.11
18 2 -10 -0.04 0.09
-18 2 10 0.09 0.14
-16 -2 10 35.07 1.51
-16 2 10 36.48 1.53
16 2 -10 32.53 1.57
-14 -2 10 -0.11 0.09
14 2 -10 0.01 0.07
-14 2 10 0.15 0.1
12 -2 -10 12.42 0.61
-12 -2 10 14.07 0.64
12 2 -10 11.58 0.63
-12 2 10 14.04 0.65
10 -2 -10 0.07 0.06
-10 -2 10 0.02 0.09
10 2 -10 0.11 0.08
-10 2 10 0.31 0.12
-8 -2 10 18.07 0.85
8 2 -10 19.95 0.89
-8 2 10 18.69 0.87
-6 -2 10 0.12 0.1
6 2 -10 0.05 0.07
-6 2 10 0.08 0.1
-4 -2 10 90.75 3.77
4 2 -10 96.6 4.01
-4 2 10 91.33 3.78
-2 -2 10 0.05 0.1
-2 2 10 -0.14 0.08
-2 2 10 0.02 0.07
2 2 -10 0.15 0.09
0 -2 10 77.72 3.25
0 2 10 78.12 3.26
0 2 10 81.47 3.45
0 2 -10 80.64 3.45
-2 -2 -10 0.16 0.1
2 -2 10 0.16 0.11
2 2 10 0.05 0.11
-2 2 -10 0.01 0.1
-2 2 -10 0.27 0.09
2 2 10 0.18 0.08
4 -2 10 95.48 3.87
-4 -2 -10 98.57 4.18
-4 2 -10 97.15 4.18
4 2 10 90.54 4.09
4 2 10 92.84 3.85
-6 -2 -10 0.1 0.07
6 -2 10 0.12 0.11
-6 2 -10 0.05 0.08
6 2 10 -0.01 0.09
6 2 10 0.05 0.06
-8 -2 -10 20.59 0.86
8 -2 10 17.89 0.87
8 2 10 18.16 0.87
8 2 10 18.57 0.86
-8 2 -10 17.61 0.91
10 -2 10 0.08 0.12
-10 -2 -10 0.05 0.09
-10 -2 -10 -0.01 0.07
-10 2 -10 0.18 0.1
10 2 10 0.04 0.08
10 2 10 0.14 0.1
-12 -2 -10 14.23 0.7
12 -2 10 13.25 0.64
-12 -2 -10 12.28 0.64
12 -2 10 13.49 0.68
12 2 10 13.23 0.66
-12 2 -10 14.41 0.7
12 2 10 12.3 0.66
-14 -2 -10 -0.01 0.07
14 -2 10 -0.02 0.1
14 2 10 -0.07 0.09
-14 2 -10 0.02 0.09
14 2 10 0.01 0.08
16 -2 10 33.81 1.54
16 2 10 36.57 1.52
16 2 10 32.02 1.56
-16 2 -10 34.43 1.62
18 -2 10 -0.1 0.13
18 2 10 -0.13 0.09
-18 2 -10 0.01 0.12
20 -2 10 13.45 0.74
20 2 10 12.73 0.69
-26 2 -10 0.01 0.09
-28 2 -10 13.12 0.68
-30 2 -10 0.04 0.11
-32 2 -10 3.69 0.34
-34 2 -10 0.08 0.13
-36 2 -10 1.12 0.19
-38 2 -10 -0.02 0.14
-40 2 -10 0.41 0.15
-42 2 -10 -0.1 0.13
-46 -4 10 0.3 0.14
-46 4 10 0.08 0.13
-44 -4 10 -0.07 0.13
-44 4 10 -0.11 0.14
-42 -4 10 -0.13 0.13
-42 4 10 0.13 0.16
-40 -4 10 -0.16 0.14
-40 4 10 -0.14 0.15
-38 -4 10 0.56 0.17
-38 4 10 0.58 0.18
-36 -4 10 -0.1 0.15
-36 4 10 -0.03 0.15
-34 -4 10 0.01 0.15
-34 4 10 0.22 0.16
-32 -4 10 0.01 0.14
-32 4 10 0.01 0.14
-30 -4 10 1.62 0.21
-30 4 10 2.1 0.23
-28 -4 10 0.12 0.12
-28 4 10 -0.1 0.13
-26 -4 10 0.53 0.13
-26 4 10 0.4 0.12
-24 -4 10 0.19 0.11
-24 4 10 0.06 0.11
22 4 -10 0.43 0.15
-22 4 10 0.93 0.21
20 4 -10 0.13 0.12
-20 4 10 0.15 0.14
-18 4 10 0.56 0.17
18 4 -10 0.5 0.14
-16 -4 10 0.58 0.14
16 4 -10 0.67 0.13
-16 4 10 0.65 0.16
-14 -4 10 11.24 0.57
-14 4 10 11.86 0.59
14 4 -10 11.27 0.59
-12 -4 10 0.3 0.1
-12 4 10 0.3 0.11
12 4 -10 0.25 0.09
-10 -4 10 1.22 0.15
10 4 -10 0.74 0.12
-10 4 10 1.1 0.16
-8 -4 10 0.07 0.07
8 4 -10 0.04 0.07
-8 4 10 0.11 0.09
-6 -4 10 58.55 2.46
6 4 -10 60.65 2.62
-6 4 10 60.18 2.48
-4 -4 10 0.06 0.09
-4 4 10 0.03 0.06
4 4 -10 0 0.07
-4 4 10 0.03 0.03
-2 -4 10 89.73 3.78
-2 4 10 95.54 3.79
2 4 -10 93.64 4.01
-2 4 10 93.44 4.01
0 -4 10 1.98 0.19
0 4 10 1.41 0.14
0 4 10 1.69 0.19
0 4 -10 1.3 0.14
2 4 10 90.65 3.77
2 4 10 94.69 4
4 -4 10 0.09 0.09
4 4 10 0.11 0.09
4 4 10 0.1 0.06
-4 4 -10 0.13 0.08
6 -4 10 58.24 2.38
6 4 10 57.31 2.48
-6 4 -10 56.99 2.55
6 4 10 54.69 2.35
8 -4 10 0.14 0.11
8 4 10 0.06 0.07
-8 4 -10 0.08 0.08
8 4 10 0.11 0.08
10 -4 10 1.22 0.18
10 4 10 0.83 0.13
10 4 10 0.98 0.15
12 -4 10 0.27 0.13
12 4 10 0.18 0.09
-12 4 -10 0.2 0.1
12 4 10 0.35 0.11
14 -4 10 12.09 0.65
-14 4 -10 12.31 0.65
14 4 10 12.3 0.61
14 4 10 10.79 0.61
16 -4 10 0.43 0.17
16 4 10 0.82 0.15
-16 4 -10 0.66 0.16
18 -4 10 0.66 0.18
18 4 10 0.58 0.14
-18 4 -10 0.76 0.17
20 -4 10 0.21 0.16
20 4 10 0.25 0.13
-20 4 -10 0.13 0.12
22 4 10 0.57 0.17
-26 4 -10 0.55 0.11
-28 4 -10 0.04 0.11
30 -4 10 1.71 0.47
-30 4 -10 1.75 0.19
-32 4 -10 -0.13 0.11
-34 4 -10 0.12 0.13
-36 4 -10 0.04 0.13
-38 4 -10 0.64 0.17
-40 4 -10 -0.14 0.12
-42 4 -10 -0.09 0.13
-44 4 -10 -0.15 0.13
-46 -6 10 0.05 0.13
-46 6 10 0.12 0.14
-44 -6 10 -0.03 0.14
-44 6 10 -0.18 0.14
-42 -6 10 -0.05 0.14
-42 6 10 -0.18 0.15
-40 -6 10 -0.12 0.14
-40 6 10 -0.27 0.14
-38 -6 10 -0.05 0.15
-38 6 10 -0.02 0.15
-36 -6 10 0.02 0.15
-36 6 10 0.07 0.15
-34 -6 10 -0.28 0.14
-34 6 10 -0.03 0.14
-32 -6 10 1.09 0.19
-32 6 10 1.18 0.2
-30 -6 10 -0.27 0.13
-30 6 10 0 0.12
-28 -6 10 4.63 0.35
-28 6 10 4.49 0.34
-26 -6 10 0.08 0.13
-26 6 10 -0.13 0.09
-24 -6 10 18.53 0.91
24 6 -10 20.01 1
-24 6 10 18.08 0.91
-24 6 10 18.11 0.96
22 6 -10 -0.04 0.12
-22 6 10 0.04 0.15
20 6 -10 8.1 0.52
-20 6 10 8.8 0.53
18 6 -10 0.05 0.11
-18 6 10 0.01 0.14
-16 6 10 30.4 1.36
16 6 -10 30.82 1.43
-14 -6 10 0.1 0.09
14 6 -10 0.11 0.1
-14 6 10 0.1 0.13
-12 -6 10 8.25 0.41
-12 6 10 7.53 0.43
12 6 -10 6.78 0.42
-10 -6 10 -0.04 0.08
-10 6 10 -0.02 0.08
10 6 -10 -0.05 0.08
-8 -6 10 15.62 0.74
-8 6 10 15.92 0.76
8 6 -10 17.15 0.79
-6 -6 10 0.54 0.11
-6 6 10 0.7 0.1
6 6 -10 0.6 0.11
-4 -6 10 57.25 2.39
4 6 -10 59.08 2.53
-4 6 10 60.2 2.41
-4 6 10 55.65 2.52
-2 -6 10 0.1 0.09
-2 6 10 0.13 0.1
-2 6 10 0.05 0.06
2 6 -10 0.12 0.06
0 -6 10 8.19 0.46
0 6 10 9.52 0.48
2 -6 10 0.04 0.1
2 6 10 0.04 0.09
2 6 10 0.17 0.06
-4 6 -10 57.23 2.54
4 6 10 57.98 2.48
4 6 10 55.31 2.35
6 -6 10 0.56 0.14
-6 6 -10 0.47 0.1
6 6 10 0.65 0.1
6 6 10 0.62 0.11
8 -6 10 15.11 0.76
8 6 10 16.8 0.74
8 6 10 14.37 0.71
-8 6 -10 15.01 0.77
10 -6 10 -0.04 0.1
10 6 10 0 0.07
-10 6 -10 -0.06 0.07
10 6 10 -0.02 0.07
12 -6 10 7.74 0.47
-12 6 -10 7.37 0.45
12 6 10 7.07 0.42
12 6 10 7.63 0.42
14 -6 10 0.07 0.14
14 6 10 -0.01 0.09
-14 6 -10 0.01 0.1
16 -6 10 29.73 1.37
-16 6 -10 29.01 1.41
16 6 10 29.12 1.38
18 -6 10 0.12 0.15
-18 6 -10 0.15 0.13
18 6 10 0.01 0.11
20 -6 10 6.92 0.53
20 6 10 7.72 0.5
-20 6 -10 7.92 0.52
-22 6 -10 0.11 0.14
22 6 10 0.11 0.14
24 6 10 17.06 0.93
26 -6 10 0.02 0.12
28 -6 10 5.36 0.63
-28 6 -10 4.96 0.34
30 -6 10 -0.22 0.28
-30 6 -10 -0.2 0.1
-32 6 -10 1.05 0.17
-34 6 -10 -0.06 0.12
-36 6 -10 0.02 0.14
-38 6 -10 -0.09 0.13
-40 6 -10 -0.25 0.13
-42 6 -10 -0.2 0.13
-44 6 -10 -0.11 0.14
-46 -8 10 0.03 0.13
-46 8 10 -0.08 0.13
-44 -8 10 -0.13 0.14
-44 8 10 0.08 0.14
-42 -8 10 -0.19 0.15
-42 8 10 -0.11 0.14
-40 -8 10 -0.22 0.15
-40 8 10 0 0.15
-38 -8 10 -0.3 0.15
-38 8 10 -0.01 0.15
-36 -8 10 -0.13 0.14
-36 8 10 -0.08 0.15
-34 8 10 0.5 0.16
-32 -8 10 -0.13 0.13
-32 8 10 -0.14 0.12
-30 -8 10 -0.15 0.14
-30 8 10 0.17 0.13
-28 -8 10 0 0.13
-28 8 10 -0.22 0.11
-26 -8 10 4.17 0.35
-26 8 10 4.32 0.34
-26 8 10 4.39 0.45
26 8 -10 3.98 0.42
-24 -8 10 -0.06 0.12
24 8 -10 -0.19 0.14
-24 8 10 -0.06 0.11
-24 8 10 -0.05 0.17
-22 8 10 3.74 0.38
22 8 -10 4.27 0.37
20 8 -10 -0.07 0.12
-20 8 10 0.01 0.15
18 8 -10 3.06 0.3
-18 8 10 2.53 0.28
-16 8 10 0.23 0.15
16 8 -10 0.02 0.11
-14 8 10 6.52 0.41
14 8 -10 6.1 0.4
-12 -8 10 0.08 0.1
-12 8 10 0.18 0.12
12 8 -10 0.15 0.1
-10 -8 10 7.92 0.41
10 8 -10 6.91 0.43
-10 8 10 7.81 0.43
-8 -8 10 -0.14 0.07
-8 8 10 -0.14 0.05
8 8 -10 -0.13 0.07
-8 8 10 -0.09 0.07
-6 -8 10 15.61 0.74
6 8 -10 16.76 0.76
-6 8 10 15.59 0.74
-4 -8 10 0.04 0.09
-4 -8 10 0.04 0.08
-4 8 10 0.08 0.09
-4 8 10 0.06 0.06
4 8 -10 0 0.06
-2 -8 10 18.5 0.89
-2 -8 10 21.43 0.94
-2 8 10 19.89 0.9
-2 8 10 18.71 0.89
0 -8 10 -0.05 0.11
0 8 10 -0.05 0.06
0 8 10 0.02 0.11
2 -8 10 17.91 0.88
2 8 10 20.18 0.87
2 8 10 18.83 0.87
4 -8 10 0.13 0.1
4 8 10 0.08 0.06
4 8 10 -0.04 0.08
6 8 10 14.02 0.7
-6 8 -10 14.76 0.75
6 8 10 16.47 0.72
8 -8 10 -0.16 0.1
-8 8 -10 -0.19 0.07
8 8 10 -0.07 0.06
8 8 10 -0.11 0.06
10 -8 10 8.21 0.49
-10 8 -10 7.18 0.44
10 8 10 7.09 0.41
10 8 10 7.56 0.41
12 -8 10 0.03 0.13
12 8 10 0.03 0.09
-12 8 -10 -0.08 0.09
14 -8 10 6.21 0.45
14 8 10 5.81 0.4
-14 8 -10 6.96 0.43
16 -8 10 0.08 0.17
-16 8 -10 0.04 0.12
16 8 10 0.18 0.12
18 -8 10 2.65 0.34
-18 8 -10 2.94 0.3
18 8 10 3.02 0.29
20 -8 10 -0.06 0.14
20 8 10 -0.02 0.12
-20 8 -10 -0.03 0.12
-22 8 -10 3.1 0.35
22 8 10 3.57 0.35
24 -8 10 0.04 0.11
-24 8 -10 -0.26 0.15
24 8 10 -0.06 0.15
26 -8 10 4.31 0.34
26 8 10 2.75 0.36
28 -8 10 -0.1 0.26
28 -8 10 -0.28 0.14
-30 8 -10 0.06 0.12
-32 8 -10 -0.04 0.11
-34 8 -10 0.08 0.13
-36 8 -10 -0.15 0.13
-38 8 -10 -0.11 0.14
-40 8 -10 -0.11 0.13
-42 8 -10 -0.01 0.14
-44 8 -10 -0.19 0.13
-46 -10 10 0.03 0.15
-46 10 10 -0.08 0.12
-44 -10 10 0.01 0.15
-44 10 10 -0.05 0.13
-42 -10 10 -0.15 0.15
-42 10 10 -0.04 0.14
-40 -10 10 -0.23 0.15
-40 10 10 -0.01 0.15
-38 -10 10 -0.04 0.15
-38 10 10 -0.2 0.14
-36 -10 10 0.38 0.16
-36 10 10 0.3 0.17
-34 -10 10 -0.29 0.14
-34 10 10 0.09 0.14
-32 -10 10 1.21 0.2
-32 10 10 1.2 0.19
-30 -10 10 -0.17 0.13
-30 10 10 -0.11 0.11
-28 -10 10 0.52 0.17
-28 10 10 0.58 0.15
28 10 -10 1.04 0.27
-26 -10 10 -0.13 0.14
-26 10 10 0.1 0.12
26 10 -10 0.01 0.17
-26 10 10 0.08 0.22
-24 -10 10 8.87 0.5
24 10 -10 9.75 0.61
-24 10 10 8.45 0.59
-24 10 10 8.38 0.5
-22 -10 10 0.11 0.11
-22 10 10 0.18 0.18
22 10 -10 0.12 0.15
20 10 -10 5.22 0.39
-20 10 10 4.78 0.4
-18 10 10 -0.04 0.13
18 10 -10 0.19 0.13
-16 10 10 49.09 2.11
16 10 -10 48.45 2.21
14 10 -10 0 0.12
-14 10 10 0.34 0.15
12 10 -10 50.7 2.33
-12 10 10 53.73 2.22
-10 -10 10 -0.12 0.09
10 10 -10 -0.02 0.1
-10 10 10 0.01 0.12
-8 -10 10 8.09 0.42
-8 10 10 7.04 0.39
8 10 -10 6.94 0.41
-8 10 10 8.1 0.43
-6 -10 10 -0.05 0.08
-6 10 10 0.01 0.05
-6 10 10 0.04 0.09
6 10 -10 -0.01 0.06
-4 -10 10 1.15 0.15
-4 -10 10 1.15 0.16
4 10 -10 0.93 0.11
-4 10 10 1.11 0.16
-2 -10 10 0.11 0.1
-2 -10 10 0.01 0.08
-2 10 10 0.07 0.1
0 -10 10 41.64 1.85
0 10 10 45.15 1.85
2 -10 10 0.08 0.11
2 10 10 -0.01 0.11
2 10 10 0.11 0.06
4 -10 10 0.95 0.18
4 10 10 1 0.11
4 10 10 0.99 0.15
6 -10 10 0.02 0.1
-6 10 -10 -0.02 0.07
6 10 10 -0.02 0.07
6 10 10 0.05 0.06
8 -10 10 7.75 0.48
8 10 10 7.25 0.4
-8 10 -10 7.43 0.43
8 10 10 7.16 0.4
10 -10 10 0.18 0.15
-10 10 -10 -0.12 0.09
10 10 10 -0.09 0.08
10 10 10 0.03 0.08
12 -10 10 54.65 2.31
-12 10 -10 53.62 2.42
12 10 10 50.84 2.35
14 -10 10 0.04 0.17
14 10 10 0.24 0.12
-14 10 -10 0.03 0.12
16 -10 10 42.02 1.94
-16 10 -10 42.06 2
16 10 10 44.27 1.97
18 -10 10 0.17 0.17
-18 10 -10 -0.15 0.11
18 10 10 0.1 0.12
20 -10 10 4.14 0.41
-20 10 -10 4.43 0.38
20 10 10 4.39 0.37
-22 10 -10 -0.16 0.15
22 10 10 0.06 0.15
24 -10 10 7.63 0.47
-24 10 -10 7.51 0.58
24 10 10 8.55 0.58
26 -10 10 0.43 0.15
26 -10 10 0.07 0.25
26 10 10 -0.35 0.17
28 -10 10 0.96 0.18
28 -10 10 0.96 0.32
28 10 10 0.85 0.26
-30 10 -10 -0.12 0.1
-32 10 -10 1.23 0.17
-34 10 -10 0.21 0.13
-36 10 -10 0.29 0.15
-38 10 -10 -0.13 0.13
-40 10 -10 -0.08 0.14
-42 10 -10 -0.25 0.13
-44 10 -10 -0.12 0.12
-44 -12 10 -0.12 0.15
-44 12 10 0.07 0.13
-42 -12 10 0.07 0.16
-42 12 10 0.03 0.15
-40 -12 10 -0.01 0.16
-40 12 10 -0.15 0.14
-38 -12 10 0.19 0.16
-38 12 10 -0.1 0.14
-36 -12 10 -0.05 0.15
-36 12 10 -0.09 0.14
-34 -12 10 0.25 0.17
-34 12 10 0.27 0.15
-32 -12 10 0.04 0.14
-32 12 10 -0.05 0.13
-30 -12 10 0.69 0.16
30 12 -10 1.54 0.31
-30 12 10 0.62 0.15
-28 -12 10 -0.25 0.13
-28 12 10 -0.14 0.11
28 12 -10 -0.05 0.19
-28 12 10 0 0.21
-26 -12 10 1.16 0.19
26 12 -10 0.77 0.23
-26 12 10 0.57 0.27
-26 12 10 1.24 0.17
-24 -12 10 -0.27 0.12
-24 12 10 -0.02 0.1
24 12 -10 -0.04 0.16
-24 12 10 -0.04 0.18
-22 -12 10 2.99 0.28
-22 12 10 2.46 0.33
22 12 -10 2.66 0.31
20 12 -10 0.09 0.14
-20 12 10 0.08 0.15
-18 12 10 0.08 0.15
18 12 -10 0.14 0.13
16 12 -10 -0.04 0.11
14 12 -10 3.05 0.29
12 12 -10 0.12 0.12
-10 -12 10 52.34 2.06
10 12 -10 46.03 2.18
-10 12 10 48.13 2.15
-8 -12 10 -0.08 0.1
8 12 -10 0.28 0.09
-8 12 10 0.05 0.06
-8 12 10 0.33 0.12
-6 -12 10 8.26 0.43
-6 12 10 7.53 0.37
6 12 -10 6.37 0.38
-6 12 10 8.35 0.43
-4 -12 10 0.14 0.07
-4 -12 10 0.43 0.12
-4 12 10 0.32 0.11
-2 -12 10 13.59 0.69
-2 -12 10 14.51 0.7
-2 12 10 14.53 0.68
0 -12 10 0.42 0.1
0 -12 10 0.6 0.15
0 12 10 0.48 0.13
2 -12 10 14.37 0.73
2 12 10 14.64 0.71
4 -12 10 0.27 0.13
4 12 10 0.35 0.07
4 12 10 0.27 0.11
6 -12 10 7.92 0.48
6 12 10 7.42 0.39
6 12 10 7.54 0.42
-6 12 -10 8.08 0.44
8 -12 10 0.23 0.14
8 12 10 0.19 0.1
-8 12 -10 0.06 0.09
8 12 10 0.09 0.07
10 -12 10 55.34 2.28
-10 12 -10 53.2 2.36
10 12 10 47.75 2.28
12 -12 10 -0.04 0.16
-12 12 -10 0.06 0.12
12 12 10 0.08 0.09
14 -12 10 2.82 0.34
-14 12 -10 3.21 0.31
14 12 10 3.04 0.28
16 -12 10 -0.02 0.14
-16 12 -10 -0.11 0.11
16 12 10 0.09 0.11
18 -12 10 0.23 0.18
-18 12 -10 0.15 0.14
18 12 10 0.02 0.12
-20 12 -10 -0.09 0.13
20 12 10 -0.02 0.12
22 -12 10 2.56 0.27
-22 12 -10 2.26 0.31
22 12 10 2.01 0.3
24 -12 10 -0.03 0.12
24 -12 10 -0.09 0.18
-24 12 -10 -0.21 0.14
24 12 10 -0.02 0.17
26 -12 10 0.54 0.27
26 -12 10 1.28 0.18
26 12 10 0.64 0.24
-26 12 -10 0.88 0.26
28 -12 10 -0.13 0.14
28 12 10 0.04 0.19
30 -12 10 0.7 0.18
-32 12 -10 0.07 0.12
-34 12 -10 0.21 0.13
-36 12 -10 0.05 0.14
-38 12 -10 -0.07 0.14
-40 12 -10 -0.15 0.14
-42 12 -10 0.02 0.14
-44 12 -10 0.06 0.13
-44 -14 10 0.07 0.16
-44 14 10 -0.03 0.13
-42 -14 10 -0.17 0.15
-42 14 10 -0.12 0.13
-40 -14 10 -0.03 0.16
-40 14 10 0.26 0.15
-38 -14 10 0.04 0.15
-38 14 10 -0.06 0.14
-36 -14 10 0.63 0.19
-36 14 10 0.75 0.18
-34 -14 10 -0.04 0.15
-34 14 10 -0.13 0.13
-32 -14 10 1.99 0.26
-32 14 10 1.93 0.23
-30 -14 10 0.02 0.14
-30 14 10 -0.03 0.12
30 14 -10 0.09 0.19
-28 -14 10 -0.15 0.14
-28 14 10 0.01 0.12
28 14 -10 0.11 0.2
-28 14 10 0.21 0.21
-26 -14 10 -0.06 0.13
-26 14 10 -0.02 0.11
-26 14 10 -0.06 0.22
26 14 -10 0.09 0.19
-24 -14 10 0.37 0.15
-24 14 10 0.51 0.24
24 14 -10 0.65 0.21
-24 14 10 0.36 0.12
-22 -14 10 -0.16 0.12
22 14 -10 0.04 0.14
-22 14 10 0.03 0.09
-22 14 10 -0.04 0.16
-20 -14 10 0.03 0.11
20 14 -10 0.03 0.13
-20 14 10 0.22 0.17
18 14 -10 -0.02 0.11
16 14 -10 0.75 0.16
14 14 -10 -0.05 0.1
12 14 -10 2.44 0.26
10 14 -10 0.21 0.1
-10 14 10 0.07 0.07
-8 -14 10 6.14 0.38
-8 14 10 6.14 0.32
8 14 -10 5.05 0.34
-6 -14 10 0.1 0.11
-6 14 10 0.15 0.12
-4 -14 10 11.94 0.62
-4 14 10 12.32 0.61
-2 -14 10 0.14 0.11
-2 14 10 -0.08 0.1
0 -14 10 17.62 0.85
0 -14 10 17.18 0.8
0 14 10 17.47 0.82
2 -14 10 0.06 0.06
2 -14 10 -0.01 0.12
2 14 10 -0.03 0.11
4 -14 10 12.24 0.68
4 -14 10 13.23 0.62
4 14 10 13.12 0.65
6 -14 10 0.16 0.15
6 14 10 0.06 0.06
6 14 10 0.05 0.1
8 -14 10 7.12 0.46
8 14 10 5.73 0.34
-8 14 -10 5.81 0.39
10 -14 10 0.02 0.17
-10 14 -10 0.07 0.11
10 14 10 0.07 0.09
12 -14 10 3.19 0.36
-12 14 -10 3.23 0.3
12 14 10 2.96 0.25
14 -14 10 -0.16 0.14
14 14 10 -0.06 0.08
-14 14 -10 0.12 0.11
16 -14 10 0.55 0.21
16 14 10 0.53 0.14
-16 14 -10 0.63 0.16
-18 14 -10 0.12 0.14
18 14 10 -0.02 0.12
20 -14 10 0.02 0.15
20 -14 10 0.22 0.12
-20 14 -10 -0.28 0.12
20 14 10 -0.12 0.12
22 -14 10 0.02 0.12
22 -14 10 -0.15 0.16
-22 14 -10 0.11 0.17
22 14 10 0 0.15
24 -14 10 0.47 0.21
24 -14 10 0.33 0.14
24 14 10 0.64 0.2
-24 14 -10 0.43 0.19
26 -14 10 0.14 0.13
26 -14 10 -0.17 0.19
-26 14 -10 -0.36 0.17
26 14 10 -0.34 0.15
28 -14 10 -0.07 0.14
28 14 10 -0.1 0.18
-28 14 -10 -0.24 0.18
30 -14 10 -0.11 0.15
30 14 10 -0.17 0.18
-32 14 -10 1.51 0.19
-34 14 -10 -0.05 0.12
-36 14 -10 0.91 0.18
-38 14 -10 -0.16 0.14
-40 14 -10 -0.07 0.14
-42 14 -10 -0.28 0.12
-44 14 -10 0.07 0.12
-44 16 10 -0.03 0.14
-42 -16 10 -0.04 0.16
-42 16 10 0.3 0.14
-40 -16 10 -0.02 0.16
-40 16 10 0.1 0.15
-38 -16 10 0.1 0.17
-38 16 10 0.23 0.16
-36 -16 10 0.1 0.16
-36 16 10 -0.01 0.14
-34 -16 10 0.42 0.16
-34 16 10 0.24 0.16
-32 -16 10 -0.04 0.15
-32 16 10 -0.01 0.13
-30 -16 10 1.19 0.2
30 16 -10 1.73 0.33
-30 16 10 0.93 0.17
-28 -16 10 -0.03 0.14
-28 16 10 -0.16 0.23
-28 16 10 -0.14 0.11
28 16 -10 0.06 0.19
-26 -16 10 0.4 0.15
26 16 -10 0.34 0.21
-26 16 10 0.48 0.24
-26 16 10 0.34 0.13
-24 -16 10 -0.11 0.13
24 16 -10 -0.12 0.16
-24 16 10 0 0.18
-24 16 10 -0.03 0.1
-22 -16 10 0.97 0.17
-22 16 10 0.83 0.14
22 16 -10 0.86 0.21
-22 16 10 0.71 0.23
-20 -16 10 0.12 0.12
20 16 -10 -0.2 0.13
-20 16 10 0.12 0.17
18 16 -10 0.45 0.16
16 16 -10 -0.03 0.11
14 16 -10 0.72 0.16
-12 16 10 0.13 0.08
12 16 -10 0.03 0.1
10 16 -10 43.91 1.97
-6 -16 10 29.32 1.35
-6 16 10 31.96 1.37
-4 -16 10 0.83 0.17
-4 16 10 0.61 0.15
-2 -16 10 35.86 1.61
-2 16 10 37.19 1.59
0 -16 10 1.71 0.24
0 16 10 1.56 0.21
2 -16 10 33.77 1.58
2 16 10 37.13 1.56
4 -16 10 0.58 0.18
4 16 10 0.88 0.17
6 -16 10 29.95 1.42
6 -16 10 32.04 1.35
6 16 10 30.27 1.36
8 -16 10 0.1 0.16
-8 16 -10 0.12 0.11
8 16 10 0.17 0.07
10 -16 10 44.56 1.98
10 16 10 44.23 1.95
-10 16 -10 42.8 2.02
12 -16 10 0.04 0.15
-12 16 -10 -0.07 0.1
12 16 10 0 0.08
14 -16 10 0.71 0.14
14 -16 10 0.59 0.2
14 16 10 0.68 0.14
-14 16 -10 0.56 0.15
16 -16 10 -0.07 0.11
16 -16 10 0.03 0.17
16 16 10 -0.13 0.09
-16 16 -10 -0.07 0.11
18 -16 10 0.5 0.13
18 -16 10 0.41 0.15
-18 16 -10 0.09 0.14
18 16 10 0.31 0.15
20 -16 10 0.01 0.13
20 -16 10 0.26 0.12
-20 16 -10 -0.3 0.12
20 16 10 -0.09 0.12
22 -16 10 0.57 0.2
22 -16 10 1.07 0.17
22 16 10 0.75 0.2
-22 16 -10 0.6 0.2
24 -16 10 -0.07 0.15
24 -16 10 0.11 0.13
-24 16 -10 0.09 0.18
24 16 10 0 0.17
26 -16 10 0.36 0.14
26 16 10 0.05 0.19
-26 16 -10 0.26 0.2
28 -16 10 -0.12 0.15
28 16 10 -0.2 0.17
-28 16 -10 0.17 0.21
30 -16 10 0.82 0.2
30 16 10 1.13 0.28
-32 16 -10 -0.09 0.12
-34 16 -10 0.31 0.14
-36 16 -10 0.01 0.13
-38 16 -10 0.12 0.15
-40 16 -10 -0.15 0.13
-42 16 -10 0.07 0.13
-44 16 -10 0.08 0.13
-42 -18 10 -0.1 0.14
-42 18 10 0.07 0.13
-40 -18 10 0.03 0.16
-40 18 10 0 0.13
-38 -18 10 0.05 0.17
-38 18 10 -0.05 0.14
-36 -18 10 0.51 0.18
-36 18 10 0.54 0.17
-34 -18 10 0.03 0.16
-34 18 10 -0.08 0.14
-32 -18 10 0.73 0.19
32 18 -10 1.05 0.3
-32 18 10 0.67 0.17
-30 -18 10 -0.19 0.13
30 18 -10 0.08 0.21
-30 18 10 -0.21 0.12
-28 -18 10 0.63 0.15
28 18 -10 0.72 0.25
-28 18 10 0.55 0.15
-26 -18 10 -0.01 0.13
-26 18 10 0.02 0.24
26 18 -10 0.12 0.19
-26 18 10 0.11 0.12
-24 -18 10 -0.14 0.11
-24 18 10 0.1 0.11
24 18 -10 0.2 0.18
-24 18 10 0.23 0.2
-22 -18 10 -0.04 0.1
-22 18 10 -0.02 0.21
22 18 -10 -0.05 0.15
-20 -18 10 0.15 0.12
-20 18 10 0.23 0.2
20 18 -10 0.42 0.17
-18 -18 10 0.01 0.11
18 18 -10 -0.07 0.12
16 18 -10 0.24 0.14
14 18 -10 -0.09 0.11
12 18 -10 0.08 0.11
10 18 -10 0.04 0.09
-6 18 10 -0.17 0.12
-4 -18 10 0.79 0.18
-4 18 10 0.67 0.17
-2 -18 10 -0.13 0.12
-2 18 10 -0.04 0.11
0 -18 10 1.31 0.21
0 18 10 1.28 0.19
2 -18 10 -0.05 0.15
2 18 10 -0.07 0.12
4 -18 10 0.74 0.21
4 18 10 1.06 0.18
6 -18 10 0.13 0.16
8 -18 10 2.95 0.34
-8 18 -10 2.99 0.27
10 -18 10 0.25 0.17
10 18 10 0.08 0.08
-10 18 -10 0.05 0.1
12 -18 10 0.34 0.18
12 -18 10 0.1 0.05
-12 18 -10 -0.03 0.11
12 18 10 0.07 0.09
14 -18 10 -0.08 0.17
14 -18 10 0 0.07
-14 18 -10 -0.11 0.1
14 18 10 0.12 0.1
16 -18 10 0.29 0.1
16 -18 10 0.19 0.11
16 18 10 0.12 0.12
-16 18 -10 0.21 0.15
18 -18 10 0 0.09
18 -18 10 0.05 0.12
18 18 10 -0.09 0.12
-18 18 -10 -0.2 0.13
20 -18 10 0.25 0.14
20 -18 10 0.25 0.13
-20 18 -10 -0.07 0.16
20 18 10 -0.04 0.14
22 -18 10 0.28 0.14
22 -18 10 -0.06 0.11
-22 18 -10 -0.03 0.18
22 18 10 -0.23 0.13
24 -18 10 0.04 0.13
24 -18 10 0.1 0.13
24 18 10 -0.01 0.16
-24 18 -10 0.15 0.18
26 -18 10 0.3 0.15
-26 18 -10 0.11 0.22
26 18 10 0.11 0.18
28 -18 10 0.56 0.18
28 18 10 0.3 0.22
-28 18 -10 0.65 0.25
30 -18 10 -0.04 0.16
30 18 10 -0.17 0.2
32 -18 10 0.86 0.22
32 18 10 1.07 0.31
-32 18 -10 0.6 0.17
-34 18 -10 0.02 0.13
-36 18 -10 0.23 0.14
-38 18 -10 -0.24 0.13
-40 18 -10 -0.19 0.12
-42 18 -10 -0.11 0.12
-40 -20 10 -0.04 0.15
-40 20 10 -0.14 0.12
-38 -20 10 0.47 0.18
-38 20 10 0.21 0.15
-36 -20 10 -0.15 0.16
-36 20 10 -0.13 0.13
-34 -20 10 1.02 0.21
-34 20 10 1.06 0.2
-32 -20 10 -0.04 0.15
-32 20 10 -0.23 0.14
-30 -20 10 0.13 0.15
-30 20 10 -0.17 0.13
30 20 -10 0.13 0.21
-28 -20 10 0.06 0.13
28 20 -10 0.01 0.19
-28 20 10 -0.06 0.12
-26 -20 10 0.53 0.15
26 20 -10 0.79 0.25
-26 20 10 0.45 0.14
-24 -20 10 -0.07 0.11
24 20 -10 -0.23 0.15
-24 20 10 0.03 0.2
-22 -20 10 0.14 0.11
-22 20 10 0.14 0.2
22 20 -10 0.16 0.16
-20 -20 10 0.06 0.1
-20 20 10 0.01 0.21
20 20 -10 -0.25 0.13
-18 -20 10 0.15 0.11
18 20 -10 0.09 0.13
-16 -20 10 0.07 0.11
16 20 -10 0.05 0.12
14 20 -10 0.01 0.12
12 20 -10 0.02 0.11
-6 20 10 7.97 0.49
-4 -20 10 0.23 0.14
-4 20 10 0.37 0.15
-2 -20 10 13.35 0.73
-2 20 10 14.3 0.73
0 -20 10 0.74 0.19
0 20 10 0.82 0.17
2 -20 10 13.49 0.78
2 20 10 15.19 0.75
4 -20 10 0.08 0.15
6 -20 10 6.99 0.5
8 -20 10 -0.01 0.15
-8 20 -10 -0.09 0.09
10 -20 10 4.93 0.44
-10 20 -10 4.52 0.36
-12 20 -10 0.02 0.11
12 20 10 0.12 0.09
14 -20 10 0.12 0.12
-14 20 -10 0.03 0.13
14 20 10 -0.06 0.1
16 -20 10 0.15 0.12
-16 20 -10 -0.09 0.13
16 20 10 -0.16 0.09
18 -20 10 0.06 0.13
-18 20 -10 0.16 0.16
18 20 10 0.12 0.14
20 -20 10 -0.01 0.13
20 20 10 -0.27 0.12
-20 20 -10 -0.36 0.14
22 -20 10 0.29 0.13
-22 20 -10 0.15 0.2
22 20 10 0.1 0.17
24 -20 10 0.02 0.14
-24 20 -10 0.13 0.19
24 20 10 -0.11 0.16
26 -20 10 0.4 0.16
26 20 10 0.4 0.22
-26 20 -10 0.09 0.21
28 -20 10 -0.11 0.16
28 20 10 0.01 0.2
30 -20 10 -0.05 0.18
30 20 10 -0.02 0.2
32 -20 10 -0.17 0.17
-34 20 -10 0.95 0.18
-36 20 -10 -0.1 0.13
-38 20 -10 0.12 0.14
-40 20 -10 -0.03 0.12
-42 20 -10 -0.04 0.12
-40 -22 10 -0.09 0.13
-40 22 10 -0.01 0.12
-38 -22 10 0.01 0.15
-38 22 10 -0.07 0.13
-36 -22 10 0.01 0.16
-36 22 10 0.08 0.14
-34 -22 10 -0.15 0.15
-34 22 10 0.09 0.15
-32 -22 10 0.17 0.17
-32 22 10 0.06 0.15
-30 -22 10 0.08 0.16
-30 22 10 -0.11 0.13
-28 -22 10 0.32 0.16
28 22 -10 0.34 0.23
-26 -22 10 0.15 0.14
26 22 -10 0.05 0.18
-24 -22 10 0.16 0.13
24 22 -10 0.15 0.19
-22 -22 10 -0.03 0.11
-22 22 10 0.18 0.21
22 22 -10 -0.07 0.15
-20 -22 10 0.26 0.12
-20 22 10 0.48 0.23
20 22 -10 0.26 0.16
-18 -22 10 0.11 0.11
-18 22 10 -0.26 0.17
18 22 -10 -0.06 0.12
-16 -22 10 0.91 0.16
16 22 -10 0.9 0.19
-14 -22 10 0.17 0.12
14 22 -10 0.01 0.12
-12 -22 10 3.14 0.28
-8 22 10 3.71 0.35
-6 22 10 0.01 0.15
-4 22 10 0.33 0.17
-2 -22 10 0.29 0.14
-2 22 10 0.02 0.14
0 -22 10 1.32 0.23
0 22 10 1.1 0.21
2 -22 10 0.2 0.16
4 -22 10 0.19 0.17
6 -22 10 -0.01 0.18
8 -22 10 3.29 0.39
-8 22 -10 3.81 0.31
10 -22 10 0.15 0.11
-10 22 -10 0.12 0.12
12 -22 10 2.11 0.24
-12 22 -10 2.33 0.28
12 22 10 2.43 0.24
14 -22 10 -0.15 0.13
-14 22 -10 -0.08 0.12
14 22 10 0.09 0.11
16 -22 10 0.62 0.16
-16 22 -10 0.52 0.2
16 22 10 0.7 0.17
18 -22 10 -0.02 0.13
18 22 10 -0.14 0.12
-18 22 -10 0.01 0.16
20 -22 10 0.22 0.15
-20 22 -10 -0.05 0.16
20 22 10 0.04 0.15
22 -22 10 -0.1 0.13
-22 22 -10 -0.22 0.17
22 22 10 -0.09 0.16
24 -22 10 0.19 0.16
24 22 10 0.21 0.19
-24 22 -10 0.02 0.21
26 -22 10 0.05 0.16
26 22 10 -0.3 0.17
28 -22 10 0.28 0.18
28 22 10 0.49 0.24
30 -22 10 0.08 0.19
32 -22 10 0.33 0.2
-34 22 -10 -0.15 0.14
-36 22 -10 0.08 0.14
-38 22 -10 -0.09 0.12
-40 22 -10 0.16 0.12
-36 -24 10 0.03 0.15
-34 -24 10 0.92 0.2
-32 -24 10 0.05 0.17
-30 -24 10 0.22 0.18
-28 -24 10 -0.07 0.16
28 24 -10 0.08 0.2
-26 -24 10 -0.03 0.15
26 24 -10 0.37 0.22
-24 -24 10 -0.12 0.14
24 24 -10 0.02 0.17
-22 -24 10 0.06 0.13
22 24 -10 0.04 0.17
-20 -24 10 0.14 0.12
20 24 -10 -0.17 0.14
-20 24 10 -0.55 0.18
-18 -24 10 0.18 0.12
18 24 -10 0.05 0.14
-18 24 10 -0.06 0.21
-16 -24 10 0.11 0.12
-16 24 10 -0.11 0.21
16 24 -10 -0.04 0.13
-14 -24 10 0.46 0.15
14 24 -10 0.97 0.19
-14 24 10 0.47 0.23
-12 -24 10 -0.03 0.11
-12 24 10 -0.26 0.17
-10 -24 10 8.1 0.49
-10 24 10 8.58 0.59
-8 -24 10 -0.06 0.12
-8 24 10 -0.26 0.16
-6 -24 10 17.59 0.9
-6 24 10 17.18 0.9
-4 24 10 -0.16 0.15
-2 24 10 31.08 1.44
0 24 10 0.28 0.17
6 -24 10 16.8 0.85
-6 24 -10 15.81 0.85
8 -24 10 0.14 0.14
-8 24 -10 0.12 0.12
10 -24 10 7.99 0.5
-10 24 -10 7.61 0.52
12 -24 10 -0.19 0.13
-12 24 -10 0.15 0.14
14 -24 10 0.32 0.16
-14 24 -10 0.38 0.17
14 24 10 0.75 0.17
16 -24 10 0.05 0.15
-16 24 -10 -0.3 0.12
16 24 10 -0.1 0.11
18 -24 10 -0.26 0.11
18 24 10 0.32 0.17
-18 24 -10 -0.02 0.15
20 -24 10 -0.1 0.15
20 24 10 -0.17 0.14
-20 24 -10 -0.14 0.15
22 -24 10 -0.06 0.14
-22 24 -10 0.09 0.2
22 24 10 0.1 0.17
24 -24 10 0.17 0.16
24 24 10 0.11 0.19
26 -24 10 0.21 0.18
26 24 10 -0.01 0.21
28 -24 10 0.01 0.19
28 24 10 0.16 0.23
30 -24 10 0.13 0.2
32 -24 10 0.01 0.2
-34 24 -10 0.87 0.18
-36 24 -10 0.03 0.13
-38 24 -10 0.15 0.13
-40 24 -10 -0.04 0.11
-34 -26 10 0.23 0.17
-32 -26 10 0.04 0.17
-30 -26 10 -0.21 0.17
-28 -26 10 0.17 0.18
-26 -26 10 -0.15 0.16
26 26 -10 0.37 0.22
-24 -26 10 0.17 0.16
24 26 -10 0.04 0.18
-22 -26 10 -0.05 0.14
22 26 -10 -0.1 0.16
-20 -26 10 0.53 0.16
20 26 -10 0.59 0.2
-18 -26 10 0.1 0.13
-18 26 10 0.12 0.22
18 26 -10 0.07 0.15
-16 -26 10 0.46 0.14
16 26 -10 0.51 0.18
-16 26 10 0.36 0.23
-14 -26 10 0.05 0.12
-14 26 10 0.17 0.24
-12 -26 10 1.12 0.17
-12 26 10 1.03 0.29
-10 -26 10 0.26 0.13
-10 26 10 -0.11 0.2
-8 -26 10 4.09 0.34
-8 26 10 3.97 0.4
-6 -26 10 -0.13 0.11
-6 26 10 0.07 0.18
-4 -26 10 0.28 0.14
-4 26 10 0.51 0.22
-2 -26 10 -0.03 0.12
-2 26 10 0.02 0.16
0 -26 10 0.3 0.14
2 -26 10 -0.02 0.12
4 -26 10 0.74 0.16
6 -26 10 0.1 0.13
-6 26 -10 -0.06 0.11
8 -26 10 4.43 0.37
-8 26 -10 4.1 0.36
10 -26 10 0.2 0.15
-10 26 -10 -0.01 0.13
12 -26 10 0.94 0.21
-12 26 -10 1.05 0.21
14 -26 10 -0.3 0.13
-14 26 -10 0.13 0.15
16 -26 10 0.39 0.18
16 26 10 0.4 0.16
-16 26 -10 0.29 0.19
18 -26 10 0.24 0.16
-18 26 -10 -0.15 0.15
18 26 10 -0.07 0.14
20 -26 10 0.62 0.17
-20 26 -10 0.17 0.2
20 26 10 0.36 0.19
22 -26 10 0.23 0.16
22 26 10 0.04 0.17
24 -26 10 0.19 0.17
24 26 10 0.14 0.21
26 -26 10 -0.03 0.18
26 26 10 0 0.19
28 -26 10 0.09 0.2
30 -26 10 -0.02 0.2
32 -26 10 0.09 0.2
-32 26 -10 0.29 0.15
-34 26 -10 0.18 0.14
-36 26 -10 -0.01 0.13
-38 26 -10 -0.02 0.12
-30 -28 10 0.09 0.17
-28 -28 10 0.01 0.17
-26 -28 10 -0.04 0.17
-24 -28 10 -0.34 0.16
24 28 -10 -0.03 0.19
-22 -28 10 0.12 0.17
22 28 -10 0.08 0.18
-20 -28 10 -0.06 0.13
20 28 -10 0.04 0.16
-18 -28 10 0.66 0.16
18 28 -10 0.5 0.19
-16 -28 10 -0.16 0.12
-16 28 10 0.1 0.21
16 28 -10 -0.05 0.14
-14 -28 10 -0.13 0.12
-14 28 10 -0.19 0.22
-12 -28 10 -0.01 0.13
-12 28 10 -0.01 0.21
-10 -28 10 0.8 0.17
-10 28 10 0.95 0.29
-8 -28 10 -0.34 0.12
-8 28 10 0 0.21
-6 -28 10 3.37 0.34
-6 28 10 4.47 0.45
-4 28 10 -0.26 0.18
-2 -28 10 10.04 0.59
0 -28 10 -0.14 0.13
2 -28 10 11.2 0.64
4 -28 10 -0.1 0.13
6 -28 10 4.79 0.38
-6 28 -10 4.26 0.37
8 -28 10 0.01 0.15
-8 28 -10 -0.22 0.12
10 -28 10 0.87 0.19
-10 28 -10 0.92 0.2
12 -28 10 0.01 0.15
-12 28 -10 -0.07 0.13
14 -28 10 -0.18 0.14
-14 28 -10 -0.14 0.14
16 -28 10 -0.04 0.15
16 28 10 0.04 0.14
-16 28 -10 0.09 0.16
18 -28 10 0.55 0.17
18 28 10 0.62 0.2
20 -28 10 0.25 0.16
20 28 10 -0.04 0.16
22 -28 10 0.54 0.19
22 28 10 0.31 0.21
24 -28 10 0.04 0.18
24 28 10 -0.2 0.2
26 -28 10 0.17 0.2
28 -28 10 -0.04 0.19
30 -28 10 -0.21 0.19
-32 28 -10 0 0.14
-34 28 -10 0.11 0.14
-36 28 -10 0.02 0.12
-38 28 -10 -0.02 0.11
-26 -30 10 0.07 0.19
-24 -30 10 -0.02 0.17
-22 -30 10 -0.37 0.15
-20 -30 10 -0.18 0.15
20 30 -10 -0.11 0.16
-18 -30 10 -0.2 0.13
18 30 -10 0.13 0.16
-16 -30 10 1.04 0.19
-14 -30 10 -0.09 0.13
-12 -30 10 0.56 0.16
-12 30 10 0.98 0.32
-10 -30 10 -0.06 0.13
-10 30 10 -0.08 0.22
-8 -30 10 -0.01 0.14
-8 30 10 0.27 0.24
-6 -30 10 -0.03 0.12
-4 -30 10 1.73 0.22
-2 -30 10 -0.21 0.12
0 -30 10 0.98 0.18
2 -30 10 0.04 0.13
4 -30 10 1.66 0.22
-4 30 -10 1.89 0.25
6 -30 10 -0.05 0.13
-6 30 -10 0.02 0.12
8 -30 10 0.31 0.15
-8 30 -10 0.27 0.15
10 -30 10 0.07 0.15
-10 30 -10 0.06 0.15
12 -30 10 0.83 0.2
-12 30 -10 1.02 0.22
14 -30 10 0.13 0.16
-14 30 -10 -0.1 0.15
16 -30 10 0.87 0.19
18 -30 10 0.06 0.16
18 30 10 0.03 0.16
20 -30 10 0.04 0.17
20 30 10 0.03 0.16
22 -30 10 0.08 0.18
24 -30 10 0.34 0.2
26 -30 10 -0.06 0.19
28 -30 10 0.16 0.2
30 -30 10 -0.1 0.19
-32 30 -10 0.05 0.13
-34 30 -10 0.02 0.13
-36 30 -10 0.01 0.11
-20 -32 10 -0.28 0.15
-18 -32 10 0.64 0.19
18 32 -10 1.24 0.25
-16 -32 10 -0.13 0.14
-14 -32 10 1.97 0.24
-12 -32 10 -0.29 0.13
-10 -32 10 1.45 0.21
-8 -32 10 -0.04 0.12
-6 -32 10 0.87 0.17
-4 -32 10 -0.03 0.12
-2 -32 10 3.09 0.33
0 -32 10 0.16 0.14
2 -32 10 2.9 0.31
4 -32 10 -0.16 0.13
-4 32 -10 0.11 0.12
6 -32 10 1.12 0.2
-6 32 -10 1.32 0.22
8 -32 10 -0.2 0.14
-8 32 -10 -0.06 0.13
10 -32 10 1.08 0.2
12 -32 10 0.03 0.15
14 -32 10 1.95 0.25
16 -32 10 -0.03 0.17
18 -32 10 0.84 0.21
18 32 10 0.78 0.21
20 -32 10 0.35 0.19
22 -32 10 0.2 0.19
24 -32 10 -0.07 0.19
26 -32 10 -0.38 0.18
28 -32 10 -0.41 0.17
30 -32 10 -0.2 0.17
-32 32 -10 -0.1 0.13
-34 32 -10 0.09 0.12
-14 -34 10 -0.14 0.14
-12 -34 10 0.21 0.15
-10 -34 10 0.03 0.13
-8 -34 10 -0.04 0.13
-6 -34 10 -0.1 0.13
-4 -34 10 0.13 0.14
-2 -34 10 0.17 0.14
0 -34 10 0.4 0.15
2 -34 10 0.29 0.15
4 -34 10 0.18 0.16
6 -34 10 -0.12 0.14
8 -34 10 0.23 0.16
10 -34 10 -0.17 0.15
12 -34 10 0.33 0.18
14 -34 10 0.09 0.18
16 -34 10 0.01 0.17
18 -34 10 -0.22 0.16
20 -34 10 1.01 0.22
22 -34 10 0.14 0.19
24 -34 10 0.75 0.21
26 -34 10 -0.03 0.17
28 -34 10 -0.05 0.16
-30 34 -10 0.08 0.13
-32 34 -10 0.17 0.13
-8 -36 10 -0.18 0.14
-6 -36 10 0.11 0.15
-4 -36 10 0.06 0.15
-2 -36 10 1.1 0.19
0 -36 10 0.11 0.15
2 -36 10 0.91 0.2
4 -36 10 -0.04 0.16
6 -36 10 0.18 0.16
8 -36 10 -0.08 0.15
10 -36 10 0.19 0.17
12 -36 10 0.02 0.16
14 -36 10 0.72 0.2
16 -36 10 0 0.16
18 -36 10 0.48 0.18
20 -36 10 -0.18 0.17
22 -36 10 -0.25 0.16
24 -36 10 -0.49 0.15
26 -36 10 -0.09 0.16
28 -36 10 -0.14 0.15
-28 36 -10 -0.23 0.12
0 -38 10 0.99 0.2
2 -38 10 0.02 0.15
4 -38 10 0.59 0.18
6 -38 10 0.05 0.16
8 -38 10 0.17 0.16
10 -38 10 -0.02 0.15
12 -38 10 0.2 0.16
14 -38 10 -0.03 0.15
16 -38 10 0.04 0.16
18 -38 10 -0.11 0.15
20 -38 10 -0.04 0.16
22 -38 10 0.04 0.16
24 -38 10 -0.11 0.15
26 -38 10 0.1 0.14
6 -40 10 0.03 0.15
8 -40 10 0.07 0.15
10 -40 10 -0.09 0.14
12 -40 10 0.11 0.15
14 -40 10 -0.05 0.15
16 -40 10 -0.18 0.14
18 -40 10 -0.24 0.14
20 -40 10 -0.17 0.13
22 -40 10 -0.37 0.12
-47 -1 11 -0.02 0.12
-47 1 11 0.07 0.13
-45 -1 11 0.03 0.14
-45 1 11 -0.1 0.14
-43 -1 11 0.03 0.14
-43 1 11 0.03 0.15
-41 -1 11 0.09 0.16
-41 1 11 -0.18 0.14
-39 -1 11 -0.05 0.14
-39 1 11 0.01 0.16
-37 -1 11 0.04 0.16
-37 1 11 0.23 0.16
-35 -1 11 -0.1 0.15
-35 1 11 0.01 0.14
-33 -1 11 -0.06 0.14
-33 1 11 0.12 0.14
-31 -1 11 0.21 0.15
-31 1 11 0.16 0.14
-29 -1 11 0.19 0.13
-29 1 11 0.15 0.14
-27 -1 11 0.46 0.15
-27 1 11 0.41 0.15
-25 -1 11 0.67 0.14
-25 1 11 0.42 0.13
-21 1 11 0.31 0.16
-19 -1 11 1.22 0.21
19 1 -11 1.28 0.18
-19 1 11 1.35 0.22
-17 -1 11 4.06 0.33
17 1 -11 4.03 0.29
-17 1 11 4.37 0.34
-15 -1 11 6.06 0.39
15 -1 -11 5.92 0.35
15 1 -11 6.24 0.36
-15 1 11 6.11 0.4
-13 -1 11 11.64 0.62
13 -1 -11 12.64 0.6
13 1 -11 12.65 0.62
-13 1 11 11.98 0.63
11 -1 -11 18.12 0.85
-11 -1 11 18.1 0.85
11 1 -11 19.49 0.86
-11 1 11 17.5 0.86
-9 -1 11 25.45 1.1
9 -1 -11 25.24 1.11
9 1 -11 24.13 1.12
-9 1 11 24.19 1.11
-7 -1 11 29.33 1.36
7 -1 -11 33.09 1.4
7 1 -11 32.72 1.42
-7 1 11 30.93 1.37
5 -1 -11 29.58 1.29
-5 -1 11 27.55 1.25
5 1 -11 30.11 1.31
-5 1 11 28.53 1.26
-3 -1 11 17.78 0.85
3 -1 -11 19.05 0.86
3 1 -11 19.66 0.88
-3 1 11 19.13 0.86
1 -1 -11 2.6 0.19
1 -1 -11 1.87 0.19
-1 -1 11 2.11 0.2
-1 1 11 2.25 0.17
1 1 -11 2.5 0.18
-1 1 11 2.09 0.2
-1 -1 -11 2.32 0.17
1 -1 11 2.06 0.2
-1 1 -11 2.36 0.21
1 1 11 1.97 0.17
-1 1 -11 2.76 0.18
1 1 11 1.73 0.2
-3 -1 -11 18.83 0.83
3 -1 11 17.9 0.84
3 1 11 17.36 0.84
3 1 11 18.46 0.83
-3 1 -11 18.72 0.84
-3 1 -11 17.3 0.88
5 -1 11 28.63 1.26
-5 -1 -11 30.45 1.28
5 -1 11 28.62 1.27
-5 -1 -11 25.05 1.32
5 1 11 28.46 1.25
-5 1 -11 29.24 1.34
5 1 11 27.41 1.28
-5 1 -11 30.16 1.28
-7 -1 -11 34.15 1.4
7 -1 11 30.54 1.39
7 -1 11 30.08 1.37
7 1 11 30.58 1.4
7 1 11 31.01 1.37
-7 1 -11 30.79 1.46
9 -1 11 23.56 1.09
-9 -1 -11 26.34 1.09
-9 -1 -11 22.93 1.13
9 -1 11 23.7 1.08
9 1 11 23 1.07
-9 1 -11 23.14 1.14
9 1 11 23.09 1.09
-11 -1 -11 20.95 0.85
-11 -1 -11 17.24 0.89
11 -1 11 18.51 0.84
11 -1 11 16.92 0.86
-11 1 -11 16.66 0.89
11 1 11 17.3 0.85
11 1 11 16.81 0.85
13 -1 11 11.26 0.56
13 -1 11 10.77 0.61
-13 -1 -11 10.79 0.61
13 1 11 10.86 0.59
-13 1 -11 11.59 0.62
13 1 11 11.03 0.57
15 -1 11 5.83 0.41
15 -1 11 5.86 0.37
15 1 11 6.07 0.41
15 1 11 5.84 0.37
-15 1 -11 5.37 0.4
17 -1 11 4.01 0.35
17 1 11 3.94 0.33
-17 1 -11 3.66 0.34
17 1 11 3.78 0.3
19 -1 11 0.96 0.21
-27 1 -11 0.66 0.13
-29 1 -11 0.03 0.11
-31 1 -11 0.16 0.13
-33 1 -11 0.16 0.13
-35 1 -11 0.23 0.14
-37 1 -11 -0.11 0.13
-39 1 -11 0.05 0.14
-47 -3 11 0.55 0.15
-47 3 11 0.14 0.14
-45 -3 11 0.96 0.17
-45 3 11 0.6 0.18
-43 -3 11 0.24 0.16
-43 3 11 0.16 0.16
-41 -3 11 0.21 0.16
-41 3 11 0.12 0.16
-39 -3 11 -0.11 0.15
-39 3 11 0.02 0.15
-37 -3 11 0.04 0.15
-37 3 11 0.1 0.16
-35 -3 11 1.35 0.22
-35 3 11 1.43 0.23
-33 -3 11 1.73 0.23
-33 3 11 1.47 0.22
-31 -3 11 6.36 0.44
-31 3 11 5.98 0.44
-29 -3 11 10.71 0.59
-29 3 11 9.32 0.58
-27 -3 11 19.62 0.97
-27 3 11 19.24 0.96
-25 -3 11 13.09 0.68
-25 3 11 13.06 0.68
-21 3 11 5.29 0.41
21 3 -11 4.59 0.36
-19 3 11 0.45 0.17
19 3 -11 0.37 0.13
-17 -3 11 3.62 0.3
17 3 -11 3.21 0.27
-17 3 11 3.34 0.3
-15 -3 11 3.83 0.29
15 3 -11 3.54 0.28
-15 3 11 4.09 0.33
-13 -3 11 20.22 0.9
-13 3 11 20.37 0.92
13 3 -11 17.86 0.92
-11 -3 11 22.68 1
-11 3 11 22.06 1.01
11 3 -11 21.73 1.03
-9 -3 11 57.79 2.34
-9 3 11 57.21 2.36
9 3 -11 53.78 2.47
-7 -3 11 52.56 2.18
7 3 -11 52.84 2.31
-7 3 11 51.9 2.2
-5 -3 11 46.6 1.96
5 3 -11 46.66 2.07
-5 3 11 47.2 1.98
-3 -3 11 32.86 1.38
3 3 -11 31.27 1.43
-3 3 11 32.01 1.43
-1 -3 11 17.55 0.82
1 3 -11 18.42 0.84
-1 3 11 18.18 0.84
1 3 11 17.03 0.81
1 3 11 17.31 0.81
-1 3 -11 18.06 0.81
3 -3 11 33.16 1.4
3 3 11 30.24 1.43
-3 3 -11 34.47 1.49
-3 3 -11 30.05 1.42
3 3 11 32.82 1.38
-5 -3 -11 46.83 2.09
5 -3 11 47.24 1.96
-5 3 -11 48.37 2.1
5 3 11 43.72 1.94
5 3 11 44.71 2.03
7 -3 11 53.2 2.18
-7 -3 -11 53.33 2.31
7 3 11 49.37 2.15
-7 3 -11 51.59 2.32
7 3 11 48.99 2.25
9 -3 11 56.4 2.34
-9 -3 -11 55.55 2.4
9 3 11 53.02 2.42
9 3 11 52.78 2.3
-9 3 -11 57.24 2.49
11 -3 11 22.49 1.04
-11 -3 -11 22.12 0.99
11 3 11 20.96 1.02
11 3 11 21.06 1
-11 3 -11 22.4 1.07
-13 -3 -11 19.32 0.9
13 -3 11 20.22 0.96
13 3 11 18.74 0.94
13 3 11 19.33 0.92
-13 3 -11 20 0.98
-15 -3 -11 3.56 0.25
15 -3 11 3.57 0.33
15 3 11 3.78 0.31
-15 3 -11 3.68 0.31
15 3 11 3.76 0.29
17 -3 11 3.81 0.33
17 3 11 3.01 0.28
-17 3 -11 3.01 0.31
19 -3 11 0.53 0.18
19 3 11 0.18 0.12
-19 3 -11 0.4 0.15
21 -3 11 4.39 0.4
21 3 11 4.55 0.35
25 -3 11 12.53 0.68
-25 3 -11 12.92 0.64
-27 3 -11 19.88 0.96
-29 3 -11 10.14 0.56
-31 3 -11 6.5 0.42
-33 3 -11 1.39 0.19
-35 3 -11 1.91 0.23
-37 3 -11 0.27 0.15
-39 3 -11 0.06 0.14
-41 3 -11 0.25 0.14
-45 -5 11 3.02 0.32
-45 5 11 1.64 0.23
-43 -5 11 1 0.19
-43 5 11 0.86 0.2
-41 -5 11 0.43 0.17
-41 5 11 0.42 0.18
-39 -5 11 -0.11 0.15
-39 5 11 -0.09 0.15
-37 -5 11 0.12 0.15
-37 5 11 -0.06 0.15
-35 -5 11 2.74 0.29
-35 5 11 3.28 0.35
-33 -5 11 1.44 0.21
-33 5 11 1.56 0.21
-31 -5 11 7.62 0.49
-31 5 11 7.44 0.49
-29 -5 11 9.81 0.56
-29 5 11 8.94 0.56
-27 -5 11 29.35 1.35
-27 5 11 27.07 1.34
-25 -5 11 18.92 0.92
-25 5 11 18.22 0.92
-23 -5 11 20.08 0.91
23 5 -11 17.77 0.95
-23 5 11 16.48 0.93
21 5 -11 7.89 0.5
-21 5 11 7.91 0.52
19 5 -11 0.38 0.14
-19 5 11 0.42 0.17
-17 5 11 9.22 0.55
17 5 -11 10.23 0.56
-15 -5 11 15.26 0.73
15 5 -11 15.99 0.78
-15 5 11 14.67 0.76
-13 -5 11 32.94 1.42
-13 5 11 33.67 1.45
13 5 -11 32.51 1.51
-11 -5 11 27.12 1.18
11 5 -11 26.08 1.24
-11 5 11 27.3 1.2
-9 5 11 54.43 2.21
9 5 -11 50.71 2.32
-7 -5 11 58.94 2.47
-7 5 11 59.91 2.49
7 5 -11 60.47 2.63
-5 -5 11 66.43 2.75
-5 5 11 67.43 2.91
5 5 -11 66.88 2.92
-3 -5 11 46.04 1.89
-3 5 11 44.01 1.97
-3 5 11 47.82 1.91
3 5 -11 42.34 1.97
-1 -5 11 28.34 1.26
-1 5 11 29.96 1.28
1 5 -11 29.83 1.3
-1 5 11 28.29 1.3
1 -5 11 28.98 1.27
1 5 11 28.3 1.3
1 5 11 29.61 1.27
-3 5 -11 50.13 2.13
3 5 11 45.56 2.06
3 5 11 45.05 1.97
5 -5 11 61.92 2.71
-5 5 -11 69.92 2.92
5 5 11 63.94 2.69
5 5 11 64.61 2.84
7 -5 11 62.22 2.48
-7 5 -11 58.52 2.64
7 5 11 56.4 2.43
7 5 11 57.56 2.57
9 -5 11 52.11 2.19
9 5 11 49.6 2.15
9 5 11 49.68 2.26
-9 5 -11 53.59 2.33
11 -5 11 27.29 1.24
11 5 11 25.99 1.23
-11 5 -11 26.88 1.27
11 5 11 25.93 1.18
13 -5 11 33.38 1.5
-13 5 -11 31.83 1.55
13 5 11 33.56 1.44
13 5 11 32.59 1.51
15 -5 11 13.63 0.76
15 5 11 14.53 0.74
-15 5 -11 14.03 0.76
17 -5 11 8.99 0.57
17 5 11 9.56 0.54
-17 5 -11 8.54 0.55
19 -5 11 0.21 0.18
19 5 11 0.3 0.14
-19 5 -11 0.61 0.17
21 -5 11 7.89 0.55
21 5 11 7.05 0.48
-21 5 -11 7.05 0.5
23 5 11 16.42 0.88
25 -5 11 16.79 0.84
-27 5 -11 29.37 1.37
-29 5 -11 10.32 0.56
-31 5 -11 7.38 0.45
-33 5 -11 1.79 0.21
-35 5 -11 3.91 0.35
-37 5 -11 -0.09 0.13
-39 5 -11 -0.04 0.14
-41 5 -11 0.78 0.17
-43 5 -11 1.21 0.19
-45 -7 11 4.68 0.35
-45 7 11 3.4 0.36
-43 -7 11 2.28 0.24
-43 7 11 1.7 0.23
-41 -7 11 1.31 0.21
-41 7 11 0.83 0.2
-39 -7 11 -0.19 0.14
-39 7 11 -0.2 0.15
-37 -7 11 -0.05 0.15
-37 7 11 -0.1 0.14
-35 -7 11 4.23 0.38
-35 7 11 4.34 0.39
-33 -7 11 1.96 0.25
-33 7 11 2.29 0.25
-31 -7 11 10.61 0.61
-31 7 11 10.42 0.61
-29 -7 11 18.89 0.95
-29 7 11 18.86 0.96
-27 -7 11 56.6 2.54
-27 7 11 55.01 2.54
-25 -7 11 35.79 1.64
-25 7 11 33.21 1.64
-25 7 11 34.56 1.63
25 7 -11 36.78 1.71
-23 -7 11 50.59 2.22
-23 7 11 46.94 2.16
23 7 -11 48.56 2.25
21 7 -11 24.31 1.2
-21 7 11 23.86 1.17
-19 7 11 5.21 0.39
19 7 -11 4.92 0.38
-17 7 11 1.81 0.25
17 7 -11 1.62 0.21
-15 7 11 3.8 0.32
15 7 -11 3.98 0.31
-13 -7 11 12.9 0.62
-13 7 11 11.82 0.64
13 7 -11 12.74 0.65
-11 -7 11 12.49 0.61
11 7 -11 12.35 0.64
-11 7 11 12.27 0.63
-9 -7 11 60.3 2.49
-9 7 11 61.02 2.51
9 7 -11 59.27 2.66
-7 -7 11 77.09 3.05
7 7 -11 70.5 3.23
-7 7 11 74.81 3.22
-5 -7 11 61.94 2.46
5 7 -11 58.18 2.59
-5 7 11 57.36 2.57
-3 -7 11 50.48 2.14
3 7 -11 49.96 2.24
-3 7 11 50.44 2.24
-3 7 11 54.37 2.16
-1 -7 11 31.58 1.41
-1 7 11 33.31 1.42
-1 7 11 32.58 1.44
1 -7 11 31.07 1.4
1 7 11 33.23 1.41
1 7 11 32.26 1.43
3 -7 11 51.01 2.15
3 7 11 51.18 2.23
3 7 11 50.16 2.13
5 7 11 55.69 2.42
-5 7 -11 61.49 2.63
5 7 11 58 2.55
7 -7 11 76.33 3.07
7 7 11 68.3 3.01
-7 7 -11 75.46 3.28
7 7 11 73.71 3.2
9 -7 11 63.97 2.55
9 7 11 58.01 2.48
9 7 11 59.35 2.63
-9 7 -11 57.64 2.69
11 -7 11 13.14 0.69
11 7 11 12.4 0.62
11 7 11 12.4 0.63
-11 7 -11 11.47 0.66
13 -7 11 12.62 0.69
13 7 11 12.66 0.65
-13 7 -11 11.47 0.66
15 -7 11 3.4 0.34
-15 7 -11 3.04 0.3
15 7 11 3.34 0.29
17 -7 11 1.48 0.26
17 7 11 1.7 0.21
-17 7 -11 1.43 0.21
19 -7 11 4.54 0.41
19 7 11 4.83 0.38
-19 7 -11 4.49 0.38
21 -7 11 19.99 1.08
21 7 11 21.5 1.06
-21 7 -11 19.83 1.08
-23 7 -11 41.11 2.03
23 7 11 43.17 1.99
25 -7 11 30.59 1.46
25 7 11 32.01 1.55
27 -7 11 50.51 2.3
29 -7 11 16.51 1.17
-29 7 -11 18.22 0.88
-31 7 -11 11.25 0.62
-33 7 -11 2.73 0.29
-35 7 -11 4.71 0.38
-37 7 -11 -0.21 0.13
-39 7 -11 0.01 0.14
-41 7 -11 1.03 0.19
-43 7 -11 3.02 0.31
-45 7 -11 4.27 0.35
-45 -9 11 5.52 0.38
-45 9 11 4.28 0.39
-43 -9 11 3.34 0.33
-43 9 11 2.22 0.25
-41 -9 11 1.62 0.23
-41 9 11 1.49 0.22
-39 -9 11 -0.02 0.15
-39 9 11 -0.05 0.15
-37 -9 11 0.01 0.15
-37 9 11 0.02 0.15
-35 -9 11 3.92 0.38
-35 9 11 3.67 0.37
-33 -9 11 1.8 0.24
-33 9 11 2.2 0.24
-31 -9 11 8.52 0.53
-31 9 11 8.64 0.54
-29 -9 11 16.81 0.87
-29 9 11 16.92 0.87
-27 -9 11 48.92 2.26
-27 9 11 48.12 2.26
27 9 -11 51.51 2.34
-25 -9 11 30.94 1.44
-25 9 11 29.5 1.47
25 9 -11 32.19 1.52
-25 9 11 29.51 1.43
-23 -9 11 43.79 1.96
-23 9 11 42.35 1.95
-23 9 11 39.8 1.92
23 9 -11 44.89 2.02
-21 9 11 14.41 0.81
21 9 -11 16.18 0.84
19 9 -11 3.27 0.32
-19 9 11 3.15 0.34
17 9 -11 4.71 0.36
-17 9 11 4.13 0.35
15 9 -11 12.69 0.67
-15 9 11 12.17 0.66
-13 9 11 30.02 1.34
13 9 -11 29.59 1.39
-11 -9 11 23.76 1.05
-11 9 11 23.02 1.07
11 9 -11 23.18 1.11
-9 -9 11 94.54 3.58
-9 9 11 82.83 3.78
-9 9 11 92.01 3.6
9 9 -11 80.71 3.81
-7 -9 11 60.53 2.42
-7 9 11 61.12 2.44
7 9 -11 56.5 2.56
-7 9 11 54.89 2.54
-5 -9 11 54.69 2.2
5 9 -11 49.47 2.3
-5 9 11 49.8 2.29
-5 9 11 56.2 2.21
-3 -9 11 60.93 2.59
-3 -9 11 56.83 2.4
-3 9 11 57.84 2.41
-3 9 11 56.12 2.51
3 9 -11 56.5 2.51
-1 -9 11 23.47 1.13
-1 9 11 25.77 1.14
-1 9 11 27.3 1.15
1 -9 11 24.03 1.14
1 9 11 25.59 1.14
1 9 11 26.05 1.14
3 -9 11 56.62 2.41
3 9 11 57.43 2.38
3 9 11 57.03 2.49
5 -9 11 52.06 2.2
5 9 11 51.12 2.26
5 9 11 50.27 2.15
-5 9 -11 52.19 2.33
7 -9 11 61.51 2.5
-7 9 -11 59.56 2.64
7 9 11 57.76 2.57
7 9 11 55.82 2.43
9 -9 11 89.12 3.59
9 9 11 84.53 3.73
9 9 11 85.26 3.51
-9 9 -11 84.61 3.82
11 -9 11 23.2 1.13
11 9 11 23.17 1.1
11 9 11 23.84 1.05
-11 9 -11 23.28 1.15
13 -9 11 29.95 1.41
-13 9 -11 29.72 1.43
13 9 11 29.95 1.4
15 -9 11 10.68 0.67
15 9 11 12.34 0.64
-15 9 -11 11.05 0.65
17 -9 11 4.31 0.42
17 9 11 3.98 0.33
-17 9 -11 3.84 0.35
19 -9 11 2.81 0.36
-19 9 -11 3.01 0.32
19 9 11 2.8 0.31
21 -9 11 12.89 0.8
21 9 11 12.6 0.75
-21 9 -11 13.63 0.78
23 -9 11 36.15 1.67
-23 9 -11 36.08 1.79
23 9 11 36.6 1.76
25 -9 11 26.25 1.26
25 9 11 26.66 1.36
27 -9 11 43.82 1.98
27 -9 11 43.96 2.23
27 9 11 41.3 2.07
29 -9 11 15.63 0.82
-31 9 -11 8.44 0.5
-33 9 -11 3.2 0.3
-35 9 -11 4.21 0.36
-37 9 -11 -0.04 0.14
-39 9 -11 0.07 0.14
-41 9 -11 1.34 0.2
-43 9 -11 3.12 0.32
-45 9 -11 4.99 0.38
-45 -11 11 5.03 0.37
-45 11 11 4.47 0.36
-43 -11 11 2.15 0.23
-43 11 11 1.64 0.22
-41 -11 11 1.63 0.22
-41 11 11 1.23 0.21
-39 -11 11 -0.12 0.15
-39 11 11 -0.16 0.14
-37 -11 11 -0.4 0.14
-37 11 11 -0.1 0.14
-35 -11 11 3.57 0.35
-35 11 11 2.38 0.27
-33 -11 11 2.49 0.28
-33 11 11 3.05 0.32
-31 -11 11 6.29 0.43
-31 11 11 5.61 0.42
-29 -11 11 17.29 0.91
29 11 -11 19.71 1.05
-29 11 11 17.39 0.91
-27 -11 11 47.73 2.24
27 11 -11 53.75 2.34
-27 11 11 47.09 2.23
-27 11 11 47.1 2.23
-25 -11 11 39.74 1.83
-25 11 11 38.39 1.84
25 11 -11 41.16 1.91
-25 11 11 38.92 1.82
-23 -11 11 64.32 2.81
-23 11 11 58.54 2.8
-23 11 11 58.73 2.71
23 11 -11 68.15 2.88
-21 -11 11 25.9 1.24
-21 11 11 25.33 1.27
21 11 -11 27.44 1.31
19 11 -11 15.66 0.79
-19 11 11 12.89 0.76
17 11 -11 0.17 0.13
-17 11 11 0.1 0.14
-15 11 11 3.32 0.31
15 11 -11 3.19 0.31
13 11 -11 1.15 0.18
-13 11 11 0.76 0.19
-11 -11 11 7.35 0.39
-11 11 11 6.46 0.41
11 11 -11 4.98 0.39
-9 -11 11 23.52 1.07
-9 11 11 24.11 1.09
9 11 -11 23.62 1.12
-9 11 11 23.62 1.09
-7 -11 11 12.45 0.62
-7 11 11 12.33 0.6
-7 11 11 12.76 0.63
7 11 -11 12.34 0.62
-5 -11 11 27.12 1.21
-5 11 11 28 1.21
-5 11 11 27.08 1.22
5 11 -11 26.7 1.23
-3 -11 11 22.95 1.06
-3 11 11 22.6 1.05
-3 11 11 24.6 1.06
-1 -11 11 19.14 0.9
-1 -11 11 18.38 0.88
-1 11 11 18.72 0.88
-1 11 11 18.3 0.85
1 -11 11 17.23 0.89
1 11 11 19.22 0.89
1 11 11 19.87 0.86
3 -11 11 22.55 1.05
3 11 11 23.53 1.02
3 11 11 21.49 1.02
5 -11 11 27.05 1.24
5 11 11 26.51 1.2
5 11 11 27.42 1.22
7 -11 11 12.19 0.66
-7 11 -11 12.11 0.64
7 11 11 11.54 0.59
7 11 11 12.63 0.6
9 -11 11 24.33 1.14
9 11 11 22.8 1.05
-9 11 -11 23.6 1.14
9 11 11 23.24 1.09
11 -11 11 6.8 0.48
-11 11 -11 6.97 0.43
11 11 11 5.37 0.37
13 -11 11 1.03 0.24
-13 11 -11 1.3 0.19
13 11 11 0.85 0.16
15 -11 11 3.51 0.38
15 11 11 2.9 0.28
-15 11 -11 3.04 0.31
17 -11 11 -0.07 0.15
-17 11 -11 0.19 0.14
17 11 11 0.14 0.12
19 -11 11 12.59 0.78
-19 11 -11 13.41 0.76
19 11 11 12.61 0.72
21 11 11 22.9 1.16
-21 11 -11 21.65 1.17
23 -11 11 55.24 2.46
23 11 11 56.11 2.53
-23 11 -11 51.39 2.56
25 -11 11 34.46 1.58
25 -11 11 33.6 1.77
25 11 11 34.56 1.69
-25 11 -11 32.09 1.7
27 -11 11 43.06 1.96
27 -11 11 42.34 2.16
27 11 11 41.49 2.05
29 -11 11 16.68 0.87
-31 11 -11 5.98 0.4
-33 11 -11 2.96 0.3
-35 11 -11 3.29 0.34
-37 11 -11 -0.35 0.13
-39 11 -11 -0.15 0.14
-41 11 -11 1.7 0.21
-43 11 -11 1.99 0.21
-45 11 -11 4.89 0.37
-43 -13 11 1.55 0.22
-43 13 11 0.79 0.17
-41 -13 11 1.2 0.21
-41 13 11 0.71 0.18
-39 -13 11 -0.12 0.16
-39 13 11 0 0.15
-37 -13 11 -0.12 0.15
-37 13 11 -0.04 0.14
-35 -13 11 1.1 0.21
-35 13 11 0.81 0.18
-33 -13 11 1.53 0.22
-33 13 11 1.62 0.22
-31 -13 11 1.56 0.22
-31 13 11 1.41 0.2
-29 -13 11 10.44 0.61
-29 13 11 9.77 0.58
29 13 -11 10.06 0.72
-27 -13 11 23.3 1.17
-27 13 11 24 1.17
-27 13 11 23.9 1.28
27 13 -11 26.07 1.3
-25 -13 11 17.56 0.9
25 13 -11 19.17 1.01
-25 13 11 17.41 0.88
-25 13 11 16.97 0.99
-23 -13 11 28.4 1.35
-23 13 11 28.1 1.33
-23 13 11 26.22 1.38
23 13 -11 31.12 1.44
-21 -13 11 7.08 0.44
21 13 -11 8.69 0.55
-21 13 11 7.34 0.53
19 13 -11 4.05 0.36
-19 13 11 3.99 0.39
17 13 -11 7.5 0.48
-17 13 11 7.1 0.49
15 13 -11 2.35 0.26
-15 13 11 2.28 0.27
13 13 -11 12.53 0.7
-13 13 11 14.13 0.71
11 13 -11 0.76 0.15
-11 13 11 1.45 0.22
-11 13 11 0.89 0.13
-9 -13 11 30.7 1.31
-9 13 11 27.87 1.33
9 13 -11 29.08 1.37
-9 13 11 31.19 1.33
-7 -13 11 12.22 0.62
-7 13 11 12.56 0.63
7 13 -11 12.87 0.61
-7 13 11 10.92 0.58
-5 -13 11 33.04 1.43
-5 13 11 34.48 1.44
5 13 -11 31.15 1.45
-5 13 11 32.14 1.44
-3 -13 11 19.8 0.93
-3 13 11 21.19 0.94
-3 13 11 19.05 0.89
-1 -13 11 12.56 0.62
-1 -13 11 11.82 0.64
-1 13 11 12.24 0.59
-1 13 11 12.51 0.63
1 -13 11 10.9 0.63
1 -13 11 12.65 0.6
1 13 11 12.13 0.57
1 13 11 12.7 0.63
3 -13 11 20.97 0.99
3 13 11 19.55 0.91
3 13 11 20.61 0.95
5 -13 11 32.42 1.46
5 13 11 33.3 1.41
5 13 11 30.47 1.42
7 -13 11 12.11 0.67
-7 13 -11 11.24 0.64
7 13 11 11.96 0.6
7 13 11 12.5 0.59
9 -13 11 30.16 1.41
9 13 11 29.35 1.37
-9 13 -11 31.25 1.44
11 -13 11 0.95 0.23
-11 13 -11 0.71 0.17
11 13 11 0.7 0.14
13 -13 11 13.97 0.78
13 13 11 12.97 0.69
-13 13 -11 12.7 0.73
15 -13 11 2.57 0.34
-15 13 -11 2.24 0.26
15 13 11 2.66 0.26
17 -13 11 5.74 0.5
-17 13 -11 6.5 0.47
17 13 11 6.58 0.44
19 -13 11 3.07 0.41
-19 13 -11 2.82 0.32
19 13 11 3.02 0.31
21 -13 11 7.26 0.43
21 13 11 6.72 0.5
-21 13 -11 6.91 0.53
23 -13 11 24.59 1.2
23 -13 11 27.65 1.37
23 13 11 24.36 1.29
-23 13 -11 24.01 1.32
25 -13 11 15.73 0.96
25 -13 11 15.23 0.8
-25 13 -11 15.62 0.94
25 13 11 15.62 0.91
27 -13 11 21.77 1.06
27 13 11 20.44 1.17
-27 13 -11 21.19 1.2
29 -13 11 9.44 0.56
29 13 11 8.24 0.67
31 -13 11 1.09 0.21
-31 13 -11 1.62 0.19
-33 13 -11 1.65 0.21
-35 13 -11 0.76 0.16
-37 13 -11 -0.02 0.14
-39 13 -11 -0.02 0.14
-41 13 -11 1.08 0.19
-43 13 -11 1.16 0.18
-43 -15 11 0.47 0.18
-43 15 11 0.29 0.14
-41 -15 11 0.64 0.2
-41 15 11 0.72 0.17
-39 -15 11 0.15 0.17
-39 15 11 0.07 0.15
-37 -15 11 0.07 0.16
-37 15 11 -0.16 0.14
-35 -15 11 0.86 0.19
-35 15 11 0.84 0.18
-33 -15 11 1.36 0.22
-33 15 11 1.08 0.19
-31 -15 11 0.84 0.2
-31 15 11 1.34 0.2
31 15 -11 1.47 0.3
-29 -15 11 5.41 0.41
29 15 -11 6.39 0.56
-29 15 11 5.04 0.39
-27 -15 11 16.37 0.88
-27 15 11 15.86 0.98
-27 15 11 17.19 0.87
27 15 -11 18.99 1.02
-25 -15 11 10.23 0.6
-25 15 11 9.97 0.7
25 15 -11 12.12 0.72
-25 15 11 9.9 0.57
-23 -15 11 20.88 1.03
-23 15 11 20.71 1.01
-23 15 11 19.13 1.1
23 15 -11 22.22 1.11
-21 -15 11 5.99 0.41
-21 15 11 5.57 0.5
21 15 -11 7.22 0.49
-19 -15 11 5.6 0.37
19 15 -11 6.1 0.43
-19 15 11 4.77 0.43
-17 15 11 1.82 0.28
17 15 -11 2.17 0.25
15 15 -11 0.02 0.11
-15 15 11 0.07 0.16
13 15 -11 2.75 0.27
-13 15 11 2.52 0.29
-11 15 11 3.14 0.23
-11 15 11 3.19 0.31
11 15 -11 3.02 0.28
-9 15 11 11.17 0.6
9 15 -11 12.6 0.64
-9 15 11 14.22 0.68
-7 -15 11 3.36 0.3
-7 15 11 3.66 0.31
7 15 -11 4.16 0.27
-5 -15 11 13.94 0.75
-5 15 11 16.38 0.77
-3 -15 11 3.56 0.32
-3 15 11 4.14 0.3
-1 -15 11 6.15 0.41
-1 15 11 6.4 0.4
1 -15 11 6.69 0.34
1 -15 11 5.97 0.42
1 15 11 6.07 0.41
3 -15 11 3.79 0.23
3 -15 11 3.88 0.35
3 15 11 3.88 0.31
5 -15 11 14.47 0.79
5 15 11 15.88 0.75
5 15 11 15.02 0.71
7 -15 11 2.7 0.33
-7 15 -11 3.98 0.31
7 15 11 3.63 0.24
9 -15 11 11.45 0.68
9 15 11 11.79 0.59
-9 15 -11 11.23 0.64
11 -15 11 3.14 0.36
-11 15 -11 3.42 0.3
11 15 11 2.85 0.25
13 -15 11 2.5 0.34
13 15 11 2.8 0.25
-13 15 -11 2.89 0.29
15 -15 11 0.05 0.17
-15 15 -11 -0.08 0.11
15 15 11 0.07 0.1
17 -15 11 2.25 0.33
17 15 11 1.91 0.25
-17 15 -11 2.03 0.27
19 -15 11 4.32 0.34
19 -15 11 4.97 0.4
19 15 11 5.24 0.4
-19 15 -11 4.28 0.4
21 -15 11 5.38 0.36
21 -15 11 5.62 0.46
-21 15 -11 4.97 0.45
21 15 11 5.34 0.45
23 -15 11 17.65 0.9
23 -15 11 18.5 1.01
-23 15 -11 18.24 1.03
23 15 11 17.62 1
25 -15 11 8.71 0.53
25 -15 11 9.42 0.65
-25 15 -11 8.81 0.66
25 15 11 8.59 0.64
27 -15 11 14.63 0.78
27 15 11 15.34 0.91
-27 15 -11 14.21 0.93
29 -15 11 4.52 0.39
29 15 11 4.34 0.48
31 -15 11 1.03 0.2
-33 15 -11 1.26 0.19
-35 15 -11 1.03 0.17
-37 15 -11 -0.27 0.12
-39 15 -11 -0.2 0.14
-41 15 -11 0.35 0.15
-43 15 -11 0.32 0.14
-43 -17 11 0.06 0.14
-43 17 11 0.17 0.13
-41 -17 11 0.29 0.18
-41 17 11 0.22 0.14
-39 -17 11 -0.02 0.17
-39 17 11 0.16 0.15
-37 -17 11 -0.09 0.16
-37 17 11 0.25 0.15
-35 -17 11 0.25 0.17
-35 17 11 0.36 0.16
-33 -17 11 0.25 0.16
-33 17 11 0.31 0.15
-31 -17 11 -0.11 0.14
31 17 -11 0.27 0.21
-31 17 11 -0.08 0.13
-29 -17 11 0.14 0.14
-29 17 11 0.16 0.13
29 17 -11 0.09 0.2
-27 -17 11 5.25 0.39
-27 17 11 5.1 0.38
-27 17 11 4.19 0.49
27 17 -11 5.32 0.51
-25 -17 11 0.54 0.15
-25 17 11 0.63 0.26
25 17 -11 0.72 0.23
-25 17 11 0.64 0.14
-23 -17 11 3.8 0.33
23 17 -11 4.47 0.42
-23 17 11 4.08 0.46
-21 -17 11 0.18 0.12
-21 17 11 0.38 0.2
21 17 -11 0.27 0.16
-19 -17 11 0.24 0.13
-19 17 11 0.45 0.22
19 17 -11 0.42 0.17
-17 -17 11 8.59 0.48
-17 17 11 7.7 0.55
17 17 -11 7.63 0.52
15 17 -11 1.74 0.23
-15 17 11 1.69 0.26
13 17 -11 7.04 0.46
-13 17 11 7.12 0.5
-11 17 11 0.06 0.08
11 17 -11 0.14 0.11
-11 17 11 0.11 0.14
-9 17 11 4.39 0.36
9 17 -11 3.59 0.28
-7 17 11 1.53 0.22
-5 -17 11 8.9 0.52
-5 17 11 9.31 0.54
-3 -17 11 3.35 0.31
-3 17 11 3.67 0.31
-1 -17 11 3.73 0.35
-1 17 11 4.71 0.33
1 -17 11 3.84 0.36
1 17 11 4.35 0.35
3 -17 11 2.75 0.32
3 17 11 3.81 0.31
5 -17 11 9.69 0.59
5 17 11 9.24 0.54
7 -17 11 1.51 0.27
7 -17 11 1.82 0.11
-7 17 -11 1.25 0.19
7 17 11 1.74 0.18
9 -17 11 4.49 0.4
9 17 11 3.97 0.28
-9 17 -11 4.06 0.33
11 -17 11 0.23 0.17
-11 17 -11 0.07 0.12
11 17 11 0.16 0.09
13 -17 11 6.78 0.52
13 -17 11 7.03 0.39
13 17 11 6.21 0.4
-13 17 -11 6 0.45
15 -17 11 1.38 0.19
15 -17 11 2.13 0.34
-15 17 -11 1.51 0.23
15 17 11 1.59 0.21
17 -17 11 7.64 0.45
17 -17 11 6.71 0.46
17 17 11 7.89 0.5
-17 17 -11 7.03 0.52
19 -17 11 0.39 0.15
19 -17 11 0.39 0.14
19 17 11 0.3 0.15
-19 17 -11 0.18 0.16
21 -17 11 0.11 0.14
21 -17 11 0.34 0.14
21 17 11 0.05 0.15
-21 17 -11 0.08 0.16
23 -17 11 3.75 0.36
23 -17 11 3.91 0.34
-23 17 -11 3.5 0.41
23 17 11 4.22 0.42
25 -17 11 0.56 0.15
25 17 11 0.37 0.2
-25 17 -11 0.52 0.23
27 -17 11 4.08 0.37
-27 17 -11 3.59 0.43
27 17 11 4.22 0.47
29 -17 11 -0.05 0.16
29 17 11 0.25 0.22
31 -17 11 0.01 0.17
31 17 11 -0.19 0.21
-33 17 -11 0.16 0.13
-35 17 -11 0.31 0.14
-37 17 -11 0.05 0.14
-39 17 -11 -0.01 0.14
-41 17 -11 0.15 0.13
-43 17 -11 0.1 0.12
-41 -19 11 -0.02 0.15
-41 19 11 0.05 0.13
-39 -19 11 0.1 0.17
-39 19 11 0.24 0.14
-37 -19 11 -0.09 0.17
-37 19 11 0.16 0.15
-35 -19 11 0.24 0.17
-35 19 11 -0.08 0.14
-33 -19 11 -0.06 0.16
-33 19 11 -0.1 0.14
-31 -19 11 0.08 0.15
-31 19 11 -0.08 0.14
31 19 -11 0.26 0.23
-29 -19 11 0.16 0.15
-29 19 11 0.47 0.15
29 19 -11 0.2 0.21
-27 -19 11 1.25 0.2
27 19 -11 1.27 0.28
-27 19 11 0.82 0.16
-25 -19 11 0.05 0.13
-25 19 11 0.12 0.22
25 19 -11 0.08 0.2
-23 -19 11 0.88 0.17
23 19 -11 1.29 0.26
-23 19 11 1 0.3
-21 -19 11 0.07 0.11
-21 19 11 0.11 0.19
21 19 -11 0.28 0.17
-19 -19 11 1.64 0.2
19 19 -11 2.21 0.27
-19 19 11 2.26 0.34
-17 -19 11 0.18 0.11
17 19 -11 0.39 0.15
-17 19 11 0.06 0.18
-15 -19 11 5.41 0.36
15 19 -11 5.27 0.39
-15 19 11 4.93 0.43
13 19 -11 3.84 0.33
-13 19 11 4 0.37
-11 19 11 14.02 0.76
11 19 -11 13.81 0.73
-9 19 11 2.59 0.3
-7 19 11 4.86 0.38
-5 -19 11 0.27 0.14
-5 19 11 0.23 0.16
-3 -19 11 0.52 0.17
-3 19 11 0.31 0.15
-1 -19 11 1.37 0.24
-1 19 11 1.32 0.22
1 -19 11 1.33 0.25
1 19 11 1.52 0.23
3 -19 11 0.13 0.16
3 19 11 0.44 0.16
5 -19 11 0.52 0.19
7 -19 11 4.54 0.42
-7 19 -11 5.11 0.37
9 -19 11 2.72 0.35
-9 19 -11 3.12 0.29
9 19 11 2.81 0.23
11 -19 11 13.34 0.79
-11 19 -11 12.56 0.72
11 19 11 12.81 0.66
13 -19 11 2.87 0.38
13 19 11 3.15 0.27
-13 19 -11 3.24 0.33
15 -19 11 4.88 0.26
15 -19 11 4.93 0.34
-15 19 -11 4.88 0.41
15 19 11 5.31 0.37
17 -19 11 0.42 0.15
17 -19 11 0.34 0.09
17 19 11 0.22 0.13
-17 19 -11 0.27 0.16
19 -19 11 1.96 0.19
19 -19 11 1.7 0.21
-19 19 -11 1.62 0.27
19 19 11 1.73 0.26
21 -19 11 0.17 0.11
21 -19 11 0.24 0.14
-21 19 -11 0.07 0.16
21 19 11 0.12 0.16
23 -19 11 1.01 0.18
23 -19 11 1.15 0.17
-23 19 -11 0.78 0.24
23 19 11 1.15 0.26
25 -19 11 0.11 0.13
25 19 11 0.03 0.18
-25 19 -11 0.1 0.2
27 -19 11 0.86 0.2
-27 19 -11 0.8 0.26
27 19 11 0.77 0.25
29 -19 11 0.28 0.17
29 19 11 -0.03 0.2
31 -19 11 0.02 0.18
31 19 11 0.09 0.22
-33 19 -11 0.17 0.14
-35 19 -11 0.05 0.13
-37 19 -11 -0.08 0.13
-39 19 -11 -0.01 0.13
-41 19 -11 -0.05 0.12
-41 -21 11 -0.07 0.13
-39 -21 11 0.05 0.15
-39 21 11 0.2 0.13
-37 -21 11 0.2 0.16
-37 21 11 0 0.13
-35 -21 11 -0.06 0.17
-35 21 11 0.31 0.15
-33 -21 11 1.5 0.24
-33 21 11 1.31 0.21
-31 -21 11 1.75 0.24
-31 21 11 1.37 0.21
-29 -21 11 4.4 0.39
29 21 -11 4.16 0.47
-27 -21 11 0.52 0.16
27 21 -11 0.37 0.22
-25 -21 11 3.33 0.32
25 21 -11 3.37 0.41
-23 -21 11 0.33 0.14
23 21 -11 0.13 0.18
-23 21 11 0.04 0.21
-21 -21 11 0.64 0.15
21 21 -11 0.7 0.2
-21 21 11 0.37 0.26
-19 -21 11 0.15 0.11
-19 21 11 0.51 0.24
19 21 -11 0.25 0.15
-17 -21 11 0.15 0.1
17 21 -11 0.22 0.14
-17 21 11 -0.02 0.2
-15 -21 11 6.24 0.4
-15 21 11 5.7 0.49
15 21 -11 5.93 0.43
-13 -21 11 7.85 0.46
13 21 -11 7.15 0.49
-13 21 11 7.59 0.54
-11 21 11 24.62 1.2
-9 21 11 13.98 0.77
-7 21 11 20.36 1.01
-5 21 11 7.8 0.5
-3 -21 11 4.22 0.37
-3 21 11 4.86 0.38
-1 -21 11 0.05 0.13
-1 21 11 0.38 0.15
1 -21 11 0.06 0.14
1 21 11 0.16 0.16
3 -21 11 4.48 0.4
5 -21 11 6.88 0.5
7 -21 11 19.86 1.06
-7 21 -11 20.9 1.04
9 -21 11 13.7 0.8
-9 21 -11 13.18 0.74
11 -21 11 23.62 1.23
11 -21 11 23.97 1.15
-11 21 -11 24.91 1.2
11 21 11 21.69 1.11
13 -21 11 7.68 0.47
13 21 11 7.45 0.46
-13 21 -11 7.08 0.52
15 -21 11 5.46 0.4
15 21 11 6.08 0.41
-15 21 -11 5.55 0.46
17 -21 11 0.31 0.14
-17 21 -11 0.03 0.15
17 21 11 0.14 0.14
19 -21 11 0.02 0.13
-19 21 -11 0.04 0.16
19 21 11 0.15 0.15
21 -21 11 0.82 0.17
-21 21 -11 0.53 0.19
21 21 11 0.93 0.23
23 -21 11 0.19 0.15
-23 21 -11 0.13 0.19
23 21 11 -0.07 0.16
25 -21 11 2.24 0.26
25 21 11 2.47 0.36
-25 21 -11 2.41 0.37
27 -21 11 0.27 0.17
27 21 11 0.33 0.23
29 -21 11 3.93 0.39
29 21 11 3.07 0.44
31 -21 11 1.54 0.25
-33 21 -11 1 0.18
-35 21 -11 0.2 0.14
-37 21 -11 0.23 0.14
-39 21 -11 -0.09 0.12
-41 21 -11 -0.05 0.11
-39 -23 11 0.1 0.15
-37 -23 11 0.1 0.15
-35 -23 11 0.28 0.18
-33 -23 11 2.37 0.28
-31 -23 11 2.71 0.29
-29 -23 11 6.72 0.49
-27 -23 11 3.69 0.36
27 23 -11 2.76 0.39
-25 -23 11 5 0.4
25 23 -11 4.76 0.5
-23 -23 11 0.78 0.17
23 23 -11 0.79 0.23
-21 -23 11 0.42 0.15
-21 23 11 0.21 0.24
21 23 -11 0.26 0.18
-19 -23 11 1.08 0.17
-19 23 11 1.06 0.27
19 23 -11 1.18 0.22
-17 -23 11 4.46 0.34
17 23 -11 4.13 0.38
-17 23 11 4.48 0.48
-15 -23 11 19.51 0.97
-15 23 11 19.28 1.06
15 23 -11 19.45 1.01
-13 -23 11 27.81 1.29
13 23 -11 25.87 1.31
-13 23 11 26.6 1.33
-11 -23 11 60.26 2.65
-11 23 11 56.13 2.55
-9 -23 11 40.14 1.84
-9 23 11 39.02 1.8
-7 -23 11 48.71 2.2
-7 23 11 46.14 2.1
-5 23 11 18.35 0.94
-3 23 11 10.13 0.61
-1 -23 11 0.22 0.16
-1 23 11 0.37 0.17
1 -23 11 0.06 0.17
3 -23 11 9.59 0.63
5 -23 11 17.06 0.93
7 -23 11 43.25 2.02
7 -23 11 44.73 2.03
-7 23 -11 43.2 2.05
9 -23 11 39.56 1.82
-9 23 -11 38.14 1.85
11 -23 11 56.78 2.6
-11 23 -11 57.23 2.65
13 -23 11 25.06 1.23
13 23 11 24.54 1.22
-13 23 -11 26.38 1.31
15 -23 11 18.34 0.92
15 23 11 18.03 0.93
-15 23 -11 17.3 0.99
17 -23 11 3.99 0.35
-17 23 -11 4.27 0.42
17 23 11 3.7 0.36
19 -23 11 0.96 0.19
-19 23 -11 1.1 0.26
19 23 11 1.39 0.25
21 -23 11 0.26 0.15
21 23 11 0.22 0.17
-21 23 -11 0.32 0.19
23 -23 11 0.81 0.19
23 23 11 0.46 0.22
-23 23 -11 0.84 0.28
25 -23 11 4.68 0.4
25 23 11 3.85 0.46
27 -23 11 3.48 0.37
27 23 11 2.22 0.37
29 -23 11 6.68 0.5
31 -23 11 2.23 0.28
-33 23 -11 2.1 0.23
-35 23 -11 0.02 0.13
-37 23 -11 0.3 0.14
-39 23 -11 0.1 0.12
-41 23 -11 0.01 0.11
-37 -25 11 0.43 0.16
-35 -25 11 0.84 0.2
-33 -25 11 4.19 0.42
-31 -25 11 5.68 0.46
-29 -25 11 10.05 0.63
-27 -25 11 7.11 0.51
-25 -25 11 10.09 0.62
25 25 -11 10.15 0.72
-23 -25 11 5.33 0.41
23 25 -11 4.47 0.47
-21 -25 11 3.2 0.32
21 25 -11 3.17 0.37
-19 -25 11 0.05 0.12
19 25 -11 0.33 0.16
-19 25 11 -0.13 0.21
-17 -25 11 0.72 0.16
-17 25 11 0.98 0.29
17 25 -11 0.58 0.19
-15 -25 11 10.14 0.58
-15 25 11 10 0.71
15 25 -11 10.06 0.62
-13 -25 11 16.94 0.87
-13 25 11 16.82 0.96
-11 -25 11 37.76 1.7
-11 25 11 34.43 1.69
-9 -25 11 29.61 1.41
-9 25 11 29.23 1.43
-7 -25 11 34.62 1.58
-7 25 11 32.1 1.56
-5 -25 11 16.62 0.86
-5 25 11 16.82 0.89
-3 -25 11 12.32 0.68
-3 25 11 13.08 0.74
-1 -25 11 0.11 0.11
1 -25 11 0.39 0.14
3 -25 11 12.12 0.67
5 -25 11 18 0.93
7 -25 11 32.33 1.47
-7 25 -11 29.03 1.5
9 -25 11 28.05 1.34
-9 25 -11 26.95 1.38
11 -25 11 37.39 1.73
-11 25 -11 35.41 1.78
13 -25 11 15.8 0.84
-13 25 -11 16.56 0.91
13 25 11 15.5 0.83
15 -25 11 8.61 0.54
15 25 11 9.44 0.57
-15 25 -11 8.47 0.61
17 -25 11 0.45 0.18
-17 25 -11 0.39 0.2
17 25 11 0.81 0.2
19 -25 11 -0.06 0.14
19 25 11 -0.02 0.16
-19 25 -11 0.1 0.19
21 -25 11 2.33 0.27
21 25 11 2.45 0.33
-21 25 -11 2.67 0.37
23 -25 11 5.15 0.43
23 25 11 4.15 0.48
25 -25 11 9.33 0.58
25 25 11 7.79 0.68
27 -25 11 6.73 0.52
29 -25 11 8.93 0.61
31 -25 11 4.48 0.42
-33 25 -11 4.29 0.38
-35 25 -11 0.54 0.16
-37 25 -11 0.31 0.14
-39 25 -11 0.07 0.12
-33 -27 11 2.47 0.27
-31 -27 11 4.18 0.41
-29 -27 11 9.13 0.6
-27 -27 11 7.54 0.55
-25 -27 11 7.65 0.54
-23 -27 11 2.41 0.28
23 27 -11 3.19 0.38
-21 -27 11 0.55 0.17
21 27 -11 0.45 0.2
-19 -27 11 0.69 0.17
19 27 -11 1.28 0.25
-17 -27 11 4.48 0.37
17 27 -11 4.54 0.42
-15 -27 11 15.99 0.81
15 27 -11 14.5 0.84
-15 27 11 14.61 0.94
-13 -27 11 23.91 1.16
-13 27 11 22.83 1.25
-11 -27 11 44.43 2.08
-11 27 11 45.58 2.08
-9 -27 11 46.38 2.13
-9 27 11 45.45 2.11
-7 -27 11 51.68 2.33
-7 27 11 49.2 2.27
-5 -27 11 27.3 1.31
-5 27 11 26.29 1.32
-3 -27 11 17.49 0.9
-1 -27 11 0.21 0.14
1 -27 11 0.27 0.14
3 -27 11 18.58 0.96
5 -27 11 26.54 1.26
-5 27 -11 24.22 1.28
7 -27 11 48.4 2.2
-7 27 -11 46.29 2.23
9 -27 11 45.29 2.03
-9 27 -11 40.79 2.06
11 -27 11 43.96 1.99
-11 27 -11 40.48 2.05
13 -27 11 22.39 1.1
-13 27 -11 20.6 1.16
15 -27 11 15.42 0.84
15 27 11 16 0.87
-15 27 -11 15.25 0.91
17 -27 11 4.82 0.4
17 27 11 4.64 0.42
-17 27 -11 4.16 0.45
19 -27 11 0.85 0.19
19 27 11 1.24 0.25
21 -27 11 0.53 0.18
21 27 11 0.08 0.18
23 -27 11 2.4 0.28
23 27 11 2.38 0.37
25 -27 11 6.65 0.51
27 -27 11 6.38 0.5
29 -27 11 6.94 0.51
31 -27 11 2.71 0.3
-33 27 -11 3.21 0.33
-35 27 -11 0.31 0.14
-37 27 -11 0.12 0.12
-29 -29 11 8.14 0.55
-27 -29 11 7.22 0.53
-25 -29 11 9.5 0.62
-23 -29 11 6.28 0.47
-21 -29 11 3.73 0.39
21 29 -11 4.19 0.45
-19 -29 11 0.26 0.16
19 29 -11 0.23 0.18
-17 -29 11 0.11 0.14
17 29 -11 0.04 0.15
-15 -29 11 5.33 0.42
-13 -29 11 8.94 0.55
-13 29 11 9.31 0.72
-11 -29 11 16.19 0.85
-11 29 11 16.2 0.97
-9 -29 11 15.55 0.8
-9 29 11 14.12 0.88
-7 -29 11 17.43 0.9
-7 29 11 16.64 0.97
-5 -29 11 8.11 0.51
-3 -29 11 8.88 0.54
-1 -29 11 -0.21 0.12
1 -29 11 0.03 0.13
3 -29 11 9.2 0.57
5 -29 11 8.26 0.52
-5 29 -11 7.58 0.54
7 -29 11 16.52 0.86
-7 29 -11 15.39 0.89
9 -29 11 14.82 0.82
-9 29 -11 15.24 0.87
11 -29 11 16.82 0.88
-11 29 -11 16.05 0.94
13 -29 11 9.45 0.57
-13 29 -11 7.76 0.6
15 -29 11 4.8 0.41
-15 29 -11 4.41 0.44
15 29 11 4.69 0.44
17 -29 11 0.11 0.16
17 29 11 0.13 0.16
19 -29 11 0.31 0.19
19 29 11 0.46 0.2
21 -29 11 3.72 0.39
21 29 11 3.63 0.42
23 -29 11 6.36 0.5
25 -29 11 8.81 0.59
27 -29 11 7.21 0.53
29 -29 11 7.21 0.52
31 -29 11 2.82 0.3
-33 29 -11 2.94 0.33
-35 29 -11 0.49 0.14
-37 29 -11 0.13 0.12
-25 -31 11 4.65 0.43
-23 -31 11 2.79 0.3
-21 -31 11 1.3 0.24
-19 -31 11 -0.09 0.16
19 31 -11 0.19 0.18
-17 -31 11 -0.22 0.14
17 31 -11 0.03 0.17
-15 -31 11 0.96 0.19
-13 -31 11 1.77 0.23
-11 -31 11 5.23 0.4
-9 -31 11 7.75 0.51
-9 31 11 8.19 0.63
-7 -31 11 8.94 0.54
-5 -31 11 6.68 0.45
-3 -31 11 5.29 0.4
-1 -31 11 0.25 0.14
1 -31 11 -0.01 0.14
3 -31 11 5.33 0.42
-3 31 -11 4.69 0.41
5 -31 11 6.94 0.46
-5 31 -11 5.3 0.45
7 -31 11 9.49 0.58
-7 31 -11 8.89 0.61
9 -31 11 7.87 0.52
-9 31 -11 7.74 0.56
11 -31 11 5.5 0.43
-11 31 -11 5.19 0.47
13 -31 11 1.79 0.24
15 -31 11 0.94 0.21
17 -31 11 -0.1 0.16
17 31 11 0.04 0.17
19 -31 11 0.15 0.18
19 31 11 0.22 0.19
21 -31 11 1.29 0.24
23 -31 11 2.02 0.27
25 -31 11 4.4 0.45
27 -31 11 3.95 0.44
29 -31 11 3.09 0.32
-31 31 -11 1.47 0.21
-33 31 -11 0.89 0.17
-35 31 -11 0.25 0.12
-19 -33 11 -0.15 0.16
-17 -33 11 -0.02 0.16
-15 -33 11 1.27 0.22
-13 -33 11 1.69 0.24
-11 -33 11 2.98 0.32
-9 -33 11 1.8 0.23
-7 -33 11 1.8 0.22
-5 -33 11 1.67 0.22
-3 -33 11 1.31 0.19
-1 -33 11 0.11 0.14
1 -33 11 0.17 0.14
3 -33 11 1.18 0.2
5 -33 11 1.65 0.23
7 -33 11 1.91 0.24
9 -33 11 1.97 0.25
11 -33 11 2.93 0.3
13 -33 11 1.55 0.24
15 -33 11 1.15 0.22
17 -33 11 0.06 0.17
19 -33 11 -0.32 0.17
21 -33 11 0.72 0.22
23 -33 11 1.97 0.27
25 -33 11 3.45 0.38
27 -33 11 1.84 0.26
29 -33 11 1.5 0.23
-31 33 -11 1.11 0.18
-33 33 -11 0.75 0.15
-15 -35 11 0.6 0.19
-13 -35 11 0.66 0.18
-11 -35 11 2.67 0.27
-9 -35 11 3.36 0.35
-7 -35 11 4.14 0.39
-5 -35 11 3.32 0.36
-3 -35 11 1.56 0.22
-1 -35 11 0.1 0.14
1 -35 11 0.15 0.15
3 -35 11 1.45 0.22
5 -35 11 2.49 0.27
7 -35 11 3.89 0.41
9 -35 11 2.91 0.3
11 -35 11 2.84 0.3
13 -35 11 1.06 0.21
15 -35 11 0.7 0.2
17 -35 11 0.23 0.18
19 -35 11 -0.09 0.17
21 -35 11 0.13 0.18
23 -35 11 -0.06 0.18
25 -35 11 0.4 0.19
27 -35 11 0 0.17
29 -35 11 0.14 0.17
-29 35 -11 0.24 0.14
-7 -37 11 -0.06 0.15
-5 -37 11 0.25 0.15
-3 -37 11 0.09 0.15
-1 -37 11 0.09 0.15
1 -37 11 -0.05 0.15
3 -37 11 -0.07 0.15
5 -37 11 -0.24 0.15
7 -37 11 0.11 0.16
9 -37 11 -0.01 0.16
11 -37 11 -0.2 0.15
13 -37 11 -0.1 0.16
15 -37 11 -0.2 0.16
17 -37 11 -0.14 0.16
19 -37 11 -0.07 0.17
21 -37 11 -0.01 0.17
23 -37 11 0.14 0.17
25 -37 11 0 0.16
27 -37 11 -0.15 0.15
-1 -39 11 -0.11 0.14
1 -39 11 -0.09 0.14
3 -39 11 0.02 0.15
5 -39 11 -0.14 0.14
7 -39 11 0.04 0.15
9 -39 11 0.08 0.15
11 -39 11 0.02 0.15
13 -39 11 0.05 0.16
15 -39 11 0.06 0.16
17 -39 11 0.01 0.16
19 -39 11 0.09 0.16
21 -39 11 0.01 0.15
23 -39 11 0.06 0.14
25 -39 11 0.1 0.14
7 -41 11 0.84 0.18
9 -41 11 1.35 0.2
11 -41 11 1.45 0.2
13 -41 11 1.13 0.19
15 -41 11 0.49 0.16
17 -41 11 0.2 0.14
19 -41 11 -0.08 0.13
21 -41 11 -0.2 0.12
-46 0 12 -0.05 0.13
-44 0 12 -0.11 0.14
-42 0 12 0.02 0.15
-40 0 12 0.58 0.18
-38 0 12 0.09 0.16
-36 0 12 2.05 0.26
-34 0 12 0.15 0.15
-32 0 12 1.05 0.2
-30 0 12 0.15 0.14
-28 0 12 0.11 0.13
-26 0 12 -0.17 0.11
-24 0 12 19 0.94
-20 0 12 21.18 1.03
-18 0 12 0.52 0.17
-16 0 12 75.26 3.04
16 0 -12 70.36 3.18
14 0 -12 0.2 0.09
-14 0 12 0.36 0.14
-12 0 12 78.67 3.29
12 0 -12 80.11 3.45
10 0 -12 0.41 0.09
-10 0 12 0.5 0.14
8 0 -12 99.11 4.22
-8 0 12 96.59 4
-6 0 12 0.53 0.13
6 0 -12 0.55 0.1
-4 0 12 19.18 0.99
4 0 -12 24.9 1.02
2 0 -12 2.52 0.2
-2 0 12 2.77 0.23
0 0 -12 150.42 5.88
0 0 -12 126.27 5.99
0 0 12 133.71 5.53
2 0 12 2.45 0.19
2 0 12 2.79 0.23
-2 0 -12 2.61 0.23
-2 0 -12 2.42 0.19
-4 0 -12 18.09 0.92
4 0 12 19.47 0.87
4 0 12 18.69 0.88
6 0 12 0.6 0.14
-6 0 -12 0.35 0.09
6 0 12 0.59 0.11
-6 0 -12 0.82 0.15
-8 0 -12 102.25 4.15
8 0 12 93 3.94
-8 0 -12 93.65 4.25
8 0 12 94.45 4.15
-10 0 -12 0.45 0.1
10 0 12 0.37 0.13
10 0 12 0.58 0.11
-10 0 -12 0.4 0.12
-12 0 -12 72.42 3.26
12 0 12 70.3 3.04
12 0 12 74.78 3.17
14 0 12 0.14 0.09
-14 0 -12 0.3 0.12
14 0 12 0.16 0.14
16 0 12 66.17 3
16 0 12 70.88 2.91
18 0 12 0.58 0.18
-46 -2 12 0.06 0.13
-46 2 12 0.07 0.13
-44 -2 12 -0.01 0.14
-44 2 12 -0.24 0.13
-42 -2 12 0.57 0.17
-42 2 12 0.64 0.18
-40 -2 12 -0.06 0.15
-40 2 12 -0.06 0.15
-38 -2 12 3.53 0.36
-38 2 12 4.08 0.4
-36 -2 12 -0.03 0.15
-36 2 12 0 0.15
-34 -2 12 1.32 0.22
-34 2 12 1.59 0.22
-32 -2 12 0.03 0.15
-32 2 12 0.18 0.14
-30 -2 12 1.32 0.2
-30 2 12 1.46 0.19
-28 -2 12 0.24 0.12
-28 2 12 0.02 0.13
-26 -2 12 2.61 0.27
-26 2 12 2.25 0.25
-24 -2 12 0.33 0.12
-24 2 12 0.21 0.12
-22 2 12 9.74 0.6
-20 2 12 0.51 0.18
20 2 -12 0.18 0.12
-18 -2 12 19.72 0.95
-18 2 12 21.3 0.99
18 2 -12 18.99 0.96
-16 -2 12 0.1 0.12
-16 2 12 0.15 0.15
16 2 -12 0.05 0.09
-14 -2 12 41.66 1.73
14 2 -12 38.53 1.8
-14 2 12 39.94 1.74
12 -2 -12 0.04 0.06
-12 -2 12 0.05 0.1
-12 2 12 -0.11 0.09
12 2 -12 0.03 0.07
10 -2 -12 12.66 0.6
-10 -2 12 12.71 0.63
10 2 -12 11.84 0.62
-10 2 12 13.26 0.65
-8 -2 12 0.08 0.11
8 -2 -12 -0.02 0.05
-8 2 12 0.07 0.12
8 2 -12 -0.02 0.07
-6 -2 12 8.54 0.5
6 -2 -12 10.53 0.47
6 2 -12 10.11 0.5
-6 2 12 8.9 0.51
-4 -2 12 0.3 0.11
4 2 -12 0.33 0.09
-4 2 12 0.34 0.12
-2 -2 12 19.86 0.9
2 -2 -12 18.67 0.94
-2 2 12 19.74 0.91
-2 2 12 16.55 0.89
2 2 -12 23.11 0.92
0 -2 12 2.26 0.21
0 -2 -12 2.85 0.23
0 2 -12 2.51 0.19
0 2 12 2.7 0.24
0 2 12 2.59 0.19
2 -2 12 19.11 0.92
-2 -2 -12 19.42 0.97
-2 2 -12 18.67 0.97
2 2 12 20.65 0.93
-2 2 -12 23.2 0.93
2 2 12 19.06 0.91
-4 -2 -12 0.14 0.07
-4 -2 -12 0.39 0.08
4 -2 12 0.47 0.13
-4 2 -12 0.43 0.12
-4 2 -12 0.38 0.08
4 2 12 0.26 0.08
4 2 12 0.28 0.11
-6 -2 -12 10.34 0.46
6 -2 12 9.08 0.51
6 2 12 8.68 0.47
-6 2 -12 8.3 0.5
6 2 12 8.67 0.49
-8 -2 -12 -0.06 0.07
-8 -2 -12 0.11 0.07
8 -2 12 -0.02 0.1
8 2 12 0.04 0.07
-8 2 -12 0.01 0.09
8 2 12 0.13 0.11
-10 -2 -12 14.35 0.7
-10 -2 -12 12.33 0.63
10 -2 12 14.13 0.69
10 -2 12 12.64 0.62
10 2 12 12.97 0.67
10 2 12 12.29 0.65
-10 2 -12 13.71 0.7
-12 -2 -12 0.12 0.07
12 -2 12 0.06 0.12
12 2 12 -0.02 0.1
-12 2 -12 0.12 0.1
12 2 12 0.12 0.08
14 -2 12 39.97 1.76
-14 -2 -12 39.74 1.76
-14 2 -12 39.44 1.84
14 2 12 38.53 1.79
14 2 12 39.24 1.73
-16 -2 -12 -0.02 0.09
16 -2 12 0.06 0.14
16 2 12 0.03 0.09
-16 2 -12 0.12 0.12
16 2 12 0.18 0.13
18 -2 12 20.89 1.01
18 2 12 18.86 0.96
-18 2 -12 18.82 1.05
20 -2 12 0.14 0.16
-26 2 -12 2.63 0.24
-28 2 -12 0.1 0.11
-30 2 -12 1.43 0.19
-32 2 -12 0 0.13
-34 2 -12 1.87 0.22
-36 2 -12 0.31 0.15
-38 2 -12 3.99 0.36
-46 -4 12 -0.07 0.13
-46 4 12 -0.03 0.13
-44 -4 12 0.12 0.15
-44 4 12 0.13 0.15
-42 -4 12 0.26 0.15
-42 4 12 0.04 0.15
-40 -4 12 0.49 0.17
-40 4 12 0.39 0.18
-38 -4 12 0.19 0.16
-38 4 12 -0.16 0.15
-36 -4 12 1.34 0.22
-36 4 12 1.52 0.22
-34 -4 12 -0.02 0.15
-34 4 12 0.14 0.15
-32 -4 12 0.57 0.18
-32 4 12 0.74 0.17
-30 -4 12 0.23 0.15
-30 4 12 -0.05 0.13
-28 -4 12 0.46 0.15
-28 4 12 0.58 0.15
-26 -4 12 0.09 0.12
-26 4 12 0 0.12
-24 -4 12 6.08 0.37
-24 4 12 5.37 0.36
-22 4 12 0.03 0.15
22 4 -12 -0.05 0.12
-20 4 12 8.7 0.55
20 4 -12 8.17 0.51
-18 4 12 0.58 0.18
18 4 -12 0.43 0.14
-16 -4 12 28.64 1.31
-16 4 12 28.8 1.34
16 4 -12 30.81 1.38
-14 -4 12 0.3 0.12
-14 4 12 0.34 0.15
14 4 -12 0.21 0.1
-12 -4 12 35.74 1.52
-12 4 12 34.59 1.55
12 4 -12 35.23 1.59
-10 -4 12 0.18 0.11
10 4 -12 0.25 0.09
-10 4 12 0.34 0.14
-8 -4 12 25.56 1.16
-8 4 12 25.22 1.18
8 4 -12 28.18 1.22
-6 -4 12 0.05 0.09
6 4 -12 0.07 0.08
-6 4 12 -0.04 0.1
-4 -4 12 0.07 0.09
-4 4 12 0.06 0.07
-4 4 12 -0.01 0.04
4 4 -12 0.08 0.07
-2 -4 12 0.42 0.12
-2 4 12 0.47 0.13
2 4 -12 0.31 0.09
-2 4 12 0.36 0.09
0 -4 12 19.59 0.97
0 4 12 19.9 0.97
0 4 12 21.05 0.98
0 4 -12 24.63 0.99
2 4 12 0.27 0.12
2 4 12 0.38 0.09
-2 4 -12 0.44 0.09
-2 4 -12 0.37 0.11
4 -4 12 0.01 0.07
4 4 12 -0.08 0.07
4 4 12 -0.01 0.06
-4 4 -12 -0.01 0.08
6 -4 12 -0.06 0.1
-6 4 -12 -0.03 0.08
6 4 12 0.03 0.07
6 4 12 0.12 0.1
8 -4 12 25.05 1.15
8 4 12 24.5 1.12
8 4 12 25.9 1.15
-8 4 -12 23.56 1.19
10 -4 12 0.34 0.14
-10 4 -12 0.28 0.1
10 4 12 0.3 0.1
10 4 12 0.44 0.13
12 -4 12 33.39 1.51
-12 4 -12 32.33 1.57
12 4 12 34.06 1.53
12 4 12 32.95 1.47
14 -4 12 0.26 0.16
14 4 12 0.25 0.13
14 4 12 0.15 0.11
-14 4 -12 0.27 0.12
16 -4 12 26.31 1.26
16 4 12 26.75 1.25
-16 4 -12 25.11 1.28
18 -4 12 0.57 0.2
-18 4 -12 0.19 0.13
18 4 12 0.28 0.13
20 -4 12 8.22 0.57
20 4 12 8.36 0.5
-20 4 -12 7.04 0.52
22 -4 12 0.15 0.17
22 4 12 0.22 0.14
26 -4 12 0.2 0.13
-26 4 -12 -0.05 0.09
-28 4 -12 0.38 0.12
-30 4 -12 -0.04 0.11
-32 4 -12 0.82 0.16
-34 4 -12 -0.13 0.12
-36 4 -12 1.7 0.21
-38 4 -12 0.05 0.13
-40 4 -12 0.56 0.16
-46 -6 12 0.33 0.14
-46 6 12 -0.04 0.12
-44 -6 12 -0.1 0.15
-44 6 12 0.01 0.14
-42 -6 12 0.26 0.16
-42 6 12 0.15 0.16
-40 -6 12 0.1 0.15
-40 6 12 -0.14 0.15
-38 -6 12 0.62 0.17
-38 6 12 1.1 0.2
-36 -6 12 -0.04 0.15
-36 6 12 0.08 0.16
-34 -6 12 0.14 0.17
-34 6 12 0.64 0.17
-32 -6 12 -0.18 0.13
-32 6 12 0.07 0.14
-30 -6 12 1.42 0.21
-30 6 12 1.51 0.2
-28 -6 12 -0.26 0.12
-28 6 12 -0.12 0.12
-26 -6 12 1.35 0.18
-26 6 12 1.4 0.18
-24 -6 12 -0.05 0.1
-24 6 12 -0.08 0.11
24 6 -12 -0.07 0.14
-24 6 12 -0.12 0.19
-22 6 12 4.27 0.4
22 6 -12 4.67 0.38
-20 6 12 0.02 0.17
20 6 -12 0.06 0.13
18 6 -12 2.8 0.29
-18 6 12 3.59 0.32
16 6 -12 -0.06 0.1
-16 6 12 -0.05 0.13
-14 -6 12 6.12 0.37
-14 6 12 5.63 0.4
14 6 -12 6.12 0.39
-12 -6 12 0.06 0.1
12 6 -12 -0.04 0.08
-12 6 12 -0.13 0.11
-10 -6 12 8.37 0.44
-10 6 12 8.06 0.46
10 6 -12 6.82 0.43
-8 -6 12 -0.03 0.09
8 6 -12 -0.08 0.08
-8 6 12 -0.08 0.1
-6 -6 12 10.63 0.55
6 6 -12 10.88 0.55
-4 -6 12 0.13 0.1
-4 6 12 0.03 0.06
-4 6 12 -0.05 0.06
4 6 -12 0.05 0.07
-2 -6 12 8.77 0.5
2 6 -12 10.16 0.48
-2 6 12 9.27 0.48
-2 6 12 9.48 0.51
0 -6 12 0.7 0.15
0 6 12 0.59 0.15
0 6 -12 0.52 0.1
0 6 12 0.62 0.1
2 -6 12 9.1 0.51
2 6 12 9.33 0.47
2 6 12 9.16 0.5
4 -6 12 -0.03 0.04
4 6 12 -0.04 0.09
4 6 12 0.01 0.07
-4 6 -12 0.06 0.08
6 -6 12 9.73 0.55
6 6 12 9.31 0.51
6 6 12 10.74 0.52
-6 6 -12 9.93 0.55
8 -6 12 0.08 0.11
-8 6 -12 -0.11 0.08
8 6 12 0.01 0.08
8 6 12 0.07 0.08
10 -6 12 8.45 0.51
-10 6 -12 8.59 0.49
10 6 12 7.58 0.45
10 6 12 7.86 0.46
12 -6 12 -0.14 0.12
12 6 12 0.01 0.09
12 6 12 -0.05 0.09
-12 6 -12 -0.01 0.1
14 -6 12 5.94 0.46
14 6 12 6.07 0.43
14 6 12 5.75 0.39
-14 6 -12 5.61 0.4
16 -6 12 0.05 0.15
16 6 12 0.04 0.11
-16 6 -12 0.13 0.13
18 -6 12 2.32 0.33
-18 6 -12 2.96 0.31
18 6 12 2.87 0.29
20 -6 12 0.13 0.17
-20 6 -12 0.03 0.12
20 6 12 -0.03 0.12
22 -6 12 4.73 0.46
-22 6 -12 4.61 0.42
22 6 12 4.81 0.4
24 -6 12 0.02 0.12
24 6 12 0.28 0.17
26 -6 12 1.5 0.19
-28 6 -12 -0.04 0.09
-30 6 -12 1.14 0.16
-32 6 -12 -0.02 0.11
-34 6 -12 0.35 0.15
-36 6 -12 0.05 0.14
-38 6 -12 0.94 0.18
-40 6 -12 0 0.14
-42 6 -12 0.32 0.14
-46 -8 12 -0.15 0.13
-46 8 12 0.08 0.13
-44 -8 12 -0.14 0.14
-44 8 12 -0.19 0.13
-42 -8 12 -0.01 0.15
-42 8 12 -0.17 0.15
-40 -8 12 -0.04 0.16
-40 8 12 0.09 0.15
-38 -8 12 -0.23 0.14
-38 8 12 -0.24 0.15
-36 -8 12 0.14 0.15
-36 8 12 0.13 0.15
-34 -8 12 -0.15 0.15
-34 8 12 -0.11 0.14
-32 -8 12 -0.13 0.14
-32 8 12 0.1 0.13
-30 -8 12 -0.19 0.13
-30 8 12 -0.03 0.12
-28 -8 12 -0.02 0.13
-28 8 12 0.04 0.13
-26 -8 12 -0.31 0.12
-26 8 12 0.04 0.12
-26 8 12 -0.38 0.19
26 8 -12 -0.03 0.16
-24 -8 12 0.14 0.13
-24 8 12 -0.05 0.18
24 8 -12 0.14 0.16
-24 8 12 0.21 0.11
-22 -8 12 -0.17 0.11
22 8 -12 0.05 0.13
-22 8 12 -0.14 0.17
-20 8 12 0.05 0.14
20 8 -12 0.21 0.14
18 8 -12 -0.03 0.11
-18 8 12 0.09 0.14
16 8 -12 2.72 0.27
-16 8 12 1.67 0.25
-14 8 12 -0.09 0.14
14 8 -12 0.03 0.12
-12 -8 12 0.05 0.1
12 8 -12 0.14 0.12
-12 8 12 -0.09 0.12
-10 -8 12 0.14 0.11
-10 8 12 -0.01 0.13
10 8 -12 0.05 0.1
-8 -8 12 3.7 0.28
-8 8 12 3.88 0.26
8 8 -12 4.71 0.3
-8 8 12 3.47 0.29
-6 -8 12 0.03 0.1
-6 8 12 0.03 0.06
6 8 -12 -0.09 0.06
-6 8 12 -0.12 0.1
-4 -8 12 25.5 1.18
4 8 -12 27.56 1.22
-4 8 12 25.66 1.2
-4 8 12 28 1.21
-2 -8 12 0.05 0.1
-2 8 12 0.04 0.12
-2 8 12 -0.05 0.06
2 8 -12 0.01 0.06
0 -8 12 92.5 3.98
0 8 12 97.98 4.2
0 8 12 101.43 3.99
2 -8 12 0.01 0.11
2 8 12 -0.09 0.11
2 8 12 0.21 0.07
4 -8 12 25.25 1.16
4 8 12 24.9 1.13
-4 8 -12 24.18 1.2
4 8 12 26.56 1.16
6 -8 12 0.02 0.11
6 8 12 0 0.07
6 8 12 -0.04 0.08
-6 8 -12 -0.02 0.08
8 -8 12 3 0.29
8 8 12 2.88 0.24
-8 8 -12 2.61 0.25
10 -8 12 0.16 0.16
10 8 12 0.08 0.12
-10 8 -12 0.11 0.11
10 8 12 0.07 0.09
12 -8 12 0.12 0.15
12 8 12 -0.22 0.1
-12 8 -12 -0.03 0.11
12 8 12 0.07 0.11
14 -8 12 0.05 0.16
14 8 12 0.14 0.12
-14 8 -12 0.19 0.13
16 -8 12 1.29 0.25
-16 8 -12 1.25 0.2
18 -8 12 0.23 0.19
-18 8 -12 0.17 0.13
18 8 12 0.02 0.11
20 -8 12 -0.03 0.17
-20 8 -12 0.28 0.16
20 8 12 0.25 0.14
22 -8 12 0.24 0.21
22 8 12 0.03 0.14
-22 8 -12 -0.03 0.14
24 -8 12 0.03 0.1
24 8 12 -0.02 0.16
26 -8 12 0.09 0.13
26 8 12 -0.2 0.17
28 -8 12 0.43 0.29
28 -8 12 0.34 0.15
-30 8 -12 -0.1 0.1
-32 8 -12 0.08 0.11
-34 8 -12 0.13 0.13
-36 8 -12 0.17 0.15
-38 8 -12 -0.15 0.13
-40 8 -12 -0.03 0.13
-42 8 -12 -0.15 0.13
-44 8 -12 -0.27 0.13
-44 -10 12 -0.02 0.15
-44 10 12 0.03 0.14
-42 -10 12 0.03 0.16
-42 10 12 0.16 0.14
-40 -10 12 -0.23 0.15
-40 10 12 -0.07 0.15
-38 -10 12 0 0.15
-38 10 12 0.15 0.15
-36 -10 12 -0.12 0.15
-36 10 12 0.09 0.15
-34 -10 12 0.19 0.16
-34 10 12 0.45 0.16
-32 -10 12 -0.18 0.13
-32 10 12 0.02 0.13
-30 -10 12 0.53 0.16
-30 10 12 0.91 0.17
-28 -10 12 -0.23 0.13
28 10 -12 -0.23 0.18
-28 10 12 0.05 0.12
-26 -10 12 1.33 0.2
-26 10 12 0.69 0.3
26 10 -12 0.78 0.24
-26 10 12 1.14 0.16
-24 -10 12 -0.31 0.12
-24 10 12 -0.08 0.11
-24 10 12 -0.05 0.21
24 10 -12 -0.27 0.14
-22 -10 12 2.8 0.28
22 10 -12 2.62 0.31
-22 10 12 2.78 0.37
-20 10 12 0.08 0.15
20 10 -12 0.02 0.13
-18 10 12 0.05 0.14
18 10 -12 0.3 0.14
-16 10 12 0.15 0.15
16 10 -12 -0.05 0.11
-14 10 12 3.19 0.33
14 10 -12 2.9 0.3
-12 -10 12 0.05 0.12
-12 10 12 -0.07 0.15
12 10 -12 0.06 0.13
-10 -10 12 54.2 2.22
-10 10 12 53.58 2.24
10 10 -12 49.78 2.35
-8 -10 12 0.06 0.11
8 10 -12 0.03 0.09
-8 10 12 0.06 0.07
-8 10 12 0.07 0.13
-6 -10 12 8.07 0.44
-6 10 12 7.93 0.44
-6 10 12 7.35 0.39
6 10 -12 6.7 0.41
-4 -10 12 0.25 0.11
-4 10 12 0.16 0.12
-4 10 12 0.27 0.08
4 10 -12 0.3 0.09
-2 -10 12 14.92 0.72
-2 10 12 14.86 0.72
-2 10 12 13.44 0.68
0 -10 12 0.61 0.15
0 10 12 0.57 0.1
0 10 12 0.58 0.15
2 -10 12 14.79 0.73
2 10 12 14.36 0.71
2 10 12 13.51 0.67
4 -10 12 0.36 0.14
4 10 12 0.3 0.08
4 10 12 0.38 0.12
6 -10 12 7.72 0.48
-6 10 -12 8.85 0.47
6 10 12 7.27 0.43
6 10 12 6.98 0.41
8 -10 12 0.12 0.15
8 10 12 0.05 0.09
-8 10 -12 0.05 0.11
8 10 12 0.22 0.11
10 -10 12 53.65 2.31
-10 10 -12 53.9 2.42
10 10 12 52.54 2.22
10 10 12 50.65 2.34
12 -10 12 0.07 0.19
-12 10 -12 -0.03 0.13
12 10 12 -0.03 0.11
14 -10 12 2.48 0.33
14 10 12 2.49 0.27
-14 10 -12 2.87 0.3
16 -10 12 -0.02 0.16
16 10 12 0.15 0.12
-16 10 -12 -0.09 0.11
18 -10 12 0.17 0.19
18 10 12 0.16 0.13
-18 10 -12 0.1 0.14
20 -10 12 0.17 0.18
20 10 12 0.06 0.13
-20 10 -12 0.06 0.14
22 -10 12 2.6 0.26
-22 10 -12 2.63 0.33
22 10 12 1.95 0.29
24 -10 12 0.01 0.12
-24 10 -12 0.16 0.17
24 10 12 -0.22 0.15
26 -10 12 1.34 0.18
26 10 12 0.76 0.25
28 -10 12 -0.04 0.14
28 -10 12 -0.01 0.25
30 -10 12 0.83 0.18
-30 10 -12 0.75 0.15
-32 10 -12 -0.12 0.11
-34 10 -12 0.36 0.14
-36 10 -12 -0.11 0.13
-38 10 -12 -0.07 0.14
-40 10 -12 0.01 0.14
-42 10 -12 0.07 0.14
-44 10 -12 0.09 0.13
-44 -12 12 0.08 0.16
-44 12 12 0.27 0.14
-42 -12 12 0.11 0.16
-42 12 12 -0.15 0.13
-40 -12 12 0.65 0.18
-40 12 12 0.4 0.17
-38 -12 12 -0.18 0.15
-38 12 12 0.01 0.14
-36 -12 12 0.8 0.19
-36 12 12 0.66 0.17
-34 -12 12 0.04 0.16
-34 12 12 0.06 0.14
-32 -12 12 1.92 0.25
-32 12 12 2.31 0.25
-30 -12 12 0.06 0.14
-30 12 12 0.1 0.13
-28 -12 12 -0.33 0.13
-28 12 12 0.01 0.11
28 12 -12 -0.12 0.18
-28 12 12 -0.22 0.21
-26 -12 12 -0.29 0.12
-26 12 12 0.1 0.12
26 12 -12 -0.07 0.17
-26 12 12 -0.27 0.21
-24 -12 12 1.62 0.2
-24 12 12 2.67 0.38
24 12 -12 1.76 0.28
-24 12 12 2.12 0.21
-22 -12 12 -0.24 0.12
-22 12 12 -0.03 0.09
22 12 -12 0.04 0.14
-22 12 12 -0.1 0.2
-20 -12 12 12.33 0.63
-20 12 12 11.05 0.69
20 12 -12 12.14 0.7
-18 12 12 -0.07 0.15
18 12 -12 0.03 0.13
-16 12 12 13.6 0.71
16 12 -12 11.63 0.68
-14 12 12 0.13 0.15
14 12 -12 -0.03 0.11
12 12 -12 38.05 1.9
-12 12 12 45.5 1.84
-10 -12 12 0.06 0.13
-10 12 12 0.27 0.1
-10 12 12 0.08 0.15
10 12 -12 0.01 0.11
-8 -12 12 0.03 0.12
-8 12 12 -0.01 0.07
-8 12 12 0.06 0.13
8 12 -12 0.47 0.12
-6 -12 12 -0.03 0.1
6 12 -12 0 0.08
-6 12 12 0.03 0.06
-6 12 12 -0.05 0.11
-4 -12 12 35.42 1.61
-4 12 12 36.95 1.64
-4 12 12 38.02 1.62
4 12 -12 37.9 1.65
-2 -12 12 -0.09 0.1
-2 12 12 -0.07 0.06
-2 12 12 -0.08 0.1
0 -12 12 77.31 3.31
0 12 12 79.14 3.45
0 12 12 82.91 3.31
2 -12 12 0.12 0.12
2 12 12 0.06 0.06
2 12 12 -0.03 0.1
4 -12 12 34.91 1.61
4 12 12 35.33 1.57
4 12 12 37.37 1.61
6 -12 12 -0.03 0.13
6 12 12 -0.08 0.07
6 12 12 0.03 0.09
-6 12 -12 -0.12 0.08
8 -12 12 0.04 0.14
-8 12 -12 -0.05 0.11
8 12 12 0 0.09
8 12 12 0.08 0.1
10 -12 12 0.1 0.18
10 12 12 0.08 0.1
-10 12 -12 0.1 0.12
12 -12 12 49.42 2.07
-12 12 -12 46.66 2.12
12 12 12 41.22 2.04
14 -12 12 0.02 0.15
14 12 12 -0.02 0.1
-14 12 -12 0.04 0.12
16 -12 12 13.73 0.81
16 12 12 12.2 0.71
-16 12 -12 13.75 0.76
18 -12 12 0.07 0.17
18 12 12 0.12 0.13
-18 12 -12 0.05 0.13
20 -12 12 10.83 0.73
20 12 12 10.36 0.65
-20 12 -12 10.97 0.68
22 -12 12 0.04 0.12
22 12 12 0.07 0.15
-22 12 -12 -0.1 0.14
24 -12 12 1.86 0.21
-24 12 -12 1.91 0.32
24 12 12 1.56 0.28
26 -12 12 0.19 0.14
26 -12 12 -0.22 0.21
26 12 12 -0.15 0.16
-26 12 -12 0 0.2
28 -12 12 -0.18 0.13
28 12 12 -0.52 0.15
30 -12 12 -0.12 0.15
-32 12 -12 2.16 0.22
-34 12 -12 -0.15 0.11
-36 12 -12 0.57 0.17
-38 12 -12 -0.24 0.14
-40 12 -12 0.09 0.14
-42 12 -12 -0.12 0.13
-44 12 -12 -0.02 0.12
-44 -14 12 -0.09 0.15
-44 14 12 0.05 0.12
-42 -14 12 0.84 0.2
-42 14 12 1.19 0.19
-40 -14 12 0.01 0.16
-40 14 12 0.14 0.15
-38 -14 12 2.03 0.26
-38 14 12 1.89 0.24
-36 -14 12 0 0.15
-36 14 12 -0.12 0.14
-34 -14 12 2.01 0.24
-34 14 12 1.77 0.22
-32 -14 12 -0.19 0.15
-32 14 12 -0.05 0.13
-30 -14 12 0.11 0.15
30 14 -12 0.19 0.21
-30 14 12 0 0.13
-28 -14 12 -0.15 0.14
-28 14 12 -0.05 0.24
28 14 -12 0.1 0.2
-28 14 12 -0.08 0.11
-26 -14 12 0.35 0.15
-26 14 12 0.44 0.13
-26 14 12 0.18 0.22
26 14 -12 0.26 0.2
-24 -14 12 -0.27 0.11
-24 14 12 0.08 0.21
-24 14 12 -0.15 0.09
24 14 -12 -0.16 0.15
-22 -14 12 1.6 0.2
-22 14 12 1.6 0.17
-22 14 12 1.59 0.29
22 14 -12 1.93 0.27
-20 -14 12 -0.11 0.12
20 14 -12 0.12 0.14
-20 14 12 0.08 0.17
-18 14 12 5.25 0.43
18 14 -12 5.74 0.42
16 14 -12 0.04 0.12
-16 14 12 0.18 0.16
-14 14 12 2.02 0.26
14 14 -12 1.84 0.23
-12 14 12 -0.08 0.13
12 14 -12 0.06 0.12
-10 14 12 2.9 0.23
-10 14 12 3.13 0.31
10 14 -12 2.79 0.27
-8 -14 12 0.12 0.13
8 14 -12 0.17 0.1
-8 14 12 0.08 0.08
-8 14 12 -0.09 0.13
-6 -14 12 5.78 0.4
-6 14 12 6.06 0.34
-6 14 12 6.44 0.42
6 14 -12 5.88 0.35
-4 -14 12 0.12 0.13
-4 14 12 0.1 0.07
-4 14 12 0.12 0.12
-2 -14 12 43.45 1.84
-2 14 12 41.25 1.85
-2 14 12 41.73 1.82
0 -14 12 0.29 0.15
0 14 12 0.31 0.14
0 14 12 0.18 0.07
2 -14 12 41.51 1.82
2 14 12 40.22 1.81
2 14 12 41.96 1.79
4 -14 12 0.27 0.16
4 14 12 0.22 0.08
4 14 12 0.4 0.14
6 -14 12 5.81 0.44
-6 14 -12 5.85 0.4
6 14 12 6.13 0.39
6 14 12 5.91 0.35
8 -14 12 -0.04 0.16
8 14 12 0.03 0.09
-8 14 -12 0.08 0.12
10 -14 12 2.62 0.34
-10 14 -12 3.17 0.31
10 14 12 2.75 0.25
12 -14 12 0.12 0.19
-12 14 -12 -0.05 0.11
12 14 12 0.06 0.1
14 -14 12 1.58 0.28
-14 14 -12 1.77 0.24
14 14 12 1.55 0.2
16 -14 12 0.01 0.16
16 14 12 -0.01 0.1
-16 14 -12 0.1 0.13
18 -14 12 4.46 0.46
-18 14 -12 4.56 0.4
18 14 12 4.8 0.38
20 -14 12 0.09 0.12
20 14 12 -0.03 0.13
-20 14 -12 0.03 0.14
22 -14 12 1.65 0.29
22 -14 12 1.92 0.21
22 14 12 1.62 0.27
-22 14 -12 1.82 0.29
24 -14 12 0.06 0.19
24 -14 12 0.09 0.13
24 14 12 -0.13 0.15
-24 14 -12 -0.11 0.16
26 -14 12 0.62 0.16
-26 14 -12 0.26 0.2
26 14 12 0.04 0.19
28 -14 12 -0.04 0.15
28 14 12 -0.22 0.18
30 -14 12 0.1 0.16
-32 14 -12 -0.12 0.11
-34 14 -12 1.84 0.21
-36 14 -12 0.24 0.14
-38 14 -12 1.56 0.22
-40 14 -12 -0.16 0.13
-42 14 -12 1.01 0.18
-44 14 -12 0.04 0.13
-42 -16 12 0.09 0.16
-42 16 12 0.08 0.13
-40 -16 12 0.63 0.2
-40 16 12 0.92 0.18
-38 -16 12 0.17 0.17
-38 16 12 0.12 0.15
-36 -16 12 2.19 0.26
-36 16 12 2.31 0.25
-34 -16 12 0.18 0.16
-34 16 12 0.08 0.14
-32 -16 12 1.73 0.23
-32 16 12 2.24 0.25
-30 -16 12 -0.31 0.13
30 16 -12 -0.15 0.18
-30 16 12 -0.15 0.12
-28 -16 12 0.98 0.18
-28 16 12 1.08 0.18
28 16 -12 1.08 0.28
-26 -16 12 -0.07 0.13
26 16 -12 -0.09 0.18
-26 16 12 0.13 0.24
-26 16 12 -0.02 0.11
-24 -16 12 4.15 0.36
-24 16 12 5.01 0.34
-24 16 12 5.49 0.49
24 16 -12 4.89 0.46
-22 -16 12 0.09 0.12
22 16 -12 0 0.16
-22 16 12 -0.04 0.19
-20 -16 12 26.11 1.23
-20 16 12 24.28 1.28
20 16 -12 26.1 1.29
-18 -16 12 0.05 0.12
-18 16 12 0.02 0.17
18 16 -12 0.37 0.16
16 16 -12 28.17 1.4
-16 16 12 30.04 1.39
14 16 -12 -0.04 0.11
-14 16 12 0.07 0.14
-12 16 12 13.56 0.69
12 16 -12 11.01 0.66
-10 16 12 0.03 0.08
10 16 -12 0.26 0.12
-10 16 12 -0.29 0.14
8 16 -12 2.78 0.23
-8 16 12 1.89 0.19
-8 16 12 1.81 0.25
-6 -16 12 0.2 0.14
6 16 -12 0.05 0.09
-6 16 12 0 0.13
-4 -16 12 28.6 1.31
-4 16 12 28.89 1.31
-2 -16 12 0.19 0.14
-2 16 12 0.01 0.13
0 -16 12 71.46 3.09
0 16 12 75.03 3.07
2 -16 12 0.01 0.07
2 -16 12 0.09 0.14
2 16 12 0.09 0.14
4 -16 12 28.66 1.38
4 -16 12 30.24 1.32
4 16 12 28.82 1.34
4 16 12 29.68 1.33
6 -16 12 -0.04 0.15
6 -16 12 0.03 0.08
6 16 12 0.06 0.07
6 16 12 0.01 0.12
-6 16 -12 -0.11 0.1
8 -16 12 1.56 0.26
-8 16 -12 1.3 0.2
10 -16 12 0.11 0.16
-10 16 -12 -0.04 0.11
10 16 12 0 0.08
12 -16 12 13.64 0.79
12 16 12 11.7 0.67
-12 16 -12 13.7 0.73
14 -16 12 0.05 0.18
14 16 12 0.03 0.1
-14 16 -12 0.11 0.12
16 -16 12 28.77 1.44
-16 16 -12 29.58 1.44
16 16 12 27.69 1.38
18 -16 12 0.2 0.11
18 -16 12 0.25 0.15
18 -16 12 0.17 0.21
-18 16 -12 0.12 0.14
18 16 12 0.15 0.13
20 -16 12 22.53 1.18
20 -16 12 22.94 1.11
-20 16 -12 22.67 1.22
20 16 12 23.44 1.19
22 -16 12 -0.04 0.15
22 -16 12 0.33 0.14
-22 16 -12 0.04 0.16
22 16 12 0.09 0.16
24 -16 12 3.89 0.41
24 -16 12 3.6 0.33
24 16 12 4.01 0.43
-24 16 -12 4.34 0.46
26 -16 12 -0.11 0.14
-26 16 -12 -0.02 0.2
26 16 12 0.1 0.18
28 -16 12 0.59 0.18
-28 16 -12 0.68 0.26
28 16 12 0.74 0.25
30 -16 12 -0.08 0.15
30 16 12 -0.19 0.19
32 -16 12 1.95 0.26
-32 16 -12 2.12 0.23
-34 16 -12 0.17 0.13
-36 16 -12 2.75 0.31
-38 16 -12 -0.05 0.14
-40 16 -12 0.7 0.17
-42 16 -12 -0.12 0.12
-42 -18 12 0.91 0.18
-42 18 12 0.86 0.16
-40 -18 12 0.25 0.17
-40 18 12 -0.07 0.13
-38 -18 12 3.03 0.32
-38 18 12 3.73 0.36
-36 -18 12 -0.08 0.17
-36 18 12 0.16 0.15
-34 -18 12 5.06 0.44
-34 18 12 4.36 0.4
-32 -18 12 0.26 0.16
-32 18 12 -0.04 0.14
-30 -18 12 0.27 0.16
30 18 -12 0.66 0.25
-30 18 12 0.42 0.15
-28 -18 12 0.18 0.14
-28 18 12 -0.06 0.12
28 18 -12 0.25 0.21
-26 -18 12 0.51 0.15
-26 18 12 0.37 0.26
26 18 -12 0.44 0.22
-24 -18 12 -0.08 0.13
24 18 -12 -0.16 0.16
-24 18 12 0.1 0.22
-22 -18 12 1.99 0.23
22 18 -12 2.61 0.33
-22 18 12 2.46 0.38
-20 -18 12 -0.08 0.11
-20 18 12 -0.03 0.18
20 18 -12 -0.18 0.13
-18 -18 12 10.37 0.58
-18 18 12 9.94 0.68
18 18 -12 11.11 0.64
-16 -18 12 0.18 0.11
16 18 -12 0.23 0.14
-16 18 12 0.17 0.17
-14 18 12 5.62 0.44
14 18 -12 4.95 0.39
12 18 -12 0.03 0.11
-12 18 12 0.03 0.08
-12 18 12 0.07 0.15
-10 18 12 0.15 0.16
10 18 -12 0.13 0.11
-8 18 12 0.11 0.14
8 18 -12 0.09 0.1
-6 18 12 2.55 0.28
-4 -18 12 0.49 0.17
-4 18 12 0.36 0.17
-2 -18 12 20.94 1.02
-2 18 12 20.32 0.99
0 -18 12 0.55 0.18
0 18 12 0.38 0.17
2 -18 12 21.26 1.09
2 18 12 23.03 1.07
4 -18 12 0.31 0.18
4 18 12 0.43 0.16
6 -18 12 2.76 0.34
-6 18 -12 2.79 0.28
8 -18 12 0.17 0.17
-8 18 -12 0.1 0.11
8 18 12 0.08 0.08
10 -18 12 0.18 0.16
10 -18 12 0.12 0.06
10 18 12 0.15 0.09
-10 18 -12 0.04 0.12
12 -18 12 0.2 0.19
12 -18 12 0.07 0.07
-12 18 -12 0.02 0.11
12 18 12 0.04 0.09
14 -18 12 5.01 0.31
14 -18 12 5.1 0.47
-14 18 -12 4.44 0.4
14 18 12 4.7 0.36
16 -18 12 0.2 0.23
16 -18 12 0.42 0.13
16 -18 12 0.14 0.11
-16 18 -12 0.12 0.15
16 18 12 0 0.11
18 -18 12 9.74 0.55
18 -18 12 9.65 0.54
-18 18 -12 8.16 0.61
18 18 12 10.15 0.61
20 -18 12 0.05 0.12
20 -18 12 0.13 0.13
20 18 12 -0.04 0.14
-20 18 -12 0.19 0.16
22 -18 12 1.92 0.23
22 -18 12 1.74 0.24
22 18 12 2.2 0.31
-22 18 -12 2.2 0.32
24 -18 12 -0.14 0.14
24 18 12 -0.06 0.16
-24 18 -12 -0.19 0.17
26 -18 12 0.43 0.16
26 18 12 0.35 0.21
-26 18 -12 0.73 0.25
28 -18 12 -0.28 0.15
28 18 12 0 0.19
30 -18 12 0.37 0.18
30 18 12 0.27 0.23
32 -18 12 0.05 0.17
-34 18 -12 4.49 0.37
-36 18 -12 0.24 0.14
-38 18 -12 3.26 0.34
-40 18 -12 -0.13 0.13
-42 18 -12 0.93 0.17
-40 -20 12 0.57 0.18
-40 20 12 0.53 0.15
-38 -20 12 -0.04 0.15
-38 20 12 0.18 0.13
-36 -20 12 1.93 0.26
-36 20 12 1.87 0.23
-34 -20 12 0.3 0.18
-34 20 12 0.12 0.14
-32 -20 12 0.91 0.21
-32 20 12 0.63 0.18
-30 -20 12 -0.02 0.15
30 20 -12 0.05 0.21
-28 -20 12 1.33 0.21
28 20 -12 1.41 0.3
-26 -20 12 0.08 0.13
26 20 -12 -0.13 0.17
-24 -20 12 2.08 0.23
24 20 -12 2.51 0.33
-24 20 12 2.67 0.42
-22 -20 12 0.03 0.11
-22 20 12 -0.13 0.22
22 20 -12 -0.12 0.16
-20 -20 12 13.44 0.73
20 20 -12 13.82 0.8
-20 20 12 13.96 0.86
-18 -20 12 -0.08 0.11
18 20 -12 0.06 0.14
-18 20 12 0.15 0.19
-16 -20 12 25.93 1.19
16 20 -12 22.17 1.21
-16 20 12 25.97 1.26
-14 -20 12 -0.02 0.1
-14 20 12 0.09 0.17
14 20 -12 0.1 0.12
12 20 -12 10.07 0.61
-12 20 12 11.62 0.67
-10 20 12 0.02 0.17
10 20 -12 0.02 0.1
-8 20 12 0.15 0.17
-6 20 12 0.01 0.15
-4 -20 12 8.04 0.51
-4 20 12 7.76 0.51
-2 -20 12 0.22 0.17
-2 20 12 0.27 0.15
0 -20 12 19.69 1.02
0 20 12 21.24 1.01
2 -20 12 0.17 0.16
2 20 12 0.26 0.17
4 -20 12 7.55 0.53
6 -20 12 0.03 0.16
-6 20 -12 0.09 0.11
8 -20 12 0.15 0.17
-8 20 -12 0.05 0.11
10 -20 12 0.12 0.18
10 20 12 0.18 0.09
-10 20 -12 0.01 0.12
12 -20 12 11.16 0.75
12 -20 12 11.12 0.61
-12 20 -12 11.68 0.69
12 20 12 11.39 0.62
14 -20 12 0.29 0.13
14 -20 12 0.03 0.18
14 20 12 0.05 0.1
-14 20 -12 -0.01 0.14
16 -20 12 22.86 1.13
16 20 12 22.67 1.16
-16 20 -12 24 1.23
18 -20 12 0.16 0.14
18 20 12 0.05 0.14
-18 20 -12 -0.09 0.14
20 -20 12 12.06 0.67
20 20 12 12.63 0.75
-20 20 -12 12 0.78
22 -20 12 0.02 0.12
-22 20 -12 -0.13 0.17
22 20 12 -0.17 0.15
24 -20 12 1.78 0.24
24 20 12 1.94 0.32
-24 20 -12 2.52 0.37
26 -20 12 -0.01 0.15
26 20 12 -0.01 0.19
28 -20 12 1.27 0.22
28 20 12 1.33 0.31
30 -20 12 0 0.17
30 20 12 0 0.21
32 -20 12 0.69 0.21
-34 20 -12 0.32 0.14
-36 20 -12 2.04 0.23
-38 20 -12 0.07 0.13
-40 20 -12 0.58 0.15
-42 20 -12 -0.03 0.12
-40 -22 12 -0.04 0.14
-38 -22 12 2.05 0.24
-36 -22 12 0.07 0.17
-34 -22 12 5.27 0.45
-32 -22 12 0.1 0.17
-30 -22 12 0.94 0.2
-28 -22 12 -0.01 0.15
28 22 -12 -0.11 0.19
-26 -22 12 0.29 0.15
26 22 -12 0.33 0.2
-24 -22 12 -0.07 0.12
24 22 -12 0.06 0.17
-22 -22 12 0.2 0.13
-22 22 12 0.21 0.26
22 22 -12 0.02 0.17
-20 -22 12 0.09 0.12
-20 22 12 0.21 0.23
20 22 -12 -0.05 0.15
-18 -22 12 1.78 0.2
-18 22 12 2.35 0.37
18 22 -12 1.74 0.26
-16 -22 12 0.29 0.13
-16 22 12 -0.12 0.21
16 22 -12 0.01 0.13
-14 -22 12 2.12 0.22
-14 22 12 1.33 0.28
14 22 -12 2.24 0.27
-12 -22 12 0.15 0.12
-12 22 12 0.05 0.2
12 22 -12 0.02 0.13
-10 -22 12 2.41 0.25
-10 22 12 2.86 0.35
-8 -22 12 0.15 0.13
-8 22 12 0.18 0.19
-6 22 12 4.71 0.42
-4 22 12 0.09 0.16
-2 -22 12 8.56 0.57
-2 22 12 9.18 0.57
0 -22 12 0.1 0.15
0 22 12 0.27 0.17
2 -22 12 8.68 0.59
4 -22 12 0.3 0.19
6 -22 12 4.65 0.44
-6 22 -12 4.95 0.38
8 -22 12 0.14 0.12
8 -22 12 -0.02 0.17
-8 22 -12 -0.07 0.11
10 -22 12 2.67 0.28
10 -22 12 2.65 0.38
-10 22 -12 2.09 0.28
12 -22 12 0.11 0.14
-12 22 -12 -0.03 0.13
12 22 12 0.06 0.1
14 -22 12 1.74 0.21
14 22 12 1.77 0.23
-14 22 -12 1.57 0.26
16 -22 12 0.18 0.14
-16 22 -12 0.1 0.16
16 22 12 -0.05 0.12
18 -22 12 2.27 0.24
-18 22 -12 1.99 0.31
18 22 12 2.27 0.29
20 -22 12 0 0.14
-20 22 -12 -0.19 0.16
20 22 12 -0.17 0.13
22 -22 12 0.21 0.15
-22 22 -12 0.18 0.19
22 22 12 0.22 0.2
24 -22 12 -0.08 0.15
-24 22 -12 0.11 0.21
24 22 12 -0.07 0.17
26 -22 12 0.03 0.17
26 22 12 0.23 0.22
28 -22 12 0.06 0.17
28 22 12 0.13 0.22
30 -22 12 0.9 0.21
32 -22 12 -0.16 0.18
-34 22 -12 4.78 0.39
-36 22 -12 0.06 0.12
-38 22 -12 1.83 0.21
-40 22 -12 0.03 0.12
-38 -24 12 0.34 0.16
-36 -24 12 0.8 0.19
-34 -24 12 0.26 0.17
-32 -24 12 0.42 0.19
-30 -24 12 -0.02 0.17
-28 -24 12 0.12 0.17
-26 -24 12 0.11 0.16
26 24 -12 -0.04 0.19
-24 -24 12 -0.04 0.14
24 24 -12 0.53 0.22
-22 -24 12 0.17 0.14
22 24 -12 0.1 0.17
-20 -24 12 1.81 0.22
-20 24 12 1.79 0.36
20 24 -12 2.56 0.32
-18 -24 12 0.02 0.12
-18 24 12 -0.16 0.18
18 24 -12 0.1 0.14
-16 -24 12 4.64 0.35
-16 24 12 4.33 0.47
16 24 -12 3.98 0.38
-14 -24 12 0.05 0.12
14 24 -12 0.16 0.14
-14 24 12 -0.11 0.18
-12 -24 12 2.14 0.23
-12 24 12 2.03 0.33
-10 -24 12 0.08 0.11
-10 24 12 0.04 0.21
-8 -24 12 -0.01 0.12
-8 24 12 0.13 0.2
-6 -24 12 -0.14 0.12
-6 24 12 0.1 0.17
-4 -24 12 5.19 0.37
-4 24 12 5.44 0.46
-2 -24 12 0.04 0.13
-2 24 12 0.1 0.18
0 -24 12 16.34 0.83
0 -24 12 16.18 0.89
2 -24 12 0.3 0.18
2 -24 12 0.06 0.13
4 -24 12 5.38 0.39
4 -24 12 4.98 0.49
6 -24 12 -0.08 0.2
6 -24 12 0.05 0.12
-6 24 -12 -0.12 0.12
8 -24 12 -0.02 0.12
-8 24 -12 0.13 0.13
10 -24 12 0.16 0.13
-10 24 -12 -0.09 0.13
12 -24 12 1.71 0.22
-12 24 -12 1.97 0.28
12 24 12 2.04 0.24
14 -24 12 -0.15 0.13
14 24 12 -0.02 0.12
-14 24 -12 0.18 0.15
16 -24 12 4.31 0.37
-16 24 -12 4.23 0.43
16 24 12 4.12 0.38
18 -24 12 0.18 0.14
18 24 12 0.01 0.14
-18 24 -12 -0.17 0.15
20 -24 12 1.86 0.25
20 24 12 2.04 0.3
-20 24 -12 1.7 0.31
22 -24 12 -0.16 0.14
22 24 12 -0.15 0.17
24 -24 12 0.23 0.17
24 24 12 -0.03 0.19
26 -24 12 -0.01 0.17
26 24 12 -0.07 0.2
28 -24 12 0.11 0.19
30 -24 12 0.25 0.19
32 -24 12 0.69 0.21
-34 24 -12 0.06 0.13
-36 24 -12 0.85 0.17
-38 24 -12 0.09 0.12
-40 24 -12 0.25 0.12
-36 -26 12 0.1 0.15
-34 -26 12 1.78 0.24
-32 -26 12 0.14 0.18
-30 -26 12 0.87 0.21
-28 -26 12 0.12 0.18
-26 -26 12 0.21 0.18
-24 -26 12 0.02 0.16
24 26 -12 0.05 0.18
-22 -26 12 0.08 0.16
22 26 -12 0.4 0.21
-20 -26 12 0.02 0.13
20 26 -12 -0.15 0.15
-18 -26 12 0.41 0.15
18 26 -12 0.46 0.19
-16 -26 12 0.06 0.13
16 26 -12 0.01 0.15
-16 26 12 0.1 0.24
-14 -26 12 0.35 0.14
-14 26 12 0.27 0.22
14 26 -12 0.08 0.15
-12 -26 12 0.14 0.13
-12 26 12 -0.32 0.22
-10 -26 12 1.16 0.17
-10 26 12 0.68 0.28
-8 -26 12 0.03 0.14
-8 26 12 -0.24 0.19
-6 -26 12 1.22 0.19
-6 26 12 1.76 0.33
-4 -26 12 -0.05 0.13
-4 26 12 -0.06 0.19
-2 -26 12 1.74 0.2
0 -26 12 0.04 0.13
2 -26 12 2.47 0.25
4 -26 12 0.09 0.13
6 -26 12 1.74 0.22
-6 26 -12 1.86 0.26
8 -26 12 -0.04 0.14
-8 26 -12 0.07 0.14
10 -26 12 1.15 0.2
-10 26 -12 1.01 0.22
12 -26 12 -0.04 0.16
-12 26 -12 -0.07 0.15
14 -26 12 0.24 0.15
14 26 12 0.19 0.15
-14 26 -12 0.05 0.17
16 -26 12 -0.07 0.16
-16 26 -12 0.04 0.18
16 26 12 0.11 0.14
18 -26 12 0.41 0.17
18 26 12 0.63 0.2
-18 26 -12 0.45 0.22
20 -26 12 0.16 0.16
20 26 12 0.11 0.16
22 -26 12 0.22 0.17
22 26 12 0.03 0.19
24 -26 12 0.08 0.18
24 26 12 0.14 0.22
26 -26 12 0.29 0.2
28 -26 12 -0.14 0.19
30 -26 12 0.5 0.22
32 -26 12 0.03 0.19
-34 26 -12 1.82 0.22
-36 26 -12 0.14 0.13
-38 26 -12 0.49 0.14
-34 -28 12 0.05 0.16
-32 -28 12 -0.07 0.16
-30 -28 12 -0.03 0.17
-28 -28 12 0.11 0.19
-26 -28 12 -0.08 0.18
-24 -28 12 -0.14 0.17
-22 -28 12 -0.23 0.16
22 28 -12 0.02 0.19
-20 -28 12 1.18 0.21
20 28 -12 1.47 0.26
-18 -28 12 0 0.13
18 28 -12 -0.01 0.15
-16 -28 12 0.66 0.17
16 28 -12 1.05 0.22
-14 -28 12 0.01 0.13
-14 28 12 -0.04 0.23
-12 -28 12 -0.17 0.13
-12 28 12 -0.01 0.22
-10 -28 12 -0.13 0.12
-10 28 12 -0.21 0.21
-8 -28 12 -0.11 0.13
-8 28 12 0.11 0.22
-6 -28 12 -0.26 0.13
-6 28 12 0.1 0.22
-4 -28 12 0.41 0.16
-2 -28 12 -0.07 0.14
0 -28 12 -0.11 0.13
2 -28 12 0.03 0.14
4 -28 12 0.56 0.16
-4 28 -12 0.54 0.18
6 -28 12 0.02 0.14
-6 28 -12 0.04 0.14
8 -28 12 0.15 0.15
-8 28 -12 0.18 0.15
10 -28 12 -0.09 0.15
-10 28 -12 -0.14 0.14
12 -28 12 -0.15 0.14
-12 28 -12 0.08 0.15
14 -28 12 -0.17 0.14
-14 28 -12 -0.2 0.14
14 28 12 -0.12 0.13
16 -28 12 0.52 0.19
16 28 12 1.12 0.22
-16 28 -12 1.04 0.25
18 -28 12 0.15 0.16
18 28 12 -0.05 0.15
20 -28 12 1.13 0.21
20 28 12 0.94 0.25
22 -28 12 -0.02 0.17
22 28 12 0.04 0.18
24 -28 12 0.25 0.2
26 -28 12 -0.04 0.19
28 -28 12 0.15 0.2
30 -28 12 0.18 0.2
32 -28 12 0.12 0.18
-32 28 -12 0.09 0.14
-34 28 -12 -0.08 0.12
-36 28 -12 0.1 0.12
-30 -30 12 0.33 0.17
-28 -30 12 -0.1 0.17
-26 -30 12 0.79 0.21
-24 -30 12 -0.13 0.17
-22 -30 12 1.07 0.23
-20 -30 12 -0.08 0.16
20 30 -12 0.2 0.19
-18 -30 12 0.14 0.17
18 30 -12 0.44 0.19
-16 -30 12 -0.31 0.13
16 30 -12 -0.15 0.15
-14 -30 12 -0.03 0.14
-12 -30 12 -0.19 0.12
-10 -30 12 0.72 0.17
-10 30 12 1.74 0.36
-8 -30 12 -0.04 0.14
-8 30 12 -0.09 0.22
-6 -30 12 1.45 0.21
-4 -30 12 0.17 0.14
-2 -30 12 0.89 0.17
0 -30 12 0 0.13
2 -30 12 1.18 0.2
4 -30 12 -0.07 0.13
-4 30 -12 -0.05 0.13
6 -30 12 1.4 0.22
-6 30 -12 1.97 0.27
8 -30 12 -0.04 0.14
-8 30 -12 0.17 0.15
10 -30 12 1.1 0.2
-10 30 -12 1.18 0.25
12 -30 12 0.07 0.16
-12 30 -12 0.06 0.15
14 -30 12 0 0.16
16 -30 12 -0.08 0.16
16 30 12 0.08 0.16
18 -30 12 0.2 0.18
18 30 12 0.33 0.19
20 -30 12 0.21 0.18
20 30 12 0.08 0.19
22 -30 12 0.88 0.23
24 -30 12 -0.05 0.19
26 -30 12 0.53 0.21
28 -30 12 -0.04 0.2
30 -30 12 0.13 0.19
-32 30 -12 -0.1 0.12
-34 30 -12 0.26 0.13
-26 -32 12 -0.36 0.16
-24 -32 12 0.04 0.18
-22 -32 12 -0.37 0.16
-20 -32 12 0.49 0.2
-18 -32 12 0 0.16
-16 -32 12 1.61 0.24
-14 -32 12 0.19 0.15
-12 -32 12 1.81 0.23
-10 -32 12 -0.01 0.13
-8 -32 12 0.06 0.14
-6 -32 12 -0.11 0.12
-4 -32 12 0.45 0.15
-2 -32 12 0.02 0.14
0 -32 12 1.21 0.21
2 -32 12 0 0.14
-2 32 -12 0.13 0.14
4 -32 12 0.74 0.18
-4 32 -12 0.89 0.19
6 -32 12 -0.17 0.13
-6 32 -12 0.03 0.15
8 -32 12 0.08 0.15
10 -32 12 0.25 0.17
12 -32 12 1.67 0.24
14 -32 12 0.02 0.17
16 -32 12 1.78 0.25
16 32 12 1.93 0.3
18 -32 12 0.08 0.18
20 -32 12 0.72 0.21
22 -32 12 -0.52 0.17
24 -32 12 0.41 0.21
26 -32 12 -0.33 0.19
28 -32 12 -0.09 0.19
30 -32 12 -0.15 0.17
-32 32 -12 -0.08 0.12
-34 32 -12 0.1 0.11
-20 -34 12 0 0.16
-18 -34 12 3.7 0.4
-16 -34 12 -0.06 0.16
-14 -34 12 2.1 0.26
-12 -34 12 -0.26 0.14
-10 -34 12 -0.01 0.15
-8 -34 12 -0.01 0.14
-6 -34 12 0.5 0.17
-4 -34 12 0.19 0.15
-2 -34 12 1.44 0.21
0 -34 12 0.22 0.15
2 -34 12 1.56 0.23
4 -34 12 0 0.16
6 -34 12 0.39 0.18
8 -34 12 0.19 0.17
10 -34 12 0.63 0.19
12 -34 12 -0.11 0.16
14 -34 12 1.62 0.24
16 -34 12 0.17 0.19
18 -34 12 3.71 0.39
20 -34 12 0.16 0.19
22 -34 12 3.99 0.42
24 -34 12 0.1 0.19
26 -34 12 1.08 0.22
28 -34 12 -0.13 0.17
-30 34 -12 0.15 0.13
-14 -36 12 -0.13 0.15
-12 -36 12 0.76 0.19
-10 -36 12 -0.11 0.14
-8 -36 12 0.07 0.15
-6 -36 12 -0.17 0.14
-4 -36 12 1.49 0.22
-2 -36 12 0.17 0.15
0 -36 12 1.68 0.23
2 -36 12 0.02 0.16
4 -36 12 1.21 0.23
6 -36 12 -0.22 0.15
8 -36 12 -0.09 0.16
10 -36 12 -0.34 0.16
12 -36 12 0.99 0.21
14 -36 12 0.25 0.18
16 -36 12 1.86 0.26
18 -36 12 -0.03 0.17
20 -36 12 1.56 0.24
22 -36 12 -0.36 0.16
24 -36 12 0.62 0.19
26 -36 12 -0.13 0.16
28 -36 12 -0.15 0.15
-8 -38 12 -0.15 0.14
-6 -38 12 1.01 0.19
-4 -38 12 0.29 0.16
-2 -38 12 3.28 0.35
0 -38 12 0.08 0.16
2 -38 12 2.87 0.29
4 -38 12 -0.07 0.16
6 -38 12 1.1 0.21
8 -38 12 -0.16 0.16
10 -38 12 0 0.16
12 -38 12 0.04 0.16
14 -38 12 1.64 0.23
16 -38 12 0.31 0.17
18 -38 12 2.59 0.27
20 -38 12 -0.29 0.15
22 -38 12 1.65 0.22
24 -38 12 0.01 0.15
26 -38 12 0.37 0.15
-2 -40 12 0.24 0.16
0 -40 12 0.42 0.17
2 -40 12 -0.13 0.14
4 -40 12 0.64 0.18
6 -40 12 0.01 0.16
8 -40 12 0.02 0.15
10 -40 12 -0.15 0.15
12 -40 12 0.41 0.17
14 -40 12 0.07 0.15
16 -40 12 0.58 0.18
18 -40 12 -0.17 0.14
20 -40 12 0.53 0.16
22 -40 12 -0.1 0.13
8 -42 12 -0.06 0.14
10 -42 12 0.08 0.14
12 -42 12 -0.03 0.13
14 -42 12 0.82 0.17
16 -42 12 0.2 0.14
18 -42 12 0.55 0.16
-45 -1 13 0.05 0.14
-45 1 13 -0.04 0.14
-43 -1 13 0.12 0.15
-43 1 13 -0.07 0.14
-41 -1 13 0.04 0.15
-41 1 13 0 0.15
-39 -1 13 -0.13 0.15
-39 1 13 -0.15 0.14
-37 -1 13 -0.06 0.15
-37 1 13 0.01 0.16
-35 -1 13 -0.04 0.16
-35 1 13 0.12 0.16
-33 -1 13 -0.06 0.14
-33 1 13 0.04 0.14
-31 -1 13 0.02 0.14
-31 1 13 -0.09 0.13
-29 -1 13 -0.01 0.13
-29 1 13 0.04 0.13
-27 -1 13 0.16 0.13
-27 1 13 0.28 0.13
-25 -1 13 -0.01 0.11
-25 1 13 -0.04 0.11
-23 -1 13 -0.08 0.09
-23 1 13 0.08 0.11
-21 1 13 0.68 0.2
-19 -1 13 2.56 0.29
-19 1 13 3.39 0.34
-17 -1 13 6.14 0.43
-17 1 13 6.37 0.44
17 1 -13 5.8 0.37
-15 -1 13 6.82 0.42
15 1 -13 5.76 0.36
-15 1 13 5.57 0.4
13 -1 -13 9.79 0.5
-13 -1 13 9.4 0.54
-13 1 13 9.96 0.56
13 1 -13 9.94 0.52
-11 -1 13 11.78 0.63
11 -1 -13 12.79 0.6
-11 1 13 12.35 0.64
11 1 -13 12.14 0.61
9 -1 -13 18.75 0.86
-9 -1 13 18.16 0.88
-9 1 13 19.02 0.89
9 1 -13 18.65 0.87
7 -1 -13 14.37 0.67
-7 -1 13 13.55 0.7
-7 1 13 14.29 0.71
7 1 -13 14.64 0.69
-5 -1 13 8.5 0.48
5 -1 -13 9.06 0.45
-5 1 13 8.6 0.49
5 1 -13 9.52 0.47
-3 -1 13 7.47 0.44
3 -1 -13 7.65 0.4
3 1 -13 7.78 0.41
1 -1 -13 1.89 0.2
-1 -1 -13 2.18 0.17
-1 -1 -13 1.49 0.18
1 1 13 1.88 0.21
-1 1 -13 1.91 0.17
1 1 13 1.91 0.17
-1 1 -13 1.42 0.18
-3 -1 -13 6.93 0.43
3 -1 13 7.36 0.44
-3 -1 -13 8.3 0.4
-3 1 -13 7.44 0.44
3 1 13 7.28 0.43
3 1 13 6.71 0.39
-5 -1 -13 8.07 0.49
5 -1 13 7.87 0.43
-5 -1 -13 9.19 0.44
5 -1 13 7.82 0.48
5 1 13 8.3 0.45
-5 1 -13 9.33 0.45
5 1 13 8.83 0.49
-5 1 -13 8.64 0.5
-7 -1 -13 12.27 0.7
7 -1 13 13.57 0.7
7 -1 13 13.55 0.66
-7 -1 -13 15.3 0.67
7 1 13 13.43 0.67
-7 1 -13 13.88 0.66
7 1 13 13.97 0.7
-7 1 -13 12.96 0.71
-9 -1 -13 19.38 0.87
9 -1 13 18.68 0.86
9 -1 13 18.3 0.9
-9 -1 -13 17.74 0.92
-9 1 -13 17.91 0.92
-9 1 -13 19.15 0.87
9 1 13 17.85 0.89
9 1 13 17.77 0.87
11 -1 13 11.27 0.63
-11 -1 -13 12.51 0.58
11 -1 13 11.56 0.57
-11 -1 -13 10.74 0.63
11 1 13 11.82 0.59
11 1 13 10.1 0.61
-11 1 -13 11.83 0.64
13 -1 13 9.45 0.49
13 -1 13 9.43 0.57
-13 -1 -13 10.26 0.51
13 1 13 8.83 0.55
-13 1 -13 8.99 0.56
13 1 13 9.42 0.51
-15 -1 -13 5.56 0.35
15 -1 13 5.72 0.44
15 1 13 5.3 0.36
-15 1 -13 5.17 0.4
15 1 13 5.96 0.42
-17 -1 -13 5.49 0.36
17 -1 13 5.8 0.44
17 1 13 5.22 0.36
17 1 13 5.85 0.43
19 -1 13 2.36 0.31
-19 -1 -13 2.31 0.24
-45 -3 13 0.7 0.17
-45 3 13 0.37 0.16
-43 -3 13 0.21 0.15
-43 3 13 0.03 0.15
-41 -3 13 0.23 0.16
-41 3 13 0.22 0.16
-39 -3 13 -0.08 0.15
-39 3 13 0.09 0.16
-37 -3 13 -0.08 0.15
-37 3 13 0.14 0.16
-35 -3 13 1.19 0.21
-35 3 13 1.03 0.2
-33 -3 13 0.62 0.18
-33 3 13 0.63 0.18
-31 -3 13 3.29 0.34
-31 3 13 3.3 0.33
-29 -3 13 4.94 0.39
-29 3 13 5.34 0.39
-27 -3 13 14.55 0.74
-27 3 13 13 0.73
-25 -3 13 5.99 0.4
-25 3 13 5.93 0.38
-23 -3 13 6.57 0.42
-23 3 13 6.76 0.41
-21 3 13 0.92 0.22
21 3 -13 0.92 0.18
-19 3 13 0.44 0.18
19 3 -13 0.64 0.15
-17 -3 13 7.99 0.48
17 3 -13 7.79 0.46
-17 3 13 7.61 0.5
-15 -3 13 10.31 0.55
-15 3 13 10.03 0.57
15 3 -13 8.96 0.53
-13 -3 13 17.66 0.85
13 3 -13 16.96 0.86
-13 3 13 19.26 0.89
-11 -3 13 20.4 0.93
-11 3 13 20.3 0.95
11 3 -13 18.52 0.93
-9 -3 13 46.2 1.95
-9 3 13 47.45 1.97
9 3 -13 43.93 2.03
-7 -3 13 41.42 1.74
-7 3 13 41.66 1.76
7 3 -13 39.06 1.81
5 -3 -13 26.49 1.23
-5 -3 13 25.32 1.14
5 3 -13 24.58 1.17
-3 -3 13 22.89 1
3 -3 -13 23.55 1.09
3 3 -13 20.34 1.01
-3 3 13 21.34 1.01
-1 -3 13 7.34 0.43
1 -3 -13 7.53 0.44
-1 3 13 7.87 0.44
1 3 -13 8.17 0.41
-1 3 13 6.85 0.4
-1 -3 -13 7.46 0.43
1 3 13 6.93 0.39
-1 3 -13 7.53 0.39
-1 3 -13 7.26 0.44
1 3 13 7.38 0.43
-3 -3 -13 23.76 1.07
3 3 13 21.13 1.01
3 3 13 21.87 1.01
-3 3 -13 20.45 1.01
-3 3 -13 22.99 1.07
-5 -3 -13 26.51 1.15
-5 -3 -13 25.02 1.21
5 -3 13 25.84 1.17
5 3 13 24.82 1.17
-5 3 -13 24.72 1.16
-5 3 -13 26.17 1.23
5 3 13 25.46 1.15
-7 -3 -13 40.07 1.77
7 -3 13 40.88 1.75
-7 3 -13 41.72 1.86
7 3 13 37.39 1.79
7 3 13 40.41 1.74
-9 -3 -13 44.67 2.03
9 -3 13 47.52 2.01
9 3 13 44.74 2.06
9 3 13 46.24 1.99
-9 3 -13 47.84 2.13
-11 -3 -13 20.03 0.91
11 -3 13 20.18 0.97
-11 3 -13 20.09 0.99
11 3 13 18.67 0.93
11 3 13 18.67 0.94
-13 -3 -13 16.87 0.83
13 -3 13 17.92 0.91
13 3 13 19 0.89
-13 3 -13 18.8 0.93
13 3 13 16.61 0.87
15 -3 13 9.65 0.59
15 3 13 8.75 0.53
15 3 13 10.06 0.57
-15 3 -13 9.97 0.58
17 -3 13 8.22 0.54
-17 3 -13 8.4 0.53
17 3 13 7.39 0.48
19 -3 13 0.82 0.21
19 3 13 0.72 0.16
21 -3 13 0.76 0.22
25 -3 13 5.84 0.38
-27 3 -13 13.21 0.67
-29 3 -13 5.65 0.38
-31 3 -13 3.77 0.33
-33 3 -13 0.99 0.18
-35 3 -13 1.49 0.2
-37 3 -13 0.01 0.14
-45 -5 13 1.59 0.2
-45 5 13 1.06 0.19
-43 -5 13 0.85 0.18
-43 5 13 0.54 0.18
-41 -5 13 0.74 0.18
-41 5 13 0.49 0.18
-39 -5 13 -0.12 0.15
-39 5 13 0.06 0.16
-37 -5 13 -0.02 0.15
-37 5 13 -0.12 0.15
-35 -5 13 1.47 0.22
-35 5 13 1.24 0.21
-33 -5 13 0.89 0.2
-33 5 13 1 0.19
-31 -5 13 3.53 0.34
-31 5 13 3.14 0.33
-29 -5 13 4.79 0.37
-29 5 13 4.34 0.37
-27 -5 13 14.96 0.77
-27 5 13 14.25 0.77
-25 -5 13 6.7 0.42
-25 5 13 6.26 0.41
-23 -5 13 9.06 0.49
-23 5 13 7.69 0.58
23 5 -13 8.34 0.54
-23 5 13 8.23 0.48
21 5 -13 0.22 0.13
-21 5 13 0.37 0.18
-19 5 13 1.88 0.28
19 5 -13 2.54 0.27
-17 5 13 22.21 1.09
17 5 -13 22.56 1.09
-15 -5 13 30.77 1.35
15 5 -13 29.68 1.41
-15 5 13 30.34 1.38
-13 -5 13 44.92 1.82
-13 5 13 41.89 1.84
13 5 -13 39.57 1.89
-11 -5 13 34.32 1.45
11 5 -13 31.54 1.51
-11 5 13 33.21 1.47
-9 -5 13 74.51 3.05
9 5 -13 72.85 3.23
-9 5 13 73.46 3.07
-7 -5 13 44.6 1.89
7 5 -13 42.92 1.99
-7 5 13 46.28 1.93
-5 -5 13 22.1 0.98
5 5 -13 20.08 1
-5 5 13 22.06 0.99
-3 -5 13 25.49 1.11
-3 5 13 23.01 1.11
-3 5 13 25.11 1.13
3 5 -13 24.61 1.13
-1 -5 13 8.11 0.48
-1 5 13 9.21 0.5
1 5 -13 8.67 0.45
1 -5 13 8.02 0.47
1 5 13 8.51 0.48
1 5 13 8.44 0.44
-1 5 -13 8.46 0.44
-3 5 -13 26.06 1.23
3 5 13 25.25 1.16
5 -5 13 22.06 1.04
-5 5 -13 22.77 1.08
5 5 13 21.14 1.03
5 5 13 22.63 1.02
7 -5 13 42.7 1.88
7 5 13 42.46 1.86
7 5 13 42.38 1.93
-7 5 -13 45.37 2
9 -5 13 74.45 3.04
9 5 13 70.96 3.16
9 5 13 69.38 2.99
-9 5 -13 72.96 3.24
11 -5 13 33.11 1.49
11 5 13 32.63 1.45
-11 5 -13 32.85 1.55
11 5 13 31.57 1.5
13 -5 13 41.44 1.83
13 5 13 41.47 1.77
13 5 13 39.57 1.84
-13 5 -13 39.48 1.89
15 -5 13 28.27 1.38
15 5 13 29.13 1.38
-15 5 -13 29.6 1.42
17 -5 13 20.9 1.07
-17 5 -13 20.09 1.06
17 5 13 20.68 1.03
19 -5 13 1.63 0.28
19 5 13 2.04 0.25
-19 5 -13 1.99 0.26
21 -5 13 0.08 0.17
21 5 13 0.31 0.15
23 -5 13 7.81 0.59
23 5 13 7.55 0.53
25 -5 13 5.44 0.37
27 -5 13 15.11 0.77
-27 5 -13 14.37 0.74
-29 5 -13 4.95 0.35
-31 5 -13 3.83 0.32
-33 5 -13 1.35 0.19
-35 5 -13 1.99 0.23
-37 5 -13 -0.09 0.13
-39 5 -13 -0.05 0.13
-41 5 -13 0.63 0.16
-45 -7 13 3.35 0.31
-45 7 13 2.07 0.24
-43 -7 13 1.17 0.2
-43 7 13 0.78 0.18
-41 -7 13 1.12 0.2
-41 7 13 0.68 0.19
-39 -7 13 0.1 0.15
-39 7 13 0 0.15
-37 -7 13 -0.07 0.15
-37 7 13 -0.06 0.15
-35 -7 13 1.89 0.24
-35 7 13 1.55 0.23
-33 -7 13 0.91 0.2
-33 7 13 1.18 0.19
-31 -7 13 4.93 0.39
-31 7 13 4.25 0.38
-29 -7 13 10.6 0.62
-29 7 13 10.78 0.61
-27 -7 13 31.12 1.42
-27 7 13 28.26 1.41
25 7 -13 18.29 0.94
-25 7 13 16.4 0.96
-25 7 13 16.35 0.85
-23 -7 13 24.48 1.16
-23 7 13 23.79 1.23
-23 7 13 23.1 1.15
23 7 -13 25.64 1.23
21 7 -13 5.34 0.41
-21 7 13 4.85 0.43
-19 7 13 0.28 0.16
19 7 -13 -0.07 0.12
-17 7 13 15.18 0.82
17 7 -13 16.4 0.83
-15 7 13 20.76 1.01
15 7 -13 20.17 1
-13 -7 13 33.66 1.38
13 7 -13 29.55 1.43
-13 7 13 29.43 1.39
-11 -7 13 12.78 0.64
-11 7 13 12.53 0.66
11 7 -13 11.97 0.65
-9 -7 13 72.93 2.98
-9 7 13 71.45 3
9 7 -13 71.08 3.17
-7 -7 13 55.19 2.3
7 7 -13 54.65 2.43
-7 7 13 56 2.32
-7 7 13 52.98 2.4
-5 -7 13 44.71 1.86
5 7 -13 42.21 1.94
-5 7 13 44.16 1.88
-5 7 13 43.03 1.93
-3 -7 13 41.33 1.7
-3 7 13 41.15 1.71
-3 7 13 38.57 1.74
3 7 -13 36.17 1.74
-1 -7 13 12.68 0.69
-1 7 13 14.31 0.71
1 7 -13 14.97 0.69
1 -7 13 13.77 0.71
1 7 13 14.34 0.7
1 7 13 13.88 0.68
3 -7 13 40.97 1.77
3 7 13 39.27 1.8
3 7 13 41.39 1.75
5 -7 13 45.12 1.9
5 7 13 43.23 1.94
5 7 13 42.24 1.86
-5 7 -13 43.36 2
7 -7 13 54.64 2.3
7 7 13 50.99 2.25
-7 7 -13 54.49 2.44
7 7 13 53.4 2.36
9 -7 13 72.32 2.97
9 7 13 69.92 3.08
-9 7 -13 70.82 3.16
9 7 13 66.96 2.91
11 -7 13 12.01 0.7
-11 7 -13 11.83 0.68
11 7 13 12.44 0.64
11 7 13 12.73 0.65
13 -7 13 31.58 1.44
-13 7 -13 30.8 1.46
13 7 13 29.19 1.41
13 7 13 29.37 1.35
15 -7 13 17.91 0.96
-15 7 -13 17.94 0.95
15 7 13 18.66 0.93
17 -7 13 13.98 0.83
17 7 13 14.74 0.78
-17 7 -13 15.02 0.82
19 -7 13 0.16 0.17
19 7 13 0.02 0.12
-19 7 -13 0.07 0.13
21 -7 13 4.68 0.47
-21 7 -13 3.89 0.39
21 7 13 5.37 0.41
23 -7 13 20.15 1.15
23 -7 13 21.45 1.03
23 7 13 22.44 1.13
25 -7 13 14.32 0.76
25 7 13 15.71 0.88
27 -7 13 27.87 1.33
-29 7 -13 10.56 0.57
-31 7 -13 4.68 0.36
-33 7 -13 1.32 0.18
-35 7 -13 2.35 0.25
-37 7 -13 -0.06 0.14
-39 7 -13 -0.31 0.12
-41 7 -13 0.96 0.18
-43 7 -13 1.15 0.18
-45 -9 13 4.43 0.34
-45 9 13 2.85 0.32
-43 -9 13 1.65 0.21
-43 9 13 1.01 0.19
-41 -9 13 1.59 0.22
-41 9 13 1.09 0.2
-39 -9 13 -0.07 0.15
-39 9 13 0.01 0.15
-37 -9 13 -0.12 0.15
-37 9 13 -0.12 0.14
-35 -9 13 1.49 0.22
-35 9 13 1.08 0.2
-33 -9 13 1.3 0.22
-33 9 13 1.13 0.19
-31 -9 13 3.35 0.33
-31 9 13 3.09 0.32
-29 -9 13 10.85 0.61
-29 9 13 10.13 0.6
-27 -9 13 25.11 1.27
27 9 -13 29.58 1.38
-27 9 13 25.43 1.27
-25 -9 13 12.41 0.68
-25 9 13 12.58 0.68
25 9 -13 13.66 0.78
-25 9 13 12.49 0.81
-23 -9 13 18.5 0.91
-23 9 13 17.06 0.89
-23 9 13 18.67 1.01
23 9 -13 19.17 0.98
-21 -9 13 0.99 0.15
21 9 -13 1.45 0.22
-21 9 13 1.2 0.25
-19 9 13 0.17 0.16
19 9 -13 0.05 0.13
17 9 -13 20.77 1.02
-17 9 13 19.76 1.01
-15 9 13 28.78 1.35
15 9 -13 29.51 1.38
-13 -9 13 68.97 2.86
13 9 -13 68.12 3.04
-13 9 13 68.33 2.89
-11 -9 13 32.12 1.37
-11 9 13 30.01 1.38
11 9 -13 29.91 1.43
-9 -9 13 120.58 4.81
9 9 -13 109.61 5.11
-9 9 13 123.61 4.83
-7 -9 13 75.85 2.94
-7 9 13 73.91 2.96
7 9 -13 67.82 3.1
-7 9 13 65.08 3.07
-5 -9 13 75.24 2.98
5 9 -13 65.97 3.12
-5 9 13 68.86 3.11
-5 9 13 76.45 2.99
-3 -9 13 50.44 2
3 9 -13 42.64 2.05
-3 9 13 49.64 2
-3 9 13 44.04 2.05
-1 -9 13 18.6 0.91
1 9 -13 19.21 0.89
-1 9 13 19.75 0.92
-1 9 13 18.79 0.89
1 -9 13 18.31 0.9
1 9 13 19.33 0.91
1 9 13 18.96 0.89
3 -9 13 48.18 2.03
3 9 13 48.06 2
3 9 13 44.49 2.07
5 -9 13 73.16 3.02
5 9 13 69.95 3.13
5 9 13 68.98 2.97
-5 9 -13 74.71 3.23
7 -9 13 71.02 2.96
-7 9 -13 71.53 3.15
7 9 13 71.95 3.07
7 9 13 64.92 2.9
9 -9 13 120.4 4.86
-9 9 -13 117.48 5.21
9 9 13 115.39 5.09
9 9 13 116.92 4.79
11 -9 13 31.95 1.46
11 9 13 30.32 1.43
-11 9 -13 31.3 1.49
11 9 13 29.83 1.37
13 -9 13 68.54 2.92
13 9 13 65.62 2.99
-13 9 -13 68.13 3.07
15 -9 13 27.7 1.35
-15 9 -13 28.11 1.37
15 9 13 27.08 1.32
17 -9 13 17.87 0.99
-17 9 -13 17.62 0.97
17 9 13 19.32 0.95
19 -9 13 0.2 0.18
-19 9 -13 0 0.13
19 9 13 0.01 0.12
21 -9 13 0.84 0.24
-21 9 -13 1.27 0.24
21 9 13 1.05 0.22
23 -9 13 15.75 0.81
-23 9 -13 15.94 0.94
23 9 13 17.12 0.92
25 -9 13 11.7 0.62
25 9 13 10.86 0.72
27 -9 13 23.75 1.15
29 -9 13 10.24 0.6
-31 9 -13 3.43 0.3
-33 9 -13 1.54 0.19
-35 9 -13 1.33 0.19
-37 9 -13 -0.33 0.13
-39 9 -13 -0.02 0.14
-41 9 -13 1.03 0.18
-43 9 -13 1.38 0.18
-45 -11 13 3.59 0.32
-43 -11 13 1.05 0.2
-43 11 13 0.87 0.17
-41 -11 13 1.28 0.21
-41 11 13 0.91 0.19
-39 -11 13 0.02 0.16
-39 11 13 -0.05 0.15
-37 -11 13 -0.03 0.16
-37 11 13 -0.04 0.15
-35 -11 13 1.08 0.2
-35 11 13 0.84 0.18
-33 -11 13 1.73 0.23
-33 11 13 1.53 0.21
-31 -11 13 1.37 0.2
-31 11 13 1.38 0.19
-29 -11 13 9.5 0.57
-29 11 13 9.05 0.55
-27 -11 13 24.55 1.2
27 11 -13 25.12 1.3
-27 11 13 25.24 1.33
-27 11 13 24.04 1.19
-25 -11 13 16.62 0.9
-25 11 13 18.29 0.89
25 11 -13 19.52 1.01
-25 11 13 16.83 1.01
-23 -11 13 27.45 1.33
-23 11 13 27.21 1.32
23 11 -13 31.21 1.43
-23 11 13 27.58 1.39
-21 -11 13 7.96 0.47
-21 11 13 7.46 0.57
21 11 -13 8.11 0.54
19 11 -13 3.82 0.34
-19 11 13 2.96 0.35
17 11 -13 6.97 0.47
-17 11 13 7.03 0.49
-15 11 13 2.93 0.33
15 11 -13 2.71 0.29
-13 11 13 13.73 0.74
13 11 -13 14.11 0.75
-11 -11 13 0.91 0.2
11 11 -13 1.15 0.19
-11 11 13 0.99 0.21
-9 -11 13 31.95 1.36
-9 11 13 29.58 1.37
9 11 -13 28.66 1.4
-9 11 13 30.62 1.37
-7 -11 13 12.55 0.64
-7 11 13 11.66 0.61
-7 11 13 12.95 0.66
7 11 -13 12.22 0.63
-5 -11 13 34.18 1.46
-5 11 13 31.72 1.48
5 11 -13 31.14 1.49
-5 11 13 35.33 1.48
-3 -11 13 19.59 0.95
3 11 -13 18.9 0.93
-3 11 13 19.85 0.93
-3 11 13 22.44 0.97
-1 -11 13 11.98 0.66
-1 11 13 12.81 0.66
-1 11 13 12.71 0.62
1 -11 13 10.68 0.63
1 11 13 12.76 0.6
1 11 13 12.51 0.64
3 -11 13 20.81 0.99
3 11 13 20.52 0.96
3 11 13 19.76 0.95
5 -11 13 33.3 1.5
5 11 13 31.67 1.49
5 11 13 33.12 1.46
-5 11 -13 33.71 1.56
7 -11 13 12 0.67
7 11 13 11.68 0.6
7 11 13 11.69 0.61
-7 11 -13 11.44 0.65
9 -11 13 30.03 1.42
9 11 13 29.39 1.34
9 11 13 30.08 1.4
-9 11 -13 31.25 1.46
11 -11 13 0.98 0.23
-11 11 -13 0.74 0.18
11 11 13 0.81 0.16
13 -11 13 14.53 0.8
13 11 13 13.4 0.71
-13 11 -13 12.33 0.74
15 -11 13 1.93 0.3
-15 11 -13 2.76 0.3
15 11 13 2.8 0.28
17 -11 13 6.46 0.52
-17 11 -13 6.62 0.48
17 11 13 7.05 0.47
19 -11 13 2.95 0.39
19 11 13 3.25 0.32
-19 11 -13 2.7 0.32
21 -11 13 6.85 0.42
21 -11 13 7.6 0.61
21 11 13 6.82 0.51
-21 11 -13 6.33 0.52
23 -11 13 23.68 1.14
23 11 13 24.35 1.25
-23 11 -13 23.45 1.28
25 -11 13 15.1 0.78
-25 11 -13 14.74 0.93
25 11 13 15.91 0.91
27 -11 13 22.18 1.32
27 -11 13 21.56 1.07
27 11 13 21.75 1.19
29 -11 13 8.88 0.54
-31 11 -13 1.62 0.19
-33 11 -13 1.54 0.2
-35 11 -13 0.87 0.17
-37 11 -13 -0.36 0.13
-39 11 -13 -0.1 0.14
-41 11 -13 1.07 0.19
-43 11 -13 0.96 0.17
-43 -13 13 0.42 0.18
-43 13 13 0.52 0.15
-41 -13 13 0.84 0.2
-41 13 13 0.57 0.17
-39 -13 13 0 0.16
-39 13 13 -0.05 0.14
-37 -13 13 0 0.16
-37 13 13 0.15 0.15
-35 -13 13 0.63 0.18
-35 13 13 0.41 0.17
-33 -13 13 0.36 0.18
-33 13 13 0.73 0.17
-31 -13 13 0.49 0.17
-31 13 13 0.7 0.16
-29 -13 13 4.9 0.4
-29 13 13 5.06 0.38
29 13 -13 4.99 0.52
-27 -13 13 16.96 0.88
-27 13 13 15.4 1.01
27 13 -13 19.36 1.01
-27 13 13 16.49 0.87
-25 -13 13 6.31 0.46
25 13 -13 8.16 0.58
-25 13 13 7.36 0.44
-25 13 13 7.22 0.6
-23 -13 13 11.21 0.63
-23 13 13 11.64 0.6
23 13 -13 10.96 0.71
-23 13 13 11.34 0.75
-21 -13 13 -0.04 0.12
21 13 -13 0.27 0.17
-21 13 13 0.3 0.21
-19 -13 13 -0.11 0.11
19 13 -13 -0.14 0.13
-19 13 13 0.2 0.19
-17 13 13 14.5 0.84
17 13 -13 17.24 0.86
15 13 -13 11.34 0.64
-15 13 13 10.85 0.64
-13 13 13 43.4 1.91
13 13 -13 43.08 1.99
11 13 -13 12.35 0.69
-11 13 13 13.24 0.7
-9 -13 13 71.25 2.82
-9 13 13 66.87 2.94
9 13 -13 60.37 2.96
-9 13 13 70.02 2.84
-7 -13 13 31.11 1.34
7 13 -13 27.13 1.36
-7 13 13 29.27 1.35
-7 13 13 31.41 1.35
-5 -13 13 43.91 1.79
5 13 -13 37.95 1.82
-5 13 13 42.64 1.79
-5 13 13 39.61 1.82
-3 -13 13 20.39 0.94
-3 13 13 19.55 0.93
-3 13 13 18.23 0.9
-1 -13 13 9.51 0.57
-1 13 13 10.42 0.51
-1 13 13 10.25 0.58
1 -13 13 10 0.58
1 13 13 9.48 0.57
1 13 13 10.21 0.51
3 -13 13 19.54 0.95
3 13 13 18.94 0.92
3 13 13 18.28 0.88
5 -13 13 42.31 1.91
5 13 13 42.96 1.91
5 13 13 43.36 1.86
7 -13 13 30.8 1.42
7 13 13 29.18 1.38
7 13 13 30.57 1.34
-7 13 -13 29.88 1.45
9 -13 13 69.16 2.94
9 13 13 66.91 3.01
-9 13 -13 68.63 3.1
11 -13 13 14.48 0.81
11 13 13 13.03 0.71
-11 13 -13 14.09 0.77
13 -13 13 43.12 1.94
-13 13 -13 42.15 1.99
13 13 13 40.8 1.92
15 -13 13 10.72 0.68
15 13 13 10.21 0.59
-15 13 -13 9.67 0.62
17 -13 13 13.93 0.85
-17 13 -13 13.42 0.8
17 13 13 14.52 0.78
19 -13 13 -0.2 0.18
19 -13 13 0.17 0.1
-19 13 -13 0.07 0.13
19 13 13 0.04 0.13
21 -13 13 0.2 0.13
-21 13 -13 0.23 0.18
21 13 13 0.01 0.15
23 -13 13 9.64 0.56
-23 13 -13 10.23 0.68
23 13 13 9.23 0.65
25 -13 13 5.98 0.41
25 -13 13 5.83 0.57
25 13 13 5.92 0.51
-25 13 -13 6.16 0.55
27 -13 13 15.17 0.78
27 13 13 14 0.9
29 -13 13 4.13 0.39
29 13 13 4.14 0.47
31 -13 13 0.83 0.19
-33 13 -13 0.73 0.16
-35 13 -13 0.46 0.15
-37 13 -13 -0.25 0.13
-39 13 -13 -0.12 0.14
-41 13 -13 0.69 0.17
-43 13 -13 0.41 0.14
-43 -15 13 -0.06 0.16
-43 15 13 0.29 0.13
-41 -15 13 0.18 0.17
-41 15 13 0.32 0.15
-39 -15 13 0.05 0.17
-39 15 13 0.13 0.15
-37 -15 13 -0.2 0.16
-37 15 13 -0.16 0.14
-35 -15 13 0.37 0.17
-35 15 13 0.27 0.16
-33 -15 13 0.55 0.18
-33 15 13 0.39 0.15
-31 -15 13 0.15 0.15
-31 15 13 0.25 0.15
-29 -15 13 1.53 0.21
29 15 -13 1.66 0.32
-29 15 13 1.68 0.21
-27 -15 13 11.72 0.68
27 15 -13 13.26 0.81
-27 15 13 11.86 0.66
-27 15 13 12.26 0.85
-25 -15 13 3.14 0.31
-25 15 13 3.31 0.45
-25 15 13 4.03 0.32
25 15 -13 4.31 0.44
-23 -15 13 8.57 0.53
-23 15 13 9.12 0.67
23 15 -13 9.38 0.62
-21 -15 13 0.15 0.13
-21 15 13 0.57 0.22
21 15 -13 0.18 0.16
-19 -15 13 -0.06 0.1
19 15 -13 0.12 0.14
-19 15 13 -0.08 0.16
-17 -15 13 9.77 0.53
17 15 -13 8.94 0.57
-17 15 13 9.32 0.62
15 15 -13 1.43 0.21
-15 15 13 1.47 0.25
-13 15 13 10.73 0.63
13 15 -13 10.49 0.61
-11 15 13 2.57 0.22
11 15 -13 2.66 0.27
-11 15 13 2.6 0.3
-9 15 13 27.3 1.28
9 15 -13 27.42 1.32
-9 15 13 29.33 1.3
-7 -15 13 20.09 0.93
-7 15 13 20.02 0.94
-7 15 13 18.63 0.9
7 15 -13 18.1 0.92
-5 -15 13 30.72 1.36
-5 15 13 30.72 1.36
5 15 -13 28.27 1.35
-5 15 13 29.43 1.35
-3 -15 13 9.78 0.57
-3 15 13 9.61 0.56
-3 15 13 9.46 0.49
-1 -15 13 5.37 0.41
-1 15 13 5.68 0.33
-1 15 13 6.06 0.41
1 -15 13 6.09 0.44
1 15 13 6.09 0.44
1 15 13 6.14 0.35
3 -15 13 9.69 0.6
3 15 13 11.17 0.59
3 15 13 9.44 0.51
5 -15 13 30.3 1.44
5 15 13 31.92 1.39
5 15 13 30.05 1.39
7 -15 13 18.42 0.99
7 15 13 19.85 0.93
-7 15 -13 19.4 0.99
9 -15 13 28.38 1.36
-9 15 -13 27.67 1.36
9 15 13 27.65 1.3
11 -15 13 2.57 0.33
11 15 13 2.42 0.24
-11 15 -13 2.67 0.29
13 -15 13 10.08 0.67
13 15 13 9.9 0.58
-13 15 -13 10.78 0.64
15 -15 13 1.75 0.31
15 15 13 1.4 0.21
-15 15 -13 1.37 0.22
17 -15 13 8.7 0.66
17 15 13 9.03 0.56
-17 15 -13 8.36 0.58
19 -15 13 0.22 0.23
19 -15 13 -0.02 0.12
19 15 13 0.14 0.15
-19 15 -13 -0.06 0.15
21 -15 13 0.17 0.17
21 -15 13 0.58 0.15
-21 15 -13 0.18 0.18
21 15 13 0.1 0.16
23 -15 13 7.78 0.59
23 -15 13 7.46 0.47
23 15 13 7.3 0.56
-23 15 -13 7.65 0.6
25 -15 13 3.17 0.31
-25 15 -13 2.66 0.37
25 15 13 2.89 0.38
27 -15 13 10.65 0.61
-27 15 -13 9.9 0.76
27 15 13 10.54 0.73
29 -15 13 1.32 0.22
29 15 13 1.55 0.32
31 -15 13 0.14 0.16
-33 15 -13 0.56 0.15
-35 15 -13 0.48 0.15
-37 15 -13 -0.14 0.13
-39 15 -13 -0.12 0.13
-41 15 -13 0.25 0.15
-43 15 -13 0.08 0.13
-41 -17 13 -0.24 0.16
-41 17 13 0.13 0.13
-39 -17 13 0.36 0.19
-39 17 13 0.2 0.15
-37 -17 13 -0.29 0.17
-37 17 13 0.04 0.14
-35 -17 13 0.34 0.18
-35 17 13 0.42 0.16
-33 -17 13 0.01 0.16
-33 17 13 0.07 0.14
-31 -17 13 -0.13 0.14
-31 17 13 -0.17 0.13
31 17 -13 -0.02 0.21
-29 -17 13 -0.03 0.15
29 17 -13 0.05 0.2
-29 17 13 -0.04 0.13
-27 -17 13 4.38 0.37
27 17 -13 4.48 0.48
-25 -17 13 -0.01 0.13
-25 17 13 0.31 0.24
25 17 -13 0.17 0.19
-23 -17 13 0.97 0.18
-23 17 13 1.35 0.32
23 17 -13 0.95 0.23
-21 -17 13 0.51 0.14
-21 17 13 0.68 0.24
21 17 -13 1 0.23
-19 -17 13 1.67 0.2
-19 17 13 1.51 0.29
19 17 -13 2.24 0.29
-17 -17 13 16.04 0.81
17 17 -13 16.31 0.86
-17 17 13 14.55 0.88
-15 -17 13 9.08 0.5
-15 17 13 8.35 0.58
15 17 -13 8.84 0.55
13 17 -13 15.52 0.83
-13 17 13 15.38 0.83
11 17 -13 6.99 0.45
-11 17 13 7.1 0.41
-11 17 13 6.48 0.48
9 17 -13 19.93 0.97
-9 17 13 20.44 0.98
-9 17 13 18.38 0.92
-7 17 13 16.19 0.8
-7 17 13 15.14 0.74
7 17 -13 14.65 0.76
-5 -17 13 21.64 1.05
-5 17 13 21.8 1.05
-3 -17 13 8.33 0.53
-3 17 13 7.87 0.52
-1 -17 13 6.21 0.44
-1 17 13 6.06 0.43
1 -17 13 6.11 0.47
1 17 13 6.51 0.46
3 -17 13 8.34 0.42
3 -17 13 8.51 0.56
3 17 13 8.86 0.53
5 -17 13 21.89 1.12
5 -17 13 22.35 1.01
5 17 13 23.91 1.07
5 17 13 21.22 1.03
7 -17 13 15.14 0.86
-7 17 -13 15.28 0.83
7 17 13 15.94 0.77
9 -17 13 19.08 1.01
-9 17 -13 18.83 0.99
9 17 13 19.01 0.92
11 -17 13 7.01 0.53
-11 17 -13 6.76 0.48
11 17 13 6.89 0.43
13 -17 13 15.17 0.87
13 17 13 14.05 0.76
-13 17 -13 14.15 0.81
15 -17 13 8.09 0.48
15 -17 13 8.02 0.62
-15 17 -13 8.44 0.57
15 17 13 8.52 0.52
17 -17 13 13.59 0.71
17 -17 13 12.9 0.85
17 -17 13 12.69 0.73
17 17 13 15.09 0.78
-17 17 -13 13.43 0.81
19 -17 13 1.52 0.24
19 -17 13 1.77 0.21
-19 17 -13 1.86 0.29
19 17 13 1.99 0.28
21 -17 13 0.88 0.21
21 -17 13 0.79 0.17
-21 17 -13 0.59 0.21
21 17 13 0.82 0.21
23 -17 13 1.29 0.23
23 -17 13 0.81 0.17
-23 17 -13 0.9 0.25
23 17 13 0.84 0.24
25 -17 13 -0.07 0.14
-25 17 -13 -0.08 0.17
25 17 13 -0.01 0.17
27 -17 13 3.73 0.35
27 17 13 3.91 0.45
-27 17 -13 2.99 0.42
29 -17 13 -0.1 0.15
29 17 13 -0.05 0.2
31 -17 13 0.08 0.16
-33 17 -13 0 0.12
-35 17 -13 0.48 0.15
-37 17 -13 -0.28 0.13
-39 17 -13 0.08 0.14
-41 17 -13 -0.05 0.12
-41 -19 13 -0.3 0.14
-39 -19 13 0.19 0.17
-39 19 13 0.05 0.13
-37 -19 13 0.19 0.18
-37 19 13 0.06 0.13
-35 -19 13 0.11 0.18
-35 19 13 -0.11 0.14
-33 -19 13 0.07 0.18
-33 19 13 0.26 0.15
-31 -19 13 -0.18 0.15
-29 -19 13 0.7 0.19
29 19 -13 0.98 0.26
-27 -19 13 0.57 0.16
27 19 -13 1.32 0.29
-25 -19 13 -0.02 0.13
25 19 -13 0.04 0.18
-23 -19 13 0.16 0.14
23 19 -13 0.66 0.21
-23 19 13 0.84 0.27
-21 -19 13 0.05 0.13
-21 19 13 -0.06 0.2
21 19 -13 0 0.16
-19 -19 13 -0.16 0.11
19 19 -13 -0.07 0.14
-19 19 13 -0.12 0.18
-17 -19 13 1.57 0.2
17 19 -13 2 0.27
-17 19 13 1.39 0.3
-15 -19 13 0.02 0.12
-15 19 13 0.17 0.19
15 19 -13 -0.04 0.12
-13 -19 13 -0.12 0.09
-13 19 13 -0.03 0.16
13 19 -13 -0.06 0.12
11 19 -13 3.22 0.31
-11 19 13 3.54 0.27
-11 19 13 3.51 0.35
9 19 -13 0.1 0.11
-9 19 13 0.12 0.16
-7 19 13 -0.12 0.13
-5 -19 13 2.07 0.27
-5 19 13 1.93 0.27
-3 -19 13 0.67 0.2
-3 19 13 0.77 0.21
-1 -19 13 2.13 0.29
-1 19 13 2.38 0.29
1 -19 13 2.47 0.33
1 19 13 3.22 0.32
3 -19 13 0.82 0.23
3 19 13 0.71 0.2
5 -19 13 2.2 0.32
7 -19 13 0.57 0.21
7 19 13 0.16 0.09
-7 19 -13 0.2 0.13
9 -19 13 -0.07 0.16
-9 19 -13 -0.1 0.11
9 19 13 0.1 0.1
11 -19 13 3.28 0.4
-11 19 -13 3.7 0.35
11 19 13 3.35 0.29
13 -19 13 0.13 0.12
13 -19 13 -0.03 0.17
13 -19 13 -0.03 0.05
13 19 13 -0.01 0.1
-13 19 -13 -0.07 0.13
15 -19 13 0.29 0.13
15 -19 13 0.13 0.08
15 -19 13 0.3 0.21
-15 19 -13 -0.06 0.13
15 19 13 0.06 0.12
17 -19 13 1.81 0.19
17 -19 13 1.48 0.2
17 19 13 1.46 0.23
-17 19 -13 1.76 0.28
19 -19 13 -0.09 0.09
19 -19 13 -0.05 0.11
-19 19 -13 -0.13 0.15
19 19 13 -0.04 0.14
21 -19 13 0.16 0.13
21 -19 13 0.05 0.11
21 19 13 0.36 0.17
-21 19 -13 -0.01 0.17
23 -19 13 0.22 0.15
23 19 13 0.48 0.21
-23 19 -13 0.51 0.23
25 -19 13 0.29 0.16
25 19 13 -0.16 0.17
-25 19 -13 0.36 0.22
27 -19 13 0.49 0.17
27 19 13 0.16 0.21
29 -19 13 0.79 0.2
29 19 13 0.37 0.24
31 -19 13 0.06 0.18
-33 19 -13 0.24 0.14
-35 19 -13 0.01 0.13
-37 19 -13 0.03 0.13
-39 19 -13 -0.13 0.13
-41 19 -13 -0.06 0.12
-39 -21 13 0.15 0.16
-37 -21 13 -0.2 0.16
-35 -21 13 0.17 0.17
-33 -21 13 1.33 0.23
-31 -21 13 0.92 0.21
-29 -21 13 4.21 0.39
29 21 -13 3.58 0.43
-27 -21 13 0.54 0.17
27 21 -13 1.01 0.27
-25 -21 13 3.02 0.32
25 21 -13 2.06 0.33
-23 -21 13 0.2 0.14
-23 21 13 0.88 0.34
23 21 -13 0.33 0.2
-21 -21 13 1.07 0.18
-21 21 13 1.36 0.31
21 21 -13 1.25 0.25
-19 -21 13 0.07 0.12
-19 21 13 0.2 0.2
19 21 -13 0.07 0.15
-17 -21 13 0.74 0.16
-17 21 13 0.66 0.26
17 21 -13 0.91 0.21
-15 -21 13 0.31 0.14
15 21 -13 0.3 0.15
-15 21 13 0.47 0.24
-13 -21 13 0.06 0.11
13 21 -13 0.35 0.15
-13 21 13 0.15 0.21
-11 -21 13 8.37 0.48
11 21 -13 7.31 0.49
-11 21 13 6.98 0.53
-9 -21 13 1.86 0.21
-9 21 13 1.15 0.24
-7 21 13 5.12 0.44
-5 21 13 0.29 0.17
-3 -21 13 0.66 0.21
-3 21 13 1.22 0.22
-1 -21 13 0.51 0.21
-1 21 13 0.5 0.18
1 -21 13 0.3 0.18
1 21 13 0.91 0.22
3 -21 13 0.54 0.21
5 -21 13 0.26 0.19
7 -21 13 4.18 0.45
-7 21 -13 4.37 0.37
9 -21 13 1.21 0.18
9 -21 13 1.39 0.28
-9 21 -13 0.93 0.21
9 21 13 1.52 0.19
11 -21 13 7.18 0.46
11 -21 13 7.09 0.57
11 21 13 7.48 0.47
-11 21 -13 7.95 0.54
13 -21 13 0.18 0.23
13 -21 13 0.1 0.13
13 21 13 0.05 0.11
-13 21 -13 0.19 0.16
15 -21 13 0.55 0.14
-15 21 -13 0.11 0.16
15 21 13 0.09 0.13
17 -21 13 0.69 0.17
-17 21 -13 0.67 0.21
17 21 13 0.59 0.19
19 -21 13 0.09 0.12
-19 21 -13 0.27 0.19
19 21 13 0.18 0.15
21 -21 13 0.79 0.17
-21 21 -13 1.4 0.29
21 21 13 1.15 0.25
23 -21 13 0.31 0.17
23 21 13 0.26 0.2
-23 21 -13 0.45 0.24
25 -21 13 2.05 0.25
25 21 13 2.43 0.37
27 -21 13 0.76 0.2
27 21 13 0.42 0.25
29 -21 13 2.89 0.3
29 21 13 2.73 0.4
31 -21 13 1.14 0.23
-33 21 -13 1.01 0.17
-35 21 -13 -0.14 0.13
-37 21 -13 0.07 0.13
-39 21 -13 0.24 0.13
-41 21 -13 -0.07 0.11
-39 -23 13 0.28 0.16
-37 -23 13 0.01 0.16
-35 -23 13 0.07 0.17
-33 -23 13 1.43 0.24
-31 -23 13 1.81 0.26
-29 -23 13 5.28 0.46
-27 -23 13 2.3 0.27
27 23 -13 2.11 0.35
-25 -23 13 3.3 0.35
25 23 -13 3.31 0.4
-23 -23 13 0.64 0.18
23 23 -13 0.71 0.24
-21 -23 13 0.3 0.14
21 23 -13 0.27 0.19
-19 -23 13 0.47 0.15
19 23 -13 0.65 0.2
-19 23 13 0.29 0.26
-17 -23 13 1.27 0.19
-17 23 13 1.13 0.29
17 23 -13 0.91 0.21
-15 -23 13 8.79 0.52
15 23 -13 7.99 0.55
-15 23 13 8.55 0.64
-13 -23 13 11.54 0.62
13 23 -13 10.5 0.65
-13 23 13 10.1 0.69
-11 -23 13 28.22 1.27
11 23 -13 23.25 1.28
-11 23 13 26.25 1.31
-9 -23 13 18.36 0.91
-9 23 13 16.87 0.95
-7 -23 13 24.62 1.19
-7 23 13 24.07 1.22
-5 -23 13 9.03 0.54
-5 23 13 9.09 0.61
-3 -23 13 5.94 0.41
-3 23 13 6.53 0.48
-1 -23 13 -0.06 0.11
-1 -23 13 0.04 0.18
-1 23 13 0 0.15
1 -23 13 -0.09 0.17
1 -23 13 0.03 0.13
3 -23 13 5.53 0.48
3 -23 13 6.12 0.42
5 -23 13 7.84 0.59
5 -23 13 8.45 0.52
7 -23 13 21.93 1.19
7 -23 13 23.14 1.12
-7 23 -13 22.3 1.17
9 -23 13 17.28 0.89
9 -23 13 17.06 0.98
-9 23 -13 17.27 0.96
11 -23 13 25.91 1.27
-11 23 -13 26.12 1.35
11 23 13 26.16 1.26
13 -23 13 10.41 0.61
13 23 13 10.06 0.61
-13 23 -13 10.56 0.69
15 -23 13 7.18 0.49
15 23 13 7.72 0.52
-15 23 -13 8.22 0.59
17 -23 13 0.87 0.18
-17 23 -13 1.12 0.25
17 23 13 0.52 0.18
19 -23 13 0.37 0.16
-19 23 -13 0.52 0.22
19 23 13 0.65 0.19
21 -23 13 0.19 0.16
-21 23 -13 0.66 0.23
21 23 13 0.44 0.19
23 -23 13 0.56 0.17
23 23 13 0.44 0.22
25 -23 13 3.8 0.37
25 23 13 2.12 0.36
27 -23 13 1.9 0.25
27 23 13 1.5 0.32
29 -23 13 4.32 0.44
31 -23 13 1.52 0.25
-33 23 -13 1.32 0.19
-35 23 -13 0.14 0.14
-37 23 -13 0.18 0.13
-39 23 -13 0.07 0.12
-37 -25 13 0.06 0.15
-35 -25 13 0.19 0.17
-33 -25 13 2.23 0.27
-31 -25 13 2.95 0.31
-29 -25 13 7.3 0.52
-27 -25 13 6.1 0.49
-25 -25 13 8.65 0.56
25 25 -13 7.97 0.64
-23 -25 13 3.5 0.37
23 25 -13 3.16 0.39
-21 -25 13 2.95 0.33
21 25 -13 2.88 0.36
-19 -25 13 0.17 0.14
19 25 -13 -0.03 0.14
-17 -25 13 0.08 0.13
17 25 -13 0.02 0.15
-17 25 13 -0.15 0.2
-15 -25 13 4 0.35
-15 25 13 3.72 0.47
15 25 -13 3.8 0.38
-13 -25 13 7.43 0.47
13 25 -13 6.57 0.5
-13 25 13 7.18 0.59
-11 -25 13 16.09 0.84
-11 25 13 16.59 0.95
-9 -25 13 12.52 0.68
-9 25 13 11.51 0.75
-7 -25 13 16.44 0.86
-7 25 13 16.75 0.94
-5 -25 13 6.28 0.43
-5 25 13 5.98 0.51
-3 -25 13 5.83 0.42
-3 25 13 5.42 0.49
-1 -25 13 -0.06 0.12
1 -25 13 0.05 0.2
1 -25 13 -0.14 0.12
3 -25 13 4.61 0.5
3 -25 13 5.93 0.4
5 -25 13 6.05 0.43
5 -25 13 5.23 0.5
-5 25 -13 5.27 0.45
7 -25 13 15.45 0.8
-7 25 -13 14.63 0.86
9 -25 13 12.4 0.7
-9 25 -13 12.33 0.77
11 -25 13 16.83 0.88
-11 25 -13 16.18 0.95
13 -25 13 6.48 0.46
13 25 13 6.58 0.46
-13 25 -13 6.3 0.53
15 -25 13 3.51 0.35
15 25 13 3.48 0.35
-15 25 -13 2.83 0.36
17 -25 13 0.08 0.16
-17 25 -13 -0.01 0.17
17 25 13 -0.06 0.14
19 -25 13 0.31 0.17
19 25 13 0.14 0.17
-19 25 -13 -0.09 0.17
21 -25 13 2.36 0.27
21 25 13 2.38 0.34
23 -25 13 3.95 0.4
23 25 13 2.68 0.4
25 -25 13 7.4 0.52
25 25 13 7.02 0.64
27 -25 13 5.26 0.45
29 -25 13 6.84 0.53
31 -25 13 2.44 0.29
-33 25 -13 3.05 0.34
-35 25 -13 0.11 0.13
-37 25 -13 0.18 0.12
-39 25 -13 0.04 0.11
-35 -27 13 0.06 0.15
-33 -27 13 1.51 0.23
-31 -27 13 1.56 0.24
-29 -27 13 5.71 0.48
-27 -27 13 4.15 0.44
-25 -27 13 5.46 0.48
-23 -27 13 1.8 0.26
23 27 -13 2.77 0.35
-21 -27 13 0.54 0.17
21 27 -13 0.81 0.23
-19 -27 13 0.73 0.18
19 27 -13 0.88 0.22
-17 -27 13 4.4 0.37
17 27 -13 3.2 0.36
-15 -27 13 11.41 0.64
-15 27 13 11.06 0.77
15 27 -13 10.39 0.68
-13 -27 13 17.4 0.9
-13 27 13 16.45 0.99
-11 -27 13 24.66 1.2
-11 27 13 23.56 1.27
-9 -27 13 25.29 1.26
-9 27 13 26.2 1.34
-7 -27 13 28.08 1.37
-7 27 13 28.61 1.42
-5 -27 13 13.93 0.76
-5 27 13 14.27 0.86
-3 -27 13 12.58 0.7
-1 -27 13 0.06 0.13
1 -27 13 -0.08 0.13
3 -27 13 13.15 0.73
5 -27 13 14.08 0.75
-5 27 -13 12.45 0.8
7 -27 13 26.89 1.29
-7 27 -13 25.53 1.36
9 -27 13 24.79 1.21
-9 27 -13 23.22 1.28
11 -27 13 22.7 1.14
-11 27 -13 22.04 1.22
13 -27 13 15.78 0.85
13 27 13 15.62 0.86
-13 27 -13 15.25 0.93
15 -27 13 10.81 0.63
-15 27 -13 9.97 0.71
15 27 13 9.84 0.65
17 -27 13 4.45 0.39
-17 27 -13 3.08 0.41
17 27 13 4.08 0.41
19 -27 13 0.83 0.2
19 27 13 0.75 0.23
21 -27 13 0.58 0.19
21 27 13 0.73 0.24
23 -27 13 2.37 0.29
23 27 13 2.44 0.38
25 -27 13 5.24 0.45
27 -27 13 2.12 0.27
29 -27 13 5.04 0.46
31 -27 13 1.42 0.24
-33 27 -13 1.3 0.19
-35 27 -13 0.02 0.12
-37 27 -13 0.14 0.12
-33 -29 13 0.97 0.19
-31 -29 13 1.83 0.24
-29 -29 13 4.56 0.42
-27 -29 13 4.98 0.45
-25 -29 13 7.38 0.54
-23 -29 13 4.25 0.43
-21 -29 13 3.95 0.42
21 29 -13 4.32 0.45
-19 -29 13 0.54 0.18
19 29 -13 0.6 0.21
-17 -29 13 0.02 0.15
17 29 -13 0.08 0.16
-15 -29 13 1.52 0.22
15 29 -13 1.53 0.26
-13 -29 13 4.82 0.4
-11 -29 13 9.23 0.57
-11 29 13 9.32 0.69
-9 -29 13 9.97 0.6
-9 29 13 9.86 0.72
-7 -29 13 10.32 0.61
-7 29 13 10.17 0.74
-5 -29 13 4.68 0.38
-3 -29 13 4.92 0.39
-1 -29 13 -0.05 0.12
1 -29 13 0.01 0.13
3 -29 13 5.18 0.42
5 -29 13 4.82 0.4
-5 29 -13 4.29 0.42
7 -29 13 9.48 0.59
-7 29 -13 8.88 0.63
9 -29 13 10.22 0.62
-9 29 -13 9.25 0.66
11 -29 13 9.47 0.58
-11 29 -13 8.12 0.64
13 -29 13 4.72 0.41
-13 29 -13 4.17 0.45
15 -29 13 1.55 0.23
15 29 13 1.92 0.28
17 -29 13 0.14 0.17
17 29 13 0.1 0.17
19 -29 13 0.84 0.2
19 29 13 0.45 0.21
21 -29 13 3.79 0.4
21 29 13 3.9 0.44
23 -29 13 4.53 0.44
25 -29 13 7.46 0.56
27 -29 13 4.72 0.46
29 -29 13 4.47 0.44
31 -29 13 1.59 0.25
-33 29 -13 0.85 0.17
-35 29 -13 0.2 0.13
-29 -31 13 1.77 0.24
-27 -31 13 1.56 0.24
-25 -31 13 2.64 0.3
-23 -31 13 1.4 0.25
-21 -31 13 0.68 0.21
-19 -31 13 0.04 0.17
-17 -31 13 -0.25 0.14
17 31 -13 0.07 0.17
-15 -31 13 0.37 0.17
-13 -31 13 0.62 0.18
-11 -31 13 1.46 0.21
-9 -31 13 3.3 0.34
-7 -31 13 4.48 0.38
-5 -31 13 2.99 0.32
-3 -31 13 3.17 0.32
-1 -31 13 -0.01 0.14
1 -31 13 0.01 0.15
3 -31 13 3.39 0.35
-3 31 -13 2.73 0.35
5 -31 13 2.17 0.26
-5 31 -13 3.13 0.35
7 -31 13 4.19 0.39
-7 31 -13 4.16 0.42
9 -31 13 3.28 0.36
11 -31 13 1.26 0.22
13 -31 13 0.87 0.2
15 -31 13 0.59 0.2
15 31 13 0.42 0.2
17 -31 13 -0.18 0.17
17 31 13 0.14 0.18
19 -31 13 0.15 0.19
21 -31 13 0.86 0.22
23 -31 13 1.67 0.27
25 -31 13 2.04 0.28
27 -31 13 1.15 0.24
29 -31 13 1.27 0.23
31 -31 13 0.37 0.19
-31 31 -13 0.46 0.15
-33 31 -13 0.47 0.14
-25 -33 13 1.93 0.25
-23 -33 13 1.2 0.23
-21 -33 13 0.79 0.21
-19 -33 13 -0.07 0.17
-17 -33 13 -0.2 0.16
-15 -33 13 0.47 0.19
-13 -33 13 0.43 0.18
-11 -33 13 1.54 0.22
-9 -33 13 1.61 0.23
-7 -33 13 1.17 0.2
-5 -33 13 1.1 0.2
-3 -33 13 0.66 0.17
-1 -33 13 0.09 0.15
1 -33 13 0.35 0.16
3 -33 13 0.62 0.19
5 -33 13 0.95 0.2
7 -33 13 1.11 0.22
9 -33 13 1.3 0.23
11 -33 13 1.36 0.23
13 -33 13 0.55 0.2
15 -33 13 0.35 0.19
17 -33 13 -0.09 0.17
19 -33 13 0.12 0.19
21 -33 13 1.05 0.24
23 -33 13 1.06 0.24
25 -33 13 1.48 0.25
27 -33 13 1.03 0.23
29 -33 13 0.65 0.19
-31 33 -13 0.34 0.14
-21 -35 13 -0.03 0.18
-19 -35 13 -0.25 0.16
-17 -35 13 0.06 0.17
-15 -35 13 0.47 0.19
-13 -35 13 0.27 0.17
-11 -35 13 0.98 0.2
-9 -35 13 1.14 0.2
-7 -35 13 1.91 0.25
-5 -35 13 1.87 0.24
-3 -35 13 1.45 0.22
-1 -35 13 0.09 0.16
1 -35 13 -0.02 0.15
3 -35 13 1.14 0.21
5 -35 13 1.67 0.24
7 -35 13 1.88 0.26
9 -35 13 1.06 0.21
11 -35 13 0.58 0.2
13 -35 13 0.34 0.19
15 -35 13 0.36 0.2
17 -35 13 0.28 0.19
19 -35 13 0.06 0.19
21 -35 13 -0.16 0.17
23 -35 13 -0.26 0.17
25 -35 13 -0.2 0.17
27 -35 13 -0.16 0.16
29 -35 13 -0.13 0.15
-15 -37 13 -0.19 0.14
-13 -37 13 -0.28 0.14
-11 -37 13 -0.03 0.15
-9 -37 13 -0.19 0.15
-7 -37 13 0.02 0.16
-5 -37 13 0.1 0.15
-3 -37 13 0.17 0.16
-1 -37 13 0.01 0.15
1 -37 13 0.09 0.17
3 -37 13 0 0.17
5 -37 13 0 0.17
7 -37 13 0.05 0.16
9 -37 13 -0.03 0.17
11 -37 13 -0.05 0.17
13 -37 13 0.08 0.16
15 -37 13 -0.11 0.17
17 -37 13 -0.14 0.17
19 -37 13 -0.33 0.17
21 -37 13 -0.05 0.17
23 -37 13 -0.23 0.16
25 -37 13 -0.21 0.15
27 -37 13 -0.24 0.14
-9 -39 13 -0.04 0.14
-7 -39 13 -0.01 0.15
-5 -39 13 0.2 0.15
-3 -39 13 -0.18 0.14
-1 -39 13 -0.09 0.14
1 -39 13 0.06 0.16
3 -39 13 0.06 0.15
5 -39 13 -0.03 0.15
7 -39 13 -0.16 0.15
9 -39 13 -0.05 0.15
11 -39 13 0 0.16
13 -39 13 0.22 0.17
15 -39 13 -0.04 0.16
17 -39 13 0.28 0.17
19 -39 13 0.05 0.16
21 -39 13 0.07 0.16
23 -39 13 -0.25 0.14
-1 -41 13 0.03 0.15
1 -41 13 -0.09 0.14
3 -41 13 0.32 0.16
5 -41 13 0.63 0.18
7 -41 13 0.7 0.18
9 -41 13 1.09 0.19
11 -41 13 1.03 0.19
13 -41 13 0.75 0.17
15 -41 13 0.38 0.16
17 -41 13 -0.04 0.14
19 -41 13 -0.16 0.14
11 -43 13 0.88 0.16
13 -43 13 0.34 0.14
-46 0 14 -0.03 0.13
-44 0 14 -0.2 0.14
-42 0 14 1.89 0.23
-40 0 14 0.09 0.16
-38 0 14 6.64 0.47
-36 0 14 0.3 0.16
-34 0 14 3.62 0.37
-32 0 14 0.05 0.14
-30 0 14 6.56 0.45
-28 0 14 0.06 0.13
-26 0 14 1.49 0.19
-24 0 14 0.12 0.12
-20 0 14 0.61 0.19
-18 0 14 43.85 1.93
-16 0 14 0.49 0.18
16 0 -14 0.42 0.12
14 0 -14 43.83 1.98
-14 0 14 45.18 1.94
12 0 -14 0.22 0.09
-12 0 14 0.33 0.15
10 0 -14 17.26 0.81
-10 0 14 16.81 0.83
-8 0 14 -0.01 0.12
8 0 -14 -0.02 0.06
6 0 -14 43.41 1.95
-6 0 14 45.02 1.9
4 0 -14 0.5 0.1
-4 0 14 0.51 0.14
2 0 -14 26.9 1.29
2 0 -14 27.47 1.24
0 0 -14 -0.02 0.09
0 0 -14 -0.12 0.07
0 0 14 -0.02 0.04
-2 0 -14 28.98 1.36
-2 0 -14 26.73 1.29
2 0 14 30.71 1.3
-4 0 -14 0.44 0.1
-4 0 -14 0.56 0.14
4 0 14 0.79 0.17
4 0 14 0.54 0.11
6 0 14 42.62 1.92
-6 0 -14 41.32 1.92
-6 0 -14 44.19 2
6 0 14 45.62 1.89
-8 0 -14 0.04 0.09
8 0 14 0.02 0.07
8 0 14 0.12 0.12
-8 0 -14 0.07 0.07
10 0 14 16.65 0.84
10 0 14 16.6 0.8
-10 0 -14 16.62 0.86
-10 0 -14 16.88 0.8
-12 0 -14 0.11 0.09
-12 0 -14 0.35 0.13
12 0 14 0.38 0.16
12 0 14 0.2 0.09
14 0 14 39.95 1.84
-14 0 -14 42.35 1.85
14 0 14 40.78 1.83
16 0 14 0.31 0.17
-16 0 -14 0.51 0.12
-18 0 -14 38.34 1.8
18 0 14 41.47 1.82
-20 0 -14 0.36 0.13
-46 -2 14 -0.13 0.12
-46 2 14 0.04 0.12
-44 -2 14 -0.13 0.15
-44 2 14 -0.21 0.14
-42 -2 14 0.07 0.15
-42 2 14 -0.07 0.15
-40 -2 14 2.22 0.25
-40 2 14 1.99 0.24
-38 -2 14 0.27 0.16
-38 2 14 0.31 0.17
-36 -2 14 5.55 0.43
-36 2 14 5.78 0.46
-34 -2 14 0.11 0.15
-34 2 14 -0.03 0.15
-32 -2 14 2.04 0.25
-32 2 14 2.15 0.24
-30 -2 14 -0.04 0.13
-30 2 14 0.13 0.13
-28 -2 14 0.52 0.16
-28 2 14 0.3 0.14
-26 -2 14 0.12 0.12
-26 2 14 -0.17 0.12
-24 -2 14 32.85 1.54
-24 2 14 33.11 1.54
-22 2 14 0.24 0.19
-20 2 14 64.14 2.76
-18 -2 14 0.22 0.16
-18 2 14 0.12 0.15
18 2 -14 0.13 0.11
-16 -2 14 75.67 3.07
16 2 -14 67.63 3.21
-16 2 14 76.58 3.1
-14 -2 14 -0.02 0.13
-14 2 14 0 0.15
14 2 -14 0.08 0.1
-12 -2 14 41.55 1.75
-12 2 14 42.58 1.77
12 2 -14 36.34 1.78
-10 -2 14 0.04 0.11
10 -2 -14 -0.03 0.06
-10 2 14 -0.01 0.12
10 2 -14 0.04 0.07
8 -2 -14 1.94 0.15
-8 -2 14 1.61 0.21
8 2 -14 1.57 0.17
-8 2 14 1.29 0.2
-6 -2 14 0.1 0.11
6 -2 -14 0.09 0.06
6 2 -14 0.12 0.08
-6 2 14 0.2 0.12
4 -2 -14 56.37 2.45
-4 -2 14 57.69 2.38
4 2 -14 54.94 2.48
-2 -2 14 0.06 0.11
2 -2 -14 0.04 0.05
2 -2 -14 0.05 0.07
-2 2 14 0 0.04
2 2 -14 0.02 0.08
0 -2 -14 28.65 1.24
0 2 14 25.97 1.25
0 2 -14 25.34 1.25
0 2 -14 29.74 1.32
0 2 14 27.98 1.24
-2 -2 -14 -0.02 0.06
-2 -2 -14 0.11 0.07
2 -2 14 -0.06 0.04
-2 2 -14 -0.02 0.07
2 2 14 0.09 0.11
2 2 14 -0.04 0.07
-2 2 -14 0.08 0.1
-4 -2 -14 57.53 2.44
-4 -2 -14 52.21 2.52
4 -2 14 58.36 2.37
-4 2 -14 54.67 2.44
4 2 14 53.35 2.45
4 2 14 58.05 2.36
-4 2 -14 55.93 2.53
6 -2 14 -0.05 0.11
-6 -2 -14 0.04 0.07
-6 -2 -14 -0.03 0.08
-6 2 -14 0.04 0.09
-6 2 -14 -0.02 0.07
6 2 14 0.04 0.11
6 2 14 0.03 0.07
8 -2 14 1.2 0.2
-8 -2 -14 1.69 0.16
8 -2 14 1.39 0.15
-8 2 -14 1.63 0.2
-8 2 -14 1.87 0.17
8 2 14 1.43 0.22
8 2 14 1.88 0.18
-10 -2 -14 0.04 0.07
10 -2 14 0.02 0.11
10 2 14 -0.08 0.11
-10 2 -14 -0.03 0.09
10 2 14 0.04 0.08
12 -2 14 39.85 1.76
-12 -2 -14 39.15 1.74
-12 2 -14 39.76 1.84
12 2 14 39.3 1.74
12 2 14 37.11 1.76
-14 -2 -14 0.02 0.08
14 -2 14 0.05 0.14
14 2 14 0.03 0.13
14 2 14 0.07 0.1
-14 2 -14 0.06 0.12
16 -2 14 74.18 3.05
16 2 14 66.41 3.13
-16 2 -14 68.32 3.22
16 2 14 75.25 3.03
18 -2 14 0.22 0.18
18 2 14 0.2 0.11
20 -2 14 61.04 2.68
-46 -4 14 0.1 0.13
-46 4 14 0.12 0.14
-44 -4 14 -0.02 0.14
-44 4 14 -0.05 0.14
-42 -4 14 1.2 0.2
-42 4 14 1.26 0.21
-40 -4 14 0.14 0.16
-40 4 14 0.3 0.16
-38 -4 14 4.52 0.4
-38 4 14 4.41 0.41
-36 -4 14 0.23 0.16
-36 4 14 0.13 0.16
-34 -4 14 1.95 0.24
-34 4 14 1.62 0.22
-32 -4 14 -0.13 0.12
-32 4 14 -0.04 0.13
-30 -4 14 7.14 0.48
-30 4 14 7.26 0.47
-28 -4 14 -0.04 0.13
-28 4 14 0.09 0.13
-26 -4 14 0.11 0.13
-26 4 14 0.23 0.14
-24 -4 14 0.1 0.11
-24 4 14 -0.13 0.11
-22 -4 14 13.32 0.67
22 4 -14 12.36 0.72
-22 4 14 12.1 0.75
20 4 -14 0.2 0.12
-20 4 14 -0.03 0.17
18 4 -14 17.91 0.92
-18 4 14 18.94 0.96
-16 -4 14 0.37 0.15
-16 4 14 0.39 0.18
16 4 -14 0.32 0.13
-14 -4 14 8.28 0.46
-14 4 14 7.51 0.49
14 4 -14 6.06 0.42
-12 -4 14 0.17 0.13
-12 4 14 0.02 0.13
12 4 -14 0.18 0.1
-10 -4 14 12.97 0.65
-10 4 14 12.49 0.67
10 4 -14 11.72 0.63
-8 -4 14 0.26 0.11
8 4 -14 0.12 0.09
-8 4 14 -0.02 0.12
-6 -4 14 22.09 1.03
-6 4 14 22.11 1.04
6 4 -14 22.66 1.05
-4 -4 14 0.43 0.13
-4 4 14 0.24 0.11
4 4 -14 0.4 0.11
-2 -4 14 54.99 2.42
-2 4 14 61.2 2.45
2 4 -14 57.64 2.54
-2 4 14 57.12 2.54
0 -4 14 0.64 0.15
0 4 -14 0.49 0.1
0 4 14 0.39 0.1
0 4 14 0.68 0.16
2 4 14 56.03 2.34
-2 4 -14 55.37 2.51
-2 4 -14 55.06 2.43
2 4 14 54.55 2.43
4 -4 14 0.56 0.15
-4 4 -14 0.35 0.09
-4 4 -14 0.49 0.12
4 4 14 0.51 0.1
4 4 14 0.27 0.12
6 -4 14 22.16 1.03
6 4 14 21.14 1.01
-6 4 -14 21.2 1.06
6 4 14 21.15 1.01
8 -4 14 0.22 0.13
-8 4 -14 0.15 0.11
8 4 14 0.12 0.12
8 4 14 0.19 0.09
10 -4 14 12.12 0.67
10 4 14 11.06 0.61
10 4 14 11.25 0.63
-10 4 -14 12.64 0.67
12 -4 14 0.22 0.15
-12 4 -14 0.27 0.14
12 4 14 0.22 0.11
12 4 14 0.34 0.14
14 -4 14 7.42 0.51
-14 4 -14 7.66 0.49
14 4 14 7.87 0.49
14 4 14 6.49 0.44
16 -4 14 0.31 0.19
16 4 14 0.23 0.12
-16 4 -14 0.37 0.15
18 -4 14 18.82 0.99
18 4 14 17.12 0.92
-18 4 -14 18.46 0.97
20 -4 14 0.16 0.19
20 4 14 0.13 0.13
22 -4 14 11.87 0.75
24 -4 14 0.07 0.11
26 -4 14 0.36 0.14
-28 4 -14 0.01 0.1
-30 4 -14 7.51 0.45
-32 4 -14 -0.03 0.12
-34 4 -14 2.5 0.25
-36 4 -14 0.13 0.14
-44 -6 14 0.12 0.15
-44 6 14 0.08 0.14
-42 -6 14 -0.01 0.15
-42 6 14 -0.19 0.14
-40 -6 14 0.97 0.2
-40 6 14 0.68 0.19
-38 -6 14 0.05 0.15
-38 6 14 -0.12 0.15
-36 -6 14 1.45 0.22
-36 6 14 1.44 0.22
-34 -6 14 -0.02 0.15
-34 6 14 -0.18 0.13
-32 -6 14 0.4 0.16
-32 6 14 0.56 0.16
-30 -6 14 -0.23 0.13
-30 6 14 0.03 0.12
-28 -6 14 -0.21 0.12
-28 6 14 0.04 0.12
-26 -6 14 -0.13 0.12
-26 6 14 -0.08 0.11
-24 -6 14 7.66 0.47
24 6 -14 8.49 0.54
-24 6 14 7.66 0.58
-24 6 14 7.46 0.45
-22 -6 14 0.07 0.11
22 6 -14 0.14 0.14
-22 6 14 -0.04 0.17
20 6 -14 16.24 0.85
-20 6 14 15.89 0.87
-18 6 14 0.08 0.17
18 6 -14 0.06 0.12
-16 6 14 22.14 1.1
16 6 -14 23.06 1.11
-14 -6 14 -0.06 0.11
-14 6 14 -0.22 0.13
14 6 -14 -0.16 0.1
-12 -6 14 6.31 0.41
-12 6 14 5.93 0.45
12 6 -14 6.48 0.4
-10 -6 14 0.06 0.12
10 6 -14 0.12 0.11
-10 6 14 0.01 0.13
-8 -6 14 1.07 0.17
8 6 -14 1.03 0.16
-8 6 14 1.14 0.21
-6 -6 14 -0.03 0.09
6 6 -14 0.02 0.08
-6 6 14 0.02 0.11
-4 -6 14 22.75 1.05
-4 6 14 24.98 1.07
-4 6 14 21.28 1.05
4 6 -14 22.01 1.06
-2 -6 14 0.09 0.11
-2 6 14 0.23 0.13
-2 6 14 -0.02 0.07
2 6 -14 0.05 0.08
0 -6 14 44.99 1.9
0 6 -14 40.9 1.95
0 6 14 43.14 1.96
0 6 14 47.63 1.91
2 -6 14 0.05 0.11
2 6 14 -0.09 0.09
2 6 14 0.08 0.08
-2 6 -14 0.07 0.08
4 -6 14 22.35 1.05
-4 6 -14 21.96 1.09
4 6 14 22.34 1.03
4 6 14 21.76 1.04
6 -6 14 0.02 0.12
-6 6 -14 0.08 0.09
6 6 14 0.03 0.08
6 6 14 0.12 0.11
8 -6 14 0.93 0.2
-8 6 -14 1.14 0.18
8 6 14 1.36 0.2
8 6 14 1.23 0.16
10 -6 14 0.28 0.16
10 6 14 0.03 0.12
-10 6 -14 0.07 0.11
10 6 14 -0.03 0.09
12 -6 14 5.8 0.45
12 6 14 5.76 0.39
-12 6 -14 5.22 0.4
12 6 14 5.72 0.4
14 -6 14 0.02 0.15
14 6 14 -0.1 0.11
14 6 14 -0.08 0.12
-14 6 -14 -0.15 0.11
16 -6 14 20.69 1.1
16 6 14 21.67 1.06
-16 6 -14 21.03 1.09
18 -6 14 0.17 0.18
-18 6 -14 -0.1 0.12
18 6 14 0.13 0.12
20 -6 14 14.2 0.84
20 6 14 14.99 0.8
-20 6 -14 13.9 0.83
22 -6 14 0.13 0.2
22 6 14 0.08 0.14
24 -6 14 6.59 0.42
26 -6 14 0.04 0.13
28 -6 14 0.17 0.14
-28 6 -14 -0.1 0.09
-30 6 -14 0.05 0.11
-32 6 -14 0.54 0.15
-34 6 -14 -0.05 0.13
-36 6 -14 1.81 0.22
-38 6 -14 -0.05 0.13
-40 6 -14 1.21 0.19
-44 -8 14 0 0.15
-44 8 14 -0.14 0.13
-42 -8 14 0.08 0.16
-42 8 14 -0.14 0.13
-40 -8 14 0.16 0.16
-40 8 14 -0.1 0.15
-38 -8 14 0.16 0.16
-38 8 14 -0.03 0.15
-36 -8 14 -0.03 0.15
-36 8 14 -0.19 0.13
-34 -8 14 -0.2 0.14
-34 8 14 0.09 0.14
-32 -8 14 -0.11 0.13
-32 8 14 -0.04 0.12
-30 -8 14 2.43 0.26
-30 8 14 1.84 0.22
-28 -8 14 -0.07 0.12
-28 8 14 -0.12 0.11
-26 -8 14 0.55 0.14
-26 8 14 0.46 0.28
-26 8 14 0.6 0.14
-24 -8 14 -0.17 0.12
-24 8 14 0.04 0.11
24 8 -14 -0.14 0.13
-24 8 14 -0.12 0.21
-22 -8 14 3.11 0.26
-22 8 14 2.68 0.38
22 8 -14 2.27 0.29
-20 8 14 -0.14 0.16
20 8 -14 0.03 0.13
18 8 -14 3.26 0.32
-18 8 14 3.55 0.36
16 8 -14 0.21 0.13
-16 8 14 0.02 0.16
-14 -8 14 1.84 0.23
-14 8 14 1.92 0.27
14 8 -14 1.17 0.2
-12 -8 14 0.17 0.14
12 8 -14 0.08 0.12
-12 8 14 -0.1 0.17
-10 -8 14 7.67 0.45
10 8 -14 5.84 0.42
-10 8 14 6.61 0.46
-8 -8 14 -0.14 0.11
-8 8 14 -0.17 0.13
8 8 -14 -0.04 0.09
-6 -8 14 1.25 0.2
6 8 -14 1.36 0.17
-6 8 14 1.08 0.14
-6 8 14 1.23 0.22
-4 -8 14 0.13 0.12
-4 8 14 0.15 0.08
4 8 -14 0.21 0.09
-4 8 14 0.19 0.13
-2 -8 14 1.13 0.2
-2 8 14 1.61 0.17
2 8 -14 2.29 0.19
-2 8 14 1.46 0.21
0 -8 14 -0.04 0.11
0 8 -14 0.01 0.07
0 8 14 0.17 0.13
0 8 14 -0.03 0.07
2 -8 14 2.04 0.24
2 8 14 1.46 0.17
2 8 14 1.86 0.22
4 -8 14 0.39 0.14
4 8 14 0.11 0.08
4 8 14 0.15 0.12
-4 8 -14 0.16 0.11
6 -8 14 1.29 0.21
6 8 14 0.8 0.15
-6 8 -14 1.01 0.17
6 8 14 0.79 0.14
8 -8 14 0.17 0.15
8 8 14 0.03 0.11
-8 8 -14 -0.1 0.11
8 8 14 -0.01 0.09
10 -8 14 6.94 0.5
10 8 14 7.31 0.45
10 8 14 6.28 0.42
-10 8 -14 7.27 0.47
12 -8 14 -0.05 0.18
12 8 14 0.06 0.12
-12 8 -14 -0.04 0.12
12 8 14 0.02 0.13
14 -8 14 1.88 0.3
14 8 14 1.66 0.22
-14 8 -14 1.7 0.23
16 -8 14 0.15 0.17
16 8 14 0.17 0.13
-16 8 -14 -0.07 0.12
18 -8 14 3.07 0.39
-18 8 -14 3.16 0.33
18 8 14 2.98 0.32
20 -8 14 0.07 0.19
-20 8 -14 -0.24 0.13
20 8 14 -0.08 0.13
22 -8 14 2.63 0.38
22 -8 14 2.66 0.25
-22 8 -14 1.68 0.28
22 8 14 1.94 0.28
24 -8 14 -0.04 0.11
24 8 14 -0.35 0.14
26 -8 14 0.51 0.15
28 -8 14 -0.06 0.13
-30 8 -14 2.52 0.27
-32 8 -14 0.11 0.12
-34 8 -14 0.06 0.13
-36 8 -14 -0.24 0.13
-38 8 -14 -0.02 0.14
-40 8 -14 0.09 0.14
-42 8 -14 -0.09 0.12
-44 -10 14 0.22 0.16
-44 10 14 0.16 0.14
-42 -10 14 0.14 0.15
-42 10 14 -0.02 0.14
-40 -10 14 -0.01 0.15
-40 10 14 0.02 0.14
-38 -10 14 0.05 0.16
-38 10 14 0.02 0.14
-36 -10 14 0.61 0.18
-36 10 14 0.55 0.17
-34 -10 14 -0.05 0.15
-34 10 14 -0.05 0.13
-32 -10 14 1.58 0.23
-32 10 14 1.7 0.22
-30 -10 14 0.06 0.14
-30 10 14 -0.1 0.11
-28 -10 14 -0.23 0.13
-28 10 14 -0.08 0.11
-26 -10 14 -0.12 0.12
26 10 -14 -0.02 0.16
-26 10 14 -0.36 0.24
-26 10 14 -0.01 0.11
-24 -10 14 0.2 0.14
-24 10 14 0.49 0.13
24 10 -14 0.72 0.2
-24 10 14 0.2 0.23
-22 -10 14 0.13 0.12
-22 10 14 -0.04 0.1
-22 10 14 -0.44 0.17
22 10 -14 0.08 0.14
-20 -10 14 0 0.11
20 10 -14 0.06 0.15
-20 10 14 -0.26 0.16
-18 10 14 -0.1 0.17
18 10 -14 0.04 0.13
-16 10 14 0.75 0.21
16 10 -14 0.57 0.16
-14 10 14 -0.06 0.14
14 10 -14 0.1 0.13
-12 -10 14 3.72 0.32
-12 10 14 2.71 0.32
12 10 -14 2.88 0.31
-10 -10 14 0.22 0.14
-10 10 14 0 0.15
10 10 -14 0.05 0.13
-8 -10 14 6.63 0.42
-8 10 14 5.79 0.36
-8 10 14 7.08 0.45
8 10 -14 5.18 0.38
-6 -10 14 0.04 0.13
-6 10 14 0.04 0.08
-6 10 14 0.14 0.14
6 10 -14 0.09 0.09
-4 -10 14 13.05 0.64
4 10 -14 10 0.59
-4 10 14 11.54 0.59
-4 10 14 12.81 0.64
-2 -10 14 0.02 0.12
-2 10 14 0.09 0.13
2 10 -14 -0.13 0.07
-2 10 14 0.05 0.07
0 -10 14 17.6 0.87
0 10 14 19.27 0.88
0 10 14 16.41 0.84
2 -10 14 -0.06 0.11
2 10 14 -0.03 0.07
2 10 14 0.01 0.12
4 -10 14 12.35 0.66
-4 10 -14 12.43 0.67
4 10 14 12.16 0.63
4 10 14 10.98 0.6
6 -10 14 0.16 0.14
-6 10 -14 -0.06 0.11
6 10 14 -0.06 0.09
6 10 14 0.07 0.12
8 -10 14 7.15 0.5
8 10 14 5.55 0.4
-8 10 -14 6.3 0.45
8 10 14 7.06 0.43
10 -10 14 0.41 0.21
10 10 14 -0.02 0.11
10 10 14 0.35 0.15
-10 10 -14 0.02 0.13
12 -10 14 3.18 0.37
12 10 14 2.91 0.29
-12 10 -14 3.05 0.33
14 -10 14 0.03 0.18
14 10 14 -0.02 0.11
-14 10 -14 -0.26 0.1
16 -10 14 0.51 0.2
-16 10 -14 0.4 0.16
16 10 14 0.4 0.15
18 -10 14 -0.03 0.16
-18 10 -14 -0.12 0.11
18 10 14 0.1 0.13
20 -10 14 -0.13 0.19
20 10 14 -0.05 0.13
-20 10 -14 -0.09 0.14
22 -10 14 0.18 0.12
22 -10 14 0.19 0.22
22 10 14 -0.12 0.14
-22 10 -14 -0.03 0.16
24 -10 14 0.52 0.13
24 10 14 0.44 0.22
26 -10 14 -0.03 0.11
26 10 14 -0.13 0.17
28 -10 14 -0.16 0.13
30 -10 14 -0.1 0.14
-32 10 -14 2.14 0.22
-34 10 -14 0.05 0.12
-36 10 -14 0.72 0.17
-38 10 -14 -0.11 0.14
-40 10 -14 -0.1 0.14
-42 10 -14 -0.03 0.13
-44 -12 14 -0.19 0.14
-44 12 14 0.15 0.13
-42 -12 14 0.98 0.2
-42 12 14 0.98 0.18
-40 -12 14 0.2 0.17
-40 12 14 -0.2 0.14
-38 -12 14 1.93 0.25
-38 12 14 1.73 0.23
-36 -12 14 0.11 0.17
-36 12 14 -0.07 0.14
-34 -12 14 1.94 0.25
-34 12 14 1.75 0.23
-32 -12 14 -0.13 0.14
-32 12 14 -0.02 0.13
-30 -12 14 0.1 0.14
-30 12 14 0.18 0.13
-28 -12 14 -0.2 0.13
28 12 -14 -0.31 0.17
-28 12 14 -0.12 0.12
-28 12 14 -0.39 0.23
-26 -12 14 0.27 0.15
26 12 -14 0.07 0.18
-26 12 14 0.49 0.14
-26 12 14 0.16 0.27
-24 -12 14 -0.25 0.12
24 12 -14 -0.29 0.14
-24 12 14 0.07 0.23
-24 12 14 0.06 0.11
-22 -12 14 1.62 0.2
22 12 -14 1.98 0.28
-22 12 14 1.56 0.31
-20 -12 14 -0.09 0.11
-20 12 14 0.05 0.2
20 12 -14 0.02 0.13
18 12 -14 5.48 0.41
-18 12 14 4.98 0.44
16 12 -14 0.05 0.12
-16 12 14 0.07 0.16
-14 12 14 1.74 0.26
14 12 -14 1.54 0.22
-12 12 14 -0.06 0.15
12 12 -14 -0.01 0.12
-10 -12 14 3.11 0.31
-10 12 14 3.26 0.34
10 12 -14 3.08 0.3
-8 -12 14 -0.01 0.13
-8 12 14 0.16 0.09
-8 12 14 0.04 0.18
8 12 -14 0.24 0.12
-6 -12 14 6.1 0.42
6 12 -14 5.89 0.38
-6 12 14 5.83 0.44
-6 12 14 6.09 0.36
-4 -12 14 0.18 0.14
4 12 -14 0.12 0.09
-4 12 14 0.2 0.09
-4 12 14 0.31 0.15
-2 -12 14 42.38 1.84
2 12 -14 39.38 1.86
-2 12 14 44.54 1.84
-2 12 14 41.17 1.86
0 -12 14 0.3 0.14
0 12 14 0.25 0.16
0 12 14 0.17 0.09
2 -12 14 40.79 1.84
2 12 14 41.56 1.87
2 12 14 43.07 1.84
4 -12 14 -0.05 0.13
4 12 14 0.39 0.15
4 12 14 0.09 0.09
6 -12 14 5.77 0.47
6 12 14 6.29 0.41
6 12 14 6.21 0.38
-6 12 -14 5.99 0.43
8 -12 14 0.04 0.16
8 12 14 0.38 0.14
8 12 14 0.03 0.1
-8 12 -14 0.03 0.13
10 -12 14 2.92 0.37
10 12 14 3.01 0.28
-10 12 -14 3.3 0.33
12 -12 14 0.18 0.18
12 12 14 -0.13 0.09
-12 12 -14 -0.01 0.12
14 -12 14 1.71 0.3
-14 12 -14 1.44 0.23
14 12 14 1.61 0.21
16 -12 14 -0.17 0.16
16 12 14 -0.04 0.11
-16 12 -14 -0.1 0.12
18 -12 14 4.31 0.48
18 12 14 4.22 0.38
-18 12 -14 4.63 0.41
20 -12 14 0.12 0.21
20 -12 14 0.15 0.12
-20 12 -14 -0.27 0.14
20 12 14 -0.08 0.13
22 -12 14 1.52 0.18
22 -12 14 1.16 0.31
22 12 14 1.82 0.28
-22 12 -14 1.21 0.26
24 -12 14 -0.02 0.13
-24 12 -14 -0.24 0.17
24 12 14 -0.24 0.16
26 -12 14 0.39 0.14
26 -12 14 0.08 0.23
26 12 14 -0.13 0.19
28 -12 14 -0.04 0.13
28 12 14 -0.27 0.17
30 -12 14 -0.05 0.15
-32 12 -14 0.1 0.12
-34 12 -14 2.01 0.22
-36 12 -14 -0.04 0.14
-38 12 -14 1.91 0.24
-40 12 -14 -0.12 0.14
-42 12 -14 0.91 0.17
-42 -14 14 -0.07 0.16
-42 14 14 0.1 0.13
-40 -14 14 1.4 0.23
-40 14 14 1.17 0.2
-38 -14 14 0.2 0.17
-38 14 14 0.33 0.16
-36 -14 14 6.23 0.47
-36 14 14 5.78 0.45
-34 -14 14 0.31 0.16
-34 14 14 0.15 0.15
-32 -14 14 6.43 0.46
-32 14 14 6.07 0.45
-30 -14 14 -0.15 0.14
-30 14 14 0 0.12
-28 -14 14 0.04 0.14
-28 14 14 0.02 0.12
28 14 -14 -0.04 0.19
-26 -14 14 -0.13 0.14
26 14 -14 0.08 0.19
-26 14 14 -0.23 0.24
-26 14 14 0.1 0.12
-24 -14 14 2.08 0.24
24 14 -14 2.35 0.32
-24 14 14 2.82 0.41
-22 -14 14 -0.2 0.12
22 14 -14 -0.06 0.15
-22 14 14 0.08 0.21
-20 -14 14 17.58 0.88
-20 14 14 16.16 0.96
20 14 -14 18.5 0.96
-18 -14 14 0.07 0.11
18 14 -14 -0.01 0.14
-18 14 14 -0.2 0.14
16 14 -14 21.86 1.1
-16 14 14 21.47 1.1
14 14 -14 -0.01 0.12
-14 14 14 -0.13 0.14
12 14 -14 1.75 0.23
-12 14 14 1.78 0.27
-10 14 14 0.07 0.08
10 14 -14 -0.12 0.1
-10 14 14 0.05 0.15
-8 -14 14 2.29 0.27
-8 14 14 2.06 0.27
-8 14 14 1.7 0.19
-6 -14 14 -0.19 0.12
6 14 -14 -0.02 0.09
-6 14 14 -0.11 0.07
-6 14 14 -0.23 0.13
-4 -14 14 7.42 0.45
-4 14 14 7.61 0.47
4 14 -14 5.74 0.39
-4 14 14 6.55 0.38
-2 -14 14 0.04 0.15
-2 14 14 0.02 0.16
-2 14 14 0.02 0.09
0 -14 14 43.12 1.94
0 14 14 44.02 1.96
0 14 14 45.22 1.94
2 -14 14 0.06 0.15
2 14 14 0.07 0.13
2 14 14 -0.01 0.08
4 -14 14 7.19 0.51
4 14 14 6.79 0.41
4 14 14 8.55 0.49
6 -14 14 -0.35 0.13
6 14 14 -0.2 0.11
6 14 14 -0.05 0.09
-6 14 -14 -0.21 0.11
8 -14 14 2.05 0.3
-8 14 -14 2.13 0.26
8 14 14 1.46 0.19
10 -14 14 0.01 0.16
10 14 14 -0.03 0.09
-10 14 -14 0 0.12
12 -14 14 1.59 0.29
-12 14 -14 1.74 0.25
12 14 14 2.33 0.24
14 -14 14 -0.1 0.16
-14 14 -14 0.07 0.12
14 14 14 -0.09 0.1
16 -14 14 21.05 1.13
-16 14 -14 19.94 1.08
16 14 14 20.33 1.04
18 -14 14 0.02 0.11
18 -14 14 0.31 0.21
-18 14 -14 0.04 0.14
18 14 14 -0.02 0.12
20 -14 14 14.37 0.93
20 -14 14 14.86 0.78
-20 14 -14 15.39 0.9
20 14 14 16.25 0.87
22 -14 14 -0.05 0.13
-22 14 -14 0.16 0.17
22 14 14 0.11 0.15
24 -14 14 2.41 0.36
24 -14 14 2.17 0.23
24 14 14 1.87 0.31
-24 14 -14 2.34 0.35
26 -14 14 0.03 0.14
26 14 14 -0.13 0.17
-26 14 -14 -0.06 0.19
28 -14 14 0.04 0.15
28 14 14 0.1 0.2
30 -14 14 -0.07 0.15
-32 14 -14 6.72 0.45
-34 14 -14 0.19 0.13
-36 14 -14 5.84 0.43
-38 14 -14 0.07 0.14
-40 14 -14 0.99 0.18
-42 14 -14 -0.02 0.13
-42 -16 14 1.86 0.23
-42 16 14 1.81 0.2
-40 -16 14 -0.02 0.17
-40 16 14 -0.05 0.13
-38 -16 14 6.46 0.48
-38 16 14 5.84 0.44
-36 -16 14 0.06 0.16
-36 16 14 0.16 0.15
-34 -16 14 9.17 0.59
-34 16 14 8.31 0.55
-32 -16 14 -0.02 0.14
-32 16 14 0.09 0.14
-30 -16 14 0.94 0.2
30 16 -14 0.76 0.25
-30 16 14 0.97 0.18
-28 -16 14 0.01 0.14
28 16 -14 0.13 0.19
-28 16 14 -0.04 0.11
-26 -16 14 0.14 0.12
-26 16 14 -0.06 0.23
26 16 -14 0.17 0.19
-24 -16 14 0.12 0.14
-24 16 14 0.22 0.24
24 16 -14 -0.09 0.17
-22 -16 14 8.42 0.51
22 16 -14 8.17 0.6
-22 16 14 7.62 0.61
-20 -16 14 0.16 0.12
20 16 -14 0.22 0.17
-20 16 14 0.06 0.18
-18 -16 14 26.53 1.25
18 16 -14 26.41 1.3
-18 16 14 24.74 1.3
-16 -16 14 0.34 0.11
-16 16 14 0.14 0.19
16 16 -14 0.14 0.14
14 16 -14 19.55 1.03
-14 16 14 20.81 1.04
-12 16 14 -0.07 0.14
12 16 -14 -0.01 0.11
-10 16 14 0.98 0.15
-10 16 14 0.53 0.2
10 16 -14 0.41 0.14
8 16 -14 0.03 0.1
-8 16 14 0.16 0.09
-8 16 14 0.11 0.15
-6 -16 14 22.42 1.08
6 16 -14 21.51 1.07
-6 16 14 23.69 1.09
-6 16 14 22.41 1.05
-4 -16 14 0.34 0.17
4 16 -14 0.16 0.1
-4 16 14 0.18 0.1
-4 16 14 0.34 0.17
-2 -16 14 75.63 3.12
-2 16 14 74.76 3.1
-2 16 14 70.15 3.2
0 -16 14 0.51 0.19
0 16 14 0.72 0.21
0 16 14 0.28 0.1
2 -16 14 74.02 3.16
2 16 14 72.15 3.24
2 16 14 77.02 3.14
4 -16 14 0.38 0.21
4 16 14 0.38 0.16
4 16 14 0.32 0.1
6 -16 14 22.4 1.12
6 16 14 22.39 1.05
6 16 14 22.21 1.06
-6 16 -14 21.59 1.13
8 -16 14 -0.1 0.14
8 16 14 0.27 0.11
-8 16 -14 0.04 0.11
10 -16 14 0.74 0.23
-10 16 -14 1.1 0.2
10 16 14 0.79 0.15
12 -16 14 0.2 0.18
-12 16 -14 0.04 0.12
12 16 14 -0.02 0.1
14 -16 14 19.64 1.09
-14 16 -14 20.4 1.07
14 16 14 19.69 1.01
16 -16 14 0.07 0.22
16 -16 14 0.41 0.13
-16 16 -14 0.1 0.16
16 16 14 0.21 0.14
18 -16 14 21.9 1.23
18 -16 14 22.07 1.1
18 16 14 23.44 1.17
-18 16 -14 22.78 1.21
20 -16 14 0.09 0.11
20 16 14 0.05 0.15
-20 16 -14 0.08 0.17
22 -16 14 7.24 0.48
22 -16 14 8.67 0.6
-22 16 -14 7.72 0.61
22 16 14 7.91 0.57
24 -16 14 -0.06 0.14
-24 16 -14 0.02 0.17
24 16 14 -0.03 0.16
26 -16 14 -0.03 0.14
26 16 14 0.15 0.19
-26 16 -14 0.18 0.21
28 -16 14 -0.2 0.14
28 16 14 -0.08 0.19
30 -16 14 0.57 0.19
32 -16 14 0.36 0.18
-34 16 -14 9 0.54
-36 16 -14 0.28 0.14
-38 16 -14 6.22 0.45
-40 16 -14 -0.13 0.13
-42 16 -14 1.75 0.2
-42 -18 14 0.02 0.14
-40 -18 14 1.61 0.23
-40 18 14 1.6 0.2
-38 -18 14 0.47 0.19
-38 18 14 0.34 0.15
-36 -18 14 5.2 0.46
-36 18 14 4.52 0.39
-34 -18 14 0.43 0.18
-34 18 14 0.21 0.15
-32 -18 14 4.42 0.41
-30 -18 14 -0.07 0.14
30 18 -14 0.05 0.21
-28 -18 14 0.06 0.15
28 18 -14 0.54 0.24
-26 -18 14 -0.05 0.13
26 18 -14 -0.07 0.18
-24 -18 14 5.49 0.42
-24 18 14 6.33 0.56
24 18 -14 5.92 0.51
-22 -18 14 -0.28 0.11
22 18 -14 -0.05 0.17
-22 18 14 0.22 0.23
-20 -18 14 24.2 1.18
-20 18 14 23.04 1.25
20 18 -14 25.09 1.25
-18 -18 14 -0.01 0.12
-18 18 14 0.09 0.19
18 18 -14 0.07 0.14
-16 -18 14 25.58 1.22
-16 18 14 24.56 1.27
16 18 -14 25.96 1.27
-14 -18 14 0.1 0.12
14 18 -14 -0.08 0.12
-14 18 14 0.05 0.16
-12 18 14 4.87 0.41
12 18 -14 4.44 0.38
-10 18 14 0.01 0.15
10 18 -14 0 0.11
-10 18 14 -0.12 0.08
8 18 -14 2.55 0.27
-8 18 14 3.05 0.25
-8 18 14 2.94 0.33
-6 -18 14 0.01 0.13
-6 18 14 -0.06 0.09
6 18 -14 0.04 0.1
-6 18 14 0.12 0.15
-4 -18 14 19.4 0.96
-4 18 14 18.53 0.96
-2 -18 14 0.34 0.16
-2 18 14 0.38 0.19
0 -18 14 43.24 1.99
0 18 14 46.04 1.99
2 -18 14 0.18 0.19
2 18 14 0.45 0.19
4 -18 14 18.58 0.84
4 -18 14 19.23 0.99
4 18 14 17.14 0.89
4 18 14 19.86 0.95
6 -18 14 -0.01 0.05
6 -18 14 0.16 0.19
-6 18 -14 0 0.12
6 18 14 0.07 0.09
8 -18 14 3.03 0.37
8 18 14 3.24 0.27
-8 18 -14 3.8 0.34
10 -18 14 0.04 0.17
-10 18 -14 0 0.12
10 18 14 0.12 0.1
12 -18 14 4.88 0.47
-12 18 -14 4.35 0.4
12 18 14 4.75 0.36
14 -18 14 0.01 0.2
14 -18 14 0.06 0.12
14 18 14 0.02 0.1
-14 18 -14 -0.1 0.13
16 -18 14 22.97 1.15
16 -18 14 24.71 1.3
16 -18 14 23.48 1.16
-16 18 -14 23.51 1.26
16 18 14 24.94 1.21
18 -18 14 0.31 0.13
18 -18 14 -0.14 0.23
18 -18 14 0.07 0.13
-18 18 -14 0.04 0.16
18 18 14 -0.11 0.13
20 -18 14 20.46 1.04
20 -18 14 22.32 1.08
20 18 14 21.57 1.13
-20 18 -14 20.25 1.16
22 -18 14 -0.06 0.13
22 -18 14 0.04 0.14
-22 18 -14 0.16 0.18
22 18 14 -0.01 0.15
24 -18 14 4.75 0.39
24 18 14 4.96 0.48
-24 18 -14 5.03 0.53
26 -18 14 -0.15 0.15
26 18 14 -0.01 0.18
-26 18 -14 0.09 0.2
28 -18 14 0.21 0.17
28 18 14 0.34 0.23
30 -18 14 -0.09 0.15
30 18 14 -0.08 0.21
32 -18 14 4.03 0.39
-36 18 -14 5.01 0.4
-38 18 -14 0.21 0.14
-40 18 -14 1.82 0.21
-42 18 -14 -0.02 0.12
-40 -20 14 -0.01 0.15
-38 -20 14 4.84 0.42
-36 -20 14 0.05 0.17
-34 -20 14 8.55 0.58
-32 -20 14 -0.05 0.17
-30 -20 14 2.16 0.27
-28 -20 14 0.06 0.15
28 20 -14 0.06 0.2
-26 -20 14 0.22 0.15
26 20 -14 0.11 0.19
-24 -20 14 0.03 0.13
24 20 -14 -0.05 0.17
-22 -20 14 9.87 0.58
-22 20 14 8.81 0.7
22 20 -14 10.21 0.67
-20 -20 14 0.25 0.13
20 20 -14 0.08 0.16
-20 20 14 0.19 0.23
-18 -20 14 23.97 1.15
18 20 -14 23.06 1.2
-18 20 14 23.41 1.24
-16 -20 14 0.18 0.11
-16 20 14 0.13 0.2
16 20 -14 0.17 0.15
-14 -20 14 18.02 0.86
14 20 -14 15.45 0.88
-14 20 14 16.03 0.92
-12 -20 14 0.02 0.1
-12 20 14 -0.04 0.18
-12 20 14 0.04 0.1
12 20 -14 0.01 0.12
-10 -20 14 0 0.11
-10 20 14 -0.07 0.16
10 20 -14 0.05 0.12
-10 20 14 0 0.09
-8 20 14 0.01 0.15
8 20 -14 -0.13 0.11
-6 20 14 14.53 0.8
-4 -20 14 0.21 0.15
-4 20 14 0.15 0.18
-2 -20 14 65.83 2.9
-2 20 14 69.06 2.9
0 -20 14 0.43 0.2
0 20 14 0.43 0.18
2 -20 14 67.56 2.95
2 20 14 68.61 2.92
4 -20 14 0.02 0.17
6 -20 14 14.98 0.88
6 20 14 14.33 0.75
-6 20 -14 16.11 0.85
8 -20 14 -0.05 0.16
-8 20 -14 -0.09 0.11
8 20 14 0.1 0.1
10 -20 14 0.13 0.1
10 -20 14 0.11 0.2
10 20 14 0 0.1
-10 20 -14 0 0.14
12 -20 14 0.19 0.19
12 -20 14 0.13 0.12
12 20 14 0.04 0.1
-12 20 -14 -0.03 0.12
14 -20 14 16.67 0.96
14 -20 14 15.37 0.81
14 20 14 15.16 0.84
-14 20 -14 15.99 0.91
16 -20 14 -0.1 0.23
16 -20 14 0.33 0.15
16 20 14 0.18 0.14
-16 20 -14 0.28 0.17
18 -20 14 21.52 0.94
18 -20 14 21.57 1.06
18 20 14 21.48 1.12
-18 20 -14 20.25 1.17
20 -20 14 0.18 0.14
20 -20 14 0.07 0.08
-20 20 -14 0.05 0.18
20 20 14 0.04 0.16
22 -20 14 8.6 0.54
22 20 14 9.16 0.64
-22 20 -14 8.64 0.67
24 -20 14 0.26 0.16
-24 20 -14 -0.13 0.19
24 20 14 0.03 0.19
26 -20 14 0.11 0.16
26 20 14 0.11 0.19
28 -20 14 0.25 0.17
28 20 14 0.1 0.21
30 -20 14 1.61 0.23
32 -20 14 0.09 0.18
-34 20 -14 8.48 0.53
-36 20 -14 0.34 0.14
-38 20 -14 5.29 0.4
-40 20 -14 0.02 0.12
-40 -22 14 0.89 0.19
-38 -22 14 0.16 0.16
-36 -22 14 2.66 0.29
-34 -22 14 0.41 0.19
-32 -22 14 1.68 0.25
-30 -22 14 0.22 0.17
-28 -22 14 0.11 0.16
28 22 -14 0.06 0.2
-26 -22 14 -0.07 0.14
26 22 -14 0.03 0.18
-24 -22 14 0.87 0.19
24 22 -14 1.02 0.25
-22 -22 14 -0.09 0.13
22 22 -14 -0.3 0.15
-20 -22 14 9.56 0.58
20 22 -14 9.95 0.64
-20 22 14 9.51 0.71
-18 -22 14 0.21 0.13
-18 22 14 0.15 0.24
18 22 -14 -0.07 0.14
-16 -22 14 8.48 0.51
16 22 -14 7.89 0.56
-16 22 14 8.52 0.65
-14 -22 14 0.01 0.12
14 22 -14 -0.14 0.12
-14 22 14 0.22 0.23
-12 -22 14 1.74 0.21
12 22 -14 1.8 0.25
-12 22 14 1.67 0.22
-12 22 14 1.86 0.32
-10 -22 14 0.05 0.12
-10 22 14 -0.17 0.2
10 22 -14 -0.03 0.12
-8 -22 14 3.26 0.3
-8 22 14 2.45 0.35
-6 -22 14 0.08 0.11
-6 22 14 -0.08 0.16
-4 -22 14 13.73 0.73
-4 22 14 12.92 0.77
-2 -22 14 0.23 0.14
-2 -22 14 0.12 0.17
-2 22 14 0.1 0.19
0 -22 14 26.71 1.36
0 -22 14 29.19 1.37
0 22 14 28.44 1.36
2 -22 14 0.14 0.18
2 -22 14 0.08 0.13
4 -22 14 12.76 0.68
4 -22 14 11.67 0.77
6 -22 14 0.18 0.19
6 -22 14 -0.05 0.13
-6 22 -14 0.05 0.13
8 -22 14 2.46 0.27
8 -22 14 2.65 0.39
-8 22 -14 2.56 0.31
8 22 14 2.31 0.25
10 -22 14 0.06 0.19
10 -22 14 -0.03 0.12
-10 22 -14 0.06 0.14
10 22 14 0 0.11
12 -22 14 1.56 0.34
12 -22 14 1.53 0.21
-12 22 -14 1.81 0.29
12 22 14 1.74 0.23
14 -22 14 -0.01 0.14
-14 22 -14 0.02 0.16
14 22 14 -0.05 0.12
16 -22 14 7.82 0.5
-16 22 -14 7.6 0.59
16 22 14 7.71 0.53
18 -22 14 0.05 0.14
-18 22 -14 0.11 0.16
18 22 14 0.03 0.15
20 -22 14 9.04 0.56
20 22 14 8.86 0.63
-20 22 -14 9.31 0.68
22 -22 14 0 0.15
22 22 14 -0.13 0.16
-22 22 -14 0.31 0.21
24 -22 14 0.98 0.21
24 22 14 1.04 0.27
26 -22 14 0.01 0.16
26 22 14 0.02 0.2
28 -22 14 -0.2 0.17
28 22 14 0.07 0.21
30 -22 14 0.07 0.17
32 -22 14 2.13 0.27
-34 22 -14 0.36 0.15
-36 22 -14 2.11 0.23
-38 22 -14 0.36 0.13
-40 22 -14 0.76 0.15
-38 -24 14 1.89 0.22
-36 -24 14 0.31 0.17
-34 -24 14 3.99 0.4
-32 -24 14 0.14 0.17
-30 -24 14 1.35 0.23
-28 -24 14 -0.09 0.16
-26 -24 14 -0.09 0.15
26 24 -14 -0.09 0.19
-24 -24 14 0.05 0.14
24 24 -14 -0.03 0.17
-22 -24 14 0.8 0.18
22 24 -14 0.65 0.23
-20 -24 14 0.11 0.14
20 24 -14 0.11 0.16
-18 -24 14 6.03 0.41
-18 24 14 5.55 0.54
18 24 -14 4.61 0.44
-16 -24 14 0.01 0.13
-16 24 14 0.29 0.22
16 24 -14 -0.04 0.13
-14 -24 14 2.64 0.27
-14 24 14 2.82 0.39
14 24 -14 2.21 0.3
-12 -24 14 0.04 0.13
12 24 -14 -0.09 0.13
-12 24 14 0.12 0.22
-10 -24 14 0.58 0.16
-10 24 14 0.47 0.24
-8 -24 14 -0.06 0.13
-8 24 14 -0.24 0.17
-6 -24 14 7.43 0.49
-6 24 14 7.75 0.57
-4 -24 14 -0.14 0.12
-4 24 14 -0.14 0.18
-2 -24 14 32.85 1.57
-2 24 14 33.19 1.57
0 -24 14 0.03 0.19
0 -24 14 0.11 0.14
2 -24 14 32.29 1.47
2 -24 14 28.47 1.47
4 -24 14 -0.05 0.14
4 -24 14 0.06 0.22
6 -24 14 7.24 0.58
6 -24 14 7.73 0.49
-6 24 -14 6.9 0.53
8 -24 14 -0.2 0.12
8 -24 14 -0.23 0.19
-8 24 -14 -0.1 0.14
10 -24 14 0.38 0.15
10 -24 14 0.44 0.24
-10 24 -14 0.38 0.18
10 24 14 0.82 0.17
12 -24 14 0.03 0.14
-12 24 -14 0.11 0.16
12 24 14 -0.11 0.11
14 -24 14 2.49 0.26
14 24 14 2.06 0.27
-14 24 -14 2.65 0.34
16 -24 14 0.06 0.13
16 24 14 0.07 0.14
-16 24 -14 -0.23 0.13
18 -24 14 5.07 0.41
18 24 14 5.04 0.45
-18 24 -14 5.22 0.51
20 -24 14 0.38 0.17
-20 24 -14 -0.01 0.19
20 24 14 -0.12 0.14
22 -24 14 0.98 0.21
22 24 14 0.91 0.27
24 -24 14 -0.03 0.17
24 24 14 0.07 0.2
26 -24 14 -0.03 0.17
26 24 14 -0.31 0.18
28 -24 14 0.03 0.18
30 -24 14 1.29 0.23
32 -24 14 0.25 0.19
-34 24 -14 3.92 0.35
-36 24 -14 0.1 0.13
-38 24 -14 1.43 0.18
-36 -26 14 0.39 0.17
-34 -26 14 0.25 0.17
-32 -26 14 0.43 0.19
-30 -26 14 0.01 0.18
-28 -26 14 0.07 0.19
-26 -26 14 0.09 0.18
-24 -26 14 0.24 0.18
24 26 -14 0.32 0.2
-22 -26 14 -0.21 0.14
22 26 -14 0.04 0.17
-20 -26 14 0.03 0.14
20 26 -14 0.23 0.18
-18 -26 14 -0.07 0.13
18 26 -14 0.01 0.15
-16 -26 14 0.4 0.15
16 26 -14 0.08 0.16
-16 26 14 0.39 0.25
-14 -26 14 -0.01 0.12
14 26 -14 0.22 0.17
-14 26 14 0.03 0.23
-12 -26 14 0.41 0.15
12 26 -14 0.23 0.17
-12 26 14 0.3 0.26
-10 -26 14 -0.04 0.13
-10 26 14 -0.38 0.19
-8 -26 14 0.81 0.17
-8 26 14 0.47 0.25
-6 -26 14 0.11 0.13
-6 26 14 -0.28 0.21
-4 -26 14 0.16 0.15
-4 26 14 -0.01 0.22
-2 -26 14 0.03 0.13
0 -26 14 1.8 0.23
2 -26 14 -0.01 0.19
2 -26 14 -0.08 0.13
4 -26 14 0.2 0.16
-4 26 -14 0.45 0.19
6 -26 14 -0.03 0.14
-6 26 -14 0.05 0.14
8 -26 14 0.59 0.17
-8 26 -14 1.05 0.23
10 -26 14 0 0.13
-10 26 -14 0 0.16
12 -26 14 0.28 0.17
12 26 14 0.09 0.14
-12 26 -14 0.13 0.19
14 -26 14 -0.02 0.15
14 26 14 -0.06 0.14
-14 26 -14 -0.12 0.16
16 -26 14 0.15 0.16
16 26 14 0.12 0.15
-16 26 -14 0.04 0.19
18 -26 14 -0.02 0.17
-18 26 -14 0.06 0.2
18 26 14 -0.01 0.16
20 -26 14 0.26 0.17
20 26 14 0.14 0.18
22 -26 14 -0.06 0.17
22 26 14 -0.03 0.19
24 -26 14 0.54 0.2
24 26 14 -0.02 0.19
26 -26 14 -0.08 0.18
28 -26 14 0.21 0.19
30 -26 14 0.17 0.2
32 -26 14 0.59 0.21
-34 26 -14 -0.08 0.13
-36 26 -14 0.4 0.14
-38 26 -14 -0.07 0.1
-34 -28 14 0.22 0.15
-32 -28 14 -0.05 0.16
-30 -28 14 0.24 0.18
-28 -28 14 -0.21 0.17
-26 -28 14 0.13 0.19
-24 -28 14 0.01 0.18
-22 -28 14 -0.18 0.17
22 28 -14 0.03 0.18
-20 -28 14 -0.02 0.15
20 28 -14 -0.14 0.15
-18 -28 14 0.47 0.16
18 28 -14 0.47 0.19
-16 -28 14 0.03 0.14
16 28 -14 0.13 0.16
-14 -28 14 0.09 0.14
14 28 -14 0.01 0.15
-12 -28 14 -0.22 0.13
-12 28 14 -0.06 0.24
-10 -28 14 -0.13 0.13
-10 28 14 -0.18 0.23
-8 -28 14 -0.17 0.12
-8 28 14 -0.25 0.2
-6 -28 14 -0.34 0.13
-6 28 14 -0.25 0.21
-4 -28 14 -0.11 0.13
-2 -28 14 0.37 0.16
0 -28 14 0.08 0.14
2 -28 14 0.21 0.15
4 -28 14 0.03 0.15
-4 28 -14 0.12 0.15
6 -28 14 0.14 0.14
-6 28 -14 0.05 0.14
8 -28 14 -0.06 0.14
-8 28 -14 -0.14 0.15
10 -28 14 0.01 0.16
-10 28 -14 -0.03 0.16
12 -28 14 -0.21 0.15
12 28 14 0 0.14
-12 28 -14 -0.22 0.15
14 -28 14 0.17 0.17
14 28 14 0.21 0.16
-14 28 -14 0.12 0.18
16 -28 14 -0.12 0.15
16 28 14 -0.16 0.14
18 -28 14 0.26 0.17
18 28 14 0.51 0.21
20 -28 14 0.15 0.18
20 28 14 -0.09 0.16
22 -28 14 -0.15 0.17
22 28 14 -0.07 0.19
24 -28 14 0.06 0.19
26 -28 14 -0.14 0.18
28 -28 14 -0.06 0.19
30 -28 14 0.18 0.19
32 -28 14 0.01 0.18
-32 28 -14 -0.05 0.13
-34 28 -14 0.09 0.13
-36 28 -14 0.06 0.11
-32 -30 14 0.06 0.15
-30 -30 14 -0.11 0.15
-28 -30 14 0.25 0.18
-26 -30 14 0.11 0.18
-24 -30 14 1.36 0.24
-22 -30 14 -0.16 0.17
-20 -30 14 1.86 0.26
-18 -30 14 -0.16 0.15
18 30 -14 0.29 0.18
-16 -30 14 0.61 0.18
16 30 -14 0.7 0.23
-14 -30 14 -0.12 0.14
-12 -30 14 0.02 0.14
-10 -30 14 -0.09 0.13
-8 -30 14 2.24 0.27
-8 30 14 2.45 0.42
-6 -30 14 -0.01 0.14
-4 -30 14 7.31 0.49
-2 -30 14 -0.02 0.13
0 -30 14 6.68 0.48
2 -30 14 0.08 0.16
4 -30 14 6.46 0.47
-4 30 -14 6.03 0.51
6 -30 14 0.04 0.15
-6 30 -14 0.09 0.15
8 -30 14 2.1 0.26
-8 30 -14 2.07 0.32
10 -30 14 0.23 0.17
-10 30 -14 -0.13 0.16
12 -30 14 0.38 0.18
14 -30 14 -0.04 0.16
14 30 14 0.14 0.16
16 -30 14 0.91 0.21
16 30 14 1.28 0.25
18 -30 14 0.21 0.18
18 30 14 0.13 0.19
20 -30 14 1.88 0.26
22 -30 14 -0.09 0.18
24 -30 14 0.99 0.23
26 -30 14 0.19 0.2
28 -30 14 -0.42 0.18
30 -30 14 -0.37 0.17
-32 30 -14 -0.15 0.12
-34 30 -14 0.13 0.12
-28 -32 14 -0.32 0.15
-26 -32 14 0.17 0.18
-24 -32 14 -0.21 0.17
-22 -32 14 1.94 0.27
-20 -32 14 -0.05 0.17
-18 -32 14 4.11 0.42
-16 -32 14 -0.15 0.15
-14 -32 14 5.83 0.47
-12 -32 14 -0.06 0.15
-10 -32 14 1.82 0.24
-8 -32 14 -0.13 0.12
-6 -32 14 0.78 0.18
-4 -32 14 0.01 0.14
-2 -32 14 2.07 0.25
0 -32 14 0 0.14
2 -32 14 2.12 0.26
4 -32 14 -0.16 0.15
6 -32 14 0.66 0.18
8 -32 14 -0.29 0.16
10 -32 14 1.61 0.24
12 -32 14 -0.11 0.16
14 -32 14 6.07 0.51
16 -32 14 0.14 0.18
18 -32 14 3.8 0.41
20 -32 14 0.05 0.19
22 -32 14 1.64 0.27
24 -32 14 -0.13 0.2
26 -32 14 0.48 0.21
28 -32 14 -0.2 0.18
30 -32 14 0.07 0.17
-32 32 -14 -0.01 0.12
-24 -34 14 2.69 0.29
-22 -34 14 -0.01 0.17
-20 -34 14 7.48 0.53
-18 -34 14 0.11 0.17
-16 -34 14 7.61 0.54
-14 -34 14 -0.03 0.16
-12 -34 14 1.77 0.24
-10 -34 14 0.06 0.15
-8 -34 14 0.08 0.15
-6 -34 14 -0.04 0.15
-4 -34 14 1.68 0.23
-2 -34 14 0.3 0.17
0 -34 14 3.58 0.37
2 -34 14 0.17 0.17
4 -34 14 1.65 0.24
6 -34 14 0.11 0.17
8 -34 14 0.17 0.17
10 -34 14 -0.08 0.16
12 -34 14 1.69 0.25
14 -34 14 0.32 0.19
16 -34 14 8.58 0.6
18 -34 14 0.46 0.2
20 -34 14 7.31 0.54
22 -34 14 0 0.18
24 -34 14 2.94 0.31
26 -34 14 -0.23 0.17
28 -34 14 -0.24 0.16
-30 34 -14 -0.16 0.11
-20 -36 14 -0.16 0.15
-18 -36 14 3.99 0.4
-16 -36 14 0.07 0.16
-14 -36 14 4.57 0.41
-12 -36 14 0.04 0.16
-10 -36 14 0.8 0.2
-8 -36 14 -0.08 0.14
-6 -36 14 1.24 0.22
-4 -36 14 0.15 0.16
-2 -36 14 5.57 0.46
0 -36 14 -0.07 0.16
2 -36 14 5.8 0.48
4 -36 14 -0.07 0.18
6 -36 14 1.28 0.24
8 -36 14 -0.18 0.17
10 -36 14 0.46 0.2
12 -36 14 -0.02 0.17
14 -36 14 5.01 0.43
16 -36 14 0.24 0.18
18 -36 14 5.02 0.45
20 -36 14 0.03 0.18
22 -36 14 1.88 0.26
24 -36 14 -0.29 0.16
26 -36 14 0.1 0.16
28 -36 14 -0.19 0.14
-14 -38 14 0.16 0.16
-12 -38 14 1.84 0.24
-10 -38 14 -0.16 0.15
-8 -38 14 0.21 0.16
-6 -38 14 0.06 0.15
-4 -38 14 4.24 0.4
-2 -38 14 0.1 0.16
0 -38 14 5.89 0.47
2 -38 14 0.32 0.19
4 -38 14 3.28 0.32
6 -38 14 -0.16 0.16
8 -38 14 -0.16 0.16
10 -38 14 -0.11 0.16
12 -38 14 1.89 0.25
14 -38 14 0.44 0.18
16 -38 14 5.57 0.44
18 -38 14 0.15 0.17
20 -38 14 4.28 0.39
22 -38 14 0.21 0.17
24 -38 14 1.45 0.21
-8 -40 14 -0.03 0.15
-6 -40 14 0.55 0.17
-4 -40 14 0 0.15
-2 -40 14 2.02 0.24
0 -40 14 0.16 0.16
2 -40 14 2.25 0.26
4 -40 14 -0.12 0.16
6 -40 14 0.48 0.18
8 -40 14 -0.24 0.15
10 -40 14 0.16 0.16
12 -40 14 -0.09 0.15
14 -40 14 1.06 0.2
16 -40 14 0.1 0.16
18 -40 14 1.63 0.21
20 -40 14 -0.04 0.14
22 -40 14 0.62 0.17
0 -42 14 1.67 0.21
2 -42 14 -0.07 0.15
4 -42 14 1.07 0.19
6 -42 14 0.01 0.14
8 -42 14 -0.06 0.14
10 -42 14 0.09 0.14
12 -42 14 0.75 0.16
14 -42 14 -0.02 0.14
16 -42 14 1.46 0.19
-45 -1 15 0.03 0.14
-45 1 15 -0.03 0.13
-43 -1 15 0.02 0.15
-43 1 15 0.09 0.15
-41 -1 15 -0.17 0.15
-41 1 15 -0.13 0.15
-39 -1 15 0.01 0.15
-39 1 15 0.05 0.16
-37 -1 15 -0.04 0.15
-37 1 15 0.08 0.15
-35 -1 15 -0.06 0.15
-35 1 15 0.01 0.15
-33 -1 15 0.03 0.14
-33 1 15 -0.04 0.14
-31 -1 15 0.2 0.15
-31 1 15 0.11 0.14
-29 -1 15 -0.03 0.13
-29 1 15 0.28 0.14
-27 -1 15 0.15 0.13
-27 1 15 0.16 0.12
-25 -1 15 0.04 0.11
-25 1 15 -0.09 0.11
-23 -1 15 -0.01 0.1
-23 1 15 0.01 0.11
-21 1 15 0.23 0.18
-19 -1 15 1.3 0.23
-19 1 15 1.22 0.23
-17 -1 15 4.39 0.39
-17 1 15 4.8 0.41
17 1 -15 4.46 0.32
-15 -1 15 6.53 0.45
15 1 -15 6.7 0.4
-15 1 15 6.73 0.46
13 -1 -15 5.74 0.36
-13 -1 15 5.98 0.43
-13 1 15 5.9 0.43
13 1 -15 6.01 0.37
-11 -1 15 6.19 0.44
11 -1 -15 6.4 0.36
11 1 -15 6.65 0.37
-11 1 15 5.76 0.42
9 -1 -15 9.12 0.46
-9 -1 15 9.01 0.52
9 1 -15 8.82 0.47
-9 1 15 9.57 0.54
-7 -1 15 10.46 0.58
7 -1 -15 10.4 0.51
-7 1 15 10.17 0.57
7 1 -15 10.26 0.53
-5 -1 15 8.98 0.53
5 -1 -15 10.03 0.49
-5 1 15 9.8 0.55
5 1 -15 9.73 0.5
-3 -1 15 7.73 0.47
3 -1 -15 8.19 0.41
3 -1 -15 7.66 0.47
3 1 -15 7.93 0.43
-3 1 15 7.67 0.46
-1 -1 15 0.79 0.16
1 -1 -15 1.23 0.18
1 -1 -15 1.55 0.16
1 1 -15 1.19 0.17
1 1 -15 1.45 0.16
-1 -1 -15 1.38 0.19
1 -1 15 1.34 0.2
-1 -1 -15 1.38 0.15
1 1 15 1.13 0.19
-1 1 -15 1.28 0.15
-1 1 -15 1.45 0.19
1 1 15 1.09 0.14
-3 -1 -15 7.3 0.47
3 -1 15 8.46 0.48
-3 -1 -15 8.08 0.42
-3 1 -15 7.83 0.42
3 1 15 7.53 0.42
3 1 15 7.44 0.47
-3 1 -15 7.68 0.47
5 -1 15 9.18 0.54
-5 -1 -15 9.1 0.54
-5 -1 -15 9.9 0.49
5 1 15 9.22 0.54
-5 1 -15 9.89 0.49
-5 1 -15 9.19 0.55
5 1 15 8.7 0.49
7 -1 15 9.74 0.56
-7 -1 -15 9.18 0.55
-7 -1 -15 10.12 0.5
7 -1 15 9.4 0.49
-7 1 -15 9 0.56
7 1 15 9.31 0.5
7 1 15 9.86 0.57
-7 1 -15 9.72 0.5
9 -1 15 8.86 0.54
-9 -1 -15 9.32 0.47
9 -1 15 8.49 0.46
-9 -1 -15 8.03 0.52
9 1 15 8.76 0.48
-9 1 -15 8.52 0.53
-9 1 -15 9.33 0.48
9 1 15 8.33 0.54
11 -1 15 5.84 0.36
-11 -1 -15 6.77 0.37
11 -1 15 5.79 0.45
11 1 15 6.09 0.43
-11 1 -15 6.78 0.38
-11 1 -15 5.46 0.42
11 1 15 6.46 0.38
13 -1 15 5.26 0.42
-13 -1 -15 5.87 0.35
-13 1 -15 5.31 0.42
13 1 15 5.12 0.36
13 1 15 5.69 0.43
-13 1 -15 6.25 0.37
15 -1 15 6.22 0.47
-15 -1 -15 6.62 0.39
-15 1 -15 6.62 0.41
15 1 15 6.04 0.47
15 1 15 6.12 0.4
17 -1 15 4.05 0.42
-17 -1 -15 4.08 0.32
-17 1 -15 4.44 0.34
17 1 15 4.85 0.41
19 -1 15 1.22 0.27
-19 1 -15 1.19 0.2
-21 1 -15 0.1 0.13
-45 -3 15 0.43 0.15
-45 3 15 0.02 0.14
-43 -3 15 -0.02 0.15
-43 3 15 -0.13 0.14
-41 -3 15 -0.05 0.15
-41 3 15 0.09 0.16
-39 -3 15 -0.19 0.14
-39 3 15 -0.13 0.14
-37 -3 15 -0.03 0.15
-37 3 15 0.01 0.16
-35 -3 15 0.59 0.18
-35 3 15 0.63 0.18
-33 -3 15 0.49 0.17
-33 3 15 0.62 0.18
-31 -3 15 0.82 0.17
-31 3 15 1.03 0.17
-29 -3 15 3.08 0.33
-29 3 15 3.66 0.32
-27 -3 15 7.86 0.48
-27 3 15 7.82 0.48
-25 -3 15 3.85 0.32
-25 3 15 3.79 0.31
-23 -3 15 5.51 0.36
-23 3 15 5.4 0.36
-21 3 15 0.71 0.24
-19 3 15 0.22 0.18
19 3 -15 -0.03 0.12
-17 -3 15 3.17 0.32
-17 3 15 3.56 0.35
17 3 -15 3.23 0.29
-15 -3 15 7.14 0.47
-15 3 15 7.17 0.5
15 3 -15 7.01 0.44
-13 -3 15 10.21 0.55
-13 3 15 9.29 0.56
13 3 -15 8.4 0.5
-11 -3 15 3.98 0.33
-11 3 15 3.82 0.34
11 3 -15 3.73 0.28
-9 -3 15 18.47 0.86
-9 3 15 17.58 0.88
9 3 -15 16.32 0.84
-7 -3 15 17.68 0.85
7 3 -15 17.15 0.84
-7 3 15 17.45 0.86
-5 -3 15 28.45 1.28
5 3 -15 28.51 1.31
-5 3 15 28.33 1.29
-3 -3 15 33.12 1.48
3 3 -15 32.95 1.51
-3 3 15 33.85 1.49
-1 -3 15 8.22 0.49
1 -3 -15 8.24 0.4
-1 3 15 7.53 0.43
-1 3 15 8.11 0.48
1 3 -15 8.27 0.44
1 -3 15 7.94 0.48
-1 -3 -15 7.89 0.4
-1 3 -15 8.14 0.49
1 3 15 8.04 0.48
-1 3 -15 8.19 0.43
1 3 15 7.78 0.43
3 -3 15 34.5 1.47
-3 -3 -15 33.33 1.44
-3 3 -15 31.86 1.46
-3 3 -15 32.06 1.54
3 3 15 30.43 1.47
3 3 15 32.64 1.46
-5 -3 -15 28.41 1.24
5 -3 15 29.35 1.29
-5 3 -15 27.62 1.34
-5 3 -15 27.1 1.27
5 3 15 27.49 1.27
5 3 15 26.16 1.27
-7 -3 -15 17.38 0.8
7 -3 15 18 0.87
7 3 15 15.78 0.82
-7 3 -15 16.72 0.89
-7 3 -15 16.59 0.82
7 3 15 18.37 0.86
9 -3 15 17.69 0.88
-9 -3 -15 16.74 0.8
9 3 15 17 0.86
-9 3 -15 18.5 0.9
-9 3 -15 16.64 0.83
9 3 15 15.97 0.83
-11 -3 -15 3.79 0.27
11 -3 15 3.53 0.35
11 3 15 3.39 0.28
-11 3 -15 3.89 0.33
11 3 15 3.75 0.34
13 -3 15 9.08 0.59
-13 3 -15 9.78 0.58
13 3 15 9.52 0.58
13 3 15 8.75 0.52
15 -3 15 6.59 0.51
-15 3 -15 6.12 0.45
15 3 15 6.54 0.46
15 3 15 6.5 0.42
17 -3 15 3.38 0.38
17 3 15 3.02 0.29
19 -3 15 0.13 0.2
19 3 15 0.22 0.13
21 -3 15 1 0.26
-45 -5 15 0.88 0.17
-45 5 15 0.76 0.17
-43 -5 15 -0.05 0.15
-43 5 15 -0.1 0.14
-41 -5 15 0.32 0.17
-41 5 15 0.26 0.16
-39 -5 15 -0.09 0.15
-39 5 15 -0.08 0.15
-37 -5 15 -0.16 0.15
-37 5 15 0.09 0.15
-35 -5 15 0.91 0.19
-35 5 15 0.96 0.2
-33 -5 15 0.95 0.19
-33 5 15 0.9 0.18
-31 -5 15 1.64 0.22
-31 5 15 1.25 0.19
-29 -5 15 2.83 0.3
-29 5 15 2.08 0.23
-27 -5 15 9.64 0.54
-27 5 15 8.48 0.53
-25 -5 15 2.17 0.24
-25 5 15 2.23 0.23
-23 -5 15 6.63 0.41
-23 5 15 5.74 0.53
-23 5 15 6.12 0.39
-21 -5 15 0.08 0.1
-21 5 15 -0.11 0.17
21 5 -15 -0.13 0.12
-19 5 15 0.18 0.18
19 5 -15 0.07 0.12
-17 5 15 11.15 0.67
17 5 -15 10.72 0.61
-15 -5 15 14.9 0.78
15 5 -15 16.03 0.78
-15 5 15 13.88 0.81
-13 -5 15 31.28 1.4
-13 5 15 31.59 1.44
13 5 -15 30.69 1.44
-11 -5 15 15.66 0.77
-11 5 15 14.37 0.79
11 5 -15 15.04 0.76
-9 -5 15 42.64 1.83
9 5 -15 41.37 1.89
-9 5 15 41.64 1.84
-7 -5 15 22.31 1.07
7 5 -15 23.37 1.1
-7 5 15 23.63 1.1
-5 -5 15 29.88 1.34
-5 5 15 29.6 1.35
5 5 -15 29.84 1.37
-3 -5 15 28.27 1.28
-3 5 15 27.86 1.29
-3 5 15 28.62 1.29
3 5 -15 28.08 1.3
-1 -5 15 9.8 0.56
-1 5 15 10.23 0.57
1 5 -15 9.94 0.52
-1 5 15 9.59 0.51
1 -5 15 9.53 0.55
-1 5 -15 9.65 0.5
1 5 15 9.05 0.53
3 -5 15 27.95 1.28
-3 5 -15 28.5 1.35
-3 5 -15 28.37 1.27
3 5 15 26.26 1.27
3 5 15 27.72 1.27
5 -5 15 29.8 1.33
-5 5 -15 28.45 1.39
-5 5 -15 29.37 1.32
5 5 15 28.04 1.3
5 5 15 28.13 1.32
7 -5 15 23.55 1.09
-7 5 -15 22.92 1.13
7 5 15 21.32 1.05
7 5 15 21.96 1.06
9 -5 15 41.4 1.84
-9 5 -15 42.76 1.93
9 5 15 41.2 1.86
9 5 15 38.54 1.8
11 -5 15 14.29 0.8
-11 5 -15 13.64 0.79
11 5 15 15.13 0.75
11 5 15 14.89 0.77
13 -5 15 30.62 1.44
13 5 15 30.2 1.38
13 5 15 29.92 1.4
-13 5 -15 28.26 1.45
15 -5 15 12.4 0.76
15 5 15 14.06 0.72
15 5 15 13.29 0.72
-15 5 -15 12.32 0.74
17 -5 15 9.27 0.65
-17 5 -15 9.04 0.6
17 5 15 9.87 0.57
19 -5 15 0.09 0.18
-19 5 -15 0.08 0.15
19 5 15 0 0.13
21 -5 15 0.15 0.21
21 5 15 0.19 0.15
23 -5 15 4.65 0.57
23 -5 15 5.46 0.35
25 -5 15 2.41 0.26
27 -5 15 9.17 0.54
-29 5 -15 2.99 0.29
-31 5 -15 2.16 0.22
-33 5 -15 0.97 0.17
-35 5 -15 1.03 0.19
-45 -7 15 1.68 0.2
-45 7 15 1.07 0.18
-43 -7 15 0.53 0.17
-43 7 15 0.32 0.16
-41 -7 15 0.23 0.17
-41 7 15 0.16 0.16
-39 -7 15 0.01 0.15
-39 7 15 0.22 0.16
-37 -7 15 -0.06 0.15
-37 7 15 0.04 0.15
-35 -7 15 1.13 0.21
-35 7 15 0.87 0.19
-33 -7 15 0.82 0.19
-33 7 15 1 0.19
-31 -7 15 1.5 0.21
-31 7 15 1.12 0.19
-29 -7 15 6.61 0.45
-29 7 15 6 0.43
-27 7 15 16.28 0.84
-25 -7 15 9.53 0.55
-25 7 15 9.4 0.7
-25 7 15 9.34 0.53
-23 -7 15 16.88 0.85
-23 7 15 15.83 0.83
23 7 -15 18.15 0.92
-23 7 15 16.29 0.96
-21 -7 15 3.43 0.28
21 7 -15 3.71 0.34
-21 7 15 3.37 0.4
19 7 -15 1.97 0.24
-19 7 15 2.28 0.31
-17 7 15 3.76 0.37
17 7 -15 3.97 0.33
-15 -7 15 5.01 0.39
15 7 -15 5.58 0.38
-15 7 15 4.68 0.41
-13 -7 15 20.97 0.98
-13 7 15 19.76 1.01
13 7 -15 20.22 1
-11 -7 15 4.27 0.34
11 7 -15 4.08 0.32
-11 7 15 3.16 0.35
-9 -7 15 37.5 1.66
9 7 -15 39.27 1.74
-9 7 15 35.92 1.68
-7 -7 15 13.83 0.7
7 7 -15 13.61 0.7
-7 7 15 12.62 0.71
-5 -7 15 23.06 1.07
-5 7 15 22.74 1.07
-5 7 15 23.22 1.08
5 7 -15 22.36 1.08
-3 -7 15 18.73 0.9
-3 7 15 19.38 0.91
-3 7 15 17.58 0.87
3 7 -15 18.03 0.88
-1 -7 15 9.98 0.57
1 7 -15 10.53 0.54
-1 7 15 10.52 0.58
-1 7 15 9.97 0.54
1 -7 15 9.39 0.57
1 7 15 9.84 0.52
1 7 15 10.07 0.57
-1 7 -15 10.47 0.53
3 -7 15 17.85 0.88
3 7 15 18.02 0.86
3 7 15 16.82 0.84
-3 7 -15 17.04 0.84
-3 7 -15 17.8 0.91
5 -7 15 23.38 1.1
-5 7 -15 22.81 1.14
5 7 15 22.25 1.07
5 7 15 22.55 1.08
7 -7 15 12.58 0.7
-7 7 -15 12.73 0.7
7 7 15 12.58 0.65
7 7 15 12.07 0.67
9 -7 15 35.87 1.65
9 7 15 35.93 1.66
-9 7 -15 36.9 1.73
9 7 15 35.48 1.61
11 -7 15 3.27 0.37
-11 7 -15 3.22 0.33
11 7 15 3.65 0.3
11 7 15 3.66 0.33
13 -7 15 20.36 1.03
13 7 15 19.3 0.94
-13 7 -15 18.56 1
13 7 15 18.48 0.96
15 -7 15 3.43 0.41
-15 7 -15 4.56 0.38
15 7 15 5.03 0.37
17 -7 15 3.42 0.41
17 7 15 3.78 0.34
-17 7 -15 3.7 0.35
19 -7 15 1.69 0.32
19 7 15 2.34 0.28
-19 7 -15 1.87 0.27
21 -7 15 3.03 0.4
21 7 15 3.28 0.35
23 -7 15 14.84 0.76
23 -7 15 15.52 0.92
23 7 15 15.3 0.86
25 -7 15 9.26 0.53
27 -7 15 16.49 0.84
-29 7 -15 6.69 0.42
-31 7 -15 1.44 0.18
-33 7 -15 1.4 0.19
-35 7 -15 1.2 0.19
-37 7 -15 -0.09 0.13
-39 7 -15 0.11 0.14
-45 -9 15 1.82 0.21
-43 -9 15 0.39 0.16
-43 9 15 0.44 0.16
-41 -9 15 0.51 0.17
-41 9 15 0.58 0.17
-39 -9 15 -0.1 0.16
-39 9 15 0.06 0.15
-37 -9 15 -0.09 0.15
-37 9 15 -0.1 0.14
-35 -9 15 0.9 0.2
-35 9 15 0.69 0.18
-33 -9 15 1.19 0.21
-33 9 15 1.12 0.2
-31 -9 15 1.16 0.2
-31 9 15 0.97 0.18
-29 -9 15 5.65 0.42
-29 9 15 5.46 0.41
-27 -9 15 15.41 0.78
-27 9 15 13.91 0.76
-25 -9 15 6.68 0.45
25 9 -15 7.7 0.54
-25 9 15 6.91 0.43
-25 9 15 5.89 0.59
-23 -9 15 12.37 0.66
23 9 -15 12.64 0.73
-23 9 15 12.12 0.8
-23 9 15 12.3 0.65
-21 -9 15 0.87 0.15
-21 9 15 0.88 0.25
21 9 -15 1.05 0.21
-19 9 15 0.17 0.17
19 9 -15 0.44 0.16
17 9 -15 7.85 0.49
-17 9 15 7.17 0.53
15 9 -15 4.27 0.33
-15 9 15 3.05 0.35
-13 -9 15 31.27 1.37
13 9 -15 28.92 1.42
-13 9 15 29.66 1.4
-11 -9 15 12.09 0.67
11 9 -15 12.8 0.68
-11 9 15 11.89 0.69
-9 -9 15 84.39 3.47
-9 9 15 83.01 3.49
9 9 -15 82.56 3.67
-7 -9 15 37.23 1.62
7 9 -15 36.44 1.68
-7 9 15 35.83 1.66
-7 9 15 37.05 1.64
-5 -9 15 43.62 1.85
-5 9 15 39.94 1.89
5 9 -15 41.14 1.91
-5 9 15 45.04 1.87
-3 -9 15 18.09 0.87
-3 9 15 18.39 0.87
-3 9 15 17.08 0.83
3 9 -15 15.92 0.83
-1 -9 15 8.82 0.53
1 9 -15 8.67 0.48
-1 9 15 9.3 0.54
-1 9 15 8.89 0.48
1 -9 15 8.65 0.53
-1 9 -15 9.19 0.48
1 9 15 8.16 0.48
1 9 15 9.44 0.53
3 -9 15 17.45 0.88
3 9 15 17.92 0.86
3 9 15 16.76 0.84
5 -9 15 42.31 1.83
-5 9 -15 39.98 1.92
5 9 15 41.61 1.85
5 9 15 39.36 1.78
7 -9 15 36.74 1.64
7 9 15 36.4 1.6
-7 9 -15 34.62 1.71
7 9 15 35.76 1.64
9 -9 15 79.5 3.36
9 9 15 78.6 3.31
-9 9 -15 77.87 3.57
9 9 15 80.14 3.48
11 -9 15 11.58 0.7
11 9 15 11.88 0.63
11 9 15 11.4 0.63
-11 9 -15 9.87 0.65
13 -9 15 28.31 1.36
13 9 15 27.4 1.32
-13 9 -15 26.78 1.36
15 -9 15 2.93 0.39
-15 9 -15 3.46 0.34
15 9 15 4.03 0.33
17 -9 15 6.79 0.57
17 9 15 7.14 0.49
-17 9 -15 7.32 0.51
19 -9 15 0.65 0.24
-19 9 -15 0.62 0.18
19 9 15 0.16 0.14
21 -9 15 0.65 0.14
21 -9 15 0.55 0.24
21 9 15 0.78 0.21
-21 9 -15 0.59 0.2
23 -9 15 10.49 0.58
23 -9 15 11.24 0.78
23 9 15 10.52 0.68
25 -9 15 5.83 0.4
25 9 15 6.29 0.52
27 -9 15 13.63 0.72
29 -9 15 5.16 0.39
-31 9 -15 0.74 0.15
-33 9 -15 1.51 0.2
-35 9 -15 0.68 0.17
-37 9 -15 -0.2 0.13
-39 9 -15 -0.13 0.13
-41 9 -15 0.51 0.16
-43 -11 15 0.47 0.18
-43 11 15 0.57 0.16
-41 -11 15 0.62 0.18
-41 11 15 0.55 0.17
-39 -11 15 0.01 0.16
-39 11 15 0 0.15
-37 -11 15 -0.1 0.15
-37 11 15 -0.11 0.14
-35 -11 15 1.05 0.21
-35 11 15 0.6 0.18
-33 -11 15 1.05 0.2
-33 11 15 1.43 0.2
-31 -11 15 0.89 0.19
-31 11 15 0.91 0.17
-29 -11 15 5.75 0.42
-29 11 15 5.09 0.39
-27 -11 15 16.88 0.88
27 11 -15 17.98 0.98
-27 11 15 16.3 1.02
-27 11 15 16.09 0.85
-25 -11 15 9.76 0.58
-25 11 15 9.92 0.56
-25 11 15 9.15 0.73
25 11 -15 11.03 0.68
-23 -11 15 20 1.01
23 11 -15 21.9 1.1
-23 11 15 19.92 0.99
-23 11 15 20.41 1.13
-21 -11 15 6.12 0.41
-21 11 15 5.67 0.52
21 11 -15 6.74 0.49
-19 -11 15 5.44 0.37
19 11 -15 5.39 0.43
-19 11 15 5.42 0.47
-17 11 15 1.72 0.28
17 11 -15 1.68 0.24
15 11 -15 0.14 0.13
-15 11 15 0.08 0.16
-13 11 15 2.4 0.32
13 11 -15 3.07 0.3
-11 -11 15 3.23 0.32
-11 11 15 3.31 0.35
11 11 -15 3.24 0.32
-9 -11 15 12.83 0.68
9 11 -15 12.47 0.68
-9 11 15 11.36 0.68
-7 -11 15 3.41 0.33
-7 11 15 3.83 0.35
7 11 -15 3.98 0.31
-7 11 15 3.45 0.27
-5 -11 15 15 0.78
-5 11 15 15.8 0.8
-5 11 15 15.08 0.75
5 11 -15 14.77 0.76
-3 -11 15 4.11 0.33
-3 11 15 4.01 0.34
-3 11 15 3.7 0.27
3 11 -15 3.61 0.27
-1 -11 15 6.45 0.44
-1 11 15 5.8 0.37
1 11 -15 6.96 0.38
-1 11 15 6.55 0.44
1 -11 15 5.55 0.43
1 11 15 6.79 0.44
1 11 15 6.34 0.38
3 -11 15 3.87 0.35
3 11 15 3.28 0.27
3 11 15 4.11 0.33
5 -11 15 14.28 0.79
5 11 15 13.68 0.73
5 11 15 15.45 0.77
-5 11 -15 15.33 0.81
7 -11 15 3.05 0.35
-7 11 -15 2.9 0.31
7 11 15 3.55 0.31
7 11 15 3.21 0.28
9 -11 15 11.56 0.71
9 11 15 12.58 0.64
-9 11 -15 10.9 0.68
9 11 15 11.24 0.64
11 -11 15 2.59 0.35
-11 11 -15 3.38 0.33
11 11 15 3.51 0.3
13 -11 15 2.82 0.36
13 11 15 2.19 0.25
-13 11 -15 2.16 0.27
15 -11 15 0.03 0.19
-15 11 -15 -0.05 0.12
15 11 15 -0.05 0.12
17 -11 15 2.23 0.36
-17 11 -15 1.61 0.26
17 11 15 2.08 0.27
19 -11 15 4.79 0.48
19 11 15 4.89 0.41
-19 11 -15 4.15 0.42
21 -11 15 4.74 0.35
21 -11 15 6.04 0.57
-21 11 -15 4.73 0.47
21 11 15 5.29 0.45
23 -11 15 16.58 0.84
23 -11 15 16.37 1.02
-23 11 -15 16.11 0.98
23 11 15 17.87 0.97
25 -11 15 8.1 0.49
25 11 15 8.1 0.6
27 -11 15 13.96 0.76
27 11 15 14.46 0.95
29 -11 15 4.72 0.38
-31 11 -15 0.84 0.16
-33 11 -15 1.34 0.19
-35 11 -15 0.85 0.17
-37 11 -15 -0.15 0.14
-39 11 -15 -0.04 0.14
-41 11 -15 0.72 0.16
-43 11 -15 0.45 0.14
-43 -13 15 0.06 0.16
-43 13 15 0.3 0.14
-41 -13 15 0.46 0.18
-41 13 15 0.45 0.15
-39 -13 15 0.22 0.18
-39 13 15 -0.16 0.14
-37 -13 15 -0.14 0.15
-37 13 15 -0.09 0.14
-35 -13 15 0.38 0.18
-35 13 15 0.55 0.17
-33 -13 15 0.46 0.18
-33 13 15 0.45 0.16
-31 -13 15 0.2 0.17
-31 13 15 0.34 0.15
-29 -13 15 1.36 0.21
-29 13 15 1.65 0.2
-27 -13 15 11.61 0.67
-27 13 15 11.46 0.84
-27 13 15 11.44 0.64
27 13 -15 12.31 0.78
-25 -13 15 3.48 0.34
25 13 -15 3.84 0.41
-25 13 15 3.67 0.49
-23 -13 15 8.08 0.52
-23 13 15 8.06 0.67
23 13 -15 9.52 0.61
-21 -13 15 0.27 0.13
-21 13 15 0.33 0.22
21 13 -15 0.04 0.16
-19 -13 15 0.04 0.11
-19 13 15 0.16 0.21
19 13 -15 -0.02 0.14
-17 -13 15 9.65 0.53
17 13 -15 10.37 0.6
-17 13 15 8.59 0.61
15 13 -15 1.41 0.22
-15 13 15 1.81 0.28
13 13 -15 9.94 0.61
-13 13 15 11.26 0.65
-11 13 15 2.42 0.31
11 13 -15 3.15 0.31
-9 -13 15 30.28 1.29
-9 13 15 27.95 1.3
-9 13 15 25.81 1.28
9 13 -15 26.66 1.32
-7 -13 15 19.9 0.95
-7 13 15 18.24 0.91
-7 13 15 20.05 0.96
7 13 -15 17.7 0.93
-5 -13 15 28.05 1.36
-5 13 15 32.65 1.4
5 13 -15 29.02 1.38
-5 13 15 29.83 1.37
-3 -13 15 9.73 0.57
-3 13 15 10.92 0.61
-3 13 15 9.62 0.52
3 13 -15 8.8 0.52
-1 -13 15 5.86 0.45
-1 13 15 5.86 0.36
-1 13 15 5.98 0.45
1 -13 15 5.71 0.45
1 13 15 6.18 0.37
1 13 15 5.76 0.42
3 -13 15 10.03 0.61
3 13 15 10.99 0.6
3 13 15 8.81 0.52
5 -13 15 30.19 1.43
-5 13 -15 30.47 1.49
5 13 15 30.96 1.39
5 13 15 29.75 1.4
7 -13 15 19.63 1.01
-7 13 -15 18.97 1.01
7 13 15 19.53 0.94
7 13 15 18.95 0.94
9 -13 15 27.14 1.35
9 13 15 28.33 1.31
-9 13 -15 27.46 1.38
11 -13 15 2.38 0.35
11 13 15 2.79 0.27
-11 13 -15 2.62 0.3
13 -13 15 10.82 0.71
13 13 15 10.2 0.6
-13 13 -15 10.38 0.65
15 -13 15 1.7 0.31
15 13 15 1.49 0.23
-15 13 -15 1.94 0.27
17 -13 15 8.8 0.65
-17 13 -15 7.79 0.57
17 13 15 8.77 0.55
19 -13 15 0.23 0.23
19 -13 15 0.16 0.12
-19 13 -15 0.03 0.15
19 13 15 -0.01 0.14
21 -13 15 0.29 0.25
21 -13 15 0.68 0.15
-21 13 -15 -0.12 0.16
21 13 15 0.02 0.16
23 -13 15 6.69 0.44
-23 13 -15 6.18 0.55
23 13 15 7.25 0.54
25 -13 15 3.08 0.3
25 13 15 2.82 0.37
-25 13 -15 2.56 0.37
27 -13 15 10.24 0.6
27 13 15 10.65 0.73
29 -13 15 1.47 0.22
31 -13 15 0.24 0.16
-33 13 -15 0.57 0.15
-35 13 -15 0.36 0.15
-37 13 -15 -0.32 0.13
-39 13 -15 0.01 0.14
-41 13 -15 0.18 0.15
-43 13 -15 0.03 0.12
-43 -15 15 -0.18 0.14
-41 -15 15 0.26 0.18
-41 15 15 0.27 0.14
-39 -15 15 0.32 0.2
-39 15 15 0.28 0.15
-37 -15 15 -0.04 0.17
-37 15 15 0.03 0.14
-35 -15 15 0.9 0.2
-35 15 15 0.82 0.18
-33 -15 15 0.09 0.16
-33 15 15 -0.03 0.14
-31 -15 15 0.64 0.19
-31 15 15 0.64 0.17
-29 -15 15 0.73 0.18
29 15 -15 0.33 0.23
-29 15 15 0.71 0.15
-27 -15 15 10.89 0.64
27 15 -15 11.61 0.76
-25 -15 15 1.69 0.23
-25 15 15 2.08 0.41
25 15 -15 1.97 0.31
-23 -15 15 5.68 0.43
-23 15 15 7.98 0.64
23 15 -15 7.23 0.54
-21 -15 15 0.42 0.15
21 15 -15 0.26 0.18
-21 15 15 0.53 0.24
-19 -15 15 0.17 0.13
-19 15 15 0.15 0.21
19 15 -15 0.14 0.16
-17 -15 15 4.98 0.36
17 15 -15 4.47 0.4
-17 15 15 4.68 0.47
-15 -15 15 0.87 0.17
-15 15 15 0.61 0.22
15 15 -15 0.54 0.17
-13 15 15 1.75 0.28
13 15 -15 1.84 0.25
-11 15 15 0.19 0.16
11 15 -15 0.23 0.13
9 15 -15 3.72 0.32
-9 15 15 3.99 0.29
-9 15 15 4.2 0.37
-7 -15 15 5.12 0.39
7 15 -15 5.3 0.36
-7 15 15 4.48 0.39
-7 15 15 4.7 0.33
-5 -15 15 13.98 0.76
-5 15 15 14.1 0.71
-5 15 15 13.9 0.77
5 15 -15 14.55 0.73
-3 -15 15 6.82 0.47
-3 15 15 7 0.5
3 15 -15 6.8 0.41
-3 15 15 6.93 0.41
-1 -15 15 6.22 0.48
-1 15 15 6.84 0.48
-1 15 15 7.01 0.4
1 -15 15 6 0.47
1 15 15 6.76 0.48
1 15 15 6.88 0.4
3 -15 15 6.93 0.53
3 15 15 7.28 0.42
3 15 15 7.08 0.49
5 -15 15 13.61 0.79
-5 15 -15 13.55 0.79
5 15 15 14.64 0.76
5 15 15 14.43 0.72
7 -15 15 4.69 0.43
7 15 15 5.16 0.42
7 15 15 4.65 0.33
-7 15 -15 5.05 0.4
9 -15 15 3.39 0.39
-9 15 -15 3.84 0.35
9 15 15 3.5 0.29
11 -15 15 0.3 0.19
-11 15 -15 0.04 0.13
11 15 15 0.15 0.11
13 -15 15 1.64 0.3
13 15 15 1.19 0.2
-13 15 -15 1.5 0.24
15 -15 15 0.7 0.25
-15 15 -15 0.45 0.17
15 15 15 0.86 0.19
17 -15 15 4.16 0.5
17 -15 15 4.15 0.33
-17 15 -15 4.59 0.43
17 15 15 4.39 0.38
19 -15 15 0.09 0.13
19 -15 15 0.13 0.22
19 15 15 0.13 0.16
-19 15 -15 0.07 0.16
21 -15 15 0.32 0.25
21 -15 15 0.54 0.15
-21 15 -15 0.2 0.19
21 15 15 0.39 0.19
23 -15 15 4.69 0.38
23 -15 15 5.97 0.52
23 15 15 5.5 0.48
-23 15 -15 5.27 0.51
25 -15 15 1.37 0.2
-25 15 -15 1.65 0.32
25 15 15 1.73 0.3
27 -15 15 8.24 0.53
27 15 15 9.21 0.66
29 -15 15 0.45 0.17
29 15 15 0.79 0.26
31 -15 15 0.74 0.19
-33 15 -15 0.06 0.12
-35 15 -15 0.94 0.18
-37 15 -15 0.07 0.14
-39 15 -15 -0.15 0.14
-41 15 -15 0.14 0.14
-41 -17 15 -0.22 0.15
-39 -17 15 0.3 0.19
-39 17 15 0.14 0.14
-37 -17 15 0 0.19
-37 17 15 0 0.14
-35 -17 15 0.18 0.18
-35 17 15 0.19 0.16
-33 -17 15 0.16 0.17
-31 -17 15 0.08 0.16
-29 -17 15 -0.03 0.15
29 17 -15 0.13 0.21
-27 -17 15 3.85 0.38
27 17 -15 3.57 0.43
-25 -17 15 -0.13 0.13
-25 17 15 -0.03 0.24
25 17 -15 -0.23 0.17
-23 -17 15 1.08 0.19
23 17 -15 1.01 0.24
-23 17 15 1.36 0.32
-21 -17 15 0.25 0.15
-21 17 15 0.36 0.22
21 17 -15 0.38 0.19
-19 -17 15 0.03 0.13
19 17 -15 0.22 0.17
-19 17 15 0.08 0.21
-17 -17 15 9.16 0.55
-17 17 15 8.72 0.64
17 17 -15 9.84 0.61
-15 -17 15 4.66 0.34
15 17 -15 5.09 0.41
-15 17 15 4.52 0.44
-13 -17 15 9.6 0.53
13 17 -15 8.23 0.57
-13 17 15 9.64 0.61
11 17 -15 2.29 0.27
-11 17 15 1.67 0.21
-11 17 15 1.99 0.29
-9 17 15 7.47 0.51
9 17 -15 7.05 0.47
-9 17 15 7.14 0.43
-7 -17 15 4.1 0.36
-7 17 15 3.57 0.36
-7 17 15 3.58 0.28
7 17 -15 3.56 0.31
-5 -17 15 10.49 0.62
-5 17 15 9.54 0.53
5 17 -15 10.02 0.55
-5 17 15 9.56 0.6
-3 -17 15 3.52 0.37
3 17 -15 3.54 0.28
-3 17 15 3.23 0.26
-3 17 15 3.77 0.38
-1 -17 15 4.77 0.43
-1 17 15 4.94 0.41
-1 17 15 4.52 0.31
1 -17 15 4.23 0.41
1 17 15 4.41 0.39
1 17 15 4.73 0.32
3 -17 15 2.73 0.35
3 17 15 3.47 0.27
3 17 15 3.72 0.36
5 -17 15 9.47 0.64
-5 17 -15 9.64 0.62
5 17 15 10.82 0.56
5 17 15 10.47 0.61
7 -17 15 3.23 0.39
-7 17 -15 3.9 0.36
7 17 15 4.04 0.3
9 -17 15 7.2 0.55
-9 17 -15 7.06 0.51
9 17 15 7.32 0.45
11 -17 15 2.26 0.35
-11 17 -15 2.06 0.28
11 17 15 1.73 0.22
13 -17 15 9.13 0.65
13 -17 15 8.02 0.5
-13 17 -15 9.06 0.6
13 17 15 8.29 0.53
15 -17 15 4.12 0.31
15 -17 15 4.16 0.49
15 17 15 4.03 0.36
-15 17 -15 4.15 0.4
17 -17 15 8.57 0.67
17 -17 15 8.14 0.5
-17 17 -15 7.71 0.59
17 17 15 8.25 0.56
19 -17 15 0.13 0.24
19 -17 15 0.29 0.15
-19 17 -15 0 0.17
19 17 15 0.14 0.16
21 -17 15 0.31 0.18
21 -17 15 0.26 0.15
-21 17 -15 0.23 0.18
21 17 15 0.59 0.21
23 -17 15 0.94 0.19
-23 17 -15 1.69 0.31
23 17 15 0.79 0.23
25 -17 15 -0.01 0.14
25 17 15 0.06 0.18
-25 17 -15 0 0.2
27 -17 15 2.28 0.26
27 17 15 2.76 0.38
29 -17 15 0.02 0.16
29 17 15 -0.02 0.21
31 -17 15 0.16 0.17
-33 17 -15 0.19 0.13
-35 17 -15 0.34 0.15
-37 17 -15 0.05 0.14
-39 17 -15 0.1 0.14
-41 17 -15 -0.27 0.12
-41 -19 15 -0.38 0.13
-39 -19 15 0.01 0.16
-37 -19 15 -0.13 0.16
-35 -19 15 0.19 0.19
-33 -19 15 0.04 0.18
-31 -19 15 0.01 0.17
-29 -19 15 -0.02 0.16
29 19 -15 0.4 0.22
-27 -19 15 0.89 0.2
27 19 -15 0.99 0.27
-25 -19 15 -0.04 0.14
25 19 -15 0.08 0.19
-23 -19 15 0.27 0.15
23 19 -15 0.51 0.22
-23 19 15 0.49 0.29
-21 -19 15 -0.09 0.13
-21 19 15 -0.02 0.24
21 19 -15 -0.14 0.16
-19 -19 15 -0.14 0.13
19 19 -15 -0.01 0.15
-19 19 15 -0.17 0.19
-17 -19 15 0.13 0.14
17 19 -15 0.18 0.17
-17 19 15 0.41 0.22
-15 -19 15 -0.02 0.12
15 19 -15 0.05 0.14
-15 19 15 0.12 0.21
-13 -19 15 0.11 0.13
-13 19 15 0.23 0.19
13 19 -15 -0.12 0.12
-11 -19 15 5.53 0.38
11 19 -15 5.12 0.4
-11 19 15 4.72 0.35
-11 19 15 5.48 0.46
-9 19 15 0.58 0.14
-9 19 15 0.63 0.21
9 19 -15 0.57 0.16
-7 19 15 2.31 0.32
-7 19 15 1.69 0.2
7 19 -15 2.15 0.24
-5 -19 15 0.1 0.16
5 19 -15 0.26 0.12
-5 19 15 0.09 0.1
-5 19 15 0.45 0.21
-3 -19 15 -0.04 0.16
-3 19 15 0.11 0.19
-1 -19 15 1.31 0.26
-1 19 15 1.4 0.25
1 -19 15 0.88 0.26
1 19 15 1.39 0.17
1 19 15 1.39 0.26
3 -19 15 -0.23 0.15
3 19 15 0.06 0.17
3 19 15 0.21 0.1
5 -19 15 0.22 0.21
5 19 15 0.07 0.09
-5 19 -15 0.04 0.13
7 -19 15 2.01 0.33
7 19 15 2.26 0.23
-7 19 -15 1.67 0.25
9 -19 15 0.64 0.23
-9 19 -15 0.55 0.18
9 19 15 0.47 0.14
11 -19 15 4.52 0.34
11 -19 15 4.9 0.48
11 19 15 4.81 0.36
-11 19 -15 5.09 0.43
13 -19 15 0.18 0.09
13 -19 15 0.16 0.2
13 -19 15 0.12 0.12
13 19 15 -0.04 0.11
-13 19 -15 0.11 0.15
15 -19 15 0.18 0.11
15 -19 15 0.38 0.14
15 -19 15 0.25 0.24
15 19 15 0.12 0.13
-15 19 -15 0.3 0.17
17 -19 15 0.35 0.16
17 -19 15 0.14 0.23
17 -19 15 0.32 0.12
-17 19 -15 0.21 0.17
17 19 15 0.32 0.16
19 -19 15 0.01 0.14
19 -19 15 -0.02 0.11
19 19 15 0.05 0.16
-19 19 -15 -0.09 0.16
21 -19 15 -0.15 0.13
21 -19 15 0.06 0.13
-21 19 -15 0.05 0.18
21 19 15 -0.06 0.15
23 -19 15 0.31 0.16
23 19 15 0.53 0.21
-23 19 -15 0.34 0.23
25 -19 15 -0.28 0.14
25 19 15 0.03 0.18
-25 19 -15 -0.11 0.21
27 -19 15 0.54 0.18
27 19 15 0.28 0.23
29 -19 15 0.01 0.16
29 19 15 0.12 0.22
31 -19 15 0.15 0.17
-33 19 -15 0.18 0.13
-35 19 -15 0.01 0.14
-37 19 -15 -0.12 0.13
-39 19 -15 0.24 0.14
-41 19 -15 -0.02 0.12
-39 -21 15 -0.02 0.15
-37 -21 15 -0.09 0.17
-35 -21 15 -0.06 0.17
-33 -21 15 0.21 0.19
-31 -21 15 0.25 0.18
-29 -21 15 1.37 0.23
-27 -21 15 0.07 0.16
27 21 -15 0.02 0.19
-25 -21 15 1.04 0.2
25 21 -15 1.1 0.26
-23 -21 15 -0.05 0.14
23 21 -15 -0.17 0.16
-21 -21 15 0.52 0.16
21 21 -15 0.66 0.22
-21 21 15 0.38 0.28
-19 -21 15 -0.04 0.13
19 21 -15 -0.15 0.15
-19 21 15 0.17 0.22
-17 -21 15 0.14 0.12
-17 21 15 0.59 0.26
17 21 -15 0.23 0.16
-15 -21 15 0.54 0.16
-15 21 15 0.4 0.22
15 21 -15 0.34 0.17
-13 -21 15 0.15 0.12
13 21 -15 0.17 0.15
-13 21 15 0.06 0.19
-11 -21 15 6.17 0.41
-11 21 15 6.43 0.41
-11 21 15 5.6 0.5
11 21 -15 5.96 0.45
-9 -21 15 0.87 0.16
-9 21 15 0.87 0.16
9 21 -15 0.77 0.18
-9 21 15 0.31 0.21
-7 -21 15 3.82 0.33
7 21 -15 3.71 0.32
-7 21 15 3.25 0.39
-5 -21 15 0.09 0.13
-5 21 15 0.18 0.21
-3 -21 15 0.93 0.24
-3 -21 15 1.05 0.19
-3 21 15 0.91 0.26
-1 -21 15 0.01 0.18
-1 21 15 0.22 0.21
1 -21 15 -0.06 0.19
1 21 15 0.22 0.2
3 -21 15 0.93 0.26
3 -21 15 0.84 0.17
5 -21 15 -0.11 0.12
5 -21 15 0.11 0.22
-5 21 -15 0.07 0.14
5 21 15 0.16 0.1
7 -21 15 2.94 0.41
7 -21 15 3.64 0.33
7 21 15 3.68 0.3
-7 21 -15 3.42 0.36
9 -21 15 0.7 0.25
9 -21 15 0.77 0.16
-9 21 -15 0.62 0.19
9 21 15 0.94 0.17
11 -21 15 5.4 0.41
11 -21 15 5.64 0.52
-11 21 -15 5.82 0.48
11 21 15 6.13 0.42
13 -21 15 0.24 0.22
13 -21 15 0.45 0.15
13 21 15 0.18 0.14
-13 21 -15 0.28 0.19
15 -21 15 0.51 0.14
15 -21 15 0.4 0.25
-15 21 -15 0.17 0.18
15 21 15 0.55 0.18
17 -21 15 0.54 0.16
17 21 15 0.37 0.17
-17 21 -15 0.29 0.19
19 -21 15 -0.03 0.12
-19 21 -15 -0.09 0.17
19 21 15 -0.16 0.13
21 -21 15 0.66 0.18
-21 21 -15 0.7 0.26
21 21 15 0.76 0.24
23 -21 15 -0.06 0.15
-23 21 -15 0.1 0.21
23 21 15 -0.02 0.18
25 -21 15 0.85 0.2
25 21 15 0.9 0.26
27 -21 15 0.14 0.16
27 21 15 0.19 0.21
29 -21 15 1.25 0.23
31 -21 15 0.39 0.19
33 -21 15 0.72 0.2
-33 21 -15 0.56 0.16
-35 21 -15 0.02 0.13
-37 21 -15 -0.07 0.12
-39 21 -15 0.07 0.13
-39 -23 15 0.06 0.14
-37 -23 15 0.12 0.17
-35 -23 15 -0.11 0.16
-33 -23 15 0.94 0.21
-31 -23 15 0.54 0.2
-29 -23 15 2.02 0.26
-27 -23 15 0.48 0.19
-25 -23 15 1.05 0.21
25 23 -15 1.33 0.27
-23 -23 15 0.37 0.17
23 23 -15 0.24 0.2
-21 -23 15 0.06 0.14
21 23 -15 -0.19 0.16
-19 -23 15 0.33 0.15
-19 23 15 0.24 0.25
19 23 -15 0.8 0.21
-17 -23 15 1.1 0.19
-17 23 15 1.8 0.34
17 23 -15 1.49 0.26
-15 -23 15 6.09 0.44
15 23 -15 6.33 0.48
-15 23 15 6.55 0.58
-13 -23 15 8.5 0.52
-13 23 15 8.2 0.62
13 23 -15 7.74 0.56
-11 -23 15 20.65 1.01
-11 23 15 17.98 1.05
11 23 -15 19.98 1.03
-9 -23 15 13.08 0.68
9 23 -15 10.89 0.68
-9 23 15 12.31 0.77
-7 -23 15 17.23 0.88
-7 23 15 16.36 0.96
-5 -23 15 6.38 0.44
-5 23 15 5.92 0.52
-3 -23 15 5.79 0.4
-3 23 15 5.53 0.51
-1 -23 15 -0.15 0.17
-1 -23 15 -0.09 0.11
-1 23 15 -0.02 0.19
1 -23 15 -0.05 0.19
1 -23 15 -0.13 0.11
3 -23 15 5.23 0.4
3 -23 15 5 0.52
5 -23 15 5.74 0.52
5 -23 15 5.93 0.42
-5 23 -15 6.24 0.5
7 -23 15 13.94 0.91
7 -23 15 15.27 0.81
7 23 15 15.53 0.82
-7 23 -15 16.41 0.91
9 -23 15 11.22 0.76
9 -23 15 11.62 0.65
9 23 15 11.32 0.65
-9 23 -15 11.27 0.74
11 -23 15 17.79 0.94
11 -23 15 15.5 1.02
11 23 15 19.68 0.96
-11 23 -15 18.62 1.04
13 -23 15 7.69 0.5
13 -23 15 7.2 0.63
-13 23 -15 7.84 0.6
13 23 15 7.26 0.51
15 -23 15 5.69 0.43
-15 23 -15 5.56 0.51
15 23 15 6.13 0.46
17 -23 15 1.12 0.2
-17 23 -15 1.4 0.29
17 23 15 1.47 0.26
19 -23 15 0.6 0.18
-19 23 -15 0.36 0.23
19 23 15 0.26 0.18
21 -23 15 -0.01 0.17
-21 23 -15 -0.16 0.2
21 23 15 0.08 0.17
23 -23 15 0.01 0.16
23 23 15 0.14 0.19
25 -23 15 1.08 0.22
25 23 15 1.53 0.3
27 -23 15 0.44 0.19
29 -23 15 1.89 0.26
31 -23 15 0.6 0.2
-33 23 -15 0.91 0.18
-35 23 -15 -0.03 0.13
-37 23 -15 0.34 0.13
-39 23 -15 0.12 0.12
-37 -25 15 0.14 0.15
-35 -25 15 0.27 0.17
-33 -25 15 1.39 0.24
-31 -25 15 1.23 0.23
-29 -25 15 3.92 0.43
-27 -25 15 1.85 0.26
-25 -25 15 2.33 0.27
-23 -25 15 1.06 0.21
23 25 -15 1.1 0.27
-21 -25 15 0.92 0.19
21 25 -15 1.19 0.26
-19 -25 15 0.13 0.15
19 25 -15 -0.04 0.15
-17 -25 15 0.17 0.14
17 25 -15 -0.1 0.15
-17 25 15 -0.08 0.26
-15 -25 15 1.39 0.21
15 25 -15 1.97 0.28
-15 25 15 2.09 0.36
-13 -25 15 3.78 0.35
13 25 -15 3.46 0.38
-13 25 15 3.84 0.48
-11 -25 15 10.13 0.59
11 25 -15 9.27 0.62
-11 25 15 9.86 0.72
-9 -25 15 7.38 0.49
-9 25 15 6.8 0.61
-7 -25 15 9.66 0.58
-7 25 15 9.78 0.71
-5 -25 15 2.07 0.24
-5 25 15 1.73 0.33
-3 -25 15 4.03 0.36
-3 25 15 3.7 0.44
-1 -25 15 0.08 0.14
1 -25 15 -0.02 0.12
1 -25 15 -0.3 0.17
3 -25 15 3.28 0.41
3 -25 15 3.48 0.32
5 -25 15 1.87 0.24
5 -25 15 2.27 0.37
-5 25 -15 2.37 0.32
7 -25 15 9.97 0.59
7 -25 15 9.29 0.69
-7 25 -15 8.8 0.64
9 -25 15 6.72 0.58
9 -25 15 6.05 0.43
-9 25 -15 6.27 0.53
9 25 15 5.96 0.44
11 -25 15 10.05 0.6
11 25 15 9.48 0.6
-11 25 -15 9.37 0.68
13 -25 15 3.6 0.35
13 25 15 3.23 0.35
-13 25 -15 3.32 0.41
15 -25 15 1.48 0.23
-15 25 -15 2.07 0.33
15 25 15 2.31 0.3
17 -25 15 0.18 0.16
17 25 15 -0.15 0.13
-17 25 -15 0.01 0.18
19 -25 15 0.27 0.17
19 25 15 -0.15 0.15
21 -25 15 1.07 0.22
21 25 15 0.83 0.25
23 -25 15 1.06 0.21
23 25 15 0.91 0.27
25 -25 15 2.48 0.29
27 -25 15 1.38 0.23
29 -25 15 2.28 0.28
31 -25 15 1.15 0.22
-33 25 -15 1.2 0.19
-35 25 -15 0.1 0.13
-37 25 -15 0.25 0.13
-35 -27 15 0.1 0.15
-33 -27 15 0.79 0.19
-31 -27 15 0.85 0.21
-29 -27 15 1.99 0.27
-27 -27 15 1.41 0.25
-25 -27 15 1.87 0.26
-23 -27 15 0.49 0.19
-21 -27 15 0.08 0.16
21 27 -15 0.04 0.17
-19 -27 15 0.68 0.19
19 27 -15 0.69 0.2
-17 -27 15 3.4 0.36
17 27 -15 2.9 0.35
-15 -27 15 10.26 0.6
15 27 -15 9.33 0.64
-13 -27 15 11.63 0.66
13 27 -15 10.22 0.69
-13 27 15 11.22 0.81
-11 -27 15 16.06 0.86
-11 27 15 16 0.97
-9 -27 15 15.76 0.84
-9 27 15 15.18 0.95
-7 -27 15 17.53 0.91
-7 27 15 16.55 1.01
-5 -27 15 8.8 0.56
-5 27 15 9.05 0.68
-3 -27 15 8.48 0.54
-1 -27 15 0.14 0.14
1 -27 15 0.17 0.15
3 -27 15 8.14 0.54
5 -27 15 8.36 0.55
-5 27 -15 7.7 0.6
7 -27 15 16.55 0.88
-7 27 -15 15.62 0.95
9 -27 15 14.7 0.82
-9 27 -15 14.79 0.91
11 -27 15 15.3 0.83
-11 27 -15 13.76 0.91
11 27 15 15.11 0.83
13 -27 15 10.76 0.65
13 27 15 10.37 0.67
-13 27 -15 10.67 0.74
15 -27 15 9.86 0.6
15 27 15 8.93 0.62
-15 27 -15 8.68 0.68
17 -27 15 2.7 0.29
17 27 15 2.84 0.36
19 -27 15 0.73 0.2
19 27 15 0.88 0.24
21 -27 15 0.16 0.18
21 27 15 -0.28 0.17
23 -27 15 0.62 0.21
25 -27 15 1.66 0.25
27 -27 15 1.47 0.25
29 -27 15 1.63 0.25
31 -27 15 0.99 0.22
-33 27 -15 0.63 0.15
-35 27 -15 -0.01 0.12
-37 27 -15 0.08 0.11
-33 -29 15 0.64 0.18
-31 -29 15 1.17 0.21
-29 -29 15 2.17 0.27
-27 -29 15 2.2 0.28
-25 -29 15 3.27 0.33
-23 -29 15 1.78 0.25
-21 -29 15 1.03 0.22
-19 -29 15 0.31 0.18
19 29 -15 0.18 0.18
-17 -29 15 -0.12 0.15
17 29 -15 -0.03 0.16
-15 -29 15 0.83 0.19
15 29 -15 0.73 0.22
-13 -29 15 1.22 0.2
13 29 -15 1.7 0.28
-11 -29 15 5.45 0.44
-9 -29 15 5.33 0.42
-9 29 15 4.97 0.55
-7 -29 15 6.2 0.46
-7 29 15 6.23 0.59
-5 -29 15 2.17 0.26
-3 -29 15 3.38 0.35
-1 -29 15 0 0.14
1 -29 15 0.07 0.14
3 -29 15 3.37 0.36
-3 29 -15 2.88 0.37
5 -29 15 2.2 0.27
-5 29 -15 2.45 0.34
7 -29 15 6.85 0.48
-7 29 -15 5.49 0.52
9 -29 15 5.91 0.46
-9 29 -15 4.97 0.5
11 -29 15 4.94 0.43
-11 29 -15 4.42 0.48
13 -29 15 1.42 0.23
13 29 15 1.95 0.29
15 -29 15 0.49 0.19
15 29 15 0.58 0.2
17 -29 15 -0.01 0.17
17 29 15 -0.01 0.16
19 -29 15 0.27 0.18
19 29 15 0.05 0.19
21 -29 15 0.95 0.22
23 -29 15 1.95 0.27
25 -29 15 2.59 0.3
27 -29 15 1.89 0.27
29 -29 15 1.91 0.26
31 -29 15 0.67 0.2
-33 29 -15 0.52 0.15
-35 29 -15 0.03 0.11
-31 -31 15 0.18 0.16
-29 -31 15 0.91 0.2
-27 -31 15 0.59 0.2
-25 -31 15 1.41 0.24
-23 -31 15 0.46 0.2
-21 -31 15 0.14 0.19
-19 -31 15 -0.03 0.17
-17 -31 15 -0.2 0.16
-15 -31 15 0.67 0.2
15 31 -15 0.69 0.22
-13 -31 15 0.19 0.16
-11 -31 15 0.78 0.19
-9 -31 15 1.09 0.2
-7 -31 15 1.34 0.21
-5 -31 15 1.6 0.23
-3 -31 15 1.1 0.2
-1 -31 15 0.19 0.15
1 -31 15 0.04 0.15
-1 31 -15 0.08 0.17
3 -31 15 1.04 0.21
-3 31 -15 0.66 0.22
5 -31 15 1.43 0.23
7 -31 15 1.36 0.23
9 -31 15 0.89 0.2
11 -31 15 1.02 0.22
13 -31 15 0.5 0.19
13 31 15 0.46 0.2
15 -31 15 0.67 0.21
15 31 15 0.98 0.24
17 -31 15 0.14 0.18
19 -31 15 -0.02 0.19
21 -31 15 0.25 0.19
23 -31 15 0.42 0.21
25 -31 15 0.91 0.23
27 -31 15 0.6 0.22
29 -31 15 0.63 0.2
31 -31 15 0.24 0.18
-33 31 -15 0.19 0.12
-27 -33 15 0.64 0.18
-25 -33 15 1.25 0.23
-23 -33 15 1.07 0.22
-21 -33 15 0.26 0.19
-19 -33 15 -0.08 0.17
-17 -33 15 -0.13 0.17
-15 -33 15 -0.11 0.17
-13 -33 15 0.5 0.18
-11 -33 15 1.27 0.22
-9 -33 15 1.15 0.21
-7 -33 15 1.18 0.21
-5 -33 15 0.89 0.19
-3 -33 15 0.78 0.18
-1 -33 15 0.27 0.16
1 -33 15 0.24 0.17
3 -33 15 0.57 0.19
5 -33 15 0.66 0.2
7 -33 15 0.75 0.2
9 -33 15 1.34 0.24
11 -33 15 1.14 0.23
13 -33 15 0.29 0.19
15 -33 15 0.32 0.2
17 -33 15 -0.1 0.19
19 -33 15 0 0.19
21 -33 15 0.52 0.22
23 -33 15 0.42 0.21
25 -33 15 0.88 0.22
27 -33 15 0.3 0.19
29 -33 15 0.32 0.18
-31 33 -15 0.19 0.12
-23 -35 15 -0.23 0.16
-21 -35 15 -0.53 0.15
-19 -35 15 -0.2 0.17
-17 -35 15 -0.06 0.17
-15 -35 15 0.58 0.2
-13 -35 15 0.41 0.19
-11 -35 15 0.63 0.19
-9 -35 15 0.63 0.19
-7 -35 15 1.06 0.21
-5 -35 15 1.16 0.22
-3 -35 15 0.68 0.2
-1 -35 15 0.05 0.16
1 -35 15 0.04 0.17
3 -35 15 0.53 0.19
5 -35 15 0.6 0.2
7 -35 15 1.04 0.22
9 -35 15 0.69 0.21
11 -35 15 0.64 0.21
13 -35 15 0.31 0.2
15 -35 15 0.67 0.21
17 -35 15 0.19 0.19
19 -35 15 0.05 0.19
21 -35 15 -0.42 0.17
23 -35 15 -0.36 0.17
25 -35 15 0.06 0.17
27 -35 15 -0.19 0.15
29 -35 15 -0.34 0.14
-19 -37 15 -0.06 0.15
-17 -37 15 -0.16 0.15
-15 -37 15 -0.17 0.15
-13 -37 15 -0.28 0.15
-11 -37 15 -0.38 0.14
-9 -37 15 -0.28 0.15
-7 -37 15 -0.09 0.16
-5 -37 15 -0.07 0.16
-3 -37 15 0.18 0.17
-1 -37 15 -0.09 0.16
1 -37 15 0.12 0.16
3 -37 15 0.18 0.18
5 -37 15 0.05 0.17
7 -37 15 0.12 0.17
9 -37 15 -0.11 0.17
11 -37 15 0.01 0.17
13 -37 15 -0.03 0.17
15 -37 15 -0.07 0.17
17 -37 15 -0.34 0.16
19 -37 15 -0.26 0.17
21 -37 15 -0.17 0.17
23 -37 15 -0.12 0.16
25 -37 15 -0.13 0.15
27 -37 15 -0.3 0.14
-13 -39 15 -0.26 0.15
-11 -39 15 -0.04 0.15
-9 -39 15 -0.1 0.15
-7 -39 15 0.01 0.15
-5 -39 15 0.2 0.16
-3 -39 15 0.08 0.15
-1 -39 15 -0.02 0.16
1 -39 15 0.17 0.17
3 -39 15 0.04 0.16
5 -39 15 -0.1 0.15
7 -39 15 -0.07 0.16
9 -39 15 0.08 0.17
11 -39 15 0.09 0.17
13 -39 15 -0.06 0.16
15 -39 15 0.06 0.17
17 -39 15 0.21 0.17
19 -39 15 0.06 0.16
21 -39 15 -0.34 0.14
23 -39 15 -0.02 0.14
-7 -41 15 0.36 0.16
-5 -41 15 0.28 0.16
-3 -41 15 0.07 0.16
-1 -41 15 0.05 0.16
1 -41 15 -0.03 0.14
3 -41 15 -0.11 0.15
5 -41 15 0.27 0.17
7 -41 15 0.24 0.16
9 -41 15 0.54 0.17
11 -41 15 0.54 0.17
13 -41 15 0.28 0.15
15 -41 15 0.23 0.15
17 -41 15 -0.15 0.14
19 -41 15 -0.17 0.13
1 -43 15 -0.3 0.12
3 -43 15 0.02 0.13
5 -43 15 0.31 0.14
7 -43 15 0.29 0.14
9 -43 15 0.33 0.14
11 -43 15 0.5 0.14
13 -43 15 0.07 0.14
-44 0 16 0.79 0.18
-42 0 16 0.28 0.16
-40 0 16 6.94 0.49
-38 0 16 0.53 0.18
-36 0 16 13.22 0.74
-34 0 16 0.03 0.14
-32 0 16 7.22 0.49
-30 0 16 0.05 0.14
-28 0 16 1.02 0.18
-26 0 16 0.03 0.12
-24 0 16 27.06 1.29
-22 0 16 0.52 0.12
-20 0 16 80.4 3.41
-18 0 16 0.71 0.2
-16 0 16 131.91 5.42
-14 0 16 0.48 0.17
14 0 -16 0.52 0.12
-12 0 16 74.55 3.12
12 0 -16 73.73 3.24
-10 0 16 1.64 0.25
10 0 -16 1.6 0.17
-8 0 16 13.19 0.71
8 0 -16 13.77 0.66
6 0 -16 0.57 0.1
-6 0 16 0.61 0.16
-4 0 16 9.93 0.54
4 0 -16 8.44 0.47
-2 0 16 0.4 0.15
2 0 -16 0.23 0.12
2 0 -16 0.31 0.1
0 0 16 98.75 3.96
0 0 -16 97.42 4.25
0 0 -16 90.14 4.13
-2 0 -16 0.32 0.09
-2 0 -16 0.24 0.12
2 0 16 0.42 0.15
-4 0 -16 11 0.58
4 0 16 10.4 0.58
-4 0 -16 8.13 0.49
4 0 16 9.79 0.5
-6 0 -16 0.73 0.16
-6 0 -16 0.48 0.11
6 0 16 0.69 0.12
6 0 16 0.86 0.18
8 0 16 13.58 0.68
-8 0 -16 12.52 0.74
-8 0 -16 15.24 0.69
8 0 16 13.33 0.74
10 0 16 1.47 0.25
-10 0 -16 1.33 0.16
-10 0 -16 1.45 0.22
10 0 16 1.48 0.17
-12 0 -16 72.97 3.04
12 0 16 67.7 3.03
12 0 16 66.08 2.96
-14 0 -16 0.5 0.13
14 0 16 0.63 0.2
16 0 16 125.7 5.23
-16 0 -16 125.73 5.45
18 0 16 0.53 0.22
-18 0 -16 0.59 0.13
-44 -2 16 0 0.15
-44 2 16 0.01 0.14
-42 -2 16 4.13 0.37
-42 2 16 3.24 0.35
-40 -2 16 0.38 0.17
-40 2 16 0.33 0.16
-38 -2 16 11.41 0.65
-38 2 16 10.44 0.65
-36 -2 16 0.46 0.17
-36 2 16 0.24 0.16
-34 -2 16 5.74 0.44
-34 2 16 5.75 0.44
-32 -2 16 0.13 0.14
-32 2 16 0.13 0.14
-30 -2 16 6.3 0.43
-30 2 16 5.53 0.42
-28 -2 16 0.11 0.14
-28 2 16 -0.11 0.12
-26 -2 16 12.38 0.65
-26 2 16 11.66 0.66
-24 -2 16 0.4 0.13
-24 2 16 0.38 0.12
-22 -2 16 61.53 2.71
-22 2 16 59.76 2.7
-22 2 16 58.51 2.63
-20 2 16 0.71 0.22
-18 -2 16 118.56 4.67
18 2 -16 102.23 4.91
-18 2 16 117.96 4.7
-16 -2 16 0.18 0.17
-16 2 16 0.26 0.19
16 2 -16 0.4 0.12
-14 -2 16 79.7 3.2
14 2 -16 71.14 3.32
-14 2 16 77.06 3.21
-12 -2 16 0.14 0.15
12 2 -16 0.05 0.09
-12 2 16 0.04 0.14
-10 -2 16 34.22 1.52
10 2 -16 32.23 1.54
-10 2 16 36.07 1.55
-8 -2 16 -0.04 0.13
8 -2 -16 -0.01 0.06
-8 2 16 0.02 0.13
8 2 -16 0.14 0.09
6 -2 -16 4.5 0.26
-6 -2 16 4.24 0.34
6 2 -16 4.66 0.3
-6 2 16 4.13 0.36
-4 -2 16 0.07 0.11
4 -2 -16 0.19 0.07
4 2 -16 0.15 0.09
-4 2 16 0.06 0.12
-2 -2 16 41.56 1.91
2 -2 -16 45.1 1.94
2 2 -16 43.98 1.97
-2 2 16 45.07 1.92
0 -2 -16 0.47 0.1
0 -2 16 0.44 0.15
0 -2 -16 0.52 0.14
0 2 16 0.31 0.15
0 2 -16 0.25 0.12
0 2 -16 0.27 0.1
-2 -2 -16 46.35 1.94
-2 -2 -16 43.44 2.03
2 -2 16 44.71 1.93
2 2 16 44.11 1.92
2 2 16 40.91 1.95
-2 2 -16 45.3 1.96
-2 2 -16 41.96 2.03
-4 -2 -16 -0.05 0.07
4 -2 16 -0.11 0.12
-4 2 -16 0.08 0.08
4 2 16 0.03 0.07
4 2 16 0.04 0.12
-4 2 -16 0.07 0.1
6 -2 16 4.12 0.35
-6 -2 -16 4.84 0.28
-6 2 -16 4.06 0.34
6 2 16 4.13 0.34
-6 2 -16 4.34 0.29
6 2 16 3.93 0.28
8 -2 16 0.08 0.13
-8 -2 -16 0.11 0.08
-8 2 -16 0.13 0.11
8 2 16 0.01 0.08
-8 2 -16 0.09 0.08
8 2 16 0.06 0.14
-10 -2 -16 33.37 1.54
10 -2 16 35.18 1.58
10 2 16 32.89 1.56
-10 2 -16 36.63 1.65
10 2 16 33.72 1.57
-10 2 -16 33.27 1.55
-12 -2 -16 0.03 0.08
12 -2 16 0.21 0.15
-12 2 -16 -0.03 0.09
-12 2 -16 0.07 0.11
12 2 16 -0.05 0.12
12 2 16 0.15 0.1
14 -2 16 71.17 3.04
-14 2 -16 68.56 3.11
14 2 16 69.47 3.11
14 2 16 72.22 3.02
-14 2 -16 70.87 3.22
16 -2 16 0.36 0.2
-16 2 -16 0.37 0.12
16 2 16 0.32 0.17
16 2 16 0.33 0.12
18 -2 16 107.12 4.53
-18 2 -16 107.35 4.69
20 -2 16 0.35 0.21
-20 2 -16 0.25 0.13
-22 2 -16 54.98 2.49
-44 -4 16 0.87 0.18
-44 4 16 0.63 0.17
-42 -4 16 0.18 0.16
-42 4 16 0.07 0.15
-40 -4 16 5.32 0.43
-40 4 16 4.69 0.42
-38 -4 16 0.44 0.17
-38 4 16 0.45 0.17
-36 -4 16 8.69 0.56
-36 4 16 8.85 0.57
-34 -4 16 0.04 0.15
-34 4 16 -0.09 0.15
-32 -4 16 4.41 0.38
-32 4 16 4.29 0.37
-30 -4 16 0.12 0.14
-30 4 16 0.01 0.12
-28 -4 16 1.75 0.21
-28 4 16 2.59 0.28
-26 -4 16 -0.08 0.12
-26 4 16 -0.15 0.11
-24 -4 16 8.87 0.5
-24 4 16 8.23 0.49
-22 -4 16 0.29 0.12
-22 4 16 0.22 0.11
-22 4 16 0.56 0.23
-20 4 16 29.71 1.46
20 4 -16 30.96 1.45
-18 4 16 0.64 0.2
18 4 -16 0.42 0.14
-16 -4 16 51.66 2.25
16 4 -16 54.39 2.34
-16 4 16 49.32 2.27
-14 -4 16 0.44 0.17
-14 4 16 0.39 0.17
14 4 -16 0.12 0.11
-12 -4 16 29.97 1.35
12 4 -16 29.15 1.36
-12 4 16 28.62 1.37
-10 -4 16 0.49 0.16
-10 4 16 0.4 0.17
10 4 -16 0.58 0.13
-8 -4 16 2.94 0.29
8 4 -16 3.74 0.28
-8 4 16 2.95 0.32
-6 -4 16 0.24 0.14
-6 4 16 -0.06 0.13
6 4 -16 0.12 0.1
-4 -4 16 3.2 0.28
-4 4 16 3.17 0.29
4 4 -16 1.89 0.21
-2 -4 16 0.23 0.13
2 4 -16 0.14 0.09
-2 4 16 0.07 0.08
-2 4 16 0.15 0.13
0 -4 16 10.55 0.58
0 4 -16 8.23 0.51
0 4 16 10.51 0.57
0 4 16 9.03 0.51
0 4 -16 11.68 0.59
2 -4 16 0.02 0.12
-2 4 -16 0.07 0.1
-2 4 -16 0.09 0.08
2 4 16 -0.01 0.07
2 4 16 0.11 0.12
4 -4 16 3.06 0.29
-4 4 -16 2.82 0.27
4 4 16 2.87 0.28
-4 4 -16 1.91 0.2
4 4 16 2.68 0.22
6 -4 16 0.09 0.13
6 4 16 0.08 0.12
-6 4 -16 -0.01 0.11
-6 4 -16 0.15 0.09
6 4 16 0.14 0.09
8 -4 16 2.88 0.33
8 4 16 2.92 0.3
-8 4 -16 4.38 0.28
8 4 16 3.41 0.27
-8 4 -16 2.93 0.31
10 -4 16 0.64 0.19
10 4 16 0.57 0.14
10 4 16 0.67 0.18
-10 4 -16 0.41 0.16
12 -4 16 26.81 1.32
12 4 16 27.68 1.29
-12 4 -16 25.7 1.34
12 4 16 28.88 1.3
14 -4 16 0.41 0.21
14 4 16 0.24 0.16
14 4 16 0.24 0.12
-14 4 -16 0.24 0.14
16 -4 16 45.06 2.1
16 4 16 45.91 2.1
-16 4 -16 46.49 2.17
18 -4 16 0.25 0.22
18 4 16 0.49 0.15
20 -4 16 27.57 1.4
20 4 16 27.65 1.37
22 -4 16 -0.09 0.2
-24 4 -16 8.36 0.55
-44 -6 16 -0.07 0.14
-44 6 16 0.01 0.13
-42 -6 16 0.91 0.19
-42 6 16 1.01 0.19
-40 -6 16 0.05 0.16
-40 6 16 -0.13 0.15
-38 -6 16 2.95 0.29
-38 6 16 2.51 0.27
-36 -6 16 0.22 0.16
-36 6 16 -0.03 0.15
-34 -6 16 2.43 0.27
-34 6 16 2.04 0.25
-32 -6 16 0.04 0.14
-32 6 16 0.11 0.13
-30 -6 16 6.88 0.47
-30 6 16 6.79 0.45
-28 -6 16 -0.13 0.12
-28 6 16 -0.04 0.11
-26 -6 16 2.86 0.3
-26 6 16 2.55 0.27
-24 -6 16 0.03 0.12
-24 6 16 -0.15 0.21
-24 6 16 0 0.1
-22 -6 16 19.65 0.96
22 6 -16 20.47 1.02
-22 6 16 18.68 0.94
-22 6 16 19.23 1.06
-20 -6 16 0.03 0.11
-20 6 16 -0.13 0.19
20 6 -16 -0.06 0.12
18 6 -16 29.52 1.4
-18 6 16 28.42 1.4
16 6 -16 -0.03 0.11
-16 6 16 0.28 0.18
-14 -6 16 23.81 1.12
14 6 -16 23.6 1.14
-14 6 16 22.99 1.15
-12 -6 16 0.06 0.14
-12 6 16 0.1 0.17
12 6 -16 0 0.11
-10 -6 16 31.19 1.43
-10 6 16 32 1.46
10 6 -16 31.68 1.48
-8 -6 16 0.14 0.13
-8 6 16 -0.16 0.14
8 6 -16 0.11 0.11
-6 -6 16 0.95 0.19
-6 6 16 0.84 0.2
6 6 -16 1.29 0.18
-4 -6 16 0.17 0.12
4 6 -16 0.16 0.1
-4 6 16 0.17 0.15
-4 6 16 0.1 0.08
-2 -6 16 4.54 0.35
-2 6 16 4.03 0.34
-2 6 16 4.19 0.29
2 6 -16 4.68 0.3
0 -6 16 0.51 0.17
0 6 -16 0.6 0.12
0 6 16 0.63 0.12
0 6 16 0.55 0.17
2 -6 16 4.04 0.35
-2 6 -16 4.13 0.34
2 6 16 4.35 0.35
2 6 16 4.5 0.3
-2 6 -16 5.01 0.31
4 -6 16 0.22 0.14
4 6 16 0.15 0.09
4 6 16 0.08 0.12
-4 6 -16 0.09 0.11
-4 6 -16 0.09 0.08
6 -6 16 1.04 0.22
6 6 16 0.91 0.19
-6 6 -16 1.17 0.15
6 6 16 1.18 0.17
-6 6 -16 0.88 0.18
8 -6 16 0.27 0.16
-8 6 -16 -0.09 0.11
8 6 16 0.05 0.11
8 6 16 0.06 0.13
10 -6 16 29.8 1.43
-10 6 -16 28.96 1.48
10 6 16 31.11 1.41
10 6 16 31.04 1.43
12 -6 16 -0.09 0.15
-12 6 -16 0.12 0.13
12 6 16 -0.08 0.13
12 6 16 0.17 0.12
14 -6 16 21.09 1.13
-14 6 -16 21.72 1.13
14 6 16 20.98 1.06
14 6 16 22.53 1.08
16 -6 16 0.08 0.18
-16 6 -16 0.17 0.15
16 6 16 0.18 0.13
18 -6 16 25.05 1.31
18 6 16 26.38 1.26
-18 6 -16 24.46 1.3
20 -6 16 -0.29 0.17
20 6 16 -0.06 0.13
22 -6 16 16.96 0.83
22 -6 16 16.02 0.97
22 6 16 16.81 0.92
24 -6 16 -0.14 0.11
26 -6 16 2.74 0.28
28 -6 16 0.25 0.14
-28 6 -16 -0.08 0.1
-30 6 -16 7.57 0.46
-32 6 -16 0.07 0.12
-34 6 -16 2.86 0.27
-44 -8 16 0.12 0.15
-44 8 16 -0.07 0.13
-42 -8 16 0.1 0.15
-42 8 16 0.08 0.15
-40 -8 16 0.43 0.18
-40 8 16 0.6 0.18
-38 -8 16 -0.12 0.15
-38 8 16 0.09 0.15
-36 -8 16 0.35 0.17
-36 8 16 0.1 0.16
-34 -8 16 -0.12 0.15
-34 8 16 0.02 0.14
-32 -8 16 0 0.15
-32 8 16 -0.05 0.13
-30 -8 16 0.09 0.14
-30 8 16 0.02 0.12
-28 -8 16 0.36 0.15
-28 8 16 0.47 0.14
-26 -8 16 -0.06 0.12
-26 8 16 0.02 0.11
-24 -8 16 0.09 0.12
-24 8 16 0.23 0.27
24 8 -16 0.32 0.17
-24 8 16 0.16 0.11
-22 -8 16 0 0.12
-22 8 16 0.11 0.1
-22 8 16 -0.34 0.18
22 8 -16 0.2 0.16
-20 -8 16 -0.03 0.11
-20 8 16 0.34 0.2
20 8 -16 0.01 0.12
18 8 -16 0.21 0.14
-18 8 16 0.22 0.18
-16 8 16 0.9 0.24
16 8 -16 1.18 0.19
-14 -8 16 0.09 0.14
-14 8 16 0.23 0.17
14 8 -16 0.16 0.13
-12 -8 16 1.51 0.23
-12 8 16 1.47 0.26
12 8 -16 2.56 0.26
-10 -8 16 0.19 0.15
10 8 -16 0.2 0.13
-10 8 16 0.06 0.2
-8 -8 16 1.71 0.25
-8 8 16 1.21 0.25
8 8 -16 2.7 0.26
-6 -8 16 0.1 0.13
6 8 -16 0.09 0.1
-6 8 16 0.14 0.09
-6 8 16 0.06 0.15
-4 -8 16 3.14 0.32
-4 8 16 3.41 0.33
4 8 -16 3.95 0.29
-2 -8 16 0.13 0.14
2 8 -16 0.01 0.08
-2 8 16 0.06 0.09
-2 8 16 0.14 0.14
0 -8 16 13.17 0.74
0 8 16 13.42 0.73
0 8 -16 14.77 0.7
2 -8 16 0.04 0.12
2 8 16 0.11 0.09
2 8 16 -0.07 0.11
-2 8 -16 0.08 0.08
4 -8 16 2.69 0.32
-4 8 -16 2.66 0.3
4 8 16 3.02 0.32
4 8 16 3.31 0.26
6 -8 16 0.19 0.15
-6 8 -16 0 0.12
6 8 16 0.17 0.12
6 8 16 0.08 0.1
8 -8 16 1.33 0.24
-8 8 -16 1.07 0.2
8 8 16 1.36 0.23
8 8 16 1.74 0.21
10 -8 16 0.3 0.19
-10 8 -16 0.17 0.14
10 8 16 0.26 0.13
10 8 16 0.03 0.14
12 -8 16 1.75 0.3
-12 8 -16 1.04 0.22
12 8 16 2.06 0.27
12 8 16 2 0.23
14 -8 16 0.06 0.17
-14 8 -16 0.08 0.14
14 8 16 0.15 0.12
16 -8 16 0.54 0.22
16 8 16 0.94 0.19
-16 8 -16 0.62 0.18
18 -8 16 0.06 0.17
18 8 16 -0.01 0.12
-18 8 -16 0.12 0.15
20 -8 16 0.36 0.22
-20 8 -16 -0.18 0.13
20 8 16 0.08 0.14
22 -8 16 0.09 0.2
22 -8 16 0.08 0.11
22 8 16 0.04 0.16
24 -8 16 0.17 0.12
24 -8 16 0.38 0.28
24 8 16 0.06 0.18
26 -8 16 -0.05 0.13
28 -8 16 0.63 0.16
-30 8 -16 -0.01 0.11
-32 8 -16 -0.02 0.11
-34 8 -16 0.09 0.14
-36 8 -16 0.27 0.15
-38 8 -16 -0.09 0.13
-44 -10 16 -0.12 0.14
-42 -10 16 0.3 0.16
-42 10 16 0.21 0.15
-40 -10 16 0.13 0.16
-40 10 16 -0.32 0.13
-38 -10 16 0.09 0.17
-38 10 16 0.22 0.16
-36 -10 16 0 0.15
-36 10 16 -0.15 0.14
-34 -10 16 0.27 0.16
-34 10 16 0.29 0.16
-32 -10 16 -0.06 0.15
-32 10 16 -0.11 0.13
-30 -10 16 1.1 0.2
-30 10 16 1.04 0.18
-28 -10 16 -0.2 0.13
-28 10 16 -0.02 0.12
-26 -10 16 0.38 0.15
-26 10 16 0.28 0.13
26 10 -16 0.54 0.21
-26 10 16 0.81 0.31
-24 -10 16 -0.1 0.13
24 10 -16 0.04 0.16
-24 10 16 0.03 0.1
-24 10 16 -0.31 0.18
-22 -10 16 0.96 0.17
22 10 -16 0.78 0.2
-22 10 16 1.31 0.32
-20 -10 16 -0.01 0.11
20 10 -16 -0.04 0.13
-20 10 16 -0.16 0.19
-18 -10 16 0.37 0.12
18 10 -16 0.5 0.17
-18 10 16 0.18 0.21
16 10 -16 -0.02 0.12
-16 10 16 0 0.16
14 10 -16 0.58 0.16
-14 10 16 0.95 0.22
-12 -10 16 0.01 0.14
12 10 -16 -0.03 0.12
-12 10 16 0.23 0.17
-10 -10 16 48.37 2.11
-10 10 16 49 2.15
10 10 -16 48.31 2.22
-8 -10 16 0.18 0.16
8 10 -16 0.15 0.13
-8 10 16 -0.08 0.16
-6 -10 16 32.72 1.46
-6 10 16 32.61 1.47
6 10 -16 30.5 1.48
-4 -10 16 0.65 0.18
4 10 -16 0.62 0.14
-4 10 16 0.74 0.19
-4 10 16 0.51 0.13
-2 -10 16 36.42 1.58
-2 10 16 37.88 1.59
-2 10 16 34.12 1.58
2 10 -16 31.13 1.57
0 -10 16 1.58 0.24
0 10 16 1.54 0.24
0 10 -16 1.21 0.17
0 10 16 1.22 0.17
2 -10 16 35.54 1.65
2 10 16 38.88 1.66
2 10 16 35.52 1.67
4 -10 16 0.54 0.19
-4 10 -16 0.31 0.15
4 10 16 0.55 0.14
4 10 16 0.35 0.16
6 -10 16 30.55 1.44
6 10 16 31.36 1.41
6 10 16 30.6 1.42
-6 10 -16 29.68 1.5
8 -10 16 -0.09 0.15
8 10 16 0.12 0.14
-8 10 -16 0.05 0.14
8 10 16 0.01 0.12
10 -10 16 45.36 2.04
-10 10 -16 42.18 2.11
10 10 16 46.23 2.05
10 10 16 45.18 1.97
12 -10 16 0.15 0.18
12 10 16 -0.02 0.11
-12 10 -16 -0.12 0.12
14 -10 16 0.64 0.22
14 10 16 0.74 0.17
-14 10 -16 0.44 0.16
16 -10 16 -0.17 0.17
16 10 16 -0.03 0.12
-16 10 -16 0.1 0.14
18 -10 16 0.25 0.21
-18 10 -16 0.28 0.17
18 10 16 -0.02 0.14
20 -10 16 0.06 0.23
20 -10 16 0.1 0.11
20 10 16 -0.17 0.13
-20 10 -16 -0.25 0.14
22 -10 16 0.77 0.16
22 -10 16 1.54 0.34
-22 10 -16 0.67 0.22
22 10 16 0.78 0.22
24 -10 16 -0.12 0.11
24 10 16 0 0.17
26 -10 16 0.54 0.15
28 -10 16 0.04 0.13
30 -10 16 0.82 0.18
-32 10 -16 -0.05 0.12
-34 10 -16 0.31 0.14
-36 10 -16 -0.22 0.13
-38 10 -16 0.29 0.16
-40 10 -16 -0.25 0.12
-44 -12 16 0.15 0.16
-42 -12 16 -0.02 0.16
-42 12 16 0.12 0.14
-40 -12 16 0.83 0.2
-40 12 16 0.66 0.17
-38 -12 16 0.17 0.17
-38 12 16 0.07 0.15
-36 -12 16 2.15 0.25
-36 12 16 2.12 0.25
-34 -12 16 0.19 0.16
-34 12 16 0.14 0.15
-32 -12 16 2.06 0.25
-32 12 16 1.83 0.23
-30 -12 16 -0.12 0.14
-30 12 16 -0.05 0.11
-28 -12 16 0.67 0.17
-28 12 16 0.82 0.16
-26 -12 16 0.1 0.15
-26 12 16 0.09 0.12
-26 12 16 -0.04 0.21
26 12 -16 0.11 0.18
-24 -12 16 4.8 0.38
-24 12 16 4.69 0.54
24 12 -16 5.15 0.46
-22 -12 16 -0.1 0.13
22 12 -16 0.01 0.15
-22 12 16 -0.04 0.2
-20 -12 16 25.86 1.22
20 12 -16 25.79 1.28
-20 12 16 24.42 1.3
-18 -12 16 0.25 0.13
18 12 -16 0.02 0.14
-18 12 16 0.2 0.19
-16 12 16 31.48 1.48
16 12 -16 29.49 1.46
-14 12 16 0.1 0.16
14 12 -16 -0.1 0.12
12 12 -16 11.46 0.68
-12 12 16 13.09 0.72
-10 -12 16 0.14 0.14
10 12 -16 -0.11 0.12
-10 12 16 0.08 0.16
-8 -12 16 2.13 0.28
-8 12 16 1.8 0.21
8 12 -16 2.86 0.28
-8 12 16 1.82 0.29
-6 -12 16 -0.09 0.14
6 12 -16 -0.13 0.09
-6 12 16 0.09 0.18
-6 12 16 -0.02 0.09
-4 -12 16 28.98 1.36
-4 12 16 28.49 1.35
-4 12 16 31.13 1.37
4 12 -16 27.87 1.35
-2 -12 16 0.19 0.15
-2 12 16 0.22 0.16
-2 12 16 -0.07 0.09
2 12 -16 -0.05 0.1
0 -12 16 72.26 3.12
0 12 16 71 3.23
0 12 16 73.87 3.11
0 12 -16 76.54 3.23
2 -12 16 0.01 0.15
2 12 16 0 0.09
2 12 16 -0.17 0.12
4 -12 16 27.47 1.34
-4 12 -16 27.97 1.4
4 12 16 28.42 1.31
4 12 16 28.61 1.32
6 -12 16 0.06 0.16
-6 12 -16 0 0.13
6 12 16 -0.08 0.13
6 12 16 0.12 0.12
8 -12 16 1.47 0.28
8 12 16 1.85 0.26
-8 12 -16 1 0.21
8 12 16 2.39 0.24
10 -12 16 -0.07 0.16
10 12 16 -0.11 0.1
-10 12 -16 0.09 0.14
12 -12 16 14.59 0.82
-12 12 -16 13.38 0.78
12 12 16 12.55 0.72
14 -12 16 -0.06 0.16
14 12 16 0 0.12
-14 12 -16 -0.04 0.13
16 -12 16 28.74 1.43
-16 12 -16 27.44 1.41
16 12 16 27.33 1.36
18 -12 16 0.47 0.12
18 -12 16 0.37 0.22
18 12 16 0.05 0.14
-18 12 -16 0.03 0.16
20 -12 16 22.56 1.08
20 -12 16 21.48 1.23
20 12 16 21.95 1.16
-20 12 -16 22.4 1.21
22 -12 16 0 0.24
22 -12 16 0.16 0.13
-22 12 -16 -0.02 0.17
22 12 16 0.09 0.17
24 -12 16 3.98 0.33
24 12 16 3.96 0.43
26 -12 16 -0.02 0.13
26 12 16 0.04 0.19
28 -12 16 0.66 0.17
30 -12 16 -0.19 0.13
-32 12 -16 2.2 0.23
-34 12 -16 0.09 0.13
-36 12 -16 3.12 0.34
-38 12 -16 -0.1 0.13
-40 12 -16 0.7 0.17
-42 12 -16 0.02 0.13
-42 -14 16 2.19 0.24
-42 14 16 1.72 0.2
-40 -14 16 -0.18 0.17
-40 14 16 0 0.13
-38 -14 16 6.71 0.49
-38 14 16 5.78 0.44
-36 -14 16 0.15 0.17
-36 14 16 0.06 0.15
-34 -14 16 8.6 0.55
-34 14 16 8 0.53
-32 -14 16 0.17 0.15
-32 14 16 0.16 0.14
-30 -14 16 0.82 0.19
-30 14 16 0.87 0.17
-28 -14 16 0 0.14
28 14 -16 0.04 0.2
-26 -14 16 0.18 0.15
-26 14 16 0.49 0.3
26 14 -16 0.19 0.2
-24 -14 16 -0.04 0.13
-24 14 16 -0.22 0.2
24 14 -16 0.05 0.17
-22 -14 16 8.81 0.52
-22 14 16 7.56 0.66
22 14 -16 8.26 0.59
-20 -14 16 0.19 0.13
-20 14 16 0.27 0.22
20 14 -16 0.3 0.18
-18 -14 16 26.02 1.25
18 14 -16 26.98 1.31
-18 14 16 25.04 1.32
-16 -14 16 0.39 0.12
-16 14 16 0.18 0.19
16 14 -16 0.17 0.15
14 14 -16 20.93 1.05
-14 14 16 19.72 1.06
-12 14 16 -0.02 0.17
12 14 -16 0.23 0.14
10 14 -16 0.65 0.17
-10 14 16 0.68 0.2
-8 -14 16 0.22 0.16
-8 14 16 0.28 0.19
-8 14 16 0.12 0.1
8 14 -16 0.05 0.12
-6 -14 16 23.62 1.12
-6 14 16 24.15 1.13
6 14 -16 21.77 1.11
-6 14 16 21.95 1.08
-4 -14 16 0.53 0.17
-4 14 16 0.03 0.1
4 14 -16 0.26 0.13
-4 14 16 0.08 0.16
-2 -14 16 76.18 3.12
2 14 -16 68.44 3.21
-2 14 16 75.2 3.11
-2 14 16 73.26 3.22
0 -14 16 0.65 0.2
0 14 16 0.41 0.12
0 14 16 0.69 0.2
2 -14 16 71.64 3.13
2 14 16 76.3 3.11
2 14 16 71.86 3.23
4 -14 16 0.5 0.2
4 14 16 0.37 0.18
-4 14 -16 0.28 0.15
4 14 16 0.28 0.12
6 -14 16 21.95 1.15
6 14 16 21.42 1.09
-6 14 -16 24.02 1.19
6 14 16 23.45 1.1
8 -14 16 0.2 0.17
8 14 16 0.07 0.11
-8 14 -16 0.16 0.13
10 -14 16 0.75 0.23
10 14 16 0.87 0.16
-10 14 -16 0.5 0.17
12 -14 16 0.24 0.21
12 14 16 0.09 0.12
-12 14 -16 0.15 0.14
14 -14 16 21.84 1.14
-14 14 -16 19.27 1.09
14 14 16 20.26 1.04
16 -14 16 0.51 0.23
16 -14 16 0.36 0.13
16 14 16 0.24 0.14
-16 14 -16 0.18 0.16
18 -14 16 22.41 1.11
18 -14 16 23.69 1.28
18 14 16 23.73 1.19
-18 14 -16 22.56 1.23
20 -14 16 0.4 0.26
20 -14 16 0.56 0.14
-20 14 -16 0.12 0.17
20 14 16 0.18 0.16
22 -14 16 7.32 0.47
22 -14 16 7.76 0.7
22 14 16 7.11 0.56
-22 14 -16 7.66 0.6
24 -14 16 0.05 0.13
24 14 16 0.02 0.18
-24 14 -16 0.05 0.19
26 -14 16 -0.08 0.13
26 14 16 0.2 0.21
28 -14 16 -0.32 0.14
28 14 16 -0.1 0.19
30 -14 16 0.67 0.18
-32 14 -16 0.16 0.13
-34 14 -16 8.54 0.52
-36 14 -16 0.14 0.14
-38 14 -16 6.24 0.45
-40 14 -16 -0.16 0.13
-42 14 -16 2.05 0.21
-42 -16 16 0.15 0.15
-40 -16 16 3.31 0.36
-38 -16 16 0.68 0.2
-38 16 16 0.39 0.16
-36 -16 16 8.11 0.55
-36 16 16 7.03 0.49
-34 -16 16 0.75 0.19
-32 -16 16 4.13 0.42
-30 -16 16 -0.12 0.15
-28 -16 16 1.6 0.22
28 16 -16 2.04 0.33
-26 -16 16 -0.04 0.14
26 16 -16 0.19 0.2
-24 -16 16 14.4 0.78
24 16 -16 15.36 0.89
-24 16 16 14.05 0.96
-22 -16 16 0.08 0.12
-22 16 16 0.07 0.23
22 16 -16 0.24 0.18
-20 -16 16 57.78 2.62
20 16 -16 61.1 2.67
-20 16 16 53.02 2.58
-18 -16 16 0.59 0.15
-18 16 16 0.65 0.24
18 16 -16 0.57 0.18
-16 -16 16 75.49 3.23
-16 16 16 69.68 3.11
16 16 -16 68.77 3.22
-14 -16 16 0.32 0.13
-14 16 16 0.24 0.19
14 16 -16 0.26 0.15
-12 16 16 28.94 1.41
12 16 -16 29.36 1.43
10 16 -16 0.09 0.12
-10 16 16 -0.18 0.08
-10 16 16 -0.08 0.15
-8 16 16 0.67 0.23
-8 16 16 0.79 0.15
8 16 -16 1.15 0.19
-6 -16 16 0.03 0.15
-6 16 16 0.09 0.15
6 16 -16 -0.08 0.11
-6 16 16 0.02 0.1
-4 -16 16 52.89 2.26
-4 16 16 50.32 2.25
4 16 -16 49.97 2.3
-4 16 16 51.71 2.29
-2 -16 16 0.38 0.18
-2 16 16 0.01 0.11
-2 16 16 0.5 0.2
2 16 -16 0.12 0.11
0 -16 16 127.52 5.32
0 16 16 128.37 5.29
0 16 16 128.93 5.56
2 -16 16 0.82 0.24
2 16 16 0.27 0.18
2 16 16 0.08 0.11
4 -16 16 48.25 2.28
4 16 16 51.32 2.3
4 16 16 54.17 2.25
6 -16 16 0.25 0.19
6 16 16 0.09 0.1
-6 16 -16 0.17 0.14
6 16 16 -0.15 0.12
8 -16 16 0.69 0.23
-8 16 -16 0.71 0.18
8 16 16 1.02 0.17
10 -16 16 0.15 0.19
-10 16 -16 0.01 0.13
10 16 16 0.04 0.11
12 -16 16 29.31 1.47
-12 16 -16 29.62 1.48
12 16 16 28.61 1.4
14 -16 16 0.46 0.12
14 -16 16 0.49 0.23
-14 16 -16 0.36 0.18
14 16 16 0.26 0.14
16 -16 16 65.65 2.88
16 -16 16 60.48 2.85
-16 16 -16 63.99 2.97
16 16 16 63.56 2.88
18 -16 16 0.82 0.15
18 -16 16 0.37 0.23
-18 16 -16 0.42 0.19
18 16 16 0.28 0.17
20 -16 16 51.3 2.39
20 -16 16 49.47 2.29
20 16 16 49.78 2.36
-20 16 -16 49.87 2.42
22 -16 16 0.29 0.19
22 -16 16 0.03 0.13
-22 16 -16 0.05 0.18
22 16 16 -0.01 0.15
24 -16 16 11.93 0.69
-24 16 -16 12.63 0.85
24 16 16 13.28 0.82
26 -16 16 -0.07 0.15
-26 16 -16 0.05 0.22
26 16 16 0.14 0.19
28 -16 16 1.5 0.22
28 16 16 1.74 0.33
30 -16 16 -0.04 0.15
32 -16 16 4.15 0.4
-34 16 -16 0.77 0.16
-36 16 -16 8.02 0.51
-38 16 -16 0.37 0.15
-40 16 -16 3.41 0.33
-40 -18 16 -0.01 0.16
-38 -18 16 8.69 0.56
-36 -18 16 0.4 0.2
-34 -18 16 12.26 0.72
-32 -18 16 -0.05 0.17
-30 -18 16 1.77 0.24
-28 -18 16 -0.12 0.14
28 18 -16 0.12 0.21
-26 -18 16 0.67 0.17
26 18 -16 0.8 0.24
-24 -18 16 0.05 0.14
24 18 -16 -0.02 0.17
-22 -18 16 21.53 1.08
22 18 -16 22.5 1.17
-22 18 16 19.82 1.19
-20 -18 16 0.5 0.16
20 18 -16 0.72 0.2
-20 18 16 0.58 0.25
-18 -18 16 47.38 2.2
18 18 -16 49.96 2.24
-18 18 16 45.05 2.19
-16 -18 16 0.58 0.14
-16 18 16 0.15 0.2
-14 -18 16 27.17 1.28
-14 18 16 26.22 1.33
14 18 -16 25.55 1.32
-12 -18 16 0.05 0.11
12 18 -16 0.17 0.14
-12 18 16 0.1 0.17
-10 -18 16 0.33 0.13
10 18 -16 0.32 0.15
-10 18 16 0.15 0.11
-10 18 16 0.25 0.18
8 18 -16 0.11 0.14
-8 18 16 0.16 0.17
-8 18 16 -0.02 0.1
-6 -18 16 27.6 1.31
-6 18 16 27.04 1.28
-6 18 16 27.16 1.31
6 18 -16 26.31 1.3
-4 -18 16 0.09 0.17
-4 18 16 0.5 0.21
4 18 -16 0.16 0.13
-4 18 16 0.03 0.12
-2 -18 16 110.94 4.61
-2 18 16 113.64 4.6
2 18 -16 103.7 4.8
-2 18 16 112.79 4.8
0 -18 16 0.67 0.23
0 18 16 0.62 0.2
0 18 16 0.18 0.13
2 -18 16 110.03 4.77
2 18 16 119.3 4.75
2 18 16 112.52 4.96
4 -18 16 0.28 0.22
4 18 16 0.53 0.2
4 18 16 0.49 0.14
6 -18 16 26.11 1.37
6 18 16 27.92 1.31
-6 18 -16 28.42 1.41
8 -18 16 0.25 0.21
8 18 16 0.11 0.11
-8 18 -16 0.21 0.15
10 -18 16 0.45 0.24
10 -18 16 0.19 0.13
-10 18 -16 0.41 0.17
10 18 16 0.21 0.12
12 -18 16 0.29 0.12
12 -18 16 0.26 0.2
12 18 16 0.05 0.11
-12 18 -16 0.15 0.15
14 -18 16 21.66 1.12
14 -18 16 24.13 1.28
-14 18 -16 23.91 1.26
14 18 16 24.29 1.19
16 -18 16 0.75 0.27
16 -18 16 1.04 0.17
16 18 16 0.24 0.15
-16 18 -16 0.51 0.19
18 -18 16 42.7 1.98
18 -18 16 42.66 2.07
18 -18 16 42.27 1.97
-18 18 -16 40.38 2.09
18 18 16 43.91 2.03
20 -18 16 0.34 0.16
20 -18 16 0.45 0.15
-20 18 -16 0.48 0.21
20 18 16 0.28 0.17
22 -18 16 17.99 0.92
-22 18 -16 17.95 1.08
22 18 16 17.68 1.02
24 -18 16 0.07 0.16
24 18 16 0.08 0.18
-24 18 -16 -0.07 0.2
26 -18 16 0.25 0.17
26 18 16 0.36 0.22
28 -18 16 -0.18 0.14
28 18 16 0.05 0.2
30 -18 16 1.62 0.23
32 -18 16 0.26 0.17
-34 18 -16 12.28 0.68
-36 18 -16 0.24 0.14
-38 18 -16 8.36 0.51
-40 18 -16 0.24 0.13
-40 -20 16 2.37 0.25
-38 -20 16 0.37 0.17
-36 -20 16 5.83 0.47
-34 -20 16 0.66 0.2
-32 -20 16 2.92 0.31
-30 -20 16 0.1 0.17
-28 -20 16 0.56 0.19
28 20 -16 0.68 0.25
-26 -20 16 -0.01 0.16
26 20 -16 -0.17 0.18
-24 -20 16 13.24 0.74
24 20 -16 13.12 0.82
-22 -20 16 0.16 0.14
22 20 -16 0.01 0.18
-20 -20 16 49.49 2.26
20 20 -16 49.98 2.31
-20 20 16 46.71 2.29
-18 -20 16 0.46 0.16
-18 20 16 0.19 0.2
-16 -20 16 59.64 2.63
-16 20 16 54.88 2.58
16 20 -16 57.07 2.64
-14 -20 16 0.28 0.14
14 20 -16 0.23 0.16
-14 20 16 0.04 0.19
-12 -20 16 27.33 1.23
-12 20 16 24.06 1.27
12 20 -16 22.98 1.25
-10 -20 16 -0.14 0.12
-10 20 16 -0.21 0.19
10 20 -16 0.07 0.13
-10 20 16 -0.12 0.09
-8 -20 16 0 0.11
-8 20 16 0.1 0.11
-8 20 16 -0.07 0.17
8 20 -16 0.15 0.15
-6 -20 16 0.02 0.11
-6 20 16 0.28 0.21
-6 20 16 -0.03 0.11
6 20 -16 -0.1 0.12
-4 -20 16 28.51 1.39
-4 20 16 28.48 1.36
4 20 -16 28.68 1.38
-4 20 16 30.29 1.41
-2 -20 16 0.52 0.22
-2 20 16 0.56 0.21
-2 20 16 0.14 0.12
0 -20 16 81.8 3.53
0 20 16 87.6 3.52
0 20 16 78.25 3.62
2 -20 16 0.35 0.2
2 20 16 0.29 0.18
2 20 16 0.2 0.12
4 -20 16 27.93 1.45
4 20 16 31.15 1.41
6 -20 16 0.09 0.17
6 -20 16 -0.37 0.12
6 20 16 0.05 0.1
-6 20 -16 -0.12 0.13
8 -20 16 -0.06 0.17
8 -20 16 -0.16 0.12
8 20 16 0.07 0.12
-8 20 -16 0.22 0.15
10 -20 16 0.17 0.19
10 -20 16 -0.11 0.11
-10 20 -16 -0.01 0.15
10 20 16 0.04 0.11
12 -20 16 23.03 1.26
12 -20 16 23.88 1.15
-12 20 -16 23.73 1.26
12 20 16 22.57 1.17
14 -20 16 0.35 0.22
14 -20 16 0.36 0.14
-14 20 -16 0.14 0.18
14 20 16 0.16 0.14
16 -20 16 51.68 2.43
16 -20 16 49.45 2.35
16 -20 16 52.13 2.23
16 20 16 53.67 2.4
-16 20 -16 49.35 2.47
18 -20 16 0.21 0.09
18 -20 16 0.56 0.16
-18 20 -16 0.11 0.19
18 20 16 0.31 0.17
20 -20 16 44.63 1.9
20 -20 16 41.46 1.99
20 20 16 42.16 2.06
-20 20 -16 42.27 2.14
22 -20 16 0.3 0.14
-22 20 -16 0.22 0.22
22 20 16 0.14 0.18
24 -20 16 10.9 0.66
24 20 16 11.43 0.76
26 -20 16 -0.19 0.15
26 20 16 -0.19 0.18
28 -20 16 0.25 0.18
28 20 16 0.4 0.25
30 -20 16 -0.01 0.16
32 -20 16 3.23 0.35
-36 20 -16 6.35 0.44
-38 20 -16 0.39 0.14
-40 20 -16 2.91 0.29
-38 -22 16 5.6 0.44
-36 -22 16 0.23 0.17
-34 -22 16 8.75 0.58
-32 -22 16 0.11 0.18
-30 -22 16 2.41 0.29
-28 -22 16 0.07 0.17
-26 -22 16 -0.2 0.15
26 22 -16 0.15 0.19
-24 -22 16 0.13 0.16
24 22 -16 0.19 0.18
-22 -22 16 8.85 0.57
22 22 -16 9.39 0.65
-20 -22 16 0.3 0.15
20 22 -16 0.28 0.18
-18 -22 16 20.2 1.03
18 22 -16 20.18 1.08
-18 22 16 19.71 1.14
-16 -22 16 0.15 0.14
16 22 -16 0.34 0.17
-16 22 16 0.28 0.26
-14 -22 16 8.49 0.53
-14 22 16 8.08 0.63
14 22 -16 8.09 0.56
-12 -22 16 -0.08 0.13
-12 22 16 0.2 0.24
12 22 -16 0.26 0.16
-10 -22 16 0.82 0.17
10 22 -16 1.58 0.24
-10 22 16 0.79 0.27
-10 22 16 0.88 0.18
-8 -22 16 -0.07 0.13
-8 22 16 -0.06 0.11
-8 22 16 -0.16 0.19
8 22 -16 -0.13 0.13
-6 -22 16 20.04 0.99
-6 22 16 18.68 1.04
6 22 -16 19.14 1.04
-4 -22 16 0.2 0.16
-4 22 16 0.4 0.2
-2 -22 16 55.38 2.6
-2 -22 16 61.1 2.71
-2 22 16 61.52 2.64
0 -22 16 0.24 0.22
0 -22 16 0.17 0.14
0 22 16 0.57 0.22
2 -22 16 59.42 2.64
2 -22 16 55.38 2.57
4 -22 16 -0.07 0.13
4 -22 16 -0.03 0.21
-4 22 -16 0.16 0.17
4 22 16 0.31 0.14
6 -22 16 16.9 1.03
6 -22 16 18.17 0.93
-6 22 -16 18.47 1.02
6 22 16 18.57 0.93
8 -22 16 -0.03 0.18
8 -22 16 -0.2 0.11
-8 22 -16 -0.07 0.14
8 22 16 0.07 0.12
10 -22 16 1.15 0.28
10 -22 16 0.66 0.16
-10 22 -16 0.98 0.23
10 22 16 0.98 0.19
12 -22 16 0.05 0.19
12 -22 16 0.19 0.13
-12 22 -16 0.12 0.17
12 22 16 0.03 0.12
14 -22 16 7.61 0.49
14 -22 16 8.26 0.66
-14 22 -16 7.53 0.6
14 22 16 7.86 0.54
16 -22 16 0.38 0.15
-16 22 -16 0.25 0.19
16 22 16 0.15 0.15
18 -22 16 19.31 0.98
18 22 16 19.12 1.05
-18 22 -16 18.64 1.11
20 -22 16 0.21 0.16
20 22 16 0.19 0.17
-20 22 -16 0.32 0.22
22 -22 16 8.89 0.56
22 22 16 7.64 0.62
24 -22 16 0.02 0.17
24 22 16 0.12 0.19
26 -22 16 0.12 0.18
26 22 16 0.15 0.22
28 -22 16 0 0.17
30 -22 16 2.1 0.27
32 -22 16 0.33 0.18
-34 22 -16 8.63 0.53
-36 22 -16 0.3 0.14
-38 22 -16 5.7 0.4
-38 -24 16 0.25 0.15
-36 -24 16 2.41 0.27
-34 -24 16 0.1 0.18
-32 -24 16 1.66 0.25
-30 -24 16 0.1 0.18
-28 -24 16 0.06 0.17
-26 -24 16 0.1 0.16
-24 -24 16 1.52 0.23
24 24 -16 1.81 0.3
-22 -24 16 0.21 0.15
22 24 -16 0.04 0.18
-20 -24 16 12.59 0.73
20 24 -16 13.51 0.8
-18 -24 16 0.2 0.14
18 24 -16 0.14 0.16
-16 -24 16 14.55 0.79
16 24 -16 14.9 0.84
-16 24 16 13.28 0.91
-14 -24 16 0.05 0.14
14 24 -16 0.05 0.16
-14 24 16 -0.07 0.22
-12 -24 16 4.7 0.36
-12 24 16 4.2 0.5
12 24 -16 4.07 0.41
-10 -24 16 -0.1 0.11
-10 24 16 -0.23 0.19
10 24 -16 0.09 0.14
-8 -24 16 0.18 0.16
-8 24 16 0.04 0.23
-6 -24 16 0.01 0.13
-6 24 16 0.06 0.21
-4 -24 16 8.33 0.54
-4 24 16 8.79 0.64
-2 -24 16 0.19 0.16
-2 24 16 0.3 0.23
0 -24 16 27.25 1.29
0 -24 16 24.86 1.33
2 -24 16 -0.03 0.18
2 -24 16 0.12 0.14
4 -24 16 8.41 0.53
4 -24 16 7 0.6
-4 24 -16 7.81 0.58
6 -24 16 -0.09 0.14
6 -24 16 -0.01 0.24
-6 24 -16 0.06 0.15
6 24 16 0.12 0.13
8 -24 16 0.05 0.13
8 -24 16 0.33 0.24
8 24 16 0.48 0.15
-8 24 -16 0.45 0.19
10 -24 16 -0.13 0.13
10 -24 16 0.06 0.23
10 24 16 0.02 0.13
-10 24 -16 0.23 0.17
12 -24 16 4.6 0.55
12 -24 16 4.63 0.38
12 24 16 4.16 0.38
-12 24 -16 4.17 0.46
14 -24 16 -0.03 0.13
14 24 16 0.14 0.14
-14 24 -16 -0.07 0.16
16 -24 16 13.6 0.75
16 24 16 12.85 0.79
-16 24 -16 13.16 0.86
18 -24 16 0.03 0.15
18 24 16 0.14 0.16
-18 24 -16 -0.02 0.18
20 -24 16 11.3 0.68
20 24 16 11.77 0.77
22 -24 16 0.18 0.17
22 24 16 -0.19 0.16
24 -24 16 1.64 0.25
24 24 16 1.5 0.3
26 -24 16 0 0.17
28 -24 16 0.06 0.18
30 -24 16 0.33 0.19
32 -24 16 1.6 0.24
-34 24 -16 0.14 0.13
-36 24 -16 2.95 0.31
-38 24 -16 0.09 0.11
-36 -26 16 -0.03 0.14
-34 -26 16 1.63 0.24
-32 -26 16 0.14 0.17
-30 -26 16 1.36 0.24
-28 -26 16 0.05 0.18
-26 -26 16 0.29 0.19
-24 -26 16 -0.17 0.16
-22 -26 16 0.08 0.16
22 26 -16 0.19 0.19
-20 -26 16 -0.1 0.14
20 26 -16 -0.06 0.16
-18 -26 16 0.53 0.17
18 26 -16 0.79 0.21
-16 -26 16 0.2 0.15
16 26 -16 -0.14 0.14
-14 -26 16 0.22 0.15
-14 26 16 -0.01 0.27
14 26 -16 0 0.15
-12 -26 16 0.16 0.15
12 26 -16 0.03 0.16
-12 26 16 -0.1 0.24
-10 -26 16 0.49 0.16
10 26 -16 0.41 0.18
-10 26 16 0.52 0.27
-8 -26 16 0.2 0.15
-8 26 16 -0.31 0.22
-6 -26 16 3.39 0.34
-6 26 16 2.63 0.42
-4 -26 16 0.02 0.15
-4 26 16 0.23 0.21
-2 -26 16 12.25 0.7
0 -26 16 0.05 0.15
2 -26 16 10.68 0.75
2 -26 16 11.93 0.68
4 -26 16 0.08 0.25
4 -26 16 -0.12 0.15
-4 26 -16 -0.04 0.17
6 -26 16 2.65 0.42
6 -26 16 2.66 0.29
-6 26 -16 2.57 0.35
8 -26 16 -0.05 0.15
8 26 16 0.01 0.14
-8 26 -16 -0.05 0.17
10 -26 16 0.39 0.18
-10 26 -16 0.46 0.21
10 26 16 0.16 0.15
12 -26 16 0.02 0.14
12 26 16 -0.1 0.14
-12 26 -16 -0.03 0.18
14 -26 16 0.18 0.16
-14 26 -16 0.06 0.2
14 26 16 0.14 0.16
16 -26 16 0.01 0.17
-16 26 -16 -0.08 0.19
16 26 16 -0.06 0.15
18 -26 16 0.56 0.19
18 26 16 0.51 0.21
20 -26 16 0.11 0.17
20 26 16 0.05 0.17
22 -26 16 0.09 0.18
22 26 16 0.19 0.2
24 -26 16 0.29 0.19
26 -26 16 0.34 0.2
28 -26 16 0.2 0.18
30 -26 16 1.04 0.22
32 -26 16 0.14 0.18
-34 26 -16 1.59 0.2
-36 26 -16 0.07 0.12
-34 -28 16 0.16 0.15
-32 -28 16 -0.12 0.15
-30 -28 16 -0.01 0.16
-28 -28 16 0.02 0.17
-26 -28 16 0.21 0.18
-24 -28 16 -0.2 0.17
-22 -28 16 -0.05 0.16
-20 -28 16 0.38 0.17
20 28 -16 0.92 0.25
-18 -28 16 0.06 0.16
18 28 -16 0.07 0.16
-16 -28 16 1.99 0.26
16 28 -16 1.89 0.3
-14 -28 16 -0.01 0.15
14 28 -16 -0.04 0.16
-12 -28 16 0.61 0.17
12 28 -16 1.18 0.26
-10 -28 16 -0.18 0.14
-10 28 16 0.21 0.26
-8 -28 16 0.75 0.19
-8 28 16 0.54 0.27
-6 -28 16 -0.12 0.14
-6 28 16 0.08 0.24
-4 -28 16 1.8 0.23
-2 -28 16 0.12 0.15
0 -28 16 0.63 0.17
2 -28 16 0.03 0.14
4 -28 16 2.15 0.27
-4 28 -16 2.01 0.33
6 -28 16 0.05 0.15
-6 28 -16 0.16 0.17
8 -28 16 0.57 0.19
-8 28 -16 0.61 0.22
10 -28 16 0.05 0.16
10 28 16 -0.11 0.14
-10 28 -16 0.07 0.18
12 -28 16 0.73 0.19
-12 28 -16 0.73 0.24
12 28 16 1.13 0.24
14 -28 16 0.04 0.16
14 28 16 -0.04 0.14
16 -28 16 1.5 0.24
16 28 16 1.92 0.3
18 -28 16 0 0.16
18 28 16 0.07 0.18
20 -28 16 0.55 0.21
20 28 16 0.49 0.23
22 -28 16 -0.07 0.18
24 -28 16 0.16 0.19
26 -28 16 0.25 0.19
28 -28 16 0.23 0.2
30 -28 16 0.26 0.19
32 -28 16 0.09 0.17
-32 28 -16 0.05 0.12
-34 28 -16 -0.06 0.12
-32 -30 16 -0.1 0.14
-30 -30 16 0.23 0.17
-28 -30 16 0.03 0.17
-26 -30 16 1.19 0.23
-24 -30 16 0.09 0.18
-22 -30 16 2.18 0.28
-20 -30 16 -0.15 0.17
-18 -30 16 1.71 0.26
-16 -30 16 -0.07 0.15
16 30 -16 -0.14 0.16
-14 -30 16 0.7 0.19
14 30 -16 1.05 0.24
-12 -30 16 -0.14 0.14
-10 -30 16 0.84 0.19
-8 -30 16 -0.17 0.14
-6 -30 16 6.4 0.47
-4 -30 16 -0.01 0.15
-2 -30 16 5.27 0.43
0 -30 16 0.22 0.16
2 -30 16 5.04 0.44
-2 30 -16 4.97 0.49
4 -30 16 0.11 0.16
-4 30 -16 0.04 0.17
6 -30 16 6.44 0.48
-6 30 -16 5.65 0.53
8 -30 16 -0.22 0.15
10 -30 16 1.03 0.22
12 -30 16 -0.14 0.15
12 30 16 -0.12 0.15
14 -30 16 0.67 0.21
14 30 16 1.14 0.25
16 -30 16 0.09 0.18
16 30 16 0 0.16
18 -30 16 1.53 0.25
20 -30 16 0.21 0.19
22 -30 16 2.06 0.27
24 -30 16 0.18 0.19
26 -30 16 0.95 0.23
28 -30 16 -0.16 0.18
30 -30 16 0.06 0.18
-32 30 -16 -0.15 0.12
-34 30 -16 0.08 0.12
-30 -32 16 -0.1 0.15
-28 -32 16 -0.03 0.16
-26 -32 16 -0.13 0.17
-24 -32 16 1.43 0.24
-22 -32 16 0.03 0.18
-20 -32 16 2.35 0.29
-18 -32 16 0.08 0.18
-16 -32 16 4.25 0.43
-14 -32 16 0.03 0.16
-12 -32 16 2.34 0.28
-10 -32 16 -0.26 0.14
-8 -32 16 0.16 0.16
-6 -32 16 0.1 0.15
-4 -32 16 4.29 0.39
-2 -32 16 0.24 0.16
0 -32 16 7.24 0.52
2 -32 16 0.17 0.17
4 -32 16 3.85 0.4
6 -32 16 -0.09 0.16
8 -32 16 0.22 0.18
10 -32 16 -0.14 0.16
12 -32 16 1.81 0.26
14 -32 16 0.06 0.18
16 -32 16 4.53 0.46
18 -32 16 0.09 0.18
20 -32 16 2.32 0.3
22 -32 16 -0.19 0.19
24 -32 16 1.46 0.25
26 -32 16 -0.17 0.18
28 -32 16 -0.25 0.17
30 -32 16 -0.06 0.16
-32 32 -16 0.36 0.13
-28 -34 16 0.05 0.15
-26 -34 16 1.62 0.23
-24 -34 16 0.17 0.17
-22 -34 16 7.81 0.56
-20 -34 16 0.63 0.2
-18 -34 16 11.32 0.69
-16 -34 16 0.58 0.2
-14 -34 16 7.76 0.55
-12 -34 16 0.08 0.17
-10 -34 16 0.41 0.18
-8 -34 16 0.12 0.16
-6 -34 16 2.39 0.28
-4 -34 16 0.16 0.16
-2 -34 16 6.01 0.47
0 -34 16 0.2 0.17
2 -34 16 5.87 0.47
4 -34 16 0.03 0.17
6 -34 16 2.34 0.29
8 -34 16 -0.06 0.17
10 -34 16 0.35 0.19
12 -34 16 0.06 0.18
14 -34 16 8.33 0.6
16 -34 16 0.69 0.21
18 -34 16 10.21 0.64
20 -34 16 0.71 0.21
22 -34 16 7.24 0.54
24 -34 16 0.1 0.19
26 -34 16 1.37 0.23
28 -34 16 -0.3 0.15
-30 34 -16 -0.14 0.1
-24 -36 16 2.14 0.25
-22 -36 16 0.16 0.16
-20 -36 16 5.72 0.45
-18 -36 16 0.16 0.17
-16 -36 16 6.98 0.51
-14 -36 16 -0.07 0.16
-12 -36 16 2.13 0.27
-10 -36 16 -0.23 0.15
-8 -36 16 0.22 0.18
-6 -36 16 0.2 0.18
-4 -36 16 8.19 0.57
-2 -36 16 0.36 0.18
0 -36 16 11.88 0.72
2 -36 16 0.36 0.2
4 -36 16 8.71 0.61
6 -36 16 -0.38 0.17
8 -36 16 0.17 0.19
10 -36 16 -0.28 0.17
12 -36 16 2.23 0.28
14 -36 16 0.3 0.19
16 -36 16 7.54 0.55
18 -36 16 0.45 0.19
20 -36 16 5.75 0.47
22 -36 16 0.03 0.17
24 -36 16 1.69 0.24
26 -36 16 -0.2 0.15
28 -36 16 -0.13 0.15
-18 -38 16 8.13 0.53
-16 -38 16 0.41 0.17
-14 -38 16 5.24 0.43
-12 -38 16 0.18 0.17
-10 -38 16 0.15 0.17
-8 -38 16 -0.13 0.16
-6 -38 16 2.9 0.3
-4 -38 16 0.32 0.18
-2 -38 16 8.85 0.57
0 -38 16 0.22 0.18
2 -38 16 9.45 0.62
4 -38 16 0.21 0.19
6 -38 16 2.54 0.29
8 -38 16 -0.33 0.17
10 -38 16 -0.12 0.18
12 -38 16 -0.05 0.16
14 -38 16 5.45 0.45
16 -38 16 0.59 0.19
18 -38 16 7.59 0.52
20 -38 16 0.48 0.18
22 -38 16 4.3 0.37
24 -38 16 0.09 0.15
-12 -40 16 0.69 0.18
-10 -40 16 -0.23 0.14
-8 -40 16 0.27 0.17
-6 -40 16 -0.04 0.15
-4 -40 16 3.71 0.37
-2 -40 16 0.33 0.17
0 -40 16 6.11 0.48
2 -40 16 0.1 0.17
4 -40 16 4.12 0.39
6 -40 16 -0.27 0.16
8 -40 16 0.05 0.17
10 -40 16 -0.17 0.15
12 -40 16 0.72 0.18
14 -40 16 0.26 0.16
16 -40 16 3.02 0.33
18 -40 16 0.28 0.15
20 -40 16 1.9 0.22
-6 -42 16 0.76 0.18
-4 -42 16 0.13 0.15
-2 -42 16 3.14 0.32
0 -42 16 0.02 0.14
2 -42 16 2.6 0.26
4 -42 16 0.04 0.15
6 -42 16 0.61 0.17
8 -42 16 0.01 0.14
10 -42 16 0.18 0.15
12 -42 16 0.09 0.14
14 -42 16 1.79 0.2
16 -42 16 0.12 0.14
4 -44 16 0.51 0.14
6 -44 16 -0.03 0.12
-45 -1 17 -0.07 0.13
-45 1 17 -0.1 0.12
-43 -1 17 -0.16 0.14
-43 1 17 -0.03 0.14
-41 -1 17 -0.06 0.15
-41 1 17 -0.05 0.15
-39 -1 17 -0.22 0.15
-39 1 17 -0.08 0.14
-37 -1 17 0.14 0.16
-37 1 17 -0.08 0.15
-35 -1 17 -0.08 0.15
-35 1 17 -0.23 0.14
-33 -1 17 -0.07 0.15
-33 1 17 0 0.14
-31 -1 17 -0.07 0.13
-31 1 17 0.01 0.14
-29 -1 17 0.03 0.13
-29 1 17 0.08 0.13
-27 -1 17 0.06 0.14
-27 1 17 0 0.12
-25 -1 17 0.1 0.14
-25 1 17 0.22 0.13
-23 -1 17 -0.02 0.12
-23 1 17 -0.06 0.11
-21 -1 17 0.51 0.14
-21 1 17 0.42 0.22
-21 1 17 0.75 0.15
-19 -1 17 0.96 0.23
-19 1 17 1.12 0.25
-17 -1 17 6.15 0.48
-17 1 17 5.93 0.48
-15 -1 17 4.52 0.39
-15 1 17 4.21 0.39
15 1 -17 4.76 0.33
-13 -1 17 6.7 0.48
13 1 -17 6.42 0.4
-13 1 17 6.44 0.47
-11 -1 17 4.33 0.37
11 1 -17 4.2 0.29
-11 1 17 4 0.36
-9 -1 17 7.22 0.48
9 -1 -17 7.51 0.39
9 1 -17 6.77 0.4
-9 1 17 7.31 0.49
-7 -1 17 5.62 0.4
7 -1 -17 5.25 0.31
7 1 -17 5.39 0.33
-7 1 17 5.33 0.4
-5 -1 17 2.83 0.28
5 -1 -17 2.72 0.2
5 1 -17 2.42 0.22
-5 1 17 2.83 0.3
3 -1 -17 1.27 0.14
-3 -1 17 1.09 0.2
3 1 -17 1.51 0.17
-3 1 17 0.98 0.19
3 1 -17 0.97 0.17
-1 -1 17 0.01 0.11
1 -1 -17 0.02 0.09
1 -1 -17 -0.1 0.06
1 1 -17 0.33 0.1
1 1 -17 0.02 0.09
-1 1 17 -0.07 0.1
-1 -1 -17 0.06 0.11
1 -1 17 0.12 0.13
-1 -1 -17 -0.01 0.07
-1 1 -17 0 0.07
-1 1 -17 0.09 0.1
1 1 17 -0.08 0.1
-3 -1 -17 1.35 0.19
-3 -1 -17 1.27 0.15
3 -1 17 1.05 0.2
3 1 17 1.52 0.23
3 1 17 1.16 0.15
-3 1 -17 1.41 0.17
-3 1 -17 0.95 0.18
-5 -1 -17 2.61 0.21
-5 -1 -17 2.05 0.26
5 -1 17 3.33 0.32
5 1 17 2.39 0.21
5 1 17 2.48 0.3
-5 1 -17 2.45 0.27
-5 1 -17 2.68 0.22
-7 -1 -17 5.89 0.34
7 -1 17 5.71 0.43
-7 1 -17 5.52 0.41
7 1 17 5.44 0.42
-7 1 -17 5.4 0.34
7 1 17 5.25 0.34
9 -1 17 7.55 0.51
-9 -1 -17 6.91 0.41
9 1 17 6.88 0.42
9 1 17 6.77 0.49
-9 1 -17 7.53 0.42
-9 1 -17 7.43 0.49
11 -1 17 3.67 0.37
-11 -1 -17 4.08 0.28
-11 1 -17 3.71 0.29
11 1 17 4 0.29
11 1 17 3.93 0.36
-11 1 -17 3.65 0.36
13 -1 17 5.32 0.45
-13 -1 -17 5.82 0.36
13 1 17 5.58 0.46
13 1 17 5.56 0.37
-13 1 -17 5.79 0.38
-15 -1 -17 4.3 0.32
15 -1 17 3.84 0.43
15 1 17 4.02 0.43
-15 1 -17 4.4 0.33
17 -1 17 5.64 0.48
-17 1 -17 5.24 0.38
17 1 17 5.36 0.48
19 -1 17 0.97 0.27
-19 1 -17 0.79 0.18
-45 -3 17 0.16 0.13
-43 -3 17 -0.23 0.14
-43 3 17 -0.04 0.13
-41 -3 17 -0.03 0.16
-41 3 17 0.08 0.15
-39 -3 17 -0.16 0.16
-39 3 17 0.15 0.16
-37 -3 17 -0.09 0.16
-37 3 17 -0.01 0.15
-35 -3 17 0.32 0.17
-35 3 17 0.19 0.15
-33 -3 17 0.06 0.16
-33 3 17 0.19 0.15
-31 -3 17 0.04 0.14
-31 3 17 -0.01 0.14
-29 -3 17 0.63 0.17
-29 3 17 0.72 0.16
-27 -3 17 3.02 0.31
-27 3 17 3.44 0.31
-25 -3 17 1.29 0.18
-25 3 17 1.51 0.18
-23 -3 17 1.53 0.19
-23 3 17 1.54 0.18
-21 -3 17 0.16 0.12
-21 3 17 -0.23 0.18
-21 3 17 0.14 0.12
-19 3 17 0.57 0.21
-17 -3 17 4.05 0.37
17 3 -17 3.7 0.32
-17 3 17 4.5 0.42
-15 -3 17 3.57 0.36
15 3 -17 3.21 0.29
-15 3 17 3.12 0.35
-13 -3 17 8.48 0.53
-13 3 17 8.27 0.54
13 3 -17 7.82 0.47
-11 -3 17 3.84 0.35
-11 3 17 3.48 0.37
11 3 -17 3.45 0.28
-9 -3 17 17.95 0.9
9 3 -17 17.82 0.87
-9 3 17 18.08 0.92
-7 -3 17 11.23 0.63
-7 3 17 11.59 0.65
7 3 -17 11.33 0.6
-5 -3 17 10.87 0.62
5 3 -17 10.37 0.57
-5 3 17 10.58 0.61
-3 -3 17 4.23 0.35
3 3 -17 4.49 0.31
-3 3 17 4.53 0.36
-1 -3 17 1.44 0.22
1 3 -17 0.86 0.17
-1 3 17 1.07 0.2
1 3 -17 1.17 0.15
1 -3 17 1.05 0.21
-1 -3 -17 1.4 0.13
1 3 17 1.16 0.15
-1 3 -17 1.16 0.16
1 3 17 0.74 0.18
-1 3 -17 0.83 0.17
3 -3 17 4.57 0.37
-3 -3 -17 4.28 0.27
-3 3 -17 4.49 0.35
3 3 17 4.35 0.3
3 3 17 4.6 0.36
-3 3 -17 4.36 0.29
5 -3 17 10.81 0.64
-5 -3 -17 10.75 0.53
-5 3 -17 10.3 0.56
5 3 17 9.98 0.56
-5 3 -17 11.36 0.64
5 3 17 10.56 0.62
7 -3 17 11.92 0.68
-7 3 -17 11.44 0.67
7 3 17 11.3 0.6
-7 3 -17 11.25 0.6
7 3 17 11.26 0.66
9 -3 17 18.98 0.94
-9 3 -17 18.01 0.94
9 3 17 17.12 0.87
-9 3 -17 17.09 0.86
9 3 17 17.17 0.91
11 -3 17 3.55 0.39
11 3 17 3.78 0.37
-11 3 -17 3.56 0.28
-11 3 -17 3.22 0.33
11 3 17 3.38 0.29
13 -3 17 8.09 0.56
-13 3 -17 7.53 0.46
13 3 17 6.95 0.46
-13 3 -17 7.79 0.52
13 3 17 7.78 0.53
15 -3 17 3.3 0.4
-15 3 -17 3.71 0.31
15 3 17 3.18 0.36
15 3 17 2.74 0.29
17 -3 17 3.34 0.43
-17 3 -17 3.39 0.31
17 3 17 3.25 0.31
19 -3 17 0.02 0.21
-19 3 -17 0.21 0.15
21 -3 17 0.02 0.2
-21 3 -17 -0.2 0.13
-45 -5 17 0.12 0.14
-43 -5 17 -0.12 0.14
-43 5 17 -0.13 0.13
-41 -5 17 0.05 0.16
-41 5 17 0.07 0.15
-39 -5 17 -0.08 0.16
-39 5 17 -0.17 0.14
-37 -5 17 0.09 0.17
-37 5 17 0.12 0.15
-35 -5 17 -0.16 0.15
-35 5 17 0.1 0.15
-33 -5 17 0.21 0.16
-33 5 17 0.23 0.16
-31 -5 17 -0.07 0.13
-31 5 17 -0.05 0.12
-29 -5 17 0.26 0.14
-29 5 17 0.46 0.14
-27 -5 17 1.61 0.21
-27 5 17 1.33 0.18
-25 -5 17 -0.03 0.12
-25 5 17 0.05 0.11
-23 -5 17 0.54 0.15
-23 5 17 0.71 0.27
-23 5 17 0.49 0.12
-21 -5 17 1.2 0.17
21 5 -17 1.18 0.21
-21 5 17 1.15 0.27
-19 5 17 2.35 0.34
19 5 -17 2.25 0.25
17 5 -17 20.24 1.01
-17 5 17 20.1 1.04
-15 -5 17 10.68 0.63
15 5 -17 10.79 0.6
-15 5 17 10.51 0.67
-13 -5 17 22.81 1.11
-13 5 17 23.91 1.15
13 5 -17 22.41 1.11
-11 -5 17 9.83 0.6
-11 5 17 9.16 0.6
11 5 -17 10.55 0.56
-9 -5 17 39.28 1.79
-9 5 17 40.61 1.82
9 5 -17 41.53 1.85
-7 -5 17 24.73 1.16
-7 5 17 23.13 1.16
7 5 -17 24.97 1.17
-5 -5 17 22.75 1.08
-5 5 17 22.77 1.09
5 5 -17 22.04 1.08
-3 -5 17 10.25 0.61
-3 5 17 10.21 0.56
3 5 -17 11.27 0.58
-3 5 17 11.19 0.63
-1 -5 17 2.47 0.29
-1 5 17 2.52 0.23
-1 5 17 2.99 0.33
1 5 -17 3.02 0.25
1 -5 17 2.59 0.3
1 5 17 2.64 0.3
-1 5 -17 2.61 0.28
1 5 17 2.65 0.23
-1 5 -17 2.73 0.23
3 -5 17 11.19 0.65
-3 5 -17 11.28 0.64
3 5 17 10.89 0.63
-3 5 -17 10.77 0.57
3 5 17 10.59 0.58
5 -5 17 24.43 1.14
5 5 17 22.14 1.08
-5 5 -17 23.13 1.16
5 5 17 22.52 1.1
-5 5 -17 21.74 1.07
7 -5 17 24.21 1.17
-7 5 -17 23.84 1.12
7 5 17 23.82 1.13
-7 5 -17 24.07 1.2
7 5 17 21.53 1.13
9 -5 17 41.36 1.83
-9 5 -17 39.1 1.89
9 5 17 39.21 1.81
9 5 17 38.45 1.78
-9 5 -17 40.12 1.81
11 -5 17 10.25 0.63
-11 5 -17 8.99 0.6
11 5 17 9.35 0.55
11 5 17 9.26 0.6
13 -5 17 20.93 1.1
-13 5 -17 20.51 1.1
13 5 17 21.5 1.07
13 5 17 21.46 1.05
15 -5 17 8.93 0.64
15 5 17 9.53 0.57
-15 5 -17 9.78 0.62
15 5 17 9.46 0.61
17 -5 17 16.05 0.96
17 5 17 18.19 0.9
-17 5 -17 16.25 0.94
19 -5 17 1.99 0.36
19 5 17 2.25 0.27
21 -5 17 0.75 0.27
-23 5 -17 0.3 0.17
-25 5 -17 0.05 0.15
-43 -7 17 0.07 0.15
-43 7 17 0.04 0.13
-41 -7 17 0.3 0.16
-41 7 17 0.11 0.15
-39 -7 17 -0.03 0.16
-39 7 17 0.14 0.16
-37 -7 17 -0.1 0.15
-37 7 17 0.16 0.16
-35 -7 17 0.18 0.17
-35 7 17 -0.02 0.15
-33 -7 17 0.34 0.17
-33 7 17 0.21 0.15
-31 -7 17 -0.14 0.14
-31 7 17 0.06 0.13
-29 -7 17 0.45 0.16
-29 7 17 0.47 0.15
-27 -7 17 4.34 0.36
-27 7 17 4.24 0.34
-25 -7 17 1 0.16
-25 7 17 1.27 0.33
-25 7 17 1.53 0.18
-23 -7 17 3.99 0.32
-23 7 17 3.8 0.46
-23 7 17 3.48 0.29
23 7 -17 3.79 0.37
-21 -7 17 0.07 0.1
-21 7 17 -0.2 0.18
21 7 -17 -0.14 0.13
-21 7 17 0.12 0.1
-19 -7 17 0.24 0.12
19 7 -17 0.23 0.15
-19 7 17 0 0.2
-17 7 17 11.69 0.74
17 7 -17 12.66 0.69
-15 -7 17 4.17 0.37
15 7 -17 4.37 0.35
-15 7 17 4.14 0.4
-13 -7 17 17 0.85
13 7 -17 16.02 0.84
-13 7 17 15.8 0.87
-11 -7 17 1.67 0.26
-11 7 17 1.66 0.27
11 7 -17 1.74 0.23
-9 -7 17 30.8 1.38
9 7 -17 29.09 1.4
-9 7 17 28.9 1.38
-7 -7 17 14.68 0.79
7 7 -17 15.12 0.78
-7 7 17 15.04 0.81
-5 -7 17 25.92 1.19
-5 7 17 23.41 1.18
-5 7 17 25.09 1.17
5 7 -17 24.52 1.18
-3 -7 17 11.73 0.67
-3 7 17 11.46 0.62
-3 7 17 12.71 0.68
3 7 -17 12.39 0.64
-1 -7 17 5.19 0.41
-1 7 17 5.46 0.36
1 7 -17 6.09 0.37
-1 7 17 5.86 0.43
1 -7 17 5.18 0.42
1 7 17 5.49 0.42
-1 7 -17 5.76 0.36
1 7 17 5.83 0.37
3 -7 17 11.19 0.67
-3 7 -17 12.14 0.69
3 7 17 12.06 0.66
-3 7 -17 11.38 0.61
5 -7 17 24.33 1.18
5 7 17 24.37 1.15
-5 7 -17 25.26 1.22
5 7 17 23.27 1.15
-5 7 -17 23.01 1.13
7 -7 17 14.99 0.81
7 7 17 14.1 0.78
-7 7 -17 14.25 0.81
7 7 17 14.54 0.75
9 -7 17 28.81 1.4
9 7 17 28.8 1.36
-9 7 -17 30.01 1.45
9 7 17 28.54 1.37
11 -7 17 1.71 0.29
-11 7 -17 1.9 0.27
11 7 17 1.8 0.23
11 7 17 1.54 0.25
13 -7 17 15.48 0.9
13 7 17 15.69 0.84
-13 7 -17 14.99 0.86
13 7 17 15.99 0.83
15 -7 17 3.67 0.45
-15 7 -17 3.85 0.37
15 7 17 4.09 0.35
17 -7 17 10.73 0.72
17 7 17 10.4 0.63
-17 7 -17 10.05 0.66
19 -7 17 0.36 0.22
-19 7 -17 0.11 0.15
19 7 17 -0.06 0.13
21 -7 17 0.22 0.12
21 -7 17 0.01 0.21
21 7 17 -0.16 0.13
23 -7 17 3.63 0.3
23 -7 17 3.49 0.47
25 -7 17 1.33 0.19
27 -7 17 4.23 0.34
-27 7 -17 4.25 0.43
-29 7 -17 0.57 0.14
-31 7 -17 -0.01 0.11
-33 7 -17 0 0.13
-43 -9 17 0.03 0.15
-43 9 17 0.01 0.12
-41 -9 17 0.3 0.17
-41 9 17 -0.07 0.14
-39 -9 17 0.19 0.17
-39 9 17 0.22 0.16
-37 -9 17 -0.08 0.15
-37 9 17 -0.1 0.14
-35 -9 17 -0.09 0.15
-35 9 17 -0.11 0.15
-33 -9 17 -0.04 0.15
-33 9 17 0.44 0.15
-31 -9 17 -0.11 0.14
-31 9 17 -0.12 0.13
-29 -9 17 0.5 0.17
-29 9 17 0.75 0.16
-27 -9 17 4.26 0.36
-27 9 17 3.67 0.32
-25 -9 17 0.46 0.15
-25 9 17 0.51 0.29
25 9 -17 0.59 0.21
-25 9 17 0.44 0.13
-23 -9 17 2.39 0.24
23 9 -17 1.96 0.28
-23 9 17 1.91 0.38
-21 -9 17 0.75 0.16
21 9 -17 1.09 0.22
-21 9 17 1.05 0.28
-19 -9 17 2.05 0.21
19 9 -17 1.85 0.26
-19 9 17 1.42 0.29
-17 9 17 18.93 1.06
17 9 -17 21.7 1.05
-15 9 17 7.66 0.55
15 9 -17 7.75 0.5
-13 -9 17 21.14 1.05
13 9 -17 21.28 1.06
-13 9 17 20.57 1.07
-11 -9 17 4.44 0.39
11 9 -17 4.16 0.35
-11 9 17 4 0.39
-9 -9 17 43.68 1.91
-9 9 17 41.91 1.92
9 9 -17 42.79 1.98
-7 -9 17 30.89 1.38
7 9 -17 28.04 1.39
-7 9 17 29.42 1.38
-5 -9 17 43.71 1.87
5 9 -17 39.99 1.91
-5 9 17 43.99 1.88
-5 9 17 40.51 1.89
-3 -9 17 18.51 0.93
3 9 -17 17.8 0.9
-3 9 17 19.04 0.93
-3 9 17 17.65 0.89
-1 -9 17 7.12 0.5
-1 9 17 8.15 0.51
1 9 -17 7.9 0.46
-1 9 17 7.38 0.45
1 -9 17 7.23 0.5
1 9 17 7.41 0.5
1 9 17 7.6 0.45
-1 9 -17 7.35 0.44
3 -9 17 18.6 0.94
-3 9 -17 18.33 0.97
-3 9 -17 16.96 0.87
3 9 17 17.63 0.89
3 9 17 18.43 0.91
5 -9 17 41.04 1.86
5 9 17 41.38 1.88
-5 9 -17 40.74 1.96
5 9 17 40.92 1.83
7 -9 17 29.76 1.42
7 9 17 28.86 1.4
-7 9 -17 29.95 1.48
7 9 17 30.34 1.39
9 -9 17 40.83 1.89
9 9 17 41.44 1.84
-9 9 -17 41.34 1.97
9 9 17 40.35 1.88
11 -9 17 4.06 0.41
-11 9 -17 3.55 0.37
11 9 17 3.87 0.33
11 9 17 3.6 0.36
13 -9 17 18.99 1.06
13 9 17 19.67 1
-13 9 -17 19.71 1.05
15 -9 17 6.7 0.58
15 9 17 7.77 0.5
-15 9 -17 7.79 0.54
17 -9 17 17.97 1.06
17 9 17 19.96 1
-17 9 -17 18.1 1.03
19 -9 17 1.27 0.31
19 9 17 1.66 0.25
-19 9 -17 1.23 0.24
21 -9 17 1.3 0.31
21 -9 17 0.79 0.15
-21 9 -17 0.66 0.23
21 9 17 1 0.23
23 -9 17 1.93 0.39
23 -9 17 1.58 0.19
23 9 17 2.1 0.31
25 -9 17 0.41 0.14
27 -9 17 3.94 0.35
29 -9 17 0.6 0.17
-31 9 -17 0.02 0.11
-33 9 -17 0.05 0.13
-35 9 -17 0 0.13
-37 9 -17 -0.29 0.13
-43 -11 17 0.01 0.16
-41 -11 17 0.21 0.17
-41 11 17 0.33 0.15
-39 -11 17 -0.05 0.16
-39 11 17 0.19 0.15
-37 -11 17 -0.03 0.15
-37 11 17 0.08 0.15
-35 -11 17 0.26 0.16
-35 11 17 -0.05 0.15
-33 -11 17 -0.06 0.15
-33 11 17 0.22 0.15
-31 -11 17 -0.1 0.15
-31 11 17 0.04 0.13
-29 -11 17 0.12 0.15
-29 11 17 0.15 0.12
-27 -11 17 4.83 0.39
-27 11 17 4.74 0.36
-27 11 17 4.16 0.53
-25 -11 17 0.57 0.16
-25 11 17 0.45 0.3
25 11 -17 0.8 0.23
-23 -11 17 4.46 0.37
23 11 -17 5.44 0.45
-23 11 17 5.04 0.56
-21 -11 17 0.24 0.13
-21 11 17 0.32 0.25
21 11 -17 0.23 0.17
-19 -11 17 0.37 0.14
19 11 -17 0.37 0.18
-19 11 17 0.42 0.23
-17 -11 17 8.65 0.49
17 11 -17 8.59 0.55
-17 11 17 7.26 0.58
-15 11 17 2.04 0.32
15 11 -17 2.03 0.26
-13 11 17 6.94 0.52
13 11 -17 7.17 0.49
-11 -11 17 0.07 0.17
-11 11 17 0.27 0.2
11 11 -17 0.2 0.14
-9 -11 17 4.23 0.38
9 11 -17 3.75 0.34
-9 11 17 3.76 0.38
-7 -11 17 1.76 0.26
-7 11 17 1.52 0.29
7 11 -17 1.81 0.23
-7 11 17 1.92 0.21
-5 -11 17 9.75 0.61
-5 11 17 11.17 0.57
-5 11 17 10.08 0.62
5 11 -17 9.8 0.58
-3 -11 17 3.58 0.36
-3 11 17 3.09 0.27
3 11 -17 3.36 0.29
-3 11 17 3.91 0.36
-1 -11 17 4.33 0.4
-1 11 17 4.5 0.39
-1 11 17 4.48 0.32
1 11 -17 4.04 0.31
1 -11 17 4.02 0.38
1 11 17 4.42 0.39
1 11 17 3.97 0.31
-1 11 -17 4.53 0.31
3 -11 17 3.33 0.37
3 11 17 3.63 0.29
3 11 17 3.22 0.33
-3 11 -17 3.21 0.35
5 -11 17 9.78 0.61
5 11 17 9.23 0.54
-5 11 -17 9.15 0.6
5 11 17 9.19 0.58
7 -11 17 1.76 0.3
-7 11 -17 1.64 0.24
7 11 17 1.6 0.21
7 11 17 2.33 0.3
9 -11 17 3.48 0.4
-9 11 -17 3.91 0.38
9 11 17 4.27 0.34
9 11 17 4.42 0.37
11 -11 17 -0.02 0.17
-11 11 -17 0.37 0.17
11 11 17 0.1 0.13
13 -11 17 6.25 0.54
13 11 17 7.17 0.48
-13 11 -17 6.79 0.51
15 -11 17 1.83 0.35
15 11 17 1.59 0.24
-15 11 -17 1.6 0.26
17 -11 17 7.53 0.62
17 11 17 7.15 0.51
-17 11 -17 6.39 0.53
19 -11 17 0.37 0.13
19 -11 17 0.21 0.22
-19 11 -17 0.05 0.17
19 11 17 0.22 0.16
21 -11 17 0.39 0.24
21 -11 17 0.39 0.13
-21 11 -17 -0.01 0.17
21 11 17 0.02 0.16
23 -11 17 3.43 0.49
23 -11 17 3.33 0.3
23 11 17 3.72 0.41
25 -11 17 0.59 0.14
25 11 17 0.33 0.21
27 -11 17 4.08 0.37
29 -11 17 -0.1 0.13
-31 11 -17 -0.13 0.11
-33 11 -17 0.15 0.14
-35 11 -17 0.17 0.14
-37 11 -17 -0.05 0.14
-39 11 -17 0.17 0.14
-43 -13 17 -0.11 0.15
-41 -13 17 0.13 0.17
-41 13 17 0.26 0.14
-39 -13 17 -0.08 0.17
-39 13 17 0.15 0.14
-37 -13 17 -0.09 0.17
-37 13 17 -0.02 0.14
-35 -13 17 0.35 0.17
-35 13 17 0.42 0.17
-33 -13 17 -0.04 0.15
-33 13 17 0.02 0.14
-31 -13 17 0.02 0.15
-31 13 17 -0.18 0.13
-29 -13 17 0.02 0.14
-27 -13 17 4.41 0.38
27 13 -17 4.46 0.47
-25 -13 17 0.05 0.14
-25 13 17 0.18 0.27
25 13 -17 0.12 0.18
-23 -13 17 0.99 0.18
-23 13 17 1.13 0.33
23 13 -17 1.52 0.27
-21 -13 17 0.75 0.17
-21 13 17 0.79 0.3
21 13 -17 0.93 0.23
-19 -13 17 1.69 0.21
19 13 -17 2.15 0.3
-19 13 17 1.76 0.32
-17 -13 17 15.83 0.83
17 13 -17 17.25 0.9
-17 13 17 15.85 0.93
-15 -13 17 9.61 0.54
-15 13 17 8.67 0.63
15 13 -17 9.83 0.6
-13 13 17 16.01 0.9
13 13 -17 16.61 0.88
-11 13 17 7.34 0.53
11 13 -17 7.52 0.51
-9 -13 17 19.69 0.99
-9 13 17 19.87 1.02
9 13 -17 19.03 1
-7 -13 17 17.85 0.86
7 13 -17 14.07 0.81
-7 13 17 15.7 0.85
-7 13 17 15.16 0.79
-5 -13 17 23.23 1.09
-5 13 17 22.13 1.09
-5 13 17 20.85 1.04
5 13 -17 20.46 1.06
-3 -13 17 8.89 0.55
-3 13 17 8.61 0.54
-3 13 17 7.22 0.46
3 13 -17 7.43 0.47
-1 -13 17 6.17 0.49
-1 13 17 5.81 0.39
-1 13 17 6.33 0.48
1 13 -17 6.25 0.4
1 -13 17 6.28 0.48
1 13 17 6.32 0.46
-1 13 -17 6.55 0.41
1 13 17 5.9 0.4
3 -13 17 8.32 0.56
3 13 17 8.47 0.55
3 13 17 7.79 0.48
5 -13 17 21.13 1.11
-5 13 -17 22.52 1.15
5 13 17 20.56 1.05
5 13 17 22.49 1.08
7 -13 17 15.51 0.9
7 13 17 16.36 0.84
-7 13 -17 16.11 0.9
7 13 17 15.68 0.82
9 -13 17 18.95 1.05
-9 13 -17 20.31 1.07
9 13 17 19.44 0.99
11 -13 17 7.42 0.58
11 13 17 6.79 0.46
-11 13 -17 6.69 0.51
13 -13 17 14.2 0.9
13 13 17 15.32 0.81
-13 13 -17 14.31 0.86
15 -13 17 9.21 0.69
-15 13 -17 8.55 0.6
15 13 17 8.76 0.57
17 -13 17 13.53 0.72
17 -13 17 14.23 0.9
17 13 17 14.8 0.81
-17 13 -17 13.43 0.83
19 -13 17 1.74 0.39
19 -13 17 1.51 0.19
19 13 17 1.85 0.28
-19 13 -17 1.49 0.27
21 -13 17 0.63 0.14
21 -13 17 0.3 0.28
-21 13 -17 0.62 0.22
21 13 17 0.74 0.22
23 -13 17 1.41 0.39
23 -13 17 1.13 0.18
-23 13 -17 1.44 0.29
23 13 17 0.74 0.24
25 -13 17 -0.06 0.13
25 13 17 0.13 0.19
27 -13 17 3.4 0.33
27 13 17 3.33 0.46
29 -13 17 -0.08 0.14
31 -13 17 0 0.15
-33 13 -17 -0.08 0.12
-35 13 -17 0.46 0.15
-37 13 -17 0.03 0.14
-39 13 -17 0.14 0.14
-41 13 -17 -0.02 0.13
-41 -15 17 -0.29 0.15
-39 -15 17 0.37 0.19
-37 -15 17 -0.2 0.17
-35 -15 17 0.35 0.19
-33 -15 17 -0.15 0.17
-31 -15 17 0.33 0.17
-29 -15 17 -0.19 0.14
-27 -15 17 3.31 0.35
27 15 -17 3.1 0.39
-25 -15 17 0.03 0.15
-25 15 17 0.23 0.24
25 15 -17 0.09 0.19
-23 -15 17 1.15 0.19
-23 15 17 1.82 0.38
23 15 -17 1.43 0.28
-21 -15 17 0.36 0.16
21 15 -17 0.19 0.18
-21 15 17 0.56 0.26
-19 -15 17 0.19 0.14
19 15 -17 0.14 0.16
-19 15 17 0.23 0.23
-17 -15 17 9.17 0.54
-17 15 17 8.42 0.65
17 15 -17 9.37 0.6
-15 -15 17 5.27 0.37
-15 15 17 3.75 0.45
15 15 -17 4.89 0.42
-13 -15 17 9.32 0.54
13 15 -17 10.05 0.61
-13 15 17 8.8 0.65
-11 15 17 1.71 0.29
11 15 -17 1.93 0.27
-9 15 17 6.95 0.45
9 15 -17 7.51 0.49
-9 15 17 8.01 0.54
-7 -15 17 4.07 0.38
-7 15 17 4.2 0.32
-7 15 17 4.4 0.4
7 15 -17 3.51 0.33
-5 -15 17 10.73 0.63
-5 15 17 9.56 0.54
5 15 -17 8.89 0.56
-5 15 17 9.82 0.63
-3 -15 17 3.18 0.37
3 15 -17 3.32 0.29
-3 15 17 3.31 0.37
-3 15 17 3.2 0.27
-1 -15 17 4.73 0.42
-1 15 17 4.45 0.42
1 15 -17 4.52 0.33
-1 15 17 4.83 0.34
1 -15 17 4.27 0.42
1 15 17 4.79 0.44
1 15 17 5.01 0.35
3 -15 17 3.48 0.39
3 15 17 3.77 0.3
3 15 17 3.19 0.36
5 -15 17 9.85 0.65
5 15 17 9.49 0.56
-5 15 -17 9.73 0.64
5 15 17 10.38 0.61
7 -15 17 3.72 0.42
-7 15 -17 4.13 0.38
7 15 17 3.98 0.32
7 15 17 3.66 0.41
9 -15 17 7.62 0.58
-9 15 -17 7.08 0.54
9 15 17 7.94 0.49
11 -15 17 1.64 0.31
11 15 17 1.72 0.23
-11 15 -17 1.54 0.25
13 -15 17 7.7 0.63
-13 15 -17 8.92 0.61
13 15 17 9.17 0.56
15 -15 17 3.6 0.48
15 -15 17 4 0.32
-15 15 -17 4.19 0.42
15 15 17 4.56 0.38
17 -15 17 7.69 0.48
17 -15 17 8.41 0.7
-17 15 -17 7.85 0.6
17 15 17 8.49 0.56
19 -15 17 0.28 0.14
19 -15 17 0.34 0.25
19 15 17 0.08 0.16
-19 15 -17 0.1 0.18
21 -15 17 0.41 0.15
21 -15 17 0.43 0.27
-21 15 -17 0.2 0.19
21 15 17 0.14 0.18
23 -15 17 0.96 0.18
23 15 17 1.13 0.26
-23 15 -17 1.04 0.29
25 -15 17 0.01 0.14
25 15 17 0.09 0.19
27 -15 17 1.83 0.23
27 15 17 3.39 0.42
29 -15 17 -0.04 0.14
31 -15 17 0.14 0.15
-33 15 -17 0.17 0.13
-35 15 -17 0.25 0.14
-37 15 -17 -0.06 0.13
-39 15 -17 0.18 0.15
-41 15 -17 -0.17 0.12
-41 -17 17 -0.38 0.15
-39 -17 17 0.32 0.18
-37 -17 17 -0.1 0.18
-35 -17 17 0.64 0.22
-33 -17 17 -0.06 0.18
-31 -17 17 -0.12 0.16
-29 -17 17 0.18 0.17
29 17 -17 0.31 0.23
-27 -17 17 0.55 0.18
27 17 -17 0.49 0.24
-25 -17 17 0.1 0.15
25 17 -17 0.12 0.2
-23 -17 17 -0.12 0.14
-23 17 17 0.21 0.25
23 17 -17 -0.14 0.17
-21 -17 17 0.66 0.17
21 17 -17 0.88 0.24
-21 17 17 0.87 0.3
-19 -17 17 1.98 0.23
-19 17 17 2.43 0.42
19 17 -17 2.33 0.3
-17 -17 17 10.02 0.59
-17 17 17 9.95 0.74
17 17 -17 11.25 0.68
-15 -17 17 9.34 0.56
-15 17 17 7.87 0.66
15 17 -17 10.25 0.62
-13 -17 17 15.72 0.81
13 17 -17 16.03 0.87
-13 17 17 14.85 0.89
-11 -17 17 8.54 0.51
11 17 -17 8.08 0.55
-11 17 17 7.68 0.58
-9 17 17 19.37 1.04
-9 17 17 18.99 0.97
9 17 -17 20.13 1.02
-7 -17 17 11.05 0.67
7 17 -17 10.71 0.64
-7 17 17 11.41 0.7
-7 17 17 10.46 0.6
-5 -17 17 18.97 0.97
-5 17 17 17.99 0.91
-5 17 17 18.41 0.98
5 17 -17 17.23 0.92
-3 -17 17 3.75 0.42
-3 17 17 3.99 0.4
3 17 -17 3.86 0.32
-3 17 17 4.08 0.32
-1 -17 17 5.84 0.51
-1 17 17 5.6 0.47
1 17 -17 6.34 0.42
-1 17 17 6.71 0.42
1 -17 17 6.1 0.5
1 17 17 6.06 0.47
1 17 17 5.87 0.4
3 -17 17 3.52 0.41
3 17 17 4.01 0.4
3 17 17 3.85 0.32
5 -17 17 18.49 1
5 17 17 18.31 0.94
-5 17 -17 17.57 1
5 17 17 17.66 0.91
7 -17 17 11.57 0.74
7 17 17 10.29 0.62
-7 17 -17 12.09 0.72
9 -17 17 18.82 1.05
-9 17 -17 18.23 1.04
9 17 17 19.18 0.97
11 -17 17 7 0.6
11 -17 17 6.54 0.43
11 17 17 8.05 0.5
-11 17 -17 7.33 0.56
13 -17 17 13.84 0.89
13 -17 17 13.35 0.73
13 17 17 15.07 0.8
-13 17 -17 14.62 0.87
15 -17 17 8.06 0.49
15 -17 17 7.49 0.65
15 17 17 8.75 0.57
-15 17 -17 7.93 0.61
17 -17 17 9.27 0.75
17 -17 17 9.23 0.54
17 17 17 9 0.6
-17 17 -17 7.95 0.64
19 -17 17 1.93 0.22
19 -17 17 1.96 0.4
-19 17 -17 1.77 0.32
19 17 17 2.12 0.31
21 -17 17 0.78 0.18
-21 17 -17 0.38 0.23
21 17 17 0.87 0.23
23 -17 17 0 0.15
23 17 17 -0.2 0.17
-23 17 -17 -0.13 0.19
25 -17 17 -0.12 0.15
25 17 17 0.31 0.21
-25 17 -17 0.18 0.24
27 -17 17 0.31 0.16
27 17 17 0.35 0.22
29 -17 17 -0.06 0.16
31 -17 17 0.11 0.16
-33 17 -17 0.14 0.13
-35 17 -17 0.54 0.16
-37 17 -17 0.08 0.13
-39 17 -17 0.51 0.15
-41 17 -17 -0.15 0.12
-39 -19 17 0.09 0.16
-37 -19 17 -0.24 0.16
-35 -19 17 0.2 0.18
-33 -19 17 -0.28 0.18
-31 -19 17 -0.13 0.18
-29 -19 17 0.24 0.18
-27 -19 17 0.21 0.17
27 19 -17 0.26 0.21
-25 -19 17 0.06 0.15
25 19 -17 -0.08 0.19
-23 -19 17 -0.02 0.15
23 19 -17 0.18 0.2
-21 -19 17 0.54 0.18
-21 19 17 0.28 0.27
21 19 -17 0.23 0.2
-19 -19 17 -0.1 0.14
-19 19 17 -0.22 0.21
19 19 -17 -0.26 0.15
-17 -19 17 2.54 0.26
17 19 -17 2.3 0.31
-17 19 17 1.75 0.35
-15 -19 17 0.12 0.15
15 19 -17 0.43 0.18
-15 19 17 0.24 0.23
-13 -19 17 1.36 0.2
-13 19 17 1.68 0.32
13 19 -17 1.8 0.27
-11 -19 17 0.19 0.14
-11 19 17 0.2 0.23
11 19 -17 0.55 0.17
-9 -19 17 1.47 0.2
9 19 -17 1.63 0.24
-9 19 17 1.64 0.3
-9 19 17 1.62 0.22
-7 -19 17 0.42 0.15
-7 19 17 0.21 0.2
-7 19 17 0.01 0.11
7 19 -17 0.28 0.15
-5 -19 17 1.89 0.31
-5 -19 17 1.92 0.24
-5 19 17 2.26 0.25
-5 19 17 2.55 0.35
5 19 -17 2.51 0.28
-3 -19 17 0.32 0.22
3 19 -17 0.12 0.13
-3 19 17 0.34 0.13
-3 19 17 0.59 0.23
-1 -19 17 1.3 0.29
1 19 -17 1.28 0.2
-1 19 17 0.97 0.25
-1 19 17 1.09 0.18
1 -19 17 1.02 0.28
1 19 17 1.31 0.19
1 19 17 1.48 0.3
3 -19 17 0.21 0.23
3 19 17 0.2 0.2
3 19 17 0.56 0.14
5 -19 17 1.99 0.24
5 -19 17 2 0.35
-5 19 -17 1.98 0.3
5 19 17 2.65 0.27
7 -19 17 0.18 0.21
7 -19 17 0.26 0.15
7 19 17 -0.06 0.11
-7 19 -17 0.27 0.16
9 -19 17 1.1 0.18
9 -19 17 1.56 0.31
-9 19 -17 1.45 0.26
9 19 17 1.5 0.21
11 -19 17 0.36 0.13
11 -19 17 0.17 0.2
11 19 17 0.21 0.13
-11 19 -17 0.22 0.17
13 -19 17 1.58 0.21
13 -19 17 1.67 0.34
-13 19 -17 1.71 0.3
13 19 17 1.99 0.26
15 -19 17 0.13 0.26
15 -19 17 0.29 0.13
15 19 17 0.13 0.15
-15 19 -17 0.41 0.19
17 -19 17 2.08 0.42
17 -19 17 2.31 0.25
17 -19 17 2.18 0.24
-17 19 -17 2.34 0.36
17 19 17 2.36 0.31
19 -19 17 -0.01 0.13
19 -19 17 -0.56 0.24
19 -19 17 0.08 0.15
19 19 17 -0.09 0.15
-19 19 -17 -0.18 0.17
21 -19 17 0.44 0.18
-21 19 -17 0.5 0.24
21 19 17 0.41 0.21
23 -19 17 -0.18 0.15
23 19 17 0.04 0.18
-23 19 -17 0.03 0.2
25 -19 17 -0.16 0.15
25 19 17 0.14 0.19
27 -19 17 0.11 0.16
27 19 17 0.04 0.2
29 -19 17 0.21 0.17
31 -19 17 0.2 0.17
-33 19 -17 0.09 0.14
-35 19 -17 0.06 0.14
-37 19 -17 0.07 0.13
-39 19 -17 0.23 0.14
-39 -21 17 0.03 0.15
-37 -21 17 -0.24 0.15
-35 -21 17 -0.05 0.19
-33 -21 17 0.03 0.18
-31 -21 17 -0.25 0.17
-29 -21 17 0.49 0.19
-27 -21 17 0.2 0.17
27 21 -17 0.21 0.21
-25 -21 17 0.54 0.19
25 21 -17 0.73 0.23
-23 -21 17 0.32 0.17
23 21 -17 0.26 0.21
-21 -21 17 0.17 0.17
21 21 -17 0.35 0.21
-19 -21 17 0.32 0.16
19 21 -17 0.26 0.19
-19 21 17 0.32 0.27
-17 -21 17 0.83 0.19
17 21 -17 1.24 0.25
-17 21 17 0.85 0.3
-15 -21 17 0.16 0.15
15 21 -17 0.21 0.17
-15 21 17 0.32 0.25
-13 -21 17 1.1 0.2
13 21 -17 0.5 0.19
-13 21 17 1.01 0.3
-11 -21 17 0.16 0.14
-11 21 17 0 0.22
-11 21 17 0.2 0.13
11 21 -17 0.45 0.17
-9 -21 17 0.9 0.18
-9 21 17 0.47 0.26
-9 21 17 0.97 0.18
9 21 -17 1.03 0.22
-7 -21 17 -0.11 0.11
-7 21 17 0.17 0.22
-7 21 17 0.07 0.12
7 21 -17 0.16 0.14
-5 -21 17 1.5 0.2
-5 21 17 0.95 0.28
5 21 -17 1.19 0.21
-5 21 17 1.28 0.2
-3 -21 17 0.2 0.15
-3 -21 17 -0.02 0.19
-3 21 17 -0.05 0.11
-3 21 17 -0.17 0.19
3 21 -17 0.04 0.13
-1 -21 17 0.67 0.18
-1 -21 17 0.46 0.24
-1 21 17 0.91 0.26
-1 21 17 0.96 0.18
1 -21 17 0.52 0.25
1 -21 17 0.77 0.18
1 21 17 0.71 0.25
1 21 17 0.87 0.17
3 -21 17 -0.21 0.2
3 -21 17 -0.11 0.13
3 21 17 -0.01 0.11
5 -21 17 1.2 0.3
5 -21 17 0.9 0.17
5 21 17 1.33 0.21
-5 21 -17 1.18 0.25
7 -21 17 -0.06 0.13
7 -21 17 -0.03 0.2
7 21 17 0.04 0.11
-7 21 -17 0.14 0.16
9 -21 17 0.65 0.25
9 -21 17 0.7 0.17
9 21 17 0.84 0.18
-9 21 -17 0.77 0.21
11 -21 17 0.18 0.14
11 -21 17 0.18 0.24
-11 21 -17 0.1 0.16
11 21 17 0.13 0.13
13 -21 17 0.92 0.28
13 -21 17 0.64 0.17
13 21 17 0.98 0.2
-13 21 -17 0.72 0.24
15 -21 17 0.34 0.24
15 -21 17 0.19 0.14
-15 21 -17 0.17 0.18
15 21 17 0.11 0.15
17 -21 17 0.21 0.31
17 -21 17 0.93 0.19
17 21 17 0.78 0.22
-17 21 -17 0.79 0.24
19 -21 17 0.62 0.18
19 21 17 0.19 0.18
-19 21 -17 -0.12 0.18
21 -21 17 0.63 0.19
21 21 17 0.57 0.22
-21 21 -17 0.54 0.24
23 -21 17 0.17 0.17
23 21 17 0.26 0.21
25 -21 17 0.22 0.17
25 21 17 0.24 0.22
27 -21 17 -0.14 0.16
27 21 17 -0.06 0.2
29 -21 17 0.53 0.19
31 -21 17 0.3 0.18
-33 21 -17 0.33 0.15
-35 21 -17 0.12 0.14
-37 21 -17 -0.03 0.12
-39 21 -17 0.04 0.13
-37 -23 17 -0.09 0.15
-35 -23 17 0.03 0.18
-33 -23 17 0.12 0.18
-31 -23 17 -0.13 0.17
-29 -23 17 0.62 0.2
-27 -23 17 0.12 0.16
-25 -23 17 0.18 0.16
25 23 -17 0.38 0.21
-23 -23 17 0 0.15
23 23 -17 -0.14 0.17
-21 -23 17 0.61 0.18
21 23 -17 0.59 0.22
-19 -23 17 0.14 0.16
19 23 -17 0.1 0.17
-17 -23 17 -0.1 0.14
17 23 -17 -0.28 0.14
-17 23 17 -0.02 0.26
-15 -23 17 1.4 0.22
-15 23 17 1.77 0.39
15 23 -17 1.68 0.27
-13 -23 17 1.19 0.21
-13 23 17 1.18 0.32
13 23 -17 1.04 0.24
-11 -23 17 4.83 0.39
-11 23 17 4.85 0.38
11 23 -17 4.25 0.41
-11 23 17 4.02 0.5
-9 -23 17 2.03 0.25
-9 23 17 1.96 0.25
9 23 -17 1.95 0.28
-9 23 17 2.26 0.38
-7 -23 17 4 0.36
-7 23 17 3.55 0.33
-7 23 17 3.25 0.43
7 23 -17 3.54 0.35
-5 -23 17 0.26 0.15
-5 23 17 0.78 0.25
-3 -23 17 1.85 0.23
-3 23 17 2.3 0.35
-1 -23 17 -0.01 0.22
-1 -23 17 0.06 0.15
-1 23 17 -0.25 0.18
1 -23 17 0.02 0.14
1 -23 17 0.08 0.2
3 -23 17 1.52 0.33
3 -23 17 1.97 0.24
3 23 17 2.17 0.25
5 -23 17 0.18 0.16
5 -23 17 0.37 0.26
-5 23 -17 0.24 0.19
5 23 17 0.41 0.15
7 -23 17 3.58 0.36
7 -23 17 3.34 0.46
7 23 17 3.94 0.34
-7 23 -17 3.09 0.38
9 -23 17 1.5 0.21
9 -23 17 1.7 0.34
9 23 17 1.7 0.25
-9 23 -17 1.61 0.31
11 -23 17 4.23 0.37
11 -23 17 3.74 0.48
11 23 17 3.81 0.36
-11 23 -17 3.57 0.42
13 -23 17 0.91 0.19
13 -23 17 1.1 0.32
13 23 17 1.18 0.23
-13 23 -17 1.36 0.29
15 -23 17 0.98 0.19
-15 23 -17 1.23 0.29
15 23 17 1.7 0.26
17 -23 17 0.14 0.16
17 23 17 0.07 0.15
-17 23 -17 -0.16 0.18
19 -23 17 0.21 0.17
19 23 17 -0.05 0.17
-19 23 -17 0.18 0.24
21 -23 17 0.16 0.17
21 23 17 0.24 0.2
23 -23 17 0.03 0.17
23 23 17 -0.12 0.19
25 -23 17 0.19 0.17
25 23 17 0 0.2
27 -23 17 -0.17 0.16
29 -23 17 0.45 0.19
31 -23 17 0.2 0.18
-33 23 -17 0.02 0.14
-35 23 -17 -0.12 0.12
-37 23 -17 0.17 0.12
-37 -25 17 0.06 0.14
-35 -25 17 -0.02 0.16
-33 -25 17 0.12 0.17
-31 -25 17 0.11 0.19
-29 -25 17 0.8 0.21
-27 -25 17 0.08 0.18
-25 -25 17 0.7 0.21
-23 -25 17 0.31 0.17
23 25 -17 0.3 0.2
-21 -25 17 0.36 0.17
21 25 -17 0.4 0.21
-19 -25 17 0.13 0.15
19 25 -17 -0.12 0.16
-17 -25 17 0.25 0.16
17 25 -17 0.06 0.17
-15 -25 17 0.24 0.14
15 25 -17 0.06 0.16
-13 -25 17 0.05 0.14
13 25 -17 0.28 0.18
-13 25 17 0.03 0.26
-11 -25 17 0.57 0.18
-11 25 17 0.64 0.19
-11 25 17 0.86 0.31
11 25 -17 0.64 0.21
-9 -25 17 0.38 0.17
9 25 -17 0.51 0.2
-9 25 17 0.39 0.27
-7 -25 17 0.98 0.18
-7 25 17 1.38 0.35
-5 -25 17 -0.09 0.12
-5 25 17 -0.1 0.22
-3 -25 17 1.65 0.24
-3 25 17 1.81 0.37
-1 -25 17 0.28 0.16
1 -25 17 0.3 0.25
1 -25 17 0.32 0.14
3 -25 17 1.46 0.22
3 -25 17 1.58 0.34
-3 25 -17 1.56 0.29
5 -25 17 -0.17 0.14
5 -25 17 -0.45 0.19
-5 25 -17 -0.17 0.14
5 25 17 0 0.13
7 -25 17 1.33 0.33
7 -25 17 1.18 0.2
-7 25 -17 1.38 0.28
7 25 17 1.76 0.25
9 -25 17 0.47 0.25
9 -25 17 0.29 0.14
9 25 17 0.42 0.17
-9 25 -17 0.47 0.22
11 -25 17 0.53 0.29
11 -25 17 0.18 0.17
11 25 17 0.45 0.18
-11 25 -17 0.47 0.21
13 -25 17 0.1 0.16
13 25 17 -0.15 0.13
-13 25 -17 -0.05 0.17
15 -25 17 0.2 0.17
-15 25 -17 0.06 0.19
15 25 17 0.09 0.15
17 -25 17 0.1 0.17
17 25 17 0.05 0.16
19 -25 17 0.05 0.16
19 25 17 0.11 0.18
21 -25 17 0.18 0.18
21 25 17 0.25 0.21
23 -25 17 0.49 0.19
23 25 17 0.32 0.23
25 -25 17 0.56 0.2
27 -25 17 0.35 0.19
29 -25 17 0.49 0.2
31 -25 17 0.17 0.18
-33 25 -17 0.06 0.13
-35 25 -17 0.05 0.12
-37 25 -17 0.08 0.11
-35 -27 17 0.05 0.15
-33 -27 17 -0.07 0.16
-31 -27 17 -0.22 0.16
-29 -27 17 0.19 0.19
-27 -27 17 -0.04 0.18
-25 -27 17 0.17 0.19
-23 -27 17 0.15 0.18
-21 -27 17 -0.15 0.15
21 27 -17 -0.13 0.17
-19 -27 17 0.26 0.16
19 27 -17 0.22 0.18
-17 -27 17 0.56 0.18
17 27 -17 0.57 0.21
-15 -27 17 3.28 0.36
15 27 -17 3.18 0.37
-13 -27 17 4.19 0.4
13 27 -17 4.16 0.43
-11 -27 17 5.08 0.42
11 27 -17 4.15 0.45
-11 27 17 4.83 0.56
-9 -27 17 4.03 0.39
-9 27 17 4.39 0.53
-7 -27 17 4.68 0.41
-7 27 17 4.63 0.53
-5 -27 17 1.45 0.23
-5 27 17 1.52 0.35
-3 -27 17 3.54 0.37
-1 -27 17 0.13 0.15
1 -27 17 0.12 0.15
3 -27 17 2.75 0.3
3 -27 17 2.98 0.46
-3 27 -17 2.47 0.37
5 -27 17 1.13 0.2
5 -27 17 0.94 0.34
-5 27 -17 1.48 0.28
7 -27 17 3.9 0.38
-7 27 -17 3.09 0.41
9 -27 17 4 0.39
9 27 17 4.05 0.39
-9 27 -17 3.4 0.44
11 -27 17 4.92 0.42
-11 27 -17 3.97 0.48
11 27 17 3.83 0.4
13 -27 17 4.22 0.4
-13 27 -17 4.44 0.49
13 27 17 3.79 0.41
15 -27 17 2.48 0.3
15 27 17 2.74 0.35
17 -27 17 0.68 0.2
17 27 17 0.39 0.2
19 -27 17 0.21 0.18
19 27 17 0.17 0.19
21 -27 17 0.13 0.18
21 27 17 -0.27 0.16
23 -27 17 0.12 0.19
25 -27 17 0.33 0.19
27 -27 17 0.05 0.18
29 -27 17 0.15 0.18
31 -27 17 0.09 0.18
-33 27 -17 0.01 0.12
-35 27 -17 0.01 0.12
-33 -29 17 -0.05 0.15
-31 -29 17 0.07 0.17
-29 -29 17 0.35 0.18
-27 -29 17 0.19 0.19
-25 -29 17 0.65 0.21
-23 -29 17 0.3 0.2
-21 -29 17 0.67 0.2
-19 -29 17 0.12 0.17
-17 -29 17 0.13 0.17
17 29 -17 0.02 0.17
-15 -29 17 -0.09 0.15
15 29 -17 -0.03 0.16
-13 -29 17 -0.02 0.14
13 29 -17 -0.16 0.15
-11 -29 17 -0.02 0.14
11 29 -17 -0.06 0.16
-9 -29 17 0.48 0.18
-7 -29 17 0.39 0.18
-5 -29 17 0.41 0.17
-3 -29 17 0.62 0.18
-1 -29 17 0 0.13
1 -29 17 0.09 0.16
-1 29 -17 0.02 0.17
3 -29 17 0.45 0.19
-3 29 -17 0.55 0.22
5 -29 17 0.52 0.19
-5 29 -17 0.53 0.22
7 -29 17 0.47 0.17
-7 29 -17 0.7 0.25
9 -29 17 0.38 0.19
9 29 17 0.47 0.19
11 -29 17 0.1 0.17
11 29 17 0.09 0.16
13 -29 17 -0.11 0.16
13 29 17 0.01 0.16
15 -29 17 -0.05 0.18
15 29 17 0.14 0.17
17 -29 17 0.22 0.19
17 29 17 0.08 0.18
19 -29 17 0.03 0.18
21 -29 17 0.41 0.21
23 -29 17 0.55 0.2
25 -29 17 0.45 0.2
27 -29 17 0.2 0.19
29 -29 17 0.37 0.19
31 -29 17 -0.07 0.16
-33 29 -17 0.03 0.12
-31 -31 17 -0.14 0.14
-29 -31 17 -0.03 0.16
-27 -31 17 -0.04 0.17
-25 -31 17 0.19 0.19
-23 -31 17 0.21 0.19
-21 -31 17 -0.18 0.17
-19 -31 17 -0.05 0.17
-17 -31 17 0 0.17
-15 -31 17 0.05 0.17
-13 -31 17 0.03 0.16
13 31 -17 0.07 0.18
-11 -31 17 0.07 0.17
-9 -31 17 0.02 0.15
-7 -31 17 0.05 0.15
-5 -31 17 -0.03 0.15
-3 -31 17 0.19 0.16
-1 -31 17 0.13 0.16
1 -31 17 0.21 0.17
3 -31 17 0.17 0.17
5 -31 17 -0.11 0.16
7 -31 17 -0.17 0.16
9 -31 17 -0.18 0.16
11 -31 17 0 0.17
11 31 17 0.08 0.16
13 -31 17 -0.17 0.17
13 31 17 0.03 0.16
15 -31 17 -0.09 0.18
15 31 17 0.1 0.2
17 -31 17 0.12 0.19
19 -31 17 0.06 0.19
21 -31 17 0 0.19
23 -31 17 -0.27 0.18
25 -31 17 -0.19 0.18
27 -31 17 -0.14 0.18
29 -31 17 -0.14 0.16
31 -31 17 -0.11 0.16
-33 31 -17 -0.06 0.11
-29 -33 17 -0.09 0.14
-27 -33 17 -0.06 0.15
-25 -33 17 0 0.17
-23 -33 17 0.21 0.18
-21 -33 17 0.15 0.19
-19 -33 17 -0.16 0.18
-17 -33 17 -0.32 0.18
-15 -33 17 -0.27 0.17
-13 -33 17 -0.05 0.17
-11 -33 17 -0.01 0.16
-9 -33 17 0.11 0.17
-7 -33 17 0.28 0.17
-5 -33 17 0.3 0.17
-3 -33 17 0.17 0.16
-1 -33 17 -0.06 0.16
1 -33 17 0.17 0.17
3 -33 17 0.11 0.18
5 -33 17 0.24 0.19
7 -33 17 0.3 0.19
9 -33 17 0.24 0.19
11 -33 17 0.09 0.18
13 -33 17 -0.06 0.18
15 -33 17 0.02 0.19
17 -33 17 -0.12 0.18
19 -33 17 -0.27 0.19
21 -33 17 0.16 0.2
23 -33 17 -0.09 0.19
25 -33 17 -0.12 0.18
27 -33 17 -0.17 0.16
29 -33 17 -0.17 0.15
-31 33 -17 -0.06 0.1
-25 -35 17 -0.24 0.13
-23 -35 17 -0.1 0.15
-21 -35 17 -0.12 0.16
-19 -35 17 -0.02 0.17
-17 -35 17 0.33 0.19
-15 -35 17 0.38 0.2
-13 -35 17 0.06 0.18
-11 -35 17 -0.08 0.17
-9 -35 17 0.19 0.18
-7 -35 17 0.15 0.17
-5 -35 17 0.18 0.18
-3 -35 17 0.37 0.19
-1 -35 17 0.07 0.17
1 -35 17 0.03 0.17
3 -35 17 0.33 0.19
5 -35 17 0.12 0.19
7 -35 17 0.31 0.19
9 -35 17 0.07 0.18
11 -35 17 0.37 0.2
13 -35 17 0.32 0.2
15 -35 17 0.41 0.2
17 -35 17 0.75 0.22
19 -35 17 0.11 0.19
21 -35 17 -0.15 0.18
23 -35 17 -0.22 0.18
25 -35 17 -0.23 0.16
27 -35 17 -0.17 0.15
-23 -37 17 -0.12 0.14
-21 -37 17 0.04 0.15
-19 -37 17 -0.18 0.15
-17 -37 17 -0.23 0.15
-15 -37 17 -0.14 0.15
-13 -37 17 -0.27 0.15
-11 -37 17 -0.17 0.16
-9 -37 17 -0.18 0.16
-7 -37 17 -0.28 0.16
-5 -37 17 -0.11 0.16
-3 -37 17 0.09 0.17
-1 -37 17 0.34 0.18
1 -37 17 0.05 0.17
3 -37 17 0.01 0.18
5 -37 17 -0.22 0.17
7 -37 17 0.13 0.18
9 -37 17 -0.04 0.17
11 -37 17 0.01 0.18
13 -37 17 -0.03 0.17
15 -37 17 0.07 0.18
17 -37 17 0.07 0.18
19 -37 17 -0.53 0.16
21 -37 17 -0.37 0.16
23 -37 17 -0.29 0.15
25 -37 17 -0.17 0.14
-17 -39 17 0.35 0.17
-15 -39 17 0.15 0.17
-13 -39 17 0.04 0.17
-11 -39 17 0.05 0.16
-9 -39 17 -0.17 0.15
-7 -39 17 -0.06 0.15
-5 -39 17 -0.07 0.15
-3 -39 17 0.1 0.16
-1 -39 17 -0.06 0.17
1 -39 17 0.12 0.18
3 -39 17 0.09 0.17
5 -39 17 -0.01 0.17
7 -39 17 0.18 0.18
9 -39 17 0.02 0.17
11 -39 17 -0.08 0.16
13 -39 17 0.14 0.17
15 -39 17 -0.11 0.16
17 -39 17 0.38 0.17
19 -39 17 0.01 0.16
21 -39 17 0.1 0.15
-11 -41 17 0.28 0.15
-9 -41 17 0.08 0.15
-7 -41 17 0.18 0.16
-5 -41 17 -0.19 0.14
-3 -41 17 -0.01 0.16
-1 -41 17 0.04 0.15
1 -41 17 -0.07 0.15
3 -41 17 -0.02 0.15
5 -41 17 -0.03 0.15
7 -41 17 0.25 0.16
9 -41 17 0.16 0.15
11 -41 17 0.36 0.16
13 -41 17 0.09 0.15
15 -41 17 0.03 0.14
17 -41 17 0.03 0.14
-5 -43 17 -0.08 0.13
-3 -43 17 -0.06 0.13
-1 -43 17 -0.02 0.13
1 -43 17 -0.09 0.13
3 -43 17 -0.15 0.13
5 -43 17 0.07 0.13
7 -43 17 -0.18 0.12
9 -43 17 -0.03 0.13
11 -43 17 0.17 0.13
-44 0 18 -0.06 0.13
-42 0 18 3.76 0.35
-40 0 18 0.5 0.18
-38 0 18 9.63 0.6
-36 0 18 0.47 0.16
-34 0 18 6.33 0.46
-32 0 18 0.03 0.14
-30 0 18 4.89 0.39
-28 0 18 0.17 0.13
-26 0 18 12.43 0.67
-24 0 18 0.51 0.14
-22 0 18 86.78 3.86
-20 0 18 0.89 0.24
-18 0 18 140.76 5.81
-16 0 18 0.65 0.23
-14 0 18 45.97 2.05
12 0 -18 0.48 0.12
-12 0 18 0.36 0.18
10 0 -18 1.37 0.16
-10 0 18 1.01 0.23
8 0 -18 0.1 0.09
-8 0 18 0.12 0.15
6 0 -18 139.37 6.16
-6 0 18 147.49 5.88
4 0 -18 0.12 0.1
-4 0 18 0.35 0.17
2 0 -18 356.53 16.21
-2 0 18 389.34 14.96
2 0 -18 372.98 15.91
0 0 -18 -0.05 0.11
0 0 18 0.21 0.18
0 0 -18 -0.16 0.13
2 0 18 390.46 15.11
-2 0 -18 374.66 16.37
-2 0 -18 364.31 16.06
-4 0 -18 0.21 0.14
-4 0 -18 0.27 0.1
4 0 18 0.01 0.17
-6 0 -18 142.81 6.19
6 0 18 149.06 5.92
-6 0 -18 138.45 6.39
8 0 18 0.12 0.15
8 0 18 0.14 0.1
-8 0 -18 0.08 0.1
10 0 18 1.48 0.26
10 0 18 1.24 0.17
-10 0 -18 1.41 0.18
-12 0 -18 0.42 0.13
12 0 18 0.31 0.18
-14 0 -18 38.34 1.81
14 0 18 42.04 1.87
-16 0 -18 0.51 0.13
16 0 18 0.75 0.23
18 0 18 125.07 5.25
-44 -2 18 0.96 0.17
-44 2 18 0.96 0.18
-42 -2 18 0.21 0.16
-42 2 18 0.23 0.15
-40 -2 18 6.99 0.49
-40 2 18 6.54 0.47
-38 2 18 0.51 0.17
-36 -2 18 10.63 0.63
-36 2 18 9.83 0.61
-34 -2 18 0.35 0.16
-34 2 18 0.21 0.16
-32 -2 18 4.05 0.38
-32 2 18 3.88 0.35
-30 -2 18 0.01 0.14
-30 2 18 0.13 0.13
-28 -2 18 0.03 0.13
-28 2 18 -0.08 0.13
-26 -2 18 0.06 0.13
-26 2 18 0.04 0.12
-24 -2 18 52.68 2.4
-24 2 18 52.74 2.39
-22 2 18 0.55 0.23
-22 2 18 0.86 0.14
-20 -2 18 124.77 5.47
-20 2 18 123.17 5.17
-18 -2 18 0.6 0.21
-18 2 18 0.88 0.22
16 2 -18 108.89 4.87
-16 2 18 115.51 4.68
-14 -2 18 0.27 0.19
-14 2 18 0.12 0.17
14 2 -18 0.33 0.12
-12 -2 18 20.89 1.03
-12 2 18 21.35 1.05
12 2 -18 19.98 0.99
-10 -2 18 -0.01 0.14
10 2 -18 0.03 0.09
-10 2 18 -0.17 0.15
-8 -2 18 11.54 0.68
8 2 -18 12.36 0.62
-8 2 18 11.5 0.68
-6 -2 18 -0.01 0.15
-6 2 18 -0.03 0.14
6 2 -18 0.12 0.09
-4 -2 18 202.85 7.99
4 -2 -18 186.53 8.41
-4 2 18 203.21 7.99
4 2 -18 194.96 8.45
-2 -2 18 0.09 0.17
2 -2 -18 -0.14 0.08
2 2 -18 -0.18 0.11
2 2 -18 -0.18 0.13
-2 2 18 0.48 0.18
0 -2 18 393.65 15.24
0 -2 -18 367.16 16.18
0 2 18 385.59 15.23
0 2 -18 374.44 16.22
0 2 -18 378.69 16.53
-2 -2 -18 0.1 0.09
2 -2 18 0.01 0.17
2 2 18 0.12 0.1
-2 2 -18 0 0.12
-2 2 -18 0.09 0.1
2 2 18 0.12 0.17
4 -2 18 210.22 8.06
-4 -2 -18 195.98 8.47
4 2 18 203.29 8.05
-4 2 -18 199.13 8.7
4 2 18 184.07 8.49
-4 2 -18 195.01 8.5
6 -2 18 0.05 0.15
-6 -2 -18 0.11 0.09
-6 2 -18 0.1 0.13
6 2 18 -0.23 0.12
6 2 18 0.04 0.09
-6 2 -18 0.1 0.1
-8 -2 -18 12.02 0.6
8 -2 18 12.32 0.71
-8 2 -18 12.47 0.7
8 2 18 11.16 0.62
-8 2 -18 11.63 0.62
8 2 18 11.92 0.71
10 -2 18 0.09 0.18
-10 -2 -18 0.01 0.09
-10 2 -18 -0.01 0.1
-10 2 -18 -0.05 0.13
10 2 18 0 0.09
10 2 18 -0.15 0.13
12 -2 18 20.2 1.08
12 2 18 20.15 1
12 2 18 21.61 1.08
-12 2 -18 19.99 0.99
14 -2 18 0.36 0.21
14 2 18 0.14 0.11
14 2 18 0.24 0.18
-14 2 -18 0.18 0.11
16 -2 18 107.89 4.54
16 2 18 104.42 4.5
-16 2 -18 108.41 4.68
18 -2 18 0.52 0.22
20 -2 18 110.47 4.83
-20 2 -18 117.34 5
-44 -4 18 0.14 0.14
-44 4 18 -0.18 0.12
-42 -4 18 2.32 0.25
-42 4 18 2.03 0.23
-40 -4 18 0.39 0.18
-40 4 18 0.43 0.17
-38 -4 18 6.75 0.47
-38 4 18 6.08 0.47
-36 -4 18 0.35 0.17
-36 4 18 0.27 0.16
-34 -4 18 5.02 0.41
-34 4 18 4.95 0.4
-32 -4 18 0.07 0.14
-32 4 18 -0.16 0.13
-30 -4 18 5.53 0.41
-30 4 18 5.22 0.41
-28 -4 18 -0.01 0.13
-28 4 18 -0.04 0.12
-26 -4 18 4.32 0.35
-26 4 18 3.64 0.32
-24 -4 18 0.11 0.13
-24 4 18 0.12 0.11
-22 -4 18 41.27 1.84
-22 4 18 40.01 1.82
-22 4 18 37.5 1.85
-20 -4 18 0.34 0.11
-20 4 18 0.4 0.23
18 4 -18 63.82 2.93
-18 4 18 67.76 2.87
-16 -4 18 0.46 0.2
16 4 -18 0.42 0.14
-16 4 18 0.6 0.23
-14 -4 18 20.53 0.99
-14 4 18 18.79 0.99
14 4 -18 18.53 0.95
-12 -4 18 0.2 0.18
12 4 -18 0.33 0.12
-12 4 18 0.54 0.2
-10 -4 18 0.88 0.2
10 4 -18 0.48 0.13
-10 4 18 0.62 0.22
-8 -4 18 -0.07 0.13
-8 4 18 0.31 0.18
8 4 -18 0.22 0.12
-6 -4 18 71.96 3.1
6 4 -18 73.61 3.23
-6 4 18 73.6 3.11
-4 -4 18 0.32 0.18
4 4 -18 0.18 0.12
-4 4 18 0.44 0.17
-2 -4 18 194.77 8.08
-2 4 18 206.3 8.08
2 4 -18 195.94 8.56
0 -4 18 0.36 0.19
0 4 -18 -0.01 0.15
0 4 18 0.45 0.18
0 4 -18 0.09 0.12
0 4 18 0.11 0.11
2 -4 18 200.78 8.1
-2 4 -18 199.33 8.75
2 4 18 191.46 8.56
-2 4 -18 198.96 8.56
2 4 18 205.07 8.09
4 -4 18 0.32 0.17
4 4 18 0.24 0.16
-4 4 -18 0.15 0.1
4 4 18 0.26 0.11
-4 4 -18 0.17 0.12
6 -4 18 73.77 3.08
6 4 18 69.55 3.05
-6 4 -18 72.2 3.15
6 4 18 70.4 3.15
-6 4 -18 71.3 3.27
8 -4 18 0.17 0.18
8 4 18 0.34 0.16
-8 4 -18 0.14 0.11
-8 4 -18 0.09 0.14
8 4 18 0.17 0.11
10 -4 18 1.12 0.25
-10 4 -18 0.48 0.13
10 4 18 0.72 0.22
-10 4 -18 1.04 0.21
10 4 18 0.56 0.15
12 -4 18 0.45 0.2
12 4 18 0.63 0.21
12 4 18 0.34 0.13
-12 4 -18 0.48 0.18
-12 4 -18 0.31 0.13
14 -4 18 18.53 1
-14 4 -18 18.98 0.99
-14 4 -18 16.25 0.9
14 4 18 17.74 0.92
14 4 18 18.84 0.97
16 -4 18 0.62 0.25
16 4 18 0.41 0.14
-16 4 -18 0.41 0.14
18 -4 18 62.09 2.74
18 4 18 59.37 2.74
-18 4 -18 60.79 2.73
20 -4 18 0.36 0.22
-20 4 -18 0.44 0.14
-22 4 -18 38.19 1.8
-44 -6 18 0.58 0.16
-42 -6 18 -0.06 0.15
-42 6 18 -0.02 0.13
-40 -6 18 2.89 0.29
-40 6 18 2.52 0.26
-38 -6 18 0.3 0.18
-38 6 18 0.11 0.16
-36 -6 18 3.21 0.35
-36 6 18 2.69 0.28
-34 -6 18 -0.18 0.15
-34 6 18 -0.07 0.14
-32 -6 18 0.94 0.19
-32 6 18 0.99 0.19
-30 -6 18 0.07 0.14
-30 6 18 -0.05 0.12
-28 -6 18 0.24 0.15
-28 6 18 0.32 0.13
-26 -6 18 0.1 0.13
-26 6 18 0.03 0.11
-24 -6 18 14.39 0.75
-24 6 18 14.26 0.73
-24 6 18 13.58 0.88
-22 -6 18 0.14 0.11
-22 6 18 0.48 0.24
-22 6 18 0.16 0.11
-20 -6 18 32.83 1.55
20 6 -18 35.05 1.59
-20 6 18 31.43 1.6
18 6 -18 0.28 0.14
-18 6 18 0.3 0.2
-16 -6 18 30.34 1.4
-16 6 18 28.58 1.41
16 6 -18 28.2 1.38
-14 -6 18 -0.05 0.16
14 6 -18 -0.03 0.11
-14 6 18 0.17 0.19
-12 -6 18 2.65 0.32
12 6 -18 3.04 0.29
-12 6 18 3.05 0.35
-10 -6 18 0.11 0.16
-10 6 18 0.06 0.18
10 6 -18 0.07 0.12
-8 -6 18 3.79 0.37
8 6 -18 3.66 0.31
-8 6 18 2.9 0.35
-6 -6 18 0.03 0.14
6 6 -18 -0.04 0.11
-6 6 18 -0.23 0.13
-4 -6 18 72.97 3.08
4 6 -18 71.85 3.2
-4 6 18 72.3 3.08
-2 -6 18 -0.11 0.14
2 6 -18 -0.12 0.1
-2 6 18 -0.06 0.09
-2 6 18 0.03 0.15
0 -6 18 140.02 5.99
0 6 -18 143.58 6.32
0 6 -18 147.34 6.48
0 6 18 147.03 6.32
0 6 18 152.65 6
2 -6 18 0.25 0.17
2 6 18 0.14 0.17
-2 6 -18 0.1 0.13
2 6 18 0.1 0.1
-2 6 -18 0.06 0.1
4 -6 18 72.38 3.08
4 6 18 75 3.08
-4 6 -18 70.99 3.17
-4 6 -18 68.96 3.28
4 6 18 72.51 3.18
6 -6 18 0.01 0.15
-6 6 -18 -0.05 0.09
6 6 18 0.04 0.11
-6 6 -18 0.07 0.13
6 6 18 -0.07 0.12
8 -6 18 3.57 0.4
8 6 18 3.59 0.35
8 6 18 3.79 0.31
-8 6 -18 3.86 0.3
-8 6 -18 3.76 0.36
10 -6 18 0.13 0.17
-10 6 -18 0.09 0.14
10 6 18 0.02 0.11
-10 6 -18 0.11 0.11
10 6 18 0.08 0.16
12 -6 18 2.43 0.35
12 6 18 2.51 0.33
-12 6 -18 2.59 0.31
12 6 18 2.72 0.28
14 -6 18 0.19 0.19
-14 6 -18 0 0.13
14 6 18 0.08 0.15
14 6 18 0.07 0.12
16 -6 18 24.65 1.34
-16 6 -18 25.97 1.35
16 6 18 27.29 1.29
18 -6 18 0.22 0.23
18 6 18 0.14 0.14
20 -6 18 32.18 1.63
20 6 18 31.8 1.55
22 -6 18 0.33 0.24
-22 6 -18 0.06 0.14
-24 6 -18 14.81 0.84
-44 -8 18 -0.07 0.13
-42 -8 18 0.01 0.15
-42 8 18 -0.21 0.12
-40 -8 18 0.13 0.15
-40 8 18 -0.05 0.14
-38 -8 18 -0.06 0.16
-38 8 18 -0.08 0.15
-36 -8 18 -0.23 0.15
-36 8 18 -0.24 0.14
-34 -8 18 -0.01 0.16
-34 8 18 -0.12 0.15
-32 -8 18 -0.01 0.15
-32 8 18 -0.18 0.13
-30 -8 18 1.28 0.21
-30 8 18 0.91 0.17
-28 -8 18 -0.13 0.13
-28 8 18 -0.06 0.11
-26 -8 18 1.81 0.23
-26 8 18 1.76 0.2
-24 -8 18 -0.08 0.12
-24 8 18 -0.07 0.1
-24 8 18 -0.36 0.23
-22 -8 18 7.05 0.44
-22 8 18 6.25 0.56
22 8 -18 6.6 0.49
-20 -8 18 -0.05 0.12
20 8 -18 -0.13 0.13
-20 8 18 -0.22 0.21
-18 -8 18 10.51 0.56
18 8 -18 10.11 0.61
-18 8 18 9.92 0.69
16 8 -18 0.07 0.13
-16 8 18 0.19 0.19
-14 -8 18 3.79 0.37
14 8 -18 3.21 0.31
-14 8 18 3.26 0.38
-12 -8 18 0.08 0.15
-12 8 18 0.11 0.17
12 8 -18 0.09 0.13
-10 -8 18 3.64 0.34
10 8 -18 2.93 0.3
-10 8 18 3.23 0.38
-8 -8 18 0.11 0.17
8 8 -18 0.26 0.13
-8 8 18 0.05 0.17
-6 -8 18 3.74 0.38
-6 8 18 3.56 0.38
6 8 -18 4.2 0.33
-4 -8 18 0.24 0.17
-4 8 18 0.22 0.11
4 8 -18 0.25 0.12
-4 8 18 0.21 0.19
-2 -8 18 11.46 0.7
2 8 -18 12.31 0.66
-2 8 18 14.14 0.73
-2 8 18 12.07 0.66
0 -8 18 0.33 0.17
0 8 -18 0.18 0.11
0 8 18 0.04 0.15
0 8 18 -0.02 0.11
2 -8 18 11.15 0.69
2 8 18 12.29 0.66
-2 8 -18 13.12 0.65
-2 8 -18 11.55 0.72
2 8 18 12.16 0.69
4 -8 18 0.24 0.18
4 8 18 0.29 0.12
4 8 18 0.13 0.15
-4 8 -18 0.17 0.14
-4 8 -18 0.18 0.11
6 -8 18 3.8 0.38
-6 8 -18 3.23 0.35
-6 8 -18 3.67 0.3
6 8 18 3.46 0.3
6 8 18 3.41 0.34
8 -8 18 0.41 0.19
-8 8 -18 0.13 0.14
8 8 18 -0.03 0.12
8 8 18 0.33 0.17
10 -8 18 2.38 0.35
-10 8 -18 3.69 0.35
10 8 18 3.21 0.36
10 8 18 2.23 0.26
12 -8 18 0.02 0.18
12 8 18 0.12 0.15
-12 8 -18 0.14 0.15
12 8 18 0.11 0.12
14 -8 18 3.41 0.44
-14 8 -18 3.57 0.36
14 8 18 3.04 0.32
16 -8 18 0.14 0.19
16 8 18 0.07 0.14
-16 8 -18 0.03 0.15
18 -8 18 9.48 0.71
18 8 18 9.43 0.59
-18 8 -18 8.41 0.61
20 -8 18 0 0.23
20 -8 18 0.08 0.11
20 8 18 -0.06 0.13
22 -8 18 5.6 0.57
22 -8 18 6.21 0.39
22 8 18 6.3 0.49
24 -8 18 -0.17 0.11
24 -8 18 -0.12 0.22
26 -8 18 1.78 0.21
-26 8 -18 1.46 0.26
28 -8 18 -0.16 0.13
-30 8 -18 1.09 0.16
-32 8 -18 -0.26 0.11
-42 -10 18 -0.11 0.15
-42 10 18 -0.09 0.12
-40 -10 18 0.04 0.16
-40 10 18 -0.22 0.14
-38 -10 18 0.06 0.16
-38 10 18 -0.24 0.15
-36 -10 18 0.4 0.17
-36 10 18 0.11 0.16
-34 -10 18 -0.19 0.15
-34 10 18 0.09 0.16
-32 -10 18 0.34 0.17
-32 10 18 0.55 0.17
-30 -10 18 -0.03 0.15
-30 10 18 -0.09 0.12
-28 -10 18 0.51 0.17
-28 10 18 0.79 0.16
-26 -10 18 0.02 0.14
-26 10 18 0 0.27
-24 -10 18 -0.2 0.12
-24 10 18 -0.17 0.2
24 10 -18 0.08 0.16
-22 -10 18 -0.19 0.11
-22 10 18 -0.09 0.22
22 10 -18 -0.09 0.14
-20 -10 18 0.16 0.12
-20 10 18 0.21 0.23
20 10 -18 0.23 0.17
-18 -10 18 0.03 0.12
18 10 -18 -0.17 0.13
-18 10 18 -0.17 0.18
16 10 -18 0.41 0.16
-16 10 18 0.7 0.24
14 10 -18 -0.14 0.12
-14 10 18 0.1 0.17
-12 -10 18 0.05 0.15
-12 10 18 0.24 0.2
12 10 -18 0.17 0.14
-10 -10 18 -0.08 0.15
10 10 -18 0 0.13
-10 10 18 0.28 0.18
-8 -10 18 3.31 0.36
-8 10 18 2.69 0.34
8 10 -18 2.83 0.31
-6 -10 18 0.13 0.17
-6 10 18 0.05 0.1
6 10 -18 -0.1 0.11
-6 10 18 -0.07 0.16
-4 -10 18 0.91 0.23
-4 10 18 0.81 0.22
4 10 -18 0.28 0.15
-4 10 18 0.66 0.14
-2 -10 18 0.11 0.18
2 10 -18 -0.09 0.11
-2 10 18 -0.02 0.17
-2 10 18 -0.13 0.1
0 -10 18 1.36 0.25
0 10 -18 2.35 0.25
0 10 18 1.48 0.2
0 10 18 1.66 0.27
2 -10 18 0.03 0.16
2 10 18 -0.06 0.1
-2 10 -18 -0.05 0.14
-2 10 -18 -0.07 0.1
2 10 18 -0.1 0.14
4 -10 18 0.83 0.22
-4 10 -18 0.69 0.19
4 10 18 0.32 0.13
4 10 18 0.63 0.2
-4 10 -18 0.31 0.13
6 -10 18 0.12 0.16
-6 10 -18 -0.03 0.13
6 10 18 0.08 0.16
6 10 18 0.2 0.13
8 -10 18 2.57 0.35
-8 10 -18 3 0.34
8 10 18 2.95 0.3
8 10 18 3.23 0.36
10 -10 18 -0.07 0.17
10 10 18 -0.19 0.12
-10 10 -18 0.11 0.14
10 10 18 0.01 0.12
12 -10 18 0.11 0.18
12 10 18 0.09 0.12
-12 10 -18 0.2 0.15
14 -10 18 0.04 0.18
14 10 18 0.02 0.13
-14 10 -18 0.08 0.14
16 -10 18 0.43 0.23
16 10 18 0.24 0.15
-16 10 -18 0.23 0.16
18 -10 18 -0.05 0.19
18 -10 18 0.11 0.12
-18 10 -18 -0.07 0.15
18 10 18 -0.05 0.13
20 -10 18 0.35 0.23
20 -10 18 0.29 0.13
20 10 18 0.11 0.16
-20 10 -18 0.05 0.17
22 -10 18 -0.06 0.12
22 -10 18 -0.1 0.22
22 10 18 -0.22 0.15
24 -10 18 0.06 0.12
24 -10 18 -0.15 0.24
24 10 18 0.06 0.18
26 -10 18 0.07 0.13
28 -10 18 0.61 0.17
-28 10 -18 0.26 0.2
30 -10 18 -0.15 0.14
-32 10 -18 0.63 0.15
-34 10 -18 0.14 0.13
-36 10 -18 0.26 0.15
-42 -12 18 1.3 0.21
-40 -12 18 -0.02 0.16
-40 12 18 -0.2 0.13
-38 -12 18 3.92 0.39
-38 12 18 2.43 0.26
-36 -12 18 0.1 0.16
-36 12 18 -0.22 0.14
-34 -12 18 4.67 0.42
-34 12 18 3.89 0.39
-32 -12 18 0.17 0.16
-32 12 18 -0.1 0.13
-30 -12 18 0.43 0.17
-30 12 18 0.49 0.16
-28 -12 18 0.07 0.14
-26 -12 18 0.42 0.15
-26 12 18 0.57 0.32
26 12 -18 0.81 0.23
-24 -12 18 -0.01 0.13
24 12 -18 0.07 0.17
-24 12 18 -0.32 0.23
-22 -12 18 2.79 0.29
22 12 -18 2.61 0.33
-22 12 18 2.25 0.39
-20 -12 18 0.06 0.11
-20 12 18 -0.06 0.23
20 12 -18 -0.06 0.16
-18 -12 18 10.58 0.59
-18 12 18 9.9 0.72
18 12 -18 10.76 0.66
-16 -12 18 0.27 0.12
-16 12 18 0.17 0.2
16 12 -18 0.07 0.15
14 12 -18 5.4 0.43
-14 12 18 5.43 0.5
12 12 -18 0.02 0.15
-12 12 18 0.18 0.18
-10 -12 18 0.3 0.18
-10 12 18 0.21 0.18
10 12 -18 0.14 0.14
-8 -12 18 0.15 0.17
8 12 -18 -0.1 0.12
-8 12 18 0.19 0.17
-6 -12 18 2.68 0.34
-6 12 18 2.46 0.32
6 12 -18 2.45 0.28
-6 12 18 2.51 0.26
-4 -12 18 0.34 0.17
-4 12 18 0.37 0.19
-4 12 18 0.28 0.13
4 12 -18 0.19 0.14
-2 -12 18 20.34 1.05
2 12 -18 19.19 1.01
-2 12 18 22.4 1.06
-2 12 18 21.03 1.02
0 -12 18 0.55 0.2
0 12 18 0.4 0.13
0 12 18 0.48 0.19
0 12 -18 0.34 0.14
2 -12 18 21.85 1.08
-2 12 -18 18.35 0.99
2 12 18 20.4 1.01
2 12 18 22.45 1.06
4 -12 18 0.28 0.18
4 12 18 0.15 0.17
4 12 18 0.39 0.14
-4 12 -18 0.11 0.16
6 -12 18 3.01 0.38
6 12 18 3.1 0.35
6 12 18 2.98 0.29
-6 12 -18 3.32 0.35
8 -12 18 0.18 0.18
8 12 18 0.07 0.14
-8 12 -18 0.04 0.15
8 12 18 0.02 0.11
10 -12 18 0.14 0.19
-10 12 -18 0.06 0.14
10 12 18 0 0.11
12 -12 18 0.1 0.19
-12 12 -18 0.15 0.15
12 12 18 0.11 0.13
14 -12 18 5.56 0.52
-14 12 -18 4.38 0.44
14 12 18 5.18 0.41
16 -12 18 0.31 0.24
-16 12 -18 -0.01 0.16
16 12 18 0.09 0.14
18 -12 18 8.5 0.51
18 -12 18 9.36 0.74
18 12 18 9.2 0.6
-18 12 -18 9.18 0.65
20 -12 18 0.14 0.23
20 -12 18 0.19 0.13
20 12 18 -0.02 0.14
-20 12 -18 -0.03 0.18
22 -12 18 1.79 0.21
22 -12 18 2.63 0.46
22 12 18 2.49 0.34
-22 12 -18 1.55 0.3
24 -12 18 0.18 0.25
24 -12 18 -0.08 0.12
24 12 18 0 0.17
26 -12 18 0.31 0.14
28 -12 18 -0.1 0.13
30 -12 18 0.47 0.16
-32 12 -18 0 0.12
-34 12 -18 4.88 0.39
-36 12 -18 0.01 0.13
-38 12 -18 3.48 0.34
-42 -14 18 -0.12 0.14
-40 -14 18 1.57 0.23
-38 -14 18 0.46 0.18
-36 -14 18 5.04 0.45
-34 -14 18 0.49 0.18
-32 -14 18 4.86 0.43
-30 -14 18 -0.04 0.14
-28 -14 18 0.37 0.16
-26 -14 18 -0.03 0.14
26 14 -18 0.04 0.19
-24 -14 18 5.33 0.39
24 14 -18 5.82 0.51
-24 14 18 4.72 0.56
-22 -14 18 0.03 0.11
22 14 -18 0.1 0.17
-22 14 18 0.37 0.28
-20 -14 18 25.37 1.2
-20 14 18 22.57 1.29
20 14 -18 24.81 1.27
-18 -14 18 0.09 0.13
-18 14 18 0.11 0.21
18 14 -18 0.13 0.16
-16 -14 18 26.38 1.25
-16 14 18 25.15 1.34
16 14 -18 25.63 1.3
-14 -14 18 0.09 0.12
-14 14 18 0.08 0.19
14 14 -18 -0.03 0.14
12 14 -18 5.59 0.43
-12 14 18 4.7 0.46
-10 14 18 0.04 0.18
10 14 -18 0 0.13
-8 -14 18 3.97 0.38
-8 14 18 3.4 0.3
8 14 -18 2.98 0.33
-8 14 18 3.83 0.38
-6 -14 18 0.2 0.17
-6 14 18 0.02 0.11
6 14 -18 -0.04 0.13
-6 14 18 0.06 0.19
-4 -14 18 19.72 0.98
-4 14 18 18.17 0.91
-4 14 18 20.08 0.98
4 14 -18 15.57 0.91
-2 -14 18 0.16 0.17
-2 14 18 0.36 0.19
2 14 -18 -0.03 0.12
-2 14 18 -0.1 0.11
0 -14 18 42.68 1.88
0 14 -18 36.55 1.86
0 14 18 42.4 1.86
0 14 18 41.77 1.87
2 -14 18 0.49 0.2
-2 14 -18 -0.12 0.11
2 14 18 0.16 0.12
2 14 18 0.08 0.17
4 -14 18 19.01 1.03
4 14 18 18.66 0.97
-4 14 -18 19.32 1.06
4 14 18 20.5 1.01
6 -14 18 0.09 0.2
6 14 18 0.14 0.12
-6 14 -18 0.12 0.15
6 14 18 0.27 0.17
8 -14 18 3.37 0.41
8 14 18 3.8 0.33
-8 14 -18 3.82 0.39
10 -14 18 0.02 0.2
10 14 18 -0.01 0.12
-10 14 -18 -0.07 0.14
12 -14 18 5.28 0.52
12 14 18 5.39 0.42
-12 14 -18 5.18 0.46
14 -14 18 -0.27 0.19
14 -14 18 0.46 0.12
-14 14 -18 -0.22 0.14
14 14 18 0.15 0.14
16 -14 18 22.04 1.11
16 -14 18 23.65 1.3
-16 14 -18 23.17 1.25
16 14 18 23.45 1.19
18 -14 18 0.07 0.21
18 -14 18 0.29 0.13
-18 14 -18 -0.01 0.16
18 14 18 0.09 0.15
20 -14 18 21.77 1.24
20 -14 18 20.93 1.04
20 14 18 21.56 1.14
-20 14 -18 20.6 1.19
22 -14 18 -0.18 0.12
22 -14 18 0.35 0.26
22 14 18 -0.12 0.15
-22 14 -18 -0.12 0.18
24 -14 18 4.34 0.37
24 14 18 4.65 0.47
26 -14 18 -0.2 0.12
26 14 18 -0.13 0.18
28 -14 18 0.27 0.16
30 -14 18 0.21 0.15
-32 14 -18 4.47 0.37
-34 14 -18 0.53 0.15
-36 14 -18 5.04 0.4
-38 14 -18 0.32 0.15
-40 14 -18 1.6 0.2
-40 -16 18 0.16 0.15
-38 -16 18 9.18 0.59
-36 -16 18 0.19 0.18
-34 -16 18 12.32 0.74
-32 -16 18 0.23 0.18
-30 -16 18 2.23 0.28
-28 -16 18 -0.04 0.15
28 16 -18 0.14 0.2
-26 -16 18 0.68 0.18
26 16 -18 0.61 0.23
-24 -16 18 0.13 0.14
24 16 -18 0.2 0.19
-22 -16 18 21 1.04
22 16 -18 21.5 1.14
-22 16 18 18.85 1.18
-20 -16 18 0.35 0.14
-20 16 18 0.45 0.26
20 16 -18 0.47 0.2
-18 -16 18 50.52 2.25
18 16 -18 51.08 2.29
-18 16 18 43.42 2.24
-16 -16 18 0.64 0.16
-16 16 18 0.57 0.27
-14 -16 18 26.73 1.27
14 16 -18 26.37 1.32
-14 16 18 25.26 1.33
-12 -16 18 0.09 0.13
12 16 -18 0.03 0.14
-12 16 18 0.64 0.23
-10 -16 18 0.35 0.13
-10 16 18 0.43 0.21
10 16 -18 0.38 0.16
-8 16 18 0.04 0.11
8 16 -18 -0.04 0.13
-8 16 18 0.24 0.21
-6 -16 18 28.87 1.34
6 16 -18 25.91 1.32
-6 16 18 27.09 1.3
-6 16 18 27.41 1.34
-4 -16 18 0.66 0.21
-4 16 18 0.14 0.14
4 16 -18 0.11 0.15
-4 16 18 0.37 0.19
-2 -16 18 110.26 4.6
-2 16 18 109.29 4.79
2 16 -18 103.33 4.79
-2 16 18 115.78 4.6
0 -16 18 0.68 0.22
0 16 18 0.45 0.16
0 16 -18 -0.09 0.13
0 16 18 1.13 0.26
2 -16 18 112.97 4.78
2 16 18 108.83 4.97
2 16 18 120.01 4.76
4 -16 18 0.35 0.22
4 16 18 0.69 0.21
4 16 18 0.29 0.13
-4 16 -18 0.55 0.2
6 -16 18 27.4 1.4
-6 16 -18 28 1.43
6 16 18 27.67 1.33
6 16 18 26.71 1.32
8 -16 18 0.03 0.17
8 16 18 0.05 0.12
-8 16 -18 0.17 0.16
10 -16 18 0.38 0.23
10 16 18 0.23 0.14
-10 16 -18 0.11 0.18
12 -16 18 -0.03 0.2
12 -16 18 0.22 0.12
12 16 18 0.25 0.14
-12 16 -18 0.3 0.18
14 -16 18 23.74 1.28
14 -16 18 22.05 1.12
-14 16 -18 24.01 1.27
14 16 18 23.63 1.19
16 -16 18 0.46 0.28
16 -16 18 0.8 0.15
-16 16 -18 0.44 0.2
16 16 18 0.3 0.16
18 -16 18 42.34 2.07
18 -16 18 40.71 1.94
-18 16 -18 42.81 2.09
18 16 18 41.99 2.01
20 -16 18 0.59 0.29
20 -16 18 0.61 0.16
-20 16 -18 0.03 0.19
20 16 18 0.26 0.18
22 -16 18 17.56 0.92
22 16 18 18.36 1.03
-22 16 -18 17.94 1.09
24 -16 18 0.17 0.15
24 16 18 0.07 0.18
-24 16 -18 0.02 0.21
26 -16 18 0.23 0.16
26 16 18 0.61 0.24
28 -16 18 -0.25 0.14
30 -16 18 1.6 0.22
32 -16 18 0.38 0.17
-34 16 -18 12.37 0.69
-36 16 -18 0.1 0.13
-38 16 -18 9.04 0.54
-40 16 -18 0.02 0.13
-40 -18 18 2.63 0.27
-38 -18 18 0.4 0.18
-36 -18 18 5.62 0.46
-34 -18 18 0.47 0.2
-32 -18 18 3.2 0.33
-30 -18 18 -0.08 0.17
-28 -18 18 0.17 0.18
28 18 -18 0.21 0.22
-26 -18 18 -0.09 0.16
26 18 -18 -0.12 0.18
-24 -18 18 12.22 0.71
24 18 -18 12.68 0.79
-22 -18 18 0.3 0.15
22 18 -18 0.22 0.19
-22 18 18 0.14 0.28
-20 -18 18 50.81 2.3
20 18 -18 53.02 2.36
-20 18 18 44.07 2.3
-18 -18 18 0.46 0.16
18 18 -18 0.38 0.18
-18 18 18 0.49 0.25
-16 -18 18 48.38 2.24
16 18 -18 50.08 2.28
-16 18 18 46.54 2.25
-14 -18 18 -0.06 0.13
-14 18 18 -0.08 0.19
14 18 -18 0.01 0.15
-12 -18 18 10.78 0.6
-12 18 18 9.17 0.68
12 18 -18 10.57 0.66
-10 -18 18 -0.12 0.12
-10 18 18 -0.14 0.1
-10 18 18 -0.08 0.2
10 18 -18 -0.09 0.12
-8 -18 18 10.43 0.57
8 18 -18 8.99 0.6
-8 18 18 9.95 0.66
-8 18 18 9.37 0.57
-6 -18 18 0.28 0.2
-6 -18 18 0.24 0.13
-6 18 18 0.35 0.19
6 18 -18 0.04 0.14
-6 18 18 -0.17 0.11
-4 -18 18 62.58 2.8
-4 18 18 65.3 2.88
-4 18 18 67.19 2.82
4 18 -18 61.71 2.88
-2 -18 18 0.84 0.23
-2 18 18 -0.09 0.14
2 18 -18 -0.15 0.15
-2 18 18 0.75 0.22
0 -18 18 134.16 5.8
0 18 18 141.36 6.08
0 18 18 149.09 5.8
0 18 -18 134.4 6.08
2 -18 18 1.06 0.25
2 18 18 0.13 0.14
4 -18 18 66.19 2.91
4 18 18 64.12 2.85
-4 18 -18 69.19 3.1
4 18 18 63.75 2.94
6 -18 18 -0.13 0.12
6 -18 18 0.43 0.22
6 18 18 0.23 0.13
-6 18 -18 0.2 0.18
8 -18 18 9.3 0.56
8 -18 18 9.87 0.7
8 18 18 9.35 0.58
-8 18 -18 10.93 0.69
10 -18 18 -0.02 0.2
10 -18 18 -0.11 0.11
-10 18 -18 -0.14 0.14
10 18 18 0.01 0.11
12 -18 18 9.49 0.71
12 -18 18 9.23 0.56
-12 18 -18 9.53 0.68
12 18 18 9.97 0.61
14 -18 18 0.3 0.24
14 -18 18 0.21 0.13
14 18 18 -0.08 0.13
-14 18 -18 0.15 0.19
16 -18 18 41.44 1.97
16 -18 18 42.46 2.08
-16 18 -18 41.79 2.11
16 18 18 44.41 2.03
18 -18 18 0.65 0.28
18 -18 18 0.37 0.14
18 18 18 0.23 0.18
-18 18 -18 0.26 0.2
20 -18 18 42.22 1.96
20 -18 18 40.65 2.11
20 18 18 44.3 2.05
-20 18 -18 40.41 2.11
22 -18 18 0.14 0.15
-22 18 -18 0.21 0.21
22 18 18 0.17 0.17
24 -18 18 9.9 0.61
24 18 18 9.78 0.72
-24 18 -18 11.19 0.81
26 -18 18 -0.32 0.14
26 18 18 0.04 0.19
28 -18 18 0.05 0.16
28 18 18 0.2 0.23
30 -18 18 0.15 0.16
32 -18 18 3.91 0.39
-34 18 -18 0.63 0.16
-36 18 -18 6.32 0.44
-38 18 -18 0.62 0.15
-40 18 -18 3.1 0.3
-40 -20 18 0.1 0.15
-38 -20 18 7.19 0.49
-36 -20 18 0.05 0.18
-34 -20 18 9.33 0.62
-32 -20 18 -0.32 0.17
-30 -20 18 1.3 0.24
-28 -20 18 0.04 0.16
-26 -20 18 1.92 0.26
26 20 -18 1.99 0.32
-24 -20 18 0.41 0.17
24 20 -18 0.21 0.2
-22 -20 18 25.94 1.29
22 20 -18 26.06 1.36
-20 20 18 0.75 0.31
20 20 -18 0.59 0.21
-18 -20 18 51.09 2.31
18 20 -18 50.37 2.34
-18 20 18 46.7 2.33
-16 -20 18 0.54 0.16
16 20 -18 0.37 0.18
-16 20 18 0.52 0.26
-14 -20 18 24.13 1.18
14 20 -18 23.99 1.23
-14 20 18 22.75 1.27
-12 -20 18 0.14 0.13
-12 20 18 -0.07 0.21
12 20 -18 -0.05 0.14
-10 -20 18 0.17 0.14
-10 20 18 0.2 0.22
-10 20 18 0.16 0.13
10 20 -18 0.37 0.17
-8 -20 18 0.13 0.13
-8 20 18 -0.05 0.11
8 20 -18 -0.14 0.13
-8 20 18 0.12 0.2
-6 -20 18 36.5 1.65
-6 20 18 32.53 1.65
-6 20 18 34.92 1.64
6 20 -18 34.31 1.66
-4 -20 18 0.25 0.18
-4 -20 18 0.4 0.15
-4 20 18 -0.17 0.14
-4 20 18 0.46 0.23
4 20 -18 -0.18 0.15
-2 -20 18 133.09 5.67
-2 -20 18 121.5 5.32
-2 20 18 127.12 5.56
2 20 -18 126.63 5.57
-2 20 18 127.91 5.32
0 -20 18 0.38 0.17
0 -20 18 1.14 0.27
0 20 18 1.1 0.25
0 20 18 0.32 0.17
0 20 -18 0.08 0.16
2 -20 18 116.37 5.17
2 -20 18 124.96 5.48
2 20 18 123.52 5.14
2 20 18 127.1 5.39
4 -20 18 -0.01 0.15
4 -20 18 0.29 0.24
-4 20 -18 0.32 0.2
4 20 18 0.36 0.15
6 -20 18 30.89 1.61
6 -20 18 32.82 1.56
6 20 18 33.36 1.56
-6 20 -18 33.46 1.68
8 -20 18 -0.26 0.11
8 -20 18 0.1 0.2
8 20 18 0.04 0.12
-8 20 -18 0.02 0.16
10 -20 18 -0.09 0.21
10 -20 18 0.05 0.13
-10 20 -18 0.12 0.17
10 20 18 0.16 0.14
12 -20 18 0.14 0.14
12 -20 18 0.18 0.24
-12 20 -18 0.03 0.18
12 20 18 0.19 0.14
14 -20 18 22.06 1.1
14 -20 18 21.9 1.26
14 -20 18 22.21 1.01
-14 20 -18 21.58 1.24
14 20 18 21.99 1.15
16 -20 18 0.3 0.13
16 -20 18 0.18 0.1
16 -20 18 0.55 0.27
16 20 18 0.24 0.16
-16 20 -18 0.27 0.21
18 -20 18 43.28 2.14
18 -20 18 43.74 1.92
18 -20 18 41.97 2.01
-18 20 -18 45.17 2.18
18 20 18 41.13 2.06
20 -20 18 0.78 0.17
20 20 18 0.28 0.2
-20 20 -18 0.55 0.25
22 -20 18 22.78 1.11
-22 20 -18 21.94 1.29
22 20 18 21.1 1.21
24 -20 18 0.12 0.16
24 20 18 0.33 0.21
26 -20 18 1.45 0.23
26 20 18 1.75 0.33
28 -20 18 -0.11 0.16
30 -20 18 1.06 0.2
32 -20 18 0.44 0.18
-34 20 -18 9.15 0.55
-36 20 -18 0.27 0.14
-38 20 -18 7.26 0.46
-38 -22 18 0.38 0.16
-36 -22 18 3.04 0.3
-34 -22 18 0.07 0.17
-32 -22 18 1.63 0.25
-30 -22 18 -0.19 0.17
-28 -22 18 -0.27 0.16
-26 -22 18 -0.03 0.16
-24 -22 18 6.06 0.47
24 22 -18 5.54 0.52
-22 -22 18 0.06 0.15
22 22 -18 0.09 0.18
-20 -22 18 25.96 1.29
20 22 -18 25.95 1.35
-18 -22 18 0.15 0.15
-18 22 18 0.48 0.26
18 22 -18 0.12 0.18
-16 -22 18 21.3 1.08
-16 22 18 19.75 1.19
16 22 -18 21.35 1.12
-14 -22 18 0 0.14
-14 22 18 -0.03 0.2
14 22 -18 -0.02 0.15
-12 -22 18 1.76 0.22
-12 22 18 2.81 0.39
12 22 -18 2.05 0.3
-10 -22 18 -0.02 0.12
-10 22 18 -0.04 0.11
-10 22 18 -0.26 0.21
10 22 -18 -0.2 0.13
-8 -22 18 7.49 0.49
8 22 -18 6.42 0.5
-8 22 18 6.15 0.55
-8 22 18 6.85 0.48
-6 -22 18 0.22 0.15
-6 22 18 0.32 0.23
6 22 -18 -0.06 0.15
-6 22 18 -0.03 0.12
-4 -22 18 43.77 1.95
-4 22 18 41.22 1.94
4 22 -18 40.59 1.94
-4 22 18 39.73 1.92
-2 -22 18 0.53 0.24
-2 -22 18 0.53 0.17
-2 22 18 -0.16 0.14
2 22 -18 -0.11 0.15
0 -22 18 80.86 3.7
0 -22 18 91.03 3.88
0 22 -18 81.11 3.82
0 22 18 85.36 3.69
0 22 18 91.35 3.83
2 -22 18 0.62 0.24
2 -22 18 0.28 0.17
2 22 18 0.23 0.15
4 -22 18 40.7 1.9
4 -22 18 39.54 1.93
-4 22 -18 39.39 2.02
4 22 18 41.67 1.89
6 -22 18 0.12 0.21
6 -22 18 -0.01 0.16
6 22 18 0.13 0.13
-6 22 -18 0.06 0.18
8 -22 18 6.04 0.46
8 -22 18 5.88 0.59
-8 22 -18 7.64 0.58
8 22 18 6.19 0.46
10 -22 18 0.06 0.24
10 -22 18 -0.2 0.13
-10 22 -18 0.05 0.16
10 22 18 0.19 0.14
12 -22 18 1.67 0.22
12 -22 18 1.7 0.35
12 22 18 1.78 0.27
-12 22 -18 2.03 0.34
14 -22 18 -0.12 0.13
14 -22 18 0.42 0.26
-14 22 -18 0.1 0.19
14 22 18 0.1 0.15
16 -22 18 18.86 0.97
16 -22 18 17.39 1.15
16 22 18 18.11 1.03
-16 22 -18 20.09 1.13
18 -22 18 0.41 0.16
18 22 18 0.34 0.18
-18 22 -18 0.03 0.21
20 -22 18 22.81 1.14
20 22 18 21.82 1.22
-20 22 -18 22.49 1.37
22 -22 18 -0.04 0.16
22 22 18 0.18 0.21
24 -22 18 5.13 0.43
24 22 18 4.25 0.48
26 -22 18 -0.24 0.15
28 -22 18 0.03 0.17
30 -22 18 -0.08 0.16
32 -22 18 1.43 0.23
-34 22 -18 0.33 0.14
-36 22 -18 3.81 0.34
-38 22 -18 0.29 0.13
-36 -24 18 -0.12 0.15
-34 -24 18 2.73 0.29
-32 -24 18 0.04 0.18
-30 -24 18 0.59 0.21
-28 -24 18 -0.13 0.17
-26 -24 18 0.06 0.17
-24 -24 18 -0.02 0.16
-22 -24 18 5.07 0.44
22 24 -18 5.51 0.51
-20 -24 18 0.3 0.17
20 24 -18 0.15 0.18
-18 -24 18 13.73 0.75
18 24 -18 11.9 0.77
-16 -24 18 0.2 0.16
16 24 -18 0.06 0.17
-14 -24 18 5.58 0.44
14 24 -18 5.41 0.47
-14 24 18 4.8 0.57
-12 -24 18 -0.08 0.13
12 24 -18 -0.03 0.15
-12 24 18 -0.19 0.23
-10 -24 18 -0.03 0.14
-10 24 18 -0.12 0.23
-10 24 18 0.09 0.13
10 24 -18 0.37 0.18
-8 -24 18 -0.12 0.12
-8 24 18 -0.05 0.12
-8 24 18 -0.25 0.18
8 24 -18 0.05 0.16
-6 -24 18 16.05 0.85
6 24 -18 16.14 0.89
-6 24 18 15.21 0.85
-6 24 18 15.64 0.96
-4 -24 18 0.14 0.16
4 24 -18 -0.07 0.15
-4 24 18 0.21 0.23
-4 24 18 -0.14 0.14
-2 -24 18 56.81 2.56
-2 24 18 53.53 2.49
-2 24 18 55.12 2.53
0 -24 18 0.32 0.17
0 -24 18 0.9 0.28
0 24 18 0.28 0.16
2 -24 18 49.74 2.44
2 -24 18 55.01 2.49
2 24 18 55.53 2.46
4 -24 18 -0.02 0.21
4 -24 18 -0.12 0.15
4 24 18 0.15 0.15
-4 24 -18 -0.23 0.17
6 -24 18 13.15 0.92
6 -24 18 14.58 0.81
-6 24 -18 14.27 0.9
6 24 18 15.31 0.81
8 -24 18 -0.03 0.22
8 -24 18 -0.09 0.15
8 24 18 -0.03 0.12
-8 24 -18 0.03 0.16
10 -24 18 0.17 0.23
10 -24 18 -0.25 0.11
-10 24 -18 0.08 0.18
10 24 18 0.04 0.14
12 -24 18 0 0.22
12 -24 18 -0.12 0.15
-12 24 -18 -0.09 0.17
12 24 18 0.04 0.14
14 -24 18 5.05 0.41
14 24 18 4.68 0.44
-14 24 -18 5.77 0.53
16 -24 18 0.38 0.18
16 24 18 0.25 0.17
-16 24 -18 -0.14 0.18
18 -24 18 10.71 0.66
18 24 18 10.78 0.72
20 -24 18 0.55 0.19
20 24 18 -0.13 0.17
22 -24 18 5 0.45
22 24 18 4.71 0.51
24 -24 18 -0.21 0.17
26 -24 18 -0.23 0.17
28 -24 18 -0.03 0.17
30 -24 18 0.76 0.2
32 -24 18 0.08 0.17
-34 24 -18 2.48 0.24
-36 24 -18 0.13 0.12
-36 -26 18 0.41 0.16
-34 -26 18 -0.04 0.16
-32 -26 18 0.24 0.18
-30 -26 18 -0.25 0.16
-28 -26 18 -0.15 0.18
-26 -26 18 -0.24 0.16
-24 -26 18 0.24 0.18
-22 -26 18 -0.1 0.16
-20 -26 18 1.91 0.26
20 26 -18 2.31 0.34
-18 -26 18 0 0.15
18 26 -18 0.23 0.18
-16 -26 18 0.57 0.19
16 26 -18 0.39 0.2
-14 -26 18 -0.03 0.16
14 26 -18 0.09 0.16
-12 -26 18 0.34 0.16
-12 26 18 0.76 0.35
12 26 -18 0.45 0.21
-10 -26 18 -0.08 0.15
10 26 -18 0.23 0.18
-10 26 18 -0.18 0.22
-10 26 18 0.06 0.14
-8 -26 18 2.11 0.26
-8 26 18 1.96 0.3
8 26 -18 1.83 0.29
-8 26 18 2.06 0.39
-6 -26 18 0.1 0.15
-6 26 18 -0.06 0.21
-4 -26 18 4.54 0.41
-4 26 18 4.23 0.51
-2 -26 18 0.16 0.16
0 -26 18 12.87 0.74
2 -26 18 -0.19 0.19
2 -26 18 0.07 0.15
-2 26 -18 0.12 0.19
4 -26 18 4.06 0.4
4 -26 18 4.05 0.52
-4 26 -18 3.56 0.44
4 26 18 3.96 0.38
6 -26 18 -0.19 0.14
6 -26 18 0.09 0.25
6 26 18 0 0.14
-6 26 -18 0.01 0.18
8 -26 18 1.67 0.36
8 -26 18 1.36 0.21
8 26 18 1.61 0.25
-8 26 -18 2.23 0.35
10 -26 18 0.23 0.26
10 -26 18 -0.01 0.15
-10 26 -18 -0.05 0.18
10 26 18 0.07 0.15
12 -26 18 0.29 0.17
-12 26 -18 0.56 0.25
12 26 18 0.34 0.19
14 -26 18 0.2 0.17
-14 26 -18 0.23 0.21
14 26 18 0.07 0.15
16 -26 18 0.98 0.22
16 26 18 0.64 0.21
18 -26 18 0.05 0.17
18 26 18 0.1 0.17
20 -26 18 1.45 0.24
20 26 18 1.5 0.31
22 -26 18 -0.24 0.17
24 -26 18 0.08 0.19
26 -26 18 -0.1 0.18
28 -26 18 0.13 0.18
30 -26 18 -0.16 0.17
32 -26 18 0.39 0.17
-34 26 -18 -0.13 0.12
-36 26 -18 0.41 0.13
-34 -28 18 0 0.15
-32 -28 18 -0.12 0.15
-30 -28 18 -0.07 0.16
-28 -28 18 -0.23 0.16
-26 -28 18 -0.08 0.18
-24 -28 18 -0.2 0.16
-22 -28 18 0.08 0.17
-20 -28 18 0.24 0.17
-18 -28 18 0.37 0.18
18 28 -18 0.45 0.2
-16 -28 18 0.05 0.16
16 28 -18 -0.22 0.15
-14 -28 18 0.34 0.18
14 28 -18 0.26 0.2
-12 -28 18 0.15 0.16
12 28 -18 0.12 0.19
-10 -28 18 0.83 0.2
10 28 -18 0.56 0.22
-8 -28 18 -0.08 0.15
-6 -28 18 0.2 0.17
-6 28 18 0.35 0.29
-4 -28 18 -0.03 0.15
-2 -28 18 0.2 0.16
0 -28 18 0.03 0.15
2 -28 18 -0.1 0.15
-2 28 -18 0.16 0.19
4 -28 18 -0.02 0.14
-4 28 -18 0.3 0.19
6 -28 18 0.35 0.18
-6 28 -18 0.48 0.21
6 28 18 0.28 0.19
8 -28 18 -0.06 0.16
-8 28 -18 -0.03 0.19
8 28 18 0.09 0.15
10 -28 18 0.68 0.21
10 28 18 0.72 0.21
12 -28 18 -0.05 0.17
12 28 18 0.1 0.16
14 -28 18 0.42 0.19
14 28 18 0.17 0.18
16 -28 18 -0.16 0.17
16 28 18 0.12 0.17
18 -28 18 0.07 0.18
18 28 18 0.02 0.19
20 -28 18 -0.28 0.17
22 -28 18 0.02 0.19
24 -28 18 0.09 0.18
26 -28 18 -0.2 0.17
28 -28 18 -0.07 0.18
30 -28 18 0.07 0.17
32 -28 18 -0.14 0.16
-32 28 -18 -0.12 0.11
-34 28 -18 -0.05 0.11
-32 -30 18 -0.05 0.15
-30 -30 18 -0.03 0.15
-28 -30 18 0.03 0.17
-26 -30 18 0.01 0.17
-24 -30 18 1.11 0.23
-22 -30 18 -0.19 0.17
-20 -30 18 1.24 0.23
-18 -30 18 -0.1 0.17
-16 -30 18 1.66 0.25
-14 -30 18 -0.16 0.15
14 30 -18 -0.06 0.18
-12 -30 18 0.5 0.19
12 30 -18 0.3 0.2
-10 -30 18 -0.09 0.15
-8 -30 18 0.93 0.21
-6 -30 18 0.03 0.15
-4 -30 18 5.13 0.44
-2 -30 18 0.01 0.16
0 -30 18 4.97 0.44
2 -30 18 0.08 0.17
4 -30 18 5.27 0.46
6 -30 18 0.02 0.16
8 -30 18 1.13 0.23
8 30 18 1.52 0.28
10 -30 18 -0.18 0.17
10 30 18 0.04 0.17
12 -30 18 0.2 0.18
12 30 18 0.33 0.19
14 -30 18 0.03 0.18
14 30 18 0.02 0.17
16 -30 18 1.71 0.27
18 -30 18 -0.06 0.19
20 -30 18 1.18 0.24
22 -30 18 -0.15 0.19
24 -30 18 0.69 0.21
26 -30 18 -0.18 0.17
28 -30 18 -0.32 0.17
30 -30 18 -0.09 0.16
-32 30 -18 0.05 0.12
-30 -32 18 0.17 0.15
-28 -32 18 -0.23 0.15
-26 -32 18 0.26 0.18
-24 -32 18 0.01 0.17
-22 -32 18 1.55 0.25
-20 -32 18 0.19 0.19
-18 -32 18 2.5 0.29
-16 -32 18 -0.08 0.17
-14 -32 18 4.48 0.46
-12 -32 18 -0.04 0.17
-10 -32 18 0.59 0.2
-8 -32 18 -0.09 0.15
-6 -32 18 0.81 0.2
-4 -32 18 0.07 0.16
-2 -32 18 4.03 0.41
0 -32 18 0.16 0.19
2 -32 18 3.74 0.41
4 -32 18 -0.1 0.17
6 -32 18 1.18 0.23
8 -32 18 -0.16 0.17
10 -32 18 0.74 0.21
10 32 18 1.08 0.26
12 -32 18 0.15 0.19
14 -32 18 4.57 0.45
16 -32 18 0.36 0.2
18 -32 18 2.73 0.32
20 -32 18 -0.03 0.19
22 -32 18 1.3 0.25
24 -32 18 -0.09 0.18
26 -32 18 0.18 0.18
28 -32 18 -0.26 0.16
30 -32 18 -0.12 0.15
-26 -34 18 -0.19 0.15
-24 -34 18 2.57 0.28
-22 -34 18 0.11 0.17
-20 -34 18 9.26 0.6
-18 -34 18 0.4 0.19
-16 -34 18 11.24 0.69
-14 -34 18 0.38 0.19
-12 -34 18 4.63 0.45
-10 -34 18 0.09 0.17
-8 -34 18 -0.09 0.17
-6 -34 18 -0.01 0.17
-4 -34 18 5.43 0.48
-2 -34 18 0.27 0.19
0 -34 18 6.81 0.54
2 -34 18 0.09 0.18
4 -34 18 5.14 0.49
6 -34 18 0.04 0.19
8 -34 18 0.1 0.19
10 -34 18 -0.09 0.17
12 -34 18 4.13 0.44
14 -34 18 0.36 0.2
16 -34 18 11.49 0.72
18 -34 18 0.5 0.2
20 -34 18 9.47 0.62
22 -34 18 0.27 0.19
24 -34 18 2.14 0.26
26 -34 18 -0.2 0.16
28 -34 18 -0.08 0.15
-24 -36 18 0.15 0.14
-22 -36 18 3.4 0.37
-20 -36 18 0.47 0.17
-18 -36 18 5.43 0.45
-16 -36 18 0.35 0.18
-14 -36 18 4.75 0.43
-12 -36 18 -0.14 0.16
-10 -36 18 -0.14 0.16
-8 -36 18 -0.17 0.17
-6 -36 18 2.25 0.28
-4 -36 18 0.5 0.19
-2 -36 18 9.31 0.61
0 -36 18 0.27 0.19
2 -36 18 10.18 0.66
4 -36 18 0.05 0.2
6 -36 18 1.9 0.28
8 -36 18 -0.24 0.17
10 -36 18 -0.15 0.18
12 -36 18 0.1 0.19
14 -36 18 5.02 0.46
16 -36 18 0.35 0.2
18 -36 18 6.23 0.49
20 -36 18 0.43 0.19
22 -36 18 2.57 0.28
24 -36 18 -0.08 0.16
26 -36 18 -0.05 0.15
-20 -38 18 6.76 0.46
-18 -38 18 0.47 0.17
-16 -38 18 8.15 0.54
-14 -38 18 0.22 0.17
-12 -38 18 2.66 0.29
-10 -38 18 -0.19 0.16
-8 -38 18 0.14 0.17
-6 -38 18 0.01 0.16
-4 -38 18 6.37 0.49
-2 -38 18 0.36 0.19
0 -38 18 9.81 0.64
2 -38 18 0.34 0.2
4 -38 18 6.16 0.5
6 -38 18 -0.06 0.18
8 -38 18 -0.12 0.18
10 -38 18 -0.16 0.18
12 -38 18 2.45 0.28
14 -38 18 0.48 0.18
16 -38 18 7.31 0.51
18 -38 18 0.55 0.19
20 -38 18 6.15 0.46
22 -38 18 0.23 0.16
-16 -40 18 0.32 0.15
-14 -40 18 1.52 0.22
-12 -40 18 -0.05 0.15
-10 -40 18 -0.15 0.15
-8 -40 18 -0.26 0.14
-6 -40 18 1.98 0.25
-4 -40 18 0.09 0.17
-2 -40 18 6.12 0.47
0 -40 18 0.36 0.18
2 -40 18 5.98 0.46
4 -40 18 0.02 0.17
6 -40 18 1.9 0.25
8 -40 18 -0.03 0.16
10 -40 18 -0.15 0.15
12 -40 18 -0.03 0.15
14 -40 18 1.39 0.21
16 -40 18 0.15 0.15
18 -40 18 2.41 0.24
-10 -42 18 0.02 0.14
-8 -42 18 -0.27 0.13
-6 -42 18 0 0.14
-4 -42 18 1.56 0.21
-2 -42 18 0.12 0.15
0 -42 18 3.06 0.34
2 -42 18 0.17 0.15
4 -42 18 1.43 0.21
6 -42 18 -0.03 0.14
8 -42 18 -0.14 0.13
10 -42 18 -0.14 0.13
12 -42 18 1.09 0.17
14 -42 18 0.16 0.13
-43 -1 19 -0.15 0.14
-43 1 19 -0.02 0.13
-41 -1 19 -0.2 0.15
-41 1 19 0.06 0.15
-39 -1 19 -0.28 0.16
-39 1 19 -0.04 0.16
-37 -1 19 -0.18 0.15
-37 1 19 -0.07 0.15
-35 -1 19 0.05 0.16
-35 1 19 -0.13 0.14
-33 -1 19 0.11 0.15
-33 1 19 -0.04 0.14
-31 -1 19 0.03 0.14
-31 1 19 0.07 0.14
-29 -1 19 0.14 0.14
-29 1 19 0.19 0.14
-27 -1 19 0.14 0.14
-27 1 19 0.21 0.13
-25 -1 19 -0.16 0.13
-25 1 19 -0.05 0.12
-23 -1 19 -0.05 0.13
-23 1 19 0.29 0.13
-21 -1 19 -0.18 0.11
-21 1 19 0.22 0.22
-21 1 19 -0.13 0.11
-19 -1 19 0.46 0.23
-19 1 19 0.45 0.22
-17 -1 19 0.84 0.23
-17 1 19 1.16 0.27
-15 -1 19 0.99 0.25
-15 1 19 1.17 0.25
-13 -1 19 2.39 0.32
-13 1 19 3.16 0.36
13 1 -19 2.82 0.25
-11 -1 19 1.29 0.25
11 1 -19 1.43 0.17
-11 1 19 1.12 0.24
-9 -1 19 1.56 0.28
9 1 -19 2.19 0.21
-9 1 19 1.95 0.29
-7 -1 19 0.77 0.21
7 -1 -19 1.12 0.14
-7 1 19 1.08 0.23
7 1 -19 0.78 0.14
-5 -1 19 1.08 0.22
5 -1 -19 1.13 0.14
5 1 -19 1.22 0.16
-5 1 19 0.95 0.22
3 -1 -19 0.6 0.11
-3 -1 19 0.51 0.19
3 1 -19 0.68 0.13
3 1 -19 0.83 0.17
-3 1 19 0.81 0.2
-1 -1 19 0.6 0.18
1 -1 -19 0.56 0.12
1 1 -19 0.63 0.13
1 1 -19 0.39 0.14
-1 1 19 0.64 0.19
1 -1 19 0.44 0.17
-1 -1 -19 0.55 0.12
-1 1 -19 0.8 0.18
1 1 19 0.54 0.19
-1 1 -19 0.56 0.13
-3 -1 -19 0.71 0.13
3 -1 19 0.66 0.2
-3 1 -19 0.57 0.12
-3 1 -19 0.26 0.15
3 1 19 0.57 0.19
-5 -1 -19 1.6 0.18
5 -1 19 1.05 0.24
-5 1 -19 1.26 0.18
5 1 19 1.56 0.27
-5 1 -19 1.14 0.22
-7 -1 -19 1.19 0.16
7 -1 19 0.7 0.22
7 1 19 0.99 0.16
7 1 19 0.83 0.25
-7 1 -19 0.9 0.16
9 -1 19 2.02 0.32
-9 -1 -19 2.16 0.22
-9 1 -19 1.63 0.19
9 1 19 1.83 0.2
9 1 19 1.54 0.28
-11 -1 -19 1.4 0.19
11 -1 19 1.12 0.26
-11 1 -19 0.93 0.16
11 1 19 1.24 0.18
11 1 19 1.19 0.26
13 -1 19 2.14 0.34
-13 1 -19 2.64 0.26
13 1 19 1.8 0.3
15 -1 19 1.66 0.31
15 1 19 1.26 0.28
-15 1 -19 1.36 0.2
17 -1 19 0.54 0.26
-17 1 -19 0.85 0.18
17 1 19 0.97 0.28
19 -1 19 0.5 0.26
-43 -3 19 -0.4 0.13
-43 3 19 -0.02 0.13
-41 -3 19 -0.27 0.15
-41 3 19 -0.03 0.15
-39 -3 19 -0.16 0.16
-39 3 19 -0.01 0.15
-37 -3 19 -0.19 0.15
-37 3 19 0.04 0.15
-35 -3 19 -0.18 0.16
-35 3 19 0.07 0.16
-33 -3 19 0.11 0.16
-33 3 19 0.08 0.15
-31 -3 19 0.09 0.14
-31 3 19 -0.06 0.12
-29 -3 19 -0.05 0.13
-29 3 19 0.26 0.13
-27 -3 19 0.38 0.15
-27 3 19 0.5 0.15
-25 -3 19 -0.05 0.12
-25 3 19 0.09 0.13
-23 -3 19 1.38 0.19
-23 3 19 1.35 0.18
-21 -3 19 -0.12 0.12
-21 3 19 0.14 0.12
-21 3 19 -0.11 0.18
-19 -3 19 0.23 0.13
-19 3 19 0.28 0.23
-17 -3 19 0.33 0.21
-17 3 19 0.54 0.23
17 3 -19 0.26 0.15
-15 -3 19 -0.06 0.16
15 3 -19 0.07 0.13
-15 3 19 0.06 0.17
-13 -3 19 0.76 0.23
13 3 -19 0.79 0.15
-13 3 19 0.7 0.22
-11 -3 19 0.51 0.19
-11 3 19 0.3 0.19
11 3 -19 0.44 0.13
-9 -3 19 1.75 0.27
-9 3 19 2.06 0.31
9 3 -19 1.76 0.2
-7 -3 19 0.47 0.19
7 3 -19 0.34 0.13
-7 3 19 0.27 0.2
-5 -3 19 2.32 0.3
-5 3 19 2.37 0.31
5 3 -19 2.53 0.25
-3 -3 19 1.14 0.23
3 3 -19 1.19 0.19
-3 3 19 1.17 0.23
3 3 -19 1.17 0.17
-1 -3 19 0.58 0.19
1 3 -19 0.53 0.16
1 3 -19 0.66 0.14
-1 3 19 0.48 0.18
1 -3 19 0.58 0.19
-1 3 -19 0.41 0.12
-1 3 -19 0.52 0.16
1 3 19 0.46 0.18
3 -3 19 1.01 0.23
3 3 19 1.25 0.17
-3 3 -19 0.95 0.16
-3 3 -19 0.74 0.18
3 3 19 1.39 0.26
5 -3 19 2.29 0.32
-5 3 -19 2.35 0.23
5 3 19 2.45 0.23
-5 3 -19 1.99 0.27
5 3 19 2.36 0.32
7 -3 19 0.05 0.2
-7 3 -19 0.48 0.17
7 3 19 0.33 0.18
-7 3 -19 0.35 0.12
7 3 19 0.31 0.12
9 -3 19 1.57 0.28
9 3 19 1.79 0.21
-9 3 -19 1.71 0.21
-9 3 -19 1.66 0.25
9 3 19 1.86 0.29
11 -3 19 0.36 0.19
11 3 19 0.36 0.13
-11 3 -19 0.26 0.13
11 3 19 0.37 0.18
-11 3 -19 0.29 0.16
13 -3 19 0.68 0.23
13 3 19 0.68 0.23
-13 3 -19 0.77 0.17
13 3 19 0.86 0.17
15 -3 19 0.14 0.21
15 3 19 0.05 0.13
-15 3 -19 0.11 0.13
15 3 19 0.34 0.19
17 -3 19 0.25 0.21
-17 3 -19 0.33 0.16
19 -3 19 0.75 0.26
-19 3 -19 0.31 0.17
21 -3 19 -0.13 0.21
-21 3 -19 -0.04 0.15
-43 -5 19 0.04 0.14
-43 5 19 0.02 0.13
-41 -5 19 -0.1 0.15
-41 5 19 0.06 0.15
-39 -5 19 -0.04 0.17
-39 5 19 0.16 0.15
-37 -5 19 -0.22 0.16
-37 5 19 0 0.15
-35 -5 19 -0.21 0.15
-35 5 19 -0.01 0.15
-33 -5 19 0.01 0.15
-33 5 19 -0.25 0.13
-31 -5 19 0.01 0.15
-31 5 19 0.11 0.14
-29 -5 19 -0.21 0.13
-29 5 19 0 0.12
-27 -5 19 -0.03 0.13
-27 5 19 0.22 0.13
-25 -5 19 0.12 0.13
-25 5 19 0 0.11
-23 -5 19 -0.24 0.11
-23 5 19 0 0.1
-23 5 19 -0.28 0.18
-21 -5 19 0.05 0.13
-21 5 19 0.19 0.21
-21 5 19 0.26 0.11
-19 -5 19 0.1 0.11
19 5 -19 -0.14 0.12
-19 5 19 -0.16 0.18
-17 5 19 2.67 0.37
17 5 -19 2.74 0.3
-15 -5 19 -0.06 0.16
15 5 -19 0.02 0.12
-15 5 19 0.15 0.19
-13 -5 19 1.93 0.29
13 5 -19 2.6 0.27
-13 5 19 2.45 0.32
-11 -5 19 0.24 0.19
11 5 -19 0.03 0.12
-11 5 19 0.6 0.2
-9 -5 19 4.45 0.42
-9 5 19 4.32 0.41
9 5 -19 5.1 0.36
-7 -5 19 1.47 0.27
-7 5 19 1.11 0.24
7 5 -19 1.34 0.2
-5 -5 19 5.76 0.45
-5 5 19 5.47 0.45
5 5 -19 5.75 0.39
-3 -5 19 2.23 0.3
-3 5 19 2.24 0.31
3 5 -19 2.64 0.26
-1 -5 19 1.06 0.23
-1 5 19 1.14 0.24
1 5 -19 1.12 0.17
-1 5 19 1.38 0.18
1 5 -19 1.43 0.23
1 -5 19 1.13 0.24
-1 5 -19 1.39 0.18
1 5 19 1.52 0.19
-1 5 -19 1.27 0.22
1 5 19 1.33 0.25
3 -5 19 2.29 0.32
3 5 19 2.53 0.25
3 5 19 2.55 0.32
-3 5 -19 2.38 0.24
-3 5 -19 2.1 0.28
5 -5 19 5.01 0.46
-5 5 -19 5.01 0.43
-5 5 -19 6.41 0.38
5 5 19 5.51 0.38
5 5 19 5.26 0.44
7 -5 19 1.15 0.25
7 5 19 0.81 0.21
-7 5 -19 1.28 0.18
-7 5 -19 0.55 0.18
7 5 19 1.29 0.19
9 -5 19 3.03 0.39
-9 5 -19 4.35 0.33
-9 5 -19 4 0.38
9 5 19 4.28 0.33
9 5 19 3.53 0.4
11 -5 19 0.31 0.19
-11 5 -19 0.58 0.19
11 5 19 0.23 0.13
-11 5 -19 0.24 0.12
11 5 19 0.31 0.19
13 -5 19 2.16 0.34
-13 5 -19 1.84 0.27
-13 5 -19 2.23 0.25
13 5 19 2.17 0.33
13 5 19 2.02 0.24
15 -5 19 0.39 0.22
-15 5 -19 0.22 0.13
15 5 19 0.07 0.14
17 -5 19 1.8 0.36
17 5 19 2.15 0.26
-17 5 -19 1.91 0.24
19 -5 19 -0.33 0.2
-19 5 -19 -0.09 0.12
21 -5 19 0.28 0.25
-21 5 -19 0.13 0.15
-23 5 -19 -0.25 0.13
-43 -7 19 -0.06 0.14
-43 7 19 0.17 0.13
-41 -7 19 -0.01 0.15
-41 7 19 0.15 0.14
-39 -7 19 0 0.16
-39 7 19 0 0.14
-37 -7 19 -0.12 0.16
-37 7 19 0.04 0.15
-35 -7 19 -0.08 0.15
-35 7 19 -0.09 0.15
-33 -7 19 -0.24 0.14
-33 7 19 0.19 0.15
-31 -7 19 0.47 0.17
-31 7 19 0.51 0.16
-29 -7 19 -0.03 0.14
-29 7 19 0.33 0.14
-27 -7 19 0.57 0.16
-27 7 19 0.41 0.14
-25 -7 19 0.1 0.13
-25 7 19 -0.05 0.1
-25 7 19 -0.1 0.24
-23 -7 19 1.32 0.19
-23 7 19 1.7 0.34
-21 -7 19 -0.01 0.11
21 7 -19 0.16 0.16
-21 7 19 0.13 0.21
-19 -7 19 0.88 0.16
19 7 -19 1.28 0.23
-19 7 19 1.63 0.31
17 7 -19 0.11 0.15
-17 7 19 0.28 0.22
-15 -7 19 2.03 0.3
15 7 -19 2.2 0.26
-15 7 19 1.9 0.32
-13 -7 19 0.02 0.17
13 7 -19 0.05 0.12
-13 7 19 0.25 0.18
-11 -7 19 5.07 0.44
11 7 -19 4.51 0.36
-11 7 19 4.55 0.42
-9 -7 19 0.02 0.17
-9 7 19 0.3 0.2
9 7 -19 0.43 0.14
-7 -7 19 0.02 0.15
-7 7 19 0.16 0.17
7 7 -19 -0.08 0.12
-5 -7 19 1 0.22
5 7 -19 1.58 0.21
-5 7 19 1.05 0.24
-3 -7 19 0.63 0.2
-3 7 19 0.5 0.13
3 7 -19 0.65 0.15
-3 7 19 0.33 0.19
-1 -7 19 1.04 0.23
-1 7 19 0.92 0.23
-1 7 19 0.87 0.16
1 7 -19 1.22 0.18
1 -7 19 0.97 0.25
-1 7 -19 1.1 0.17
1 7 19 0.86 0.23
-1 7 -19 0.96 0.2
1 7 19 1.07 0.17
3 -7 19 0.26 0.2
3 7 19 0.39 0.13
3 7 19 0.21 0.17
-3 7 -19 0.61 0.14
-3 7 -19 0.37 0.16
5 -7 19 1.18 0.26
5 7 19 1.01 0.17
-5 7 -19 1.63 0.2
5 7 19 0.97 0.22
-5 7 -19 0.89 0.2
7 -7 19 1.06 0.24
7 7 19 0.2 0.13
7 7 19 0.22 0.17
-7 7 -19 0.09 0.15
-7 7 -19 -0.02 0.11
9 -7 19 0.21 0.19
-9 7 -19 0.41 0.13
9 7 19 0.31 0.13
9 7 19 0.09 0.17
-9 7 -19 0.13 0.15
11 -7 19 4.85 0.46
11 7 19 4.6 0.38
-11 7 -19 4.73 0.37
-11 7 -19 5.11 0.44
11 7 19 5.3 0.44
13 -7 19 0 0.19
13 7 19 0.01 0.12
-13 7 -19 0.19 0.16
13 7 19 0.12 0.16
-13 7 -19 0.01 0.11
15 -7 19 1.74 0.35
15 7 19 2.04 0.26
-15 7 -19 1.64 0.28
17 -7 19 0.51 0.25
-17 7 -19 0.05 0.16
17 7 19 0.03 0.13
19 -7 19 1.5 0.33
19 7 19 1.63 0.26
21 -7 19 0.19 0.26
21 7 19 -0.01 0.14
-21 7 -19 -0.09 0.13
23 -7 19 1.04 0.33
-23 7 -19 1.49 0.26
-25 7 -19 -0.08 0.14
-43 -9 19 -0.15 0.14
-41 -9 19 -0.13 0.15
-41 9 19 -0.12 0.12
-39 -9 19 0.23 0.17
-39 9 19 0.17 0.15
-37 -9 19 -0.11 0.15
-37 9 19 0.02 0.15
-35 -9 19 0.04 0.16
-35 9 19 -0.12 0.14
-33 -9 19 -0.14 0.16
-33 9 19 0.1 0.15
-31 -9 19 0.25 0.16
-31 9 19 0.11 0.14
-29 -9 19 0.16 0.15
-29 9 19 0.21 0.14
-27 -9 19 0.81 0.17
-27 9 19 0.81 0.16
-25 -9 19 0.11 0.14
-25 9 19 0.16 0.26
-23 -9 19 0.58 0.15
23 9 -19 0.79 0.21
-23 9 19 0.23 0.27
-21 -9 19 -0.04 0.12
21 9 -19 0.09 0.15
-21 9 19 -0.08 0.19
-19 -9 19 -0.09 0.11
19 9 -19 -0.13 0.14
-19 9 19 0.07 0.2
-17 -9 19 1.35 0.18
17 9 -19 1.75 0.25
-17 9 19 2.28 0.35
15 9 -19 0.13 0.14
-15 9 19 0.45 0.22
-13 -9 19 -0.24 0.14
13 9 -19 0.06 0.13
-13 9 19 -0.07 0.16
-11 -9 19 2.82 0.35
11 9 -19 2.76 0.3
-11 9 19 3.48 0.4
-9 -9 19 0.44 0.2
9 9 -19 0.74 0.18
-9 9 19 0.62 0.21
-7 -9 19 0.36 0.2
-7 9 19 0.27 0.18
7 9 -19 0.36 0.15
-5 -9 19 4.23 0.42
-5 9 19 4.44 0.43
-5 9 19 4.75 0.35
5 9 -19 4.58 0.37
-3 -9 19 1.83 0.29
-3 9 19 1.89 0.29
-3 9 19 2.07 0.23
3 9 -19 2.12 0.25
-1 -9 19 1.96 0.3
-1 9 19 2.23 0.25
-1 9 19 1.71 0.29
1 9 -19 2.14 0.24
1 -9 19 2.04 0.31
-1 9 -19 1.67 0.26
-1 9 -19 1.92 0.22
1 9 19 1.47 0.26
1 9 19 1.65 0.22
3 -9 19 1.54 0.28
3 9 19 1.95 0.24
-3 9 -19 1.69 0.26
-3 9 -19 2.6 0.26
3 9 19 1.7 0.28
5 -9 19 4.32 0.41
5 9 19 4.07 0.33
-5 9 -19 4.71 0.33
-5 9 -19 3.75 0.38
5 9 19 3.38 0.39
7 -9 19 0.41 0.19
7 9 19 0.34 0.18
-7 9 -19 0.22 0.17
7 9 19 0.35 0.14
-7 9 -19 0.27 0.13
9 -9 19 0.8 0.24
-9 9 -19 0.41 0.18
9 9 19 0.6 0.21
9 9 19 0.76 0.17
11 -9 19 3.07 0.41
11 9 19 3.44 0.32
-11 9 -19 2.64 0.33
11 9 19 2.54 0.34
13 -9 19 -0.16 0.15
-13 9 -19 0.83 0.2
13 9 19 -0.08 0.12
15 -9 19 0.2 0.22
-15 9 -19 0.21 0.18
15 9 19 0.49 0.16
17 -9 19 1.35 0.31
17 9 19 1.36 0.23
-17 9 -19 1.4 0.27
19 -9 19 0.13 0.22
19 -9 19 0 0.11
19 9 19 0.03 0.15
-19 9 -19 -0.1 0.15
21 -9 19 0.32 0.26
21 -9 19 0.14 0.12
21 9 19 -0.04 0.15
23 -9 19 0.52 0.15
23 -9 19 0.44 0.28
25 -9 19 0.02 0.12
-25 9 -19 0.19 0.16
27 -9 19 0.61 0.17
-27 9 -19 0.52 0.2
29 -9 19 0.17 0.15
-31 9 -19 0.15 0.13
-33 9 -19 0.01 0.14
-43 -11 19 0 0.14
-41 -11 19 0.09 0.16
-41 11 19 0.16 0.12
-39 -11 19 0 0.17
-39 11 19 0.05 0.14
-37 -11 19 -0.14 0.16
-37 11 19 -0.12 0.14
-35 -11 19 -0.04 0.15
-35 11 19 -0.14 0.14
-33 -11 19 0.14 0.15
-33 11 19 -0.04 0.15
-31 -11 19 0.15 0.16
-31 11 19 0.03 0.14
-29 -11 19 0.31 0.16
-27 -11 19 0.74 0.17
-25 -11 19 -0.05 0.13
25 11 -19 -0.11 0.17
-25 11 19 -0.1 0.24
-23 -11 19 1.33 0.2
23 11 -19 1.39 0.27
-23 11 19 1.23 0.34
-21 -11 19 0.08 0.12
21 11 -19 0.22 0.18
-21 11 19 -0.14 0.24
-19 -11 19 1.64 0.19
-19 11 19 2.32 0.36
19 11 -19 2.09 0.29
-17 -11 19 0.32 0.13
-17 11 19 0.15 0.23
17 11 -19 0.21 0.17
-15 -11 19 5.48 0.37
-15 11 19 5.18 0.52
15 11 -19 4.71 0.41
-13 11 19 3.19 0.4
13 11 -19 3.23 0.34
-11 -11 19 13.7 0.79
11 11 -19 14.29 0.78
-11 11 19 13.01 0.79
-9 -11 19 3.19 0.37
9 11 -19 2.31 0.28
-9 11 19 2.79 0.35
-7 -11 19 5.4 0.45
7 11 -19 4.26 0.38
-7 11 19 5.55 0.45
-5 -11 19 0.38 0.18
5 11 -19 0.08 0.13
-5 11 19 0.41 0.2
-5 11 19 0.31 0.13
-3 -11 19 0.5 0.2
-3 11 19 0.47 0.14
3 11 -19 0.28 0.14
-3 11 19 0.42 0.2
-1 -11 19 1.5 0.28
-1 11 19 1.01 0.18
1 11 -19 0.92 0.18
-1 11 19 1.5 0.26
1 -11 19 1.23 0.25
1 11 19 1.37 0.2
-1 11 -19 1.4 0.2
1 11 19 1.26 0.25
3 -11 19 0.45 0.2
3 11 19 0.31 0.14
-3 11 -19 0.42 0.18
-3 11 -19 0.37 0.13
3 11 19 0.25 0.18
5 -11 19 0.16 0.18
-5 11 -19 0.33 0.16
5 11 19 0.16 0.13
-5 11 -19 0.04 0.12
5 11 19 0.34 0.17
7 -11 19 5.48 0.47
7 11 19 4.9 0.44
-7 11 -19 5.03 0.44
7 11 19 5.09 0.39
9 -11 19 2.85 0.39
9 11 19 2.82 0.35
-9 11 -19 3.63 0.38
9 11 19 3.01 0.31
11 -11 19 13.44 0.85
11 11 19 13.86 0.77
-11 11 -19 13.81 0.83
13 -11 19 2.72 0.41
13 11 19 3.24 0.34
-13 11 -19 4.2 0.41
15 -11 19 4.3 0.53
15 11 19 4.89 0.41
-15 11 -19 4.57 0.44
17 -11 19 0.39 0.13
17 -11 19 0.44 0.25
-17 11 -19 0.17 0.19
17 11 19 0.35 0.17
19 -11 19 1.41 0.35
19 -11 19 1.55 0.19
-19 11 -19 1.59 0.3
19 11 19 1.55 0.28
21 -11 19 0.15 0.13
21 -11 19 -0.03 0.24
21 11 19 0.26 0.19
23 -11 19 1.02 0.17
23 -11 19 0.99 0.33
23 11 19 1.3 0.26
25 -11 19 0.02 0.13
27 -11 19 0.85 0.18
-27 11 -19 1.1 0.26
29 -11 19 0.55 0.17
-31 11 -19 0.05 0.12
-33 11 -19 0.08 0.13
-35 11 -19 0.08 0.14
-41 -13 19 -0.15 0.15
-39 -13 19 0.14 0.18
-37 -13 19 -0.07 0.18
-35 -13 19 0.17 0.18
-33 -13 19 0.37 0.18
-31 -13 19 -0.09 0.15
-29 -13 19 0.53 0.17
-27 -13 19 0.65 0.17
-25 -13 19 0.08 0.14
-25 13 19 0.1 0.27
25 13 -19 0.1 0.18
-23 -13 19 0.33 0.14
23 13 -19 0.59 0.22
-23 13 19 0.87 0.33
-21 -13 19 0.22 0.14
21 13 -19 -0.01 0.17
-21 13 19 0.15 0.27
-19 -13 19 0 0.12
19 13 -19 -0.26 0.15
-19 13 19 -0.18 0.2
-17 -13 19 1.87 0.22
17 13 -19 2.07 0.28
-17 13 19 2.17 0.38
-15 -13 19 0.11 0.11
15 13 -19 -0.05 0.15
-15 13 19 -0.03 0.23
-13 -13 19 0.05 0.11
-13 13 19 -0.25 0.16
13 13 -19 0.03 0.14
-11 13 19 3.14 0.39
11 13 -19 3.21 0.34
-9 -13 19 0.27 0.16
9 13 -19 0.06 0.14
-9 13 19 0.11 0.19
-7 -13 19 0.09 0.16
7 13 -19 0.15 0.14
-7 13 19 0.12 0.12
-7 13 19 0.02 0.17
-5 -13 19 1.95 0.29
-5 13 19 1.87 0.22
5 13 -19 1.98 0.25
-5 13 19 2.04 0.3
-3 -13 19 0.95 0.25
-3 13 19 0.85 0.17
3 13 -19 0.58 0.17
-3 13 19 0.8 0.25
-1 -13 19 2.78 0.36
-1 13 19 2.69 0.29
1 13 -19 2.73 0.29
-1 13 19 2.25 0.32
1 -13 19 2.73 0.35
1 13 19 2.93 0.29
-1 13 -19 2.69 0.29
1 13 19 2.57 0.35
3 -13 19 0.81 0.25
3 13 19 0.82 0.24
-3 13 -19 0.63 0.21
3 13 19 0.76 0.17
-3 13 -19 0.61 0.16
5 -13 19 2.25 0.34
5 13 19 2.09 0.25
-5 13 -19 1.85 0.28
5 13 19 2.18 0.31
7 -13 19 0.04 0.17
7 13 19 -0.26 0.13
-7 13 -19 0.07 0.15
7 13 19 0.06 0.11
9 -13 19 -0.07 0.17
9 13 19 0.07 0.12
-9 13 -19 0 0.16
11 -13 19 3.47 0.44
11 13 19 3.73 0.34
-11 13 -19 3.02 0.37
13 -13 19 -0.12 0.22
13 13 19 -0.18 0.11
-13 13 -19 -0.12 0.15
15 -13 19 0.14 0.24
15 -13 19 0.17 0.12
-15 13 -19 0.1 0.17
15 13 19 0.12 0.15
17 -13 19 1.76 0.2
17 -13 19 2.12 0.39
-17 13 -19 1.6 0.3
17 13 19 1.81 0.28
19 -13 19 -0.09 0.22
19 -13 19 -0.13 0.11
-19 13 -19 -0.06 0.17
19 13 19 -0.18 0.14
21 -13 19 0.38 0.14
21 -13 19 -0.25 0.2
21 13 19 -0.06 0.16
-21 13 -19 -0.01 0.19
23 -13 19 0.44 0.15
23 -13 19 0.17 0.3
23 13 19 0.23 0.2
25 -13 19 -0.2 0.13
25 13 19 0.04 0.2
27 -13 19 0.47 0.16
29 -13 19 0.8 0.18
-29 13 -19 0.87 0.27
31 -13 19 0.01 0.16
-33 13 -19 0.15 0.13
-35 13 -19 0.02 0.13
-37 13 -19 -0.13 0.13
-39 13 -19 0.15 0.14
-41 -15 19 -0.13 0.15
-39 -15 19 0.16 0.17
-37 -15 19 0.07 0.18
-35 -15 19 0.07 0.18
-33 -15 19 0.14 0.18
-31 -15 19 0.07 0.17
-29 -15 19 0.19 0.17
-27 -15 19 0.69 0.19
27 15 -19 1.03 0.26
-25 -15 19 -0.07 0.14
25 15 -19 0.03 0.19
-23 -15 19 0.64 0.18
-23 15 19 0.82 0.32
23 15 -19 0.76 0.24
-21 -15 19 0.08 0.12
-21 15 19 -0.07 0.22
21 15 -19 0.03 0.18
-19 -15 19 0.02 0.13
19 15 -19 -0.05 0.16
-19 15 19 -0.11 0.22
-17 -15 19 0.31 0.13
-17 15 19 0.28 0.24
17 15 -19 0.14 0.17
-15 -15 19 0.19 0.13
-15 15 19 0.16 0.22
15 15 -19 0.16 0.17
-13 -15 19 0.28 0.13
13 15 -19 0.22 0.17
-13 15 19 0 0.2
-11 -15 19 5.34 0.39
-11 15 19 5.84 0.52
11 15 -19 5.28 0.44
9 15 -19 0.39 0.16
-9 15 19 0.42 0.22
-7 -15 19 2.11 0.31
-7 15 19 2.09 0.33
7 15 -19 2.06 0.26
-7 15 19 1.78 0.22
-5 -15 19 0.1 0.18
5 15 -19 0.02 0.13
-5 15 19 0.14 0.12
-5 15 19 0.29 0.19
-3 -15 19 0.02 0.16
3 15 -19 0.24 0.14
-3 15 19 0.19 0.12
-3 15 19 -0.01 0.2
-1 -15 19 1.3 0.29
1 15 -19 1.11 0.2
-1 15 19 1.11 0.26
-1 15 19 1.51 0.21
1 -15 19 1.11 0.26
1 15 19 1.59 0.21
1 15 19 1.62 0.31
-1 15 -19 1.06 0.18
3 -15 19 0.22 0.21
-3 15 -19 -0.03 0.11
3 15 19 0 0.18
3 15 19 0.15 0.12
-3 15 -19 0.29 0.17
5 -15 19 -0.12 0.17
-5 15 -19 0.14 0.15
5 15 19 0 0.11
5 15 19 -0.06 0.17
7 -15 19 1.9 0.34
-7 15 -19 2.17 0.31
7 15 19 2.11 0.26
9 -15 19 0.43 0.23
-9 15 -19 0.51 0.21
9 15 19 0.42 0.15
11 -15 19 4.47 0.51
11 -15 19 4.59 0.36
11 15 19 5.09 0.4
-11 15 -19 4.82 0.46
13 -15 19 0.16 0.11
13 -15 19 0.17 0.23
13 15 19 0.11 0.15
-13 15 -19 0.04 0.17
15 -15 19 0.23 0.23
15 -15 19 0.2 0.12
-15 15 -19 0.08 0.18
15 15 19 0.09 0.16
17 -15 19 0.37 0.27
17 -15 19 0.28 0.14
17 15 19 0.06 0.16
-17 15 -19 0.02 0.18
19 -15 19 -0.04 0.26
19 -15 19 -0.08 0.13
19 15 19 -0.04 0.16
-19 15 -19 -0.19 0.16
21 -15 19 -0.02 0.24
21 -15 19 -0.15 0.13
-21 15 -19 -0.11 0.19
21 15 19 0 0.17
23 -15 19 0.38 0.16
-23 15 -19 0.38 0.22
23 15 19 0.23 0.2
25 -15 19 0.12 0.15
25 15 19 0.05 0.19
27 -15 19 0.64 0.18
29 -15 19 0.3 0.16
31 -15 19 0.09 0.16
-33 15 -19 0.32 0.14
-35 15 -19 0.14 0.14
-37 15 -19 -0.02 0.13
-39 15 -19 0.15 0.13
-41 -17 19 0.04 0.15
-39 -17 19 -0.1 0.16
-37 -17 19 -0.2 0.17
-35 -17 19 0.04 0.19
-33 -17 19 -0.2 0.18
-31 -17 19 -0.16 0.18
-29 -17 19 0.01 0.17
-27 -17 19 0.3 0.18
27 17 -19 0.5 0.24
-25 -17 19 -0.01 0.16
25 17 -19 0.05 0.2
-23 -17 19 -0.06 0.16
23 17 -19 0.24 0.2
-21 -17 19 0.26 0.16
-21 17 19 0.45 0.32
21 17 -19 0.21 0.2
-19 -17 19 0.05 0.13
-19 17 19 0.3 0.28
19 17 -19 -0.12 0.17
-17 -17 19 2.06 0.24
17 17 -19 2.29 0.32
-17 17 19 2.09 0.4
-15 -17 19 0.12 0.15
-15 17 19 0.04 0.23
15 17 -19 0.1 0.17
-13 -17 19 1.45 0.21
13 17 -19 1.91 0.28
-13 17 19 1.78 0.36
-11 -17 19 0.2 0.12
-11 17 19 0.23 0.22
11 17 -19 0.12 0.16
-9 -17 19 1.53 0.21
-9 17 19 2.25 0.26
-9 17 19 1.99 0.33
9 17 -19 2.04 0.28
-7 -17 19 0.3 0.15
-7 -17 19 0.37 0.2
7 17 -19 0.29 0.16
-7 17 19 0.28 0.2
-7 17 19 0.17 0.12
-5 -17 19 2.65 0.36
-5 17 19 2.5 0.35
5 17 -19 2.04 0.27
-5 17 19 2.1 0.25
-3 -17 19 0.5 0.23
-3 17 19 0.29 0.14
-3 17 19 0.65 0.25
3 17 -19 0.24 0.15
-1 -17 19 1.17 0.3
-1 17 19 1.25 0.29
1 17 -19 0.99 0.2
-1 17 19 0.97 0.18
1 -17 19 1.03 0.27
1 17 19 1.11 0.26
-1 17 -19 0.88 0.18
1 17 19 1.04 0.19
3 -17 19 0.43 0.22
3 17 19 0.26 0.14
-3 17 -19 0.46 0.2
3 17 19 0.36 0.2
5 -17 19 2.31 0.37
5 17 19 1.95 0.25
5 17 19 2.1 0.32
-5 17 -19 1.91 0.3
7 -17 19 0.17 0.13
7 -17 19 0.46 0.23
7 17 19 0.1 0.13
-7 17 -19 0.22 0.18
9 -17 19 1.19 0.3
9 -17 19 1.28 0.18
-9 17 -19 1.49 0.28
9 17 19 1.99 0.26
11 -17 19 0.16 0.24
11 -17 19 0.27 0.13
11 17 19 0.49 0.17
-11 17 -19 0.12 0.18
13 -17 19 1.27 0.32
13 -17 19 1.38 0.19
-13 17 -19 0.97 0.27
13 17 19 1.61 0.26
15 -17 19 0.39 0.25
15 -17 19 0.27 0.14
15 17 19 0.05 0.17
-15 17 -19 0.07 0.18
17 -17 19 1.9 0.42
17 -17 19 2.18 0.23
-17 17 -19 2.11 0.36
17 17 19 2.45 0.32
19 -17 19 0.12 0.15
19 -17 19 -0.4 0.21
19 17 19 -0.13 0.16
-19 17 -19 -0.36 0.17
21 -17 19 -0.14 0.29
21 -17 19 0.26 0.17
-21 17 -19 0.18 0.24
21 17 19 0.18 0.2
23 -17 19 -0.08 0.15
23 17 19 0.06 0.19
-23 17 -19 0.19 0.23
25 -17 19 -0.06 0.14
25 17 19 -0.03 0.19
27 -17 19 0.2 0.16
27 17 19 0.23 0.22
29 -17 19 0.07 0.15
31 -17 19 0.25 0.16
-33 17 -19 0.01 0.13
-35 17 -19 0.18 0.14
-37 17 -19 0.08 0.14
-39 17 -19 0.17 0.13
-39 -19 19 -0.03 0.15
-37 -19 19 0.03 0.17
-35 -19 19 -0.21 0.18
-33 -19 19 -0.07 0.17
-31 -19 19 -0.18 0.17
-29 -19 19 0.08 0.17
-27 -19 19 0.58 0.2
27 19 -19 0.5 0.24
-25 -19 19 -0.06 0.17
25 19 -19 -0.09 0.2
-23 -19 19 0.05 0.16
23 19 -19 0.04 0.19
-21 -19 19 -0.07 0.16
21 19 -19 -0.07 0.19
-19 -19 19 0 0.15
19 19 -19 -0.07 0.17
-19 19 19 -0.3 0.26
-17 -19 19 -0.11 0.14
-17 19 19 -0.19 0.21
17 19 -19 -0.13 0.16
-15 -19 19 -0.1 0.13
-15 19 19 -0.04 0.22
15 19 -19 -0.12 0.16
-13 -19 19 -0.21 0.13
-13 19 19 0.17 0.24
13 19 -19 -0.14 0.15
-11 -19 19 2.14 0.25
11 19 -19 1.94 0.29
-11 19 19 1.87 0.34
-9 -19 19 -0.11 0.11
-9 19 19 0.02 0.12
9 19 -19 0 0.14
-9 19 19 -0.09 0.18
-7 -19 19 1.52 0.21
7 19 -19 1.79 0.26
-7 19 19 1.46 0.33
-7 19 19 1.08 0.2
-5 -19 19 0.33 0.15
-5 -19 19 0.1 0.19
-5 19 19 -0.42 0.17
5 19 -19 -0.09 0.14
-5 19 19 -0.02 0.11
-3 -19 19 0.52 0.16
-3 -19 19 0.48 0.25
-3 19 19 0.65 0.17
3 19 -19 0.81 0.19
-3 19 19 0.56 0.26
-1 -19 19 0.58 0.15
-1 -19 19 0.44 0.26
-1 19 19 0.23 0.24
-1 19 19 0.64 0.17
1 19 -19 1.14 0.2
1 -19 19 0.5 0.17
1 -19 19 0.37 0.25
1 19 19 0.79 0.17
-1 19 -19 0.76 0.18
1 19 19 0.53 0.26
3 -19 19 0.72 0.29
3 -19 19 0.52 0.16
-3 19 -19 0.49 0.21
3 19 19 0.31 0.22
3 19 19 0.52 0.15
5 -19 19 -0.02 0.2
5 -19 19 0.09 0.15
5 19 19 -0.06 0.11
-5 19 -19 0.1 0.16
7 -19 19 1.1 0.19
7 -19 19 1.09 0.31
-7 19 -19 1.36 0.26
7 19 19 1.79 0.24
9 -19 19 0.12 0.12
9 -19 19 0.1 0.2
9 19 19 -0.01 0.12
-9 19 -19 -0.05 0.15
11 -19 19 1.73 0.21
11 -19 19 1.62 0.36
-11 19 -19 1.86 0.3
11 19 19 2.23 0.28
13 -19 19 0.05 0.21
13 -19 19 -0.2 0.11
-13 19 -19 0 0.18
13 19 19 -0.02 0.14
15 -19 19 -0.23 0.25
15 -19 19 -0.2 0.12
-15 19 -19 -0.05 0.18
15 19 19 -0.13 0.15
17 -19 19 0.12 0.15
17 -19 19 -0.32 0.24
-17 19 -19 -0.12 0.2
17 19 19 -0.19 0.16
19 -19 19 0.41 0.17
19 -19 19 -0.09 0.28
19 19 19 -0.08 0.17
-19 19 -19 -0.22 0.2
21 -19 19 -0.11 0.16
-21 19 -19 -0.2 0.21
21 19 19 0.06 0.19
23 -19 19 0.12 0.16
23 19 19 0.21 0.2
25 -19 19 0.06 0.16
25 19 19 -0.07 0.19
27 -19 19 0.19 0.17
27 19 19 0.51 0.25
29 -19 19 0.1 0.16
31 -19 19 0.19 0.16
-33 19 -19 0 0.13
-35 19 -19 0.25 0.14
-37 19 -19 0.03 0.13
-39 19 -19 0.03 0.13
-39 -21 19 -0.11 0.15
-37 -21 19 -0.13 0.16
-35 -21 19 -0.2 0.16
-33 -21 19 -0.15 0.17
-31 -21 19 -0.35 0.17
-29 -21 19 0.01 0.18
-27 -21 19 0.04 0.17
-25 -21 19 0.03 0.16
25 21 -19 -0.17 0.18
-23 -21 19 -0.06 0.16
23 21 -19 -0.1 0.17
-21 -21 19 0.19 0.16
21 21 -19 0.32 0.21
-19 -21 19 -0.04 0.15
19 21 -19 -0.18 0.16
-17 -21 19 0.47 0.18
17 21 -19 0.31 0.2
-17 21 19 0.21 0.26
-15 -21 19 -0.09 0.14
15 21 -19 0.02 0.17
-15 21 19 0.06 0.23
-13 -21 19 0.13 0.15
13 21 -19 0.12 0.17
-13 21 19 0.37 0.27
-11 -21 19 0.13 0.14
11 21 -19 0.02 0.16
-11 21 19 0.08 0.22
-9 -21 19 0.07 0.14
-9 21 19 0.36 0.23
9 21 -19 0.44 0.18
-9 21 19 -0.03 0.12
-7 -21 19 0.21 0.15
7 21 -19 0.01 0.15
-7 21 19 0.08 0.21
-7 21 19 0.04 0.13
-5 -21 19 0.38 0.16
5 21 -19 0.34 0.18
-5 21 19 0.37 0.16
-5 21 19 0.41 0.24
-3 -21 19 -0.11 0.21
-3 -21 19 0.44 0.14
-3 21 19 -0.03 0.13
-3 21 19 0.28 0.22
3 21 -19 0.18 0.15
-1 -21 19 0.27 0.16
-1 -21 19 0.03 0.23
-1 21 19 0.06 0.13
-1 21 19 0.14 0.21
1 21 -19 0.08 0.13
1 -21 19 0.01 0.15
1 -21 19 -0.12 0.22
-1 21 -19 0.1 0.14
1 21 19 -0.1 0.21
1 21 19 0.15 0.14
3 -21 19 0.29 0.14
3 -21 19 -0.18 0.2
3 21 19 0.04 0.12
-3 21 -19 0.07 0.17
5 -21 19 0.08 0.16
5 -21 19 0.07 0.22
5 21 19 0.29 0.15
-5 21 -19 0.09 0.18
7 -21 19 0.18 0.21
7 -21 19 -0.06 0.14
7 21 19 0.04 0.13
-7 21 -19 0.1 0.18
9 -21 19 -0.04 0.2
9 -21 19 -0.01 0.14
9 21 19 0.15 0.13
-9 21 -19 0.21 0.19
11 -21 19 0.08 0.21
11 -21 19 -0.17 0.12
-11 21 -19 0.16 0.19
11 21 19 0.22 0.15
13 -21 19 0.07 0.23
13 -21 19 0 0.13
13 21 19 0.1 0.15
-13 21 -19 -0.12 0.18
15 -21 19 0.02 0.21
15 -21 19 0.1 0.14
15 21 19 -0.12 0.14
-15 21 -19 -0.03 0.18
17 -21 19 -0.1 0.29
17 -21 19 0.46 0.17
-17 21 -19 0.24 0.22
17 21 19 0.28 0.19
19 -21 19 0.03 0.16
-19 21 -19 -0.22 0.19
19 21 19 0.02 0.18
21 -21 19 0.33 0.18
21 21 19 0.22 0.21
23 -21 19 0.04 0.17
23 21 19 0.01 0.19
25 -21 19 -0.11 0.16
25 21 19 -0.1 0.2
27 -21 19 0.18 0.17
29 -21 19 0.17 0.17
31 -21 19 0.02 0.16
-33 21 -19 0.18 0.14
-35 21 -19 -0.05 0.13
-37 21 -19 0.07 0.13
-37 -23 19 -0.11 0.15
-35 -23 19 -0.11 0.16
-33 -23 19 -0.16 0.17
-31 -23 19 -0.27 0.17
-29 -23 19 -0.15 0.16
-27 -23 19 -0.21 0.16
-25 -23 19 -0.04 0.16
-23 -23 19 0.1 0.16
23 23 -19 0 0.19
-21 -23 19 -0.28 0.14
21 23 -19 -0.17 0.17
-19 -23 19 -0.26 0.15
19 23 -19 0.17 0.18
-17 -23 19 -0.08 0.16
17 23 -19 0.05 0.18
-15 -23 19 0.26 0.16
15 23 -19 0.29 0.18
-15 23 19 0.54 0.3
-13 -23 19 0.31 0.15
-13 23 19 0.73 0.29
13 23 -19 0.26 0.17
-11 -23 19 1.15 0.21
-11 23 19 1.27 0.34
11 23 -19 1.76 0.29
-9 -23 19 0.64 0.18
9 23 -19 0.48 0.19
-9 23 19 0.51 0.28
-9 23 19 0.72 0.18
-7 -23 19 1.4 0.23
-7 23 19 1.92 0.26
-7 23 19 1.53 0.36
7 23 -19 2.54 0.32
-5 -23 19 0.18 0.15
5 23 -19 -0.14 0.14
-5 23 19 -0.02 0.13
-5 23 19 -0.05 0.23
-3 -23 19 1.45 0.23
-3 23 19 1.73 0.25
3 23 -19 1.95 0.27
-3 23 19 1.75 0.36
-1 -23 19 0.21 0.16
-1 -23 19 0.61 0.24
1 23 -19 0.84 0.2
-1 23 19 0.56 0.27
-1 23 19 0.47 0.17
1 -23 19 0.24 0.15
1 -23 19 0.31 0.27
-1 23 -19 0.6 0.18
1 23 19 0.31 0.15
3 -23 19 1.07 0.21
3 -23 19 0.91 0.33
3 23 19 1.71 0.25
-3 23 -19 1.86 0.33
5 -23 19 -0.33 0.13
5 -23 19 -0.18 0.23
5 23 19 -0.03 0.13
-5 23 -19 0.24 0.18
7 -23 19 1.53 0.23
7 -23 19 1.18 0.35
7 23 19 1.81 0.25
-7 23 -19 1.24 0.28
9 -23 19 0.56 0.17
9 -23 19 0.59 0.25
9 23 19 0.61 0.18
-9 23 -19 0.8 0.24
11 -23 19 1.03 0.3
11 -23 19 0.87 0.19
-11 23 -19 0.9 0.26
11 23 19 1.3 0.24
13 -23 19 0.72 0.29
13 -23 19 0.42 0.15
-13 23 -19 0.59 0.25
13 23 19 0.39 0.19
15 -23 19 -0.12 0.23
15 -23 19 0.45 0.18
15 23 19 0.4 0.19
-15 23 -19 0.41 0.25
17 -23 19 0.3 0.17
-17 23 -19 -0.03 0.22
17 23 19 0.04 0.18
19 -23 19 -0.11 0.16
19 23 19 -0.13 0.17
21 -23 19 -0.14 0.17
21 23 19 -0.09 0.19
23 -23 19 0.03 0.17
23 23 19 -0.03 0.19
25 -23 19 -0.2 0.16
27 -23 19 -0.21 0.16
29 -23 19 -0.11 0.16
31 -23 19 0.04 0.16
-33 23 -19 -0.16 0.13
-35 23 -19 0.05 0.13
-37 23 -19 0.18 0.12
-35 -25 19 -0.07 0.15
-33 -25 19 -0.11 0.17
-31 -25 19 -0.18 0.17
-29 -25 19 -0.08 0.18
-27 -25 19 -0.17 0.16
-25 -25 19 -0.03 0.16
-23 -25 19 -0.02 0.16
-21 -25 19 0.03 0.16
21 25 -19 0.04 0.19
-19 -25 19 -0.08 0.15
19 25 -19 0 0.16
-17 -25 19 -0.01 0.15
17 25 -19 0.09 0.18
-15 -25 19 -0.12 0.15
15 25 -19 0.12 0.17
-13 -25 19 -0.06 0.15
13 25 -19 0.26 0.19
-11 -25 19 -0.08 0.15
-11 25 19 0.04 0.26
11 25 -19 0.1 0.18
-9 -25 19 -0.11 0.13
9 25 -19 0.18 0.18
-9 25 19 0.07 0.14
-9 25 19 0.04 0.24
-7 -25 19 -0.19 0.14
-7 25 19 0.02 0.14
7 25 -19 -0.04 0.16
-7 25 19 -0.04 0.23
-5 -25 19 0.34 0.17
-5 25 19 0.21 0.16
5 25 -19 0.13 0.17
-5 25 19 0.2 0.24
-3 -25 19 0.27 0.16
3 25 -19 0.24 0.17
-3 25 19 0.18 0.25
-3 25 19 0.33 0.18
-1 -25 19 0.21 0.16
-1 25 19 0.11 0.15
1 -25 19 -0.09 0.24
1 -25 19 0.27 0.17
1 25 19 0.26 0.15
3 -25 19 0.29 0.28
3 -25 19 0.06 0.16
3 25 19 0.3 0.16
-3 25 -19 0.2 0.19
5 -25 19 0.11 0.26
5 -25 19 -0.03 0.16
-5 25 -19 0.39 0.21
5 25 19 0.18 0.15
7 -25 19 -0.25 0.14
7 -25 19 -0.01 0.22
7 25 19 -0.03 0.13
-7 25 -19 0.16 0.19
9 -25 19 -0.05 0.14
9 -25 19 0.25 0.23
-9 25 -19 -0.23 0.17
9 25 19 0.1 0.15
11 -25 19 -0.06 0.15
11 -25 19 0.23 0.29
11 25 19 0.1 0.15
-11 25 -19 0.25 0.22
13 -25 19 0.07 0.16
13 25 19 0.09 0.15
-13 25 -19 0.18 0.22
15 -25 19 0.01 0.17
15 25 19 -0.01 0.16
17 -25 19 0.06 0.17
17 25 19 0.16 0.18
19 -25 19 0.04 0.17
19 25 19 -0.14 0.16
21 -25 19 0.12 0.18
21 25 19 0.12 0.2
23 -25 19 -0.28 0.17
25 -25 19 -0.36 0.16
27 -25 19 -0.17 0.17
29 -25 19 0.05 0.17
31 -25 19 0.04 0.17
-33 25 -19 -0.07 0.13
-35 25 -19 0.04 0.12
-33 -27 19 -0.11 0.15
-31 -27 19 -0.13 0.16
-29 -27 19 -0.06 0.16
-27 -27 19 -0.25 0.17
-25 -27 19 -0.18 0.16
-23 -27 19 -0.22 0.16
-21 -27 19 0.05 0.17
-19 -27 19 0.22 0.17
19 27 -19 0.12 0.18
-17 -27 19 0.34 0.18
17 27 -19 0.27 0.19
-15 -27 19 0.84 0.2
15 27 -19 0.82 0.24
-13 -27 19 0.56 0.19
13 27 -19 0.69 0.22
-11 -27 19 0.61 0.19
11 27 -19 0.83 0.24
-9 -27 19 0.91 0.2
9 27 -19 1.39 0.28
-9 27 19 1.08 0.24
-7 -27 19 0.34 0.18
7 27 -19 0.86 0.23
-7 27 19 0.5 0.29
-7 27 19 0.85 0.21
-5 -27 19 0.13 0.17
-5 27 19 0.17 0.28
-3 -27 19 0.51 0.19
-1 -27 19 0.16 0.16
1 -27 19 0.08 0.17
-1 27 -19 0.13 0.2
3 -27 19 0.27 0.19
3 -27 19 0.21 0.29
3 27 19 0.83 0.21
-3 27 -19 0.51 0.23
5 -27 19 0.17 0.17
5 -27 19 0.22 0.27
-5 27 -19 0.23 0.21
5 27 19 0.23 0.16
7 -27 19 0.37 0.19
7 -27 19 -0.01 0.28
7 27 19 0.56 0.19
-7 27 -19 0.21 0.22
9 -27 19 0.85 0.21
-9 27 -19 1.02 0.29
9 27 19 0.73 0.21
11 -27 19 0.85 0.21
11 27 19 0.92 0.23
13 -27 19 0.45 0.19
13 27 19 0.64 0.22
15 -27 19 0.59 0.21
15 27 19 0.98 0.24
17 -27 19 0.29 0.2
17 27 19 0.15 0.2
19 -27 19 0.2 0.19
19 27 19 0.08 0.18
21 -27 19 0 0.18
23 -27 19 -0.12 0.18
25 -27 19 -0.09 0.17
27 -27 19 -0.11 0.17
29 -27 19 -0.01 0.17
31 -27 19 -0.23 0.16
-33 27 -19 -0.18 0.11
-35 27 -19 -0.1 0.11
-33 -29 19 -0.05 0.15
-31 -29 19 -0.12 0.15
-29 -29 19 -0.08 0.17
-27 -29 19 0.06 0.18
-25 -29 19 0.04 0.18
-23 -29 19 -0.04 0.18
-21 -29 19 0.27 0.19
-19 -29 19 0.15 0.18
-17 -29 19 0.03 0.17
-15 -29 19 0.07 0.17
15 29 -19 -0.07 0.18
-13 -29 19 0.62 0.2
13 29 -19 0.43 0.2
-11 -29 19 0.09 0.16
11 29 -19 0.39 0.22
-9 -29 19 0.36 0.19
9 29 -19 0.57 0.23
-7 -29 19 -0.06 0.16
-5 -29 19 -0.16 0.15
-3 -29 19 0.17 0.18
-1 -29 19 0.14 0.17
1 -29 19 0.07 0.16
3 -29 19 0.15 0.18
5 -29 19 0.14 0.18
5 29 19 0.03 0.15
7 -29 19 -0.03 0.17
7 29 19 0.28 0.18
9 -29 19 0.13 0.17
9 29 19 0.42 0.19
11 -29 19 0.39 0.2
11 29 19 0.53 0.21
13 -29 19 0.6 0.2
13 29 19 0.64 0.22
15 -29 19 0.19 0.2
15 29 19 0.13 0.19
17 -29 19 -0.1 0.18
19 -29 19 0.07 0.19
21 -29 19 0.21 0.19
23 -29 19 -0.2 0.18
25 -29 19 -0.11 0.18
27 -29 19 -0.35 0.16
29 -29 19 -0.12 0.16
31 -29 19 -0.16 0.16
-33 29 -19 -0.18 0.1
-31 -31 19 -0.28 0.13
-29 -31 19 -0.23 0.15
-27 -31 19 -0.1 0.16
-25 -31 19 0.04 0.17
-23 -31 19 -0.38 0.17
-21 -31 19 -0.38 0.16
-19 -31 19 -0.06 0.17
-17 -31 19 -0.24 0.17
-15 -31 19 0.08 0.17
-13 -31 19 0.17 0.18
-11 -31 19 0.07 0.18
11 31 -19 0.04 0.19
-9 -31 19 0.27 0.18
-7 -31 19 0.26 0.18
-5 -31 19 0 0.16
-3 -31 19 0.23 0.18
-1 -31 19 -0.06 0.16
1 -31 19 0.13 0.18
3 -31 19 0.18 0.18
5 -31 19 0.15 0.18
7 -31 19 0.36 0.2
7 31 19 0.42 0.21
9 -31 19 -0.02 0.19
9 31 19 0.56 0.21
11 -31 19 0.13 0.19
11 31 19 0.3 0.19
13 -31 19 0.13 0.19
15 -31 19 -0.03 0.19
17 -31 19 -0.21 0.19
19 -31 19 -0.16 0.19
21 -31 19 -0.08 0.19
23 -31 19 -0.06 0.18
25 -31 19 -0.2 0.18
27 -31 19 -0.26 0.17
29 -31 19 -0.02 0.16
31 -31 19 -0.08 0.15
-31 31 -19 -0.01 0.11
-27 -33 19 -0.24 0.15
-25 -33 19 -0.18 0.16
-23 -33 19 -0.09 0.16
-21 -33 19 -0.12 0.18
-19 -33 19 -0.19 0.17
-17 -33 19 -0.03 0.19
-15 -33 19 0.02 0.18
-13 -33 19 0.27 0.18
-11 -33 19 -0.02 0.18
-9 -33 19 0.09 0.18
-7 -33 19 0.14 0.18
-5 -33 19 0.16 0.18
-3 -33 19 0.12 0.18
-1 -33 19 0.11 0.18
1 -33 19 -0.02 0.18
3 -33 19 0.08 0.18
5 -33 19 -0.08 0.18
7 -33 19 -0.02 0.18
9 -33 19 -0.04 0.19
11 -33 19 0.08 0.19
13 -33 19 0.06 0.2
15 -33 19 -0.23 0.18
17 -33 19 -0.1 0.19
19 -33 19 0.06 0.19
21 -33 19 0.05 0.19
23 -33 19 -0.21 0.18
25 -33 19 -0.07 0.17
27 -33 19 -0.19 0.16
29 -33 19 -0.27 0.14
-25 -35 19 -0.16 0.14
-23 -35 19 -0.01 0.16
-21 -35 19 0.11 0.17
-19 -35 19 0.16 0.18
-17 -35 19 0.12 0.19
-15 -35 19 0.12 0.18
-13 -35 19 -0.04 0.18
-11 -35 19 0.06 0.18
-9 -35 19 0.12 0.18
-7 -35 19 0.04 0.17
-5 -35 19 0.07 0.18
-3 -35 19 0.21 0.18
-1 -35 19 -0.02 0.18
1 -35 19 0.25 0.18
3 -35 19 0.01 0.19
5 -35 19 0.04 0.19
7 -35 19 0.17 0.2
9 -35 19 0.02 0.18
11 -35 19 0.02 0.19
13 -35 19 -0.01 0.19
15 -35 19 0.26 0.2
17 -35 19 0.31 0.2
19 -35 19 0.02 0.19
21 -35 19 -0.06 0.18
23 -35 19 -0.2 0.16
25 -35 19 -0.16 0.16
27 -35 19 0.09 0.15
-21 -37 19 0.03 0.15
-19 -37 19 0 0.15
-17 -37 19 0.05 0.16
-15 -37 19 -0.14 0.16
-13 -37 19 -0.05 0.17
-11 -37 19 0.05 0.17
-9 -37 19 -0.22 0.17
-7 -37 19 -0.17 0.17
-5 -37 19 0.01 0.17
-3 -37 19 0.16 0.17
-1 -37 19 0.3 0.19
1 -37 19 -0.01 0.18
3 -37 19 -0.05 0.18
5 -37 19 -0.11 0.18
7 -37 19 -0.19 0.17
9 -37 19 0.11 0.19
11 -37 19 -0.2 0.17
13 -37 19 0.3 0.19
15 -37 19 -0.08 0.17
17 -37 19 0.22 0.18
19 -37 19 -0.03 0.18
21 -37 19 -0.13 0.17
23 -37 19 -0.18 0.15
-19 -39 19 0.1 0.16
-17 -39 19 0.19 0.16
-15 -39 19 0.02 0.16
-13 -39 19 0.06 0.17
-11 -39 19 0 0.16
-9 -39 19 -0.14 0.15
-7 -39 19 0.02 0.16
-5 -39 19 0.09 0.16
-3 -39 19 0.11 0.17
-1 -39 19 -0.08 0.16
1 -39 19 0.06 0.17
3 -39 19 0.13 0.17
5 -39 19 0.04 0.17
7 -39 19 -0.04 0.16
9 -39 19 0.15 0.17
11 -39 19 0.01 0.16
13 -39 19 0.18 0.17
15 -39 19 0.25 0.16
17 -39 19 0.02 0.16
19 -39 19 -0.08 0.15
21 -39 19 -0.03 0.15
-13 -41 19 -0.08 0.13
-11 -41 19 -0.04 0.14
-9 -41 19 -0.26 0.13
-7 -41 19 -0.14 0.15
-5 -41 19 -0.17 0.15
-3 -41 19 -0.11 0.15
-1 -41 19 -0.12 0.15
1 -41 19 -0.17 0.14
3 -41 19 -0.03 0.15
5 -41 19 -0.03 0.15
7 -41 19 -0.02 0.15
9 -41 19 -0.12 0.14
11 -41 19 0.1 0.15
13 -41 19 0.09 0.14
15 -41 19 0.27 0.14
-5 -43 19 -0.05 0.12
-3 -43 19 0.06 0.13
-1 -43 19 0 0.13
1 -43 19 -0.05 0.13
3 -43 19 -0.08 0.13
5 -43 19 -0.14 0.12
7 -43 19 0.03 0.13
9 -43 19 -0.02 0.14
-42 0 20 0.35 0.15
-40 0 20 7.49 0.5
-38 0 20 0.62 0.17
-36 0 20 7.95 0.53
-34 0 20 0.31 0.15
-32 0 20 2.04 0.23
-30 0 20 0.16 0.14
-28 0 20 0.16 0.14
-26 0 20 0.44 0.14
-24 0 20 35.44 1.65
-20 0 20 102.45 4.53
-20 0 20 101.88 4.32
-18 0 20 0.61 0.22
-16 0 20 79.48 3.41
-14 0 20 0.48 0.21
-12 0 20 18.82 0.99
-10 0 20 0.67 0.23
8 0 -20 10.22 0.54
-8 0 20 11.18 0.67
6 0 -20 0.27 0.1
-6 0 20 0.34 0.2
4 0 -20 232.59 10.33
-4 0 20 250.8 9.8
2 0 -20 -0.23 0.12
-2 0 20 0.64 0.23
0 0 -20 436.6 18.75
0 0 20 442.6 17.63
-2 0 -20 0.32 0.14
2 0 20 0.02 0.22
4 0 20 249.65 9.85
-4 0 -20 235 10.38
6 0 20 0.21 0.19
-6 0 -20 0.13 0.11
-8 0 -20 10.49 0.59
8 0 20 12.39 0.73
-10 0 -20 0.67 0.15
10 0 20 0.55 0.21
-12 0 -20 22.25 1.03
12 0 20 19.13 1.1
14 0 20 0.67 0.22
16 0 20 77.11 3.38
18 0 20 0.76 0.26
-42 -2 20 3.41 0.32
-42 2 20 3.19 0.32
-40 -2 20 0.42 0.17
-40 2 20 0.5 0.16
-38 -2 20 8.72 0.56
-38 2 20 8.58 0.55
-36 -2 20 0.51 0.18
-36 2 20 0.43 0.17
-34 -2 20 5.19 0.44
-34 2 20 4.96 0.4
-32 -2 20 0.08 0.15
-32 2 20 0.2 0.15
-30 -2 20 3.61 0.37
-30 2 20 4.02 0.36
-28 -2 20 -0.08 0.12
-28 2 20 0.02 0.13
-26 -2 20 13.69 0.74
-26 2 20 14.07 0.73
-24 -2 20 0.46 0.14
-22 -2 20 87.6 3.91
-22 2 20 87.88 3.91
-20 2 20 0.89 0.27
-18 -2 20 126.06 5.41
-18 2 20 134.59 5.45
-16 -2 20 0.09 0.19
-16 2 20 0.35 0.22
-14 -2 20 69.81 3
-14 2 20 70.92 3.01
14 2 -20 67.32 3.06
-12 -2 20 0.2 0.2
12 2 -20 0.35 0.12
-12 2 20 0.02 0.16
-10 -2 20 14.02 0.79
-10 2 20 14.07 0.8
10 2 -20 13.8 0.71
-8 -2 20 0.19 0.19
-8 2 20 0.04 0.16
8 2 -20 0.15 0.1
-6 -2 20 77.89 3.23
6 2 -20 73.58 3.3
-6 2 20 74.58 3.22
-4 -2 20 0.44 0.21
4 2 -20 0.09 0.12
-4 2 20 0.08 0.18
-2 -2 20 287.21 11.16
2 2 -20 263.31 12.06
-2 2 20 280.95 11.15
2 2 -20 271.91 11.82
0 -2 20 0 0.22
0 2 -20 0.28 0.14
0 2 -20 0.09 0.17
0 2 20 0.3 0.23
2 -2 20 290.91 11.37
-2 2 -20 274.35 12.28
-2 2 -20 267.44 12.02
2 2 20 291.2 11.37
4 -2 20 0.09 0.21
-4 2 -20 0.16 0.12
4 2 20 0 0.18
-4 2 -20 0.3 0.16
6 -2 20 77.14 3.21
6 2 20 74.24 3.2
-6 2 -20 70.99 3.39
-6 2 -20 74.41 3.26
6 2 20 73.19 3.26
8 -2 20 0.3 0.2
8 2 20 0.06 0.11
8 2 20 0.21 0.17
-8 2 -20 0.01 0.1
10 -2 20 13.28 0.82
10 2 20 13.48 0.72
-10 2 -20 14.49 0.73
10 2 20 13.19 0.81
12 -2 20 0.33 0.2
12 2 20 0.22 0.17
-12 2 -20 0.04 0.11
12 2 20 0.09 0.11
14 -2 20 65.03 2.88
-14 2 -20 65.5 2.88
14 2 20 62.72 2.85
16 -2 20 0.07 0.2
-16 2 -20 0.27 0.13
16 2 20 0.59 0.22
18 -2 20 113.62 4.91
-18 2 -20 116.44 5.04
20 -2 20 0.52 0.26
-42 -4 20 -0.06 0.14
-42 4 20 0.26 0.14
-40 -4 20 4.78 0.4
-40 4 20 5.04 0.39
-38 -4 20 0.23 0.17
-38 4 20 0.4 0.16
-36 -4 20 5.87 0.47
-36 4 20 6.17 0.45
-34 -4 20 -0.09 0.15
-34 4 20 0.02 0.15
-32 -4 20 2.53 0.27
-32 4 20 2.35 0.26
-30 -4 20 0.06 0.14
-30 4 20 0.17 0.13
-28 -4 20 0.95 0.18
-28 4 20 0.96 0.17
-26 -4 20 0.06 0.13
-26 4 20 0.09 0.12
-24 -4 20 11.69 0.66
-24 4 20 12.76 0.66
-22 -4 20 0.35 0.13
-22 4 20 0.16 0.23
-20 -4 20 42.13 1.91
-20 4 20 40.99 1.94
-18 -4 20 0.31 0.13
-18 4 20 0.27 0.2
-16 -4 20 31.18 1.54
-16 4 20 32.93 1.56
16 4 -20 33.1 1.53
-14 -4 20 0 0.18
14 4 -20 0.21 0.12
-14 4 20 0.08 0.18
-12 -4 20 8.59 0.59
12 4 -20 8.98 0.52
-12 4 20 9.26 0.62
-10 -4 20 -0.09 0.18
10 4 -20 0.04 0.11
-10 4 20 0.14 0.18
-8 -4 20 10.14 0.64
8 4 -20 10.19 0.57
-8 4 20 9.99 0.64
-6 -4 20 0.11 0.17
-6 4 20 0.07 0.17
6 4 -20 0.17 0.12
-4 -4 20 170.75 7.04
-4 4 20 172.38 7.03
4 4 -20 171.83 7.42
-2 -4 20 0.16 0.2
2 4 -20 -0.1 0.13
-2 4 20 0.3 0.21
2 4 -20 -0.08 0.16
0 -4 20 248.71 9.97
0 4 20 248.27 9.95
0 4 -20 239.39 10.54
2 -4 20 0.37 0.21
-2 4 -20 0.18 0.15
2 4 20 0.13 0.18
-2 4 -20 -0.12 0.11
2 4 20 0.09 0.12
4 -4 20 172.64 6.85
-4 4 -20 160.97 7.17
-4 4 -20 164.88 7.36
4 4 20 163.02 7.17
4 4 20 169.69 6.84
6 -4 20 0.29 0.2
-6 4 -20 -0.14 0.12
6 4 20 0.15 0.11
-6 4 -20 -0.01 0.1
6 4 20 -0.03 0.17
8 -4 20 10.38 0.68
-8 4 -20 10.4 0.66
-8 4 -20 9.98 0.57
8 4 20 10.5 0.58
8 4 20 9.76 0.67
10 -4 20 0.29 0.2
-10 4 -20 0.31 0.13
-10 4 -20 -0.03 0.14
10 4 20 0.1 0.12
10 4 20 0.25 0.19
12 -4 20 7.57 0.62
12 4 20 8.38 0.52
-12 4 -20 9.57 0.52
12 4 20 7.16 0.58
14 -4 20 0.1 0.18
14 4 20 0.34 0.2
14 4 20 0.16 0.13
-14 4 -20 0.15 0.13
16 -4 20 29.16 1.5
-16 4 -20 29.34 1.4
16 4 20 28.49 1.4
18 -4 20 0.03 0.2
-18 4 -20 0.42 0.14
20 -4 20 39.54 1.99
-20 4 -20 42.28 1.92
-42 -6 20 0.87 0.18
-42 6 20 0.85 0.16
-40 -6 20 0.28 0.17
-40 6 20 0.27 0.15
-38 -6 20 2.23 0.26
-38 6 20 2.1 0.25
-36 -6 20 -0.14 0.15
-36 6 20 0.16 0.15
-34 -6 20 1.22 0.23
-34 6 20 1.65 0.22
-32 -6 20 0.12 0.16
-32 6 20 0.19 0.15
-30 -6 20 3.14 0.34
-30 6 20 3.13 0.31
-28 -6 20 0.04 0.14
-28 6 20 0 0.13
-26 -6 20 3.57 0.33
-26 6 20 3.33 0.31
-24 -6 20 0.11 0.13
-24 6 20 0.04 0.24
-24 6 20 0 0.11
-22 -6 20 25.98 1.25
-22 6 20 26.2 1.35
-20 -6 20 0.1 0.11
-20 6 20 -0.19 0.2
20 6 -20 0.11 0.14
-18 -6 20 33.05 1.57
-18 6 20 31.11 1.62
18 6 -20 36.74 1.62
-16 -6 20 0.07 0.2
16 6 -20 -0.08 0.13
-16 6 20 -0.07 0.17
-14 -6 20 15.13 0.88
14 6 -20 16.36 0.85
-14 6 20 17.5 0.94
-12 -6 20 0 0.18
12 6 -20 0.02 0.12
-12 6 20 0.41 0.19
-10 -6 20 7.77 0.57
10 6 -20 9.35 0.54
-10 6 20 9.66 0.63
-8 -6 20 -0.22 0.14
-8 6 20 -0.03 0.16
8 6 -20 0.03 0.11
-6 -6 20 21.55 1.11
6 6 -20 22.22 1.09
-6 6 20 22.18 1.12
-4 -6 20 -0.18 0.15
-4 6 20 0.15 0.17
4 6 -20 0.18 0.13
-2 -6 20 75.75 3.25
-2 6 20 77.1 3.24
2 6 -20 74.14 3.35
0 -6 20 0.17 0.18
0 6 -20 0.07 0.13
0 6 -20 -0.01 0.15
0 6 20 0.22 0.12
0 6 20 0.26 0.18
2 -6 20 72.17 3.24
2 6 20 77.33 3.24
-2 6 -20 78.5 3.35
2 6 20 75.61 3.34
-2 6 -20 73.58 3.46
4 -6 20 0.24 0.17
4 6 20 -0.22 0.14
4 6 20 0.18 0.11
-4 6 -20 0.04 0.11
-4 6 -20 0.16 0.14
6 -6 20 22.35 1.12
6 6 20 19.69 1.07
6 6 20 21.23 1.04
-6 6 -20 20.89 1.13
-6 6 -20 20.65 1.03
8 -6 20 -0.09 0.17
8 6 20 -0.02 0.11
-8 6 -20 -0.16 0.12
-8 6 -20 0.03 0.11
8 6 20 -0.07 0.14
10 -6 20 7.56 0.59
-10 6 -20 7.25 0.55
10 6 20 7.54 0.49
-10 6 -20 8.21 0.49
10 6 20 8.16 0.57
12 -6 20 0.09 0.19
-12 6 -20 0.24 0.17
12 6 20 0.2 0.19
-12 6 -20 0.11 0.12
12 6 20 0.18 0.13
14 -6 20 14.14 0.91
14 6 20 14.47 0.87
14 6 20 16.2 0.83
-14 6 -20 15.42 0.81
-14 6 -20 14.99 0.89
16 -6 20 -0.05 0.19
16 6 20 0.17 0.14
-16 6 -20 0 0.11
18 -6 20 32.35 1.66
-18 6 -20 32.48 1.56
18 6 20 32.65 1.58
20 -6 20 0.17 0.25
-20 6 -20 0.15 0.14
22 -6 20 22.79 1.35
-22 6 -20 25.6 1.24
-42 -8 20 -0.21 0.14
-42 8 20 -0.05 0.11
-40 -8 20 0.22 0.17
-40 8 20 0.67 0.16
-38 -8 20 -0.08 0.16
-38 8 20 -0.25 0.13
-36 -8 20 0.2 0.17
-36 8 20 0.24 0.16
-34 -8 20 -0.12 0.15
-34 8 20 0.08 0.15
-32 -8 20 0.18 0.17
-32 8 20 0.29 0.15
-30 -8 20 -0.06 0.14
-30 8 20 -0.11 0.13
-28 -8 20 1.42 0.22
-28 8 20 1.62 0.21
-26 -8 20 0.06 0.13
-24 -8 20 0.57 0.16
-24 8 20 0.78 0.28
-22 -8 20 0.04 0.12
-22 8 20 -0.24 0.21
22 8 -20 -0.15 0.13
-20 -8 20 1.37 0.19
-20 8 20 1.76 0.34
20 8 -20 2.01 0.27
-18 -8 20 -0.19 0.1
-18 8 20 0.01 0.21
18 8 -20 -0.04 0.14
-16 -8 20 0.09 0.11
-16 8 20 0.35 0.22
16 8 -20 0.04 0.14
-14 -8 20 -0.08 0.16
-14 8 20 -0.03 0.17
14 8 -20 0.13 0.13
-12 -8 20 0.05 0.18
12 8 -20 0.21 0.14
-12 8 20 -0.21 0.17
-10 -8 20 0.01 0.15
-10 8 20 0.1 0.17
10 8 -20 0.17 0.14
-8 -8 20 0.06 0.16
8 8 -20 0.21 0.14
-8 8 20 0.06 0.17
-6 -8 20 -0.24 0.15
-6 8 20 -0.18 0.15
6 8 -20 0.06 0.12
-4 -8 20 10.25 0.65
-4 8 20 10.42 0.65
4 8 -20 10.2 0.6
-2 -8 20 0.05 0.17
-2 8 20 0.11 0.11
2 8 -20 0.1 0.12
-2 8 20 0.14 0.17
0 -8 20 12.37 0.74
0 8 20 11.61 0.65
0 8 20 13.27 0.74
0 8 -20 12.41 0.74
0 8 -20 10.68 0.65
2 -8 20 0.16 0.17
-2 8 -20 0.06 0.15
2 8 20 0.1 0.17
-2 8 -20 0.23 0.12
2 8 20 0.1 0.12
4 -8 20 10.5 0.67
4 8 20 9.91 0.58
4 8 20 10.11 0.64
-4 8 -20 10.28 0.66
-4 8 -20 9.52 0.57
6 -8 20 -0.02 0.17
6 8 20 0.01 0.12
-6 8 -20 0.12 0.11
6 8 20 -0.07 0.17
-6 8 -20 0.02 0.14
8 -8 20 -0.05 0.17
-8 8 -20 0.15 0.12
8 8 20 0.24 0.2
-8 8 -20 -0.05 0.14
8 8 20 -0.02 0.12
10 -8 20 -0.07 0.16
10 8 20 0.13 0.17
10 8 20 -0.08 0.11
-10 8 -20 0.01 0.11
-10 8 -20 0 0.14
12 -8 20 0 0.19
-12 8 -20 0.09 0.13
12 8 20 0.23 0.14
12 8 20 0.14 0.18
-12 8 -20 -0.01 0.15
14 -8 20 0.04 0.2
-14 8 -20 0.06 0.15
-14 8 -20 -0.1 0.11
14 8 20 0.1 0.13
16 -8 20 -0.05 0.2
-16 8 -20 0.19 0.17
-16 8 -20 -0.01 0.13
16 8 20 -0.01 0.13
18 -8 20 -0.39 0.21
18 8 20 -0.01 0.13
-18 8 -20 -0.15 0.12
20 -8 20 1.78 0.38
-20 8 -20 1.66 0.25
20 8 20 1.86 0.28
22 -8 20 0.15 0.25
-22 8 -20 0.03 0.14
-24 8 -20 0.71 0.21
-42 -10 20 -0.16 0.15
-40 -10 20 -0.2 0.16
-40 10 20 -0.22 0.12
-38 -10 20 0.25 0.18
-38 10 20 0.1 0.15
-36 -10 20 -0.04 0.16
-36 10 20 -0.04 0.14
-34 -10 20 1.09 0.21
-34 10 20 0.61 0.18
-32 -10 20 -0.02 0.15
-32 10 20 -0.12 0.14
-30 -10 20 0.06 0.16
-28 -10 20 -0.06 0.14
-26 -10 20 0.42 0.15
-26 10 20 0.48 0.32
-24 -10 20 0.01 0.13
-24 10 20 0.19 0.26
-22 -10 20 0.32 0.13
-22 10 20 0.58 0.28
22 10 -20 0.07 0.16
-20 -10 20 -0.02 0.11
20 10 -20 -0.18 0.14
-20 10 20 -0.17 0.2
-18 -10 20 0.3 0.13
18 10 -20 0.17 0.16
-18 10 20 0.06 0.21
-16 -10 20 0.21 0.12
-16 10 20 -0.09 0.19
16 10 -20 0.1 0.15
14 10 -20 -0.15 0.13
-14 10 20 -0.18 0.19
-12 -10 20 0.23 0.19
-12 10 20 -0.05 0.17
12 10 -20 -0.14 0.13
-10 -10 20 4.95 0.45
10 10 -20 4.96 0.4
-10 10 20 5.41 0.46
-8 -10 20 -0.04 0.15
8 10 -20 -0.22 0.12
-8 10 20 0.35 0.19
-6 -10 20 8.01 0.57
-6 10 20 8.29 0.57
6 10 -20 8.32 0.53
-4 -10 20 0.16 0.18
-4 10 20 0.17 0.12
4 10 -20 0.03 0.13
-4 10 20 -0.01 0.17
-2 -10 20 15.22 0.85
-2 10 20 14.53 0.78
2 10 -20 14.48 0.79
-2 10 20 15.45 0.85
0 -10 20 0.62 0.21
0 10 20 0.72 0.17
0 10 -20 0.88 0.18
0 10 20 0.92 0.25
2 -10 20 14.97 0.85
-2 10 -20 13.34 0.76
2 10 20 15.14 0.78
2 10 20 13.8 0.82
-2 10 -20 14.84 0.86
4 -10 20 0.23 0.2
-4 10 -20 0.17 0.12
4 10 20 0.06 0.18
4 10 20 0.05 0.12
-4 10 -20 0.02 0.15
6 -10 20 8.15 0.59
-6 10 -20 7.78 0.58
-6 10 -20 8.13 0.5
6 10 20 8.4 0.57
6 10 20 7.9 0.51
8 -10 20 0.09 0.18
8 10 20 0.01 0.12
-8 10 -20 -0.04 0.11
-8 10 -20 -0.04 0.14
8 10 20 -0.06 0.16
10 -10 20 4.45 0.49
10 10 20 4.87 0.38
10 10 20 4.22 0.42
-10 10 -20 4.59 0.37
-10 10 -20 3.96 0.43
12 -10 20 -0.21 0.2
-12 10 -20 -0.09 0.16
12 10 20 -0.08 0.12
14 -10 20 -0.12 0.19
-14 10 -20 0 0.14
14 10 20 -0.05 0.13
16 -10 20 0.17 0.22
16 10 20 0.09 0.15
-16 10 -20 0.03 0.15
18 -10 20 0.22 0.25
18 -10 20 0.1 0.12
18 10 20 0.12 0.16
-18 10 -20 0.05 0.18
20 -10 20 0.09 0.12
20 -10 20 -0.27 0.19
20 10 20 -0.04 0.15
22 -10 20 0.33 0.13
22 -10 20 0.39 0.28
22 10 20 0.2 0.19
24 -10 20 0.07 0.27
24 -10 20 -0.25 0.11
-24 10 -20 0.01 0.15
26 -10 20 0.44 0.16
-26 10 -20 0.61 0.21
28 -10 20 0.12 0.15
-30 10 -20 0.03 0.12
-32 10 -20 -0.02 0.13
-42 -12 20 0.07 0.13
-40 -12 20 0.67 0.2
-38 -12 20 0.11 0.18
-36 -12 20 2.11 0.27
-34 -12 20 0.23 0.17
-32 -12 20 1.05 0.21
-30 -12 20 -0.06 0.15
-28 -12 20 1.27 0.21
-26 -12 20 0.04 0.14
-24 -12 20 1.97 0.24
-24 12 20 2.12 0.4
24 12 -20 2.37 0.32
-22 -12 20 0.07 0.13
22 12 -20 -0.01 0.15
-22 12 20 0.22 0.23
-20 -12 20 13.7 0.74
-20 12 20 13.5 0.9
20 12 -20 14.71 0.83
-18 -12 20 0.1 0.12
-18 12 20 -0.15 0.23
18 12 -20 -0.19 0.15
-16 -12 20 26.56 1.25
16 12 -20 26.06 1.31
-16 12 20 25 1.35
-14 -12 20 0.02 0.1
-14 12 20 0.07 0.2
14 12 -20 -0.05 0.15
-12 12 20 11.49 0.73
12 12 -20 10.86 0.68
-10 -12 20 0.22 0.2
10 12 -20 -0.07 0.13
-10 12 20 0.01 0.18
-8 -12 20 -0.13 0.17
8 12 -20 0.05 0.14
-8 12 20 0.34 0.19
-6 -12 20 0.07 0.18
-6 12 20 0.14 0.12
-6 12 20 0.22 0.19
6 12 -20 0.16 0.14
-4 -12 20 7.8 0.6
-4 12 20 8.87 0.53
4 12 -20 8.54 0.55
-4 12 20 8.61 0.59
-2 -12 20 0.41 0.21
2 12 -20 0.14 0.14
-2 12 20 0.23 0.13
-2 12 20 0.24 0.19
0 -12 20 20.47 1.12
0 12 -20 21.71 1.08
0 12 20 22.64 1.08
0 12 20 21.06 1.1
2 -12 20 0.52 0.21
2 12 20 0.25 0.19
-2 12 -20 0.18 0.13
-2 12 -20 -0.12 0.15
2 12 20 0.29 0.15
4 -12 20 7.29 0.57
-4 12 -20 7.42 0.58
4 12 20 8.54 0.52
4 12 20 8.22 0.56
-4 12 -20 7.87 0.5
6 -12 20 0.2 0.18
-6 12 -20 0.17 0.13
6 12 20 -0.13 0.11
6 12 20 -0.08 0.16
-6 12 -20 0.14 0.15
8 -12 20 -0.2 0.17
8 12 20 0.06 0.13
8 12 20 0.01 0.17
-8 12 -20 0.01 0.15
10 -12 20 -0.05 0.21
10 12 20 0.1 0.14
-10 12 -20 0.03 0.15
12 -12 20 10.09 0.78
-12 12 -20 11.21 0.73
12 12 20 10.92 0.66
14 -12 20 -0.17 0.21
-14 12 -20 0.1 0.17
14 12 20 0.02 0.15
16 -12 20 23.11 1.29
16 -12 20 21.36 1.09
16 12 20 23.38 1.19
-16 12 -20 23.61 1.26
18 -12 20 0.34 0.28
18 -12 20 0.1 0.12
-18 12 -20 -0.03 0.18
18 12 20 0.12 0.16
20 -12 20 10.9 0.64
20 -12 20 13.33 0.92
20 12 20 12.63 0.76
-20 12 -20 11.68 0.8
22 -12 20 -0.16 0.12
22 -12 20 0.15 0.28
22 12 20 -0.02 0.17
24 -12 20 1.97 0.23
24 -12 20 1.78 0.43
24 12 20 1.89 0.32
26 -12 20 0.07 0.14
-26 12 -20 -0.06 0.18
28 -12 20 1.26 0.2
-28 12 -20 1.21 0.27
30 -12 20 0.03 0.16
-32 12 -20 1.06 0.17
-34 12 -20 0.18 0.13
-36 12 -20 1.98 0.24
-40 -14 20 0.05 0.15
-38 -14 20 5.58 0.45
-36 -14 20 -0.04 0.17
-34 -14 20 8.34 0.58
-32 -14 20 0.07 0.17
-30 -14 20 1.9 0.26
-28 -14 20 -0.04 0.15
-26 -14 20 0.15 0.15
26 14 -20 0.24 0.2
-24 -14 20 0.01 0.14
24 14 -20 0.12 0.19
-22 -14 20 9.46 0.58
22 14 -20 10.28 0.68
-22 14 20 9.12 0.76
-20 -14 20 0.38 0.15
-20 14 20 0.48 0.27
20 14 -20 0.18 0.18
-18 -14 20 24.45 1.2
18 14 -20 25.4 1.27
-18 14 20 23.66 1.31
-16 -14 20 0.41 0.14
16 14 -20 -0.02 0.15
-16 14 20 0.31 0.24
-14 -14 20 17.92 0.91
14 14 -20 17.56 0.97
-14 14 20 18.14 1.02
-12 -14 20 -0.02 0.12
-12 14 20 0.1 0.23
12 14 -20 0.15 0.16
-10 -14 20 0.01 0.11
10 14 -20 0.01 0.14
-10 14 20 0.03 0.21
-8 -14 20 -0.04 0.17
8 14 -20 0.02 0.13
-8 14 20 0.01 0.18
-6 -14 20 17.4 0.93
-6 14 20 14.95 0.9
-6 14 20 15.99 0.85
6 14 -20 16.5 0.88
-4 -14 20 0.27 0.18
-4 14 20 0.03 0.13
-4 14 20 0.21 0.19
4 14 -20 0.03 0.13
-2 -14 20 68.14 2.96
-2 14 20 69.56 3.03
2 14 -20 64.72 3.02
-2 14 20 67.12 2.93
0 -14 20 0.35 0.22
0 14 20 0.31 0.15
0 14 -20 0.18 0.15
0 14 20 0.28 0.22
2 -14 20 66.32 3.01
2 14 20 72.77 3
-2 14 -20 70.17 3.23
-2 14 -20 65.32 3.07
2 14 20 69.43 3.08
4 -14 20 0.23 0.19
-4 14 -20 0.24 0.18
4 14 20 0.21 0.14
4 14 20 0.12 0.2
-4 14 -20 0.18 0.14
6 -14 20 15.11 0.93
6 14 20 16.91 0.86
-6 14 -20 15.37 0.93
6 14 20 15.79 0.89
8 -14 20 -0.22 0.17
8 14 20 0.1 0.12
-8 14 -20 -0.2 0.13
10 -14 20 0.01 0.21
-10 14 -20 0.12 0.18
10 14 20 0.06 0.13
12 -14 20 0.13 0.11
12 -14 20 0.09 0.22
12 14 20 -0.13 0.12
-12 14 -20 0.09 0.17
14 -14 20 16.16 1
14 -14 20 14.15 0.79
14 14 20 17.06 0.89
-14 14 -20 15.7 0.95
16 -14 20 0.29 0.13
16 -14 20 0.5 0.25
-16 14 -20 0.25 0.2
16 14 20 0.16 0.15
18 -14 20 19.8 1.02
18 -14 20 20.59 1.22
18 14 20 21.3 1.13
-18 14 -20 21.41 1.19
20 -14 20 0.38 0.14
20 -14 20 -0.01 0.27
20 14 20 0.23 0.18
-20 14 -20 0.1 0.2
22 -14 20 8.35 0.74
22 -14 20 8.32 0.52
22 14 20 8.6 0.63
24 -14 20 0.24 0.15
24 14 20 0.18 0.19
26 -14 20 -0.1 0.13
28 -14 20 -0.05 0.14
-28 14 -20 -0.05 0.19
30 -14 20 1.55 0.22
-32 14 -20 0.17 0.13
-34 14 -20 7.76 0.5
-36 14 -20 0.07 0.13
-38 14 -20 5.07 0.39
-40 -16 20 2.42 0.25
-36 -16 20 6.28 0.48
-34 -16 20 1.16 0.22
-32 -16 20 2.76 0.31
-30 -16 20 0.15 0.18
-28 -16 20 0.32 0.18
-26 -16 20 -0.17 0.15
26 16 -20 0 0.19
-24 -16 20 13.28 0.77
24 16 -20 14.35 0.86
-22 -16 20 0.26 0.16
-22 16 20 0.2 0.3
22 16 -20 0.18 0.2
-20 -16 20 50.04 2.28
20 16 -20 51.48 2.33
-20 16 20 44.65 2.31
-18 -16 20 0.46 0.16
-18 16 20 0.49 0.27
18 16 -20 0.25 0.19
-16 -16 20 57.97 2.56
16 16 -20 56.58 2.59
-16 16 20 51.96 2.54
-14 -16 20 0.1 0.13
14 16 -20 0.21 0.17
-14 16 20 0.46 0.25
-12 -16 20 27.53 1.3
12 16 -20 25.86 1.34
-12 16 20 26.2 1.38
-10 -16 20 0.03 0.11
-10 16 20 0.01 0.22
10 16 -20 -0.08 0.14
-8 -16 20 0.09 0.13
8 16 -20 0.03 0.15
-8 16 20 0.03 0.11
-8 16 20 -0.02 0.18
-6 -16 20 0.16 0.19
-6 -16 20 0.17 0.13
-6 16 20 -0.06 0.11
-6 16 20 0.18 0.19
6 16 -20 0.02 0.13
-4 -16 20 30.23 1.47
-4 16 20 29.56 1.43
-4 16 20 29.67 1.47
4 16 -20 29.83 1.46
-2 -16 20 0.44 0.23
-2 16 20 0.28 0.2
-2 16 20 -0.11 0.13
2 16 -20 -0.12 0.14
0 -16 20 76.89 3.48
0 16 -20 78.63 3.59
0 16 20 85.57 3.49
0 16 20 82.07 3.6
2 -16 20 0.5 0.23
-2 16 -20 0.31 0.2
2 16 20 0.24 0.21
2 16 20 0.19 0.14
-2 16 -20 -0.02 0.14
4 -16 20 30.33 1.51
-4 16 -20 28.22 1.44
4 16 20 30.58 1.46
-4 16 -20 29.52 1.56
4 16 20 31.19 1.46
6 -16 20 -0.01 0.2
-6 16 -20 0.21 0.17
6 16 20 0.14 0.13
8 -16 20 0.09 0.11
8 -16 20 0.1 0.2
8 16 20 -0.09 0.12
-8 16 -20 0.07 0.17
10 -16 20 -0.16 0.22
10 -16 20 0.03 0.11
-10 16 -20 -0.03 0.17
10 16 20 -0.08 0.12
12 -16 20 24.39 1.33
12 -16 20 21.75 1.15
12 16 20 25.92 1.23
-12 16 -20 23.68 1.31
14 -16 20 0.21 0.13
14 -16 20 0.11 0.24
-14 16 -20 0.26 0.21
14 16 20 0.08 0.15
16 -16 20 48.8 2.31
16 -16 20 52.84 2.43
16 16 20 49.45 2.37
-16 16 -20 51.55 2.48
18 -16 20 0.58 0.31
18 -16 20 0.59 0.15
18 16 20 0.31 0.19
-18 16 -20 0.23 0.21
20 -16 20 46.2 2.19
20 -16 20 41.52 2
-20 16 -20 41.33 2.16
20 16 20 43.87 2.09
22 -16 20 0.04 0.29
22 -16 20 0.39 0.16
22 16 20 0.1 0.19
-22 16 -20 0.2 0.23
24 -16 20 10.02 0.61
24 16 20 10.98 0.74
26 -16 20 -0.01 0.15
26 16 20 0.18 0.2
28 -16 20 0.27 0.16
30 -16 20 0.01 0.15
-32 16 -20 3.12 0.33
-36 16 -20 6.91 0.46
-38 16 -20 0.28 0.14
-40 -18 20 0.16 0.15
-38 -18 20 6.88 0.48
-36 -18 20 0.29 0.18
-34 -18 20 9.2 0.6
-32 -18 20 -0.1 0.17
-30 -18 20 1.16 0.24
-28 -18 20 -0.28 0.16
-26 -18 20 1.84 0.26
26 18 -20 2.01 0.32
-24 -18 20 0.16 0.16
24 18 -20 0.2 0.19
-22 -18 20 26.08 1.32
22 18 -20 27.63 1.41
-20 18 20 0.78 0.33
-18 -18 20 49.83 2.3
18 18 -20 52.45 2.35
-18 18 20 45.8 2.33
-16 -18 20 0.49 0.16
16 18 -20 0.49 0.2
-16 18 20 0.74 0.29
-14 -18 20 25.64 1.23
-14 18 20 24.52 1.33
14 18 -20 24.18 1.28
-12 -18 20 0.1 0.13
12 18 -20 -0.24 0.14
-12 18 20 0 0.2
-10 -18 20 0.29 0.13
10 18 -20 0.35 0.18
-10 18 20 0.21 0.23
-8 -18 20 -0.13 0.12
8 18 -20 -0.21 0.13
-8 18 20 -0.2 0.18
-8 18 20 -0.05 0.11
-6 -18 20 35.72 1.61
-6 -18 20 33.62 1.63
-6 18 20 32.59 1.6
-6 18 20 32.83 1.63
6 18 -20 32.97 1.64
-4 -18 20 0.15 0.22
-4 -18 20 0.25 0.16
4 18 -20 0 0.16
-4 18 20 -0.05 0.15
-4 18 20 0.16 0.21
-2 -18 20 128.33 5.52
-2 -18 20 125.94 5.23
-2 18 20 119.35 5.43
-2 18 20 129.99 5.21
2 18 -20 117.12 5.44
0 -18 20 0.67 0.2
0 -18 20 1.33 0.3
0 18 20 0.42 0.18
0 18 20 0.96 0.25
0 18 -20 -0.13 0.18
2 -18 20 126.97 5.49
2 -18 20 119.02 5.21
2 18 20 133.86 5.2
2 18 20 126.57 5.43
-2 18 -20 114.37 5.41
-2 18 -20 120.94 5.6
4 -18 20 0.54 0.27
4 -18 20 0.09 0.16
4 18 20 0.27 0.21
-4 18 -20 0.06 0.2
-4 18 -20 -0.45 0.14
4 18 20 0.28 0.15
6 -18 20 31.44 1.61
6 -18 20 31.85 1.53
6 18 20 33.75 1.56
-6 18 -20 31.34 1.67
8 -18 20 -0.19 0.12
8 -18 20 -0.05 0.2
-8 18 -20 0.02 0.17
8 18 20 0.06 0.13
10 -18 20 0.14 0.22
10 -18 20 0.09 0.12
-10 18 -20 0.06 0.18
10 18 20 0.21 0.16
12 -18 20 0.19 0.13
12 -18 20 -0.03 0.22
12 18 20 -0.17 0.12
-12 18 -20 -0.04 0.18
14 -18 20 21.22 1.07
14 -18 20 22.25 1.25
14 18 20 22.48 1.15
-14 18 -20 20.49 1.23
16 -18 20 0.62 0.15
16 -18 20 0.41 0.27
-16 18 -20 0.25 0.21
16 18 20 0.12 0.17
18 -18 20 39.97 2.09
18 -18 20 41.56 1.96
-18 18 -20 43.45 2.15
18 18 20 43.17 2.05
20 -18 20 0.83 0.36
-20 18 -20 0.29 0.23
20 18 20 0.57 0.21
22 -18 20 22.18 1.13
-22 18 -20 21.93 1.31
22 18 20 22.91 1.24
24 -18 20 0.24 0.16
24 18 20 0.1 0.19
26 -18 20 1.36 0.22
26 18 20 1.41 0.31
28 -18 20 -0.15 0.15
30 -18 20 1.11 0.2
32 -18 20 0.08 0.16
-34 18 -20 8.79 0.54
-36 18 -20 0.19 0.14
-38 18 -20 7.03 0.45
-38 -20 20 0.28 0.16
-36 -20 20 4.51 0.41
-34 -20 20 0.2 0.18
-32 -20 20 2.31 0.29
-30 -20 20 -0.14 0.17
-28 -20 20 0.5 0.2
-26 -20 20 -0.12 0.16
-24 -20 20 13.64 0.81
24 20 -20 15.6 0.9
-22 -20 20 0.58 0.18
22 20 -20 0.47 0.22
-20 -20 20 53.91 2.51
20 20 -20 54.23 2.55
-18 -20 20 0.44 0.16
-16 -20 20 49.33 2.26
16 20 -20 48.76 2.3
-16 20 20 46.76 2.29
-14 -20 20 0.29 0.15
14 20 -20 0.12 0.16
-14 20 20 0.55 0.26
-12 -20 20 14.07 0.78
-12 20 20 13.16 0.9
12 20 -20 14.62 0.85
-10 -20 20 -0.09 0.13
10 20 -20 0 0.16
-10 20 20 -0.2 0.22
-8 -20 20 1.43 0.2
8 20 -20 2.03 0.3
-8 20 20 1.65 0.33
-8 20 20 1.72 0.24
-6 -20 20 0.11 0.15
-6 20 20 0.08 0.22
6 20 -20 -0.15 0.14
-6 20 20 -0.08 0.13
-4 -20 20 40.41 2
-4 -20 20 45.36 2.03
-4 20 20 42.39 2.01
4 20 -20 42.07 2.03
-4 20 20 44.62 2.02
-2 -20 20 0.4 0.24
-2 -20 20 0.48 0.18
2 20 -20 -0.11 0.17
-2 20 20 0.85 0.28
-2 20 20 0.13 0.17
0 -20 20 109.9 4.82
0 -20 20 107.71 4.6
0 20 -20 105.6 4.77
0 20 20 106.18 4.76
0 20 20 109.82 4.57
2 -20 20 0.3 0.15
2 -20 20 0.55 0.26
-2 20 -20 0.35 0.22
2 20 20 0.38 0.16
2 20 20 0.34 0.22
-2 20 -20 -0.14 0.17
4 -20 20 41.83 1.96
4 -20 20 38.93 2
-4 20 -20 42.84 2.11
4 20 20 43.27 1.98
6 -20 20 0.38 0.25
6 -20 20 -0.16 0.15
-6 20 -20 0.25 0.19
6 20 20 0 0.13
8 -20 20 1.94 0.38
8 -20 20 1.38 0.22
8 20 20 2 0.27
-8 20 -20 1.69 0.3
10 -20 20 -0.07 0.2
10 -20 20 -0.03 0.14
-10 20 -20 0.01 0.17
10 20 20 -0.08 0.12
12 -20 20 11.95 0.86
12 -20 20 12.8 0.71
-12 20 -20 12.53 0.86
12 20 20 12.85 0.76
14 -20 20 -0.06 0.22
14 -20 20 0.25 0.14
-14 20 -20 0.18 0.22
14 20 20 0.07 0.16
16 -20 20 44.97 1.98
16 -20 20 44.08 2.18
16 -20 20 43.4 2.05
-16 20 -20 44.34 2.23
16 20 20 42.69 2.11
18 -20 20 0.71 0.17
18 -20 20 0.46 0.29
-18 20 -20 0.3 0.24
18 20 20 0.23 0.2
20 -20 20 45.33 2.1
-20 20 -20 45.1 2.29
20 20 20 44.58 2.18
22 -20 20 0.55 0.18
22 20 20 0.28 0.21
24 -20 20 11.84 0.71
24 20 20 13.16 0.84
26 -20 20 -0.05 0.15
28 -20 20 0.56 0.18
30 -20 20 0 0.16
32 -20 20 2.09 0.25
-34 20 -20 0.24 0.14
-36 20 -20 4.99 0.38
-38 20 -20 0.33 0.14
-38 -22 20 3.17 0.33
-36 -22 20 0.19 0.17
-34 -22 20 4.51 0.43
-32 -22 20 -0.31 0.16
-30 -22 20 1.43 0.25
-28 -22 20 -0.1 0.16
-26 -22 20 0.89 0.21
-24 -22 20 0.22 0.16
24 22 -20 0.18 0.19
-22 -22 20 12.31 0.75
22 22 -20 13.98 0.84
-20 -22 20 0.54 0.18
20 22 -20 0.47 0.21
-18 -22 20 25.96 1.3
18 22 -20 25.46 1.34
-16 -22 20 0.31 0.17
16 22 -20 0.09 0.18
-14 -22 20 9.9 0.62
-14 22 20 9.19 0.76
14 22 -20 9.75 0.67
-12 -22 20 0 0.14
12 22 -20 0.2 0.18
-12 22 20 0.19 0.24
-10 -22 20 0.17 0.16
10 22 -20 0.39 0.19
-10 22 20 0.23 0.26
-8 -22 20 -0.04 0.13
-8 22 20 -0.06 0.2
8 22 -20 -0.1 0.15
-8 22 20 -0.03 0.13
-6 -22 20 27.35 1.33
-6 22 20 27.48 1.41
6 22 -20 26.01 1.37
-6 22 20 26.5 1.34
-4 -22 20 0.18 0.18
-4 22 20 -0.24 0.14
-4 22 20 0.2 0.21
4 22 -20 -0.22 0.15
-2 -22 20 93.39 4.1
-2 -22 20 84.89 3.91
2 22 -20 90.17 4.06
-2 22 20 92.04 3.92
-2 22 20 92.25 4.05
0 -22 20 0.66 0.25
0 -22 20 0.36 0.17
0 22 20 0.66 0.26
0 22 20 0.12 0.18
0 22 -20 -0.39 0.18
2 -22 20 89.42 3.98
2 -22 20 85.22 3.84
2 22 20 91.97 3.95
-2 22 -20 89.64 3.95
-2 22 -20 83.81 4.1
4 -22 20 0.42 0.25
4 -22 20 0 0.15
-4 22 -20 -0.04 0.21
4 22 20 0.16 0.15
6 -22 20 25.93 1.27
6 -22 20 23.86 1.36
6 22 20 25.75 1.28
-6 22 -20 25.02 1.4
8 -22 20 -0.24 0.2
8 -22 20 -0.34 0.13
8 22 20 0.04 0.14
-8 22 -20 -0.02 0.18
10 -22 20 0.08 0.15
10 -22 20 0.19 0.25
-10 22 -20 0.18 0.2
10 22 20 0.16 0.15
12 -22 20 -0.44 0.2
12 -22 20 -0.04 0.14
12 22 20 0 0.14
-12 22 -20 -0.12 0.17
14 -22 20 9.83 0.57
14 -22 20 8.44 0.72
14 22 20 8.68 0.62
-14 22 -20 7.8 0.7
16 -22 20 0.33 0.17
16 -22 20 -0.01 0.26
-16 22 -20 0.26 0.23
16 22 20 -0.1 0.15
18 -22 20 22.95 1.16
18 22 20 22.66 1.24
-18 22 -20 22.83 1.38
20 -22 20 0.68 0.19
20 22 20 0.12 0.19
22 -22 20 11.78 0.69
22 22 20 11.6 0.79
24 -22 20 0.26 0.18
24 22 20 0.16 0.21
26 -22 20 0.61 0.19
28 -22 20 -0.14 0.16
30 -22 20 1.17 0.2
32 -22 20 0.15 0.16
-34 22 -20 5.03 0.39
-36 22 -20 0.21 0.13
-36 -24 20 1.26 0.21
-34 -24 20 -0.08 0.17
-32 -24 20 1.11 0.23
-30 -24 20 -0.02 0.18
-28 -24 20 -0.08 0.18
-26 -24 20 0.07 0.18
-24 -24 20 2.68 0.3
-22 -24 20 0.08 0.17
22 24 -20 0.2 0.19
-20 -24 20 14.35 0.82
20 24 -20 15.03 0.89
-18 -24 20 0.41 0.18
18 24 -20 0.07 0.17
-16 -24 20 11.72 0.71
16 24 -20 11.96 0.76
-14 -24 20 -0.12 0.16
14 24 -20 0.09 0.18
-12 -24 20 2.32 0.28
-12 24 20 2.67 0.45
12 24 -20 2.27 0.34
-10 -24 20 -0.18 0.14
10 24 -20 0.11 0.17
-10 24 20 -0.17 0.24
-8 -24 20 0.85 0.18
-8 24 20 0.94 0.29
-8 24 20 0.93 0.21
8 24 -20 0.46 0.2
-6 -24 20 0.04 0.14
6 24 -20 -0.09 0.16
-6 24 20 -0.09 0.24
-6 24 20 -0.17 0.14
-4 -24 20 12.9 0.72
-4 24 20 12.13 0.75
4 24 -20 12.24 0.77
-4 24 20 12.93 0.85
-2 -24 20 0.66 0.19
-2 24 20 -0.3 0.14
2 24 -20 0.05 0.17
-2 24 20 0.45 0.25
0 -24 20 33.21 1.75
0 -24 20 36.98 1.72
0 24 20 36.47 1.72
0 24 -20 35 1.73
2 -24 20 0.35 0.24
2 -24 20 0.32 0.16
2 24 20 0.16 0.16
-2 24 -20 -0.06 0.17
-2 24 -20 0.3 0.23
4 -24 20 11.62 0.72
4 -24 20 11.36 0.83
4 24 20 12.64 0.74
-4 24 -20 12.64 0.85
6 -24 20 -0.27 0.15
6 -24 20 0.18 0.24
6 24 20 -0.01 0.14
-6 24 -20 0.43 0.21
8 -24 20 0.49 0.19
8 -24 20 0.52 0.27
8 24 20 0.69 0.19
-8 24 -20 0.77 0.25
10 -24 20 0.1 0.28
10 -24 20 -0.1 0.13
-10 24 -20 0.11 0.19
10 24 20 -0.06 0.14
12 -24 20 1.82 0.26
12 -24 20 2.82 0.46
12 24 20 2.45 0.33
-12 24 -20 1.98 0.38
14 -24 20 -0.01 0.16
14 24 20 0.02 0.16
-14 24 -20 0.17 0.21
16 -24 20 11.55 0.7
16 24 20 11.92 0.77
18 -24 20 0.27 0.19
18 24 20 0.19 0.19
20 -24 20 13.18 0.76
20 24 20 11.74 0.81
22 -24 20 -0.01 0.17
22 24 20 0.36 0.22
24 -24 20 2.21 0.28
26 -24 20 -0.24 0.15
28 -24 20 -0.14 0.17
30 -24 20 -0.07 0.16
32 -24 20 1.04 0.21
-34 24 -20 0.09 0.13
-36 24 -20 1.69 0.19
-34 -26 20 0.78 0.18
-32 -26 20 -0.27 0.15
-30 -26 20 0.36 0.19
-28 -26 20 -0.1 0.17
-26 -26 20 -0.1 0.17
-24 -26 20 -0.04 0.16
-22 -26 20 0.92 0.21
-20 -26 20 -0.07 0.16
-18 -26 20 1.89 0.26
18 26 -20 2.1 0.32
-16 -26 20 0.07 0.17
16 26 -20 -0.25 0.16
-14 -26 20 0.01 0.16
14 26 -20 0.34 0.2
-12 -26 20 -0.19 0.16
12 26 -20 0.06 0.18
-10 -26 20 0.5 0.19
10 26 -20 0.52 0.23
-8 -26 20 -0.05 0.16
8 26 -20 -0.03 0.17
-8 26 20 -0.19 0.24
-8 26 20 -0.05 0.15
-6 -26 20 3.56 0.4
-6 26 20 3.39 0.47
-6 26 20 3.72 0.4
6 26 -20 4.19 0.44
-4 -26 20 0.11 0.17
-4 26 20 -0.12 0.16
4 26 -20 0.02 0.17
-2 -26 20 16.12 0.92
2 26 -20 18.74 0.98
-2 26 20 16.3 0.94
0 -26 20 0.33 0.18
0 26 20 0 0.16
0 26 -20 -0.15 0.17
2 -26 20 13.25 0.97
2 -26 20 15.34 0.84
2 26 20 16.82 0.87
-2 26 -20 11.77 0.92
4 -26 20 0.17 0.28
4 -26 20 0.06 0.18
-4 26 -20 -0.22 0.17
-4 26 -20 0.08 0.2
4 26 20 0.1 0.16
6 -26 20 3.32 0.34
6 -26 20 2.92 0.47
-6 26 -20 3.36 0.45
6 26 20 3.69 0.39
8 -26 20 0.1 0.28
8 -26 20 -0.19 0.15
-8 26 -20 0.21 0.21
8 26 20 -0.02 0.15
10 -26 20 0.51 0.19
10 26 20 0.41 0.19
-10 26 -20 0.21 0.24
12 -26 20 0.1 0.17
12 26 20 -0.01 0.15
14 -26 20 0.05 0.16
14 26 20 0.37 0.19
16 -26 20 -0.2 0.17
16 26 20 0.05 0.17
18 -26 20 1.7 0.26
18 26 20 1.31 0.3
20 -26 20 -0.01 0.18
22 -26 20 0.36 0.2
24 -26 20 -0.24 0.17
26 -26 20 0.03 0.18
28 -26 20 -0.19 0.16
30 -26 20 0.51 0.19
32 -26 20 0.08 0.16
-34 26 -20 0.68 0.15
-32 -28 20 -0.05 0.16
-30 -28 20 0.15 0.17
-28 -28 20 -0.17 0.17
-26 -28 20 0.03 0.17
-24 -28 20 -0.02 0.17
-22 -28 20 -0.06 0.17
-20 -28 20 0.38 0.19
-18 -28 20 0.09 0.17
-16 -28 20 0.59 0.2
16 28 -20 0.86 0.25
-14 -28 20 0 0.16
14 28 -20 -0.14 0.17
-12 -28 20 0.88 0.21
12 28 -20 1.46 0.29
-10 -28 20 0.2 0.17
10 28 -20 0.07 0.19
-8 -28 20 1.28 0.24
-8 28 20 1.76 0.29
8 28 -20 1.75 0.31
-6 -28 20 -0.13 0.15
6 28 -20 0.15 0.19
-6 28 20 -0.01 0.16
-4 -28 20 1.15 0.23
-4 28 20 1.22 0.26
-2 -28 20 0.09 0.17
-2 28 20 -0.05 0.17
0 -28 20 0.39 0.19
0 28 -20 0.03 0.2
0 28 20 -0.07 0.16
2 -28 20 0.16 0.19
-2 28 -20 0.05 0.21
2 28 20 -0.15 0.15
4 -28 20 1.35 0.25
4 28 20 1.12 0.25
6 -28 20 -0.04 0.17
6 28 20 -0.01 0.14
8 -28 20 1.04 0.23
8 28 20 1.77 0.29
10 -28 20 -0.27 0.17
10 28 20 0.03 0.15
12 -28 20 1.22 0.23
12 28 20 1.42 0.28
14 -28 20 -0.31 0.16
14 28 20 0.1 0.18
16 -28 20 0.23 0.2
16 28 20 0.91 0.26
18 -28 20 -0.05 0.18
20 -28 20 0.33 0.2
22 -28 20 -0.18 0.18
24 -28 20 -0.15 0.18
26 -28 20 -0.22 0.17
28 -28 20 -0.24 0.17
30 -28 20 -0.16 0.16
-32 28 -20 -0.15 0.11
-30 -30 20 0.03 0.16
-28 -30 20 -0.08 0.16
-26 -30 20 0.49 0.19
-24 -30 20 -0.02 0.17
-22 -30 20 1.41 0.25
-20 -30 20 -0.21 0.16
-18 -30 20 1.38 0.25
-16 -30 20 -0.01 0.17
-14 -30 20 1.82 0.26
-12 -30 20 -0.11 0.17
12 30 -20 -0.16 0.18
-10 -30 20 -0.01 0.17
10 30 -20 -0.13 0.19
-8 -30 20 -0.15 0.16
-8 30 20 0.24 0.2
8 30 -20 0.03 0.19
-6 -30 20 3.29 0.34
-4 -30 20 0.17 0.18
-2 -30 20 4.43 0.44
0 -30 20 0.13 0.19
2 -30 20 4.49 0.45
4 -30 20 0.15 0.19
4 30 20 0.05 0.18
6 -30 20 2.52 0.3
6 30 20 3.38 0.4
8 -30 20 -0.16 0.18
8 30 20 0.09 0.18
10 -30 20 -0.21 0.18
10 30 20 -0.14 0.15
12 -30 20 -0.02 0.18
12 30 20 -0.11 0.16
14 -30 20 1.56 0.26
16 -30 20 0.13 0.2
18 -30 20 1.04 0.24
20 -30 20 0.01 0.18
22 -30 20 1.01 0.23
24 -30 20 0.24 0.19
26 -30 20 0.66 0.21
28 -30 20 -0.1 0.17
30 -30 20 -0.03 0.16
-32 30 -20 -0.08 0.11
-28 -32 20 0.09 0.15
-26 -32 20 0.03 0.16
-24 -32 20 0.84 0.21
-22 -32 20 -0.04 0.17
-20 -32 20 1.97 0.27
-18 -32 20 0.07 0.18
-16 -32 20 3.06 0.33
-14 -32 20 0.06 0.18
-12 -32 20 0.98 0.22
-10 -32 20 -0.01 0.17
-8 -32 20 0.13 0.18
-6 -32 20 0.35 0.19
-4 -32 20 2.1 0.28
-2 -32 20 0.15 0.19
0 -32 20 2.64 0.31
2 -32 20 0.14 0.19
4 -32 20 2.56 0.32
6 -32 20 -0.04 0.19
6 32 20 -0.18 0.18
8 -32 20 0.07 0.2
10 -32 20 -0.33 0.17
12 -32 20 0.84 0.23
14 -32 20 0.2 0.2
16 -32 20 2.86 0.32
18 -32 20 0.13 0.2
20 -32 20 2 0.28
22 -32 20 -0.04 0.19
24 -32 20 0.69 0.21
26 -32 20 0.12 0.18
28 -32 20 -0.08 0.16
30 -32 20 -0.13 0.14
-26 -34 20 0.67 0.18
-24 -34 20 -0.04 0.15
-22 -34 20 4.63 0.41
-20 -34 20 0.48 0.18
-18 -34 20 8.92 0.59
-16 -34 20 0.62 0.2
-14 -34 20 8.81 0.6
-12 -34 20 0.24 0.19
-10 -34 20 1.3 0.24
-8 -34 20 -0.08 0.17
-6 -34 20 1.39 0.24
-4 -34 20 0.26 0.19
-2 -34 20 5.3 0.47
0 -34 20 0.1 0.19
2 -34 20 4.64 0.48
4 -34 20 -0.01 0.19
6 -34 20 1.43 0.26
8 -34 20 -0.24 0.18
10 -34 20 1.02 0.24
12 -34 20 0.16 0.2
14 -34 20 7.97 0.57
16 -34 20 0.59 0.21
18 -34 20 9.12 0.62
20 -34 20 0.39 0.2
22 -34 20 4.08 0.41
24 -34 20 -0.01 0.18
26 -34 20 0.4 0.18
28 -34 20 0 0.15
-22 -36 20 0.24 0.16
-20 -36 20 4.22 0.39
-18 -36 20 0.29 0.18
-16 -36 20 5.9 0.47
-14 -36 20 -0.03 0.17
-12 -36 20 1.68 0.26
-10 -36 20 -0.21 0.16
-8 -36 20 0.02 0.19
-6 -36 20 0.01 0.19
-4 -36 20 5.51 0.49
-2 -36 20 0.16 0.19
0 -36 20 7.67 0.57
2 -36 20 0.25 0.2
4 -36 20 5.32 0.5
6 -36 20 -0.1 0.19
8 -36 20 0.27 0.2
10 -36 20 -0.22 0.17
12 -36 20 2.07 0.28
14 -36 20 0.22 0.18
16 -36 20 5.97 0.49
18 -36 20 0.21 0.19
20 -36 20 4.76 0.43
22 -36 20 0.09 0.16
24 -36 20 1.6 0.22
-20 -38 20 0.44 0.16
-18 -38 20 6.94 0.47
-16 -38 20 0.54 0.18
-14 -38 20 4.77 0.42
-12 -38 20 -0.01 0.17
-10 -38 20 0.24 0.18
-8 -38 20 -0.22 0.16
-6 -38 20 1.93 0.26
-4 -38 20 0.24 0.18
-2 -38 20 8.04 0.56
0 -38 20 0.3 0.2
2 -38 20 8 0.57
4 -38 20 0.07 0.19
6 -38 20 1.82 0.26
8 -38 20 0.03 0.18
10 -38 20 0.01 0.18
12 -38 20 0.05 0.17
14 -38 20 4.82 0.43
16 -38 20 0.39 0.18
18 -38 20 5.75 0.44
20 -38 20 0.38 0.17
22 -38 20 2.93 0.31
-16 -40 20 2.89 0.32
-14 -40 20 0.09 0.15
-12 -40 20 0.56 0.17
-10 -40 20 -0.09 0.15
-8 -40 20 0.35 0.17
-6 -40 20 0.11 0.16
-4 -40 20 4.35 0.4
-2 -40 20 0.28 0.18
0 -40 20 6.41 0.48
2 -40 20 0.08 0.17
4 -40 20 4.1 0.39
6 -40 20 -0.14 0.16
8 -40 20 0.18 0.17
10 -40 20 -0.2 0.15
12 -40 20 0.67 0.18
14 -40 20 0.25 0.16
16 -40 20 2.12 0.23
18 -40 20 -0.04 0.14
-8 -42 20 -0.24 0.13
-6 -42 20 0.7 0.17
-4 -42 20 0.02 0.14
-2 -42 20 2.27 0.24
0 -42 20 0.31 0.15
2 -42 20 2.15 0.23
4 -42 20 0.09 0.14
6 -42 20 0.73 0.17
8 -42 20 -0.08 0.13
10 -42 20 0.12 0.14
12 -42 20 -0.06 0.13
-43 -1 21 -0.22 0.12
-43 1 21 -0.2 0.13
-41 -1 21 0.01 0.14
-41 1 21 -0.15 0.13
-39 -1 21 -0.32 0.15
-39 1 21 -0.15 0.15
-37 -1 21 0.12 0.16
-37 1 21 0.08 0.16
-35 -1 21 -0.07 0.15
-35 1 21 0.13 0.15
-33 -1 21 0.05 0.15
-33 1 21 0.06 0.15
-31 -1 21 -0.07 0.13
-31 1 21 -0.13 0.13
-29 -1 21 0.08 0.13
-29 1 21 0.34 0.14
-27 -1 21 0.17 0.13
-27 1 21 0.34 0.14
-25 -1 21 0.67 0.16
-25 1 21 0.73 0.16
-23 -1 21 0.19 0.13
-23 1 21 0.14 0.13
-21 -1 21 0.77 0.15
-21 1 21 0.78 0.16
-21 1 21 0.94 0.26
-19 -1 21 -0.14 0.21
-19 -1 21 -0.17 0.11
-19 1 21 -0.05 0.1
-19 1 21 -0.06 0.21
-17 -1 21 0.78 0.26
-17 1 21 0.89 0.28
-15 -1 21 0.08 0.21
-15 1 21 0.25 0.2
-13 -1 21 0.44 0.21
-13 1 21 0.54 0.22
-11 -1 21 0.18 0.18
-11 1 21 0.24 0.18
-9 -1 21 0.12 0.18
9 1 -21 0.35 0.1
-9 1 21 0.11 0.17
-7 -1 21 0.07 0.17
-7 1 21 0.13 0.17
7 1 -21 -0.05 0.1
-5 -1 21 0.25 0.19
5 1 -21 0.1 0.1
-5 1 21 0.11 0.17
-3 -1 21 0.14 0.17
3 1 -21 0.01 0.09
-3 1 21 0.08 0.16
1 -1 -21 0.03 0.08
-1 -1 21 -0.11 0.15
1 1 -21 -0.01 0.09
-1 1 21 0.14 0.17
1 -1 21 0.04 0.16
-1 -1 -21 -0.07 0.08
-1 1 -21 -0.15 0.09
1 1 21 -0.05 0.16
-3 -1 -21 -0.09 0.08
3 -1 21 0.01 0.17
-3 1 -21 -0.12 0.1
3 1 21 0.06 0.17
5 -1 21 0.13 0.19
-5 -1 -21 0.18 0.11
5 1 21 -0.09 0.15
-5 1 -21 0.17 0.11
-7 -1 -21 0.01 0.11
7 -1 21 0.09 0.18
-7 1 -21 0.19 0.12
7 1 21 0.09 0.19
9 -1 21 0.25 0.19
9 1 21 0.09 0.2
-9 1 -21 0.32 0.13
11 -1 21 -0.05 0.17
11 1 21 0.1 0.19
-11 1 -21 0.17 0.12
13 -1 21 0.38 0.21
-13 1 -21 0.49 0.15
13 1 21 0.41 0.23
15 -1 21 -0.24 0.19
15 1 21 0.06 0.18
17 -1 21 0.7 0.29
17 1 21 0.83 0.29
19 -1 21 0.13 0.24
-43 -3 21 -0.16 0.13
-41 -3 21 -0.28 0.13
-41 3 21 -0.06 0.13
-39 -3 21 -0.16 0.15
-39 3 21 0.05 0.15
-37 -3 21 -0.25 0.16
-37 3 21 -0.02 0.15
-35 -3 21 -0.06 0.16
-35 3 21 -0.11 0.14
-33 -3 21 -0.04 0.15
-33 3 21 0.08 0.14
-31 -3 21 0.38 0.17
-31 3 21 0.29 0.15
-29 -3 21 0.78 0.18
-29 3 21 0.83 0.17
-27 -3 21 0.21 0.14
-27 3 21 0.33 0.14
-25 -3 21 0.09 0.13
-25 3 21 -0.06 0.13
-23 -3 21 -0.13 0.12
-23 3 21 0.16 0.12
-21 -3 21 -0.23 0.11
-21 3 21 0 0.23
-21 3 21 -0.11 0.12
-19 -3 21 -0.04 0.11
-19 3 21 -0.21 0.17
-17 -3 21 -0.23 0.16
-17 3 21 0.04 0.21
-15 -3 21 0.8 0.25
-15 3 21 0.73 0.24
-13 -3 21 1.16 0.27
-13 3 21 1.19 0.27
13 3 -21 0.93 0.17
-11 -3 21 5.03 0.48
11 3 -21 4.93 0.35
-11 3 21 5.99 0.49
-9 -3 21 2.67 0.36
9 3 -21 1.84 0.21
-9 3 21 2.11 0.33
-7 -3 21 2.5 0.34
-7 3 21 3.07 0.36
7 3 -21 2.92 0.27
-5 -3 21 0.52 0.2
-5 3 21 0.5 0.21
5 3 -21 0.56 0.14
-3 -3 21 0.87 0.23
3 3 -21 0.91 0.16
3 3 -21 0.29 0.15
-3 3 21 1.05 0.24
-1 -3 21 0.09 0.17
1 3 -21 -0.01 0.12
-1 3 21 0.01 0.16
1 3 -21 -0.07 0.09
1 -3 21 -0.16 0.14
1 3 21 -0.13 0.15
-1 3 -21 -0.14 0.1
-1 3 -21 -0.09 0.11
3 -3 21 1.01 0.25
-3 3 -21 0.88 0.2
-3 3 -21 0.66 0.15
3 3 21 1.07 0.25
5 -3 21 0.54 0.23
-5 3 -21 0.45 0.14
5 3 21 0.64 0.15
-5 3 -21 0.58 0.18
5 3 21 0.7 0.21
7 -3 21 2.79 0.39
7 3 21 2.5 0.26
-7 3 -21 2.96 0.27
7 3 21 2.77 0.37
9 -3 21 1.34 0.3
9 3 21 1.74 0.21
9 3 21 1.59 0.29
-9 3 -21 1.73 0.22
11 -3 21 4.65 0.47
-11 3 -21 4.8 0.36
11 3 21 5.02 0.46
11 3 21 4.38 0.35
13 -3 21 1.07 0.27
13 3 21 1 0.18
-13 3 -21 0.9 0.17
13 3 21 1.37 0.3
15 -3 21 1.27 0.3
-15 3 -21 0.58 0.17
15 3 21 0.58 0.25
17 -3 21 -0.17 0.19
-17 3 -21 -0.17 0.13
19 -3 21 -0.24 0.21
-43 -5 21 0.07 0.13
-41 -5 21 -0.13 0.14
-41 5 21 0.18 0.13
-39 -5 21 -0.14 0.15
-39 5 21 0.01 0.14
-37 -5 21 -0.15 0.16
-37 5 21 0.03 0.15
-35 -5 21 -0.04 0.16
-35 5 21 0.18 0.15
-33 -5 21 0.26 0.18
-33 5 21 0.4 0.16
-31 -5 21 1.03 0.2
-31 5 21 1.4 0.2
-29 -5 21 1.31 0.2
-29 5 21 1.51 0.21
-27 -5 21 0.48 0.15
-27 5 21 0.54 0.15
-25 -5 21 2.94 0.32
-25 5 21 3.55 0.29
-23 -5 21 0.88 0.17
-23 5 21 1.4 0.35
-21 -5 21 2.79 0.29
-21 5 21 3.3 0.45
-19 -5 21 0.01 0.13
-19 5 21 0.04 0.23
-17 -5 21 1.06 0.16
-17 5 21 0.94 0.26
17 5 -21 1.06 0.2
-15 -5 21 0.07 0.2
-15 5 21 0.27 0.21
15 5 -21 -0.13 0.12
-13 -5 21 0.14 0.2
13 5 -21 0.51 0.15
-13 5 21 0.26 0.2
-11 -5 21 8.26 0.58
11 5 -21 8.07 0.5
-11 5 21 7.92 0.59
-9 -5 21 4.4 0.42
-9 5 21 4.4 0.46
9 5 -21 4.25 0.34
-7 -5 21 5.76 0.5
-7 5 21 5.89 0.47
7 5 -21 5.65 0.4
-5 -5 21 1.98 0.29
-5 5 21 1.55 0.28
5 5 -21 1.35 0.2
-3 -5 21 0.73 0.22
3 5 -21 0.75 0.18
-3 5 21 0.53 0.2
3 5 -21 0.46 0.14
-1 -5 21 0.16 0.2
1 5 -21 0.17 0.14
-1 5 21 0.15 0.17
1 5 -21 0.21 0.13
1 -5 21 0.51 0.2
1 5 21 0.35 0.2
-1 5 -21 0.24 0.12
1 5 21 0.31 0.12
-1 5 -21 0.11 0.13
3 -5 21 0.5 0.22
-3 5 -21 0.48 0.14
3 5 21 0.57 0.21
3 5 21 0.4 0.13
-3 5 -21 0.62 0.19
5 -5 21 0.74 0.25
5 5 21 1.73 0.31
5 5 21 1.08 0.18
-5 5 -21 1.43 0.24
-5 5 -21 1.47 0.2
7 -5 21 6.37 0.52
7 5 21 5.56 0.5
-7 5 -21 5.76 0.4
-7 5 -21 5.18 0.46
7 5 21 5.72 0.4
9 -5 21 3.56 0.44
-9 5 -21 3.94 0.4
-9 5 -21 3.54 0.31
9 5 21 4.18 0.34
9 5 21 3.57 0.42
11 -5 21 7.83 0.6
11 5 21 7.47 0.48
-11 5 -21 7.23 0.47
11 5 21 7.55 0.59
-11 5 -21 6.84 0.55
13 -5 21 0.27 0.21
13 5 21 0.08 0.14
13 5 21 0.16 0.19
-13 5 -21 0.13 0.13
15 -5 21 -0.2 0.2
15 5 21 0.17 0.15
-15 5 -21 -0.03 0.13
17 -5 21 0.86 0.31
-17 5 -21 1.37 0.23
19 -5 21 0.37 0.27
-19 5 -21 0.01 0.15
21 -5 21 2.29 0.44
-21 5 -21 2.54 0.29
-41 -7 21 -0.21 0.15
-41 7 21 0.26 0.13
-39 -7 21 -0.17 0.16
-39 7 21 0.32 0.15
-37 -7 21 -0.12 0.16
-37 7 21 0.04 0.14
-35 -7 21 -0.05 0.16
-35 7 21 0.2 0.15
-33 -7 21 0.72 0.2
-33 7 21 0.95 0.19
-31 -7 21 2.05 0.26
-31 7 21 1.97 0.23
-29 -7 21 4.35 0.4
-29 7 21 3.78 0.35
-27 -7 21 0.58 0.16
-25 -7 21 2.81 0.31
-23 -7 21 0.04 0.13
-23 7 21 0.55 0.29
-21 -7 21 0.5 0.15
-21 7 21 0.44 0.25
-19 -7 21 -0.06 0.11
19 7 -21 -0.03 0.14
-19 7 21 0.08 0.23
-17 -7 21 -0.15 0.1
17 7 -21 0.04 0.15
-17 7 21 0 0.18
-15 -7 21 2.81 0.38
-15 7 21 3.26 0.42
15 7 -21 4.01 0.35
-13 -7 21 5.03 0.47
13 7 -21 5.15 0.4
-13 7 21 4.69 0.46
-11 -7 21 23.66 1.18
-11 7 21 21.23 1.15
11 7 -21 22.66 1.12
-9 -7 21 15.52 0.89
-9 7 21 16.57 0.92
9 7 -21 16.15 0.85
-7 -7 21 17.43 0.98
7 7 -21 18.77 0.95
-7 7 21 18.55 0.99
-5 -7 21 6.18 0.49
-5 7 21 6.15 0.49
5 7 -21 6 0.43
-3 -7 21 2.63 0.35
3 7 -21 3.02 0.29
-3 7 21 2.66 0.36
-1 -7 21 0.15 0.17
1 7 -21 0.11 0.12
-1 7 21 -0.14 0.18
-1 7 21 0.06 0.11
1 7 -21 0.17 0.15
1 -7 21 -0.06 0.17
1 7 21 0.14 0.11
1 7 21 -0.02 0.16
-1 7 -21 0.14 0.12
-1 7 -21 0.21 0.15
3 -7 21 2.38 0.35
3 7 21 2.47 0.35
3 7 21 2.7 0.28
-3 7 -21 2.86 0.28
-3 7 -21 2.69 0.33
5 -7 21 5.81 0.52
5 7 21 6.03 0.51
-5 7 -21 5.87 0.48
-5 7 -21 6.16 0.41
5 7 21 5.8 0.41
7 -7 21 18.38 1.02
-7 7 -21 17.96 1.02
7 7 21 17.83 0.93
-7 7 -21 18.36 0.92
7 7 21 17.31 0.99
9 -7 21 14.77 0.93
-9 7 -21 16.89 0.93
9 7 21 15.39 0.83
9 7 21 14.49 0.9
-9 7 -21 15.82 0.82
11 -7 21 22.83 1.23
11 7 21 21.4 1.16
-11 7 -21 23.87 1.12
11 7 21 22.37 1.12
-11 7 -21 20.12 1.19
13 -7 21 4.45 0.53
-13 7 -21 4.48 0.44
13 7 21 4.98 0.4
-13 7 -21 4.89 0.38
13 7 21 4.97 0.47
15 -7 21 3.84 0.51
15 7 21 3.95 0.36
-15 7 -21 3.82 0.35
17 -7 21 -0.03 0.23
-17 7 -21 -0.11 0.12
17 7 21 -0.08 0.13
19 -7 21 -0.03 0.24
19 7 21 -0.24 0.13
-19 7 -21 -0.08 0.13
21 -7 21 0.54 0.28
-21 7 -21 0.48 0.18
23 -7 21 -0.01 0.27
-23 7 -21 0.07 0.16
-41 -9 21 -0.05 0.15
-39 -9 21 -0.18 0.16
-39 9 21 0.27 0.13
-37 -9 21 0.01 0.17
-37 9 21 0.14 0.15
-35 -9 21 0.06 0.17
-35 9 21 0.16 0.15
-33 -9 21 1.32 0.23
-33 9 21 1.29 0.2
-31 -9 21 2.28 0.26
-29 -9 21 4.53 0.4
-27 -9 21 0.87 0.19
-25 -9 21 4.72 0.38
-25 9 21 4.4 0.55
-23 -9 21 0.61 0.15
-23 9 21 0.71 0.29
-21 -9 21 1.98 0.23
-21 9 21 1.9 0.36
21 9 -21 2.31 0.29
-19 -9 21 0.06 0.12
19 9 -21 0.09 0.17
-19 9 21 0.13 0.22
-17 -9 21 1.13 0.17
-17 9 21 0.79 0.28
17 9 -21 0.73 0.2
-15 -9 21 1.07 0.16
15 9 -21 0.78 0.2
-15 9 21 0.72 0.26
-13 -9 21 0.99 0.26
-13 9 21 1.28 0.29
13 9 -21 1.53 0.24
-11 -9 21 14.62 0.87
-11 9 21 14.2 0.86
11 9 -21 16.09 0.84
-9 -9 21 8.21 0.6
9 9 -21 7.97 0.52
-9 9 21 7.4 0.56
-7 -9 21 16.51 0.92
7 9 -21 16.16 0.86
-7 9 21 15.08 0.88
-5 -9 21 4.44 0.42
-5 9 21 4.46 0.43
5 9 -21 4.05 0.36
-3 -9 21 2.06 0.33
-3 9 21 1.95 0.24
3 9 -21 1.74 0.24
-3 9 21 2 0.31
-1 -9 21 0.06 0.19
-1 9 21 0.08 0.12
1 9 -21 0.28 0.14
-1 9 21 0.21 0.19
1 -9 21 0.39 0.2
1 9 21 0.47 0.15
1 9 21 0.34 0.22
-1 9 -21 0.13 0.15
-1 9 -21 0.31 0.14
3 -9 21 1.81 0.31
3 9 21 1.67 0.29
-3 9 -21 1.84 0.28
3 9 21 1.93 0.24
-3 9 -21 1.74 0.22
5 -9 21 3.77 0.44
-5 9 -21 3.58 0.32
-5 9 -21 4.34 0.42
5 9 21 4 0.34
5 9 21 3.55 0.41
7 -9 21 16.3 0.94
-7 9 -21 16.31 0.85
7 9 21 16 0.86
7 9 21 16.05 0.92
-7 9 -21 15.48 0.94
9 -9 21 7.75 0.61
9 9 21 7.72 0.51
-9 9 -21 8.3 0.59
-9 9 -21 7.33 0.49
9 9 21 7.32 0.56
11 -9 21 15.44 0.93
-11 9 -21 14.78 0.88
-11 9 -21 13.96 0.77
11 9 21 13.07 0.83
11 9 21 14.11 0.79
13 -9 21 1.44 0.34
-13 9 -21 1.3 0.27
13 9 21 1.27 0.22
-13 9 -21 1.18 0.21
15 -9 21 0.7 0.28
15 9 21 0.92 0.21
-15 9 -21 0.63 0.18
-15 9 -21 0.94 0.25
17 -9 21 1.26 0.36
17 9 21 0.82 0.2
-17 9 -21 0.72 0.19
19 -9 21 0.36 0.25
19 9 21 0.03 0.15
-19 9 -21 0.16 0.16
21 -9 21 2.23 0.41
-21 9 -21 2.13 0.3
21 9 21 2.07 0.31
23 -9 21 0.39 0.3
-23 9 -21 0.89 0.22
-25 9 -21 4.15 0.42
-41 -11 21 -0.08 0.15
-39 -11 21 0 0.17
-37 -11 21 0.08 0.18
-35 -11 21 0.1 0.18
-33 -11 21 1.28 0.22
-31 -11 21 1.42 0.23
-29 -11 21 4.46 0.4
-27 -11 21 0.49 0.17
-25 -11 21 3.25 0.33
-23 -11 21 0.28 0.13
23 11 -21 0.37 0.19
-23 11 21 0.26 0.25
-21 -11 21 0.76 0.16
-21 11 21 0.95 0.29
21 11 -21 0.82 0.22
-19 -11 21 -0.03 0.12
19 11 -21 0.1 0.18
-19 11 21 0.21 0.23
-17 -11 21 0.33 0.14
-17 11 21 0.26 0.24
17 11 -21 0.12 0.16
-15 -11 21 6.02 0.4
-15 11 21 5.47 0.53
15 11 -21 6 0.47
-13 -11 21 8.32 0.49
13 11 -21 7.75 0.55
-13 11 21 7.76 0.61
-11 -11 21 24.85 1.28
-11 11 21 24.5 1.29
11 11 -21 25.94 1.27
-9 -11 21 14.51 0.88
9 11 -21 15.74 0.85
-9 11 21 14.86 0.87
-7 -11 21 22.41 1.17
7 11 -21 22.55 1.15
-7 11 21 22.5 1.17
-5 -11 21 8.89 0.62
-5 11 21 7.87 0.58
5 11 -21 8.1 0.54
-5 11 21 8.01 0.51
-3 -11 21 5.3 0.47
-3 11 21 5.55 0.4
-3 11 21 5.44 0.48
3 11 -21 5.54 0.43
-1 -11 21 0.1 0.2
-1 11 21 0.35 0.15
-1 11 21 0.6 0.23
1 11 -21 0.03 0.13
1 -11 21 0.26 0.2
1 11 21 0.26 0.14
-1 11 -21 0.34 0.15
-1 11 -21 0.15 0.16
1 11 21 0.3 0.21
3 -11 21 5.74 0.49
3 11 21 5.27 0.41
3 11 21 5.21 0.46
-3 11 -21 4.65 0.46
-3 11 -21 5.39 0.4
5 -11 21 7.51 0.59
-5 11 -21 7.66 0.59
-5 11 -21 7.59 0.5
5 11 21 8.22 0.52
5 11 21 7.69 0.58
7 -11 21 21.04 1.18
7 11 21 22.08 1.15
7 11 21 22.64 1.12
-7 11 -21 21.18 1.2
-7 11 -21 22.5 1.1
9 -11 21 13.59 0.88
9 11 21 14.27 0.78
-9 11 -21 13.84 0.77
9 11 21 14.12 0.83
-9 11 -21 13.63 0.87
11 -11 21 25.82 1.36
-11 11 -21 24.77 1.23
11 11 21 24.48 1.24
-11 11 -21 23.21 1.32
13 -11 21 7.38 0.63
13 11 21 7.07 0.5
-13 11 -21 7.13 0.58
-13 11 -21 6.7 0.5
15 -11 21 5.14 0.58
15 -11 21 4.57 0.35
-15 11 -21 4.79 0.49
15 11 21 5.64 0.44
17 -11 21 0.19 0.23
17 -11 21 0.48 0.13
17 11 21 -0.04 0.15
-17 11 -21 0.03 0.18
19 -11 21 0.21 0.25
19 -11 21 0.03 0.12
19 11 21 -0.02 0.15
21 -11 21 1.03 0.33
21 -11 21 0.84 0.16
-21 11 -21 0.68 0.21
21 11 21 0.35 0.2
23 -11 21 0.3 0.14
23 -11 21 0.71 0.32
-23 11 -21 0.15 0.17
25 -11 21 2.67 0.3
-25 11 -21 2.68 0.35
27 -11 21 0.44 0.17
-27 11 -21 0.4 0.22
29 -11 21 3.81 0.37
-31 11 -21 1.73 0.21
-41 -13 21 0 0.14
-39 -13 21 0.39 0.18
-37 -13 21 -0.02 0.18
-35 -13 21 -0.22 0.17
-33 -13 21 1.25 0.23
-31 -13 21 0.93 0.21
-29 -13 21 3.78 0.39
-27 -13 21 0.43 0.17
-25 -13 21 3.26 0.35
-23 -13 21 0.23 0.14
23 13 -21 0.43 0.2
-23 13 21 0.54 0.3
-21 -13 21 1.29 0.2
21 13 -21 1.42 0.27
-21 13 21 0.98 0.33
-19 -13 21 0.17 0.13
19 13 -21 0.06 0.17
-19 13 21 0.12 0.24
-17 -13 21 0.89 0.18
-17 13 21 0.76 0.3
17 13 -21 0.98 0.23
-15 -13 21 0.45 0.14
-15 13 21 0.17 0.22
15 13 -21 0.15 0.18
-13 -13 21 0.24 0.13
-13 13 21 -0.26 0.2
13 13 -21 0.15 0.17
-11 -13 21 7.72 0.48
11 13 -21 7.97 0.56
-11 13 21 7.57 0.59
-9 -13 21 1.7 0.3
9 13 -21 1.38 0.23
-9 13 21 1.8 0.32
-7 -13 21 4.71 0.45
7 13 -21 4.74 0.41
-7 13 21 5.6 0.48
-5 -13 21 0.42 0.21
5 13 -21 0.28 0.16
-5 13 21 0.29 0.13
-5 13 21 0.55 0.21
-3 -13 21 0.6 0.22
-3 13 21 1.5 0.3
-3 13 21 1.13 0.19
3 13 -21 0.91 0.2
-1 -13 21 0.51 0.22
-1 13 21 0.91 0.19
1 13 -21 0.75 0.19
-1 13 21 0.48 0.24
1 -13 21 0.67 0.25
1 13 21 0.64 0.17
-1 13 -21 0.92 0.19
1 13 21 0.56 0.22
-1 13 -21 0.44 0.19
3 -13 21 1.13 0.27
-3 13 -21 0.83 0.18
-3 13 -21 1.32 0.26
3 13 21 1.35 0.22
3 13 21 0.83 0.26
5 -13 21 0.38 0.24
5 13 21 0.32 0.21
-5 13 -21 0.55 0.2
5 13 21 0.26 0.15
-5 13 -21 0.48 0.15
7 -13 21 4.95 0.5
7 13 21 5.42 0.41
-7 13 -21 5.23 0.4
-7 13 -21 4.83 0.48
7 13 21 5.24 0.47
9 -13 21 0.98 0.3
9 13 21 1.39 0.23
-9 13 -21 1.23 0.21
-9 13 -21 1.23 0.27
11 -13 21 7 0.63
-11 13 -21 7.53 0.6
11 13 21 7.4 0.52
13 -13 21 0.19 0.12
13 -13 21 0.04 0.22
13 13 21 -0.08 0.13
-13 13 -21 0.18 0.19
15 -13 21 -0.17 0.22
-15 13 -21 0.29 0.19
15 13 21 0.19 0.16
17 -13 21 0.76 0.32
17 -13 21 0.75 0.15
-17 13 -21 0.8 0.24
17 13 21 0.64 0.21
19 -13 21 0.31 0.14
19 -13 21 0.47 0.26
-19 13 -21 -0.01 0.19
19 13 21 0.21 0.18
21 -13 21 1.4 0.38
21 -13 21 1.19 0.19
21 13 21 1.17 0.25
23 -13 21 0.57 0.33
23 -13 21 0.48 0.16
23 13 21 0.4 0.22
25 -13 21 2.23 0.24
-25 13 -21 1.78 0.31
27 -13 21 0.48 0.17
-27 13 -21 0.65 0.24
29 -13 21 4.12 0.37
-31 13 -21 1.24 0.18
-33 13 -21 1.31 0.19
-35 13 -21 -0.13 0.13
-39 -15 21 -0.18 0.15
-37 -15 21 -0.12 0.16
-35 -15 21 -0.3 0.17
-33 -15 21 0.8 0.21
-31 -15 21 0.19 0.19
-29 -15 21 1.23 0.23
-27 -15 21 -0.11 0.16
-25 -15 21 1.44 0.23
25 15 -21 1.12 0.26
-23 -15 21 -0.04 0.15
23 15 -21 0.1 0.19
-21 -15 21 0.5 0.17
21 15 -21 0.39 0.22
-21 15 21 0.71 0.32
-19 -15 21 0.07 0.13
-19 15 21 -0.3 0.24
19 15 -21 -0.29 0.17
-17 -15 21 0.25 0.15
-17 15 21 0.19 0.25
17 15 -21 0.43 0.2
-15 -15 21 0.72 0.17
15 15 -21 0.28 0.19
-15 15 21 0.33 0.27
-13 -15 21 0.18 0.14
13 15 -21 0.36 0.19
-13 15 21 -0.07 0.21
-11 -15 21 6.77 0.43
11 15 -21 6.69 0.51
-11 15 21 5.71 0.55
-9 -15 21 0.71 0.16
-9 15 21 0.9 0.26
9 15 -21 1.28 0.24
-7 -15 21 3.33 0.41
-7 -15 21 3.39 0.32
-7 15 21 3.52 0.43
7 15 -21 3.45 0.36
-7 15 21 3.58 0.34
-5 -15 21 0.11 0.21
-5 15 21 0.15 0.13
5 15 -21 -0.03 0.15
-5 15 21 0.22 0.22
-3 -15 21 0.46 0.22
-3 15 21 1.03 0.28
3 15 -21 1 0.21
-3 15 21 0.95 0.19
-1 -15 21 0.29 0.23
1 15 -21 0.35 0.16
-1 15 21 0.08 0.21
-1 15 21 0.4 0.15
1 -15 21 0.12 0.2
1 15 21 0.29 0.15
-1 15 -21 0.23 0.17
-1 15 -21 0.41 0.16
1 15 21 -0.02 0.18
3 -15 21 0.72 0.28
3 15 21 0.81 0.18
3 15 21 0.6 0.25
-3 15 -21 0.66 0.17
-3 15 -21 0.86 0.24
5 -15 21 0.15 0.23
-5 15 -21 0.16 0.12
5 15 21 0.3 0.15
5 15 21 -0.01 0.18
-5 15 -21 0.17 0.17
7 -15 21 3.37 0.47
7 -15 21 3.36 0.32
7 15 21 3.56 0.35
-7 15 -21 3.4 0.41
-7 15 -21 3.94 0.35
9 -15 21 0.83 0.15
9 -15 21 0.59 0.28
-9 15 -21 0.95 0.26
9 15 21 0.82 0.2
11 -15 21 4.7 0.56
11 -15 21 5.1 0.38
11 15 21 6.37 0.47
-11 15 -21 5.47 0.52
13 -15 21 -0.09 0.24
13 -15 21 0.65 0.15
13 15 21 0.21 0.17
-13 15 -21 0.23 0.21
15 -15 21 0.38 0.14
15 -15 21 0.27 0.28
15 15 21 0.54 0.2
-15 15 -21 0.58 0.24
17 -15 21 0.5 0.15
17 -15 21 0 0.26
-17 15 -21 0.3 0.21
17 15 21 0 0.17
19 -15 21 -0.1 0.24
19 -15 21 -0.07 0.12
-19 15 -21 -0.15 0.19
19 15 21 -0.06 0.17
21 -15 21 1.23 0.39
21 -15 21 0.55 0.16
21 15 21 0.76 0.24
-21 15 -21 0.43 0.26
23 -15 21 0.08 0.15
23 15 21 -0.11 0.18
25 -15 21 0.63 0.18
25 15 21 0.41 0.23
27 -15 21 0.04 0.15
-27 15 -21 0.03 0.2
29 -15 21 1.13 0.2
31 -15 21 0.44 0.17
-33 15 -21 0.43 0.15
-35 15 -21 0.02 0.13
-37 15 -21 0.02 0.13
-39 -17 21 -0.03 0.15
-37 -17 21 -0.25 0.15
-35 -17 21 -0.01 0.18
-33 -17 21 0.14 0.18
-31 -17 21 -0.22 0.17
-29 -17 21 0.69 0.21
-27 -17 21 -0.03 0.17
-25 -17 21 0.41 0.18
25 17 -21 0.8 0.25
-23 -17 21 0.19 0.17
23 17 -21 0.46 0.22
-21 -17 21 0.48 0.17
21 17 -21 0.3 0.21
-19 -17 21 0.27 0.16
19 17 -21 0.45 0.23
-19 17 21 0.27 0.28
-17 -17 21 0.77 0.17
17 17 -21 0.95 0.24
-17 17 21 0.48 0.31
-15 -17 21 0.26 0.16
-15 17 21 0.02 0.24
15 17 -21 0.5 0.21
-13 -17 21 0.76 0.17
-13 17 21 0.66 0.3
13 17 -21 0.87 0.23
-11 -17 21 0.24 0.14
-11 17 21 0.12 0.21
11 17 -21 0.43 0.19
-9 -17 21 0.81 0.18
-9 17 21 1.11 0.3
9 17 -21 0.88 0.23
-7 -17 21 -0.04 0.22
-7 -17 21 0.02 0.11
7 17 -21 -0.14 0.14
-7 17 21 0.02 0.13
-7 17 21 -0.04 0.2
-5 -17 21 0.88 0.27
-5 -17 21 0.99 0.17
-5 17 21 1.16 0.3
5 17 -21 1.28 0.24
-5 17 21 1.12 0.2
-3 -17 21 0.05 0.13
-3 -17 21 0.19 0.21
-3 17 21 0.13 0.13
-3 17 21 -0.4 0.18
3 17 -21 0.24 0.16
-1 -17 21 0.73 0.16
-1 -17 21 0.71 0.27
1 17 -21 0.71 0.18
-1 17 21 1 0.21
-1 17 21 1.2 0.29
1 -17 21 0.58 0.26
1 -17 21 0.68 0.17
-1 17 -21 0.95 0.19
1 17 21 0.82 0.27
1 17 21 0.65 0.17
3 -17 21 0.32 0.24
3 -17 21 -0.14 0.12
3 17 21 -0.13 0.19
3 17 21 -0.03 0.12
-3 17 -21 -0.05 0.12
-3 17 -21 0.04 0.18
5 -17 21 0.97 0.18
5 -17 21 1.03 0.3
-5 17 -21 1.04 0.26
-5 17 -21 1.25 0.22
5 17 21 1.37 0.22
7 -17 21 -0.09 0.12
7 -17 21 0.21 0.22
-7 17 -21 0.12 0.19
7 17 21 -0.1 0.12
9 -17 21 0.98 0.18
9 -17 21 0.91 0.29
9 17 21 0.82 0.21
-9 17 -21 0.82 0.25
11 -17 21 0.39 0.14
11 -17 21 -0.24 0.19
11 17 21 0.46 0.18
-11 17 -21 0.15 0.19
13 -17 21 0.55 0.15
13 -17 21 0.86 0.31
13 17 21 0.85 0.22
-13 17 -21 0.56 0.24
15 -17 21 0.36 0.15
15 -17 21 0.04 0.27
15 17 21 0.31 0.2
-15 17 -21 0.07 0.2
17 -17 21 0.35 0.29
17 -17 21 0.82 0.16
-17 17 -21 0.67 0.26
17 17 21 0.77 0.23
19 -17 21 0.2 0.3
19 -17 21 0.24 0.15
-19 17 -21 -0.24 0.19
19 17 21 0.05 0.2
21 -17 21 0.44 0.17
21 17 21 0.55 0.23
-21 17 -21 0.64 0.29
23 -17 21 0.19 0.16
23 17 21 0.16 0.19
25 -17 21 0.17 0.15
25 17 21 0.53 0.24
27 -17 21 0.04 0.15
-27 17 -21 -0.01 0.2
29 -17 21 0.34 0.17
31 -17 21 0.1 0.16
-33 17 -21 0.28 0.14
-35 17 -21 0.27 0.14
-37 17 -21 -0.08 0.13
-39 -19 21 0.19 0.15
-37 -19 21 -0.2 0.15
-35 -19 21 -0.24 0.16
-33 -19 21 -0.03 0.17
-31 -19 21 -0.54 0.16
-29 -19 21 0.15 0.18
-27 -19 21 -0.09 0.17
-25 -19 21 -0.12 0.16
25 19 -21 0.08 0.2
-23 -19 21 -0.3 0.16
23 19 -21 -0.07 0.19
-21 -19 21 0.2 0.18
21 19 -21 0.12 0.2
-19 -19 21 -0.15 0.16
19 19 -21 -0.09 0.18
-17 -19 21 0.5 0.18
-17 19 21 0.43 0.31
17 19 -21 0.26 0.19
-15 -19 21 -0.16 0.13
-15 19 21 -0.51 0.2
15 19 -21 -0.11 0.17
-13 -19 21 0.25 0.14
13 19 -21 0.17 0.18
-13 19 21 0.24 0.27
-11 -19 21 0.23 0.15
-11 19 21 0.33 0.24
11 19 -21 0.27 0.19
-9 -19 21 0.09 0.14
-9 19 21 0.06 0.24
9 19 -21 0.04 0.16
-7 -19 21 0.11 0.14
-7 19 21 0 0.13
7 19 -21 -0.11 0.15
-7 19 21 0.19 0.24
-5 -19 21 0.39 0.25
-5 -19 21 0.27 0.14
-5 19 21 0.33 0.24
5 19 -21 0.11 0.17
-5 19 21 0.19 0.15
-3 -19 21 -0.02 0.2
-3 -19 21 0.4 0.16
3 19 -21 0.14 0.15
-3 19 21 0.26 0.24
-3 19 21 0.04 0.14
-1 -19 21 -0.1 0.22
-1 -19 21 0.03 0.13
1 19 -21 0.26 0.15
-1 19 21 0.05 0.14
-1 19 21 -0.09 0.24
1 -19 21 -0.17 0.21
1 -19 21 0.14 0.15
1 19 21 0.18 0.15
-1 19 -21 0.12 0.14
1 19 21 -0.34 0.21
3 -19 21 0.35 0.15
3 -19 21 0.18 0.24
-3 19 -21 0.02 0.19
3 19 21 0.48 0.17
3 19 21 -0.1 0.2
-3 19 -21 0.09 0.14
5 -19 21 0.1 0.21
5 -19 21 0.05 0.15
-5 19 -21 0.21 0.16
-5 19 -21 0.41 0.21
5 19 21 0.43 0.16
7 -19 21 -0.05 0.13
7 -19 21 0.05 0.21
-7 19 -21 0.09 0.19
7 19 21 0.16 0.14
9 -19 21 0.26 0.14
9 -19 21 -0.1 0.22
-9 19 -21 0.02 0.18
9 19 21 0.33 0.17
11 -19 21 -0.02 0.13
11 -19 21 0.34 0.26
-11 19 -21 0 0.18
11 19 21 0.24 0.16
13 -19 21 0.01 0.23
13 -19 21 0.17 0.14
-13 19 -21 0.17 0.22
13 19 21 0.17 0.17
15 -19 21 0.05 0.23
15 -19 21 0.03 0.13
-15 19 -21 -0.01 0.2
15 19 21 -0.19 0.14
17 -19 21 0.25 0.27
17 -19 21 0.45 0.17
-17 19 -21 -0.03 0.21
17 19 21 0.13 0.2
19 -19 21 0.08 0.15
-19 19 -21 -0.16 0.21
19 19 21 -0.25 0.16
21 -19 21 0.33 0.17
21 19 21 0.3 0.21
23 -19 21 -0.11 0.15
23 19 21 -0.16 0.19
25 -19 21 0.04 0.15
25 19 21 0.2 0.21
27 -19 21 0.06 0.16
29 -19 21 -0.05 0.15
31 -19 21 0.13 0.16
-33 19 -21 -0.2 0.12
-35 19 -21 0.02 0.13
-37 19 -21 0.18 0.13
-37 -21 21 0.22 0.16
-35 -21 21 0.11 0.18
-33 -21 21 -0.22 0.17
-31 -21 21 -0.14 0.17
-29 -21 21 -0.29 0.15
-27 -21 21 0 0.16
-25 -21 21 -0.08 0.15
-23 -21 21 -0.13 0.15
23 21 -21 -0.23 0.18
-21 -21 21 -0.17 0.16
21 21 -21 0.04 0.2
-19 -21 21 0.16 0.18
19 21 -21 -0.04 0.18
-17 -21 21 0.29 0.18
17 21 -21 0.67 0.24
-15 -21 21 0.69 0.2
15 21 -21 0.53 0.22
-15 21 21 0.67 0.33
-13 -21 21 1.07 0.22
-13 21 21 1.97 0.41
13 21 -21 1.37 0.27
-11 -21 21 0.56 0.16
11 21 -21 0.85 0.25
-11 21 21 0.78 0.28
-9 -21 21 1.88 0.23
9 21 -21 2.44 0.34
-9 21 21 2.29 0.38
-7 -21 21 0.51 0.17
7 21 -21 0.48 0.21
-7 21 21 0.93 0.3
-7 21 21 0.6 0.19
-5 -21 21 3.63 0.36
-5 21 21 2.78 0.42
-5 21 21 2.81 0.33
5 21 -21 2.49 0.35
-3 -21 21 0.05 0.13
-3 -21 21 0.22 0.24
-3 21 21 0.14 0.16
-3 21 21 0.02 0.21
3 21 -21 0.02 0.16
-1 -21 21 1.39 0.35
-1 -21 21 1.28 0.22
-1 21 21 1.22 0.3
1 21 -21 1.47 0.25
-1 21 21 1.3 0.24
1 -21 21 0.98 0.2
1 -21 21 0.94 0.31
-1 21 -21 1.12 0.29
1 21 21 1.44 0.25
-1 21 -21 1.4 0.24
1 21 21 1.14 0.32
3 -21 21 -0.16 0.15
3 -21 21 -0.11 0.25
-3 21 -21 0.01 0.19
3 21 21 0.19 0.15
-3 21 -21 -0.02 0.14
5 -21 21 2.69 0.29
5 -21 21 3.28 0.46
-5 21 -21 2.49 0.33
-5 21 -21 2.69 0.38
5 21 21 2.51 0.31
7 -21 21 0.98 0.32
7 -21 21 0.48 0.17
7 21 21 0.64 0.19
-7 21 -21 0.88 0.27
9 -21 21 1.33 0.37
9 -21 21 1.53 0.22
-9 21 -21 2.1 0.36
9 21 21 1.95 0.28
11 -21 21 0.93 0.29
11 -21 21 0.63 0.18
11 21 21 1.01 0.23
-11 21 -21 0.88 0.27
13 -21 21 0.95 0.19
13 -21 21 1.18 0.36
-13 21 -21 0.86 0.29
13 21 21 1.22 0.25
15 -21 21 0.71 0.18
15 -21 21 0.73 0.3
-15 21 -21 0.5 0.25
15 21 21 0.6 0.21
17 -21 21 0.48 0.17
-17 21 -21 0.5 0.27
17 21 21 0.69 0.24
19 -21 21 0.11 0.17
19 21 21 0.18 0.21
21 -21 21 -0.07 0.16
21 21 21 0.19 0.2
23 -21 21 -0.19 0.16
23 21 21 -0.52 0.17
25 -21 21 -0.07 0.16
27 -21 21 -0.23 0.15
29 -21 21 -0.27 0.15
31 -21 21 0.33 0.18
-33 21 -21 -0.26 0.13
-35 21 -21 0.21 0.14
-37 21 -21 -0.07 0.12
-35 -23 21 -0.16 0.16
-33 -23 21 -0.1 0.17
-31 -23 21 -0.19 0.18
-29 -23 21 0.11 0.19
-27 -23 21 0.18 0.19
-25 -23 21 0.06 0.17
-23 -23 21 0.13 0.17
-21 -23 21 -0.19 0.16
21 23 -21 -0.01 0.19
-19 -23 21 0.03 0.17
19 23 -21 0.16 0.18
-17 -23 21 0.14 0.17
17 23 -21 0.34 0.21
-15 -23 21 -0.25 0.14
15 23 -21 -0.03 0.18
-13 -23 21 0.46 0.18
13 23 -21 0.6 0.22
-13 23 21 0.35 0.27
-11 -23 21 0.05 0.16
11 23 -21 0.3 0.2
-11 23 21 0.18 0.27
-9 -23 21 0.55 0.17
9 23 -21 0.59 0.21
-9 23 21 0.84 0.32
-7 -23 21 0.32 0.17
7 23 -21 0.05 0.18
-7 23 21 0.06 0.15
-7 23 21 0.31 0.25
-5 -23 21 1.12 0.22
-5 23 21 1.4 0.34
5 23 -21 1.26 0.27
-5 23 21 1.06 0.23
-3 -23 21 0.33 0.16
3 23 -21 0.13 0.17
-3 23 21 0.26 0.17
-3 23 21 -0.06 0.23
-1 -23 21 0.15 0.26
-1 -23 21 0.3 0.15
1 23 -21 0.75 0.21
-1 23 21 0.14 0.26
-1 23 21 0.4 0.18
1 -23 21 0.6 0.27
1 -23 21 0.4 0.18
-1 23 -21 0.37 0.22
-1 23 -21 0.55 0.2
1 23 21 0.29 0.17
3 -23 21 0.1 0.15
3 -23 21 0.08 0.23
-3 23 -21 0.14 0.21
-3 23 -21 0.03 0.16
3 23 21 0.17 0.15
5 -23 21 0.6 0.32
5 -23 21 0.82 0.21
-5 23 -21 1.87 0.34
-5 23 -21 1.2 0.25
5 23 21 1.25 0.24
7 -23 21 0.19 0.14
7 -23 21 0.41 0.25
-7 23 -21 0.34 0.22
7 23 21 0.36 0.17
9 -23 21 0.94 0.33
9 -23 21 0.5 0.18
9 23 21 0.64 0.19
-9 23 -21 0.66 0.27
11 -23 21 0.3 0.17
11 -23 21 0.38 0.3
11 23 21 0.29 0.17
-11 23 -21 0.32 0.23
13 -23 21 0.14 0.24
13 -23 21 0.68 0.18
-13 23 -21 0.65 0.25
13 23 21 0.48 0.2
15 -23 21 0.17 0.16
-15 23 -21 0.21 0.23
15 23 21 0.09 0.18
17 -23 21 0.12 0.17
17 23 21 0.38 0.21
19 -23 21 0.12 0.17
19 23 21 0.07 0.2
21 -23 21 -0.26 0.16
21 23 21 -0.08 0.18
23 -23 21 -0.06 0.17
25 -23 21 -0.03 0.17
27 -23 21 0.27 0.17
29 -23 21 -0.3 0.16
31 -23 21 0.12 0.16
-33 23 -21 -0.21 0.12
-35 23 -21 -0.07 0.12
-35 -25 21 0.12 0.15
-33 -25 21 -0.13 0.16
-31 -25 21 0.16 0.19
-29 -25 21 0.08 0.19
-27 -25 21 0.55 0.21
-25 -25 21 -0.05 0.17
-23 -25 21 0.11 0.17
-21 -25 21 -0.03 0.16
-19 -25 21 0.09 0.17
19 25 -21 0.06 0.17
-17 -25 21 0.35 0.18
17 25 -21 0.36 0.22
-15 -25 21 0.93 0.21
15 25 -21 0.95 0.26
-13 -25 21 2.47 0.31
13 25 -21 2.71 0.36
-11 -25 21 3.36 0.34
11 25 -21 2.39 0.35
-9 -25 21 4.8 0.43
-9 25 21 4.19 0.54
9 25 -21 4.22 0.46
-7 -25 21 2.85 0.31
7 25 -21 2.41 0.35
-7 25 21 2.18 0.4
-7 25 21 3.02 0.35
-5 -25 21 2.96 0.32
5 25 -21 3.39 0.41
-5 25 21 3.96 0.49
-5 25 21 3.6 0.39
-3 -25 21 0.26 0.17
-3 25 21 0.11 0.17
3 25 -21 -0.05 0.17
-1 -25 21 0.83 0.2
-1 25 21 0.91 0.23
1 25 -21 1.57 0.27
1 -25 21 0.68 0.2
1 -25 21 0.73 0.36
-1 25 -21 0.63 0.26
-1 25 -21 1.6 0.28
1 25 21 1.22 0.24
3 -25 21 0.1 0.16
3 -25 21 0.23 0.29
3 25 21 0.13 0.17
-3 25 -21 -0.09 0.16
-3 25 -21 0.15 0.21
5 -25 21 3.17 0.48
5 -25 21 2.81 0.32
5 25 21 3.61 0.39
-5 25 -21 3.16 0.38
-5 25 -21 3.27 0.44
7 -25 21 2.9 0.48
7 -25 21 2.3 0.29
7 25 21 2.57 0.33
-7 25 -21 2.69 0.42
9 -25 21 3.86 0.54
9 -25 21 4.17 0.41
-9 25 -21 3.61 0.47
9 25 21 4.1 0.42
11 -25 21 2.66 0.3
-11 25 -21 2.57 0.4
11 25 21 2.97 0.36
13 -25 21 2.29 0.29
13 25 21 2.57 0.34
15 -25 21 1.25 0.24
15 25 21 0.78 0.24
17 -25 21 0.26 0.19
17 25 21 0.26 0.19
19 -25 21 -0.29 0.18
19 25 21 0.07 0.18
21 -25 21 -0.35 0.16
23 -25 21 -0.1 0.18
25 -25 21 0.16 0.18
27 -25 21 0.23 0.18
29 -25 21 0.01 0.17
31 -25 21 0.09 0.16
-33 25 -21 0.06 0.13
-35 25 -21 0.14 0.12
-33 -27 21 0.04 0.16
-31 -27 21 0.26 0.18
-29 -27 21 0.21 0.18
-27 -27 21 0.64 0.2
-25 -27 21 0.56 0.2
-23 -27 21 0.16 0.18
-21 -27 21 0.06 0.17
-19 -27 21 0.04 0.17
-17 -27 21 0.01 0.17
17 27 -21 0.12 0.18
-15 -27 21 -0.17 0.16
15 27 -21 0.23 0.2
-13 -27 21 0.82 0.21
13 27 -21 0.83 0.25
-11 -27 21 0.57 0.19
11 27 -21 0.49 0.22
-9 -27 21 0.68 0.21
9 27 -21 0.75 0.25
-7 -27 21 0.8 0.22
7 27 -21 0.97 0.25
-7 27 21 0.76 0.22
-5 -27 21 0.5 0.19
-5 27 21 0.54 0.21
5 27 -21 0.72 0.24
-3 -27 21 0.01 0.17
-3 27 21 -0.08 0.17
3 27 -21 -0.07 0.18
-1 -27 21 0.27 0.18
1 27 -21 0.24 0.22
1 27 -21 0.16 0.19
-1 27 21 0.41 0.2
1 -27 21 0.27 0.19
-1 27 -21 0.21 0.2
-1 27 -21 0.09 0.22
1 27 21 0.06 0.17
3 -27 21 0.16 0.19
-3 27 -21 0.15 0.21
3 27 21 0.21 0.18
-3 27 -21 0.17 0.19
5 -27 21 0.46 0.21
5 27 21 0.52 0.2
-5 27 -21 0.8 0.24
-5 27 -21 0.53 0.26
7 -27 21 0.42 0.19
-7 27 -21 0.41 0.22
7 27 21 0.82 0.22
9 -27 21 0.49 0.21
9 27 21 0.68 0.22
11 -27 21 0.31 0.19
11 27 21 0.73 0.22
13 -27 21 0.32 0.2
13 27 21 0.67 0.23
15 -27 21 0.17 0.2
15 27 21 0.16 0.18
17 -27 21 0.04 0.19
17 27 21 0.02 0.17
19 -27 21 -0.03 0.2
21 -27 21 -0.39 0.17
23 -27 21 0.16 0.19
25 -27 21 0.13 0.19
27 -27 21 0.53 0.19
29 -27 21 0.35 0.18
31 -27 21 0.28 0.17
-33 27 -21 0.02 0.12
-31 -29 21 0.28 0.17
-29 -29 21 0.3 0.18
-27 -29 21 0.45 0.19
-25 -29 21 0.33 0.19
-23 -29 21 -0.13 0.17
-21 -29 21 -0.04 0.17
-19 -29 21 0.2 0.18
-17 -29 21 0.63 0.2
-15 -29 21 1.15 0.23
-13 -29 21 3.94 0.41
13 29 -21 3.49 0.42
-11 -29 21 4.18 0.45
11 29 -21 3.66 0.43
-9 -29 21 3.92 0.43
9 29 -21 4.46 0.48
-7 -29 21 3.13 0.34
7 29 -21 3.72 0.44
-7 29 21 4.16 0.43
-5 -29 21 1.11 0.23
5 29 -21 1.89 0.32
-5 29 21 1.4 0.28
-3 -29 21 0.57 0.21
-3 29 21 0.84 0.24
3 29 -21 0.87 0.25
-1 -29 21 -0.01 0.18
-1 29 21 -0.03 0.18
1 -29 21 0.1 0.19
1 29 21 0.15 0.18
3 -29 21 0.65 0.22
3 29 21 0.65 0.22
5 -29 21 1.28 0.25
5 29 21 1.68 0.29
7 -29 21 3.03 0.33
7 29 21 3.54 0.41
9 -29 21 3.51 0.37
9 29 21 4.36 0.46
11 -29 21 4.27 0.46
11 29 21 4.26 0.46
13 -29 21 2.74 0.32
13 29 21 3.84 0.44
15 -29 21 1.14 0.25
17 -29 21 0.51 0.22
19 -29 21 0.04 0.19
21 -29 21 -0.29 0.17
23 -29 21 -0.12 0.18
25 -29 21 0.04 0.19
27 -29 21 0.13 0.18
29 -29 21 0.35 0.17
31 -29 21 0.21 0.16
-29 -31 21 0.35 0.16
-27 -31 21 0.26 0.17
-25 -31 21 0.34 0.19
-23 -31 21 0.05 0.18
-21 -31 21 0.16 0.18
-19 -31 21 -0.12 0.18
-17 -31 21 -0.06 0.17
-15 -31 21 0.54 0.21
-13 -31 21 1.12 0.24
-11 -31 21 1.07 0.23
-9 -31 21 1.9 0.27
-7 -31 21 1.75 0.29
7 31 -21 2.37 0.37
-7 31 21 2.77 0.36
-5 -31 21 1.03 0.23
-3 -31 21 0.59 0.21
-1 -31 21 0.06 0.19
1 -31 21 -0.01 0.18
1 31 21 0.18 0.21
3 -31 21 0.52 0.21
3 31 21 0.42 0.23
5 -31 21 1.12 0.24
5 31 21 1.11 0.27
7 -31 21 2.01 0.3
7 31 21 1.72 0.31
9 -31 21 1.85 0.29
11 -31 21 1.73 0.27
13 -31 21 1.01 0.24
15 -31 21 0.49 0.22
17 -31 21 -0.11 0.19
19 -31 21 0.03 0.2
21 -31 21 -0.24 0.18
23 -31 21 -0.04 0.18
25 -31 21 0.25 0.19
27 -31 21 0.39 0.19
29 -31 21 0.25 0.17
-27 -33 21 -0.11 0.14
-25 -33 21 -0.06 0.16
-23 -33 21 -0.12 0.16
-21 -33 21 -0.05 0.17
-19 -33 21 -0.13 0.17
-17 -33 21 0.1 0.19
-15 -33 21 0.78 0.22
-13 -33 21 1.06 0.23
-11 -33 21 1.43 0.25
-9 -33 21 1.26 0.24
-7 -33 21 0.78 0.22
-5 -33 21 0.23 0.2
-3 -33 21 0.34 0.2
-1 -33 21 -0.18 0.19
1 -33 21 0.07 0.19
3 -33 21 0.24 0.19
5 -33 21 0.31 0.21
7 -33 21 1.06 0.25
9 -33 21 0.89 0.24
11 -33 21 0.87 0.23
13 -33 21 1.05 0.24
15 -33 21 0.31 0.21
17 -33 21 0.3 0.21
19 -33 21 -0.11 0.18
21 -33 21 -0.15 0.18
23 -33 21 -0.23 0.17
25 -33 21 -0.03 0.16
27 -33 21 -0.01 0.15
-23 -35 21 0.02 0.16
-21 -35 21 0.24 0.17
-19 -35 21 -0.24 0.16
-17 -35 21 0.03 0.18
-15 -35 21 0 0.17
-13 -35 21 -0.24 0.17
-11 -35 21 0.27 0.19
-9 -35 21 0.17 0.18
-7 -35 21 0.17 0.19
-5 -35 21 0.12 0.18
-3 -35 21 0.04 0.18
-1 -35 21 -0.11 0.17
1 -35 21 -0.1 0.18
3 -35 21 0.18 0.19
5 -35 21 0.05 0.19
7 -35 21 0.32 0.2
9 -35 21 -0.03 0.18
11 -35 21 0.17 0.2
13 -35 21 0.11 0.19
15 -35 21 0.14 0.19
17 -35 21 0.19 0.19
19 -35 21 -0.02 0.18
21 -35 21 -0.14 0.17
23 -35 21 0.01 0.17
25 -35 21 0.03 0.16
-21 -37 21 -0.06 0.14
-19 -37 21 0.02 0.15
-17 -37 21 0.14 0.16
-15 -37 21 0.14 0.17
-13 -37 21 0.05 0.17
-11 -37 21 -0.07 0.17
-9 -37 21 -0.05 0.17
-7 -37 21 0.09 0.18
-5 -37 21 0.05 0.18
-3 -37 21 0.04 0.17
-1 -37 21 0.03 0.18
1 -37 21 0.15 0.19
3 -37 21 -0.13 0.18
5 -37 21 0.18 0.19
7 -37 21 -0.05 0.18
9 -37 21 -0.1 0.17
11 -37 21 0.08 0.18
13 -37 21 0.19 0.18
15 -37 21 0.05 0.18
17 -37 21 -0.02 0.16
19 -37 21 0.03 0.17
21 -37 21 -0.1 0.15
23 -37 21 -0.21 0.14
-17 -39 21 0.15 0.15
-15 -39 21 0.14 0.16
-13 -39 21 0.15 0.16
-11 -39 21 0.02 0.16
-9 -39 21 -0.03 0.16
-7 -39 21 0.05 0.16
-5 -39 21 0.07 0.16
-3 -39 21 0.16 0.17
-1 -39 21 0.08 0.17
1 -39 21 0.04 0.17
3 -39 21 0.1 0.17
5 -39 21 0.06 0.17
7 -39 21 -0.16 0.16
9 -39 21 0.12 0.16
11 -39 21 0.06 0.16
13 -39 21 0.1 0.16
15 -39 21 0.06 0.15
17 -39 21 0.13 0.16
19 -39 21 -0.13 0.14
-11 -41 21 -0.1 0.13
-9 -41 21 -0.11 0.14
-7 -41 21 -0.27 0.14
-5 -41 21 0.03 0.15
-3 -41 21 -0.17 0.14
-1 -41 21 0.02 0.15
1 -41 21 0 0.15
3 -41 21 -0.02 0.15
5 -41 21 0.05 0.15
7 -41 21 -0.21 0.14
9 -41 21 -0.02 0.14
11 -41 21 0.09 0.15
13 -41 21 0.01 0.14
1 -43 21 -0.1 0.14
-42 0 22 1.69 0.2
-40 0 22 0.35 0.15
-38 0 22 4.93 0.41
-36 0 22 0.29 0.17
-34 0 22 2.7 0.28
-32 0 22 0.03 0.14
-30 0 22 0.99 0.18
-28 0 22 0.16 0.14
-26 0 22 13.33 0.71
-24 0 22 0.52 0.14
-22 0 22 53.4 2.42
-20 0 22 0.36 0.26
-18 0 22 90.68 3.84
-18 0 22 87.63 3.96
-16 0 22 0.52 0.25
-14 0 22 28.62 1.43
-12 0 22 0.1 0.18
-10 0 22 1.01 0.26
-8 0 22 -0.09 0.17
-6 0 22 53.61 2.4
-4 0 22 0.65 0.25
-2 0 22 188.4 7.36
2 0 -22 169.33 7.67
0 0 22 0.45 0.26
0 0 -22 0.19 0.13
2 0 22 190.44 7.69
-2 0 -22 183.09 8.03
-4 0 -22 0.14 0.12
4 0 22 -0.17 0.19
6 0 22 47.13 2.11
-6 0 -22 43.52 2.03
-8 0 -22 -0.02 0.11
8 0 22 0.05 0.18
10 0 22 0.8 0.24
12 0 22 0.3 0.21
14 0 22 28.19 1.47
16 0 22 0.64 0.27
18 0 22 77.45 3.45
-42 -2 22 0.06 0.13
-42 2 22 0.09 0.12
-40 -2 22 4.02 0.36
-40 2 22 4.03 0.35
-38 -2 22 0.27 0.17
-38 2 22 0.22 0.16
-36 -2 22 3.79 0.38
-36 2 22 4.78 0.39
-34 -2 22 0.23 0.16
-34 2 22 0.18 0.15
-32 -2 22 1.18 0.21
-32 2 22 1.39 0.21
-30 -2 22 -0.01 0.13
-30 2 22 0.15 0.14
-28 -2 22 0.16 0.14
-28 2 22 0.09 0.13
-26 -2 22 0.35 0.14
-26 2 22 0.29 0.13
-24 -2 22 31.87 1.52
-24 2 22 32.47 1.51
-20 -2 22 83.14 3.81
-20 2 22 88.55 3.72
-18 -2 22 0.64 0.13
-18 -2 22 0.69 0.26
-18 2 22 0.94 0.28
-16 -2 22 61.29 2.71
-16 2 22 60.62 2.72
-14 -2 22 0.15 0.19
-14 2 22 0.03 0.18
-12 -2 22 9.12 0.63
-12 2 22 9.34 0.64
-10 -2 22 -0.17 0.15
10 2 -22 0.09 0.1
-10 2 22 -0.08 0.15
-8 -2 22 3.77 0.43
8 2 -22 4.03 0.29
-8 2 22 3.5 0.41
-6 -2 22 0.1 0.17
6 2 -22 0 0.09
-6 2 22 0.07 0.17
-4 -2 22 100.59 4.09
-4 2 22 99.24 4.08
4 2 -22 88.65 4.18
-2 -2 22 0.07 0.22
2 2 -22 -0.07 0.12
-2 2 22 0.15 0.19
0 -2 22 183.52 7.56
0 2 -22 180.76 7.92
0 2 22 186.91 7.56
2 -2 22 -0.2 0.23
-2 2 -22 -0.06 0.12
2 2 22 0.08 0.2
4 -2 22 99.93 4.14
-4 2 -22 93.22 4.22
4 2 22 96.75 4.12
6 -2 22 0.27 0.2
6 2 22 0.06 0.18
-6 2 -22 0.07 0.11
8 -2 22 3.4 0.44
-8 2 -22 3.36 0.31
8 2 22 4.03 0.46
10 -2 22 0.26 0.22
-10 2 -22 -0.07 0.11
10 2 22 -0.04 0.17
12 -2 22 8.23 0.64
12 2 22 8.94 0.65
-12 2 -22 7.67 0.5
14 -2 22 0.31 0.24
-14 2 -22 -0.05 0.13
14 2 22 -0.01 0.2
16 -2 22 55.22 2.57
16 2 22 55.51 2.55
18 -2 22 0.59 0.27
-42 -4 22 0.89 0.18
-40 -4 22 0.26 0.15
-40 4 22 0.48 0.15
-38 -4 22 2.41 0.26
-38 4 22 2.36 0.25
-36 -4 22 0.08 0.16
-36 4 22 0.19 0.15
-34 -4 22 1.68 0.25
-34 4 22 1.8 0.23
-32 -4 22 0.04 0.16
-32 4 22 0.27 0.15
-30 -4 22 0.91 0.19
-30 4 22 1.23 0.19
-28 -4 22 -0.07 0.13
-28 4 22 -0.07 0.12
-26 -4 22 5.52 0.42
-26 4 22 6.2 0.4
-24 -4 22 0.07 0.13
-24 4 22 0.24 0.14
-22 -4 22 23.91 1.2
-22 4 22 26.71 1.35
-20 -4 22 0.31 0.13
-20 4 22 0.25 0.22
-18 -4 22 39.83 1.87
-18 4 22 41.73 1.94
-16 -4 22 -0.17 0.2
-16 -4 22 0.14 0.11
-16 4 22 0.22 0.23
-14 -4 22 12.72 0.78
14 4 -22 12.57 0.69
-14 4 22 12.94 0.79
-12 -4 22 0.19 0.2
-12 4 22 0.33 0.2
12 4 -22 0.12 0.12
-10 -4 22 0.92 0.24
10 4 -22 0.77 0.16
-10 4 22 0.64 0.23
-8 -4 22 -0.08 0.16
8 4 -22 0.15 0.12
-8 4 22 -0.18 0.17
-6 -4 22 22.34 1.17
-6 4 22 22.77 1.17
6 4 -22 22.62 1.1
-4 -4 22 0.15 0.18
4 4 -22 -0.03 0.12
-4 4 22 0.24 0.2
-2 -4 22 96.75 4.07
2 4 -22 97.04 4.19
2 4 -22 89.96 4.32
-2 4 22 97.52 4.06
0 -4 22 0.46 0.26
0 4 22 0.4 0.22
0 4 -22 -0.09 0.13
0 4 -22 -0.06 0.15
2 -4 22 96.08 4.07
-2 4 -22 92.87 4.32
2 4 22 97.18 4.07
-2 4 -22 94.5 4.18
4 -4 22 0.25 0.21
-4 4 -22 0.09 0.12
-4 4 -22 0.27 0.16
4 4 22 -0.02 0.2
4 4 22 0.24 0.12
6 -4 22 23.62 1.22
-6 4 -22 22.94 1.11
6 4 22 21.13 1.18
6 4 22 22.41 1.1
8 -4 22 0.13 0.2
8 4 22 0.1 0.17
8 4 22 -0.14 0.11
-8 4 -22 -0.04 0.11
10 -4 22 0.68 0.25
-10 4 -22 0.68 0.17
10 4 22 0.58 0.16
10 4 22 0.6 0.25
12 -4 22 -0.01 0.19
12 4 22 -0.04 0.18
-12 4 -22 0.15 0.13
12 4 22 0.18 0.13
14 -4 22 10.83 0.79
14 4 22 11.23 0.77
-14 4 -22 12.21 0.67
16 -4 22 0.51 0.28
-16 4 -22 0.19 0.14
18 -4 22 38.54 1.95
-18 4 -22 39.09 1.83
20 -4 22 0.14 0.27
-42 -6 22 -0.02 0.14
-40 -6 22 1.49 0.22
-40 6 22 1.68 0.2
-38 -6 22 -0.22 0.15
-38 6 22 0.04 0.14
-36 -6 22 1.36 0.23
-36 6 22 1.42 0.21
-34 -6 22 0.03 0.16
-34 6 22 -0.01 0.15
-32 -6 22 0.7 0.2
-32 6 22 0.89 0.18
-30 -6 22 -0.06 0.14
-30 6 22 -0.04 0.13
-28 -6 22 0.93 0.19
-28 6 22 1.25 0.19
-26 -6 22 0.21 0.14
-24 -6 22 8.07 0.51
-22 -6 22 0.17 0.13
-22 6 22 0.14 0.25
-20 -6 22 25.41 1.24
-20 6 22 26.68 1.37
-18 -6 22 0.05 0.12
-18 6 22 0.62 0.26
18 6 -22 0.14 0.14
-16 -6 22 18.1 0.94
-16 6 22 19.96 1.08
16 6 -22 19.8 0.98
-14 -6 22 0.09 0.2
-14 6 22 0.27 0.21
14 6 -22 -0.01 0.13
-12 -6 22 4.81 0.46
12 6 -22 5.28 0.39
-12 6 22 4.87 0.48
-10 -6 22 -0.06 0.17
-10 6 22 0.06 0.18
10 6 -22 -0.03 0.12
-8 -6 22 0.26 0.19
-8 6 22 0.18 0.19
8 6 -22 0.45 0.15
-6 -6 22 -0.12 0.18
6 6 -22 -0.03 0.11
-6 6 22 -0.08 0.16
-4 -6 22 22.21 1.17
4 6 -22 22.2 1.12
-4 6 22 22.96 1.16
-2 -6 22 -0.03 0.17
2 6 -22 -0.04 0.13
-2 6 22 0.05 0.17
2 6 -22 -0.01 0.12
0 -6 22 50.47 2.21
0 6 -22 45.21 2.17
0 6 -22 46.61 2.29
0 6 22 49.46 2.18
2 -6 22 0.16 0.19
-2 6 -22 -0.06 0.12
2 6 22 -0.02 0.1
2 6 22 0.1 0.18
-2 6 -22 0.04 0.12
4 -6 22 21.92 1.17
4 6 22 21.56 1.15
4 6 22 22.72 1.09
-4 6 -22 20.65 1.17
-4 6 -22 21.81 1.08
6 -6 22 -0.04 0.15
-6 6 -22 0.07 0.15
-6 6 -22 0.02 0.12
6 6 22 -0.2 0.17
6 6 22 -0.14 0.1
8 -6 22 0.31 0.21
8 6 22 0.22 0.21
-8 6 -22 0.53 0.15
8 6 22 0.42 0.15
-8 6 -22 0.23 0.18
10 -6 22 0.06 0.19
10 6 22 -0.06 0.12
-10 6 -22 -0.05 0.17
10 6 22 0.23 0.2
-10 6 -22 0.11 0.13
12 -6 22 4.29 0.52
-12 6 -22 5.12 0.39
12 6 22 5.07 0.4
12 6 22 4.31 0.49
14 -6 22 0.1 0.24
-14 6 -22 -0.04 0.12
14 6 22 -0.01 0.13
16 -6 22 18.01 1.13
16 6 22 19.24 0.99
-16 6 -22 18.48 0.97
18 -6 22 0.34 0.27
-18 6 -22 0.35 0.15
20 -6 22 23.17 1.38
-20 6 -22 25.38 1.24
22 -6 22 0 0.27
-42 -8 22 -0.11 0.14
-40 -8 22 -0.15 0.15
-38 -8 22 -0.38 0.15
-38 8 22 -0.08 0.13
-36 -8 22 -0.37 0.16
-36 8 22 0.02 0.13
-34 -8 22 -0.1 0.16
-34 8 22 -0.05 0.14
-32 -8 22 -0.15 0.15
-30 -8 22 0.11 0.16
-28 -8 22 0.24 0.15
-26 -8 22 2.19 0.25
-24 -8 22 0.02 0.13
-24 8 22 -0.12 0.25
-22 -8 22 5.53 0.4
-22 8 22 5.56 0.59
-20 -8 22 -0.19 0.11
20 8 -22 0.09 0.15
-20 8 22 0.05 0.21
-18 -8 22 6.85 0.44
-18 8 22 6.67 0.58
18 8 -22 7.28 0.51
-16 -8 22 0.06 0.12
16 8 -22 -0.02 0.15
-16 8 22 -0.12 0.18
-14 -8 22 2.85 0.4
-14 -8 22 2.86 0.27
14 8 -22 2.2 0.28
-14 8 22 2.44 0.37
-12 -8 22 -0.13 0.2
-12 8 22 -0.14 0.21
12 8 -22 0.02 0.14
-10 -8 22 3.78 0.44
10 8 -22 3.87 0.36
-10 8 22 4.38 0.44
-8 -8 22 -0.15 0.18
-8 8 22 0.01 0.18
8 8 -22 -0.13 0.12
-6 -8 22 0.44 0.21
6 8 -22 0.41 0.15
-6 8 22 0.38 0.21
-4 -8 22 0 0.17
-4 8 22 -0.01 0.2
4 8 -22 0.04 0.13
-2 -8 22 3.35 0.42
2 8 -22 4.14 0.35
-2 8 22 3.32 0.41
2 8 -22 3.7 0.39
0 -8 22 0.14 0.18
0 8 -22 -0.08 0.12
0 8 22 0.24 0.19
0 8 22 0.02 0.12
0 8 -22 0.16 0.16
2 -8 22 3.72 0.44
-2 8 -22 3.51 0.33
2 8 22 4.15 0.34
-2 8 -22 3.66 0.41
2 8 22 3.54 0.43
4 -8 22 0.04 0.17
4 8 22 0.03 0.17
-4 8 -22 0.04 0.12
-4 8 -22 0 0.15
4 8 22 -0.06 0.12
6 -8 22 0.58 0.24
6 8 22 0.48 0.23
-6 8 -22 0.29 0.18
6 8 22 0.36 0.15
-6 8 -22 0.79 0.17
8 -8 22 0.01 0.22
8 8 22 -0.16 0.17
-8 8 -22 -0.04 0.15
8 8 22 -0.1 0.12
-8 8 -22 0.01 0.12
10 -8 22 3.52 0.46
-10 8 -22 3.91 0.34
10 8 22 3.65 0.44
-10 8 -22 4.46 0.45
10 8 22 3.74 0.35
12 -8 22 -0.23 0.22
12 8 22 -0.16 0.18
12 8 22 0.06 0.14
-12 8 -22 -0.2 0.12
-12 8 -22 -0.11 0.17
14 -8 22 2.92 0.47
14 8 22 2.44 0.3
-14 8 -22 2.19 0.35
-14 8 -22 1.9 0.26
16 -8 22 -0.13 0.21
-16 8 -22 0.14 0.13
16 8 22 0.17 0.15
18 -8 22 5.95 0.67
-18 8 -22 6.1 0.47
18 8 22 6.17 0.48
20 -8 22 0.2 0.25
-20 8 -22 0.03 0.14
22 -8 22 4.73 0.61
-22 8 -22 6.13 0.48
-24 8 -22 0.07 0.17
-40 -10 22 -0.07 0.16
-38 -10 22 -0.09 0.17
-36 -10 22 -0.13 0.16
-34 -10 22 0 0.17
-32 -10 22 0.22 0.18
-30 -10 22 -0.13 0.14
-28 -10 22 0.26 0.16
-26 -10 22 -0.06 0.13
-24 -10 22 0.13 0.14
-24 10 22 -0.1 0.23
-22 -10 22 -0.01 0.11
22 10 -22 -0.09 0.16
-22 10 22 -0.27 0.19
-20 -10 22 0.12 0.12
-20 10 22 0.23 0.25
20 10 -22 0.35 0.18
-18 -10 22 0.04 0.12
-18 10 22 -0.05 0.21
18 10 -22 -0.29 0.14
-16 -10 22 1 0.17
-16 10 22 0.61 0.25
16 10 -22 0.69 0.2
-14 -10 22 0.03 0.1
14 10 -22 -0.02 0.15
-14 10 22 0.37 0.25
-12 -10 22 2.63 0.38
-12 -10 22 3.01 0.28
-12 10 22 2.77 0.38
12 10 -22 2.2 0.29
-10 -10 22 -0.1 0.2
-10 10 22 0.07 0.19
10 10 -22 0.09 0.16
-8 -10 22 3.45 0.42
8 10 -22 3.54 0.37
-8 10 22 4 0.44
-6 -10 22 -0.04 0.18
-6 10 22 0.12 0.19
6 10 -22 0.1 0.15
-4 -10 22 0.46 0.24
4 10 -22 0.7 0.19
-4 10 22 0.61 0.23
-2 -10 22 0.11 0.18
-2 10 22 0.11 0.12
-2 10 22 0.04 0.18
2 10 -22 0.02 0.14
0 -10 22 0.8 0.26
0 10 -22 1.05 0.24
0 10 22 0.82 0.24
0 10 -22 0.96 0.19
0 10 22 0.76 0.17
2 -10 22 -0.07 0.17
2 10 22 -0.23 0.18
-2 10 -22 -0.1 0.11
2 10 22 0.18 0.14
-2 10 -22 0.14 0.17
4 -10 22 0.58 0.24
-4 10 -22 0.49 0.16
4 10 22 0.62 0.23
4 10 22 0.52 0.17
-4 10 -22 0.41 0.18
6 -10 22 -0.19 0.18
-6 10 -22 -0.02 0.16
-6 10 -22 -0.02 0.12
6 10 22 -0.04 0.12
6 10 22 -0.02 0.19
8 -10 22 4.02 0.48
8 10 22 4.7 0.47
-8 10 -22 3.78 0.44
-8 10 -22 3.44 0.34
8 10 22 3.98 0.37
10 -10 22 -0.27 0.19
-10 10 -22 0.16 0.18
10 10 22 0.19 0.19
10 10 22 0.21 0.15
-10 10 -22 0.09 0.14
12 -10 22 2.91 0.44
-12 10 -22 2.41 0.35
-12 10 -22 1.9 0.26
12 10 22 2.27 0.3
14 -10 22 0.23 0.27
-14 10 -22 0.02 0.18
14 10 22 0.08 0.14
-14 10 -22 -0.09 0.13
16 -10 22 0.75 0.32
16 10 22 0.81 0.21
-16 10 -22 0.89 0.25
-16 10 -22 0.76 0.2
18 -10 22 -0.11 0.24
18 10 22 -0.1 0.15
-18 10 -22 0.05 0.15
20 -10 22 0.23 0.28
-20 10 -22 0.35 0.17
20 10 22 -0.11 0.16
22 -10 22 0.06 0.3
-22 10 -22 -0.1 0.14
24 -10 22 0.08 0.3
-24 10 -22 0.24 0.18
-40 -12 22 -0.03 0.14
-38 -12 22 1.86 0.25
-36 -12 22 -0.03 0.18
-34 -12 22 4.73 0.44
-32 -12 22 0.06 0.17
-30 -12 22 0.87 0.22
-28 -12 22 -0.1 0.15
-26 -12 22 0.45 0.17
-24 -12 22 -0.22 0.13
-22 -12 22 0.1 0.14
22 12 -22 0.41 0.2
-22 12 22 0.26 0.29
-20 -12 22 0.15 0.13
-20 12 22 0.05 0.22
20 12 -22 0.03 0.17
-18 -12 22 2.09 0.23
18 12 -22 2.27 0.3
-18 12 22 2.06 0.4
-16 -12 22 0.16 0.13
-16 12 22 0.29 0.25
16 12 -22 0.11 0.17
-14 -12 22 1.95 0.22
14 12 -22 2.15 0.29
-14 12 22 1.52 0.33
-12 -12 22 0.12 0.13
-12 12 22 0 0.23
12 12 -22 -0.15 0.15
-10 -12 22 2.67 0.39
-10 -12 22 3.07 0.29
10 12 -22 2.48 0.32
-10 12 22 2.62 0.4
-8 -12 22 0.03 0.2
8 12 -22 -0.04 0.15
-8 12 22 0.04 0.2
-6 -12 22 5.07 0.48
-6 12 22 5.42 0.49
6 12 -22 4.72 0.42
-4 -12 22 -0.04 0.18
4 12 -22 0.05 0.14
-4 12 22 0.17 0.13
-4 12 22 0.19 0.2
-2 -12 22 9.56 0.66
-2 12 22 9.06 0.65
2 12 -22 7.62 0.56
-2 12 22 9.86 0.57
0 -12 22 0 0.19
0 12 -22 0 0.13
0 12 22 -0.38 0.15
0 12 22 0.12 0.14
0 12 -22 0.05 0.18
2 -12 22 8.32 0.65
2 12 22 9.12 0.66
2 12 22 9.05 0.58
-2 12 -22 10.33 0.7
4 -12 22 0.04 0.19
4 12 22 0.23 0.2
4 12 22 0.18 0.14
-4 12 -22 0.02 0.13
-4 12 -22 0.26 0.18
6 -12 22 4.38 0.51
-6 12 -22 4.48 0.39
6 12 22 5.05 0.41
6 12 22 5.51 0.49
-6 12 -22 5.46 0.5
8 -12 22 -0.24 0.19
-8 12 -22 -0.03 0.18
8 12 22 0.05 0.13
-8 12 -22 0 0.13
8 12 22 -0.11 0.18
10 -12 22 2.55 0.42
-10 12 -22 2.13 0.28
-10 12 -22 2.09 0.33
10 12 22 2.16 0.28
12 -12 22 -0.03 0.1
12 -12 22 0.18 0.25
-12 12 -22 -0.08 0.13
-12 12 -22 -0.06 0.18
12 12 22 0.01 0.14
14 -12 22 1.61 0.37
14 -12 22 1.66 0.2
-14 12 -22 1.96 0.28
-14 12 -22 1.43 0.29
14 12 22 1.97 0.29
16 -12 22 -0.11 0.24
16 -12 22 0.33 0.13
-16 12 -22 0.15 0.2
-16 12 -22 -0.07 0.15
16 12 22 0.14 0.16
18 -12 22 1.93 0.22
18 -12 22 2.57 0.46
-18 12 -22 1.8 0.34
18 12 22 2.08 0.31
-18 12 -22 2.37 0.3
20 -12 22 0.13 0.27
20 -12 22 0.09 0.13
-20 12 -22 -0.04 0.15
20 12 22 -0.05 0.16
22 -12 22 0.25 0.15
22 -12 22 0.13 0.3
-22 12 -22 -0.09 0.16
22 12 22 0.22 0.2
24 -12 22 -0.19 0.13
-24 12 -22 -0.18 0.15
26 -12 22 0.19 0.15
-26 12 -22 0.2 0.2
28 -12 22 -0.12 0.14
30 -12 22 0.84 0.21
-40 -14 22 0.8 0.18
-38 -14 22 0.26 0.17
-36 -14 22 2.45 0.29
-34 -14 22 0.47 0.19
-32 -14 22 2.24 0.29
-30 -14 22 0.03 0.18
-28 -14 22 -0.18 0.16
-26 -14 22 -0.18 0.15
-24 -14 22 1 0.21
24 14 -22 1.35 0.29
-22 -14 22 -0.14 0.13
22 14 -22 -0.01 0.17
-20 -14 22 10.26 0.61
-20 14 22 9.13 0.78
20 14 -22 10.78 0.69
-18 -14 22 0.08 0.12
18 14 -22 -0.08 0.16
-18 14 22 -0.2 0.2
-16 -14 22 8.88 0.53
-16 14 22 7.62 0.69
16 14 -22 8.67 0.61
-14 -14 22 -0.08 0.12
14 14 -22 -0.01 0.17
-14 14 22 -0.27 0.21
-12 -14 22 1.67 0.21
12 14 -22 1.62 0.26
-12 14 22 1.72 0.36
-10 -14 22 0.05 0.12
10 14 -22 -0.01 0.17
-10 14 22 0.04 0.23
-8 -14 22 2.67 0.29
-8 -14 22 2.65 0.39
8 14 -22 2.02 0.29
-8 14 22 2.9 0.41
-6 -14 22 -0.07 0.12
-6 -14 22 -0.29 0.2
-6 14 22 -0.34 0.16
6 14 -22 -0.01 0.15
-4 -14 22 11.72 0.78
-4 14 22 13.12 0.72
-4 14 22 12.65 0.78
4 14 -22 12.27 0.74
-2 -14 22 -0.12 0.17
-2 14 22 -0.08 0.18
-2 14 22 0.06 0.14
2 14 -22 -0.03 0.15
0 -14 22 26.56 1.45
0 14 -22 29.52 1.55
0 14 -22 28.47 1.43
0 14 22 30.89 1.48
0 14 22 30.96 1.44
2 -14 22 0.25 0.21
2 14 22 0.16 0.2
-2 14 -22 0.03 0.18
-2 14 -22 0.07 0.14
2 14 22 0.29 0.15
4 -14 22 13.38 0.85
-4 14 -22 13.5 0.85
4 14 22 14 0.76
4 14 22 13.29 0.81
-4 14 -22 11.32 0.72
6 -14 22 0.01 0.21
6 14 22 0.12 0.2
-6 14 -22 0.04 0.14
6 14 22 0.18 0.14
-6 14 -22 0.12 0.19
8 -14 22 2.65 0.43
8 -14 22 2.61 0.27
8 14 22 2.03 0.27
-8 14 -22 1.92 0.26
-8 14 -22 2.62 0.37
10 -14 22 -0.13 0.22
10 -14 22 0.04 0.12
10 14 22 0.02 0.14
-10 14 -22 -0.12 0.13
-10 14 -22 -0.17 0.16
12 -14 22 1.66 0.2
12 -14 22 1.24 0.36
-12 14 -22 1.57 0.33
12 14 22 1.61 0.25
-12 14 -22 1.98 0.27
14 -14 22 -0.15 0.24
14 -14 22 0 0.11
14 14 22 -0.01 0.15
-14 14 -22 -0.07 0.18
16 -14 22 7.92 0.71
16 -14 22 7.75 0.48
16 14 22 7.22 0.56
-16 14 -22 7.46 0.64
18 -14 22 -0.21 0.24
18 -14 22 0.14 0.13
18 14 22 0.12 0.17
-18 14 -22 0.13 0.2
20 -14 22 10.28 0.84
20 -14 22 8.94 0.56
-20 14 -22 8.69 0.64
20 14 22 8.93 0.65
22 -14 22 0.05 0.14
-22 14 -22 -0.01 0.16
22 14 22 -0.09 0.18
24 -14 22 0.63 0.17
-24 14 -22 1.08 0.27
26 -14 22 -0.04 0.15
-26 14 -22 0.01 0.18
28 -14 22 0.1 0.15
-28 14 -22 -0.2 0.19
30 -14 22 -0.07 0.15
-32 14 -22 1.82 0.21
-34 14 -22 0.21 0.14
-40 -16 22 0 0.14
-38 -16 22 5.43 0.42
-36 -16 22 0.19 0.18
-34 -16 22 8.46 0.57
-32 -16 22 0.16 0.18
-30 -16 22 2.46 0.3
-28 -16 22 -0.1 0.17
-26 -16 22 0.11 0.18
-24 -16 22 0.04 0.16
24 16 -22 0.09 0.2
-22 -16 22 8.75 0.58
22 16 -22 9.73 0.67
-20 -16 22 0.56 0.17
-20 16 22 0.27 0.32
20 16 -22 0.18 0.2
-18 -16 22 22.13 1.07
-18 16 22 18.29 1.18
18 16 -22 21.58 1.14
-16 -16 22 0.38 0.15
16 16 -22 0.27 0.19
-16 16 22 0.15 0.27
-14 -16 22 8.71 0.54
-14 16 22 7.44 0.66
14 16 -22 9.33 0.62
-12 -16 22 -0.16 0.12
12 16 -22 -0.05 0.16
-12 16 22 0.16 0.25
-10 -16 22 1.05 0.19
10 16 -22 0.94 0.24
-10 16 22 0.64 0.28
-8 -16 22 -0.03 0.13
-8 16 22 0.17 0.2
8 16 -22 0.16 0.17
-6 -16 22 18.58 1.08
-6 -16 22 19.98 0.99
6 16 -22 18.96 1.04
-6 16 22 20.12 1.01
-6 16 22 17.56 1.05
-4 -16 22 0.41 0.22
-4 -16 22 0.16 0.15
-4 16 22 0.32 0.24
4 16 -22 0.07 0.17
-4 16 22 -0.18 0.13
-2 -16 22 59.76 2.73
-2 -16 22 60.66 2.77
-2 16 22 60.12 2.71
2 16 -22 59.76 2.78
-2 16 22 62.81 2.77
0 -16 22 0.17 0.16
0 -16 22 0.55 0.25
0 16 22 0.41 0.17
0 16 22 0.38 0.23
0 16 -22 0.27 0.18
2 -16 22 59.32 2.72
2 -16 22 58.69 2.72
-2 16 -22 56.86 2.72
-2 16 -22 59.58 2.89
2 16 22 61.21 2.68
2 16 22 63.46 2.75
4 -16 22 0.1 0.12
4 -16 22 0.19 0.23
4 16 22 0.25 0.16
-4 16 -22 0.16 0.16
-4 16 -22 0.1 0.21
4 16 22 -0.05 0.2
6 -16 22 18.96 0.97
6 -16 22 18.94 1.13
-6 16 -22 18.48 1.01
6 16 22 20.42 1.03
-6 16 -22 19.2 1.14
8 -16 22 -0.12 0.24
8 -16 22 0.05 0.13
8 16 22 0.06 0.14
-8 16 -22 -0.04 0.13
-8 16 -22 -0.1 0.18
10 -16 22 0.74 0.16
10 -16 22 0.93 0.31
-10 16 -22 0.62 0.24
-10 16 -22 0.91 0.21
10 16 22 0.79 0.21
12 -16 22 0.07 0.12
12 -16 22 -0.24 0.26
12 16 22 -0.05 0.16
-12 16 -22 -0.28 0.19
14 -16 22 7.52 0.72
14 -16 22 7.41 0.48
14 16 22 8.07 0.58
-14 16 -22 8.41 0.68
16 -16 22 0.27 0.14
16 -16 22 0.3 0.27
-16 16 -22 0.19 0.22
16 16 22 0.12 0.18
18 -16 22 18.35 0.95
18 -16 22 19.76 1.22
18 16 22 18.96 1.05
-18 16 -22 17.35 1.12
20 -16 22 0.33 0.3
20 -16 22 0.16 0.15
-20 16 -22 -0.03 0.21
20 16 22 0.16 0.19
22 -16 22 8.35 0.53
22 16 22 8.54 0.64
24 -16 22 0.01 0.15
-24 16 -22 0.06 0.18
24 16 22 -0.25 0.18
26 -16 22 0.01 0.15
-26 16 -22 0.14 0.2
28 -16 22 -0.14 0.15
30 -16 22 2.21 0.26
-32 16 -22 0.13 0.13
-34 16 -22 8.81 0.53
-36 16 -22 0.21 0.13
-38 -18 22 0.18 0.16
-36 -18 22 2.99 0.29
-34 -18 22 0.42 0.19
-32 -18 22 1.31 0.24
-30 -18 22 -0.15 0.17
-28 -18 22 -0.27 0.16
-26 -18 22 -0.15 0.16
-24 -18 22 5.69 0.47
24 18 -22 5.86 0.53
-22 -18 22 0.09 0.17
22 18 -22 0.13 0.2
-20 -18 22 27.24 1.37
20 18 -22 27.89 1.43
-18 -18 22 0.45 0.17
-18 18 22 0.37 0.3
18 18 -22 0.04 0.17
-16 -18 22 21.06 1.08
16 18 -22 22.88 1.16
-16 18 22 18.77 1.2
-14 -18 22 -0.15 0.13
14 18 -22 -0.16 0.17
-14 18 22 -0.06 0.23
-12 -18 22 2.33 0.26
12 18 -22 2.59 0.35
-12 18 22 1.84 0.38
-10 -18 22 -0.08 0.12
-10 18 22 0.23 0.22
10 18 -22 -0.15 0.15
-8 -18 22 6.68 0.47
8 18 -22 6.76 0.54
-8 18 22 6.75 0.58
-6 -18 22 0.24 0.15
-6 18 22 0.2 0.23
6 18 -22 0.09 0.18
-6 18 22 0.09 0.15
-4 -18 22 43.25 1.97
-4 -18 22 38.79 1.97
-4 18 22 42.76 1.98
-4 18 22 41.47 1.96
4 18 -22 41.23 2
-2 -18 22 0.76 0.26
-2 -18 22 0.64 0.18
-2 18 22 0.23 0.18
-2 18 22 0.83 0.25
2 18 -22 -0.04 0.18
0 -18 22 84.92 3.82
0 -18 22 85.45 3.94
0 18 22 91.81 3.8
0 18 -22 85.23 3.93
0 18 22 91.21 3.93
2 -18 22 0.8 0.26
2 -18 22 0.55 0.18
2 18 22 0.36 0.18
-2 18 -22 0.39 0.19
-2 18 -22 0.22 0.24
2 18 22 0.37 0.24
4 -18 22 40.77 1.94
4 -18 22 38.45 1.99
-4 18 -22 40.92 1.96
-4 18 -22 40.88 2.11
4 18 22 45.1 1.98
6 -18 22 0 0.15
6 -18 22 0.54 0.24
-6 18 -22 0.24 0.16
-6 18 -22 0.36 0.22
6 18 22 0.14 0.15
8 -18 22 6.61 0.46
8 -18 22 5.97 0.66
-8 18 -22 6.09 0.49
8 18 22 7.25 0.51
-8 18 -22 7.48 0.63
10 -18 22 0.08 0.26
10 -18 22 -0.03 0.12
-10 18 -22 -0.2 0.17
10 18 22 0.1 0.16
12 -18 22 1.82 0.39
12 -18 22 1.85 0.23
12 18 22 2.05 0.3
-12 18 -22 1.69 0.35
14 -18 22 -0.28 0.22
14 -18 22 0.15 0.13
-14 18 -22 -0.04 0.21
14 18 22 0 0.16
16 -18 22 18.27 1.17
16 -18 22 17.96 0.95
-16 18 -22 19 1.15
16 18 22 18.97 1.05
18 -18 22 -0.25 0.24
18 -18 22 0.39 0.16
18 18 22 -0.06 0.17
-18 18 -22 -0.03 0.21
20 -18 22 21.73 1.08
20 18 22 21.63 1.18
-20 18 -22 19.45 1.26
22 -18 22 0.22 0.16
22 18 22 -0.03 0.19
24 -18 22 4.73 0.41
-24 18 -22 5.49 0.53
24 18 22 4.41 0.49
26 -18 22 -0.09 0.15
28 -18 22 -0.08 0.15
30 -18 22 -0.09 0.15
-32 18 -22 1.69 0.21
-34 18 -22 0.04 0.13
-36 18 -22 4.22 0.35
-38 -20 22 3.6 0.33
-36 -20 22 0.15 0.16
-34 -20 22 3.97 0.4
-32 -20 22 -0.2 0.16
-30 -20 22 0.9 0.21
-28 -20 22 -0.33 0.15
-26 -20 22 0.66 0.2
-24 -20 22 0.19 0.16
24 20 -22 0.19 0.19
-22 -20 22 13.17 0.76
22 20 -22 12.91 0.83
-20 -20 22 0.41 0.18
20 20 -22 0.35 0.2
-18 -20 22 25.43 1.31
18 20 -22 27.03 1.38
-16 -20 22 0.27 0.17
16 20 -22 0.16 0.2
-14 -20 22 9.91 0.61
14 20 -22 10.25 0.68
-14 20 22 8.33 0.75
-12 -20 22 0.02 0.15
-12 20 22 0.03 0.26
12 20 -22 0.01 0.16
-10 -20 22 0.32 0.16
10 20 -22 0.3 0.19
-10 20 22 0.54 0.27
-8 -20 22 -0.04 0.14
8 20 -22 -0.22 0.15
-8 20 22 -0.19 0.2
-6 -20 22 28.39 1.38
6 20 -22 27.1 1.42
-6 20 22 27.7 1.45
-6 20 22 27.97 1.39
-4 -20 22 0.18 0.15
-4 -20 22 0.38 0.26
4 20 -22 -0.03 0.18
-4 20 22 -0.12 0.17
-4 20 22 0.11 0.21
-2 -20 22 85.88 3.98
-2 -20 22 97.21 4.15
2 20 -22 90.67 4.12
-2 20 22 93.11 4.11
-2 20 22 90.85 3.96
0 -20 22 0.4 0.19
0 -20 22 0.69 0.27
0 20 22 0.05 0.19
0 20 22 0.95 0.29
0 20 -22 0.12 0.2
2 -20 22 87.04 3.85
2 -20 22 89.45 3.95
-2 20 -22 81.55 4.09
2 20 22 93.65 3.94
-2 20 -22 85.64 3.93
4 -20 22 0.37 0.26
4 -20 22 -0.03 0.16
-4 20 -22 0.42 0.24
4 20 22 0.28 0.17
-4 20 -22 -0.33 0.15
6 -20 22 24.67 1.41
6 -20 22 26.52 1.3
-6 20 -22 25.29 1.45
-6 20 -22 25.07 1.32
6 20 22 27.66 1.34
8 -20 22 -0.07 0.14
8 -20 22 0.17 0.25
-8 20 -22 0.22 0.22
-8 20 -22 0.01 0.15
8 20 22 -0.14 0.13
10 -20 22 0.09 0.14
10 -20 22 0.31 0.25
10 20 22 0.07 0.16
-10 20 -22 0.44 0.23
12 -20 22 0.08 0.14
12 -20 22 -0.1 0.2
12 20 22 -0.04 0.16
-12 20 -22 -0.11 0.21
14 -20 22 9.1 0.55
14 -20 22 8.89 0.75
-14 20 -22 8.07 0.72
14 20 22 8.24 0.63
16 -20 22 0.48 0.17
16 20 22 0.14 0.19
-16 20 -22 -0.17 0.22
18 -20 22 22.71 1.14
18 20 22 21.9 1.22
-18 20 -22 21.5 1.32
20 -20 22 0.71 0.19
20 20 22 0.28 0.21
22 -20 22 11.93 0.69
22 20 22 11.27 0.78
24 -20 22 -0.04 0.15
24 20 22 0.21 0.2
26 -20 22 0.46 0.18
28 -20 22 -0.05 0.15
30 -20 22 1.17 0.21
32 -20 22 -0.01 0.16
-32 20 -22 -0.18 0.13
-34 20 -22 4.65 0.38
-36 20 -22 0.08 0.13
-36 -22 22 1.67 0.23
-34 -22 22 -0.15 0.16
-32 -22 22 0.94 0.22
-30 -22 22 -0.23 0.17
-28 -22 22 -0.34 0.16
-26 -22 22 -0.13 0.16
-24 -22 22 2.55 0.3
-22 -22 22 0.15 0.18
22 22 -22 0.12 0.2
-20 -22 22 14.02 0.8
20 22 -22 13.95 0.87
-18 -22 22 0 0.16
18 22 -22 0.11 0.19
-16 -22 22 9.48 0.63
16 22 -22 10.17 0.69
-14 -22 22 -0.05 0.16
14 22 -22 -0.1 0.17
-12 -22 22 -0.12 0.14
-12 22 22 0.27 0.29
12 22 -22 0.15 0.19
-10 -22 22 -0.21 0.14
-10 22 22 -0.18 0.23
10 22 -22 -0.06 0.17
-8 -22 22 5.83 0.46
-8 22 22 5.41 0.55
8 22 -22 5.48 0.52
-6 -22 22 0.27 0.17
6 22 -22 0.14 0.18
-6 22 22 0.32 0.25
-6 22 22 -0.09 0.15
-4 -22 22 25.76 1.24
-4 22 22 23.23 1.29
4 22 -22 24.03 1.29
-4 22 22 24.09 1.26
-2 -22 22 0.68 0.2
-2 -22 22 0.99 0.34
-2 22 22 1.01 0.3
2 22 -22 0.08 0.2
-2 22 22 0.28 0.2
0 -22 22 53.48 2.37
0 -22 22 49.54 2.37
0 22 22 54.46 2.39
0 22 -22 48.15 2.38
0 22 -22 46.16 2.5
2 -22 22 0.45 0.26
2 -22 22 0.53 0.2
-2 22 -22 0.15 0.2
-2 22 -22 0.4 0.26
4 -22 22 23.24 1.33
4 -22 22 24.9 1.22
4 22 22 24.51 1.25
-4 22 -22 23.89 1.38
-4 22 -22 22.68 1.25
6 -22 22 -0.17 0.16
6 -22 22 0.5 0.26
-6 22 -22 0.01 0.15
-6 22 -22 0.16 0.22
6 22 22 0.22 0.16
8 -22 22 5.11 0.43
8 -22 22 4.77 0.6
-8 22 -22 4.97 0.46
-8 22 -22 5.37 0.57
8 22 22 5.36 0.47
10 -22 22 -0.24 0.13
10 -22 22 -0.08 0.24
10 22 22 -0.17 0.14
-10 22 -22 0.09 0.22
12 -22 22 0.29 0.27
12 -22 22 0.13 0.15
-12 22 -22 0.06 0.22
12 22 22 0.24 0.19
14 -22 22 0.05 0.15
14 22 22 -0.08 0.16
-14 22 -22 -0.06 0.2
16 -22 22 9.31 0.6
16 22 22 8.67 0.66
18 -22 22 0.26 0.18
18 22 22 0.11 0.2
20 -22 22 12.3 0.7
20 22 22 10.82 0.78
22 -22 22 0.01 0.16
22 22 22 -0.02 0.19
24 -22 22 1.75 0.25
26 -22 22 -0.02 0.16
28 -22 22 -0.16 0.15
30 -22 22 -0.23 0.15
32 -22 22 0.93 0.2
-32 22 -22 0.69 0.18
-34 22 -22 -0.21 0.13
-36 22 -22 2.29 0.22
-34 -24 22 1.02 0.2
-32 -24 22 -0.15 0.16
-30 -24 22 0.71 0.21
-28 -24 22 -0.1 0.17
-26 -24 22 -0.21 0.16
-24 -24 22 0 0.17
-22 -24 22 2.56 0.3
-20 -24 22 0.16 0.17
20 24 -22 -0.1 0.18
-18 -24 22 5.54 0.47
18 24 -22 5.42 0.51
-16 -24 22 -0.02 0.16
16 24 -22 0.14 0.2
-14 -24 22 0.87 0.22
14 24 -22 0.92 0.25
-12 -24 22 -0.18 0.15
12 24 -22 -0.23 0.16
-10 -24 22 0.33 0.18
10 24 -22 0.43 0.21
-8 -24 22 -0.11 0.15
-8 24 22 -0.19 0.2
8 24 -22 -0.02 0.18
-6 -24 22 8.94 0.58
6 24 -22 9.04 0.66
-6 24 22 8.95 0.73
-6 24 22 9.55 0.63
-4 -24 22 0.16 0.16
-4 24 22 -0.16 0.16
4 24 -22 -0.2 0.18
-4 24 22 0.26 0.25
-2 -24 22 35.44 1.73
2 24 -22 36.37 1.78
-2 24 22 35.14 1.75
0 -24 22 0.55 0.2
0 24 22 0.16 0.19
0 24 -22 0.11 0.25
0 24 -22 0.36 0.21
2 -24 22 35.72 1.68
2 -24 22 32.41 1.75
-2 24 -22 32.37 1.83
-2 24 -22 35.76 1.71
2 24 22 34.24 1.69
4 -24 22 0.2 0.25
4 -24 22 -0.03 0.17
-4 24 -22 -0.1 0.17
-4 24 -22 -0.04 0.2
4 24 22 0.41 0.19
6 -24 22 7.09 0.72
6 -24 22 8.75 0.59
-6 24 -22 9.36 0.63
6 24 22 9.25 0.62
-6 24 -22 9.39 0.74
8 -24 22 -0.2 0.15
8 -24 22 0.16 0.24
-8 24 -22 -0.14 0.15
8 24 22 0.02 0.16
-8 24 -22 -0.04 0.21
10 -24 22 -0.09 0.16
10 24 22 0.26 0.19
-10 24 -22 0.04 0.22
12 -24 22 -0.27 0.15
-12 24 -22 -0.22 0.22
12 24 22 0.1 0.17
14 -24 22 0.78 0.21
14 24 22 0.93 0.26
16 -24 22 0.09 0.19
16 24 22 -0.06 0.18
18 -24 22 4.87 0.45
18 24 22 4.8 0.51
20 -24 22 -0.01 0.17
20 24 22 0.04 0.21
22 -24 22 1.82 0.26
24 -24 22 -0.29 0.16
26 -24 22 -0.19 0.16
28 -24 22 -0.03 0.17
30 -24 22 0.59 0.19
32 -24 22 -0.2 0.15
-32 24 -22 -0.27 0.12
-34 24 -22 1.23 0.18
-34 -26 22 -0.05 0.14
-32 -26 22 0.07 0.17
-30 -26 22 -0.09 0.17
-28 -26 22 -0.04 0.17
-26 -26 22 0.06 0.18
-24 -26 22 -0.04 0.17
-22 -26 22 -0.18 0.16
-20 -26 22 0.76 0.21
-18 -26 22 0.13 0.17
-16 -26 22 0.22 0.18
16 26 -22 0.15 0.19
-14 -26 22 -0.07 0.16
14 26 -22 -0.1 0.18
-12 -26 22 0.18 0.18
12 26 -22 0.18 0.2
-10 -26 22 0.31 0.18
10 26 -22 -0.13 0.19
-8 -26 22 2.27 0.29
8 26 -22 2.3 0.35
-6 -26 22 -0.06 0.17
6 26 -22 -0.08 0.18
-6 26 22 -0.15 0.16
-4 -26 22 6.34 0.51
-4 26 22 6.21 0.51
4 26 -22 5.7 0.54
-2 -26 22 0.29 0.19
2 26 -22 -0.1 0.18
-2 26 22 0 0.17
0 -26 22 14.25 0.79
0 26 -22 11.76 0.9
0 26 -22 11.79 0.81
0 26 22 13.4 0.81
2 -26 22 0.1 0.18
-2 26 -22 0.02 0.22
2 26 22 0.25 0.18
-2 26 -22 -0.21 0.16
4 -26 22 7.17 0.78
4 -26 22 6.58 0.52
-4 26 -22 5.59 0.61
4 26 22 6.2 0.51
-4 26 -22 5.28 0.5
6 -26 22 -0.14 0.17
-6 26 -22 0.07 0.22
-6 26 -22 -0.29 0.16
6 26 22 0.01 0.17
8 -26 22 1.71 0.27
8 26 22 2.26 0.33
-8 26 -22 2.15 0.33
10 -26 22 0.08 0.19
10 26 22 -0.03 0.17
12 -26 22 0.28 0.19
12 26 22 0 0.18
14 -26 22 -0.19 0.18
14 26 22 -0.05 0.17
16 -26 22 0.14 0.21
16 26 22 0.47 0.23
18 -26 22 -0.18 0.18
20 -26 22 0.34 0.21
22 -26 22 -0.22 0.18
24 -26 22 -0.03 0.17
26 -26 22 -0.06 0.16
28 -26 22 0.05 0.17
30 -26 22 0.03 0.16
-32 26 -22 -0.17 0.12
-32 -28 22 -0.05 0.15
-30 -28 22 -0.06 0.16
-28 -28 22 -0.11 0.17
-26 -28 22 -0.04 0.18
-24 -28 22 -0.18 0.16
-22 -28 22 0.02 0.17
-20 -28 22 -0.16 0.16
-18 -28 22 -0.06 0.17
-16 -28 22 -0.08 0.17
-14 -28 22 -0.03 0.17
14 28 -22 -0.12 0.19
-12 -28 22 0.07 0.17
12 28 -22 -0.01 0.18
-10 -28 22 0.28 0.19
10 28 -22 0.65 0.25
-8 -28 22 0.01 0.18
8 28 -22 0.12 0.2
-6 -28 22 1.32 0.25
6 28 -22 1.2 0.28
-6 28 22 1.22 0.25
-4 -28 22 -0.16 0.17
-4 28 22 -0.14 0.15
4 28 -22 0.2 0.19
-2 -28 22 0.15 0.18
-2 28 22 0.02 0.16
2 28 -22 0.01 0.18
0 -28 22 0.17 0.19
0 28 22 0.03 0.18
0 28 -22 -0.06 0.18
2 -28 22 -0.04 0.2
-2 28 -22 0.12 0.2
2 28 22 -0.01 0.17
4 -28 22 0.13 0.19
-4 28 -22 -0.27 0.16
4 28 22 0.06 0.17
6 -28 22 1.28 0.25
6 28 22 1.54 0.28
-6 28 -22 1.19 0.27
8 -28 22 -0.26 0.18
8 28 22 0.17 0.18
-8 28 -22 -0.16 0.16
10 -28 22 0.35 0.2
-10 28 -22 0.13 0.19
10 28 22 0.32 0.2
12 -28 22 0.11 0.2
-12 28 -22 -0.08 0.19
12 28 22 0.3 0.21
14 -28 22 -0.02 0.19
14 28 22 0.04 0.19
16 -28 22 -0.18 0.19
18 -28 22 -0.46 0.18
20 -28 22 -0.33 0.18
22 -28 22 -0.24 0.18
24 -28 22 -0.16 0.17
26 -28 22 -0.09 0.17
28 -28 22 -0.1 0.16
30 -28 22 -0.05 0.16
-32 28 -22 -0.09 0.11
-30 -30 22 -0.08 0.14
-28 -30 22 -0.05 0.16
-26 -30 22 -0.28 0.15
-24 -30 22 0.41 0.2
-22 -30 22 0.07 0.18
-20 -30 22 1.12 0.23
-18 -30 22 -0.03 0.17
-16 -30 22 2.05 0.28
-14 -30 22 -0.12 0.18
-12 -30 22 1.18 0.24
-10 -30 22 0.12 0.19
-8 -30 22 -0.1 0.19
8 30 -22 -0.2 0.2
-6 -30 22 0.14 0.19
6 30 -22 0.02 0.2
-6 30 22 0.07 0.18
-4 -30 22 1.04 0.24
-4 30 22 1.19 0.26
4 30 -22 1.5 0.31
-2 -30 22 0.02 0.19
-2 30 22 -0.16 0.17
2 30 -22 0.17 0.22
0 -30 22 0.79 0.25
0 30 22 1.26 0.28
0 30 -22 1.58 0.31
2 -30 22 0.04 0.2
2 30 22 -0.02 0.19
4 -30 22 0.93 0.24
4 30 22 1 0.27
6 -30 22 -0.06 0.19
6 30 22 0.05 0.18
-6 30 -22 0.05 0.19
8 -30 22 -0.05 0.2
8 30 22 0.11 0.19
-8 30 -22 0.06 0.19
10 -30 22 0.19 0.2
12 -30 22 0.63 0.23
14 -30 22 0.33 0.21
16 -30 22 2.22 0.3
18 -30 22 -0.03 0.19
20 -30 22 1.14 0.24
22 -30 22 -0.04 0.19
24 -30 22 0.46 0.2
26 -30 22 -0.23 0.16
28 -30 22 -0.01 0.16
30 -30 22 -0.25 0.14
-28 -32 22 -0.05 0.15
-26 -32 22 0.11 0.16
-24 -32 22 -0.21 0.16
-22 -32 22 1.04 0.23
-20 -32 22 -0.01 0.18
-18 -32 22 1.51 0.26
-16 -32 22 0.2 0.19
-14 -32 22 1.97 0.28
-12 -32 22 -0.07 0.18
-10 -32 22 0.04 0.19
-8 -32 22 -0.12 0.19
-6 -32 22 0.9 0.23
-4 -32 22 0.03 0.19
-2 -32 22 1.43 0.27
0 -32 22 -0.17 0.19
2 -32 22 1.32 0.26
4 -32 22 -0.24 0.19
6 -32 22 0.47 0.22
8 -32 22 -0.12 0.19
10 -32 22 0.04 0.2
12 -32 22 -0.03 0.2
14 -32 22 2.1 0.29
16 -32 22 -0.02 0.19
18 -32 22 1.19 0.25
20 -32 22 -0.08 0.18
22 -32 22 0.69 0.21
24 -32 22 -0.14 0.17
26 -32 22 -0.12 0.16
28 -32 22 -0.19 0.14
-24 -34 22 1.11 0.2
-22 -34 22 0.03 0.16
-20 -34 22 4.69 0.42
-18 -34 22 0.2 0.18
-16 -34 22 8.14 0.57
-14 -34 22 0.28 0.19
-12 -34 22 4.61 0.46
-10 -34 22 0.12 0.19
-8 -34 22 -0.05 0.19
-6 -34 22 0.06 0.2
-4 -34 22 1.92 0.29
-2 -34 22 0.15 0.19
0 -34 22 2.17 0.3
2 -34 22 0.09 0.19
4 -34 22 1.7 0.28
6 -34 22 -0.17 0.18
8 -34 22 -0.08 0.19
10 -34 22 0.17 0.2
12 -34 22 4.61 0.47
14 -34 22 0.35 0.21
16 -34 22 8.93 0.61
18 -34 22 0.29 0.18
20 -34 22 5.58 0.47
22 -34 22 0.15 0.17
24 -34 22 1.13 0.21
26 -34 22 -0.17 0.14
-22 -36 22 1.75 0.22
-20 -36 22 0.28 0.16
-18 -36 22 3.63 0.37
-16 -36 22 0.22 0.17
-14 -36 22 2.68 0.29
-12 -36 22 -0.19 0.17
-10 -36 22 0.15 0.19
-8 -36 22 -0.07 0.18
-6 -36 22 0.93 0.22
-4 -36 22 0.06 0.19
-2 -36 22 4.62 0.44
0 -36 22 0.25 0.2
2 -36 22 4.28 0.46
4 -36 22 0.29 0.2
6 -36 22 1.25 0.24
8 -36 22 -0.18 0.17
10 -36 22 0.14 0.19
12 -36 22 -0.01 0.18
14 -36 22 2.02 0.26
16 -36 22 0.31 0.19
18 -36 22 2.68 0.29
20 -36 22 0.08 0.16
22 -36 22 1.48 0.21
-18 -38 22 0.32 0.16
-16 -38 22 5.58 0.43
-14 -38 22 0.43 0.18
-12 -38 22 2.11 0.26
-10 -38 22 0.16 0.17
-8 -38 22 -0.05 0.16
-6 -38 22 -0.01 0.17
-4 -38 22 3.02 0.31
-2 -38 22 0.18 0.18
0 -38 22 4.67 0.44
2 -38 22 0.23 0.18
4 -38 22 2.25 0.28
6 -38 22 0.01 0.18
8 -38 22 -0.1 0.17
10 -38 22 -0.01 0.17
12 -38 22 1.81 0.24
14 -38 22 0.18 0.17
16 -38 22 5.13 0.42
18 -38 22 0.23 0.16
20 -38 22 3.58 0.33
-14 -40 22 0.6 0.17
-12 -40 22 -0.06 0.14
-10 -40 22 -0.03 0.14
-8 -40 22 -0.11 0.15
-6 -40 22 1.38 0.22
-4 -40 22 0.05 0.16
-2 -40 22 3.62 0.38
0 -40 22 0.35 0.17
2 -40 22 3.37 0.36
4 -40 22 -0.05 0.16
6 -40 22 0.95 0.2
8 -40 22 0.03 0.16
10 -40 22 -0.19 0.14
12 -40 22 -0.05 0.14
14 -40 22 0.65 0.17
-6 -42 22 -0.13 0.13
-4 -42 22 0.97 0.17
-2 -42 22 0.14 0.14
0 -42 22 1.35 0.19
2 -42 22 -0.02 0.14
4 -42 22 0.71 0.17
6 -42 22 0.1 0.14
8 -42 22 0.05 0.14
-41 -1 23 -0.03 0.13
-41 1 23 -0.04 0.13
-39 -1 23 0.14 0.15
-39 1 23 0.18 0.15
-37 -1 23 0.09 0.16
-37 1 23 0.01 0.15
-35 -1 23 0 0.16
-35 1 23 0.12 0.16
-33 -1 23 -0.05 0.16
-33 1 23 -0.03 0.15
-31 -1 23 0.03 0.14
-31 1 23 0.15 0.14
-29 -1 23 0.24 0.15
-29 1 23 0.14 0.13
-27 -1 23 0.24 0.14
-27 1 23 0.32 0.14
-25 -1 23 0.13 0.13
-25 1 23 0.19 0.13
-23 -1 23 0.23 0.14
-23 1 23 0.27 0.14
-21 -1 23 0.05 0.13
-21 1 23 0.27 0.13
-19 -1 23 0.19 0.13
-19 -1 23 -0.08 0.23
-19 1 23 0.47 0.27
-17 -1 23 -0.01 0.21
-17 1 23 0.28 0.22
-15 -1 23 -0.04 0.21
-15 1 23 -0.25 0.19
-13 -1 23 0.24 0.21
-13 1 23 -0.08 0.2
-11 -1 23 0.4 0.24
-11 1 23 0.43 0.23
-9 -1 23 0.28 0.21
-9 1 23 0.28 0.2
-7 -1 23 -0.03 0.17
-7 1 23 0.35 0.2
-5 -1 23 0.03 0.19
5 1 -23 0.15 0.1
-5 1 23 -0.22 0.15
-3 -1 23 0.22 0.18
-3 1 23 -0.25 0.14
3 1 -23 -0.02 0.09
-1 -1 23 -0.06 0.17
1 1 -23 -0.11 0.09
-1 1 23 -0.08 0.17
1 -1 23 -0.07 0.17
1 1 23 -0.05 0.19
-1 1 -23 -0.11 0.1
3 -1 23 0 0.18
-3 1 -23 0.13 0.11
3 1 23 -0.04 0.17
5 -1 23 0.1 0.22
-5 1 -23 -0.02 0.11
5 1 23 -0.14 0.19
7 -1 23 0.26 0.21
-7 1 -23 0.14 0.12
7 1 23 0.12 0.19
9 -1 23 0.22 0.21
9 1 23 0.05 0.18
-9 1 -23 0.3 0.14
11 -1 23 0.11 0.23
11 1 23 0.3 0.21
13 -1 23 0.16 0.23
13 1 23 0.03 0.2
15 -1 23 -0.08 0.21
15 1 23 -0.07 0.22
17 -1 23 -0.01 0.25
17 1 23 0.04 0.23
-41 -3 23 -0.14 0.14
-41 3 23 0 0.12
-39 -3 23 0.01 0.15
-39 3 23 0.1 0.14
-37 -3 23 -0.16 0.15
-37 3 23 0.16 0.16
-35 -3 23 -0.01 0.15
-35 3 23 -0.03 0.15
-33 -3 23 0.32 0.17
-33 3 23 0.09 0.16
-31 -3 23 0.62 0.19
-31 3 23 0.72 0.18
-29 -3 23 1.03 0.2
-29 3 23 1.31 0.2
-27 -3 23 0.73 0.17
-27 3 23 0.67 0.16
-25 -3 23 0.77 0.17
-25 3 23 0.99 0.17
-23 -3 23 -0.33 0.12
-21 -3 23 0.04 0.12
-21 3 23 -0.11 0.2
-19 -3 23 1.01 0.17
-19 3 23 1.28 0.31
-17 -3 23 1.95 0.37
-17 -3 23 1.68 0.19
-17 3 23 1.84 0.36
-15 -3 23 5.27 0.53
-15 3 23 5.49 0.51
-13 -3 23 5.93 0.55
-13 3 23 6.29 0.53
-11 -3 23 11.44 0.74
-11 3 23 10.63 0.71
11 3 -23 9.96 0.58
-9 -3 23 5.64 0.5
-9 3 23 6.15 0.51
9 3 -23 5.32 0.37
-7 -3 23 9.18 0.65
7 3 -23 7.71 0.48
-7 3 23 8.49 0.62
-5 -3 23 4.18 0.46
-5 3 23 3.29 0.41
5 3 -23 4.02 0.31
-3 -3 23 1.51 0.29
-3 3 23 1.76 0.31
3 3 -23 1.78 0.22
-1 -3 23 0.19 0.19
-1 3 23 0.01 0.16
1 3 -23 0.12 0.12
1 -3 23 0.07 0.19
1 3 23 -0.05 0.19
-1 3 -23 0.09 0.12
3 -3 23 1.78 0.32
3 3 23 1.16 0.29
-3 3 -23 1.95 0.23
5 -3 23 3.38 0.44
-5 3 -23 3.87 0.32
5 3 23 3.27 0.43
7 -3 23 8.48 0.65
7 3 23 8.09 0.62
-7 3 -23 7.78 0.5
9 -3 23 6.43 0.55
9 3 23 5.57 0.55
-9 3 -23 5.34 0.4
11 -3 23 10.37 0.76
-11 3 -23 10.08 0.6
11 3 23 9.9 0.73
13 -3 23 6.04 0.6
13 3 23 6.51 0.59
-13 3 -23 6.11 0.44
15 -3 23 5.99 0.58
-15 3 -23 5.67 0.43
15 3 23 5.23 0.59
17 -3 23 2.25 0.43
19 -3 23 1.12 0.35
-41 -5 23 -0.17 0.14
-39 -5 23 0.08 0.16
-39 5 23 0.21 0.14
-37 -5 23 -0.22 0.16
-37 5 23 0 0.14
-35 -5 23 -0.04 0.15
-35 5 23 0.01 0.14
-33 -5 23 1.04 0.21
-33 5 23 1.4 0.21
-31 -5 23 1.33 0.21
-31 5 23 1.65 0.21
-29 -5 23 3.54 0.36
-29 5 23 4.3 0.36
-27 -5 23 0.98 0.18
-25 -5 23 1.9 0.23
-23 -5 23 0.65 0.16
-23 5 23 1.18 0.33
-21 -5 23 0.82 0.17
-21 5 23 1.3 0.32
-19 5 23 0.32 0.24
-17 -5 23 0.45 0.14
-17 5 23 0.55 0.24
-15 -5 23 5.73 0.4
-15 -5 23 6.55 0.58
15 5 -23 6.77 0.44
-15 5 23 6.87 0.58
-13 -5 23 8.76 0.66
13 5 -23 8.19 0.52
-13 5 23 9.02 0.64
-11 -5 23 18.23 1.03
11 5 -23 18.07 0.93
-11 5 23 18.93 1.03
-9 -5 23 10.88 0.73
9 5 -23 10.13 0.59
-9 5 23 9.95 0.71
-7 -5 23 12.71 0.79
-7 5 23 11.96 0.76
7 5 -23 12.17 0.68
-5 -5 23 5.95 0.51
-5 5 23 6.05 0.51
5 5 -23 5.44 0.4
-3 -5 23 4.39 0.45
-3 5 23 4.87 0.45
3 5 -23 4.32 0.36
-1 -5 23 -0.1 0.19
-1 5 23 0.16 0.17
1 5 -23 0.09 0.13
1 5 -23 0.1 0.14
1 -5 23 0.14 0.18
-1 5 -23 0.08 0.13
1 5 23 0.08 0.18
-1 5 -23 0.12 0.13
3 -5 23 4.15 0.48
-3 5 -23 4.08 0.42
-3 5 -23 4.14 0.34
3 5 23 4.56 0.45
5 -5 23 6.22 0.56
5 5 23 5.2 0.5
5 5 23 5.63 0.4
-5 5 -23 5.05 0.4
7 -5 23 12.26 0.81
-7 5 -23 11.91 0.69
7 5 23 12.72 0.81
7 5 23 12.88 0.7
9 -5 23 10.73 0.76
-9 5 -23 9.86 0.59
9 5 23 9.6 0.71
9 5 23 10.44 0.61
11 -5 23 17.63 1.05
-11 5 -23 16.8 0.91
11 5 23 18.4 0.93
11 5 23 17.04 1.04
13 -5 23 7.82 0.67
-13 5 -23 8.1 0.52
13 5 23 8.55 0.54
13 5 23 7.21 0.61
15 -5 23 5.95 0.6
-15 5 -23 6.51 0.46
17 -5 23 0.53 0.3
-17 5 -23 0.37 0.16
19 -5 23 -0.04 0.24
-19 5 -23 -0.05 0.14
21 -5 23 1.2 0.38
-41 -7 23 -0.02 0.15
-39 -7 23 0.02 0.16
-37 -7 23 -0.1 0.16
-35 -7 23 0.07 0.17
-33 -7 23 1.91 0.25
-31 -7 23 3.53 0.36
-29 -7 23 6.4 0.48
-27 -7 23 3.3 0.34
-25 -7 23 5.05 0.4
-23 -7 23 0.37 0.14
-23 7 23 1.05 0.33
-21 -7 23 0.18 0.14
-21 7 23 0.4 0.24
-19 -7 23 1.21 0.19
-19 7 23 1.53 0.34
-17 -7 23 3.02 0.3
17 7 -23 3.59 0.37
-17 7 23 3.38 0.43
-15 -7 23 15.26 0.84
-15 -7 23 17.28 1.01
-15 7 23 16.82 0.99
15 7 -23 18.83 0.92
-13 -7 23 23.9 1.18
-13 -7 23 24.82 1.28
13 7 -23 26.06 1.22
-13 7 23 23.11 1.27
-11 -7 23 49.32 2.25
11 7 -23 49.11 2.24
-11 7 23 47.94 2.24
-9 -7 23 28.94 1.45
-9 7 23 28.62 1.43
9 7 -23 28.19 1.38
-7 -7 23 32.08 1.57
-7 7 23 31.37 1.55
7 7 -23 31.76 1.52
-5 -7 23 12.91 0.84
-5 7 23 13.41 0.82
5 7 -23 13.33 0.75
-3 -7 23 8.33 0.63
3 7 -23 7.76 0.58
-3 7 23 8.58 0.61
3 7 -23 7.67 0.51
-1 -7 23 0.11 0.21
1 7 -23 0.04 0.15
1 7 -23 0.17 0.13
-1 7 23 0.27 0.22
1 -7 23 0.25 0.19
1 7 23 0.05 0.12
-1 7 -23 0.18 0.16
1 7 23 0.09 0.21
-1 7 -23 0.35 0.14
3 -7 23 8.56 0.63
-3 7 -23 8.23 0.61
3 7 23 8.37 0.52
3 7 23 9.05 0.63
-3 7 -23 7.69 0.52
5 -7 23 12.55 0.82
5 7 23 13.43 0.83
-5 7 -23 13.02 0.82
5 7 23 12.96 0.71
-5 7 -23 11.7 0.7
7 -7 23 28.69 1.54
-7 7 -23 30.18 1.46
7 7 23 31.52 1.47
7 7 23 30.82 1.53
-7 7 -23 30.41 1.59
9 -7 23 28.04 1.45
9 7 23 26.09 1.39
-9 7 -23 24.99 1.3
-9 7 -23 26.95 1.44
9 7 23 27.83 1.32
11 -7 23 45.3 2.18
11 7 23 46.69 2.11
11 7 23 43.97 2.13
-11 7 -23 44.72 2.09
13 -7 23 23.87 1.32
13 7 23 23.51 1.19
-13 7 -23 22.71 1.17
15 -7 23 14.94 1.04
15 7 23 17.06 0.9
-15 7 -23 15.82 0.87
17 -7 23 2.87 0.48
-17 7 -23 3.35 0.35
17 7 23 3.52 0.41
19 -7 23 1.8 0.4
-19 7 -23 1.67 0.26
21 -7 23 0.23 0.28
-21 7 -23 0.08 0.16
-41 -9 23 0.07 0.14
-39 -9 23 0.22 0.16
-37 -9 23 0.04 0.17
-35 -9 23 0.48 0.19
-33 -9 23 2.23 0.27
-31 -9 23 3.82 0.39
-29 -9 23 7.98 0.55
-27 -9 23 3.12 0.35
-25 -9 23 5.07 0.4
-23 -9 23 0.99 0.18
-23 9 23 1.41 0.36
-21 -9 23 0.82 0.17
-21 9 23 1.16 0.33
-19 -9 23 0.43 0.14
-19 9 23 0.65 0.29
19 9 -23 0.83 0.21
-17 -9 23 1.44 0.19
17 9 -23 1.87 0.27
-17 9 23 2.04 0.36
-15 -9 23 11.52 0.65
-15 9 23 12.09 0.82
15 9 -23 12.64 0.72
-13 -9 23 18.39 1.06
-13 -9 23 17.97 0.91
-13 9 23 17.9 1.05
13 9 -23 18.69 0.97
-11 -9 23 42.5 1.99
-11 9 23 41.89 1.98
11 9 -23 41.55 1.97
-9 -9 23 24.86 1.31
9 9 -23 24.8 1.24
-9 9 23 24.29 1.28
-7 -9 23 27.3 1.39
-7 9 23 27.7 1.38
7 9 -23 26.8 1.35
-5 -9 23 10.86 0.74
-5 9 23 11.15 0.73
5 9 -23 9.27 0.62
-3 -9 23 6.52 0.56
-3 9 23 6.33 0.54
3 9 -23 5.16 0.43
-1 -9 23 0.1 0.19
-1 9 23 0.34 0.15
1 9 -23 0.17 0.17
1 9 -23 0.19 0.14
-1 9 23 0.16 0.21
1 -9 23 0.13 0.19
1 9 23 0.17 0.2
1 9 23 0.21 0.14
-1 9 -23 0.3 0.19
-1 9 -23 0.35 0.16
3 -9 23 5.56 0.55
-3 9 -23 5.48 0.44
3 9 23 6.58 0.45
-3 9 -23 6.19 0.53
3 9 23 5.76 0.51
5 -9 23 10.29 0.74
-5 9 -23 9.54 0.6
5 9 23 10.25 0.7
5 9 23 9.81 0.61
-5 9 -23 10.53 0.72
7 -9 23 26.94 1.42
7 9 23 28.13 1.41
-7 9 -23 28.05 1.46
-7 9 -23 25.86 1.32
7 9 23 26.09 1.33
9 -9 23 23.44 1.32
9 9 23 25.23 1.23
9 9 23 23.45 1.28
-9 9 -23 24.73 1.21
-9 9 -23 22.85 1.32
11 -9 23 40.9 1.97
11 9 23 41.83 1.89
-11 9 -23 37.2 1.85
11 9 23 37.61 1.89
-11 9 -23 40.1 2.01
13 -9 23 17.57 1.1
-13 9 -23 17.35 1.05
13 9 23 18.31 0.96
-13 9 -23 17.38 0.94
15 -9 23 11.6 0.86
15 9 23 12.09 0.72
-15 9 -23 11.56 0.7
17 -9 23 1.56 0.38
-17 9 -23 1.89 0.27
17 9 23 2.25 0.3
19 -9 23 1.36 0.37
-19 9 -23 0.79 0.21
19 9 23 0.44 0.2
21 -9 23 0.37 0.31
-21 9 -23 0.85 0.22
23 -9 23 1.21 0.39
-23 9 -23 0.94 0.23
-41 -11 23 0.04 0.14
-39 -11 23 0 0.15
-37 -11 23 0.26 0.18
-35 -11 23 0.14 0.19
-33 -11 23 2.93 0.31
-31 -11 23 2.36 0.29
-29 -11 23 6.68 0.5
-27 -11 23 2.24 0.26
-25 -11 23 4.86 0.41
-23 -11 23 0.79 0.18
-21 -11 23 0.29 0.14
21 11 -23 0.29 0.19
-21 11 23 0.43 0.28
-19 -11 23 0.98 0.18
19 11 -23 1.21 0.26
-19 11 23 1.17 0.33
-17 -11 23 5.02 0.36
17 11 -23 3.75 0.4
-17 11 23 4.01 0.5
-15 -11 23 19.99 1.01
15 11 -23 21.92 1.09
-15 11 23 18.56 1.13
-13 -11 23 26.18 1.29
-13 11 23 25.07 1.38
13 11 -23 28.94 1.36
-11 -11 23 60.34 2.75
-11 -11 23 58.02 2.71
11 11 -23 62.69 2.79
-11 11 23 61.11 2.73
-9 -11 23 41.92 1.94
-9 -11 23 43.1 2
9 11 -23 40.19 1.97
-9 11 23 41.94 1.97
-7 -11 23 47.24 2.19
-7 11 23 46.91 2.18
7 11 -23 47.6 2.22
-5 -11 23 18.42 1.03
5 11 -23 16.45 0.96
-5 11 23 19.49 1.04
-3 -11 23 10.38 0.74
3 11 -23 10.36 0.66
-3 11 23 10.43 0.64
-3 11 23 12.44 0.77
-1 -11 23 0.43 0.25
-1 11 23 0.39 0.22
1 11 -23 0.22 0.19
1 11 -23 0.08 0.15
-1 11 23 0.15 0.13
1 -11 23 0.43 0.22
-1 11 -23 0.17 0.14
1 11 23 -0.08 0.18
1 11 23 0.2 0.14
-1 11 -23 0.02 0.18
3 -11 23 9.95 0.72
-3 11 -23 10.43 0.74
3 11 23 11.23 0.72
3 11 23 10.46 0.64
-3 11 -23 10.43 0.64
5 -11 23 18.31 1.06
-5 11 -23 17.6 1.08
5 11 23 19.41 0.98
5 11 23 18.76 1.05
-5 11 -23 17.25 0.96
7 -11 23 45.81 2.22
7 11 23 48.74 2.19
-7 11 -23 43.85 2.16
7 11 23 49.41 2.2
-7 11 -23 46.62 2.33
9 -11 23 42.07 2.02
9 11 23 39.72 1.95
-9 11 -23 40.01 2.07
-9 11 -23 40.56 1.94
9 11 23 42.86 1.96
11 -11 23 60.67 2.77
-11 11 -23 60.18 2.71
-11 11 -23 55.53 2.84
11 11 23 59.54 2.72
13 -11 23 26.06 1.45
13 11 23 25.73 1.31
-13 11 -23 24.76 1.41
-13 11 -23 25.9 1.3
15 -11 23 17.4 1.13
-15 11 -23 17.42 1.09
15 11 23 18.83 1.01
-15 11 -23 19.16 1
17 -11 23 3.76 0.56
17 11 23 4.15 0.42
-17 11 -23 4.27 0.41
19 -11 23 1.05 0.34
-19 11 -23 1.12 0.23
19 11 23 1.06 0.25
21 -11 23 0.75 0.33
-21 11 -23 0.37 0.18
-23 11 -23 0.64 0.22
-25 11 -23 4.22 0.46
-39 -13 23 -0.15 0.15
-37 -13 23 0.22 0.17
-35 -13 23 -0.13 0.18
-33 -13 23 1.68 0.26
-31 -13 23 1.53 0.26
-29 -13 23 4.82 0.47
-27 -13 23 2.39 0.29
-25 -13 23 3.65 0.38
-23 -13 23 0.58 0.18
23 13 -23 0.64 0.23
-21 -13 23 0.26 0.15
21 13 -23 0.22 0.2
-21 13 23 -0.03 0.26
-19 -13 23 0.37 0.14
19 13 -23 0.61 0.23
-19 13 23 0.29 0.3
-17 -13 23 0.84 0.17
-17 13 23 1.27 0.33
17 13 -23 1.1 0.25
-15 -13 23 8.92 0.54
-15 13 23 8.81 0.71
15 13 -23 8.54 0.61
-13 -13 23 11 0.61
13 13 -23 10.91 0.69
-13 13 23 9.81 0.76
-11 -13 23 27.38 1.34
-11 13 23 27.79 1.43
11 13 -23 28.13 1.41
-9 -13 23 17.32 1.06
-9 -13 23 19.49 0.96
9 13 -23 19.4 1.03
-9 13 23 18.19 1.05
-7 -13 23 23.63 1.17
-7 -13 23 22.57 1.25
7 13 -23 24.5 1.24
-7 13 23 24.4 1.26
-5 -13 23 7.93 0.51
-5 -13 23 8.54 0.66
-5 13 23 8.73 0.64
5 13 -23 8.19 0.57
-3 -13 23 5.89 0.59
-3 13 23 7.03 0.49
-3 13 23 7.42 0.57
3 13 -23 6.97 0.51
-1 -13 23 -0.09 0.18
-1 13 23 -0.13 0.18
1 13 -23 0.08 0.15
-1 13 23 0.16 0.13
1 13 -23 0.08 0.19
1 -13 23 0.18 0.24
-1 13 -23 0.17 0.15
1 13 23 -0.05 0.13
1 13 23 -0.04 0.22
-1 13 -23 -0.14 0.18
3 -13 23 6.13 0.57
3 13 23 6.34 0.57
-3 13 -23 6.14 0.46
3 13 23 6.81 0.49
-3 13 -23 5.93 0.56
5 -13 23 8.9 0.69
-5 13 -23 8.64 0.57
-5 13 -23 8.65 0.68
5 13 23 9.34 0.67
5 13 23 9.07 0.59
7 -13 23 25.49 1.36
7 -13 23 23.6 1.21
-7 13 -23 24.28 1.36
-7 13 -23 23.96 1.22
7 13 23 23.23 1.27
7 13 23 24.66 1.24
9 -13 23 16.73 0.89
9 -13 23 18.54 1.1
-9 13 -23 17.56 0.96
-9 13 -23 17.28 1.08
9 13 23 19.39 0.99
11 -13 23 24.04 1.23
11 -13 23 25.83 1.44
-11 13 -23 26.35 1.44
11 13 23 26.77 1.32
-11 13 -23 26.21 1.3
13 -13 23 10.68 0.82
13 -13 23 10.37 0.58
13 13 23 9.9 0.66
-13 13 -23 9.72 0.64
-13 13 -23 11.48 0.78
15 -13 23 7.36 0.47
15 -13 23 7.06 0.71
-15 13 -23 7.57 0.65
-15 13 -23 7.98 0.56
15 13 23 7.87 0.57
17 -13 23 1.01 0.35
17 -13 23 1.13 0.18
17 13 23 1.11 0.25
-17 13 -23 1.07 0.28
-17 13 -23 1.07 0.24
19 -13 23 0.68 0.32
19 -13 23 0.75 0.17
19 13 23 0.38 0.2
-19 13 -23 0.47 0.19
21 -13 23 0.52 0.17
21 -13 23 0.83 0.36
21 13 23 0.23 0.2
-21 13 -23 0.51 0.2
23 -13 23 0.9 0.18
-23 13 -23 0.7 0.24
25 -13 23 3.74 0.36
-25 13 -23 3.11 0.4
27 -13 23 1.81 0.23
29 -13 23 4.86 0.44
-39 -15 23 0.06 0.15
-37 -15 23 0.21 0.17
-35 -15 23 0.14 0.18
-33 -15 23 1.27 0.22
-31 -15 23 0.53 0.21
-29 -15 23 1.95 0.27
-27 -15 23 0.64 0.21
-25 -15 23 1.12 0.22
-23 -15 23 0.14 0.17
23 15 -23 0.41 0.21
-21 -15 23 0.04 0.15
21 15 -23 -0.1 0.19
-19 -15 23 0.58 0.16
-19 15 23 0.67 0.32
19 15 -23 0.49 0.23
-17 -15 23 1.07 0.19
17 15 -23 1.47 0.29
-17 15 23 1.38 0.35
-15 -15 23 6.27 0.46
15 15 -23 7.26 0.55
-15 15 23 6.24 0.6
-13 -15 23 8.95 0.54
13 15 -23 8.36 0.61
-13 15 23 7.27 0.65
-11 -15 23 20.26 1.04
11 15 -23 21.96 1.13
-11 15 23 19.06 1.13
-9 -15 23 12.94 0.71
-9 15 23 12.23 0.81
9 15 -23 12.41 0.78
-7 -15 23 16.25 0.87
-7 -15 23 16.95 1.01
-7 15 23 17.09 1
7 15 -23 17.68 0.96
-5 -15 23 6.31 0.45
-5 -15 23 5.93 0.57
5 15 -23 6.17 0.51
-5 15 23 6.94 0.48
-5 15 23 7.18 0.59
-3 -15 23 3.98 0.49
-3 -15 23 5.19 0.4
3 15 -23 5.37 0.46
-3 15 23 5.74 0.44
-3 15 23 5.6 0.55
-1 -15 23 -0.14 0.19
-1 -15 23 -0.18 0.12
-1 15 23 -0.15 0.19
-1 15 23 0.37 0.16
1 15 -23 0.02 0.15
1 -15 23 0.04 0.2
1 -15 23 0.01 0.13
-1 15 -23 0.18 0.16
1 15 23 -0.02 0.14
-1 15 -23 0.02 0.19
1 15 23 -0.39 0.17
3 -15 23 4.6 0.54
3 -15 23 4.88 0.38
3 15 23 5.9 0.45
3 15 23 4.83 0.53
-3 15 -23 5.37 0.55
-3 15 -23 6.74 0.47
5 -15 23 5.94 0.6
5 -15 23 5.59 0.41
5 15 23 6.58 0.48
-5 15 -23 6.35 0.47
-5 15 -23 5.35 0.56
5 15 23 5.62 0.55
7 -15 23 13.98 1.01
7 -15 23 15.75 0.85
-7 15 -23 17.31 0.92
7 15 23 17.37 0.93
-7 15 -23 17.25 1.05
9 -15 23 10.37 0.62
9 -15 23 11.14 0.83
-9 15 -23 10.73 0.68
9 15 23 12.28 0.71
-9 15 -23 12.19 0.84
11 -15 23 18.1 1.15
11 -15 23 17.13 0.92
-11 15 -23 19.14 1.01
-11 15 -23 18.65 1.13
11 15 23 19.11 1.02
13 -15 23 7.25 0.74
13 -15 23 7.09 0.47
-13 15 -23 7.55 0.55
-13 15 -23 8.05 0.68
13 15 23 8.28 0.58
15 -15 23 5.57 0.42
15 -15 23 5.21 0.63
15 15 23 5.76 0.49
-15 15 -23 5.99 0.49
-15 15 -23 6 0.58
17 -15 23 1.05 0.41
17 -15 23 1.08 0.18
-17 15 -23 1.25 0.27
17 15 23 1.3 0.27
-17 15 -23 1.41 0.31
19 -15 23 0.38 0.16
19 -15 23 0.7 0.37
19 15 23 0.46 0.21
-19 15 -23 0.22 0.19
-19 15 -23 0.47 0.26
21 -15 23 0.07 0.15
-21 15 -23 -0.08 0.16
21 15 23 0.04 0.18
23 -15 23 0.21 0.16
23 15 23 -0.2 0.19
-23 15 -23 0.23 0.19
25 -15 23 1.04 0.2
-25 15 -23 1.16 0.28
27 -15 23 0.5 0.17
29 -15 23 1.84 0.24
-31 15 -23 0.55 0.15
-33 15 -23 1.18 0.19
-39 -17 23 0.04 0.14
-37 -17 23 0.04 0.15
-35 -17 23 -0.19 0.16
-33 -17 23 0 0.17
-31 -17 23 -0.03 0.18
-29 -17 23 0.35 0.19
-27 -17 23 -0.07 0.17
-25 -17 23 0.12 0.18
25 17 -23 0.57 0.24
-23 -17 23 0.08 0.17
23 17 -23 0.05 0.19
-21 -17 23 0.11 0.17
21 17 -23 0.52 0.23
-19 -17 23 0.29 0.16
19 17 -23 0 0.19
-17 -17 23 0.15 0.15
17 17 -23 0.04 0.18
-17 17 23 0.24 0.29
-15 -17 23 1.17 0.19
15 17 -23 1.36 0.28
-15 17 23 1.07 0.35
-13 -17 23 1.38 0.21
13 17 -23 1.09 0.26
-13 17 23 0.89 0.34
-11 -17 23 4.66 0.36
11 17 -23 4.42 0.45
-11 17 23 3.61 0.48
-9 -17 23 2.27 0.26
9 17 -23 1.82 0.3
-9 17 23 2.35 0.39
-7 -17 23 3.68 0.35
7 17 -23 3.57 0.4
-7 17 23 3.5 0.46
-5 -17 23 0.28 0.25
-5 -17 23 0.56 0.17
-5 17 23 0.47 0.17
5 17 -23 0.18 0.18
-5 17 23 1.16 0.3
-3 -17 23 1.62 0.22
-3 -17 23 1.84 0.38
3 17 -23 1.95 0.29
-3 17 23 1.92 0.27
-3 17 23 2.28 0.38
-1 -17 23 -0.09 0.12
-1 -17 23 -0.15 0.22
-1 17 23 -0.02 0.19
1 17 -23 0.22 0.18
-1 17 23 0.12 0.15
1 -17 23 0.19 0.24
1 -17 23 0.16 0.15
1 17 23 0.26 0.16
-1 17 -23 0.1 0.21
1 17 23 -0.09 0.2
-1 17 -23 0.31 0.18
3 -17 23 1.59 0.35
3 -17 23 1.74 0.22
-3 17 -23 2.6 0.3
3 17 23 1.87 0.35
3 17 23 1.98 0.28
-3 17 -23 1.73 0.34
5 -17 23 0.64 0.27
5 -17 23 0.4 0.16
-5 17 -23 0.57 0.24
5 17 23 0.2 0.17
-5 17 -23 0.6 0.19
7 -17 23 3.37 0.34
7 -17 23 3.3 0.5
-7 17 -23 3.46 0.46
7 17 23 3.59 0.38
-7 17 -23 3.97 0.38
9 -17 23 1.54 0.21
9 -17 23 1.81 0.4
-9 17 -23 1.84 0.35
-9 17 -23 1.56 0.25
9 17 23 1.79 0.27
11 -17 23 3.69 0.34
11 -17 23 3.59 0.55
11 17 23 4.58 0.42
-11 17 -23 4.44 0.41
-11 17 -23 3.05 0.45
13 -17 23 0.94 0.17
13 -17 23 0.75 0.32
-13 17 -23 1.53 0.34
13 17 23 0.75 0.23
-13 17 -23 1.47 0.26
15 -17 23 1.23 0.2
15 -17 23 0.78 0.35
-15 17 -23 1.23 0.3
15 17 23 1.57 0.29
-15 17 -23 1.93 0.29
17 -17 23 0 0.14
17 -17 23 -0.3 0.26
-17 17 -23 -0.11 0.21
17 17 23 -0.04 0.17
-17 17 -23 -0.06 0.17
19 -17 23 -0.06 0.15
-19 17 -23 -0.02 0.17
19 17 23 0.04 0.19
-19 17 -23 0 0.22
21 -17 23 0.21 0.15
21 17 23 0.35 0.21
-21 17 -23 0.11 0.19
23 -17 23 0.13 0.16
23 17 23 -0.08 0.18
-23 17 -23 0.04 0.19
25 -17 23 0.3 0.17
-25 17 -23 0.36 0.22
27 -17 23 -0.15 0.15
29 -17 23 0.64 0.18
31 -17 23 0.23 0.16
-33 17 -23 0.1 0.14
-35 17 -23 0.13 0.13
-37 -19 23 -0.02 0.15
-35 -19 23 -0.07 0.16
-33 -19 23 0.03 0.17
-31 -19 23 -0.29 0.17
-29 -19 23 -0.1 0.16
-27 -19 23 0.08 0.17
-25 -19 23 -0.03 0.16
-23 -19 23 0.05 0.16
23 19 -23 0.2 0.2
-21 -19 23 -0.11 0.16
21 19 -23 -0.22 0.18
-19 -19 23 0.02 0.16
19 19 -23 -0.03 0.19
-17 -19 23 0.08 0.17
17 19 -23 0.19 0.2
-15 -19 23 0.26 0.15
-15 19 23 1.02 0.35
15 19 -23 0.89 0.25
-13 -19 23 0.42 0.16
13 19 -23 0.56 0.22
-13 19 23 0.68 0.31
-11 -19 23 1.81 0.24
-11 19 23 1.31 0.34
11 19 -23 1.38 0.28
-9 -19 23 0.5 0.16
9 19 -23 0.63 0.23
-9 19 23 1.14 0.33
-7 -19 23 1.59 0.23
7 19 -23 2.12 0.33
-7 19 23 1.76 0.36
-5 -19 23 -0.1 0.14
5 19 -23 -0.19 0.15
-5 19 23 -0.04 0.14
-5 19 23 -0.09 0.23
-3 -19 23 1.34 0.34
-3 -19 23 1.36 0.22
-3 19 23 2.03 0.29
3 19 -23 1.89 0.3
-3 19 23 1.91 0.38
-1 -19 23 0.15 0.25
-1 -19 23 0.35 0.16
-1 19 23 0.3 0.24
1 19 -23 0.77 0.21
-1 19 23 0.39 0.19
1 -19 23 0.15 0.28
1 -19 23 0.14 0.16
1 19 23 0.52 0.19
-1 19 -23 0.49 0.24
-1 19 -23 0.76 0.21
1 19 23 0.01 0.25
3 -19 23 1.28 0.34
3 -19 23 1.26 0.2
3 19 23 1.47 0.25
-3 19 -23 1.54 0.33
-3 19 -23 1.6 0.26
5 -19 23 -0.25 0.23
5 -19 23 -0.07 0.15
5 19 23 0.03 0.14
-5 19 -23 0.17 0.21
-5 19 -23 -0.02 0.14
7 -19 23 1.5 0.22
7 -19 23 1.2 0.36
-7 19 -23 1.62 0.33
7 19 23 1.81 0.27
-7 19 -23 1.67 0.27
9 -19 23 0.73 0.29
9 -19 23 0.5 0.16
-9 19 -23 0.52 0.19
-9 19 -23 0.66 0.27
9 19 23 0.85 0.22
11 -19 23 0.77 0.31
11 -19 23 0.97 0.18
-11 19 -23 0.9 0.23
11 19 23 1.4 0.26
-11 19 -23 1.29 0.32
13 -19 23 0.63 0.17
13 -19 23 0.23 0.29
-13 19 -23 0.47 0.27
13 19 23 0.37 0.19
-13 19 -23 0.46 0.2
15 -19 23 0.37 0.16
15 -19 23 0.43 0.33
15 19 23 0.29 0.21
-15 19 -23 0.23 0.24
17 -19 23 0.01 0.15
-17 19 -23 0.28 0.25
17 19 23 -0.19 0.17
19 -19 23 0.01 0.16
-19 19 -23 0.06 0.19
19 19 23 0.17 0.2
21 -19 23 -0.15 0.15
-21 19 -23 0.02 0.19
21 19 23 -0.1 0.18
23 -19 23 0.16 0.16
23 19 23 0.15 0.21
-23 19 -23 0.18 0.21
25 -19 23 -0.3 0.14
27 -19 23 0.09 0.16
29 -19 23 -0.04 0.15
31 -19 23 -0.11 0.15
-33 19 -23 -0.04 0.14
-35 19 -23 0.29 0.13
-37 -21 23 0.02 0.15
-35 -21 23 -0.02 0.15
-33 -21 23 -0.14 0.16
-31 -21 23 -0.14 0.18
-29 -21 23 -0.11 0.17
-27 -21 23 0.25 0.19
-25 -21 23 -0.06 0.16
-23 -21 23 0.07 0.17
-21 -21 23 0.01 0.17
21 21 -23 -0.11 0.18
-19 -21 23 0.06 0.17
19 21 -23 -0.05 0.19
-17 -21 23 0.09 0.16
17 21 -23 0.34 0.2
-15 -21 23 0.08 0.16
15 21 -23 0.15 0.2
-13 -21 23 0.23 0.16
13 21 -23 0.49 0.22
-11 -21 23 0.24 0.17
11 21 -23 0.2 0.2
-11 21 23 0.13 0.24
-9 -21 23 0.67 0.19
9 21 -23 0.73 0.25
-9 21 23 0.93 0.3
-7 -21 23 0.22 0.15
-7 21 23 0.23 0.23
7 21 -23 0.12 0.19
-7 21 23 -0.09 0.16
-5 -21 23 0.97 0.19
5 21 -23 1.61 0.3
-5 21 23 0.87 0.22
-5 21 23 1.02 0.29
-3 -21 23 0.38 0.18
3 21 -23 0.29 0.19
-3 21 23 0.28 0.24
-3 21 23 0.1 0.17
-1 -21 23 0.29 0.27
-1 -21 23 0.34 0.17
-1 21 23 0.17 0.17
1 21 -23 0.34 0.19
-1 21 23 0.17 0.25
1 -21 23 0.37 0.17
1 -21 23 0 0.28
-1 21 -23 0.14 0.23
-1 21 -23 0.56 0.19
1 21 23 0.37 0.2
3 -21 23 -0.37 0.2
3 -21 23 0.07 0.15
-3 21 -23 0.08 0.21
-3 21 -23 0.18 0.16
3 21 23 0.02 0.16
5 -21 23 1.15 0.35
5 -21 23 0.85 0.21
5 21 23 1.03 0.23
-5 21 -23 1.31 0.25
-5 21 -23 1.67 0.34
7 -21 23 0.19 0.16
7 -21 23 0.15 0.26
-7 21 -23 0.14 0.21
7 21 23 0.31 0.17
-7 21 -23 0.29 0.18
9 -21 23 0.25 0.15
9 -21 23 0.73 0.3
-9 21 -23 0.66 0.28
-9 21 -23 0.68 0.21
9 21 23 0.69 0.22
11 -21 23 0.12 0.15
11 -21 23 0.34 0.28
-11 21 -23 0.27 0.27
-11 21 -23 0.46 0.2
11 21 23 0.25 0.18
13 -21 23 0.86 0.37
13 -21 23 0.51 0.17
13 21 23 0.61 0.22
-13 21 -23 0.31 0.26
-13 21 -23 0.46 0.21
15 -21 23 0 0.15
15 21 23 0.15 0.19
-15 21 -23 -0.02 0.24
17 -21 23 0.08 0.16
17 21 23 0.02 0.19
19 -21 23 -0.09 0.15
19 21 23 0.25 0.21
21 -21 23 -0.03 0.16
-21 21 -23 -0.16 0.18
21 21 23 -0.21 0.18
23 -21 23 -0.17 0.16
25 -21 23 -0.27 0.15
27 -21 23 0.25 0.17
29 -21 23 -0.08 0.16
31 -21 23 0.04 0.16
-33 21 -23 -0.18 0.13
-35 21 -23 0.03 0.13
-35 -23 23 -0.01 0.15
-33 -23 23 -0.2 0.16
-31 -23 23 0.05 0.18
-29 -23 23 0.12 0.18
-27 -23 23 0.9 0.22
-25 -23 23 0.67 0.2
-23 -23 23 0.44 0.19
-21 -23 23 -0.06 0.17
-19 -23 23 -0.02 0.17
19 23 -23 -0.08 0.18
-17 -23 23 0.3 0.19
17 23 -23 -0.14 0.16
-15 -23 23 0.39 0.19
15 23 -23 0.07 0.2
-13 -23 23 0.59 0.19
13 23 -23 0.57 0.23
-11 -23 23 0.87 0.22
11 23 -23 0.63 0.23
-9 -23 23 0.73 0.18
-9 23 23 1.15 0.34
9 23 -23 0.76 0.25
-7 -23 23 0.7 0.2
-7 23 23 0.44 0.28
7 23 -23 0.47 0.23
-7 23 23 0.11 0.17
-5 -23 23 0.79 0.2
-5 23 23 1.06 0.33
-5 23 23 1.05 0.24
5 23 -23 0.88 0.26
-3 -23 23 -0.04 0.16
-3 23 23 -0.21 0.23
-3 23 23 0.12 0.16
3 23 -23 0.17 0.2
-1 -23 23 0.4 0.17
-1 23 23 0.74 0.21
1 23 -23 0.66 0.22
1 23 -23 0.22 0.24
1 -23 23 0.23 0.29
1 -23 23 0.6 0.19
-1 23 -23 0.32 0.23
-1 23 -23 0.8 0.23
1 23 23 0.76 0.22
3 -23 23 0.46 0.3
3 -23 23 -0.13 0.16
3 23 23 -0.03 0.16
-3 23 -23 0.36 0.18
-3 23 -23 0.12 0.21
5 -23 23 0.81 0.22
5 -23 23 0.68 0.31
5 23 23 1.07 0.24
-5 23 -23 1.41 0.27
-5 23 -23 1.53 0.35
7 -23 23 0.72 0.32
7 -23 23 0.26 0.18
-7 23 -23 0.56 0.2
-7 23 -23 0.47 0.26
7 23 23 0.74 0.22
9 -23 23 1.05 0.21
9 -23 23 1 0.34
-9 23 -23 0.74 0.22
9 23 23 0.84 0.23
-9 23 -23 0.91 0.3
11 -23 23 0.79 0.2
-11 23 -23 0.64 0.22
-11 23 -23 1.5 0.34
11 23 23 1.13 0.26
13 -23 23 0.54 0.18
13 23 23 0.73 0.23
-13 23 -23 0.55 0.22
15 -23 23 0.04 0.17
15 23 23 -0.05 0.17
17 -23 23 -0.08 0.16
17 23 23 0 0.18
19 -23 23 0.11 0.18
19 23 23 -0.09 0.19
21 -23 23 -0.18 0.17
23 -23 23 0.35 0.19
25 -23 23 0.49 0.19
27 -23 23 0.57 0.19
29 -23 23 0.26 0.17
31 -23 23 0.25 0.16
-33 23 -23 -0.02 0.13
-33 -25 23 0.18 0.16
-31 -25 23 0.31 0.18
-29 -25 23 0.46 0.2
-27 -25 23 1.31 0.24
-25 -25 23 0.71 0.21
-23 -25 23 0.55 0.2
-21 -25 23 -0.22 0.15
-19 -25 23 0 0.16
-17 -25 23 0.16 0.19
17 25 -23 0.17 0.2
-15 -25 23 1.17 0.23
15 25 -23 1.02 0.28
-13 -25 23 3.29 0.35
13 25 -23 3.13 0.41
-11 -25 23 4.65 0.44
11 25 -23 4.08 0.46
-9 -25 23 5.27 0.47
9 25 -23 4.89 0.53
-7 -25 23 6.04 0.49
7 25 -23 5.51 0.54
-7 25 23 4.84 0.48
-5 -25 23 2.24 0.3
-5 25 23 2.87 0.36
5 25 -23 2.66 0.37
-3 -25 23 0.79 0.22
3 25 -23 0.97 0.26
-3 25 23 1.05 0.25
-1 -25 23 0.46 0.19
1 25 -23 0.19 0.23
1 25 -23 0.24 0.19
-1 25 23 0.16 0.17
1 -25 23 0.31 0.19
-1 25 -23 0.45 0.2
-1 25 -23 0 0.22
1 25 23 0.19 0.19
3 -25 23 0.99 0.23
3 -25 23 0.89 0.35
-3 25 -23 1.07 0.3
3 25 23 0.99 0.25
-3 25 -23 0.9 0.25
5 -25 23 2.34 0.29
-5 25 -23 2.59 0.42
-5 25 -23 2.3 0.34
5 25 23 2.51 0.34
7 -25 23 5.31 0.47
-7 25 -23 4.19 0.46
7 25 23 5.45 0.49
9 -25 23 4.58 0.44
9 25 23 4.16 0.46
-9 25 -23 4.22 0.46
11 -25 23 4.29 0.46
11 25 23 4.95 0.48
-11 25 -23 3.91 0.45
13 -25 23 2.3 0.29
13 25 23 2.88 0.38
-13 25 -23 3.25 0.4
15 -25 23 0.92 0.23
-15 25 -23 1.09 0.28
15 25 23 1.62 0.3
17 -25 23 -0.01 0.19
17 25 23 0.43 0.22
-17 25 -23 0.38 0.24
19 -25 23 -0.18 0.18
21 -25 23 -0.16 0.17
23 -25 23 0.25 0.19
25 -25 23 0.58 0.2
27 -25 23 0.68 0.2
29 -25 23 0.62 0.18
31 -25 23 0.69 0.18
-33 25 -23 0.05 0.13
-31 -27 23 0.65 0.19
-29 -27 23 0.94 0.21
-27 -27 23 1.27 0.24
-25 -27 23 0.99 0.22
-23 -27 23 0.88 0.22
-21 -27 23 0.26 0.19
-19 -27 23 0.1 0.18
-17 -27 23 0.04 0.17
-15 -27 23 0.48 0.2
-13 -27 23 2.13 0.28
13 27 -23 2.26 0.36
-11 -27 23 2.39 0.3
11 27 -23 1.96 0.35
-9 -27 23 1.99 0.29
9 27 -23 2.8 0.39
-7 -27 23 3.18 0.33
7 27 -23 2.35 0.38
-5 -27 23 0.99 0.23
5 27 -23 1.18 0.29
-5 27 23 1.31 0.28
-3 -27 23 0.67 0.22
3 27 -23 0.78 0.25
-3 27 23 0.53 0.22
-1 -27 23 0.03 0.19
1 27 -23 0.3 0.22
-1 27 23 0.11 0.18
1 -27 23 0.03 0.19
-1 27 -23 0.33 0.21
1 27 23 0.23 0.19
3 -27 23 0.76 0.23
-3 27 -23 0.58 0.22
3 27 23 0.49 0.22
5 -27 23 1.02 0.24
5 27 23 1.13 0.27
-5 27 -23 1.2 0.28
7 -27 23 2.39 0.3
7 27 23 2.91 0.37
-7 27 -23 2.68 0.38
9 -27 23 2.28 0.31
9 27 23 2.43 0.35
-9 27 -23 1.89 0.33
11 -27 23 2.22 0.3
11 27 23 2.32 0.34
-11 27 -23 1.87 0.33
13 -27 23 1.78 0.28
-13 27 -23 1.69 0.33
13 27 23 2.38 0.34
15 -27 23 0.5 0.23
17 -27 23 -0.35 0.18
19 -27 23 -0.11 0.19
21 -27 23 -0.07 0.18
23 -27 23 0.84 0.22
25 -27 23 1.08 0.22
27 -27 23 1.06 0.21
29 -27 23 0.58 0.18
31 -27 23 0.74 0.18
-29 -29 23 0.76 0.19
-27 -29 23 0.9 0.21
-25 -29 23 0.71 0.21
-23 -29 23 -0.03 0.18
-21 -29 23 0.16 0.18
-19 -29 23 -0.09 0.18
-17 -29 23 0.48 0.2
-15 -29 23 1.75 0.27
-13 -29 23 4.48 0.45
-11 -29 23 6.96 0.55
-9 -29 23 7.96 0.58
9 29 -23 6.77 0.63
-7 -29 23 6.17 0.53
7 29 -23 6.65 0.6
-5 -29 23 3.17 0.35
-5 29 23 3.43 0.4
5 29 -23 3.33 0.44
-3 -29 23 1.12 0.24
-3 29 23 0.92 0.24
3 29 -23 1.65 0.32
-1 -29 23 0.07 0.19
-1 29 23 0.05 0.18
1 29 -23 0.52 0.23
1 -29 23 0.21 0.21
-1 29 -23 0.19 0.21
1 29 23 0.1 0.19
3 -29 23 1.11 0.25
-3 29 -23 0.9 0.26
3 29 23 1.26 0.27
5 -29 23 2.82 0.33
5 29 23 3.47 0.42
-5 29 -23 2.99 0.41
7 -29 23 5.66 0.54
7 29 23 5.99 0.54
-7 29 -23 4.95 0.52
9 -29 23 7.93 0.61
-9 29 -23 6.26 0.58
9 29 23 7.07 0.6
11 -29 23 6.14 0.54
13 -29 23 3.11 0.34
15 -29 23 1.68 0.28
17 -29 23 -0.09 0.2
19 -29 23 -0.31 0.19
21 -29 23 0 0.19
23 -29 23 0.32 0.19
25 -29 23 0.72 0.2
27 -29 23 0.47 0.18
29 -29 23 0.87 0.18
-27 -31 23 0.83 0.19
-25 -31 23 0.67 0.19
-23 -31 23 0.45 0.19
-21 -31 23 0.14 0.18
-19 -31 23 -0.09 0.18
-17 -31 23 -0.01 0.18
-15 -31 23 0.61 0.21
-13 -31 23 1.64 0.26
-11 -31 23 2.26 0.29
-9 -31 23 4.39 0.49
-7 -31 23 4.37 0.49
-5 -31 23 1.31 0.26
-3 -31 23 0.3 0.21
-1 -31 23 0.06 0.2
1 -31 23 -0.11 0.19
3 -31 23 0.71 0.24
5 -31 23 1.81 0.29
7 -31 23 3.26 0.36
9 -31 23 3.13 0.35
11 -31 23 2.14 0.3
13 -31 23 1.54 0.27
15 -31 23 0.69 0.23
17 -31 23 -0.09 0.18
19 -31 23 -0.14 0.18
21 -31 23 0.17 0.19
23 -31 23 0.25 0.18
25 -31 23 0.61 0.19
27 -31 23 0.81 0.19
-25 -33 23 0.2 0.16
-23 -33 23 -0.15 0.15
-21 -33 23 0.08 0.17
-19 -33 23 -0.06 0.17
-17 -33 23 0.08 0.18
-15 -33 23 1 0.23
-13 -33 23 1.21 0.25
-11 -33 23 2.31 0.3
-9 -33 23 1.98 0.28
-7 -33 23 1.45 0.26
-5 -33 23 1.26 0.26
-3 -33 23 0.15 0.21
-1 -33 23 -0.03 0.2
1 -33 23 0.15 0.21
3 -33 23 0.17 0.2
5 -33 23 1.07 0.25
7 -33 23 1.56 0.28
9 -33 23 2.15 0.29
11 -33 23 2.29 0.31
13 -33 23 1.55 0.27
15 -33 23 1.19 0.24
17 -33 23 -0.1 0.19
19 -33 23 -0.09 0.18
21 -33 23 0 0.18
23 -33 23 0.08 0.17
25 -33 23 0.19 0.16
-23 -35 23 0.22 0.15
-21 -35 23 0.03 0.15
-19 -35 23 -0.17 0.15
-17 -35 23 -0.14 0.16
-15 -35 23 -0.16 0.16
-13 -35 23 -0.2 0.17
-11 -35 23 0.2 0.19
-9 -35 23 0.06 0.19
-7 -35 23 0.09 0.2
-5 -35 23 0.03 0.19
-3 -35 23 0.15 0.19
-1 -35 23 -0.1 0.19
1 -35 23 -0.24 0.19
3 -35 23 -0.05 0.19
5 -35 23 0 0.19
7 -35 23 0.24 0.19
9 -35 23 0.16 0.2
11 -35 23 -0.06 0.19
13 -35 23 0.09 0.18
15 -35 23 0.04 0.18
17 -35 23 -0.05 0.17
19 -35 23 0.09 0.17
21 -35 23 0.12 0.16
23 -35 23 -0.01 0.15
-19 -37 23 -0.04 0.15
-17 -37 23 0.04 0.15
-15 -37 23 0.07 0.17
-13 -37 23 -0.17 0.16
-11 -37 23 0.22 0.18
-9 -37 23 0.12 0.18
-7 -37 23 -0.07 0.17
-5 -37 23 -0.04 0.17
-3 -37 23 -0.13 0.17
-1 -37 23 0.23 0.18
1 -37 23 0.06 0.18
3 -37 23 -0.09 0.18
5 -37 23 -0.03 0.17
7 -37 23 0.2 0.18
9 -37 23 0.2 0.19
11 -37 23 0.09 0.17
13 -37 23 -0.01 0.17
15 -37 23 0.22 0.17
17 -37 23 0.02 0.17
19 -37 23 -0.21 0.15
21 -37 23 -0.28 0.14
-15 -39 23 0.21 0.15
-13 -39 23 0.18 0.16
-11 -39 23 0.11 0.16
-9 -39 23 0.04 0.16
-7 -39 23 0.14 0.16
-5 -39 23 0.2 0.17
-3 -39 23 0.04 0.17
-1 -39 23 -0.15 0.16
1 -39 23 0.2 0.17
3 -39 23 -0.08 0.16
5 -39 23 0.34 0.17
7 -39 23 0.17 0.17
9 -39 23 0.18 0.17
11 -39 23 0.36 0.17
13 -39 23 0.1 0.16
15 -39 23 0.21 0.15
17 -39 23 -0.01 0.15
-9 -41 23 0.14 0.14
-7 -41 23 -0.06 0.14
-5 -41 23 0.05 0.15
-3 -41 23 -0.05 0.15
-1 -41 23 -0.07 0.14
1 -41 23 -0.15 0.14
3 -41 23 -0.01 0.14
5 -41 23 -0.16 0.14
7 -41 23 0.11 0.14
9 -41 23 0.05 0.14
-40 0 24 2.27 0.23
-38 0 24 0.11 0.14
-36 0 24 1.68 0.23
-34 0 24 -0.12 0.15
-32 0 24 0.91 0.2
-30 0 24 0.03 0.14
-28 0 24 0.2 0.15
-26 0 24 0.43 0.14
-24 0 24 16 0.82
-22 0 24 0.8 0.15
-20 0 24 36.99 1.91
-18 0 24 0.51 0.28
-16 0 24 28.86 1.48
-14 0 24 0.28 0.21
-12 0 24 17.66 1.01
-10 0 24 0.2 0.22
-8 0 24 1.78 0.33
-6 0 24 -0.06 0.17
-4 0 24 11.54 0.76
-2 0 24 -0.13 0.17
0 0 24 35.27 1.73
2 0 24 0.13 0.21
4 0 24 10.87 0.76
6 0 24 -0.09 0.21
8 0 24 2.1 0.37
10 0 24 0.32 0.22
12 0 24 16.96 1.04
14 0 24 0.5 0.26
16 0 24 26.18 1.44
-40 -2 24 0.08 0.13
-40 2 24 0.14 0.12
-38 -2 24 1.4 0.22
-38 2 24 1.63 0.21
-36 -2 24 0.21 0.16
-36 2 24 0.15 0.15
-34 -2 24 1.03 0.21
-34 2 24 0.99 0.2
-32 -2 24 0.09 0.15
-32 2 24 0.14 0.15
-30 -2 24 0.69 0.18
-30 2 24 1.01 0.19
-28 -2 24 0.04 0.14
-28 2 24 0.16 0.14
-26 -2 24 4.86 0.39
-26 2 24 4.87 0.38
-24 -2 24 0.07 0.13
-22 -2 24 33.62 1.58
-20 -2 24 0.33 0.13
-20 2 24 0.4 0.26
-18 -2 24 54.05 2.53
-18 -2 24 58.01 2.57
-18 2 24 56.82 2.57
-16 -2 24 0.23 0.22
-16 2 24 0.22 0.23
-14 -2 24 33.34 1.64
-14 2 24 32.58 1.63
-12 -2 24 0.04 0.2
-12 2 24 0.19 0.2
-10 -2 24 33.7 1.68
-10 2 24 35.43 1.7
-8 -2 24 -0.14 0.16
-8 2 24 -0.06 0.21
-6 -2 24 0.44 0.22
-6 2 24 0.47 0.22
6 2 -24 0.48 0.13
-4 -2 24 0.05 0.19
4 2 -24 -0.02 0.1
-4 2 24 0 0.18
-2 -2 24 12.2 0.78
2 2 -24 11.44 0.64
-2 2 24 12 0.78
0 -2 24 0.21 0.2
0 2 -24 0.08 0.12
0 2 24 -0.04 0.18
2 -2 24 10.61 0.75
2 2 24 10.81 0.75
-2 2 -24 11.01 0.61
4 -2 24 0.1 0.2
4 2 24 -0.03 0.16
-4 2 -24 -0.07 0.11
6 -2 24 0.8 0.27
6 2 24 0.37 0.23
-6 2 -24 0.26 0.14
8 -2 24 0.29 0.2
8 2 24 -0.05 0.18
-8 2 -24 -0.16 0.11
10 -2 24 30.52 1.63
10 2 24 31.57 1.62
-10 2 -24 32.42 1.5
12 -2 24 0.15 0.24
12 2 24 -0.07 0.2
14 -2 24 33.49 1.7
14 2 24 30.9 1.65
16 -2 24 0.04 0.27
16 2 24 0.37 0.26
18 -2 24 52.17 2.5
-40 -4 24 1.28 0.2
-40 4 24 1.45 0.18
-38 -4 24 -0.01 0.15
-38 4 24 0.07 0.13
-36 -4 24 0.82 0.2
-36 4 24 1.41 0.2
-34 -4 24 -0.11 0.15
-34 4 24 -0.08 0.14
-32 -4 24 0.96 0.2
-32 4 24 0.97 0.19
-30 -4 24 0 0.14
-30 4 24 0.17 0.14
-28 -4 24 0.95 0.18
-26 -4 24 0.17 0.14
-24 -4 24 5.57 0.41
-22 -4 24 0.18 0.13
-22 4 24 0.34 0.27
-20 -4 24 11.96 0.65
-20 4 24 12.15 0.82
-18 -4 24 0.03 0.11
-18 4 24 0.5 0.27
-16 -4 24 8.07 0.48
-16 -4 24 8.16 0.67
-16 4 24 9.16 0.69
-14 -4 24 -0.08 0.11
-14 -4 24 -0.15 0.22
-14 4 24 -0.08 0.18
-12 -4 24 5.68 0.54
12 4 -24 6.14 0.42
-12 4 24 6.2 0.54
-10 -4 24 0.12 0.21
-10 4 24 -0.04 0.19
10 4 -24 0.15 0.13
-8 -4 24 2.59 0.4
8 4 -24 4.52 0.33
-8 4 24 3.44 0.43
-6 -4 24 -0.13 0.17
-6 4 24 -0.17 0.16
6 4 -24 0.08 0.11
-4 -4 24 2.69 0.39
4 4 -24 2.64 0.28
-4 4 24 3.35 0.42
-2 -4 24 0.02 0.19
2 4 -24 -0.14 0.11
-2 4 24 -0.03 0.17
0 -4 24 9.95 0.72
0 4 24 11.07 0.73
0 4 -24 10.22 0.6
2 -4 24 0.01 0.18
2 4 24 -0.02 0.19
-2 4 -24 -0.17 0.11
4 -4 24 3.8 0.46
4 4 24 2.84 0.41
-4 4 -24 2.83 0.3
6 -4 24 -0.17 0.17
6 4 24 -0.1 0.21
-6 4 -24 -0.04 0.12
8 -4 24 3.95 0.48
-8 4 -24 3.55 0.34
8 4 24 3.16 0.46
10 -4 24 0.33 0.23
10 4 24 0.02 0.12
10 4 24 0.16 0.22
-10 4 -24 0.19 0.14
12 -4 24 5.64 0.58
12 4 24 5.53 0.61
-12 4 -24 6.23 0.44
14 -4 24 -0.27 0.21
-14 4 -24 0.11 0.14
14 4 24 -0.04 0.22
16 -4 24 8.8 0.74
-16 4 -24 8.86 0.57
18 -4 24 0.29 0.28
20 -4 24 10.13 0.84
-40 -6 24 0.06 0.15
-38 -6 24 0.47 0.18
-36 -6 24 -0.17 0.16
-34 -6 24 -0.08 0.16
-32 -6 24 0.05 0.16
-30 -6 24 0.51 0.18
-28 -6 24 0.15 0.15
-26 -6 24 0.61 0.16
-24 -6 24 -0.1 0.13
-22 -6 24 7.95 0.51
-22 6 24 9.3 0.73
-20 -6 24 -0.13 0.11
-20 6 24 0.17 0.25
-18 -6 24 13.51 0.74
-18 6 24 15.9 0.95
-16 -6 24 -0.24 0.11
-16 6 24 0.43 0.24
-14 -6 24 7.92 0.65
-14 -6 24 6.85 0.46
-14 6 24 8.39 0.66
14 6 -24 8.84 0.53
-12 -6 24 -0.42 0.2
-12 6 24 0.2 0.22
12 6 -24 -0.13 0.13
-10 -6 24 18.38 1.08
-10 6 24 18.38 1.07
10 6 -24 20.14 0.99
-8 -6 24 -0.14 0.17
8 6 -24 -0.01 0.13
-8 6 24 -0.09 0.19
-6 -6 24 7.11 0.61
-6 6 24 6.79 0.57
6 6 -24 7.26 0.48
-4 -6 24 -0.1 0.19
-4 6 24 -0.09 0.19
4 6 -24 -0.04 0.12
-2 -6 24 0.79 0.25
-2 6 24 0.06 0.19
2 6 -24 0.34 0.15
0 -6 24 0.07 0.19
0 6 24 0.03 0.19
0 6 -24 0.08 0.13
2 -6 24 0.52 0.24
-2 6 -24 0.28 0.14
2 6 24 0.38 0.23
-2 6 -24 0.26 0.19
4 -6 24 -0.03 0.17
4 6 24 -0.03 0.19
-4 6 -24 0.01 0.13
4 6 24 -0.2 0.11
6 -6 24 6.48 0.62
-6 6 -24 6.96 0.48
6 6 24 7.33 0.49
6 6 24 7.74 0.61
8 -6 24 -0.05 0.21
8 6 24 -0.11 0.12
8 6 24 -0.21 0.22
-8 6 -24 -0.13 0.12
10 -6 24 18.28 1.12
-10 6 -24 20.14 0.99
10 6 24 19.06 0.99
10 6 24 17.31 1.09
12 -6 24 0.12 0.24
12 6 24 0.36 0.24
12 6 24 -0.1 0.13
-12 6 -24 -0.14 0.12
14 -6 24 7.44 0.7
-14 6 -24 8.01 0.54
14 6 24 8.75 0.56
16 -6 24 0.01 0.24
-16 6 -24 0.06 0.14
18 -6 24 15.53 1.04
-18 6 -24 14.61 0.83
20 -6 24 -0.17 0.23
-40 -8 24 -0.15 0.13
-38 -8 24 -0.21 0.15
-36 -8 24 -0.31 0.15
-34 -8 24 0 0.17
-32 -8 24 -0.24 0.16
-30 -8 24 -0.05 0.16
-28 -8 24 0.79 0.19
-26 -8 24 -0.1 0.14
-24 -8 24 0.62 0.17
-22 -8 24 -0.13 0.12
-22 8 24 0.17 0.27
-20 -8 24 0.56 0.15
-20 8 24 1.39 0.35
-18 -8 24 -0.11 0.11
-18 8 24 0.21 0.25
18 8 -24 -0.16 0.14
-16 -8 24 0.1 0.12
16 8 -24 0.32 0.19
-16 8 24 0.71 0.29
-14 -8 24 -0.16 0.1
-14 -8 24 -0.3 0.22
-14 8 24 -0.01 0.25
14 8 -24 -0.31 0.14
-12 -8 24 0.01 0.21
-12 -8 24 0.08 0.11
-12 8 24 0.27 0.23
12 8 -24 0.01 0.16
-10 -8 24 -0.25 0.22
-10 8 24 -0.23 0.18
10 8 -24 -0.17 0.15
-8 -8 24 3.66 0.46
8 8 -24 4.62 0.39
-8 8 24 3.56 0.45
-6 -8 24 0 0.21
6 8 -24 0.16 0.15
-6 8 24 0.09 0.2
-4 -8 24 3.65 0.45
-4 8 24 3.32 0.43
4 8 -24 4.04 0.37
4 8 -24 3.39 0.41
-2 -8 24 -0.11 0.19
-2 8 24 0 0.2
2 8 -24 -0.03 0.16
2 8 -24 -0.05 0.14
0 -8 24 2.14 0.36
0 8 -24 2.36 0.28
0 8 24 2.34 0.36
0 8 -24 1.82 0.31
2 -8 24 0.12 0.19
2 8 24 -0.01 0.18
-2 8 -24 0.04 0.15
2 8 24 0.05 0.13
-2 8 -24 -0.07 0.14
4 -8 24 3.69 0.47
-4 8 -24 3.72 0.43
4 8 24 3.69 0.47
4 8 24 3.89 0.35
-4 8 -24 3.99 0.36
6 -8 24 0.02 0.2
6 8 24 -0.35 0.2
-6 8 -24 -0.04 0.17
-6 8 -24 -0.1 0.13
6 8 24 -0.09 0.12
8 -8 24 3.34 0.48
-8 8 -24 3.22 0.42
-8 8 -24 3.56 0.36
8 8 24 3.43 0.46
8 8 24 3.83 0.36
10 -8 24 -0.08 0.22
10 8 24 -0.24 0.19
-10 8 -24 0.1 0.14
10 8 24 -0.15 0.12
12 -8 24 -0.17 0.22
12 8 24 0.07 0.15
-12 8 -24 0.28 0.16
14 -8 24 0.12 0.25
-14 8 -24 -0.09 0.13
14 8 24 -0.13 0.14
16 -8 24 0.37 0.29
16 8 24 0.26 0.17
-16 8 -24 0.43 0.18
18 -8 24 -0.53 0.23
-18 8 -24 0.02 0.14
20 -8 24 1.04 0.35
-20 8 -24 0.72 0.21
22 -8 24 0.15 0.28
-40 -10 24 -0.05 0.14
-38 -10 24 0.32 0.17
-36 -10 24 -0.19 0.17
-34 -10 24 0.95 0.22
-32 -10 24 -0.09 0.17
-30 -10 24 0.38 0.19
-28 -10 24 -0.13 0.15
-26 -10 24 0.2 0.16
-24 -10 24 -0.09 0.13
-22 -10 24 0.02 0.13
-22 10 24 -0.03 0.27
-20 -10 24 -0.07 0.12
20 10 -24 0.02 0.16
-20 10 24 0.04 0.22
-18 -10 24 0.07 0.12
-18 10 24 0.06 0.25
18 10 -24 -0.07 0.16
-16 -10 24 0.05 0.12
16 10 -24 -0.39 0.15
-16 10 24 0.07 0.25
-14 -10 24 0.49 0.15
-14 10 24 0.67 0.27
14 10 -24 0.48 0.2
-12 -10 24 0.02 0.12
-12 -10 24 -0.04 0.22
-12 10 24 -0.02 0.24
12 10 -24 -0.16 0.16
-10 -10 24 8.06 0.68
-10 -10 24 8.31 0.52
10 10 -24 10.24 0.62
-10 10 24 9.37 0.69
-8 -10 24 -0.25 0.22
-8 10 24 -0.04 0.23
8 10 -24 -0.07 0.15
-6 -10 24 18.39 1.07
6 10 -24 19.9 1.02
-6 10 24 17.75 1.05
-4 -10 24 0.43 0.26
4 10 -24 0.05 0.16
-4 10 24 0.17 0.21
-2 -10 24 31.75 1.63
2 10 -24 32.93 1.6
-2 10 24 34.04 1.63
0 -10 24 0.34 0.23
0 10 -24 0.12 0.19
0 10 24 0.1 0.14
0 10 -24 0.16 0.17
0 10 24 0.33 0.22
2 -10 24 32.39 1.65
2 10 24 33.22 1.59
2 10 24 34.87 1.66
-2 10 -24 32.69 1.59
-2 10 -24 31.88 1.71
4 -10 24 0.14 0.21
-4 10 -24 -0.11 0.18
-4 10 -24 0.02 0.14
4 10 24 -0.19 0.21
4 10 24 0.05 0.14
6 -10 24 17.69 1.09
6 10 24 18.9 0.99
6 10 24 19.82 1.09
-6 10 -24 19.29 0.99
-6 10 -24 16.49 1.09
8 -10 24 0.26 0.25
8 10 24 -0.09 0.15
-8 10 -24 0.1 0.2
8 10 24 0.02 0.19
-8 10 -24 -0.25 0.13
10 -10 24 7.69 0.73
10 10 24 8.64 0.59
-10 10 -24 9.16 0.58
-10 10 -24 8.27 0.69
10 10 24 8.64 0.69
12 -10 24 -0.13 0.28
12 10 24 -0.2 0.15
-12 10 -24 -0.26 0.19
-12 10 -24 -0.08 0.13
14 -10 24 0.44 0.3
-14 10 -24 1.05 0.22
14 10 24 0.63 0.22
16 -10 24 -0.28 0.25
16 10 24 -0.02 0.16
-16 10 -24 -0.02 0.14
18 -10 24 -0.02 0.24
-18 10 -24 0.03 0.16
18 10 24 0.05 0.17
20 -10 24 -0.29 0.26
-20 10 -24 -0.05 0.15
22 -10 24 0.15 0.28
-22 10 -24 0.1 0.18
-40 -12 24 0.34 0.15
-38 -12 24 -0.02 0.15
-36 -12 24 0.44 0.18
-34 -12 24 0.15 0.18
-32 -12 24 0.4 0.2
-30 -12 24 -0.08 0.18
-28 -12 24 0 0.18
-26 -12 24 0.08 0.17
-24 -12 24 0.19 0.16
-22 -12 24 -0.07 0.14
-20 -12 24 2.41 0.26
20 12 -24 2.91 0.37
-20 12 24 2.76 0.46
-18 -12 24 -0.01 0.11
18 12 -24 -0.1 0.17
-18 12 24 -0.1 0.23
-16 -12 24 4.54 0.35
16 12 -24 4.02 0.42
-16 12 24 3.57 0.48
-14 -12 24 -0.15 0.12
-14 12 24 -0.09 0.21
14 12 -24 -0.35 0.16
-12 -12 24 2.1 0.24
12 12 -24 1.85 0.29
-12 12 24 2.3 0.39
-10 -12 24 0.1 0.13
-10 -12 24 0.06 0.22
-10 12 24 -0.16 0.2
10 12 -24 0.02 0.17
-8 -12 24 0.13 0.2
-8 -12 24 0.07 0.12
8 12 -24 0.19 0.18
-8 12 24 0.18 0.23
-6 -12 24 -0.1 0.21
-6 -12 24 -0.07 0.12
6 12 -24 0.2 0.17
-6 12 24 -0.25 0.18
-4 -12 24 5.03 0.57
-4 -12 24 5.35 0.42
4 12 -24 5.72 0.47
-4 12 24 5.77 0.53
-2 -12 24 -0.04 0.22
2 12 -24 -0.02 0.18
2 12 -24 0.28 0.17
-2 12 24 0.39 0.24
-2 12 24 0.12 0.15
0 -12 24 18.06 1.07
0 12 -24 19.37 1.01
0 12 24 18.08 1.06
0 12 24 18.89 0.99
0 12 -24 17.48 1.1
2 -12 24 0.28 0.25
-2 12 -24 0.18 0.21
2 12 24 -0.1 0.21
2 12 24 0.13 0.14
-2 12 -24 0.16 0.16
4 -12 24 5.81 0.56
-4 12 -24 5.59 0.55
-4 12 -24 6.11 0.48
4 12 24 6.19 0.47
4 12 24 5.85 0.57
6 -12 24 0.26 0.24
6 12 24 0.02 0.15
6 12 24 -0.2 0.22
-6 12 -24 -0.06 0.15
-6 12 -24 -0.19 0.18
8 -12 24 0.14 0.12
8 -12 24 0.19 0.28
8 12 24 -0.04 0.2
-8 12 -24 0.15 0.16
-8 12 -24 0.27 0.22
8 12 24 0.1 0.16
10 -12 24 0 0.12
10 -12 24 -0.29 0.27
-10 12 -24 0.01 0.15
-10 12 -24 -0.15 0.18
10 12 24 0 0.15
12 -12 24 1.69 0.41
12 -12 24 1.64 0.2
-12 12 -24 2.19 0.38
12 12 24 1.9 0.28
-12 12 -24 1.58 0.26
14 -12 24 -0.3 0.23
14 -12 24 -0.18 0.12
14 12 24 -0.07 0.15
-14 12 -24 0.03 0.21
-14 12 -24 -0.05 0.15
16 -12 24 3.66 0.56
-16 12 -24 3.36 0.38
16 12 24 4.13 0.42
18 -12 24 0.06 0.28
18 12 24 -0.23 0.15
-18 12 -24 -0.24 0.14
20 -12 24 1.83 0.44
-20 12 -24 2.27 0.33
20 12 24 2.02 0.31
-22 12 -24 -0.05 0.16
-24 12 -24 0.13 0.19
-38 -14 24 1.99 0.24
-36 -14 24 -0.05 0.16
-34 -14 24 2.93 0.3
-32 -14 24 -0.16 0.17
-30 -14 24 1.59 0.26
-28 -14 24 -0.17 0.17
-26 -14 24 0.1 0.18
-24 -14 24 0 0.16
-22 -14 24 0.87 0.19
22 14 -24 1.15 0.25
-20 -14 24 -0.09 0.12
20 14 -24 -0.14 0.17
-18 -14 24 5.59 0.43
-18 14 24 6.62 0.67
18 14 -24 5.87 0.52
-16 -14 24 0.18 0.13
-16 14 24 -0.15 0.25
16 14 -24 -0.04 0.18
-14 -14 24 3.14 0.31
-14 14 24 2.29 0.4
14 14 -24 1.78 0.3
-12 -14 24 -0.09 0.12
-12 14 24 -0.11 0.23
12 14 -24 -0.06 0.16
-10 -14 24 0.4 0.14
10 14 -24 0.63 0.22
-10 14 24 0.88 0.3
-8 -14 24 -0.42 0.19
-8 -14 24 -0.15 0.11
8 14 -24 -0.06 0.16
-8 14 24 -0.19 0.18
-6 -14 24 8.16 0.52
-6 -14 24 7.29 0.64
-6 14 24 8.5 0.65
6 14 -24 9.41 0.61
-4 -14 24 -0.05 0.12
-4 -14 24 0.05 0.24
-4 14 24 -0.06 0.14
4 14 -24 -0.11 0.15
-4 14 24 0.29 0.22
-2 -14 24 31.87 1.57
-2 -14 24 32.58 1.67
-2 14 24 33.87 1.61
2 14 -24 36.11 1.65
-2 14 24 33.62 1.65
2 14 -24 30.93 1.73
0 -14 24 0.39 0.24
0 -14 24 0.07 0.14
0 14 -24 0.17 0.17
0 14 24 0.39 0.25
0 14 24 0.09 0.15
0 14 -24 0.15 0.22
2 -14 24 30.84 1.66
2 -14 24 29.98 1.56
2 14 24 35.06 1.67
-2 14 -24 31.95 1.75
2 14 24 36.65 1.64
-2 14 -24 35.12 1.63
4 -14 24 -0.1 0.19
4 -14 24 -0.01 0.11
-4 14 -24 0.17 0.16
4 14 24 -0.01 0.22
-4 14 -24 0.27 0.22
4 14 24 0.14 0.16
6 -14 24 7.52 0.67
6 -14 24 7 0.48
-6 14 -24 9.02 0.7
6 14 24 8.68 0.57
6 14 24 7.04 0.61
-6 14 -24 8.36 0.56
8 -14 24 -0.08 0.24
8 -14 24 -0.01 0.11
-8 14 -24 -0.17 0.18
-8 14 -24 -0.18 0.13
8 14 24 -0.03 0.15
10 -14 24 0.4 0.15
10 -14 24 0.45 0.3
-10 14 -24 0.74 0.2
-10 14 -24 0.51 0.25
10 14 24 0.47 0.19
12 -14 24 -0.17 0.23
12 -14 24 -0.16 0.11
-12 14 -24 -0.12 0.14
-12 14 -24 -0.15 0.21
12 14 24 -0.05 0.16
14 -14 24 2.57 0.49
14 -14 24 2.26 0.24
-14 14 -24 3.33 0.44
-14 14 -24 1.71 0.28
14 14 24 2.42 0.33
16 -14 24 -0.09 0.13
16 -14 24 0.13 0.29
-16 14 -24 0.28 0.23
-16 14 -24 -0.03 0.15
16 14 24 -0.01 0.17
18 -14 24 5.36 0.4
18 -14 24 4.46 0.65
18 14 24 4.86 0.48
-18 14 -24 5.28 0.48
20 -14 24 0 0.13
20 14 24 -0.07 0.17
-20 14 -24 -0.01 0.16
22 -14 24 0.9 0.19
-22 14 -24 0.96 0.25
24 -14 24 -0.1 0.14
-24 14 -24 0.04 0.19
26 -14 24 -0.1 0.15
-26 14 -24 0.09 0.21
28 -14 24 -0.02 0.16
-38 -16 24 0.25 0.15
-36 -16 24 2.14 0.25
-34 -16 24 0.44 0.18
-32 -16 24 1.45 0.24
-30 -16 24 0.07 0.18
-28 -16 24 -0.01 0.18
-26 -16 24 -0.02 0.17
-24 -16 24 1.59 0.24
-22 -16 24 0.11 0.16
22 16 -24 -0.24 0.17
-20 -16 24 12.93 0.76
20 16 -24 14.1 0.84
-18 -16 24 0.15 0.14
18 16 -24 0.15 0.19
-16 -16 24 14.96 0.81
16 16 -24 15.37 0.89
-16 16 24 13.62 0.97
-14 -16 24 0.12 0.13
14 16 -24 0.04 0.18
-14 16 24 0.16 0.26
-12 -16 24 5.11 0.41
12 16 -24 4.66 0.47
-12 16 24 4.96 0.56
-10 -16 24 0.13 0.13
-10 16 24 -0.08 0.22
10 16 -24 -0.01 0.17
-8 -16 24 0.15 0.14
8 16 -24 0.52 0.21
-8 16 24 0.4 0.24
-6 -16 24 -0.15 0.2
-6 -16 24 0.02 0.14
6 16 -24 0.01 0.16
-6 16 24 -0.08 0.2
-4 -16 24 9.21 0.57
-4 -16 24 9.01 0.7
4 16 -24 8.81 0.63
-4 16 24 9.94 0.62
-4 16 24 8.25 0.67
-2 -16 24 -0.07 0.24
-2 -16 24 0.18 0.15
2 16 -24 0.28 0.19
-2 16 24 0.43 0.17
-2 16 24 0.23 0.23
0 -16 24 27.59 1.51
0 -16 24 27.91 1.39
0 16 24 30.72 1.45
0 16 24 28.85 1.48
0 16 -24 26.95 1.56
0 16 -24 29.86 1.46
2 -16 24 0.33 0.25
2 -16 24 0.18 0.14
-2 16 -24 0.23 0.17
2 16 24 0.18 0.24
-2 16 -24 -0.01 0.21
2 16 24 0.45 0.18
4 -16 24 8.9 0.74
4 -16 24 8.09 0.53
4 16 24 9.31 0.61
4 16 24 8.13 0.68
-4 16 -24 8.97 0.72
-4 16 -24 9.21 0.6
6 -16 24 0.06 0.13
6 -16 24 -0.06 0.21
-6 16 -24 0.04 0.14
6 16 24 0.06 0.16
-6 16 -24 0 0.2
8 -16 24 0.42 0.15
8 -16 24 0.38 0.28
-8 16 -24 0.28 0.24
-8 16 -24 0.45 0.18
8 16 24 0.34 0.19
10 -16 24 -0.02 0.12
10 -16 24 0.08 0.25
10 16 24 0.03 0.16
-10 16 -24 0.02 0.22
-10 16 -24 0.05 0.15
12 -16 24 4.08 0.35
12 -16 24 4.87 0.64
-12 16 -24 4.5 0.54
12 16 24 4.59 0.44
-12 16 -24 4.28 0.41
14 -16 24 -0.18 0.27
14 -16 24 0.13 0.13
-14 16 -24 0.12 0.16
14 16 24 -0.09 0.16
-14 16 -24 0.25 0.24
16 -16 24 13.05 0.72
16 -16 24 13.86 1.01
-16 16 -24 13.15 0.81
-16 16 -24 11.72 0.9
16 16 24 13.04 0.82
18 -16 24 0.09 0.15
18 16 24 0.07 0.18
-18 16 -24 -0.07 0.16
-18 16 -24 0.15 0.24
20 -16 24 11.46 0.68
20 16 24 11.62 0.78
-20 16 -24 12.91 0.79
22 -16 24 0.23 0.16
-22 16 -24 0.17 0.18
22 16 24 -0.21 0.18
24 -16 24 1.38 0.22
-24 16 -24 1.99 0.32
26 -16 24 0.03 0.16
28 -16 24 0.09 0.16
30 -16 24 0.05 0.16
-32 16 -24 1.33 0.19
-38 -18 24 1.77 0.23
-36 -18 24 0.12 0.16
-34 -18 24 2.45 0.28
-32 -18 24 -0.15 0.17
-30 -18 24 0.62 0.2
-28 -18 24 0.01 0.17
-26 -18 24 0 0.17
-24 -18 24 0.07 0.16
-22 -18 24 5.42 0.46
22 18 -24 6.06 0.54
-20 -18 24 0.03 0.16
20 18 -24 0.34 0.21
-18 -18 24 12.48 0.75
18 18 -24 12.81 0.8
-16 -18 24 0.18 0.16
16 18 -24 0.26 0.2
-14 -18 24 6.16 0.45
14 18 -24 4.97 0.51
-14 18 24 4.84 0.58
-12 -18 24 -0.08 0.11
12 18 -24 -0.18 0.16
-12 18 24 0.2 0.24
-10 -18 24 0.11 0.12
10 18 -24 0.28 0.2
-10 18 24 0.39 0.24
-8 -18 24 -0.04 0.13
8 18 -24 -0.17 0.17
-8 18 24 -0.18 0.21
-6 -18 24 15.89 0.86
-6 18 24 14.93 0.95
6 18 -24 16.4 0.94
-4 -18 24 -0.02 0.15
-4 -18 24 0.22 0.27
-4 18 24 0 0.16
4 18 -24 -0.13 0.17
-4 18 24 0.05 0.25
-2 -18 24 54.83 2.66
-2 -18 24 54.78 2.64
-2 18 24 60.18 2.68
-2 18 24 57.16 2.63
2 18 -24 60.69 2.71
0 -18 24 0.31 0.17
0 -18 24 0.88 0.3
0 18 24 0.1 0.22
0 18 -24 -0.13 0.23
0 18 24 0.23 0.19
0 18 -24 0.1 0.21
2 -18 24 52.95 2.53
2 -18 24 53.14 2.58
2 18 24 60.83 2.59
-2 18 -24 49.48 2.7
-2 18 -24 60.64 2.6
2 18 24 52.53 2.51
4 -18 24 0.2 0.27
4 -18 24 -0.2 0.14
4 18 24 0.2 0.18
-4 18 -24 0.05 0.16
-4 18 -24 0.01 0.21
6 -18 24 15.18 0.82
6 -18 24 14.42 0.99
-6 18 -24 15.94 0.89
-6 18 -24 14.01 1
6 18 24 15.73 0.89
8 -18 24 -0.23 0.25
8 -18 24 -0.06 0.13
-8 18 -24 -0.3 0.19
8 18 24 0.07 0.15
-8 18 -24 0.06 0.15
10 -18 24 -0.11 0.12
10 -18 24 -0.51 0.2
-10 18 -24 -0.13 0.19
10 18 24 -0.07 0.15
-10 18 -24 0.03 0.16
12 -18 24 -0.14 0.12
12 -18 24 -0.03 0.27
-12 18 -24 -0.01 0.14
-12 18 -24 -0.31 0.21
12 18 24 -0.13 0.15
14 -18 24 4.62 0.38
14 -18 24 3.97 0.58
-14 18 -24 5.88 0.6
-14 18 -24 5 0.46
14 18 24 4.58 0.47
16 -18 24 0.35 0.16
-16 18 -24 0.11 0.23
16 18 24 -0.05 0.17
-16 18 -24 0.1 0.17
18 -18 24 10.96 0.66
-18 18 -24 11.19 0.75
18 18 24 11.21 0.75
-18 18 -24 10.44 0.87
20 -18 24 0.09 0.16
-20 18 -24 0.21 0.19
20 18 24 0.03 0.19
22 -18 24 4.82 0.41
-22 18 -24 5.39 0.52
22 18 24 4.85 0.51
24 -18 24 0.17 0.16
-24 18 -24 0.19 0.23
26 -18 24 0.23 0.17
28 -18 24 0.05 0.16
30 -18 24 0.89 0.2
-32 18 -24 -0.05 0.13
-34 18 -24 3.11 0.32
-36 -20 24 1.59 0.22
-34 -20 24 0.23 0.17
-32 -20 24 1 0.22
-30 -20 24 -0.07 0.17
-28 -20 24 -0.19 0.16
-26 -20 24 -0.09 0.17
-24 -20 24 2.35 0.28
-22 -20 24 0.12 0.17
22 20 -24 0.2 0.21
-20 -20 24 14.05 0.83
20 20 -24 15.71 0.92
-18 -20 24 0.14 0.17
18 20 -24 0.12 0.18
-16 -20 24 12.72 0.77
16 20 -24 13.94 0.84
-14 -20 24 0.13 0.17
14 20 -24 0.23 0.2
-12 -20 24 2.38 0.28
-12 20 24 3.01 0.47
12 20 -24 2.39 0.35
-10 -20 24 -0.13 0.14
10 20 -24 -0.11 0.18
-10 20 24 -0.01 0.24
-8 -20 24 0.69 0.18
-8 20 24 0.66 0.27
8 20 -24 0.86 0.25
-6 -20 24 0.07 0.15
-6 20 24 -0.32 0.14
6 20 -24 0.04 0.18
-6 20 24 0.43 0.26
-4 -20 24 13.53 0.76
4 20 -24 12.45 0.82
-4 20 24 12.07 0.86
-4 20 24 13.81 0.8
-2 -20 24 0.4 0.3
-2 -20 24 0.24 0.15
-2 20 24 0.32 0.23
-2 20 24 0.33 0.19
2 20 -24 0.37 0.21
0 -20 24 36.16 1.74
0 -20 24 34.8 1.83
0 20 -24 34.3 1.92
0 20 24 40.34 1.8
0 20 -24 35.33 1.79
0 20 24 35.95 1.79
2 -20 24 0.24 0.17
2 -20 24 0.76 0.31
2 20 24 0.75 0.22
-2 20 -24 0.6 0.28
-2 20 -24 0.33 0.19
4 -20 24 11.42 0.89
4 -20 24 12.72 0.73
4 20 24 12.68 0.78
-4 20 -24 12.56 0.78
-4 20 -24 13.22 0.92
6 -20 24 -0.3 0.25
6 -20 24 0.02 0.15
-6 20 -24 0.17 0.22
6 20 24 0.09 0.16
-6 20 -24 -0.11 0.14
8 -20 24 0.24 0.16
8 -20 24 0.79 0.35
8 20 24 0.62 0.21
-8 20 -24 0.53 0.28
-8 20 -24 0.73 0.2
10 -20 24 -0.26 0.13
10 -20 24 0.08 0.24
-10 20 -24 -0.12 0.14
-10 20 -24 -0.08 0.21
10 20 24 -0.03 0.16
12 -20 24 2.01 0.25
12 -20 24 1.93 0.45
-12 20 -24 2.2 0.43
-12 20 -24 2.41 0.32
12 20 24 2.53 0.35
14 -20 24 0.28 0.16
-14 20 -24 0.21 0.25
14 20 24 -0.06 0.18
-14 20 -24 -0.03 0.17
16 -20 24 10.77 0.68
16 20 24 11.2 0.77
-16 20 -24 12.85 0.79
18 -20 24 0.25 0.17
-18 20 -24 0.25 0.2
18 20 24 0.02 0.19
20 -20 24 12.68 0.75
20 20 24 12.73 0.84
-20 20 -24 13.47 0.85
22 -20 24 0.06 0.16
22 20 24 0.02 0.2
-22 20 -24 0.04 0.19
24 -20 24 1.98 0.26
26 -20 24 -0.02 0.15
28 -20 24 0.08 0.16
30 -20 24 0.06 0.16
-32 20 -24 0.99 0.18
-34 20 -24 0.2 0.13
-34 -22 24 1.21 0.21
-32 -22 24 -0.18 0.17
-30 -22 24 0.55 0.2
-28 -22 24 -0.34 0.15
-26 -22 24 -0.27 0.15
-24 -22 24 0 0.17
-22 -22 24 2.23 0.29
-20 -22 24 0.13 0.17
20 22 -24 0.01 0.19
-18 -22 24 5.53 0.47
18 22 -24 5.14 0.5
-16 -22 24 0.07 0.17
16 22 -24 0.19 0.2
-14 -22 24 1.13 0.23
14 22 -24 1.27 0.29
-12 -22 24 -0.1 0.16
12 22 -24 -0.17 0.17
-10 -22 24 0.21 0.16
10 22 -24 0.33 0.23
-8 -22 24 -0.09 0.14
8 22 -24 -0.19 0.19
-8 22 24 0.03 0.23
-6 -22 24 9.47 0.61
-6 22 24 9.01 0.73
-6 22 24 9.56 0.65
6 22 -24 9.33 0.69
-4 -22 24 0.01 0.18
-4 22 24 0.08 0.18
-4 22 24 -0.17 0.23
4 22 -24 -0.01 0.2
-2 -22 24 35.62 1.7
-2 22 24 36.19 1.74
-2 22 24 34.78 1.75
2 22 -24 29.91 1.84
2 22 -24 38.29 1.79
0 -22 24 0.45 0.32
0 -22 24 0.66 0.2
0 22 24 0.4 0.21
0 22 -24 0.3 0.28
0 22 -24 0.26 0.2
2 -22 24 31.15 1.76
2 -22 24 34.89 1.69
-2 22 -24 36.81 1.75
2 22 24 38.36 1.74
-2 22 -24 31.47 1.86
4 -22 24 0.55 0.3
4 -22 24 0.16 0.18
4 22 24 0.06 0.17
-4 22 -24 0.15 0.24
-4 22 -24 0.28 0.19
6 -22 24 7.77 0.57
6 -22 24 8.42 0.76
6 22 24 10.11 0.65
-6 22 -24 8.77 0.75
-6 22 -24 9.23 0.64
8 -22 24 -0.03 0.27
8 -22 24 -0.13 0.15
-8 22 -24 -0.16 0.21
8 22 24 0.05 0.17
-8 22 -24 0.09 0.16
10 -22 24 -0.1 0.15
-10 22 -24 0.33 0.24
10 22 24 0.04 0.18
-10 22 -24 0.05 0.17
12 -22 24 0.04 0.16
-12 22 -24 -0.08 0.15
-12 22 -24 -0.06 0.24
12 22 24 -0.02 0.17
14 -22 24 1.27 0.23
-14 22 -24 0.98 0.26
14 22 24 0.84 0.25
16 -22 24 0.26 0.19
16 22 24 0.05 0.2
-16 22 -24 0.12 0.19
18 -22 24 4.27 0.43
-18 22 -24 5.34 0.51
18 22 24 5.02 0.51
20 -22 24 0.06 0.18
20 22 24 -0.12 0.19
-20 22 -24 0.01 0.19
22 -22 24 1.84 0.25
24 -22 24 -0.15 0.16
26 -22 24 -0.19 0.15
28 -22 24 -0.19 0.15
30 -22 24 0.76 0.19
-32 22 -24 -0.38 0.12
-34 22 -24 1.21 0.18
-34 -24 24 0.27 0.15
-32 -24 24 0.35 0.18
-30 -24 24 0.01 0.16
-28 -24 24 -0.03 0.17
-26 -24 24 -0.19 0.17
-24 -24 24 0.27 0.18
-22 -24 24 -0.08 0.16
-20 -24 24 3.06 0.32
-18 -24 24 -0.02 0.17
-16 -24 24 1.62 0.26
16 24 -24 2.14 0.34
-14 -24 24 -0.12 0.17
14 24 -24 -0.11 0.19
-12 -24 24 -0.03 0.17
12 24 -24 0.15 0.21
-10 -24 24 -0.17 0.17
10 24 -24 -0.06 0.19
-8 -24 24 1 0.22
8 24 -24 0.55 0.26
-6 -24 24 -0.12 0.17
6 24 -24 -0.24 0.18
-6 24 24 -0.11 0.17
-4 -24 24 6.39 0.5
-4 24 24 5.61 0.51
4 24 -24 5.26 0.54
-4 24 24 6.63 0.64
-2 -24 24 0.2 0.17
-2 24 24 -0.23 0.15
2 24 -24 -0.12 0.23
2 24 -24 0.32 0.21
0 -24 24 17.31 0.91
0 24 -24 15.34 0.96
0 24 -24 14.11 1.05
0 24 24 15.7 0.93
2 -24 24 0.07 0.31
2 -24 24 0.2 0.19
-2 24 -24 0.16 0.25
2 24 24 -0.04 0.18
-2 24 -24 0.15 0.2
4 -24 24 5.74 0.5
4 -24 24 4.61 0.69
4 24 24 6.03 0.52
-4 24 -24 5.75 0.63
-4 24 -24 5.8 0.52
6 -24 24 -0.11 0.16
-6 24 -24 -0.07 0.16
-6 24 -24 0.11 0.25
6 24 24 0.1 0.18
8 -24 24 0.73 0.2
8 24 24 0.96 0.25
-8 24 -24 0.88 0.24
10 -24 24 -0.16 0.15
10 24 24 -0.3 0.14
-10 24 -24 0.1 0.18
12 -24 24 -0.11 0.17
12 24 24 0.11 0.18
-12 24 -24 0.05 0.18
14 -24 24 -0.24 0.17
-14 24 -24 -0.07 0.17
14 24 24 0.01 0.18
16 -24 24 1.37 0.26
16 24 24 1.81 0.33
-16 24 -24 2.44 0.36
18 -24 24 -0.03 0.17
-18 24 -24 0.13 0.21
20 -24 24 2.1 0.28
22 -24 24 -0.26 0.16
24 -24 24 0.1 0.18
26 -24 24 -0.13 0.16
28 -24 24 -0.01 0.16
30 -24 24 -0.08 0.15
-32 24 -24 0.2 0.14
-32 -26 24 -0.09 0.15
-30 -26 24 0.28 0.18
-28 -26 24 -0.05 0.17
-26 -26 24 0.33 0.19
-24 -26 24 -0.17 0.17
-22 -26 24 -0.07 0.17
-20 -26 24 -0.06 0.16
-18 -26 24 0.34 0.19
-16 -26 24 0.24 0.19
-14 -26 24 0.24 0.19
14 26 -24 0.09 0.22
-12 -26 24 -0.08 0.18
12 26 -24 -0.17 0.19
-10 -26 24 0.32 0.2
10 26 -24 0.28 0.23
-8 -26 24 0.14 0.2
8 26 -24 -0.1 0.2
-6 -26 24 0.42 0.21
6 26 -24 0.59 0.25
-6 26 24 0.4 0.21
-4 -26 24 0.03 0.19
-4 26 24 0.11 0.18
4 26 -24 0.03 0.2
-2 -26 24 4.64 0.48
2 26 -24 5.14 0.53
-2 26 24 4.4 0.47
0 -26 24 -0.06 0.18
0 26 -24 0.18 0.21
0 26 24 0.18 0.2
2 -26 24 4.24 0.48
2 26 24 5.08 0.5
-2 26 -24 5.22 0.51
4 -26 24 -0.13 0.2
4 26 24 -0.04 0.18
-4 26 -24 0.09 0.18
6 -26 24 0.47 0.22
6 26 24 0.55 0.23
-6 26 -24 0.63 0.24
8 -26 24 -0.15 0.18
8 26 24 0.01 0.18
-8 26 -24 0.28 0.2
10 -26 24 -0.04 0.2
-10 26 -24 0.23 0.2
10 26 24 0.39 0.22
12 -26 24 0.04 0.19
12 26 24 -0.1 0.18
-12 26 -24 0.05 0.19
14 -26 24 -0.08 0.19
-14 26 -24 0.12 0.2
14 26 24 0.16 0.19
16 -26 24 -0.47 0.18
18 -26 24 -0.12 0.19
20 -26 24 -0.37 0.17
22 -26 24 -0.21 0.17
24 -26 24 -0.18 0.16
26 -26 24 0.15 0.17
28 -26 24 -0.31 0.15
30 -26 24 0.14 0.15
-32 26 -24 -0.01 0.12
-30 -28 24 -0.17 0.15
-28 -28 24 0.21 0.18
-26 -28 24 -0.21 0.17
-24 -28 24 0.01 0.18
-22 -28 24 -0.05 0.18
-20 -28 24 -0.11 0.17
-18 -28 24 -0.09 0.17
-16 -28 24 0.07 0.18
-14 -28 24 0.03 0.18
-12 -28 24 0 0.19
-10 -28 24 0.06 0.19
10 28 -24 0.03 0.22
-8 -28 24 0.54 0.22
8 28 -24 1.08 0.29
-6 -28 24 0.08 0.2
6 28 -24 -0.07 0.2
-4 -28 24 0.91 0.24
4 28 -24 1.19 0.3
-4 28 24 1.29 0.28
-2 -28 24 0.08 0.2
2 28 -24 0.12 0.2
-2 28 24 -0.05 0.18
0 -28 24 0.48 0.22
0 28 -24 0.47 0.22
0 28 24 0.31 0.21
2 -28 24 -0.01 0.21
-2 28 -24 -0.21 0.17
2 28 24 0.05 0.2
4 -28 24 1.12 0.26
-4 28 -24 1.21 0.29
4 28 24 1.38 0.3
6 -28 24 -0.03 0.2
-6 28 -24 -0.26 0.18
6 28 24 0.04 0.2
8 -28 24 0.78 0.24
8 28 24 1.07 0.28
-8 28 -24 0.82 0.26
10 -28 24 -0.16 0.2
-10 28 -24 -0.03 0.19
10 28 24 -0.07 0.19
12 -28 24 0.05 0.2
14 -28 24 -0.41 0.19
16 -28 24 -0.24 0.2
18 -28 24 -0.24 0.19
20 -28 24 -0.14 0.18
22 -28 24 -0.22 0.17
24 -28 24 0.02 0.17
26 -28 24 -0.13 0.16
28 -28 24 0.01 0.16
30 -28 24 -0.09 0.14
-28 -30 24 0.02 0.15
-26 -30 24 0.24 0.17
-24 -30 24 -0.26 0.16
-22 -30 24 0.37 0.19
-20 -30 24 -0.03 0.17
-18 -30 24 0.91 0.23
-16 -30 24 0.19 0.19
-14 -30 24 1.5 0.26
-12 -30 24 -0.16 0.18
-10 -30 24 0.14 0.2
-8 -30 24 -0.12 0.2
-6 -30 24 0.34 0.22
-4 -30 24 -0.2 0.2
-2 -30 24 0.76 0.25
0 -30 24 -0.27 0.21
0 30 -24 0 0.24
2 -30 24 0.8 0.24
4 -30 24 -0.05 0.2
6 -30 24 0.56 0.23
8 -30 24 -0.1 0.2
10 -30 24 0.12 0.21
12 -30 24 0 0.21
14 -30 24 1.37 0.27
16 -30 24 0.19 0.21
18 -30 24 0.71 0.23
20 -30 24 0.09 0.19
22 -30 24 0.71 0.21
24 -30 24 0.17 0.18
26 -30 24 -0.03 0.16
28 -30 24 0.1 0.15
-26 -32 24 -0.05 0.15
-24 -32 24 0.45 0.18
-22 -32 24 -0.02 0.17
-20 -32 24 1.14 0.23
-18 -32 24 -0.21 0.17
-16 -32 24 1.55 0.26
-14 -32 24 0.14 0.19
-12 -32 24 0.6 0.22
-10 -32 24 -0.04 0.19
-8 -32 24 0.22 0.21
-6 -32 24 -0.41 0.19
-4 -32 24 0.54 0.23
-2 -32 24 -0.13 0.2
0 -32 24 0.73 0.25
2 -32 24 0.09 0.21
4 -32 24 0.86 0.24
6 -32 24 0.06 0.2
8 -32 24 0.03 0.2
10 -32 24 -0.21 0.19
12 -32 24 0.59 0.23
14 -32 24 -0.29 0.19
16 -32 24 1.62 0.26
18 -32 24 -0.07 0.19
20 -32 24 1.08 0.23
22 -32 24 -0.17 0.16
24 -32 24 0.32 0.18
26 -32 24 0.02 0.16
-24 -34 24 0.15 0.14
-22 -34 24 1.09 0.2
-20 -34 24 0.11 0.16
-18 -34 24 2.46 0.28
-16 -34 24 0.25 0.18
-14 -34 24 3.17 0.33
-12 -34 24 -0.12 0.17
-10 -34 24 1.09 0.24
-8 -34 24 -0.23 0.18
-6 -34 24 0.03 0.21
-4 -34 24 0.04 0.2
-2 -34 24 0.63 0.23
0 -34 24 -0.16 0.19
2 -34 24 0.57 0.22
4 -34 24 0.05 0.2
6 -34 24 -0.12 0.19
8 -34 24 -0.13 0.18
10 -34 24 1.03 0.24
12 -34 24 0.15 0.2
14 -34 24 2.93 0.32
16 -34 24 0.36 0.2
18 -34 24 2.49 0.28
20 -34 24 -0.08 0.17
22 -34 24 1.07 0.21
24 -34 24 0 0.15
-20 -36 24 1.44 0.21
-18 -36 24 0.08 0.15
-16 -36 24 1.67 0.24
-14 -36 24 0.04 0.16
-12 -36 24 0.76 0.21
-10 -36 24 -0.02 0.18
-8 -36 24 -0.11 0.18
-6 -36 24 0.03 0.19
-4 -36 24 1.22 0.24
-2 -36 24 0.21 0.19
0 -36 24 1.57 0.26
2 -36 24 0.28 0.2
4 -36 24 1.2 0.25
6 -36 24 0.07 0.18
8 -36 24 -0.18 0.17
10 -36 24 -0.21 0.17
12 -36 24 1.09 0.22
14 -36 24 0.03 0.17
16 -36 24 1.91 0.25
18 -36 24 0.16 0.16
20 -36 24 1.26 0.2
-16 -38 24 0.37 0.16
-14 -38 24 1.53 0.22
-12 -38 24 0.31 0.17
-10 -38 24 0.29 0.17
-8 -38 24 0.18 0.17
-6 -38 24 0.26 0.18
-4 -38 24 0.11 0.17
-2 -38 24 1.14 0.22
0 -38 24 -0.03 0.17
2 -38 24 1.42 0.24
4 -38 24 -0.01 0.17
6 -38 24 0.27 0.18
8 -38 24 0.2 0.17
10 -38 24 0.18 0.17
12 -38 24 0.33 0.17
14 -38 24 1.66 0.23
16 -38 24 0.23 0.16
18 -38 24 1.31 0.2
-10 -40 24 -0.11 0.14
-8 -40 24 -0.09 0.14
-6 -40 24 -0.01 0.15
-4 -40 24 1.29 0.21
-2 -40 24 0.07 0.16
0 -40 24 1.58 0.22
2 -40 24 0.19 0.16
4 -40 24 1.15 0.2
6 -40 24 0.21 0.16
8 -40 24 0.1 0.15
10 -40 24 -0.02 0.14
12 -40 24 0.17 0.14
-39 -1 25 0 0.14
-39 1 25 0.19 0.13
-37 -1 25 -0.16 0.14
-37 1 25 -0.06 0.14
-35 -1 25 0.06 0.15
-35 1 25 0 0.14
-33 -1 25 0.18 0.15
-33 1 25 0.03 0.15
-31 -1 25 0.16 0.15
-31 1 25 -0.01 0.15
-29 -1 25 0.51 0.16
-29 1 25 0.54 0.17
-27 -1 25 0.37 0.15
-27 1 25 0.1 0.14
-25 -1 25 0.41 0.15
-25 1 25 0.65 0.16
-23 -1 25 0.15 0.13
-21 -1 25 0.74 0.16
-19 -1 25 0.12 0.26
-19 1 25 0.2 0.26
-17 -1 25 0.39 0.25
-17 1 25 0.32 0.24
-15 -1 25 -0.02 0.2
-15 1 25 -0.15 0.22
-13 -1 25 0.1 0.21
-13 1 25 0.07 0.23
-11 -1 25 0.34 0.22
-11 1 25 0.65 0.27
-9 -1 25 0.3 0.25
-9 1 25 -0.05 0.2
-7 -1 25 0.58 0.27
-7 1 25 0.32 0.22
-5 -1 25 0.29 0.24
-5 1 25 0.4 0.22
-3 -1 25 0.28 0.22
-3 1 25 -0.02 0.19
-1 -1 25 0.06 0.18
-1 1 25 -0.12 0.19
1 -1 25 0.06 0.2
1 1 25 -0.1 0.18
3 -1 25 -0.07 0.22
3 1 25 -0.23 0.18
5 -1 25 0.16 0.25
5 1 25 0.46 0.24
7 -1 25 0.2 0.23
7 1 25 0.36 0.24
9 -1 25 0.37 0.24
9 1 25 0.65 0.3
11 -1 25 0.13 0.24
11 1 25 0.54 0.27
13 -1 25 -0.22 0.2
13 1 25 -0.04 0.21
15 -1 25 -0.21 0.25
15 1 25 0.15 0.25
17 -1 25 -0.04 0.29
17 1 25 -0.03 0.3
-39 -3 25 0.07 0.14
-39 3 25 0.38 0.14
-37 -3 25 -0.11 0.15
-37 3 25 0.1 0.13
-35 -3 25 0.24 0.16
-35 3 25 0.16 0.14
-33 -3 25 0.73 0.19
-33 3 25 0.76 0.18
-31 -3 25 1.09 0.2
-31 3 25 1.19 0.21
-29 -3 25 2.33 0.25
-29 3 25 1.69 0.24
-27 -3 25 1.68 0.22
-25 -3 25 2.11 0.24
-23 -3 25 0.94 0.18
-21 -3 25 -0.18 0.13
-21 3 25 0.09 0.25
-19 -3 25 -0.01 0.12
-19 3 25 0.33 0.27
-17 -3 25 1.59 0.38
-17 3 25 2.22 0.4
-15 -3 25 3.63 0.49
-15 3 25 3.51 0.47
-13 -3 25 6.02 0.59
-13 3 25 5.46 0.54
-11 -3 25 12.99 0.84
-11 3 25 12.74 0.85
-9 -3 25 11.3 0.79
-9 3 25 10.89 0.76
-7 -3 25 12.77 0.85
7 3 -25 12.2 0.68
-7 3 25 13.48 0.85
-5 -3 25 6.37 0.59
5 3 -25 6.11 0.42
-5 3 25 7.09 0.61
-3 -3 25 3.81 0.47
-3 3 25 4.68 0.53
3 3 -25 4.35 0.34
-1 -3 25 0.14 0.22
1 3 -25 0.09 0.12
-1 3 25 0.15 0.21
1 -3 25 -0.05 0.22
-1 3 -25 -0.07 0.11
1 3 25 0.25 0.22
3 -3 25 4.06 0.5
-3 3 -25 4.36 0.36
3 3 25 4.03 0.49
5 -3 25 6.05 0.64
5 3 25 5.82 0.56
-5 3 -25 5.79 0.43
7 -3 25 12.35 0.86
-7 3 -25 12.22 0.69
7 3 25 11.63 0.85
9 -3 25 12.72 0.88
-9 3 -25 11.67 0.68
9 3 25 12.04 0.87
11 -3 25 13.06 0.92
-11 3 -25 13 0.72
11 3 25 12.1 0.88
13 -3 25 5.46 0.62
13 3 25 4.66 0.57
15 -3 25 3.11 0.49
15 3 25 3.54 0.5
17 -3 25 1.86 0.44
19 -3 25 0.05 0.29
-39 -5 25 0.09 0.15
-37 -5 25 -0.17 0.15
-35 -5 25 0.29 0.17
-33 -5 25 1.71 0.24
-31 -5 25 3.56 0.39
-29 -5 25 5.89 0.44
-27 -5 25 4.82 0.41
-25 -5 25 6.97 0.48
-23 -5 25 2.27 0.25
-21 -5 25 3.03 0.32
-21 5 25 3.52 0.49
-19 5 25 0.62 0.29
-17 -5 25 -0.22 0.11
-17 5 25 0.04 0.2
-15 -5 25 2.2 0.39
-15 -5 25 1.99 0.22
-15 5 25 2.33 0.39
-13 -5 25 7.29 0.64
-13 5 25 6.96 0.6
-11 -5 25 17.24 1.04
-11 5 25 17.48 1.05
11 5 -25 17.95 0.91
-9 -5 25 17.43 1.04
-9 5 25 17.32 1.02
9 5 -25 17.05 0.89
-7 -5 25 21.51 1.21
-7 5 25 22.76 1.22
7 5 -25 21.88 1.1
-5 -5 25 11.68 0.79
5 5 -25 10.84 0.64
-5 5 25 11.45 0.79
-3 -5 25 6.25 0.57
3 5 -25 6.14 0.44
-3 5 25 6.51 0.57
-1 -5 25 0.29 0.22
1 5 -25 0.28 0.15
-1 5 25 0.5 0.24
1 -5 25 0.38 0.23
1 5 25 0.12 0.22
-1 5 -25 0.27 0.15
3 -5 25 6.17 0.58
-3 5 -25 6.18 0.45
3 5 25 6.3 0.58
5 -5 25 10.99 0.81
5 5 25 9.96 0.76
-5 5 -25 11.37 0.65
7 -5 25 21.95 1.25
-7 5 -25 22.69 1.12
7 5 25 20.59 1.22
9 -5 25 16.74 1.05
-9 5 -25 16.52 0.89
9 5 25 16.39 1.04
11 -5 25 16.86 1.09
11 5 25 17.03 1.07
-11 5 -25 17.42 0.92
13 -5 25 6.56 0.7
-13 5 -25 5.46 0.44
13 5 25 5.55 0.61
15 -5 25 2.16 0.44
-15 5 -25 2.04 0.28
17 -5 25 -0.27 0.25
19 -5 25 0.56 0.29
-39 -7 25 -0.23 0.13
-37 -7 25 0.4 0.18
-35 -7 25 0.59 0.19
-33 -7 25 2.78 0.29
-31 -7 25 5.13 0.44
-29 -7 25 9.33 0.58
-27 -7 25 8.08 0.54
-25 -7 25 9.66 0.58
-23 -7 25 4.7 0.4
-21 -7 25 2.34 0.25
-21 7 25 3.03 0.47
-19 -7 25 -0.2 0.11
-19 7 25 0.29 0.27
-17 -7 25 1.02 0.17
-17 7 25 1.67 0.33
-15 -7 25 9.06 0.56
15 7 -25 10.24 0.62
-15 7 25 10.24 0.75
-13 -7 25 17.02 1.03
-13 -7 25 16.19 0.84
-13 7 25 15.55 1
13 7 -25 17.16 0.89
-11 -7 25 35.48 1.78
-11 -7 25 34.81 1.66
11 7 -25 36.59 1.69
-11 7 25 35.94 1.76
-9 -7 25 32.21 1.61
-9 7 25 30.14 1.56
9 7 -25 31.25 1.5
-7 -7 25 40.26 2.01
7 7 -25 41.29 1.94
-7 7 25 43.18 1.99
-5 -7 25 22.8 1.23
5 7 -25 20.66 1.11
-5 7 25 22.54 1.2
-3 -7 25 13.06 0.86
3 7 -25 12.9 0.75
-3 7 25 13.95 0.86
-1 -7 25 0.27 0.22
1 7 -25 0.07 0.14
-1 7 25 0.55 0.26
1 -7 25 0.11 0.21
-1 7 -25 0.28 0.15
1 7 25 0.35 0.24
3 -7 25 12.59 0.86
3 7 25 13.31 0.86
-3 7 -25 12.58 0.73
5 -7 25 21.91 1.24
5 7 25 22.01 1.12
5 7 25 21.94 1.23
-5 7 -25 21.58 1.12
7 -7 25 38.95 2.03
7 7 25 41.45 2.04
7 7 25 43.36 1.96
-7 7 -25 41.86 1.96
9 -7 25 29.92 1.66
-9 7 -25 32.32 1.55
9 7 25 33.58 1.56
9 7 25 31.08 1.64
11 -7 25 34.15 1.8
-11 7 -25 35.71 1.66
11 7 25 35.17 1.67
11 7 25 32.11 1.74
13 -7 25 15.47 1.06
-13 7 -25 16.57 0.91
13 7 25 17.04 0.92
15 -7 25 8.84 0.8
-15 7 -25 10.3 0.64
17 -7 25 1.34 0.41
-17 7 -25 1.35 0.25
19 -7 25 -0.04 0.29
-19 7 -25 0.13 0.16
21 -7 25 2.32 0.47
-39 -9 25 0.15 0.14
-37 -9 25 0.04 0.16
-35 -9 25 0.17 0.18
-33 -9 25 3.8 0.41
-31 -9 25 5.45 0.45
-29 -9 25 10.57 0.64
-27 -9 25 8.9 0.59
-25 -9 25 11.15 0.67
-23 -9 25 4.46 0.38
-21 -9 25 3.63 0.34
-21 9 25 3.76 0.5
-19 -9 25 -0.17 0.12
-19 9 25 0.16 0.23
-17 -9 25 0.37 0.14
17 9 -25 0.52 0.19
-17 9 25 0.54 0.3
-15 -9 25 6.69 0.45
15 9 -25 7.55 0.53
-15 9 25 7.39 0.64
-13 -9 25 13.29 0.87
-13 -9 25 11.88 0.68
-13 9 25 12.44 0.84
13 9 -25 13.35 0.75
-11 -9 25 28.77 1.4
-11 -9 25 28.75 1.52
11 9 -25 30.43 1.45
-11 9 25 29.53 1.51
-9 -9 25 20.61 1.06
-9 -9 25 22.03 1.23
9 9 -25 22.09 1.12
-9 9 25 21.64 1.19
-7 -9 25 31.04 1.62
7 9 -25 32.67 1.56
-7 9 25 31.72 1.61
-5 -9 25 15.7 0.99
-5 9 25 17.36 1
5 9 -25 15.09 0.98
5 9 -25 16.79 0.91
-3 -9 25 12.29 0.81
3 9 -25 11.29 0.7
-3 9 25 12.42 0.8
3 9 -25 10.33 0.77
-1 -9 25 0.44 0.23
-1 9 25 0.17 0.21
1 9 -25 0.59 0.23
1 9 -25 0.18 0.16
1 -9 25 0.83 0.28
-1 9 -25 0.49 0.22
-1 9 -25 0.27 0.17
1 9 25 0.22 0.22
3 -9 25 12.87 0.84
-3 9 -25 11.59 0.71
-3 9 -25 10.71 0.79
3 9 25 12.66 0.84
3 9 25 11.91 0.7
5 -9 25 17.65 1.07
5 9 25 17.34 0.92
-5 9 -25 15.24 1.02
-5 9 -25 16.4 0.91
5 9 25 17.19 1.04
7 -9 25 32.91 1.69
-7 9 -25 30.04 1.7
7 9 25 32.31 1.65
-7 9 -25 32.43 1.56
7 9 25 32.47 1.57
9 -9 25 20.88 1.23
9 9 25 21.09 1.08
-9 9 -25 19.93 1.07
9 9 25 19.52 1.18
11 -9 25 27.81 1.57
-11 9 -25 28.45 1.43
11 9 25 30.29 1.45
13 -9 25 12.08 0.93
-13 9 -25 12.43 0.74
13 9 25 12.33 0.75
15 -9 25 6.98 0.76
15 9 25 7.38 0.54
-15 9 -25 6.54 0.51
17 -9 25 0.46 0.32
-17 9 -25 0.57 0.19
19 -9 25 0.47 0.34
-19 9 -25 0.14 0.16
21 -9 25 3.33 0.56
-21 9 -25 3.98 0.42
-39 -11 25 0.13 0.14
-37 -11 25 0.46 0.17
-35 -11 25 0.42 0.19
-33 -11 25 4.27 0.43
-31 -11 25 5.39 0.46
-29 -11 25 10.01 0.65
-27 -11 25 7.26 0.52
-25 -11 25 9.25 0.61
-23 -11 25 4.69 0.4
-21 -11 25 2.5 0.27
-19 -11 25 0.2 0.14
19 11 -25 -0.25 0.15
-19 11 25 0.41 0.25
-17 -11 25 0.77 0.17
-17 11 25 0.61 0.28
17 11 -25 0.47 0.21
-15 -11 25 9.46 0.57
-15 11 25 9.67 0.74
15 11 -25 10.51 0.67
-13 -11 25 16.48 0.87
-13 11 25 17.18 1.03
13 11 -25 16.87 0.95
-11 -11 25 38.49 1.89
-11 -11 25 36.53 1.78
11 11 -25 40.03 1.85
-11 11 25 37.85 1.86
-9 -11 25 29.2 1.55
-9 -11 25 28.79 1.45
9 11 -25 32.12 1.52
-9 11 25 31.81 1.57
-7 -11 25 33.11 1.69
-7 -11 25 31.31 1.59
7 11 -25 35.96 1.67
-7 11 25 35.38 1.7
-5 -11 25 16.74 1.02
-5 -11 25 16.11 0.87
5 11 -25 17.74 0.96
-5 11 25 17.77 1.02
-3 -11 25 14.03 0.87
-3 11 25 12.53 0.83
3 11 -25 11.56 0.84
3 11 -25 13.24 0.78
-1 -11 25 0.36 0.25
1 11 -25 0.47 0.23
1 11 -25 0.13 0.17
-1 11 25 0.19 0.21
1 -11 25 0.14 0.23
-1 11 -25 0.15 0.19
1 11 25 0.2 0.15
1 11 25 0.09 0.23
-1 11 -25 0.23 0.18
3 -11 25 12.76 0.87
3 11 25 13.49 0.88
-3 11 -25 12.85 0.77
3 11 25 13.06 0.77
-3 11 -25 13.07 0.88
5 -11 25 17.6 1.06
5 11 25 17.55 1.03
-5 11 -25 16.65 1.07
-5 11 -25 16.21 0.93
5 11 25 17.34 0.94
7 -11 25 33.88 1.78
7 11 25 37.46 1.71
7 11 25 34.12 1.74
-7 11 -25 34.96 1.69
-7 11 -25 32.8 1.83
9 -11 25 27.99 1.57
9 11 25 28.27 1.53
-9 11 -25 30.56 1.46
-9 11 -25 28.7 1.6
9 11 25 30.05 1.47
11 -11 25 39.68 2.01
-11 11 -25 35.37 1.99
-11 11 -25 38.92 1.85
11 11 25 39.58 1.86
13 -11 25 16.74 1.12
-13 11 -25 16.44 0.93
13 11 25 17.07 0.95
15 -11 25 8.93 0.8
-15 11 -25 9.57 0.63
15 11 25 10.06 0.66
17 -11 25 0.59 0.36
-17 11 -25 0.61 0.19
17 11 25 0.41 0.19
19 -11 25 0.56 0.33
-19 11 -25 0.06 0.16
-21 11 -25 2.82 0.35
-23 11 -25 3.51 0.4
-39 -13 25 0.41 0.15
-37 -13 25 0.25 0.17
-35 -13 25 -0.19 0.16
-33 -13 25 1.81 0.25
-31 -13 25 2.74 0.3
-29 -13 25 7.48 0.53
-27 -13 25 5.36 0.48
-25 -13 25 7.55 0.53
-23 -13 25 2.65 0.28
-21 -13 25 2.52 0.28
21 13 -25 3.24 0.37
-19 -13 25 -0.02 0.13
19 13 -25 0.07 0.19
-17 -13 25 0.01 0.13
-17 13 25 -0.15 0.22
17 13 -25 -0.37 0.16
-15 -13 25 3.64 0.34
15 13 -25 4.12 0.44
-15 13 25 3.06 0.46
-13 -13 25 6.7 0.46
-13 13 25 6.99 0.62
13 13 -25 6.98 0.55
-11 -13 25 16.69 0.89
11 13 -25 17.69 0.98
-11 13 25 16.91 1.02
-9 -13 25 12.83 0.7
-9 -13 25 11.37 0.85
9 13 -25 12.58 0.77
-9 13 25 12.2 0.83
-7 -13 25 16.6 1.03
-7 -13 25 15.17 0.86
7 13 -25 17.78 0.96
-7 13 25 17.17 1.01
-5 -13 25 6.19 0.61
-5 -13 25 5.4 0.43
-5 13 25 7.09 0.62
5 13 -25 6.3 0.5
-3 -13 25 5.41 0.41
-3 -13 25 6.09 0.6
3 13 -25 6.69 0.51
-3 13 25 5.58 0.54
3 13 -25 5.84 0.56
-1 -13 25 0.13 0.22
-1 -13 25 -0.21 0.12
1 13 -25 0.07 0.16
1 13 -25 -0.2 0.18
-1 13 25 0.09 0.24
-1 13 25 0.05 0.15
1 -13 25 -0.21 0.19
1 -13 25 -0.16 0.12
1 13 25 -0.06 0.2
-1 13 -25 0.1 0.16
1 13 25 0 0.13
-1 13 -25 0.1 0.21
3 -13 25 5.78 0.41
3 -13 25 6.02 0.64
-3 13 -25 6.16 0.59
3 13 25 6.11 0.61
-3 13 -25 6.18 0.49
5 -13 25 6.35 0.62
5 -13 25 6.1 0.43
5 13 25 6.37 0.61
5 13 25 7.16 0.52
-5 13 -25 6.53 0.62
-5 13 -25 6.99 0.52
7 -13 25 15.87 0.84
7 -13 25 15.82 1.07
7 13 25 15.91 1.01
-7 13 -25 16.33 1.06
7 13 25 17.34 0.94
-7 13 -25 17.21 0.93
9 -13 25 12.02 0.67
9 -13 25 11.2 0.89
9 13 25 12.35 0.76
-9 13 -25 13.03 0.89
-9 13 -25 12.08 0.74
11 -13 25 15.97 0.85
11 -13 25 16.38 1.1
-11 13 -25 16.38 1.07
11 13 25 17.32 0.95
-11 13 -25 17.07 0.93
13 -13 25 6.27 0.74
13 -13 25 6.13 0.43
-13 13 -25 6.61 0.63
13 13 25 6.6 0.52
-13 13 -25 7 0.52
15 -13 25 3.21 0.53
15 -13 25 3.13 0.32
-15 13 -25 3.68 0.4
15 13 25 3.41 0.39
17 -13 25 -0.34 0.23
17 -13 25 0 0.14
-17 13 -25 -0.02 0.16
17 13 25 0.15 0.18
19 13 25 0.16 0.2
-19 13 -25 0.06 0.18
-21 13 -25 2.71 0.36
-23 13 -25 3.21 0.38
-37 -15 25 0.28 0.16
-35 -15 25 0.13 0.16
-33 -15 25 1.05 0.22
-31 -15 25 1.13 0.23
-29 -15 25 2.58 0.3
-27 -15 25 1.75 0.27
-25 -15 25 2.53 0.29
-23 -15 25 1.27 0.23
-21 -15 25 0.63 0.19
21 15 -25 1.28 0.27
-19 -15 25 -0.04 0.14
19 15 -25 -0.08 0.18
-17 -15 25 0.13 0.14
-17 15 25 0.14 0.32
17 15 -25 -0.08 0.18
-15 -15 25 1.74 0.23
15 15 -25 2.12 0.32
-15 15 25 1.86 0.39
-13 -15 25 3.75 0.36
-13 15 25 3.38 0.47
13 15 -25 3.41 0.4
-11 -15 25 10.15 0.61
11 15 -25 10.5 0.7
-11 15 25 9.98 0.77
-9 -15 25 7.32 0.49
9 15 -25 7.68 0.59
-9 15 25 6.78 0.61
-7 -15 25 10.03 0.6
-7 -15 25 9.01 0.75
7 15 -25 11.25 0.71
-7 15 25 9.21 0.72
-5 -15 25 2.03 0.26
-5 -15 25 2.21 0.39
-5 15 25 2.53 0.39
5 15 -25 2.72 0.35
-3 -15 25 3.47 0.35
-3 -15 25 3.6 0.51
-3 15 25 3.65 0.5
3 15 -25 4.69 0.44
3 15 -25 3.36 0.44
-3 15 25 4.76 0.41
-1 -15 25 -0.17 0.14
-1 -15 25 -0.32 0.24
1 15 -25 0.04 0.16
-1 15 25 -0.26 0.19
1 15 -25 -0.1 0.2
-1 15 25 0.02 0.14
1 -15 25 0.09 0.23
1 -15 25 -0.04 0.11
-1 15 -25 0.14 0.21
1 15 25 -0.14 0.12
-1 15 -25 0.27 0.17
1 15 25 -0.26 0.21
3 -15 25 3.62 0.49
3 -15 25 3.75 0.33
3 15 25 4.07 0.4
-3 15 -25 3.5 0.46
-3 15 -25 4.02 0.41
3 15 25 3.74 0.48
5 -15 25 1.64 0.41
5 -15 25 2.01 0.24
-5 15 -25 2.66 0.42
5 15 25 2.4 0.32
5 15 25 2.14 0.39
-5 15 -25 2.27 0.31
7 -15 25 9.76 0.59
7 -15 25 8.26 0.76
-7 15 -25 10.3 0.8
-7 15 -25 10.41 0.66
7 15 25 10.2 0.67
9 -15 25 5.92 0.45
9 -15 25 6.69 0.74
9 15 25 8.06 0.56
-9 15 -25 7.68 0.54
-9 15 -25 7.19 0.66
11 -15 25 9.04 0.79
11 -15 25 8.94 0.56
11 15 25 9.48 0.65
-11 15 -25 10.07 0.65
-11 15 -25 9.32 0.77
13 -15 25 2.85 0.52
13 -15 25 3.58 0.34
-13 15 -25 3.44 0.39
-13 15 -25 2.78 0.44
13 15 25 3.14 0.39
15 -15 25 1.54 0.4
15 -15 25 1.57 0.22
15 15 25 1.64 0.29
-15 15 -25 1.69 0.36
-15 15 -25 2.12 0.32
17 -15 25 -0.08 0.33
17 -15 25 0.06 0.15
-17 15 -25 -0.14 0.15
17 15 25 0.18 0.19
19 -15 25 0.01 0.15
-19 15 -25 0.03 0.18
19 15 25 0.03 0.18
21 -15 25 0.95 0.19
-21 15 -25 0.75 0.24
21 15 25 0.9 0.26
23 -15 25 1.29 0.21
-23 15 -25 1.08 0.27
25 -15 25 2.06 0.25
-25 15 -25 2.98 0.42
27 -15 25 1.38 0.24
-37 -17 25 -0.12 0.14
-35 -17 25 0.1 0.17
-33 -17 25 0.14 0.17
-31 -17 25 -0.26 0.16
-29 -17 25 0.64 0.2
-27 -17 25 0.31 0.19
-25 -17 25 0.76 0.21
-23 -17 25 0.37 0.18
23 17 -25 0.5 0.23
-21 -17 25 0.26 0.17
21 17 -25 0.46 0.23
-19 -17 25 -0.04 0.14
19 17 -25 0.36 0.21
-17 -17 25 0.1 0.16
17 17 -25 0.05 0.19
-15 -17 25 0.06 0.14
15 17 -25 0.27 0.2
-13 -17 25 0.02 0.14
13 17 -25 0.05 0.2
-13 17 25 -0.08 0.21
-11 -17 25 1.17 0.2
-11 17 25 0.84 0.29
11 17 -25 0.81 0.25
-9 -17 25 0.43 0.15
9 17 -25 0.51 0.23
-9 17 25 0.78 0.27
-7 -17 25 1.02 0.19
-7 17 25 1.58 0.34
7 17 -25 1.55 0.29
-5 -17 25 -0.15 0.23
-5 -17 25 -0.09 0.14
5 17 -25 -0.18 0.16
-5 17 25 -0.1 0.21
-3 -17 25 1.51 0.39
-3 -17 25 1.53 0.22
-3 17 25 1.88 0.28
3 17 -25 1.99 0.31
-3 17 25 2.31 0.39
-1 -17 25 0.61 0.18
-1 -17 25 0.07 0.26
-1 17 25 0.34 0.27
1 17 -25 0.5 0.21
-1 17 25 0.31 0.17
1 17 -25 0.53 0.25
1 -17 25 0.44 0.15
1 -17 25 0.35 0.27
1 17 25 0.22 0.18
-1 17 -25 0.49 0.26
1 17 25 0.66 0.27
-1 17 -25 0.56 0.2
3 -17 25 1.5 0.21
3 -17 25 1.78 0.42
-3 17 -25 1.82 0.37
3 17 25 2.09 0.31
3 17 25 1.79 0.39
-3 17 -25 2.2 0.3
5 -17 25 -0.13 0.12
5 -17 25 -0.2 0.26
-5 17 -25 0.22 0.24
5 17 25 -0.01 0.16
-5 17 -25 0.22 0.16
7 -17 25 1.16 0.19
7 -17 25 1.13 0.34
-7 17 -25 2.07 0.3
7 17 25 1.52 0.27
-7 17 -25 1.11 0.31
9 -17 25 0.42 0.16
9 -17 25 0.57 0.3
-9 17 -25 0.85 0.29
-9 17 -25 0.72 0.21
9 17 25 0.26 0.19
11 -17 25 0.29 0.29
11 -17 25 0.58 0.16
-11 17 -25 0.8 0.22
-11 17 -25 0.62 0.27
11 17 25 0.52 0.21
13 -17 25 -0.14 0.29
13 -17 25 0.16 0.14
13 17 25 0.22 0.2
-13 17 -25 0.1 0.24
-13 17 -25 0.01 0.17
15 -17 25 -0.14 0.14
-15 17 -25 0.03 0.25
15 17 25 0.08 0.19
-15 17 -25 0.33 0.18
17 -17 25 0.11 0.16
-17 17 -25 0.18 0.19
17 17 25 0.02 0.18
-17 17 -25 -0.12 0.24
19 -17 25 0.15 0.16
19 17 25 0.01 0.19
-19 17 -25 0.19 0.2
21 -17 25 0.52 0.17
21 17 25 0.16 0.22
-21 17 -25 0.56 0.24
23 -17 25 0.23 0.18
-23 17 -25 0.48 0.23
25 -17 25 0.72 0.19
27 -17 25 0.3 0.18
29 -17 25 0.47 0.17
-31 17 -25 0.15 0.14
-35 -19 25 0.06 0.15
-33 -19 25 0 0.17
-31 -19 25 -0.34 0.17
-29 -19 25 -0.26 0.16
-27 -19 25 -0.08 0.17
-25 -19 25 0.02 0.17
-23 -19 25 -0.01 0.17
-21 -19 25 -0.13 0.17
21 19 -25 -0.1 0.19
-19 -19 25 0.07 0.17
19 19 -25 -0.2 0.18
-17 -19 25 0.1 0.16
17 19 -25 -0.04 0.19
-15 -19 25 0.02 0.16
15 19 -25 -0.04 0.19
-13 -19 25 0.03 0.15
13 19 -25 -0.17 0.19
-11 -19 25 -0.19 0.13
-11 19 25 0.28 0.25
11 19 -25 0.53 0.23
-9 -19 25 0.2 0.15
9 19 -25 -0.13 0.19
-9 19 25 0.13 0.23
-7 -19 25 0.02 0.15
7 19 -25 -0.05 0.18
-7 19 25 0.43 0.25
-5 -19 25 0.27 0.15
5 19 -25 0.35 0.21
-5 19 25 0.68 0.27
-3 -19 25 0.35 0.17
-3 -19 25 0.2 0.28
3 19 -25 0.16 0.19
-3 19 25 0.04 0.25
-3 19 25 0.3 0.18
-1 -19 25 0.05 0.28
-1 -19 25 0.3 0.15
-1 19 25 0.29 0.18
-1 19 25 0.41 0.28
1 19 -25 0.49 0.2
1 19 -25 -0.02 0.22
1 -19 25 0.31 0.16
1 -19 25 -0.11 0.27
1 19 25 0.21 0.17
-1 19 -25 0.14 0.23
1 19 25 -0.21 0.23
-1 19 -25 0.24 0.18
3 -19 25 0.09 0.15
3 -19 25 0.17 0.29
-3 19 -25 0.38 0.23
3 19 25 0.14 0.17
-3 19 -25 0.62 0.2
5 -19 25 0.24 0.25
5 -19 25 0.08 0.15
5 19 25 0.25 0.18
-5 19 -25 0.27 0.25
-5 19 -25 0.31 0.18
7 -19 25 -0.07 0.25
7 -19 25 -0.14 0.13
-7 19 -25 -0.12 0.22
7 19 25 -0.04 0.16
-7 19 -25 -0.01 0.15
9 -19 25 -0.24 0.25
9 -19 25 -0.08 0.13
-9 19 -25 0.14 0.18
-9 19 -25 0.15 0.23
9 19 25 0.05 0.17
11 -19 25 0.19 0.28
11 -19 25 0.06 0.14
11 19 25 0.14 0.19
-11 19 -25 0.24 0.26
-11 19 -25 0 0.16
13 -19 25 0.3 0.15
13 19 25 0.06 0.18
-13 19 -25 0.05 0.17
-13 19 -25 0.07 0.26
15 -19 25 -0.01 0.14
15 19 25 -0.02 0.19
-15 19 -25 -0.21 0.23
-15 19 -25 0.09 0.18
17 -19 25 0.07 0.15
17 19 25 0.13 0.19
-17 19 -25 -0.01 0.17
19 -19 25 0.05 0.16
-19 19 -25 0.1 0.19
19 19 25 0.14 0.22
21 -19 25 -0.06 0.15
21 19 25 -0.09 0.19
-21 19 -25 0.17 0.2
23 -19 25 0.05 0.17
25 -19 25 -0.1 0.16
27 -19 25 0.04 0.16
29 -19 25 -0.11 0.14
31 -19 25 0 0.15
-31 19 -25 -0.32 0.12
-33 19 -25 -0.11 0.12
-35 -21 25 0.01 0.15
-33 -21 25 0 0.16
-31 -21 25 0.22 0.18
-29 -21 25 0.11 0.18
-27 -21 25 0.44 0.2
-25 -21 25 0.09 0.17
-23 -21 25 -0.01 0.17
-21 -21 25 -0.06 0.17
-19 -21 25 0.11 0.18
19 21 -25 -0.24 0.19
-17 -21 25 0.2 0.18
17 21 -25 0.45 0.23
-15 -21 25 0.85 0.21
15 21 -25 1.52 0.32
-13 -21 25 2.5 0.29
13 21 -25 2.69 0.37
-11 -21 25 2.8 0.31
11 21 -25 2.77 0.38
-9 -21 25 4.12 0.41
9 21 -25 3.76 0.44
-7 -21 25 3.23 0.33
-7 21 25 3 0.44
7 21 -25 2.3 0.37
-5 -21 25 4.06 0.4
-5 21 25 4.07 0.43
-5 21 25 3.33 0.48
5 21 -25 2.82 0.4
-3 -21 25 0.12 0.16
3 21 -25 0.2 0.25
-3 21 25 0.38 0.27
3 21 -25 0.15 0.19
-3 21 25 0.25 0.2
-1 -21 25 1.34 0.38
-1 -21 25 0.78 0.2
-1 21 25 1.28 0.33
1 21 -25 0.97 0.33
1 21 -25 1.58 0.3
-1 21 25 1.37 0.26
1 -21 25 0.76 0.19
1 -21 25 0.86 0.36
-1 21 -25 0.79 0.31
-1 21 -25 1.37 0.28
1 21 25 1.45 0.26
3 -21 25 0.52 0.33
3 -21 25 0.08 0.17
3 21 25 0.34 0.19
-3 21 -25 0.34 0.25
-3 21 -25 0.32 0.2
5 -21 25 2.88 0.32
5 -21 25 3.06 0.52
-5 21 -25 3.58 0.4
-5 21 -25 3.06 0.47
5 21 25 3.24 0.38
7 -21 25 2.26 0.28
7 -21 25 2.69 0.46
-7 21 -25 2.33 0.33
7 21 25 3.04 0.37
-7 21 -25 2.92 0.47
9 -21 25 4.51 0.63
9 -21 25 3.73 0.39
-9 21 -25 4.79 0.58
9 21 25 4.13 0.45
-9 21 -25 4 0.44
11 -21 25 2.61 0.29
11 21 25 3.42 0.4
-11 21 -25 3.61 0.51
-11 21 -25 2.77 0.37
13 -21 25 1.95 0.25
-13 21 -25 2.17 0.33
13 21 25 2.26 0.34
15 -21 25 0.99 0.21
15 21 25 0.93 0.26
-15 21 -25 1.03 0.26
17 -21 25 0.45 0.19
17 21 25 0.33 0.22
-17 21 -25 0.43 0.21
19 -21 25 -0.24 0.16
19 21 25 -0.19 0.18
-19 21 -25 0.12 0.21
21 -21 25 -0.05 0.15
23 -21 25 0.02 0.17
25 -21 25 -0.1 0.16
27 -21 25 0.28 0.17
29 -21 25 0.1 0.16
31 -21 25 0.28 0.16
-33 21 -25 0.14 0.14
-33 -23 25 0.24 0.16
-31 -23 25 0.51 0.18
-29 -23 25 0.55 0.2
-27 -23 25 0.9 0.22
-25 -23 25 0.67 0.21
-23 -23 25 0.59 0.2
-21 -23 25 -0.06 0.16
-19 -23 25 0.09 0.17
-17 -23 25 0.29 0.19
17 23 -25 0.24 0.21
-15 -23 25 1.41 0.25
15 23 -25 1.24 0.3
-13 -23 25 3.17 0.34
13 23 -25 4.3 0.47
-11 -23 25 4.81 0.46
11 23 -25 5.03 0.52
-9 -23 25 4.45 0.45
9 23 -25 5.33 0.54
-7 -23 25 5.54 0.47
7 23 -25 4.93 0.54
-5 -23 25 2.5 0.3
-5 23 25 2.57 0.35
5 23 -25 3.04 0.41
-3 -23 25 0.93 0.22
-3 23 25 1.33 0.35
-3 23 25 1.31 0.26
3 23 -25 0.72 0.3
3 23 -25 0.85 0.26
-1 -23 25 -0.02 0.17
-1 23 25 0.2 0.19
1 23 -25 0.1 0.26
1 23 -25 0.25 0.2
1 -23 25 0.14 0.18
1 -23 25 0.62 0.32
1 23 25 0.21 0.19
-1 23 -25 0.04 0.25
-1 23 -25 0.36 0.2
3 -23 25 0.83 0.22
3 -23 25 0.96 0.37
-3 23 -25 0.92 0.32
-3 23 -25 0.95 0.25
3 23 25 1.15 0.26
5 -23 25 2.42 0.3
-5 23 -25 2.59 0.36
-5 23 -25 2.94 0.46
5 23 25 2.92 0.38
7 -23 25 5.46 0.48
7 23 25 5.67 0.52
-7 23 -25 5.19 0.66
-7 23 -25 4.31 0.48
9 -23 25 4.7 0.45
9 23 25 4.02 0.46
-9 23 -25 4.32 0.46
11 -23 25 5.19 0.46
-11 23 -25 4.39 0.47
11 23 25 4.47 0.48
13 -23 25 2.96 0.31
-13 23 -25 3.39 0.42
13 23 25 2.63 0.39
15 -23 25 1.24 0.24
15 23 25 1.29 0.29
-15 23 -25 0.9 0.26
17 -23 25 0.1 0.19
-17 23 -25 0.48 0.22
17 23 25 0.5 0.22
19 -23 25 0 0.17
21 -23 25 0.02 0.17
23 -23 25 0.59 0.2
25 -23 25 0.61 0.19
27 -23 25 0.72 0.19
29 -23 25 0.51 0.18
31 -23 25 0.64 0.18
-33 23 -25 0.16 0.13
-33 -25 25 0.52 0.17
-31 -25 25 1.03 0.2
-29 -25 25 1.48 0.24
-27 -25 25 1.75 0.26
-25 -25 25 1.36 0.24
-23 -25 25 0.35 0.19
-21 -25 25 0.19 0.18
-19 -25 25 -0.04 0.18
-17 -25 25 0.79 0.22
-15 -25 25 2.83 0.33
-13 -25 25 8.35 0.6
13 25 -25 8.35 0.68
-11 -25 25 9.86 0.66
11 25 -25 9.61 0.72
-9 -25 25 12.3 0.77
9 25 -25 11.94 0.84
-7 -25 25 10.64 0.7
7 25 -25 10.79 0.79
-5 -25 25 7.46 0.57
5 25 -25 6.81 0.62
-5 25 25 7.17 0.59
-3 -25 25 1.96 0.28
3 25 -25 2.55 0.39
-3 25 25 2.3 0.34
-1 -25 25 0.48 0.2
1 25 -25 0.74 0.25
-1 25 25 0.49 0.21
1 -25 25 0.47 0.21
-1 25 -25 0.64 0.25
1 25 25 0.45 0.21
3 -25 25 1.88 0.29
3 25 25 2.54 0.36
-3 25 -25 2.79 0.39
5 -25 25 7.03 0.55
5 25 25 6.94 0.58
-5 25 -25 6.02 0.57
7 -25 25 10.15 0.68
7 25 25 10.2 0.72
-7 25 -25 8.86 0.7
9 -25 25 11.68 0.71
-9 25 -25 10.21 0.75
9 25 25 9.89 0.74
11 -25 25 9.96 0.64
-11 25 -25 8.39 0.67
11 25 25 8.66 0.68
13 -25 25 7.22 0.55
13 25 25 6.94 0.6
-13 25 -25 7.5 0.61
15 -25 25 2.17 0.3
-15 25 -25 2.33 0.38
15 25 25 2.3 0.4
17 -25 25 0.44 0.21
19 -25 25 -0.27 0.18
21 -25 25 -0.04 0.18
23 -25 25 0.06 0.18
25 -25 25 1.11 0.21
27 -25 25 1.43 0.22
29 -25 25 1.04 0.19
-31 25 -25 1.33 0.19
-31 -27 25 0.91 0.19
-29 -27 25 1.41 0.23
-27 -27 25 1.81 0.25
-25 -27 25 1.88 0.26
-23 -27 25 1.04 0.23
-21 -27 25 0.38 0.2
-19 -27 25 -0.03 0.17
-17 -27 25 0.42 0.2
-15 -27 25 1.34 0.25
-13 -27 25 5.64 0.52
-11 -27 25 7.41 0.58
-9 -27 25 9.35 0.65
9 27 -25 8.63 0.71
-7 -27 25 7.57 0.58
7 27 -25 6.62 0.64
-5 -27 25 4.64 0.47
5 27 -25 3.44 0.46
-3 -27 25 1.37 0.27
3 27 -25 1.63 0.34
-3 27 25 1.52 0.29
-1 -27 25 -0.15 0.19
-1 27 25 0.34 0.2
1 27 -25 0.4 0.23
1 -27 25 -0.1 0.21
1 27 25 0.3 0.21
-1 27 -25 0 0.2
3 -27 25 1.44 0.28
3 27 25 1.99 0.33
-3 27 -25 1.62 0.33
5 -27 25 4.82 0.49
-5 27 -25 4.13 0.48
5 27 25 4.09 0.48
7 -27 25 7.03 0.57
7 27 25 7.28 0.61
-7 27 -25 6.76 0.6
9 -27 25 8.37 0.62
9 27 25 9.06 0.68
-9 27 -25 8.01 0.65
11 -27 25 6.51 0.54
11 27 25 5.79 0.63
-11 27 -25 6.02 0.6
13 -27 25 5.34 0.52
15 -27 25 1.49 0.27
17 -27 25 0.12 0.2
19 -27 25 0.03 0.19
21 -27 25 0.13 0.19
23 -27 25 0.9 0.21
25 -27 25 1.45 0.23
27 -27 25 1.37 0.22
29 -27 25 1.58 0.22
-29 -29 25 1.12 0.2
-27 -29 25 1.61 0.24
-25 -29 25 1.15 0.22
-23 -29 25 0.62 0.21
-21 -29 25 0.38 0.2
-19 -29 25 -0.04 0.18
-17 -29 25 0.49 0.21
-15 -29 25 2.76 0.32
-13 -29 25 7.29 0.57
-11 -29 25 9.42 0.67
-9 -29 25 11.42 0.75
-7 -29 25 10.78 0.72
-5 -29 25 6.7 0.59
-3 -29 25 2.28 0.33
-1 -29 25 0.41 0.23
1 29 -25 0.41 0.24
-1 29 25 0.39 0.22
1 -29 25 0.03 0.21
1 29 25 0.32 0.23
-1 29 -25 0.08 0.23
3 -29 25 1.6 0.29
-3 29 -25 2.23 0.39
5 -29 25 5.56 0.52
7 -29 25 10.25 0.7
9 -29 25 10.95 0.73
11 -29 25 8.89 0.63
13 -29 25 6.78 0.58
15 -29 25 2.68 0.33
17 -29 25 0.66 0.22
19 -29 25 -0.1 0.18
21 -29 25 -0.08 0.17
23 -29 25 0.57 0.19
25 -29 25 1.01 0.2
27 -29 25 1.44 0.21
-27 -31 25 0.83 0.19
-25 -31 25 0.84 0.2
-23 -31 25 0.53 0.2
-21 -31 25 0.31 0.2
-19 -31 25 -0.04 0.18
-17 -31 25 0.02 0.18
-15 -31 25 1.43 0.25
-13 -31 25 2.45 0.31
-11 -31 25 5.1 0.48
-9 -31 25 5.54 0.51
-7 -31 25 4.83 0.48
-5 -31 25 2.49 0.33
-3 -31 25 0.87 0.26
-1 -31 25 -0.07 0.21
1 -31 25 0.08 0.22
3 -31 25 0.73 0.24
5 -31 25 2.7 0.34
7 -31 25 5.11 0.52
9 -31 25 5.25 0.5
11 -31 25 5.03 0.49
13 -31 25 2.23 0.3
15 -31 25 1.39 0.26
17 -31 25 -0.09 0.18
19 -31 25 0.19 0.18
21 -31 25 0.18 0.19
23 -31 25 0.53 0.19
25 -31 25 1.24 0.2
27 -31 25 1.17 0.19
-23 -33 25 0.18 0.17
-21 -33 25 -0.18 0.16
-19 -33 25 -0.02 0.17
-17 -33 25 0.14 0.18
-15 -33 25 1.14 0.23
-13 -33 25 1.86 0.27
-11 -33 25 4.15 0.45
-9 -33 25 4.67 0.48
-7 -33 25 2.89 0.33
-5 -33 25 1.97 0.3
-3 -33 25 0.66 0.23
-1 -33 25 0.19 0.22
1 -33 25 -0.25 0.19
3 -33 25 0.53 0.23
5 -33 25 1.89 0.29
7 -33 25 3.06 0.35
9 -33 25 2.96 0.33
11 -33 25 4.35 0.48
13 -33 25 1.79 0.28
15 -33 25 1.35 0.25
17 -33 25 0.19 0.19
19 -33 25 -0.01 0.17
21 -33 25 0.1 0.17
23 -33 25 0.23 0.16
-21 -35 25 0.05 0.15
-19 -35 25 0.05 0.15
-17 -35 25 0.1 0.16
-15 -35 25 -0.01 0.17
-13 -35 25 -0.04 0.18
-11 -35 25 0.52 0.21
-9 -35 25 0.32 0.21
-7 -35 25 0.46 0.22
-5 -35 25 0.17 0.2
-3 -35 25 -0.07 0.19
-1 -35 25 0.04 0.18
1 -35 25 -0.04 0.19
3 -35 25 -0.01 0.2
5 -35 25 0.23 0.2
7 -35 25 0.24 0.2
9 -35 25 0.27 0.2
11 -35 25 0.56 0.21
13 -35 25 0.26 0.19
15 -35 25 0.31 0.19
17 -35 25 -0.12 0.16
19 -35 25 0.14 0.17
21 -35 25 0.02 0.15
-17 -37 25 0.05 0.15
-15 -37 25 0.11 0.17
-13 -37 25 0.06 0.17
-11 -37 25 0.44 0.18
-9 -37 25 0.12 0.17
-7 -37 25 0.14 0.18
-5 -37 25 -0.01 0.17
-3 -37 25 -0.08 0.17
-1 -37 25 -0.17 0.17
1 -37 25 -0.17 0.17
3 -37 25 -0.13 0.17
5 -37 25 0.16 0.17
7 -37 25 0.48 0.19
9 -37 25 0.09 0.18
11 -37 25 0.44 0.19
13 -37 25 0.05 0.17
15 -37 25 0.18 0.16
17 -37 25 0.09 0.15
-13 -39 25 0.02 0.15
-11 -39 25 -0.02 0.14
-9 -39 25 0.15 0.16
-7 -39 25 0.07 0.15
-5 -39 25 0.01 0.15
-3 -39 25 0.29 0.18
-1 -39 25 -0.04 0.16
1 -39 25 0.09 0.16
3 -39 25 -0.15 0.15
5 -39 25 -0.02 0.16
7 -39 25 0.02 0.16
9 -39 25 0.2 0.16
11 -39 25 -0.15 0.14
13 -39 25 0.19 0.14
-3 -41 25 -0.12 0.13
-1 -41 25 -0.14 0.13
1 -41 25 -0.02 0.14
3 -41 25 0 0.14
5 -41 25 0.07 0.15
-38 0 26 0.25 0.14
-36 0 26 0.14 0.14
-34 0 26 0.06 0.14
-32 0 26 0.12 0.16
-30 0 26 0.03 0.14
-28 0 26 0.19 0.14
-26 0 26 3.14 0.34
-18 0 26 12.87 0.9
-16 0 26 0.16 0.26
-14 0 26 1.73 0.36
-12 0 26 0.26 0.25
-10 0 26 0.75 0.29
-8 0 26 0.31 0.23
-6 0 26 11.25 0.81
-4 0 26 0.12 0.23
-2 0 26 54.68 2.55
0 0 26 0.29 0.25
2 0 26 53.75 2.53
4 0 26 0 0.25
6 0 26 10.19 0.78
8 0 26 0.15 0.24
10 0 26 0.51 0.27
12 0 26 -0.32 0.23
14 0 26 1.62 0.39
16 0 26 0.16 0.29
-38 -2 26 0.06 0.14
-38 2 26 0.18 0.14
-36 -2 26 0.06 0.15
-36 2 26 0.19 0.14
-34 -2 26 -0.01 0.15
-34 2 26 -0.03 0.14
-32 -2 26 0.24 0.16
-32 2 26 0.32 0.15
-30 -2 26 0.07 0.15
-30 2 26 0.13 0.16
-28 -2 26 0.65 0.18
-26 -2 26 0.24 0.15
-24 -2 26 4.33 0.38
-22 -2 26 0.15 0.14
-20 2 26 14.92 0.98
-18 -2 26 0.02 0.27
-18 2 26 0.47 0.28
-16 -2 26 12.48 0.88
-16 2 26 12.72 0.87
-14 -2 26 -0.05 0.22
-14 2 26 0.06 0.21
-12 -2 26 2.3 0.39
-12 2 26 2.63 0.42
-10 -2 26 -0.08 0.2
-10 2 26 -0.02 0.23
-8 -2 26 0.4 0.24
-8 2 26 0.11 0.22
-6 -2 26 -0.04 0.2
-6 2 26 -0.08 0.19
-4 -2 26 23.01 1.28
-4 2 26 23.43 1.28
-2 -2 26 -0.26 0.19
-2 2 26 0.02 0.23
0 -2 26 50.74 2.42
0 2 26 51.61 2.42
2 -2 26 0.16 0.22
2 2 26 -0.24 0.19
4 -2 26 23.94 1.32
4 2 26 22 1.3
6 -2 26 0.02 0.22
6 2 26 0.19 0.22
8 -2 26 0.35 0.27
8 2 26 0.46 0.26
10 -2 26 0.21 0.26
10 2 26 0.13 0.24
12 -2 26 2.38 0.44
12 2 26 1.56 0.38
14 -2 26 -0.06 0.27
14 2 26 -0.24 0.24
16 -2 26 10.48 0.87
16 2 26 10.63 0.9
18 -2 26 0.09 0.3
-38 -4 26 -0.17 0.14
-36 -4 26 -0.27 0.14
-34 -4 26 -0.01 0.16
-32 -4 26 0.07 0.16
-30 -4 26 0.32 0.17
-28 -4 26 0.13 0.15
-26 -4 26 0.7 0.18
-24 -4 26 0.01 0.14
-22 -4 26 6.16 0.43
-20 4 26 0.43 0.28
-18 -4 26 3.36 0.31
-18 4 26 3.67 0.49
-16 -4 26 -0.15 0.21
-16 4 26 -0.08 0.22
-14 -4 26 0.15 0.27
-14 4 26 0.02 0.22
-12 -4 26 -0.09 0.24
-12 4 26 0.15 0.21
-10 -4 26 0.46 0.28
-10 4 26 0.96 0.3
-8 -4 26 -0.16 0.19
-8 4 26 -0.16 0.2
8 4 -26 -0.03 0.11
-6 -4 26 4.28 0.51
6 4 -26 4.53 0.36
-6 4 26 3.84 0.49
-4 -4 26 -0.07 0.21
-4 4 26 0.26 0.23
4 4 -26 -0.14 0.11
-2 -4 26 23.3 1.29
2 4 -26 21.88 1.13
-2 4 26 24.25 1.28
0 -4 26 0.01 0.22
0 4 -26 -0.03 0.13
0 4 26 0.01 0.24
2 -4 26 23.19 1.32
2 4 26 22.45 1.29
-2 4 -26 24.16 1.17
4 -4 26 -0.1 0.21
4 4 26 0.05 0.22
-4 4 -26 0.01 0.14
6 -4 26 4.55 0.56
-6 4 -26 4.58 0.39
6 4 26 3.91 0.53
8 -4 26 0.04 0.24
-8 4 -26 -0.13 0.13
8 4 26 0.02 0.22
10 -4 26 0.49 0.28
10 4 26 0.66 0.29
-10 4 -26 0.65 0.18
12 -4 26 -0.09 0.22
12 4 26 0.16 0.25
-12 4 -26 -0.05 0.14
14 -4 26 0.09 0.29
14 4 26 0.38 0.27
16 -4 26 -0.2 0.27
18 -4 26 3.16 0.55
-38 -6 26 -0.16 0.14
-36 -6 26 -0.09 0.16
-34 -6 26 -0.3 0.16
-32 -6 26 0.06 0.16
-30 -6 26 0.04 0.17
-28 -6 26 1.24 0.22
-26 -6 26 0.06 0.15
-24 -6 26 0.35 0.16
-22 -6 26 0.09 0.14
-20 -6 26 3.39 0.32
-20 6 26 4.11 0.53
-18 -6 26 -0.05 0.12
-18 6 26 0.31 0.27
-16 -6 26 2.52 0.24
-16 6 26 2.77 0.43
-14 -6 26 -0.13 0.25
-14 -6 26 -0.09 0.1
-14 6 26 0.23 0.25
-12 -6 26 1.99 0.41
12 6 -26 1.02 0.21
-12 6 26 1.79 0.35
-10 -6 26 -0.16 0.2
10 6 -26 -0.21 0.14
-10 6 26 -0.3 0.2
-8 -6 26 -0.07 0.24
8 6 -26 0.19 0.16
-8 6 26 0.13 0.23
-6 -6 26 -0.38 0.2
6 6 -26 -0.06 0.13
-6 6 26 0.02 0.21
-4 -6 26 4.18 0.52
-4 6 26 5.09 0.57
4 6 -26 4.48 0.38
-2 -6 26 0.36 0.25
2 6 -26 0.02 0.14
-2 6 26 -0.14 0.22
0 -6 26 10.64 0.81
0 6 -26 11.46 0.68
0 6 26 12.63 0.82
2 -6 26 0.2 0.22
-2 6 -26 -0.2 0.13
2 6 26 -0.04 0.2
4 -6 26 4.17 0.53
-4 6 -26 4.13 0.38
4 6 26 4.29 0.52
6 -6 26 -0.26 0.23
6 6 26 -0.21 0.21
-6 6 -26 0.01 0.15
8 -6 26 -0.12 0.22
-8 6 -26 0.18 0.17
8 6 26 0.62 0.29
10 -6 26 0.11 0.25
10 6 26 0.05 0.15
-10 6 -26 0.02 0.15
10 6 26 -0.12 0.25
12 -6 26 1.62 0.42
12 6 26 1.59 0.35
-12 6 -26 1.39 0.23
14 -6 26 -0.54 0.29
-14 6 -26 -0.05 0.15
16 -6 26 3.1 0.52
-16 6 -26 3.02 0.34
18 -6 26 -0.01 0.27
20 -6 26 3.5 0.57
-38 -8 26 -0.02 0.14
-36 -8 26 -0.13 0.15
-34 -8 26 0.22 0.18
-32 -8 26 -0.27 0.16
-30 -8 26 -0.01 0.17
-28 -8 26 -0.05 0.16
-26 -8 26 0.05 0.16
-24 -8 26 -0.13 0.14
-22 -8 26 1.73 0.22
-20 -8 26 -0.15 0.12
-20 8 26 0.03 0.26
-18 -8 26 1.84 0.22
-18 8 26 1.76 0.37
-16 -8 26 -0.07 0.12
-16 8 26 -0.03 0.23
-14 -8 26 0.86 0.16
-14 8 26 0.76 0.31
14 8 -26 0.17 0.19
-12 -8 26 0.04 0.25
-12 -8 26 0.01 0.12
12 8 -26 -0.28 0.15
-12 8 26 0.05 0.23
-10 -8 26 4.73 0.56
-10 -8 26 4.17 0.33
-10 8 26 3.56 0.48
10 8 -26 3.91 0.4
-8 -8 26 -0.06 0.24
-8 8 26 -0.37 0.19
8 8 -26 -0.19 0.14
-6 -8 26 0.46 0.27
-6 8 26 -0.12 0.24
6 8 -26 0.24 0.17
-4 -8 26 -0.2 0.2
4 8 -26 -0.14 0.13
-4 8 26 -0.11 0.19
-2 -8 26 -0.08 0.21
2 8 -26 0.79 0.2
-2 8 26 0.09 0.22
0 -8 26 -0.05 0.2
0 8 26 0.04 0.22
0 8 -26 -0.07 0.14
2 -8 26 0.16 0.23
2 8 26 0.38 0.25
-2 8 -26 0.27 0.17
4 -8 26 -0.01 0.23
4 8 26 -0.27 0.21
-4 8 -26 -0.1 0.14
6 -8 26 0.09 0.27
-6 8 -26 -0.02 0.15
6 8 26 0.03 0.25
6 8 26 0.01 0.15
8 -8 26 0.09 0.26
8 8 26 -0.04 0.15
8 8 26 -0.36 0.23
-8 8 -26 -0.12 0.14
10 -8 26 4.44 0.61
-10 8 -26 4.21 0.41
10 8 26 4.02 0.4
10 8 26 4.25 0.54
12 -8 26 -0.59 0.26
12 8 26 -0.03 0.16
-12 8 -26 -0.03 0.16
14 -8 26 0.23 0.31
-14 8 -26 0.53 0.19
16 -8 26 -0.4 0.24
-16 8 -26 0.02 0.16
18 -8 26 2.04 0.45
-18 8 -26 1.77 0.28
20 -8 26 0.35 0.32
-38 -10 26 0.09 0.15
-36 -10 26 0.15 0.16
-34 -10 26 0.08 0.17
-32 -10 26 -0.12 0.17
-30 -10 26 0.08 0.18
-28 -10 26 0.17 0.18
-26 -10 26 -0.22 0.16
-24 -10 26 0.03 0.16
-22 -10 26 -0.23 0.13
-20 -10 26 0.18 0.14
-18 -10 26 -0.14 0.11
-18 10 26 0.39 0.26
-16 -10 26 0.41 0.14
16 10 -26 0.41 0.2
-16 10 26 0.54 0.26
-14 -10 26 -0.18 0.12
-14 10 26 0.24 0.26
14 10 -26 -0.24 0.16
-12 -10 26 1.29 0.19
-12 -10 26 1.12 0.36
-12 10 26 0.91 0.31
12 10 -26 0.64 0.23
-10 -10 26 0.07 0.13
-10 -10 26 -0.16 0.25
-10 10 26 0.14 0.24
10 10 -26 -0.21 0.18
-8 -10 26 4.24 0.35
-8 -10 26 4.61 0.57
8 10 -26 3.73 0.41
-8 10 26 3.89 0.51
-6 -10 26 0.02 0.21
-6 -10 26 0.03 0.12
-6 10 26 -0.35 0.19
6 10 -26 0.21 0.17
-4 -10 26 0.47 0.15
-4 -10 26 0.57 0.26
4 10 -26 0.47 0.21
-4 10 26 0.55 0.28
-2 -10 26 -0.12 0.22
-2 10 26 -0.41 0.21
2 10 -26 0.12 0.19
2 10 -26 0.03 0.15
0 -10 26 0.17 0.27
0 10 -26 0.42 0.21
0 10 -26 0.55 0.2
0 10 26 0.59 0.29
2 -10 26 -0.28 0.19
-2 10 -26 0.11 0.17
-2 10 -26 0.08 0.16
2 10 26 0.08 0.16
2 10 26 0.04 0.22
4 -10 26 0.95 0.31
-4 10 -26 0.07 0.17
4 10 26 0.81 0.31
-4 10 -26 0.42 0.23
4 10 26 0.41 0.18
6 -10 26 -0.03 0.23
-6 10 -26 -0.11 0.2
6 10 26 -0.03 0.15
-6 10 -26 -0.09 0.15
6 10 26 0.29 0.28
8 -10 26 3.7 0.54
8 10 26 4.33 0.54
8 10 26 4.27 0.42
-8 10 -26 4.2 0.42
10 -10 26 0.19 0.31
-10 10 -26 0.24 0.18
10 10 26 0.07 0.17
12 -10 26 1.23 0.42
-12 10 -26 0.97 0.23
12 10 26 0.77 0.23
14 -10 26 0.1 0.31
-14 10 -26 0.06 0.16
14 10 26 -0.15 0.16
16 -10 26 0.92 0.33
16 10 26 0.48 0.2
-16 10 -26 0.61 0.2
18 -10 26 -0.33 0.25
-18 10 -26 -0.05 0.16
-20 10 -26 0.86 0.24
-38 -12 26 0.92 0.18
-36 -12 26 0.1 0.15
-34 -12 26 1.56 0.24
-32 -12 26 -0.07 0.16
-30 -12 26 0.71 0.21
-28 -12 26 -0.28 0.17
-26 -12 26 0.19 0.19
-24 -12 26 -0.24 0.15
-22 -12 26 0.08 0.15
-20 -12 26 0.08 0.14
-18 -12 26 0.5 0.16
-18 12 26 0.87 0.37
18 12 -26 0.46 0.21
-16 -12 26 0.1 0.14
16 12 -26 -0.06 0.18
-16 12 26 -0.14 0.28
-14 -12 26 0.33 0.15
-14 12 26 0.04 0.24
14 12 -26 0.07 0.19
-12 -12 26 -0.01 0.13
-12 12 26 -0.04 0.24
12 12 -26 -0.27 0.17
-10 -12 26 1.32 0.19
-10 -12 26 0.72 0.29
10 12 -26 0.51 0.23
-10 12 26 1.46 0.37
-8 -12 26 -0.12 0.12
-8 -12 26 -0.13 0.25
-8 12 26 -0.07 0.24
8 12 -26 0.11 0.19
-6 -12 26 1.87 0.42
-6 -12 26 1.69 0.22
6 12 -26 1.45 0.27
-6 12 26 1.86 0.36
-4 -12 26 -0.05 0.13
-4 -12 26 -0.36 0.22
-4 12 26 0.06 0.21
4 12 -26 0.07 0.2
4 12 -26 0.06 0.18
-2 -12 26 1.79 0.41
-2 -12 26 1.86 0.22
-2 12 26 2.04 0.37
2 12 -26 2.03 0.31
2 12 -26 1.97 0.35
0 -12 26 0.15 0.22
0 -12 26 -0.15 0.11
0 12 -26 0.07 0.17
0 12 26 -0.06 0.14
0 12 26 0.25 0.23
0 12 -26 -0.15 0.19
2 -12 26 2.17 0.43
2 -12 26 2.01 0.22
2 12 26 3.12 0.46
-2 12 -26 1.55 0.33
2 12 26 2.44 0.31
-2 12 -26 2.14 0.32
4 -12 26 0.01 0.24
4 -12 26 0.18 0.13
-4 12 -26 0.07 0.17
4 12 26 0.19 0.26
-4 12 -26 -0.16 0.21
4 12 26 0.19 0.16
6 -12 26 1.55 0.39
-6 12 -26 1.32 0.27
6 12 26 2.18 0.3
6 12 26 1.7 0.38
-6 12 -26 1.84 0.36
8 -12 26 0.15 0.29
-8 12 -26 0.11 0.18
8 12 26 0.01 0.25
8 12 26 0.2 0.19
-8 12 -26 0.26 0.24
10 -12 26 0.67 0.35
-10 12 -26 1.18 0.33
10 12 26 0.97 0.24
-10 12 -26 0.68 0.22
12 -12 26 -0.07 0.27
-12 12 -26 0.02 0.16
12 12 26 0.22 0.18
14 -12 26 0.19 0.32
14 12 26 0.3 0.19
-14 12 -26 0.14 0.16
16 -12 26 -0.02 0.31
16 12 26 0.11 0.18
-16 12 -26 0.21 0.17
18 -12 26 0.55 0.32
-18 12 -26 0.59 0.21
18 12 26 0.46 0.21
-20 12 -26 0.23 0.18
-22 12 -26 0.36 0.21
-38 -14 26 -0.05 0.13
-36 -14 26 0.55 0.17
-34 -14 26 0.15 0.17
-32 -14 26 0.23 0.19
-30 -14 26 -0.51 0.17
-28 -14 26 0.22 0.19
-26 -14 26 -0.25 0.18
-24 -14 26 -0.13 0.17
-22 -14 26 -0.26 0.14
-20 -14 26 -0.01 0.15
20 14 -26 0.07 0.2
-18 -14 26 -0.1 0.14
18 14 -26 0.01 0.18
-16 -14 26 0.22 0.15
-16 14 26 0.21 0.25
16 14 -26 -0.05 0.18
-14 -14 26 0.13 0.14
-14 14 26 -0.21 0.24
14 14 -26 -0.01 0.18
-12 -14 26 0.58 0.16
12 14 -26 0.01 0.19
-12 14 26 0.1 0.25
-10 -14 26 0.02 0.12
-10 14 26 -0.1 0.22
10 14 -26 -0.17 0.18
-8 -14 26 0.8 0.18
-8 -14 26 0.51 0.31
8 14 -26 0.31 0.21
-8 14 26 0.71 0.3
-6 -14 26 -0.12 0.12
-6 -14 26 -0.41 0.25
-6 14 26 0.1 0.23
6 14 -26 0 0.17
-4 -14 26 0.29 0.16
-4 -14 26 0.31 0.31
4 14 -26 0.3 0.21
-4 14 26 0.26 0.24
4 14 -26 0.92 0.28
-2 -14 26 -0.04 0.13
-2 -14 26 -0.11 0.25
2 14 -26 0.19 0.18
2 14 -26 0.04 0.21
-2 14 26 0.43 0.27
0 -14 26 2.17 0.4
0 -14 26 1.82 0.22
0 14 26 1.81 0.27
0 14 -26 1.43 0.27
0 14 26 1.99 0.38
0 14 -26 1.96 0.36
2 -14 26 -0.01 0.13
2 -14 26 -0.07 0.22
2 14 26 0.19 0.16
2 14 26 0.14 0.22
-2 14 -26 0.13 0.18
-2 14 -26 0.1 0.21
4 -14 26 0.29 0.27
4 -14 26 0.42 0.15
4 14 26 0.26 0.27
-4 14 -26 0.41 0.27
4 14 26 0.2 0.17
-4 14 -26 0.35 0.2
6 -14 26 0.29 0.3
6 -14 26 -0.03 0.13
6 14 26 0.09 0.17
6 14 26 0.26 0.25
-6 14 -26 -0.09 0.16
-6 14 -26 0.17 0.23
8 -14 26 0.61 0.16
8 -14 26 0.46 0.31
8 14 26 0.93 0.23
-8 14 -26 0.36 0.19
-8 14 -26 0.42 0.25
10 -14 26 -0.16 0.12
10 -14 26 -0.29 0.27
-10 14 -26 -0.16 0.22
-10 14 -26 0 0.16
10 14 26 -0.04 0.16
12 -14 26 0.49 0.16
12 -14 26 -0.16 0.29
-12 14 -26 0.44 0.27
12 14 26 0.14 0.18
-12 14 -26 0.22 0.18
14 -14 26 0.21 0.32
14 -14 26 -0.15 0.14
14 14 26 0.13 0.18
-14 14 -26 -0.07 0.16
16 -14 26 0.14 0.29
16 -14 26 0.36 0.16
16 14 26 -0.2 0.17
-16 14 -26 0.21 0.18
18 -14 26 0.02 0.16
18 14 26 0.01 0.19
-18 14 -26 0.1 0.18
-20 14 -26 0.01 0.17
-22 14 -26 0.03 0.19
-24 14 -26 0.32 0.22
-36 -16 26 0.16 0.15
-34 -16 26 1.63 0.24
-32 -16 26 0.16 0.17
-30 -16 26 1.15 0.23
-28 -16 26 0.05 0.17
-26 -16 26 0.17 0.18
-24 -16 26 -0.16 0.16
-22 -16 26 0.07 0.16
22 16 -26 0.36 0.24
-20 -16 26 0 0.16
20 16 -26 -0.21 0.18
-18 -16 26 0.86 0.2
18 16 -26 0.46 0.23
-16 -16 26 0.04 0.15
16 16 -26 -0.09 0.19
-14 -16 26 0.36 0.16
14 16 -26 -0.18 0.19
-14 16 26 0.6 0.31
-12 -16 26 0.07 0.14
-12 16 26 0.27 0.24
12 16 -26 0.27 0.21
-10 -16 26 0.35 0.16
10 16 -26 0.1 0.19
-10 16 26 0.22 0.24
-8 -16 26 -0.1 0.14
8 16 -26 0.05 0.2
-8 16 26 0.06 0.24
-6 -16 26 2.55 0.46
-6 -16 26 1.89 0.24
-6 16 26 2.85 0.43
6 16 -26 2.69 0.37
-4 -16 26 0 0.27
-4 -16 26 -0.07 0.13
4 16 -26 -0.14 0.2
4 16 -26 0.07 0.18
-4 16 26 0.15 0.25
-2 -16 26 11.27 0.86
-2 -16 26 11.83 0.71
2 16 -26 12.05 0.9
-2 16 26 13.2 0.77
2 16 -26 13.16 0.8
-2 16 26 13.02 0.87
0 -16 26 -0.07 0.14
0 -16 26 0.23 0.25
0 16 -26 0.2 0.19
0 16 26 0.04 0.15
0 16 26 -0.08 0.23
0 16 -26 0.24 0.25
2 -16 26 13.27 0.94
2 -16 26 11.06 0.69
-2 16 -26 11.87 0.89
-2 16 -26 13.45 0.79
2 16 26 10.92 0.82
2 16 26 13.91 0.78
4 -16 26 -0.02 0.29
4 -16 26 -0.04 0.14
4 16 26 -0.12 0.24
-4 16 -26 0.16 0.24
4 16 26 0.11 0.17
-4 16 -26 0.03 0.16
6 -16 26 2.87 0.32
6 -16 26 2.52 0.46
-6 16 -26 2.99 0.44
6 16 26 2.49 0.33
-6 16 -26 2.8 0.35
8 -16 26 0.1 0.29
8 -16 26 0.01 0.14
-8 16 -26 0.03 0.23
-8 16 -26 -0.07 0.16
8 16 26 0.07 0.17
10 -16 26 0.7 0.35
10 -16 26 0.46 0.16
-10 16 -26 0.18 0.19
-10 16 -26 0.49 0.28
10 16 26 0.25 0.18
12 -16 26 -0.22 0.26
12 -16 26 0.16 0.14
-12 16 -26 -0.05 0.16
-12 16 -26 -0.04 0.26
12 16 26 0.16 0.18
14 -16 26 0.2 0.15
14 -16 26 0.09 0.28
-14 16 -26 0.26 0.25
14 16 26 0.32 0.2
-14 16 -26 0.16 0.18
16 -16 26 -0.19 0.14
16 16 26 0.08 0.19
-16 16 -26 0.02 0.18
18 -16 26 0.88 0.2
-18 16 -26 0.57 0.22
18 16 26 0.49 0.23
20 -16 26 0.11 0.15
-20 16 -26 0.04 0.17
20 16 26 -0.12 0.19
22 -16 26 0.23 0.16
-22 16 -26 0.28 0.2
24 -16 26 -0.06 0.15
26 -16 26 -0.1 0.16
-36 -18 26 0.31 0.16
-34 -18 26 0.09 0.16
-32 -18 26 -0.01 0.17
-30 -18 26 -0.17 0.17
-28 -18 26 0.05 0.18
-26 -18 26 -0.17 0.16
-24 -18 26 -0.09 0.17
-22 -18 26 -0.26 0.16
-20 -18 26 1.84 0.27
20 18 -26 2.28 0.36
-18 -18 26 -0.18 0.15
18 18 -26 0.13 0.2
-16 -18 26 0.71 0.18
16 18 -26 0.92 0.26
-14 -18 26 -0.04 0.15
14 18 -26 -0.11 0.2
-12 -18 26 0.68 0.19
12 18 -26 0.64 0.25
-10 -18 26 0.18 0.16
-10 18 26 0.54 0.29
10 18 -26 0.15 0.21
-8 -18 26 1.91 0.24
8 18 -26 2.09 0.35
-8 18 26 2.31 0.42
-6 -18 26 0.13 0.15
6 18 -26 -0.1 0.19
-6 18 26 0.28 0.24
-4 -18 26 4.24 0.38
-4 -18 26 3.5 0.52
4 18 -26 3.31 0.41
-4 18 26 4.2 0.51
4 18 -26 3.63 0.48
-2 -18 26 0.33 0.32
-2 -18 26 0.01 0.15
-2 18 26 0.58 0.26
-2 18 26 0.29 0.18
2 18 -26 0.27 0.2
2 18 -26 0.18 0.25
0 -18 26 11.97 0.71
0 -18 26 12.03 0.92
0 18 -26 12.08 0.91
0 18 26 12.58 0.87
0 18 -26 12.25 0.8
0 18 26 12.56 0.77
2 -18 26 -0.02 0.28
2 -18 26 0.06 0.14
-2 18 -26 0.22 0.18
2 18 26 0.25 0.27
2 18 26 0.14 0.17
-2 18 -26 0.6 0.28
4 -18 26 3.55 0.53
4 -18 26 4.32 0.39
4 18 26 4.82 0.45
-4 18 -26 3.63 0.5
-4 18 -26 3.46 0.42
6 -18 26 -0.11 0.23
6 -18 26 0 0.13
6 18 26 0.05 0.17
-6 18 -26 0.09 0.17
-6 18 -26 0.14 0.24
8 -18 26 1.83 0.23
8 -18 26 1.79 0.4
-8 18 -26 1.75 0.36
-8 18 -26 1.67 0.29
8 18 26 2.14 0.33
10 -18 26 -0.03 0.13
10 -18 26 -0.27 0.26
10 18 26 0 0.18
-10 18 -26 -0.02 0.15
-10 18 -26 0.04 0.24
12 -18 26 0.38 0.16
-12 18 -26 0.43 0.19
-12 18 -26 0.42 0.3
12 18 26 0.29 0.2
14 -18 26 0.07 0.14
-14 18 -26 0.09 0.24
-14 18 -26 -0.11 0.17
14 18 26 -0.1 0.18
16 -18 26 0.67 0.19
16 18 26 0.67 0.25
-16 18 -26 0.39 0.22
18 -18 26 -0.09 0.15
-18 18 -26 -0.05 0.18
18 18 26 -0.15 0.17
20 -18 26 1.81 0.24
20 18 26 1.82 0.33
-20 18 -26 2.18 0.35
22 -18 26 -0.05 0.16
24 -18 26 0.14 0.17
26 -18 26 -0.11 0.15
28 -18 26 -0.23 0.14
-34 -20 26 0.72 0.18
-32 -20 26 -0.18 0.16
-30 -20 26 0.82 0.2
-28 -20 26 -0.2 0.16
-26 -20 26 -0.03 0.17
-24 -20 26 -0.13 0.16
-22 -20 26 0.53 0.2
-20 -20 26 -0.05 0.16
-18 -20 26 2 0.27
18 20 -26 2.1 0.35
-16 -20 26 0.09 0.16
16 20 -26 -0.13 0.17
-14 -20 26 0.14 0.15
14 20 -26 -0.03 0.21
-12 -20 26 0.11 0.16
12 20 -26 0.12 0.2
-10 -20 26 0.53 0.18
10 20 -26 0.43 0.24
-8 -20 26 0 0.15
8 20 -26 -0.03 0.19
-8 20 26 0.13 0.25
-6 -20 26 4.21 0.4
-6 20 26 3.85 0.5
6 20 -26 3.4 0.43
-4 -20 26 0.14 0.17
4 20 -26 0.01 0.2
4 20 -26 0.19 0.27
-4 20 26 0.41 0.27
-2 -20 26 14.83 0.85
-2 -20 26 13.87 1.03
2 20 -26 17.52 0.98
-2 20 26 17.6 0.94
2 20 -26 13.78 1.04
-2 20 26 14.04 0.97
0 -20 26 0.41 0.31
0 -20 26 0.22 0.17
0 20 -26 0.11 0.21
0 20 26 0.41 0.28
0 20 26 0.38 0.2
0 20 -26 0.2 0.28
2 -20 26 14.39 1.04
2 -20 26 15.37 0.87
-2 20 -26 13.27 1.03
2 20 26 16.23 0.93
-2 20 -26 17.53 0.97
4 -20 26 0.05 0.16
4 -20 26 -0.1 0.27
-4 20 -26 0.14 0.19
4 20 26 0.24 0.19
-4 20 -26 0.09 0.25
6 -20 26 3.12 0.52
6 -20 26 2.51 0.29
-6 20 -26 3.69 0.52
6 20 26 4.32 0.45
-6 20 -26 3.57 0.41
8 -20 26 0.29 0.28
8 -20 26 -0.07 0.15
8 20 26 0.06 0.19
-8 20 -26 0.21 0.18
-8 20 -26 -0.11 0.23
10 -20 26 0.26 0.16
-10 20 -26 0.66 0.32
10 20 26 0.88 0.25
-10 20 -26 0.47 0.21
12 -20 26 0.04 0.15
-12 20 -26 -0.09 0.17
12 20 26 -0.16 0.17
-12 20 -26 -0.2 0.26
14 -20 26 0.09 0.16
-14 20 -26 0.3 0.21
14 20 26 0.08 0.2
16 -20 26 0.02 0.16
16 20 26 -0.24 0.18
-16 20 -26 -0.03 0.19
18 -20 26 1.94 0.25
-18 20 -26 1.94 0.33
18 20 26 1.27 0.3
20 -20 26 0.03 0.16
-20 20 -26 -0.05 0.19
22 -20 26 0.57 0.19
24 -20 26 -0.11 0.15
26 -20 26 -0.18 0.15
28 -20 26 -0.1 0.15
30 -20 26 0.49 0.17
-32 20 -26 -0.02 0.14
-34 -22 26 -0.03 0.14
-32 -22 26 0.07 0.16
-30 -22 26 -0.11 0.16
-28 -22 26 0.28 0.18
-26 -22 26 -0.01 0.17
-24 -22 26 -0.26 0.16
-22 -22 26 -0.21 0.16
-20 -22 26 0.77 0.21
-18 -22 26 -0.09 0.16
-16 -22 26 0.23 0.18
16 22 -26 0.31 0.21
-14 -22 26 0.11 0.18
14 22 -26 -0.21 0.19
-12 -22 26 0.25 0.19
12 22 -26 0.4 0.23
-10 -22 26 0.07 0.17
10 22 -26 -0.14 0.19
-8 -22 26 2.37 0.29
8 22 -26 2.02 0.36
-6 -22 26 -0.01 0.16
6 22 -26 -0.14 0.2
-4 -22 26 6.34 0.51
4 22 -26 5.94 0.58
-4 22 26 6.61 0.55
4 22 -26 4.56 0.58
-2 -22 26 0.32 0.18
-2 22 26 0.12 0.19
-2 22 26 0.51 0.28
2 22 -26 0.26 0.22
2 22 -26 0.29 0.28
0 -22 26 13.91 0.79
0 -22 26 11.32 0.96
0 22 26 14 0.85
0 22 -26 13.88 0.88
0 22 -26 12.54 0.97
2 -22 26 0.66 0.33
2 -22 26 0.46 0.2
-2 22 -26 0.37 0.26
2 22 26 0.22 0.2
-2 22 -26 0.06 0.19
4 -22 26 6.32 0.52
4 22 26 7.94 0.59
-4 22 -26 6.55 0.7
-4 22 -26 6.28 0.57
6 -22 26 -0.01 0.16
-6 22 -26 -0.11 0.25
6 22 26 0 0.18
-6 22 -26 0.44 0.21
8 -22 26 2.17 0.28
8 22 26 1.96 0.33
-8 22 -26 2.6 0.36
10 -22 26 0.24 0.17
10 22 26 0.03 0.18
-10 22 -26 0.1 0.17
12 -22 26 0.27 0.17
-12 22 -26 0.37 0.21
12 22 26 0.05 0.2
14 -22 26 -0.05 0.17
14 22 26 -0.04 0.18
-14 22 -26 -0.05 0.18
16 -22 26 0.06 0.18
16 22 26 0.14 0.21
-16 22 -26 0.25 0.21
18 -22 26 -0.09 0.17
20 -22 26 0.54 0.2
22 -22 26 -0.1 0.16
24 -22 26 -0.2 0.15
26 -22 26 -0.31 0.15
28 -22 26 0 0.16
30 -22 26 0 0.15
-32 22 -26 -0.16 0.12
-32 -24 26 0 0.15
-30 -24 26 0.28 0.18
-28 -24 26 -0.1 0.17
-26 -24 26 0.16 0.18
-24 -24 26 -0.38 0.16
-22 -24 26 0.07 0.17
-20 -24 26 -0.09 0.16
-18 -24 26 0.18 0.18
-16 -24 26 0.16 0.18
-14 -24 26 0.15 0.19
14 24 -26 -0.04 0.21
-12 -24 26 -0.03 0.18
12 24 -26 -0.05 0.2
-10 -24 26 0.15 0.19
10 24 -26 0.37 0.25
-8 -24 26 0.05 0.18
8 24 -26 -0.01 0.2
-6 -24 26 0.5 0.2
6 24 -26 0.73 0.26
-4 -24 26 0.02 0.18
4 24 -26 -0.21 0.19
-4 24 26 0.1 0.2
-2 -24 26 4.78 0.46
-2 24 26 5.29 0.5
2 24 -26 3.73 0.47
0 -24 26 0.31 0.19
0 24 -26 0.35 0.23
0 24 26 0.13 0.2
2 -24 26 4.86 0.48
2 24 26 5.02 0.51
-2 24 -26 4.95 0.53
4 -24 26 0.13 0.19
4 24 26 -0.07 0.18
-4 24 -26 0.23 0.2
6 -24 26 0.4 0.2
-6 24 -26 0.63 0.23
6 24 26 0.51 0.23
8 -24 26 0.14 0.18
8 24 26 -0.1 0.18
-8 24 -26 0.13 0.2
10 -24 26 0.22 0.19
10 24 26 0.19 0.23
-10 24 -26 0.43 0.22
12 -24 26 0.05 0.18
-12 24 -26 0.18 0.2
12 24 26 0.22 0.21
14 -24 26 0.04 0.19
14 24 26 0.25 0.22
-14 24 -26 0.19 0.21
16 -24 26 -0.37 0.18
18 -24 26 0.19 0.19
20 -24 26 -0.27 0.16
22 -24 26 -0.14 0.16
24 -24 26 0.08 0.17
26 -24 26 0.15 0.17
28 -24 26 0.04 0.16
30 -24 26 0.35 0.16
-30 -26 26 0.05 0.16
-28 -26 26 0.17 0.18
-26 -26 26 -0.11 0.17
-24 -26 26 0.31 0.19
-22 -26 26 -0.17 0.17
-20 -26 26 0.07 0.17
-18 -26 26 -0.01 0.18
-16 -26 26 0.26 0.19
-14 -26 26 0.21 0.19
-12 -26 26 0.42 0.2
-10 -26 26 0.09 0.2
10 26 -26 -0.12 0.21
-8 -26 26 0.35 0.22
8 26 -26 0.51 0.26
-6 -26 26 -0.03 0.19
6 26 -26 0.12 0.23
-4 -26 26 0.58 0.23
4 26 -26 0.9 0.29
-2 -26 26 -0.21 0.19
-2 26 26 0.27 0.21
2 26 -26 0.26 0.23
0 -26 26 2.55 0.34
0 26 26 2.72 0.38
0 26 -26 2.43 0.39
2 -26 26 0.06 0.2
-2 26 -26 0.07 0.21
2 26 26 -0.13 0.18
4 -26 26 0.61 0.23
4 26 26 0.62 0.23
-4 26 -26 0.47 0.25
6 -26 26 0.03 0.19
-6 26 -26 -0.02 0.2
6 26 26 -0.17 0.19
8 -26 26 0.25 0.21
8 26 26 0.59 0.25
-8 26 -26 0.23 0.21
10 -26 26 0.13 0.2
-10 26 -26 -0.09 0.19
10 26 26 -0.15 0.18
12 -26 26 0.3 0.21
14 -26 26 0.12 0.21
16 -26 26 0.06 0.2
18 -26 26 -0.27 0.18
20 -26 26 -0.16 0.17
22 -26 26 -0.19 0.17
24 -26 26 0.05 0.17
26 -26 26 0.04 0.16
28 -26 26 0.15 0.16
30 -26 26 0 0.14
-28 -28 26 -0.16 0.16
-26 -28 26 0.06 0.18
-24 -28 26 -0.14 0.17
-22 -28 26 -0.05 0.18
-20 -28 26 -0.18 0.16
-18 -28 26 -0.03 0.18
-16 -28 26 0.18 0.19
-14 -28 26 -0.07 0.19
-12 -28 26 0.07 0.2
-10 -28 26 0.42 0.22
-8 -28 26 0.04 0.21
-6 -28 26 1.06 0.25
-4 -28 26 -0.11 0.19
-2 -28 26 0.55 0.23
-2 28 26 0.32 0.22
2 28 -26 0.57 0.26
0 -28 26 0.02 0.21
0 28 -26 0.06 0.21
0 28 26 -0.14 0.19
2 -28 26 0.51 0.23
-2 28 -26 0.58 0.26
2 28 26 0.42 0.24
4 -28 26 0.03 0.21
6 -28 26 1.44 0.28
8 -28 26 0.12 0.21
10 -28 26 -0.18 0.2
12 -28 26 -0.12 0.2
14 -28 26 0.02 0.2
16 -28 26 -0.13 0.19
18 -28 26 -0.36 0.18
20 -28 26 -0.29 0.17
22 -28 26 -0.03 0.18
24 -28 26 0.06 0.17
26 -28 26 0.11 0.16
28 -28 26 -0.13 0.14
-26 -30 26 -0.11 0.16
-24 -30 26 0.11 0.18
-22 -30 26 -0.04 0.18
-20 -30 26 0.51 0.21
-18 -30 26 -0.27 0.18
-16 -30 26 1.06 0.24
-14 -30 26 0.1 0.19
-12 -30 26 1.09 0.24
-10 -30 26 -0.16 0.2
-8 -30 26 -0.15 0.2
-6 -30 26 -0.08 0.2
-4 -30 26 0.21 0.22
-2 -30 26 -0.08 0.22
0 -30 26 -0.21 0.2
2 -30 26 -0.43 0.21
4 -30 26 0.16 0.22
6 -30 26 0.21 0.22
8 -30 26 -0.11 0.21
10 -30 26 0.22 0.21
12 -30 26 0.64 0.23
14 -30 26 -0.17 0.2
16 -30 26 1.21 0.24
18 -30 26 -0.13 0.18
20 -30 26 0.83 0.21
22 -30 26 -0.08 0.16
24 -30 26 0.18 0.16
26 -30 26 -0.2 0.15
-24 -32 26 -0.28 0.14
-22 -32 26 -0.19 0.16
-20 -32 26 -0.26 0.16
-18 -32 26 0.02 0.18
-16 -32 26 0.02 0.18
-14 -32 26 0.52 0.21
-12 -32 26 0.14 0.2
-10 -32 26 0.11 0.2
-8 -32 26 -0.06 0.19
-6 -32 26 0.12 0.22
-4 -32 26 -0.45 0.19
-2 -32 26 -0.36 0.18
0 -32 26 -0.15 0.2
2 -32 26 0 0.2
4 -32 26 -0.2 0.19
6 -32 26 0.23 0.21
8 -32 26 -0.05 0.19
10 -32 26 -0.21 0.19
12 -32 26 0.06 0.19
14 -32 26 0.46 0.21
16 -32 26 -0.03 0.19
18 -32 26 0.22 0.18
20 -32 26 -0.24 0.16
22 -32 26 0.06 0.17
24 -32 26 0.03 0.15
-22 -34 26 0.07 0.15
-20 -34 26 0.52 0.18
-18 -34 26 0.02 0.16
-16 -34 26 1.21 0.23
-14 -34 26 0.01 0.17
-12 -34 26 1.46 0.25
-10 -34 26 0.06 0.18
-8 -34 26 0.43 0.22
-6 -34 26 -0.03 0.19
-4 -34 26 -0.07 0.2
-2 -34 26 -0.08 0.2
0 -34 26 -0.2 0.18
2 -34 26 -0.1 0.19
4 -34 26 -0.2 0.18
6 -34 26 0.02 0.18
8 -34 26 0.42 0.2
10 -34 26 0.03 0.19
12 -34 26 1.58 0.26
14 -34 26 -0.08 0.17
16 -34 26 1.49 0.24
18 -34 26 -0.05 0.17
20 -34 26 0.67 0.19
22 -34 26 -0.14 0.14
-18 -36 26 0.42 0.16
-16 -36 26 -0.05 0.15
-14 -36 26 0.4 0.17
-12 -36 26 0.11 0.17
-10 -36 26 -0.03 0.17
-8 -36 26 0.13 0.18
-6 -36 26 0.07 0.18
-4 -36 26 0.01 0.17
-2 -36 26 0.3 0.19
0 -36 26 0.08 0.19
2 -36 26 0.18 0.19
4 -36 26 -0.03 0.17
6 -36 26 0.11 0.18
8 -36 26 -0.17 0.17
10 -36 26 0.19 0.18
12 -36 26 0.2 0.17
14 -36 26 0.39 0.18
16 -36 26 0.08 0.16
18 -36 26 0.26 0.16
-14 -38 26 0.02 0.14
-12 -38 26 0.74 0.18
-10 -38 26 -0.11 0.15
-8 -38 26 0.26 0.17
-6 -38 26 -0.02 0.16
-4 -38 26 -0.03 0.17
-2 -38 26 -0.11 0.16
0 -38 26 0.19 0.18
2 -38 26 -0.03 0.16
4 -38 26 0.1 0.16
6 -38 26 0.02 0.16
8 -38 26 0.16 0.17
10 -38 26 0.02 0.16
12 -38 26 0.6 0.18
14 -38 26 -0.06 0.14
-6 -40 26 0.12 0.15
-4 -40 26 -0.03 0.15
-2 -40 26 0.44 0.16
0 -40 26 0.04 0.14
2 -40 26 0.21 0.15
4 -40 26 -0.02 0.15
6 -40 26 -0.03 0.14
-37 -1 27 0.09 0.14
-35 -1 27 0.08 0.15
-35 1 27 -0.02 0.14
-33 -1 27 0.1 0.14
-33 1 27 0.12 0.14
-31 -1 27 0.02 0.14
-29 -1 27 0.45 0.17
-27 -1 27 0.03 0.14
-19 1 27 -0.07 0.25
-17 -1 27 0.14 0.28
-17 1 27 0 0.26
-15 -1 27 0.15 0.27
-15 1 27 0.19 0.27
-13 -1 27 0.36 0.27
-13 1 27 0.28 0.28
-11 -1 27 0.81 0.29
-11 1 27 0.4 0.25
-9 -1 27 0.76 0.31
-9 1 27 1.11 0.33
-7 -1 27 0.94 0.32
-7 1 27 0.97 0.33
-5 -1 27 0.08 0.24
-5 1 27 0.7 0.28
-3 -1 27 0.11 0.21
-3 1 27 -0.16 0.25
-1 -1 27 -0.35 0.2
-1 1 27 -0.13 0.23
1 -1 27 -0.15 0.22
1 1 27 0.24 0.24
3 -1 27 0.44 0.29
3 1 27 0.25 0.24
5 -1 27 0.86 0.33
5 1 27 0.37 0.26
7 -1 27 0.52 0.28
7 1 27 0.44 0.31
9 -1 27 1.15 0.34
9 1 27 0.6 0.32
11 -1 27 0.94 0.33
11 1 27 0.47 0.29
13 -1 27 -0.02 0.28
13 1 27 0.11 0.25
15 -1 27 -0.18 0.29
15 1 27 -0.35 0.26
17 -1 27 -0.06 0.28
-37 -3 27 0.2 0.15
-35 -3 27 -0.05 0.15
-33 -3 27 0.66 0.18
-31 -3 27 1.17 0.21
-29 -3 27 1.41 0.22
-27 -3 27 2 0.24
-25 -3 27 1.47 0.21
-23 -3 27 0.51 0.16
-21 -3 27 0.08 0.14
-21 3 27 0.2 0.3
-19 3 27 0.8 0.31
-17 -3 27 3.45 0.51
-17 3 27 3.24 0.47
-15 -3 27 8.98 0.74
-15 3 27 8.05 0.69
-13 -3 27 14.83 0.97
-13 3 27 13.33 0.91
-11 -3 27 18.95 1.13
-11 3 27 18.75 1.11
-9 -3 27 14.28 0.94
-9 3 27 14.3 0.94
-7 -3 27 16.26 1.04
-7 3 27 17.92 1.06
-5 -3 27 8.45 0.7
-5 3 27 8.81 0.71
-3 -3 27 5.4 0.62
-3 3 27 4.02 0.53
-1 -3 27 -0.23 0.2
-1 3 27 0.29 0.26
1 -3 27 0.25 0.24
-1 3 -27 0.21 0.14
1 3 27 0.23 0.23
3 -3 27 4.74 0.57
-3 3 -27 4.23 0.36
3 3 27 4 0.54
5 -3 27 8.79 0.73
5 3 27 8.17 0.74
7 -3 27 17.03 1.09
7 3 27 16.62 1.09
9 -3 27 14.12 1.02
9 3 27 15.09 1.04
11 -3 27 18.35 1.17
11 3 27 18.32 1.18
13 -3 27 13.85 0.98
13 3 27 10.35 0.87
15 -3 27 8.32 0.76
15 3 27 7.8 0.75
17 -3 27 2.23 0.49
19 -3 27 0.61 0.38
-39 -5 27 0.28 0.15
-37 -5 27 -0.14 0.14
-35 -5 27 0.01 0.16
-33 -5 27 1.23 0.22
-31 -5 27 1.76 0.24
-29 -5 27 6.02 0.47
-27 -5 27 3.59 0.38
-25 -5 27 4.13 0.37
-23 -5 27 0.94 0.19
-21 -5 27 0.36 0.16
-19 -5 27 0.1 0.13
-19 5 27 0.45 0.28
-17 -5 27 1.51 0.2
-17 5 27 1.42 0.35
-15 -5 27 9.4 0.78
-15 5 27 10 0.78
-13 -5 27 13.99 0.95
-13 5 27 14.75 0.96
-11 -5 27 28.82 1.53
-11 5 27 27.08 1.47
-9 -5 27 25.36 1.42
-9 5 27 25.68 1.4
-7 -5 27 26.14 1.47
-7 5 27 29.3 1.49
7 5 -27 26.77 1.32
-5 -5 27 16.22 1.03
-5 5 27 15.56 1
5 5 -27 16.06 0.85
-3 -5 27 9.25 0.73
-3 5 27 8.75 0.71
3 5 -27 8.38 0.54
-1 -5 27 0.68 0.31
-1 5 27 0.2 0.24
1 5 -27 0.35 0.16
1 -5 27 0.49 0.29
1 5 27 0.13 0.23
-1 5 -27 0.42 0.17
3 -5 27 10.26 0.78
-3 5 -27 9.07 0.59
3 5 27 9.5 0.77
5 -5 27 14.68 1.03
5 5 27 16.62 1.06
-5 5 -27 16.43 0.88
7 -5 27 27.39 1.54
-7 5 -27 27.54 1.35
7 5 27 26.5 1.51
9 -5 27 25.46 1.47
-9 5 -27 25.79 1.26
9 5 27 23.11 1.4
11 -5 27 28.81 1.58
11 5 27 26.46 1.53
-11 5 -27 27.31 1.36
13 -5 27 13.82 1.01
13 5 27 12.18 0.95
15 -5 27 9.27 0.86
17 -5 27 1.21 0.39
19 -5 27 0.5 0.31
-37 -7 27 -0.03 0.14
-35 -7 27 0.32 0.17
-33 -7 27 2.14 0.26
-31 -7 27 4.66 0.43
-29 -7 27 7.19 0.53
-27 -7 27 7.61 0.54
-25 -7 27 7.3 0.5
-23 -7 27 3.08 0.34
-21 -7 27 0.47 0.16
-19 -7 27 0.49 0.15
-19 7 27 0.68 0.31
-17 -7 27 4.01 0.33
-17 7 27 3.62 0.49
-15 -7 27 17.26 0.88
-15 7 27 17.39 1.08
-13 -7 27 28.86 1.57
-13 -7 27 29.36 1.4
-13 7 27 29.9 1.56
-11 -7 27 54.5 2.59
11 7 -27 56.89 2.52
-11 7 27 52.87 2.55
-9 -7 27 44.77 2.27
9 7 -27 48.09 2.2
-9 7 27 49.71 2.29
-7 -7 27 49.83 2.42
-7 7 27 52.56 2.41
7 7 -27 50.06 2.34
-5 -7 27 25.49 1.46
-5 7 27 27.12 1.44
5 7 -27 26.62 1.32
-3 -7 27 18.23 1.09
-3 7 27 17.48 1.06
3 7 -27 16.47 0.93
-1 -7 27 1.06 0.32
1 7 -27 0.74 0.2
-1 7 27 0.95 0.31
1 -7 27 0.93 0.32
-1 7 -27 1.04 0.23
1 7 27 1.09 0.32
3 -7 27 17.73 1.1
-3 7 -27 17.11 0.93
3 7 27 16.19 1.05
5 -7 27 25.9 1.47
5 7 27 26.44 1.45
-5 7 -27 26.09 1.32
7 -7 27 50.58 2.47
-7 7 -27 51.21 2.36
7 7 27 50.72 2.45
9 -7 27 45.54 2.29
-9 7 -27 47.87 2.17
9 7 27 43.5 2.23
11 -7 27 53.88 2.59
-11 7 -27 55.36 2.45
11 7 27 47.97 2.5
13 -7 27 28.12 1.65
-13 7 -27 30.65 1.48
15 -7 27 17.63 1.22
-15 7 -27 18.23 0.99
17 -7 27 4.63 0.66
19 -7 27 0.43 0.33
-37 -9 27 0.06 0.15
-35 -9 27 0.27 0.16
-33 -9 27 1.9 0.25
-31 -9 27 3.01 0.31
-29 -9 27 9.21 0.61
-27 -9 27 5.57 0.45
-25 -9 27 8.87 0.59
-23 -9 27 2.34 0.27
-21 -9 27 0.52 0.16
-19 -9 27 0.65 0.17
-17 -9 27 3.54 0.34
-17 9 27 4.29 0.55
-15 -9 27 14.42 0.78
-15 9 27 13.54 0.94
15 9 -27 15.78 0.85
-13 -9 27 25.52 1.28
13 9 -27 28.59 1.34
-13 9 27 25.38 1.42
-11 -9 27 46.81 2.18
-11 -9 27 46.52 2.29
11 9 -27 48.58 2.21
-11 9 27 46.68 2.24
-9 -9 27 46.36 2.21
-9 -9 27 49.33 2.34
-9 9 27 47.07 2.27
9 9 -27 49.77 2.25
-7 -9 27 47.72 2.3
7 9 -27 46.97 2.2
-7 9 27 46.09 2.23
-5 -9 27 24.61 1.4
-5 9 27 26.19 1.39
5 9 -27 25.31 1.3
-3 -9 27 14.57 1.01
-3 9 27 15.79 1
3 9 -27 15.41 0.88
-1 -9 27 1 0.34
-1 9 27 0.57 0.28
1 9 -27 0.67 0.21
1 -9 27 1.03 0.33
1 9 27 0.59 0.28
-1 9 -27 0.58 0.21
3 -9 27 14.87 1.03
3 9 27 17.08 1.05
-3 9 -27 16.02 0.9
5 -9 27 26.07 1.47
5 9 27 26.2 1.44
-5 9 -27 26.05 1.33
7 -9 27 46.34 2.31
7 9 27 46.01 2.29
7 9 27 49.03 2.22
-7 9 -27 45.99 2.21
9 -9 27 48.58 2.37
-9 9 -27 46.64 2.23
9 9 27 48.91 2.24
9 9 27 45.48 2.31
11 -9 27 47.27 2.41
11 9 27 49.6 2.28
-11 9 -27 47.71 2.27
13 -9 27 26.16 1.58
-13 9 -27 26.8 1.37
13 9 27 26.91 1.36
15 -9 27 13.61 1.05
-15 9 -27 16.06 0.89
17 -9 27 4.33 0.64
-17 9 -27 4.27 0.44
-37 -11 27 0.21 0.15
-35 -11 27 0.37 0.17
-33 -11 27 2.43 0.27
-31 -11 27 4.05 0.41
-29 -11 27 7.62 0.54
-27 -11 27 6.17 0.5
-25 -11 27 6.27 0.47
-23 -11 27 2.45 0.28
-21 -11 27 0.25 0.15
-19 -11 27 0.61 0.17
-17 -11 27 4.53 0.39
-17 11 27 4.09 0.53
17 11 -27 4.74 0.45
-15 -11 27 15.46 0.86
-15 11 27 15.62 1.05
15 11 -27 18.14 0.94
-13 -11 27 23.4 1.2
13 11 -27 25.72 1.27
-13 11 27 24.24 1.37
-11 -11 27 45.47 2.19
-11 -11 27 45.15 2.28
-11 11 27 47.77 2.27
11 11 -27 51.17 2.25
-9 -11 27 45.58 2.16
-9 -11 27 46.79 2.26
9 11 -27 47.62 2.21
-9 11 27 46.43 2.23
-7 -11 27 52.29 2.5
-7 -11 27 53.89 2.58
7 11 -27 55.89 2.56
-7 11 27 57.14 2.57
-5 -11 27 29.42 1.58
-5 -11 27 28.27 1.41
5 11 -27 30.15 1.49
-5 11 27 29.55 1.55
-3 -11 27 18.24 0.98
-3 -11 27 19.62 1.19
-3 11 27 19.48 1.14
3 11 -27 20.34 1.08
-1 -11 27 0.55 0.3
1 11 -27 0.71 0.3
-1 11 27 0.65 0.28
1 11 -27 0.1 0.19
1 -11 27 0.81 0.3
-1 11 -27 0.34 0.21
1 11 27 0.85 0.32
-1 11 -27 0.43 0.26
3 -11 27 19.36 1.22
3 11 27 19.59 1.06
-3 11 -27 19.4 1.06
-3 11 -27 18.82 1.21
3 11 27 20.11 1.17
5 -11 27 28.77 1.59
5 11 27 27.68 1.53
-5 11 -27 28.58 1.45
5 11 27 29.09 1.45
7 -11 27 52.59 2.64
7 11 27 57.03 2.59
-7 11 -27 57.27 2.59
7 11 27 53.9 2.61
9 -11 27 45.68 2.4
9 11 27 49.3 2.32
-9 11 -27 51.7 2.34
11 -11 27 43.73 2.36
11 11 27 48.87 2.26
-11 11 -27 48.92 2.26
13 -11 27 23.64 1.48
-13 11 -27 24.64 1.29
13 11 27 24.99 1.29
15 -11 27 16.31 1.16
-15 11 -27 15.96 0.94
15 11 27 16.25 0.93
17 -11 27 3.94 0.66
-17 11 -27 4.25 0.45
-19 11 -27 1.55 0.29
-37 -13 27 0.15 0.14
-35 -13 27 0.37 0.17
-33 -13 27 1.42 0.22
-31 -13 27 1.4 0.24
-29 -13 27 4.36 0.42
-27 -13 27 2.95 0.32
-25 -13 27 5.19 0.45
-23 -13 27 1.77 0.26
-21 -13 27 0.41 0.18
-19 -13 27 0.59 0.17
19 13 -27 0.95 0.28
-17 -13 27 3.88 0.37
17 13 -27 4.31 0.45
-15 -13 27 10.82 0.66
15 13 -27 12 0.75
-15 13 27 11.88 0.87
-13 -13 27 16.63 0.91
13 13 -27 17.75 0.98
-13 13 27 17.57 1.09
-11 -13 27 23.05 1.2
-11 13 27 23.8 1.34
11 13 -27 25.82 1.29
-9 -13 27 24.3 1.42
-9 -13 27 24.48 1.28
-9 13 27 27.58 1.44
9 13 -27 28.33 1.38
-7 -13 27 28.84 1.48
-7 -13 27 31.75 1.65
-7 13 27 30.91 1.59
7 13 -27 31.5 1.56
-5 -13 27 13.41 0.79
-5 -13 27 16.35 1.03
5 13 -27 15.02 0.89
-5 13 27 15.79 0.97
5 13 -27 13.12 0.96
-3 -13 27 12.7 0.74
-3 -13 27 13.37 0.94
-3 13 27 13.69 0.89
3 13 -27 13.71 0.83
3 13 -27 12.31 0.91
-1 -13 27 -0.33 0.14
-1 -13 27 0.38 0.3
1 13 -27 0.36 0.2
1 13 -27 0 0.23
-1 13 27 0.07 0.23
1 -13 27 0.29 0.29
1 -13 27 -0.27 0.12
-1 13 -27 0.45 0.25
1 13 27 0.2 0.27
-1 13 -27 0 0.17
1 13 27 0.16 0.17
3 -13 27 12.62 0.73
3 -13 27 13.7 0.97
-3 13 -27 14.24 0.84
3 13 27 14.19 0.94
-3 13 -27 11.5 0.93
3 13 27 14.69 0.82
5 -13 27 14.68 1.01
5 -13 27 14.16 0.78
-5 13 -27 14.83 0.88
5 13 27 15.72 0.88
5 13 27 14.16 0.98
-5 13 -27 13.87 1.01
7 -13 27 27.65 1.62
7 13 27 32.35 1.53
7 13 27 28.52 1.62
-7 13 -27 31.98 1.54
-7 13 -27 28.15 1.67
9 -13 27 25.83 1.53
-9 13 -27 27.04 1.37
-9 13 -27 24.93 1.53
9 13 27 26.49 1.36
11 -13 27 22.62 1.46
-11 13 -27 25.65 1.31
11 13 27 25.12 1.3
13 -13 27 15.38 1.15
13 13 27 17.04 0.96
-13 13 -27 16.57 0.96
15 -13 27 10.02 0.91
15 13 27 11.11 0.73
-15 13 -27 11.15 0.73
17 13 27 3.61 0.42
-17 13 -27 4.22 0.44
-19 13 -27 0.98 0.25
-21 13 -27 0.9 0.26
-37 -15 27 0.21 0.15
-35 -15 27 0.1 0.16
-33 -15 27 0.6 0.19
-31 -15 27 0.46 0.19
-29 -15 27 1.83 0.26
-27 -15 27 1.37 0.25
-25 -15 27 1.6 0.25
-23 -15 27 0.33 0.18
-21 -15 27 -0.1 0.15
-19 -15 27 0.58 0.18
19 15 -27 1.15 0.27
-17 -15 27 3.35 0.37
17 15 -27 3.77 0.43
-15 -15 27 9.81 0.64
15 15 -27 11.43 0.73
-13 -15 27 10.49 0.67
13 15 -27 12.53 0.77
-13 15 27 11.43 0.86
-11 -15 27 15.98 0.88
-11 15 27 16.43 1.02
11 15 -27 16.45 0.97
-9 -15 27 14.75 0.83
-9 15 27 14.91 0.99
9 15 -27 16.74 0.94
-7 -15 27 16.14 1.1
-7 -15 27 16.47 0.93
-7 15 27 18.22 1.1
7 15 -27 20.33 1.06
-5 -15 27 9.3 0.76
-5 -15 27 7.21 0.54
-5 15 27 9.63 0.71
5 15 -27 9.22 0.66
5 15 -27 8.33 0.73
-3 -15 27 8.19 0.74
-3 -15 27 7.1 0.52
-3 15 27 9.45 0.73
3 15 -27 8.68 0.64
3 15 -27 7.84 0.72
-1 -15 27 -0.12 0.14
-1 -15 27 0.1 0.29
-1 15 27 -0.06 0.23
1 15 -27 0.18 0.25
1 15 -27 0.19 0.2
1 -15 27 0.04 0.14
1 -15 27 0.29 0.28
-1 15 -27 0.2 0.19
1 15 27 0.41 0.25
-1 15 -27 -0.04 0.22
1 15 27 0.25 0.18
3 -15 27 8.02 0.54
3 -15 27 8.09 0.77
3 15 27 8.09 0.72
-3 15 -27 8.5 0.76
3 15 27 9.15 0.63
-3 15 -27 9.96 0.67
5 -15 27 9 0.58
5 -15 27 8.73 0.78
-5 15 -27 9.75 0.67
-5 15 -27 7.9 0.77
5 15 27 9.86 0.78
5 15 27 9.84 0.66
7 -15 27 14.69 1.13
7 -15 27 17 0.91
7 15 27 18.5 1.01
-7 15 -27 17.66 1.16
-7 15 -27 18.79 1.02
9 -15 27 13.92 1.05
9 -15 27 13.97 0.78
-9 15 -27 14.61 1.03
-9 15 -27 15.58 0.9
9 15 27 14.78 0.88
11 -15 27 14.38 1.09
11 -15 27 15.81 0.86
-11 15 -27 15.31 1.1
-11 15 -27 17.64 0.97
11 15 27 17.03 0.96
13 -15 27 10.83 0.64
13 -15 27 9.88 0.9
-13 15 -27 12.02 0.75
13 15 27 11.53 0.75
15 -15 27 9.87 0.62
-15 15 -27 9.97 0.7
15 15 27 10.44 0.71
17 -15 27 3.6 0.36
-17 15 -27 2.76 0.38
17 15 27 3.13 0.39
19 15 27 0.81 0.26
-19 15 -27 0.99 0.25
-21 15 -27 0.14 0.19
-35 -17 27 -0.02 0.14
-33 -17 27 -0.09 0.15
-31 -17 27 -0.06 0.17
-29 -17 27 0.14 0.19
-27 -17 27 -0.07 0.18
-25 -17 27 0.13 0.19
-23 -17 27 -0.16 0.16
-21 -17 27 -0.08 0.17
21 17 -27 0.06 0.21
-19 -17 27 0.11 0.17
19 17 -27 0.35 0.21
-17 -17 27 0.55 0.18
17 17 -27 0.49 0.24
-15 -17 27 2.04 0.26
15 17 -27 3.34 0.39
-13 -17 27 4.34 0.42
13 17 -27 4.21 0.46
-11 -17 27 5.04 0.43
11 17 -27 5.56 0.53
-9 -17 27 4.51 0.42
-9 17 27 4.04 0.53
9 17 -27 5.04 0.51
-7 -17 27 4.34 0.4
7 17 -27 3.3 0.42
-7 17 27 4.28 0.54
-5 -17 27 1.06 0.21
-5 -17 27 1.64 0.4
5 17 -27 1.66 0.38
5 17 -27 1.48 0.31
-5 17 27 2.19 0.41
-3 -17 27 2.5 0.29
-3 -17 27 2.75 0.48
-3 17 27 2.98 0.44
3 17 -27 2.9 0.46
3 17 -27 3.58 0.41
-1 -17 27 -0.13 0.15
-1 -17 27 -0.12 0.29
1 17 -27 0.36 0.21
-1 17 27 0.23 0.19
1 17 -27 0.38 0.27
-1 17 27 0.19 0.27
1 -17 27 0.2 0.16
1 -17 27 0.44 0.33
-1 17 -27 0.55 0.23
1 17 27 0.17 0.18
-1 17 -27 0.28 0.25
1 17 27 -0.11 0.25
3 -17 27 2.89 0.51
3 -17 27 2.81 0.3
-3 17 -27 4.51 0.46
-3 17 -27 2.71 0.45
3 17 27 4.41 0.44
3 17 27 2.96 0.49
5 -17 27 0.96 0.2
5 -17 27 1.01 0.36
-5 17 -27 1.26 0.27
5 17 27 1.81 0.3
-5 17 -27 2.03 0.41
7 -17 27 3.9 0.58
7 -17 27 3.96 0.37
-7 17 -27 5.23 0.49
7 17 27 4.35 0.46
-7 17 -27 3.81 0.53
9 -17 27 3.88 0.58
9 -17 27 4.22 0.37
-9 17 -27 4.43 0.46
9 17 27 4.62 0.46
-9 17 -27 3.97 0.53
11 -17 27 4.41 0.4
11 -17 27 4.39 0.69
11 17 27 4.63 0.48
-11 17 -27 3.9 0.57
-11 17 -27 5 0.48
13 -17 27 4.6 0.4
-13 17 -27 3.33 0.41
13 17 27 4.62 0.48
-13 17 -27 4.66 0.59
15 -17 27 3.28 0.32
-15 17 -27 3.25 0.41
15 17 27 3.42 0.41
17 -17 27 0.65 0.19
17 17 27 0.51 0.22
-17 17 -27 0.37 0.21
19 -17 27 0.45 0.18
-19 17 -27 0.27 0.21
19 17 27 0.12 0.2
21 -17 27 0.14 0.17
-21 17 -27 -0.01 0.19
23 -17 27 -0.08 0.15
25 -17 27 0.65 0.2
-35 -19 27 0.08 0.14
-33 -19 27 -0.2 0.14
-31 -19 27 0.02 0.16
-29 -19 27 -0.1 0.17
-27 -19 27 -0.25 0.16
-25 -19 27 -0.22 0.16
-23 -19 27 -0.14 0.17
-21 -19 27 -0.08 0.17
-19 -19 27 0.17 0.18
19 19 -27 0.6 0.24
-17 -19 27 0.18 0.18
17 19 -27 0.4 0.22
-15 -19 27 1.13 0.22
15 19 -27 1.04 0.27
-13 -19 27 0.66 0.19
13 19 -27 0.9 0.26
-11 -19 27 0.99 0.22
11 19 -27 1.23 0.29
-9 -19 27 0.84 0.21
9 19 -27 0.82 0.26
-7 -19 27 0.34 0.16
7 19 -27 0.76 0.26
-7 19 27 0.49 0.29
-5 -19 27 0.19 0.16
5 19 -27 0.09 0.25
5 19 -27 0.36 0.23
-5 19 27 0.64 0.3
-3 -19 27 -0.17 0.26
-3 -19 27 0.48 0.18
3 19 -27 0.4 0.29
3 19 -27 0.5 0.24
-3 19 27 0.65 0.28
-1 -19 27 0.25 0.16
-1 -19 27 0.12 0.28
-1 19 27 0.23 0.26
1 19 -27 0.34 0.21
1 19 -27 0.17 0.25
-1 19 27 0.21 0.19
1 -19 27 0.14 0.31
1 -19 27 0.02 0.16
1 19 27 -0.14 0.26
-1 19 -27 0.47 0.22
-1 19 -27 0.3 0.26
1 19 27 0.15 0.18
3 -19 27 0.14 0.16
3 -19 27 0.39 0.35
-3 19 -27 0.81 0.25
3 19 27 0.68 0.23
-3 19 -27 0.51 0.29
5 -19 27 -0.08 0.27
5 -19 27 0.07 0.15
5 19 27 0.21 0.2
-5 19 -27 -0.04 0.17
-5 19 -27 0.33 0.29
7 -19 27 0.68 0.35
7 -19 27 0.34 0.17
7 19 27 0.72 0.23
-7 19 -27 0.67 0.3
-7 19 -27 0.84 0.24
9 -19 27 0.66 0.18
9 19 27 0.95 0.25
-9 19 -27 0.71 0.32
-9 19 -27 1.41 0.28
11 -19 27 0.82 0.2
-11 19 -27 1.41 0.29
-11 19 -27 1.07 0.37
11 19 27 0.93 0.27
13 -19 27 0.51 0.18
13 19 27 0.71 0.25
-13 19 -27 1.1 0.27
15 -19 27 0.91 0.21
-15 19 -27 0.91 0.26
15 19 27 0.7 0.24
17 -19 27 0.22 0.18
17 19 27 0.11 0.21
-17 19 -27 0.36 0.21
19 -19 27 0.35 0.19
19 19 27 0.22 0.22
-19 19 -27 0.37 0.22
21 -19 27 -0.07 0.16
23 -19 27 0.08 0.17
25 -19 27 -0.13 0.15
27 -19 27 0.09 0.16
-33 -21 27 0.36 0.16
-31 -21 27 0.38 0.18
-29 -21 27 0.48 0.19
-27 -21 27 0.57 0.2
-25 -21 27 0.34 0.19
-23 -21 27 0.34 0.2
-21 -21 27 0 0.17
-19 -21 27 -0.15 0.16
-17 -21 27 0.05 0.16
17 21 -27 0.06 0.19
-15 -21 27 0.07 0.17
15 21 -27 0.11 0.2
-13 -21 27 0.78 0.21
13 21 -27 0.38 0.25
-11 -21 27 0.55 0.2
11 21 -27 -0.02 0.2
-9 -21 27 0.84 0.21
9 21 -27 0.9 0.27
-7 -21 27 0.95 0.21
7 21 -27 0.62 0.27
-5 -21 27 0.44 0.19
5 21 -27 0.56 0.25
5 21 -27 0.61 0.3
-3 -21 27 0 0.17
3 21 -27 0.13 0.27
3 21 -27 0.1 0.22
-1 -21 27 0.35 0.18
-1 -21 27 0.59 0.33
-1 21 27 0.15 0.18
-1 21 27 0.42 0.28
1 21 -27 -0.25 0.23
1 21 -27 0.4 0.22
1 -21 27 0.14 0.17
1 21 27 0.11 0.2
-1 21 -27 0.32 0.26
-1 21 -27 0.37 0.22
3 -21 27 0 0.17
-3 21 -27 0.17 0.27
-3 21 -27 -0.13 0.17
3 21 27 0.12 0.2
5 -21 27 0.45 0.18
-5 21 -27 0.61 0.31
-5 21 -27 0.46 0.23
5 21 27 0.29 0.21
7 -21 27 0.49 0.18
-7 21 -27 0.66 0.25
7 21 27 0.99 0.27
9 -21 27 0.75 0.2
9 21 27 0.9 0.26
-9 21 -27 0.8 0.26
11 -21 27 0.6 0.19
11 21 27 0.51 0.23
-11 21 -27 0.4 0.22
13 -21 27 0.25 0.18
13 21 27 0.67 0.25
-13 21 -27 0.76 0.24
15 -21 27 0.13 0.18
-15 21 -27 -0.15 0.18
15 21 27 -0.03 0.19
17 -21 27 0.07 0.18
-17 21 -27 0.01 0.18
17 21 27 0.04 0.2
19 -21 27 0.01 0.18
21 -21 27 0.08 0.18
23 -21 27 0.18 0.17
25 -21 27 0.1 0.17
27 -21 27 0.44 0.17
29 -21 27 0.21 0.15
-31 -23 27 0.83 0.19
-29 -23 27 0.91 0.21
-27 -23 27 1.47 0.24
-25 -23 27 1.14 0.23
-23 -23 27 1.29 0.24
-21 -23 27 0.35 0.19
-19 -23 27 0.11 0.18
-17 -23 27 -0.02 0.17
-15 -23 27 0.75 0.22
-13 -23 27 1.76 0.26
13 23 -27 2.46 0.39
-11 -23 27 2.15 0.29
11 23 -27 2.59 0.38
-9 -23 27 2.3 0.3
9 23 -27 2.75 0.39
-7 -23 27 3.98 0.43
7 23 -27 3.35 0.45
-5 -23 27 1.05 0.23
5 23 -27 1.41 0.32
-3 -23 27 0.75 0.21
3 23 -27 0.53 0.25
-1 -23 27 0.01 0.17
1 23 -27 0.48 0.24
-1 23 27 0.31 0.21
1 -23 27 0.49 0.2
1 23 27 0.25 0.21
-1 23 -27 0.31 0.22
3 -23 27 0.72 0.21
-3 23 -27 0.31 0.24
3 23 27 0.9 0.26
5 -23 27 0.98 0.22
-5 23 -27 1.27 0.3
5 23 27 1.18 0.29
7 -23 27 2.72 0.31
-7 23 -27 2.62 0.38
7 23 27 2.96 0.39
9 -23 27 2.35 0.3
9 23 27 2.88 0.39
-9 23 -27 2.34 0.36
11 -23 27 2.31 0.29
11 23 27 2.54 0.38
-11 23 -27 1.89 0.33
13 -23 27 1.87 0.27
13 23 27 1.78 0.33
-13 23 -27 2.36 0.37
15 -23 27 0.49 0.21
17 -23 27 0.15 0.19
19 -23 27 -0.24 0.17
21 -23 27 0.2 0.19
23 -23 27 0.87 0.21
25 -23 27 0.87 0.2
27 -23 27 1.06 0.2
29 -23 27 0.66 0.17
-31 23 -27 1.03 0.16
-31 -25 27 1.1 0.19
-29 -25 27 1.92 0.25
-27 -25 27 1.85 0.26
-25 -25 27 1.53 0.25
-23 -25 27 1.17 0.23
-21 -25 27 0.54 0.2
-19 -25 27 -0.18 0.17
-17 -25 27 0.3 0.2
-15 -25 27 1.58 0.27
-13 -25 27 5.9 0.51
-11 -25 27 7.14 0.56
-9 -25 27 9.24 0.66
9 25 -27 9.47 0.74
-7 -25 27 8.82 0.61
7 25 -27 7.55 0.69
-5 -25 27 4.17 0.46
5 25 -27 3.95 0.5
-3 -25 27 1.52 0.27
3 25 -27 2.02 0.37
-1 -25 27 0.34 0.21
1 25 -27 0.28 0.23
-1 25 27 0.24 0.21
1 -25 27 0.35 0.21
1 25 27 0.1 0.2
-1 25 -27 0.44 0.24
3 -25 27 1.7 0.27
-3 25 -27 1.23 0.31
3 25 27 1.93 0.34
5 -25 27 4.93 0.5
-5 25 -27 3.48 0.46
5 25 27 4.01 0.45
7 -25 27 7.46 0.57
-7 25 -27 6.72 0.62
7 25 27 7.24 0.62
9 -25 27 9.38 0.65
9 25 27 8.93 0.69
-9 25 -27 8.7 0.7
11 -25 27 6.61 0.54
-11 25 -27 7.3 0.64
13 -25 27 4.74 0.47
15 -25 27 1.47 0.26
17 -25 27 0.22 0.19
19 -25 27 -0.18 0.17
21 -25 27 0.23 0.18
23 -25 27 0.77 0.2
25 -25 27 1.51 0.23
27 -25 27 1.25 0.2
29 -25 27 1.64 0.21
-29 -27 27 1.65 0.23
-27 -27 27 1.75 0.24
-25 -27 27 1.38 0.24
-23 -27 27 1.16 0.23
-21 -27 27 0.79 0.21
-19 -27 27 0.15 0.19
-17 -27 27 -0.16 0.17
-15 -27 27 1.44 0.26
-13 -27 27 3.27 0.36
-11 -27 27 6.24 0.56
-9 -27 27 6.99 0.59
-7 -27 27 7.46 0.59
-5 -27 27 3.24 0.37
-3 -27 27 1.7 0.29
3 27 -27 1.68 0.37
-1 -27 27 0.27 0.23
-1 27 27 0.38 0.23
1 27 -27 0.34 0.26
1 -27 27 0.17 0.21
1 27 27 0.09 0.22
-1 27 -27 0.21 0.25
3 -27 27 1.32 0.27
3 27 27 1.58 0.33
-3 27 -27 1.23 0.32
5 -27 27 2.62 0.32
7 -27 27 7.17 0.58
9 -27 27 6.04 0.56
11 -27 27 6.19 0.52
13 -27 27 2.84 0.33
15 -27 27 0.86 0.24
17 -27 27 -0.19 0.18
19 -27 27 -0.15 0.17
21 -27 27 0.54 0.19
23 -27 27 1.1 0.21
25 -27 27 1.86 0.23
27 -27 27 2.04 0.23
-27 -29 27 1.7 0.23
-25 -29 27 1.42 0.22
-23 -29 27 0.72 0.21
-21 -29 27 0.17 0.19
-19 -29 27 -0.29 0.17
-17 -29 27 0.3 0.2
-15 -29 27 2.22 0.29
-13 -29 27 5.73 0.52
-11 -29 27 7.65 0.58
-9 -29 27 9.6 0.69
-7 -29 27 7.81 0.6
-5 -29 27 5.37 0.55
-3 -29 27 1.03 0.27
-1 -29 27 0.15 0.22
1 -29 27 0.19 0.22
3 -29 27 1.39 0.28
5 -29 27 5.56 0.55
7 -29 27 7.22 0.59
9 -29 27 8.88 0.64
11 -29 27 6.78 0.55
13 -29 27 4.85 0.51
15 -29 27 1.9 0.28
17 -29 27 0.18 0.19
19 -29 27 -0.12 0.17
21 -29 27 0.3 0.18
23 -29 27 0.86 0.19
25 -29 27 1.63 0.22
-25 -31 27 1.02 0.19
-23 -31 27 0.75 0.19
-21 -31 27 0.14 0.17
-19 -31 27 -0.14 0.17
-17 -31 27 -0.12 0.17
-15 -31 27 0.84 0.22
-13 -31 27 1.63 0.27
-11 -31 27 4.18 0.47
-9 -31 27 3.94 0.44
-7 -31 27 4.57 0.47
-5 -31 27 1.8 0.3
-3 -31 27 1.02 0.27
-1 -31 27 -0.03 0.21
1 -31 27 0.24 0.22
3 -31 27 0.77 0.24
5 -31 27 1.91 0.3
7 -31 27 3.46 0.36
9 -31 27 3.06 0.34
11 -31 27 3.25 0.35
13 -31 27 1.99 0.28
15 -31 27 0.85 0.23
17 -31 27 -0.05 0.17
19 -31 27 0.11 0.17
21 -31 27 0.33 0.17
23 -31 27 0.93 0.19
-21 -33 27 -0.13 0.15
-19 -33 27 -0.13 0.15
-17 -33 27 -0.1 0.16
-15 -33 27 0.64 0.21
-13 -33 27 1.09 0.23
-11 -33 27 2.35 0.29
-9 -33 27 2.55 0.31
-7 -33 27 2.14 0.3
-5 -33 27 1.02 0.25
-3 -33 27 0.84 0.23
-1 -33 27 -0.1 0.19
1 -33 27 0.16 0.2
3 -33 27 0.69 0.23
5 -33 27 1.72 0.28
7 -33 27 2.43 0.3
9 -33 27 2.25 0.29
11 -33 27 2.33 0.29
13 -33 27 0.99 0.23
15 -33 27 0.6 0.21
17 -33 27 0.12 0.18
19 -33 27 -0.06 0.15
21 -33 27 0.07 0.15
-19 -35 27 0 0.15
-17 -35 27 -0.05 0.15
-15 -35 27 0.05 0.16
-13 -35 27 0.02 0.17
-11 -35 27 0.2 0.19
-9 -35 27 0.13 0.19
-7 -35 27 0.17 0.19
-5 -35 27 0.11 0.18
-3 -35 27 0.26 0.2
-1 -35 27 -0.1 0.18
1 -35 27 -0.05 0.19
3 -35 27 0.07 0.19
5 -35 27 -0.04 0.18
7 -35 27 0.56 0.21
9 -35 27 0.06 0.19
11 -35 27 0.52 0.2
13 -35 27 -0.03 0.17
15 -35 27 0.36 0.17
17 -35 27 -0.07 0.15
19 -35 27 0.01 0.15
-15 -37 27 -0.04 0.14
-13 -37 27 -0.11 0.15
-11 -37 27 -0.06 0.15
-9 -37 27 -0.01 0.16
-7 -37 27 0.12 0.17
-5 -37 27 0.26 0.17
-3 -37 27 -0.11 0.17
-1 -37 27 0.02 0.17
1 -37 27 -0.14 0.16
3 -37 27 -0.02 0.17
5 -37 27 0.1 0.17
7 -37 27 0.04 0.17
9 -37 27 0.03 0.17
11 -37 27 0.17 0.16
13 -37 27 -0.13 0.15
15 -37 27 0.02 0.15
-9 -39 27 0.26 0.16
-7 -39 27 0.1 0.15
-5 -39 27 0.09 0.15
-3 -39 27 0.07 0.15
-1 -39 27 0.05 0.15
1 -39 27 -0.04 0.15
3 -39 27 -0.04 0.15
5 -39 27 0.3 0.16
7 -39 27 0.28 0.15
9 -39 27 0.3 0.16
-18 0 28 0.31 0.3
-16 0 28 1.18 0.37
-14 0 28 0.07 0.26
-12 0 28 0.21 0.27
-10 0 28 -0.23 0.23
-8 0 28 10.52 0.83
-6 0 28 -0.3 0.26
-4 0 28 16.38 1.08
-2 0 28 0.14 0.25
0 0 28 11.98 0.89
2 0 28 -0.22 0.26
4 0 28 17.56 1.15
6 0 28 -0.03 0.29
8 0 28 9.16 0.8
10 0 28 -0.33 0.26
12 0 28 0.2 0.29
14 0 28 0.22 0.31
16 0 28 1.25 0.38
-38 -2 28 0.27 0.14
-36 -2 28 -0.07 0.13
-34 -2 28 0.17 0.15
-32 -2 28 -0.07 0.14
-30 -2 28 0.61 0.18
-28 -2 28 0.33 0.16
-26 -2 28 0.32 0.17
-18 2 28 0.76 0.32
-16 -2 28 0.06 0.28
-16 2 28 0.56 0.3
-14 -2 28 0.82 0.3
-14 2 28 1.19 0.33
-12 -2 28 0.2 0.26
-12 2 28 0.32 0.29
-10 -2 28 12.65 0.91
-10 2 28 13.44 0.94
-8 -2 28 0.06 0.26
-8 2 28 -0.12 0.23
-6 -2 28 26.76 1.47
-6 2 28 25.87 1.44
-4 -2 28 0.19 0.27
-4 2 28 0.27 0.27
-2 -2 28 33.34 1.76
-2 2 28 32.73 1.73
0 -2 28 -0.23 0.22
0 2 28 0 0.23
2 -2 28 32.96 1.73
2 2 28 31.9 1.73
4 -2 28 -0.13 0.22
4 2 28 -0.03 0.25
6 -2 28 25.9 1.49
6 2 28 27.1 1.5
8 -2 28 0.17 0.24
8 2 28 0.48 0.3
10 -2 28 12.3 0.96
10 2 28 12.56 0.95
12 -2 28 0.09 0.32
12 2 28 -0.03 0.28
14 -2 28 0.67 0.32
14 2 28 0.16 0.31
16 -2 28 -0.07 0.31
18 -2 28 -0.01 0.32
-38 -4 28 0.09 0.12
-36 -4 28 -0.16 0.13
-34 -4 28 -0.08 0.15
-32 -4 28 0.06 0.16
-30 -4 28 -0.02 0.16
-28 -4 28 2.54 0.28
-26 -4 28 -0.09 0.15
-24 -4 28 1.06 0.2
-22 -4 28 -0.09 0.13
-18 4 28 -0.04 0.26
-16 -4 28 2.35 0.45
-16 4 28 3.02 0.47
-14 -4 28 -0.1 0.24
-14 4 28 0.07 0.23
-12 -4 28 0.68 0.31
-12 4 28 0.94 0.34
-10 -4 28 -0.19 0.25
-10 4 28 -0.21 0.26
-8 -4 28 6.36 0.63
-8 4 28 6.42 0.63
-6 -4 28 -0.03 0.24
-6 4 28 -0.17 0.26
-4 -4 28 14.59 1
-4 4 28 13.86 0.98
-2 -4 28 0.25 0.31
-2 4 28 -0.27 0.22
0 -4 28 17.57 1.1
0 4 -28 15.59 0.88
0 4 28 18.16 1.12
2 -4 28 -0.1 0.26
2 4 28 0 0.24
-2 4 -28 0 0.14
4 -4 28 13.57 0.97
4 4 28 13.87 0.97
-4 4 -28 14.02 0.8
6 -4 28 -0.08 0.23
6 4 28 0.18 0.25
8 -4 28 5.23 0.65
8 4 28 6.7 0.67
10 -4 28 0.23 0.27
10 4 28 0.18 0.29
12 -4 28 0.48 0.34
12 4 28 0.75 0.37
14 -4 28 0.07 0.31
16 -4 28 2.01 0.49
18 -4 28 0.13 0.32
-38 -6 28 0.01 0.13
-36 -6 28 -0.14 0.13
-34 -6 28 0.01 0.15
-32 -6 28 -0.04 0.16
-30 -6 28 0.68 0.2
-28 -6 28 0.38 0.18
-26 -6 28 1.07 0.22
-24 -6 28 0.13 0.16
-22 -6 28 1.69 0.23
-20 -6 28 -0.07 0.13
-18 -6 28 0.49 0.15
-18 6 28 0.45 0.31
-16 6 28 0.24 0.26
-14 -6 28 -0.3 0.25
-14 6 28 -0.01 0.22
-12 -6 28 -0.17 0.27
-12 6 28 0.12 0.27
-10 -6 28 3.95 0.54
-10 6 28 4.11 0.55
-8 -6 28 -0.35 0.23
-8 6 28 -0.14 0.24
8 6 -28 -0.01 0.14
-6 -6 28 16.54 1.09
6 6 -28 18.22 0.93
-6 6 28 17.4 1.09
-4 -6 28 0.07 0.26
4 6 -28 -0.12 0.14
-4 6 28 -0.2 0.25
-2 -6 28 28.43 1.54
-2 6 28 27.83 1.5
2 6 -28 26.95 1.36
0 -6 28 0.34 0.31
0 6 28 0.3 0.28
0 6 -28 -0.19 0.15
2 -6 28 28.58 1.58
-2 6 -28 28.43 1.41
2 6 28 28.39 1.56
4 -6 28 -0.02 0.23
-4 6 -28 -0.18 0.14
4 6 28 0.01 0.24
6 -6 28 17.67 1.15
-6 6 -28 18.92 0.98
6 6 28 16.93 1.15
8 -6 28 0 0.24
8 6 28 -0.38 0.25
-8 6 -28 -0.09 0.16
10 -6 28 4.38 0.63
-10 6 -28 6.03 0.47
10 6 28 5.5 0.67
12 -6 28 0.15 0.29
-12 6 -28 0 0.16
12 6 28 0.05 0.25
14 -6 28 0.2 0.33
16 -6 28 0.01 0.3
18 -6 28 0.4 0.31
-36 -8 28 0.04 0.15
-34 -8 28 -0.17 0.15
-32 -8 28 0.26 0.17
-30 -8 28 -0.13 0.16
-28 -8 28 1.72 0.25
-26 -8 28 -0.07 0.16
-24 -8 28 0.67 0.19
-22 -8 28 -0.25 0.13
-20 -8 28 1.43 0.21
-18 -8 28 -0.2 0.12
-16 -8 28 0.4 0.15
-16 8 28 0.87 0.31
-14 -8 28 -0.11 0.12
-14 8 28 -0.03 0.27
-12 -8 28 -0.31 0.26
12 8 -28 0.14 0.17
-12 8 28 0.1 0.25
-10 -8 28 0.04 0.27
-10 8 28 -0.2 0.23
10 8 -28 -0.04 0.16
-8 -8 28 2.08 0.44
8 8 -28 3.35 0.35
-8 8 28 2.85 0.49
-6 -8 28 0.3 0.28
6 8 -28 -0.09 0.15
-6 8 28 -0.03 0.25
-4 -8 28 5.89 0.66
-4 8 28 5.59 0.63
4 8 -28 6.71 0.5
-2 -8 28 0.03 0.25
-2 8 28 0.3 0.27
2 8 -28 0.1 0.17
0 -8 28 9.94 0.8
0 8 28 10.59 0.79
0 8 -28 9.39 0.64
2 -8 28 0.05 0.25
-2 8 -28 -0.22 0.16
2 8 28 0.25 0.25
4 -8 28 5.64 0.66
-4 8 -28 5.85 0.49
4 8 28 5.58 0.63
6 -8 28 0.33 0.31
-6 8 -28 -0.25 0.16
6 8 28 -0.29 0.26
8 -8 28 3.37 0.55
-8 8 -28 3.17 0.37
8 8 28 2.78 0.47
10 -8 28 -0.03 0.27
-10 8 -28 -0.24 0.15
10 8 28 -0.23 0.28
12 -8 28 -0.13 0.31
-12 8 -28 0.06 0.18
14 -8 28 -0.07 0.3
-14 8 -28 0.36 0.19
16 -8 28 0.73 0.4
-36 -10 28 0.02 0.14
-34 -10 28 0.13 0.16
-32 -10 28 -0.27 0.16
-30 -10 28 -0.07 0.17
-28 -10 28 -0.04 0.17
-26 -10 28 -0.14 0.17
-24 -10 28 -0.21 0.15
-22 -10 28 0.29 0.17
-20 -10 28 -0.21 0.13
-18 -10 28 0.44 0.16
-16 -10 28 -0.07 0.12
-16 10 28 0.1 0.24
-14 -10 28 -0.22 0.12
14 10 -28 -0.2 0.16
-14 10 28 -0.1 0.26
-12 -10 28 0.04 0.13
-12 10 28 -0.08 0.23
12 10 -28 0.07 0.18
-10 -10 28 1.38 0.37
-10 -10 28 0.82 0.17
10 10 -28 1.3 0.26
-10 10 28 0.67 0.31
-8 -10 28 0 0.27
-8 -10 28 -0.19 0.12
-8 10 28 -0.1 0.27
8 10 -28 -0.19 0.16
-6 -10 28 4.5 0.57
6 10 -28 6.13 0.48
-6 10 28 4.3 0.55
-4 -10 28 0.26 0.3
4 10 -28 -0.16 0.16
-4 10 28 0.13 0.27
-2 -10 28 12.7 0.94
2 10 -28 15.02 0.84
-2 10 28 12.17 0.9
0 -10 28 0.05 0.24
0 10 -28 -0.01 0.18
0 10 28 0.02 0.25
2 -10 28 11.99 0.94
2 10 28 12.85 0.96
-2 10 -28 15.53 0.85
4 -10 28 0.06 0.25
4 10 28 -0.04 0.29
-4 10 -28 -0.15 0.17
6 -10 28 4.88 0.65
-6 10 -28 5.84 0.5
6 10 28 5.58 0.66
8 -10 28 -0.19 0.26
8 10 28 -0.21 0.17
8 10 28 -0.23 0.24
-8 10 -28 -0.3 0.17
10 -10 28 0.8 0.37
-10 10 -28 0.85 0.25
10 10 28 0.87 0.23
12 -10 28 -0.51 0.29
-12 10 -28 -0.18 0.15
12 10 28 0.02 0.17
14 -10 28 0.16 0.33
-14 10 -28 0.04 0.18
16 -10 28 0.27 0.33
-16 10 -28 -0.05 0.18
-18 10 -28 0.4 0.21
-36 -12 28 0.02 0.13
-34 -12 28 0.11 0.15
-32 -12 28 0.07 0.17
-30 -12 28 -0.12 0.17
-28 -12 28 0.26 0.18
-26 -12 28 -0.17 0.17
-24 -12 28 -0.27 0.16
-20 -12 28 0.8 0.19
-18 -12 28 -0.05 0.13
-16 -12 28 0.48 0.16
16 12 -28 1.26 0.26
-14 -12 28 -0.2 0.12
14 12 -28 -0.11 0.18
-14 12 28 -0.21 0.26
-12 -12 28 -0.29 0.11
12 12 -28 -0.27 0.17
-12 12 28 -0.17 0.23
-10 -12 28 -0.05 0.12
-10 -12 28 0.17 0.27
-10 12 28 -0.23 0.22
10 12 -28 0.03 0.2
-8 -12 28 -0.28 0.27
-8 -12 28 0.26 0.14
8 12 -28 0.19 0.19
-8 12 28 0.03 0.26
-6 -12 28 0.05 0.14
-6 -12 28 0.02 0.25
6 12 -28 -0.21 0.16
-6 12 28 0.06 0.24
-4 -12 28 0.36 0.16
-4 -12 28 0.43 0.33
-4 12 28 0.46 0.27
4 12 -28 0.49 0.22
-2 -12 28 -0.12 0.14
-2 -12 28 0.24 0.3
-2 12 28 0.26 0.27
2 12 -28 -0.03 0.19
0 -12 28 0.1 0.26
0 12 -28 0.1 0.2
0 12 28 0.04 0.22
2 -12 28 0.14 0.25
2 12 28 0.13 0.28
-2 12 -28 -0.05 0.18
4 -12 28 0.46 0.33
4 12 28 0.22 0.2
-4 12 -28 0.32 0.22
4 12 28 0.75 0.33
6 -12 28 0.1 0.32
6 12 28 -0.15 0.26
-6 12 -28 -0.03 0.19
6 12 28 0.05 0.18
8 -12 28 -0.26 0.27
-8 12 -28 0.02 0.18
8 12 28 0.13 0.19
10 -12 28 -0.43 0.31
-10 12 -28 -0.12 0.17
10 12 28 0.09 0.18
12 -12 28 -0.16 0.29
12 12 28 0.1 0.18
-12 12 -28 -0.04 0.18
14 -12 28 -0.07 0.29
-14 12 -28 -0.04 0.17
14 12 28 0 0.18
-16 12 -28 0.88 0.25
-18 12 -28 -0.09 0.18
-20 12 -28 1.3 0.29
-36 -14 28 0.23 0.14
-34 -14 28 0.04 0.15
-32 -14 28 0.04 0.16
-30 -14 28 -0.03 0.16
-28 -14 28 0.03 0.17
-26 -14 28 -0.24 0.17
-24 -14 28 0.04 0.17
-22 -14 28 -0.15 0.17
-20 -14 28 -0.12 0.14
-18 -14 28 0.39 0.17
18 14 -28 0.44 0.23
-16 -14 28 -0.04 0.14
16 14 -28 -0.18 0.18
-14 -14 28 0.07 0.14
14 14 -28 0.05 0.2
-12 -14 28 -0.19 0.12
-12 14 28 -0.13 0.22
12 14 -28 -0.25 0.18
-10 -14 28 -0.05 0.13
-10 14 28 0.04 0.24
10 14 -28 0.21 0.2
-8 -14 28 -0.07 0.23
-8 -14 28 -0.22 0.12
8 14 -28 -0.05 0.18
-8 14 28 0.03 0.23
-6 -14 28 -0.04 0.28
-6 -14 28 0.05 0.14
6 14 -28 -0.06 0.17
-6 14 28 0.08 0.24
-4 -14 28 0.02 0.14
-4 -14 28 -0.24 0.28
-4 14 28 0.12 0.26
4 14 -28 -0.07 0.19
-2 -14 28 0.42 0.16
-2 -14 28 0.67 0.34
2 14 -28 0.91 0.25
2 14 -28 0.13 0.24
-2 14 28 0.43 0.28
0 -14 28 0.1 0.32
0 -14 28 0.03 0.13
0 14 -28 0.26 0.2
0 14 -28 0.16 0.24
0 14 28 0.2 0.29
2 -14 28 0.54 0.31
2 -14 28 0.46 0.16
2 14 28 1.05 0.25
2 14 28 1.09 0.31
-2 14 -28 0.58 0.3
-2 14 -28 1.3 0.27
4 -14 28 -0.17 0.13
4 -14 28 0.13 0.31
4 14 28 0.03 0.28
4 14 28 0.05 0.17
-4 14 -28 0.14 0.19
-4 14 -28 0.09 0.25
6 -14 28 -0.02 0.12
6 -14 28 -0.19 0.27
-6 14 -28 -0.07 0.18
6 14 28 -0.06 0.17
-6 14 -28 0.07 0.26
8 -14 28 -0.17 0.27
8 14 28 -0.05 0.17
-8 14 -28 0.07 0.19
10 -14 28 -0.36 0.25
10 14 28 -0.02 0.18
-10 14 -28 -0.21 0.17
12 -14 28 -0.19 0.27
-12 14 -28 -0.01 0.18
12 14 28 0 0.18
-14 14 -28 -0.09 0.18
14 14 28 -0.1 0.18
-16 14 -28 0.07 0.19
16 14 28 -0.16 0.18
-18 14 -28 0.52 0.23
-20 14 -28 0 0.21
-34 -16 28 -0.24 0.13
-32 -16 28 -0.29 0.15
-30 -16 28 0.08 0.17
-28 -16 28 -0.04 0.18
-26 -16 28 -0.06 0.17
-24 -16 28 0.06 0.18
-22 -16 28 -0.43 0.16
-20 -16 28 0.47 0.19
-18 -16 28 -0.18 0.15
18 16 -28 0.05 0.19
-16 -16 28 1.46 0.24
16 16 -28 2.46 0.34
-14 -16 28 -0.01 0.14
14 16 -28 0.22 0.2
-12 -16 28 0.75 0.19
12 16 -28 1.11 0.28
-10 -16 28 0.03 0.15
10 16 -28 -0.04 0.2
-8 -16 28 0.75 0.18
8 16 -28 0.74 0.25
-8 16 28 0.5 0.27
-6 -16 28 0.11 0.3
-6 -16 28 -0.12 0.13
-6 16 28 0.14 0.27
6 16 -28 0.06 0.24
6 16 -28 -0.09 0.19
-4 -16 28 2.05 0.26
-4 -16 28 2.46 0.45
4 16 -28 2.59 0.44
-4 16 28 2.46 0.45
4 16 -28 2.7 0.38
-2 -16 28 0.08 0.15
-2 -16 28 0.04 0.28
2 16 -28 0.09 0.21
-2 16 28 0.03 0.25
2 16 -28 0.22 0.28
0 -16 28 0.78 0.18
0 -16 28 1.06 0.37
0 16 -28 1.43 0.3
0 16 -28 0.8 0.31
0 16 28 1.19 0.36
2 -16 28 0.09 0.15
2 -16 28 0.04 0.32
-2 16 -28 0.15 0.19
2 16 28 0.25 0.29
-2 16 -28 -0.04 0.25
2 16 28 -0.09 0.16
4 -16 28 2 0.48
4 -16 28 2.41 0.27
-4 16 -28 2.39 0.43
-4 16 -28 2.76 0.38
4 16 28 1.78 0.31
6 -16 28 -0.08 0.13
6 -16 28 0.14 0.31
-6 16 -28 0.07 0.18
6 16 28 0.02 0.18
-6 16 -28 -0.2 0.25
8 -16 28 0.49 0.16
8 -16 28 0.8 0.36
8 16 28 0.68 0.22
-8 16 -28 0.24 0.27
-8 16 -28 0.72 0.24
10 -16 28 0.13 0.29
10 -16 28 0.02 0.14
-10 16 -28 0.07 0.28
-10 16 -28 -0.03 0.18
10 16 28 -0.15 0.17
12 -16 28 1.06 0.19
12 16 28 1.11 0.27
-12 16 -28 0.92 0.25
14 -16 28 -0.14 0.15
14 16 28 0.2 0.2
-14 16 -28 0.03 0.19
16 -16 28 2.01 0.25
-16 16 -28 2.27 0.35
16 16 28 1.84 0.33
-18 16 -28 0.22 0.21
18 16 28 -0.1 0.19
-20 16 -28 1.33 0.3
-34 -18 28 0.13 0.14
-32 -18 28 -0.1 0.15
-30 -18 28 0.04 0.17
-28 -18 28 -0.24 0.16
-26 -18 28 -0.19 0.17
-24 -18 28 -0.31 0.16
-22 -18 28 -0.18 0.17
-20 -18 28 -0.1 0.17
-18 -18 28 0.08 0.17
18 18 -28 0.36 0.23
-16 -18 28 -0.25 0.14
16 18 -28 -0.05 0.18
-14 -18 28 0.46 0.18
14 18 -28 0.56 0.23
-12 -18 28 0.14 0.16
12 18 -28 -0.14 0.2
-10 -18 28 1.07 0.21
10 18 -28 0.35 0.23
-8 -18 28 -0.09 0.14
8 18 -28 0.06 0.21
-6 -18 28 0.32 0.17
6 18 -28 0.35 0.26
6 18 -28 0.2 0.22
-6 18 28 0.37 0.27
-4 -18 28 -0.16 0.15
-4 -18 28 -0.26 0.28
4 18 -28 -0.37 0.19
-4 18 28 0.02 0.23
4 18 -28 -0.01 0.26
-2 -18 28 0.08 0.31
-2 -18 28 -0.04 0.14
2 18 -28 0.41 0.22
-2 18 28 0.38 0.25
2 18 -28 -0.03 0.24
0 -18 28 -0.02 0.28
0 -18 28 0.31 0.16
0 18 -28 0.26 0.2
0 18 28 0.33 0.2
0 18 -28 0.49 0.26
0 18 28 0 0.26
2 -18 28 0.08 0.28
2 -18 28 0.27 0.16
2 18 28 0.46 0.22
-2 18 -28 0.63 0.24
-2 18 -28 0.22 0.25
4 -18 28 0 0.31
4 -18 28 0.02 0.15
-4 18 -28 0.17 0.2
4 18 28 -0.05 0.17
-4 18 -28 0.11 0.24
6 -18 28 0.22 0.35
6 -18 28 0.49 0.17
-6 18 -28 0.22 0.21
-6 18 -28 0.25 0.28
6 18 28 0.32 0.2
8 -18 28 -0.08 0.14
8 18 28 -0.23 0.16
-8 18 -28 -0.17 0.25
-8 18 -28 0.06 0.19
10 -18 28 0.91 0.19
-10 18 -28 0.52 0.34
-10 18 -28 0.57 0.24
10 18 28 0.43 0.22
12 -18 28 -0.12 0.14
-12 18 -28 -0.07 0.18
12 18 28 0 0.19
14 -18 28 0.54 0.19
14 18 28 0.49 0.22
-14 18 -28 0.62 0.24
16 -18 28 0.05 0.16
-16 18 -28 -0.12 0.17
16 18 28 0.13 0.19
18 -18 28 0.41 0.18
-18 18 -28 0.43 0.22
18 18 28 0.23 0.22
20 -18 28 0.03 0.16
22 -18 28 -0.09 0.16
24 -18 28 -0.13 0.16
-34 -20 28 0.1 0.15
-32 -20 28 0.1 0.16
-30 -20 28 -0.09 0.16
-28 -20 28 -0.35 0.15
-26 -20 28 0.01 0.17
-24 -20 28 -0.2 0.17
-22 -20 28 -0.2 0.16
-20 -20 28 0.33 0.19
-18 -20 28 -0.1 0.16
-16 -20 28 0.46 0.2
16 20 -28 0.75 0.24
-14 -20 28 0.06 0.17
14 20 -28 -0.01 0.2
-12 -20 28 1.45 0.25
12 20 -28 1.54 0.32
-10 -20 28 -0.01 0.16
10 20 -28 0.12 0.22
-8 -20 28 1.35 0.23
8 20 -28 1.62 0.33
-6 -20 28 0.05 0.16
6 20 -28 0.04 0.24
6 20 -28 0.07 0.22
-4 -20 28 1.15 0.22
4 20 -28 1.3 0.36
4 20 -28 1.53 0.33
-2 -20 28 0.06 0.15
2 20 -28 0.32 0.28
2 20 -28 0.28 0.22
0 -20 28 0.34 0.17
0 20 -28 0.27 0.22
0 20 28 0.58 0.22
0 20 -28 0.55 0.28
2 -20 28 0.01 0.16
-2 20 -28 -0.05 0.19
-2 20 -28 0.11 0.26
2 20 28 0.1 0.19
4 -20 28 0.88 0.21
-4 20 -28 1.4 0.38
4 20 28 1.18 0.28
-4 20 -28 1.46 0.3
6 -20 28 0.03 0.16
6 20 28 0.27 0.21
-6 20 -28 0.04 0.27
-6 20 -28 0.03 0.19
8 -20 28 1.15 0.22
-8 20 -28 1.34 0.28
8 20 28 1.62 0.31
10 -20 28 -0.01 0.15
-10 20 -28 0.05 0.19
10 20 28 -0.08 0.18
12 -20 28 1.18 0.23
-12 20 -28 1.71 0.32
12 20 28 1.13 0.27
14 -20 28 -0.12 0.16
-14 20 -28 -0.02 0.2
14 20 28 -0.04 0.18
16 -20 28 0.62 0.2
-16 20 -28 0.46 0.23
16 20 28 0.62 0.23
18 -20 28 -0.21 0.17
20 -20 28 0.32 0.18
22 -20 28 0.05 0.17
24 -20 28 -0.31 0.14
26 -20 28 -0.22 0.15
-32 -22 28 0.05 0.15
-30 -22 28 0.2 0.16
-28 -22 28 -0.18 0.16
-26 -22 28 -0.02 0.17
-24 -22 28 -0.17 0.17
-22 -22 28 0.05 0.18
-20 -22 28 0.06 0.18
-18 -22 28 -0.01 0.18
-16 -22 28 0.11 0.18
-14 -22 28 0.01 0.17
14 22 -28 0.04 0.2
-12 -22 28 0.15 0.17
12 22 -28 0.3 0.23
-10 -22 28 0.34 0.19
10 22 -28 0.39 0.24
-8 -22 28 0.04 0.17
8 22 -28 -0.08 0.21
-6 -22 28 1.08 0.23
6 22 -28 1.32 0.31
-4 -22 28 -0.08 0.16
4 22 -28 0.05 0.22
-2 -22 28 0.17 0.18
2 22 -28 0.15 0.21
0 -22 28 0.31 0.18
0 22 -28 -0.05 0.2
0 22 28 0.06 0.18
2 -22 28 0.2 0.18
2 22 28 -0.01 0.2
-2 22 -28 -0.14 0.19
4 -22 28 0.02 0.16
4 22 28 -0.07 0.19
-4 22 -28 -0.02 0.19
6 -22 28 0.97 0.22
-6 22 -28 1.45 0.32
6 22 28 1.48 0.31
8 -22 28 -0.1 0.16
8 22 28 -0.09 0.19
-8 22 -28 0.19 0.2
10 -22 28 0.24 0.18
10 22 28 0.27 0.22
-10 22 -28 0.21 0.22
12 -22 28 -0.14 0.16
12 22 28 0.13 0.21
-12 22 -28 0.16 0.21
14 -22 28 0.07 0.18
-14 22 -28 0.22 0.2
14 22 28 0.25 0.22
16 -22 28 -0.06 0.18
18 -22 28 -0.13 0.17
20 -22 28 -0.08 0.16
22 -22 28 0.04 0.18
24 -22 28 -0.36 0.15
26 -22 28 -0.06 0.15
28 -22 28 -0.18 0.14
-30 -24 28 -0.02 0.15
-28 -24 28 0.26 0.17
-26 -24 28 0.01 0.17
-24 -24 28 0.16 0.18
-22 -24 28 -0.24 0.17
-20 -24 28 0.01 0.18
-18 -24 28 -0.18 0.17
-16 -24 28 -0.05 0.17
-14 -24 28 0.06 0.18
-12 -24 28 0.21 0.19
-10 -24 28 -0.03 0.18
10 24 -28 -0.05 0.21
-8 -24 28 0.79 0.23
8 24 -28 0.84 0.29
-6 -24 28 0.07 0.18
6 24 -28 0.09 0.22
-4 -24 28 1.04 0.24
4 24 -28 1.18 0.32
-2 -24 28 0.28 0.2
2 24 -28 -0.22 0.2
0 -24 28 0.4 0.21
0 24 -28 0.51 0.24
0 24 28 0.6 0.25
2 -24 28 -0.03 0.18
2 24 28 -0.16 0.2
-2 24 -28 -0.03 0.2
4 -24 28 0.59 0.21
-4 24 -28 1.4 0.31
4 24 28 1.33 0.29
6 -24 28 0 0.17
6 24 28 0.2 0.21
-6 24 -28 0.25 0.23
8 -24 28 0.89 0.23
-8 24 -28 1.21 0.29
8 24 28 0.86 0.28
10 -24 28 0.05 0.19
10 24 28 -0.08 0.2
-10 24 -28 0.23 0.22
12 -24 28 -0.01 0.18
14 -24 28 -0.14 0.2
16 -24 28 -0.18 0.18
18 -24 28 -0.07 0.18
20 -24 28 -0.4 0.16
22 -24 28 -0.21 0.16
24 -24 28 -0.12 0.16
26 -24 28 -0.17 0.14
28 -24 28 -0.08 0.14
-28 -26 28 -0.12 0.16
-26 -26 28 0.28 0.18
-24 -26 28 0.22 0.18
-22 -26 28 0.07 0.18
-20 -26 28 0.07 0.18
-18 -26 28 0.07 0.18
-16 -26 28 0.18 0.19
-14 -26 28 0.11 0.19
-12 -26 28 0.14 0.2
-10 -26 28 -0.05 0.19
-8 -26 28 -0.16 0.2
-6 -26 28 0.94 0.25
-4 -26 28 -0.15 0.19
-2 -26 28 0.56 0.23
2 26 -28 0.59 0.28
0 -26 28 0.17 0.21
0 26 28 0.04 0.21
0 26 -28 0.05 0.23
2 -26 28 0.55 0.23
-2 26 -28 0.55 0.26
2 26 28 0.47 0.24
4 -26 28 -0.11 0.2
-4 26 -28 0.24 0.26
6 -26 28 0.95 0.24
8 -26 28 0.06 0.2
10 -26 28 -0.08 0.2
12 -26 28 -0.09 0.19
14 -26 28 -0.19 0.19
16 -26 28 0.04 0.19
18 -26 28 -0.06 0.18
20 -26 28 0.04 0.18
22 -26 28 -0.05 0.16
24 -26 28 -0.01 0.16
26 -26 28 0.1 0.15
28 -26 28 0.02 0.14
-26 -28 28 -0.15 0.15
-24 -28 28 0.1 0.17
-22 -28 28 -0.02 0.17
-20 -28 28 -0.02 0.18
-18 -28 28 -0.18 0.18
-16 -28 28 -0.13 0.19
-14 -28 28 -0.04 0.19
-12 -28 28 0.2 0.2
-10 -28 28 0.08 0.2
-8 -28 28 1.52 0.28
-6 -28 28 0.2 0.21
-4 -28 28 2.18 0.31
-2 -28 28 0.25 0.22
0 -28 28 1.73 0.3
2 -28 28 -0.09 0.21
4 -28 28 2.71 0.33
6 -28 28 0.3 0.22
8 -28 28 1.28 0.26
10 -28 28 0.16 0.21
12 -28 28 0.06 0.21
14 -28 28 -0.2 0.19
16 -28 28 -0.15 0.18
18 -28 28 -0.13 0.17
20 -28 28 0.14 0.17
22 -28 28 -0.15 0.15
24 -28 28 -0.06 0.15
26 -28 28 0.08 0.15
-24 -30 28 -0.25 0.14
-22 -30 28 -0.1 0.16
-20 -30 28 -0.19 0.16
-18 -30 28 -0.03 0.18
-16 -30 28 0 0.18
-14 -30 28 0.01 0.19
-12 -30 28 -0.01 0.19
-10 -30 28 0.05 0.2
-8 -30 28 -0.12 0.2
-6 -30 28 0.51 0.23
-4 -30 28 -0.21 0.21
-2 -30 28 0.92 0.25
0 -30 28 -0.05 0.21
2 -30 28 0.96 0.25
4 -30 28 0.05 0.2
6 -30 28 0.77 0.24
8 -30 28 0.11 0.2
10 -30 28 0.27 0.2
12 -30 28 0.03 0.2
14 -30 28 0.06 0.2
16 -30 28 -0.22 0.17
18 -30 28 0.18 0.17
20 -30 28 0.01 0.16
22 -30 28 0.11 0.16
24 -30 28 0 0.15
-22 -32 28 -0.07 0.15
-20 -32 28 -0.09 0.15
-18 -32 28 -0.4 0.15
-16 -32 28 -0.15 0.17
-14 -32 28 0 0.18
-12 -32 28 0.01 0.18
-10 -32 28 0.03 0.19
-8 -32 28 -0.06 0.19
-6 -32 28 0.29 0.22
-4 -32 28 -0.05 0.2
-2 -32 28 0.01 0.2
0 -32 28 -0.07 0.19
2 -32 28 -0.07 0.19
4 -32 28 0.14 0.21
6 -32 28 0.02 0.2
8 -32 28 0.04 0.19
10 -32 28 0.06 0.19
12 -32 28 0.27 0.2
14 -32 28 -0.04 0.18
16 -32 28 -0.04 0.17
18 -32 28 -0.14 0.15
20 -32 28 -0.01 0.16
22 -32 28 -0.1 0.14
-18 -34 28 -0.15 0.14
-16 -34 28 -0.01 0.16
-14 -34 28 0.12 0.17
-12 -34 28 -0.02 0.18
-10 -34 28 0.08 0.19
-8 -34 28 -0.06 0.18
-6 -34 28 -0.06 0.18
-4 -34 28 -0.21 0.17
-2 -34 28 -0.17 0.18
0 -34 28 -0.16 0.18
2 -34 28 0.08 0.19
4 -34 28 0.04 0.19
6 -34 28 0.09 0.19
8 -34 28 -0.15 0.19
10 -34 28 0.15 0.19
12 -34 28 -0.09 0.17
14 -34 28 0.13 0.17
16 -34 28 -0.17 0.15
18 -34 28 -0.02 0.15
-16 -36 28 -0.23 0.14
-14 -36 28 0 0.15
-12 -36 28 0.06 0.16
-10 -36 28 0.02 0.16
-8 -36 28 0.02 0.16
-6 -36 28 -0.01 0.16
-4 -36 28 0.01 0.17
-2 -36 28 -0.01 0.18
0 -36 28 0.07 0.18
2 -36 28 -0.08 0.17
4 -36 28 0.04 0.17
6 -36 28 0.07 0.18
8 -36 28 -0.12 0.17
10 -36 28 -0.04 0.16
12 -36 28 -0.11 0.16
14 -36 28 -0.05 0.15
16 -36 28 0.04 0.14
-10 -38 28 0.03 0.14
-8 -38 28 0.08 0.15
-6 -38 28 -0.01 0.15
-4 -38 28 -0.06 0.15
-2 -38 28 0.1 0.16
0 -38 28 0.08 0.16
2 -38 28 0 0.15
4 -38 28 -0.03 0.16
6 -38 28 -0.05 0.15
8 -38 28 0.03 0.14
10 -38 28 -0.11 0.14
-17 -1 29 0.14 0.3
-17 1 29 0.39 0.31
-15 -1 29 -0.02 0.29
-15 1 29 0.28 0.3
-13 -1 29 -0.25 0.22
-13 1 29 0.09 0.29
-11 -1 29 0.31 0.3
-11 1 29 -0.05 0.24
-9 -1 29 0.15 0.3
-9 1 29 -0.27 0.23
-7 -1 29 0.26 0.27
-7 1 29 0.13 0.26
-5 -1 29 0.1 0.27
-5 1 29 -0.23 0.23
-3 -1 29 -0.22 0.25
-3 1 29 -0.2 0.23
-1 -1 29 -0.05 0.26
-1 1 29 -0.26 0.22
1 -1 29 0.01 0.25
1 1 29 -0.18 0.24
3 -1 29 0.06 0.27
3 1 29 0.28 0.27
5 -1 29 0.14 0.25
5 1 29 0.43 0.3
7 -1 29 0.29 0.31
7 1 29 -0.04 0.24
9 -1 29 0.17 0.3
9 1 29 0 0.25
11 -1 29 0 0.31
11 1 29 -0.14 0.28
13 -1 29 -0.23 0.29
13 1 29 -0.05 0.31
15 -1 29 0.06 0.33
15 1 29 0.04 0.33
17 -1 29 -0.24 0.35
-37 -3 29 0.11 0.14
-35 -3 29 0.07 0.13
-33 -3 29 0.6 0.17
-31 -3 29 1.02 0.2
-29 -3 29 1.63 0.23
-27 -3 29 1.27 0.21
-17 3 29 0.44 0.29
-15 -3 29 3.21 0.52
-15 3 29 3.66 0.54
-13 -3 29 5.8 0.67
-13 3 29 6.32 0.63
-11 -3 29 10.82 0.86
-11 3 29 10.89 0.83
-9 -3 29 8.24 0.78
-9 3 29 9.4 0.76
-7 -3 29 9.26 0.77
-7 3 29 8.36 0.74
-5 -3 29 4.05 0.59
-5 3 29 4.28 0.58
-3 -3 29 3.31 0.52
-3 3 29 4.43 0.6
-1 -3 29 0.17 0.3
-1 3 29 -0.01 0.24
1 -3 29 0.08 0.26
1 3 29 0.15 0.28
3 -3 29 3.64 0.55
3 3 29 4.08 0.59
5 -3 29 4.77 0.62
5 3 29 4.76 0.61
7 -3 29 8.75 0.77
7 3 29 7.65 0.78
9 -3 29 8.88 0.79
9 3 29 7.6 0.75
11 -3 29 8.48 0.85
11 3 29 10.58 0.88
13 -3 29 4.76 0.66
13 3 29 6.26 0.72
15 -3 29 3.04 0.58
17 -3 29 0.82 0.39
-37 -5 29 0.03 0.13
-35 -5 29 0.12 0.14
-33 -5 29 1.23 0.2
-31 -5 29 2.31 0.25
-29 -5 29 4.3 0.4
-27 -5 29 5.29 0.44
-25 -5 29 5.96 0.45
-23 -5 29 3.34 0.35
-21 -5 29 1.19 0.23
-17 5 29 1.2 0.4
-15 -5 29 2.56 0.47
-15 5 29 3 0.46
-13 -5 29 5.34 0.65
-13 5 29 4.12 0.55
-11 -5 29 9.5 0.83
-11 5 29 9.83 0.81
-9 -5 29 11.22 0.89
-9 5 29 10.91 0.87
-7 -5 29 10.56 0.89
-7 5 29 12.07 0.9
-5 -5 29 6.11 0.68
-5 5 29 5.46 0.64
-3 -5 29 4.82 0.61
-3 5 29 4.85 0.6
-1 -5 29 0.02 0.29
-1 5 29 0.41 0.28
1 -5 29 0.31 0.29
-1 5 -29 0.27 0.17
1 5 29 -0.22 0.24
3 -5 29 5.81 0.67
-3 5 -29 4.38 0.42
3 5 29 4.86 0.61
5 -5 29 6.85 0.7
5 5 29 6.74 0.75
7 -5 29 12.34 0.93
7 5 29 10.86 0.88
9 -5 29 11.1 0.94
9 5 29 10.78 0.88
11 -5 29 8.94 0.85
11 5 29 7.59 0.78
13 -5 29 4.95 0.68
15 -5 29 2.26 0.53
17 -5 29 0.45 0.31
-37 -7 29 0.13 0.14
-35 -7 29 0.44 0.16
-33 -7 29 1.98 0.25
-31 -7 29 4.05 0.38
-29 -7 29 8.1 0.55
-27 -7 29 7.35 0.52
-25 -7 29 9.76 0.61
-23 -7 29 6.11 0.46
-21 -7 29 2.96 0.29
-19 -7 29 -0.08 0.14
-17 -7 29 0.63 0.17
-15 7 29 8.24 0.72
-13 -7 29 10.89 0.84
-13 7 29 10.44 0.82
-11 -7 29 18.03 1.16
-11 7 29 19.01 1.16
-9 -7 29 20.93 1.28
-9 7 29 20.16 1.21
-7 -7 29 23 1.35
7 7 -29 22.2 1.14
-7 7 29 21.6 1.29
-5 -7 29 12.23 0.94
5 7 -29 11.76 0.71
-5 7 29 12.82 0.93
-3 -7 29 8.28 0.76
3 7 -29 9.06 0.58
-3 7 29 8.64 0.74
-1 -7 29 -0.05 0.25
1 7 -29 0.08 0.17
-1 7 29 0.12 0.29
1 -7 29 0.44 0.28
-1 7 -29 0.24 0.18
1 7 29 -0.21 0.24
3 -7 29 9.27 0.8
3 7 29 8.95 0.8
-3 7 -29 9.27 0.62
5 -7 29 13.09 0.98
5 7 29 11.56 0.93
-5 7 -29 11.72 0.73
7 -7 29 21.53 1.35
-7 7 -29 21.95 1.15
7 7 29 21.9 1.32
9 -7 29 19.99 1.3
-9 7 -29 20.27 1.07
9 7 29 18.5 1.25
11 -7 29 16.5 1.16
11 7 29 15.87 1.13
-11 7 -29 17.8 0.95
13 -7 29 9.12 0.87
15 -7 29 6.21 0.8
-35 -9 29 0.21 0.15
-33 -9 29 1.97 0.24
-31 -9 29 3.92 0.41
-29 -9 29 7.69 0.54
-27 -9 29 8.67 0.59
-25 -9 29 11.19 0.69
-23 -9 29 6.99 0.52
-21 -9 29 3.85 0.38
-19 -9 29 0.22 0.15
-17 -9 29 0.53 0.16
-15 -9 29 5.11 0.41
-15 9 29 4.44 0.65
-13 -9 29 10.8 0.63
-13 9 29 11.79 0.85
-11 -9 29 16.58 1.13
-11 9 29 16.95 1.1
11 9 -29 17.64 0.95
-9 -9 29 16.01 1.11
9 9 -29 17.28 0.93
-9 9 29 15.84 1.05
-7 -9 29 19.35 1.22
-7 9 29 19.15 1.18
7 9 -29 20.51 1.07
-5 -9 29 10.9 0.89
5 9 -29 10.49 0.68
-5 9 29 11.53 0.87
-3 -9 29 9.73 0.8
3 9 -29 9.49 0.64
-3 9 29 8.57 0.75
-1 -9 29 0.05 0.28
-1 9 29 -0.05 0.27
1 9 -29 -0.09 0.17
1 -9 29 0.17 0.29
1 9 29 0.08 0.28
-1 9 -29 0.03 0.18
3 -9 29 9.08 0.8
-3 9 -29 9.82 0.65
3 9 29 8.55 0.77
5 -9 29 11.74 0.92
5 9 29 12.18 0.9
-5 9 -29 11.25 0.74
7 -9 29 16.51 1.18
-7 9 -29 20.74 1.05
7 9 29 16.82 1.18
9 -9 29 17.39 1.18
-9 9 -29 16.53 0.95
9 9 29 15.96 1.12
11 -9 29 15.18 1.15
-11 9 -29 17.31 0.95
13 -9 29 10.75 0.98
-13 9 -29 10.52 0.7
15 -9 29 4.59 0.78
-15 9 -29 5.96 0.51
-35 -11 29 0.26 0.15
-33 -11 29 1.82 0.23
-31 -11 29 3.88 0.39
-29 -11 29 8.01 0.55
-27 -11 29 7.18 0.54
-25 -11 29 8.66 0.59
-23 -11 29 6.53 0.51
-21 -11 29 3.65 0.39
-19 -11 29 -0.03 0.15
-17 -11 29 0.07 0.14
-15 -11 29 5.38 0.42
-13 -11 29 10.01 0.62
13 11 -29 10.11 0.67
-13 11 29 10.87 0.85
-11 -11 29 17.48 0.92
11 11 -29 18.44 0.99
-11 11 29 16.89 1.1
-9 -11 29 16.58 1.11
-9 -11 29 16.36 0.87
9 11 -29 16.74 0.95
-9 11 29 16.65 1.08
-7 -11 29 18.56 1.18
-7 -11 29 18.83 0.99
7 11 -29 19.14 1.05
-7 11 29 20.6 1.2
-5 -11 29 9.18 0.83
-5 11 29 10.04 0.78
5 11 -29 9.08 0.66
-3 -11 29 10.34 0.85
3 11 -29 10.7 0.72
-3 11 29 10.81 0.85
-1 -11 29 0.17 0.29
1 11 -29 -0.05 0.18
-1 11 29 0.06 0.26
1 -11 29 0.28 0.27
1 11 29 0.05 0.25
-1 11 -29 0.26 0.2
3 -11 29 10.23 0.9
3 11 29 11.12 0.88
-3 11 -29 11.38 0.74
5 -11 29 8.52 0.79
5 11 29 8.67 0.76
-5 11 -29 9.15 0.65
7 -11 29 17.79 1.23
-7 11 -29 19.39 1.04
7 11 29 16.44 1.14
9 -11 29 16.55 1.18
9 11 29 17.15 0.98
-9 11 -29 17.61 1
11 -11 29 16.73 1.22
11 11 29 17.75 1.01
-11 11 -29 18.94 1.03
13 -11 29 9.12 0.91
-13 11 -29 10.06 0.69
-15 11 -29 4.88 0.48
-17 11 -29 0.09 0.18
-35 -13 29 0.05 0.14
-33 -13 29 0.79 0.19
-31 -13 29 1.44 0.23
-29 -13 29 4.11 0.41
-27 -13 29 4.25 0.43
-25 -13 29 6.5 0.51
-23 -13 29 4 0.41
-21 -13 29 2.99 0.31
-19 -13 29 0.71 0.19
-17 -13 29 -0.11 0.14
-15 -13 29 1.58 0.22
15 13 -29 1.83 0.31
-13 -13 29 4.65 0.41
13 13 -29 4.9 0.48
-11 -13 29 9.41 0.6
-11 13 29 10.32 0.83
11 13 -29 10.06 0.69
-9 -13 29 10.64 0.63
-9 -13 29 9.86 0.94
9 13 -29 11.02 0.73
-9 13 29 9.73 0.82
-7 -13 29 10.14 0.86
-7 -13 29 9.91 0.64
7 13 -29 11.09 0.72
-7 13 29 11.25 0.84
-5 -13 29 4.35 0.57
-5 -13 29 4.25 0.4
-5 13 29 4.71 0.56
5 13 -29 5.46 0.5
-3 -13 29 4.71 0.42
-3 -13 29 5.62 0.67
3 13 -29 5.76 0.52
-3 13 29 6.08 0.66
-1 -13 29 0 0.28
-1 -13 29 -0.15 0.12
1 13 -29 0.05 0.2
-1 13 29 0.07 0.26
1 -13 29 0.15 0.28
1 13 29 0.22 0.28
-1 13 -29 -0.02 0.19
3 -13 29 5.52 0.67
-3 13 -29 5.65 0.52
3 13 29 4.71 0.6
5 -13 29 4.6 0.64
5 13 29 5.44 0.66
-5 13 -29 4.93 0.49
7 -13 29 8.99 0.91
-7 13 -29 11.2 0.74
7 13 29 11.39 0.73
9 -13 29 11.26 0.97
9 13 29 11.23 0.73
-9 13 -29 10.19 0.73
11 -13 29 9.03 0.9
-11 13 -29 10.51 0.71
11 13 29 9.99 0.69
13 13 29 4.8 0.49
-13 13 -29 5.03 0.5
-15 13 -29 2.24 0.36
-17 13 -29 0.07 0.19
-19 13 -29 0.8 0.26
-35 -15 29 0.01 0.14
-33 -15 29 0.81 0.18
-31 -15 29 0.7 0.19
-29 -15 29 2.03 0.26
-27 -15 29 1.82 0.26
-25 -15 29 2.35 0.29
-23 -15 29 1.63 0.26
-21 -15 29 0.88 0.22
-19 -15 29 0.2 0.17
-17 -15 29 0.02 0.15
17 15 -29 -0.07 0.19
-15 -15 29 0.48 0.17
15 15 -29 0.65 0.23
-13 -15 29 1.51 0.22
13 15 -29 2 0.32
-11 -15 29 5.08 0.43
11 15 -29 6.34 0.55
-9 -15 29 5.62 0.46
9 15 -29 5.69 0.53
-7 -15 29 5.47 0.67
-7 -15 29 6.44 0.49
7 15 -29 7.3 0.6
-7 15 29 7.34 0.7
-5 -15 29 2.35 0.49
-5 -15 29 2.47 0.27
5 15 -29 2.35 0.37
-5 15 29 2.89 0.46
-3 -15 29 4.4 0.61
-3 -15 29 2.6 0.29
3 15 -29 3.7 0.44
-3 15 29 4.54 0.57
-1 -15 29 0.12 0.27
-1 -15 29 0.03 0.14
-1 15 29 0.33 0.29
1 15 -29 0.13 0.21
1 -15 29 0.07 0.15
1 -15 29 -0.12 0.29
1 15 29 0.77 0.33
-1 15 -29 0.1 0.2
3 -15 29 2.67 0.51
3 -15 29 3.72 0.38
-3 15 -29 3.32 0.4
3 15 29 3.8 0.55
5 -15 29 2.53 0.5
5 -15 29 2.16 0.25
5 15 29 2.68 0.36
-5 15 -29 2.1 0.34
7 -15 29 6.5 0.48
7 -15 29 7.12 0.8
7 15 29 8.23 0.6
-7 15 -29 6.69 0.59
9 15 29 4.94 0.51
-9 15 -29 5.8 0.53
11 15 29 5.65 0.53
-11 15 -29 5.45 0.54
-13 15 -29 1.35 0.29
13 15 29 1.9 0.32
-15 15 -29 0.91 0.26
15 15 29 0.61 0.24
-17 15 -29 0.31 0.21
-19 15 -29 0.19 0.22
-33 -17 29 0.06 0.15
-31 -17 29 -0.01 0.16
-29 -17 29 0.36 0.18
-27 -17 29 0.02 0.17
-25 -17 29 0.57 0.21
-23 -17 29 0.54 0.2
-21 -17 29 0.41 0.2
-19 -17 29 -0.05 0.16
-17 -17 29 0.07 0.16
17 17 -29 0.33 0.22
-15 -17 29 0.01 0.16
15 17 -29 0.23 0.21
-13 -17 29 0.07 0.15
13 17 -29 -0.22 0.19
-11 -17 29 0.18 0.15
11 17 -29 0.16 0.22
-9 -17 29 0.5 0.17
9 17 -29 0.53 0.24
-7 -17 29 0.39 0.17
7 17 -29 1.06 0.28
-5 -17 29 0.52 0.32
-5 -17 29 0.36 0.17
5 17 -29 0.43 0.24
-3 -17 29 0.6 0.38
-3 -17 29 0.81 0.19
-3 17 29 0.66 0.28
3 17 -29 0.52 0.3
3 17 -29 0.55 0.24
-1 -17 29 0.01 0.14
-1 -17 29 0.06 0.29
-1 17 29 0.16 0.26
1 17 -29 0.33 0.26
1 17 -29 0.15 0.21
1 -17 29 0.11 0.31
1 -17 29 0.01 0.14
1 17 29 -0.14 0.25
-1 17 -29 0.2 0.21
-1 17 -29 0.59 0.27
3 -17 29 0.87 0.2
3 -17 29 0.83 0.36
-3 17 -29 0.96 0.26
3 17 29 0.64 0.24
-3 17 -29 1.04 0.33
5 -17 29 0.59 0.18
5 17 29 0.83 0.24
-5 17 -29 0.84 0.26
-5 17 -29 0.98 0.34
7 -17 29 0.61 0.18
-7 17 -29 0.46 0.3
7 17 29 0.75 0.25
-7 17 -29 0.91 0.27
9 -17 29 0.49 0.17
-9 17 -29 0.74 0.25
9 17 29 0.67 0.24
11 -17 29 0.18 0.15
-11 17 -29 0.18 0.2
11 17 29 0.23 0.21
13 -17 29 -0.01 0.16
13 17 29 -0.08 0.18
-13 17 -29 0.02 0.19
15 -17 29 0.19 0.17
15 17 29 0.02 0.19
-15 17 -29 -0.15 0.2
17 -17 29 0.07 0.16
-17 17 -29 0.15 0.22
17 17 29 0.3 0.22
-33 -19 29 0.1 0.14
-31 -19 29 0.19 0.15
-29 -19 29 -0.02 0.16
-27 -19 29 -0.16 0.17
-25 -19 29 -0.15 0.17
-23 -19 29 -0.11 0.17
-21 -19 29 -0.29 0.16
-19 -19 29 -0.14 0.17
-17 -19 29 0 0.17
-15 -19 29 0.16 0.18
15 19 -29 -0.01 0.21
-13 -19 29 0.75 0.2
13 19 -29 0.78 0.26
-11 -19 29 0.21 0.17
11 19 -29 0.45 0.25
-9 -19 29 0.45 0.17
9 19 -29 0.41 0.24
-7 -19 29 0.17 0.16
7 19 -29 0.11 0.22
-5 -19 29 -0.12 0.14
5 19 -29 -0.03 0.27
5 19 -29 -0.06 0.2
-3 -19 29 0.13 0.16
3 19 -29 0.05 0.22
3 19 -29 0.1 0.29
-1 -19 29 0.14 0.16
1 19 -29 0.14 0.27
1 19 -29 0.08 0.2
1 -19 29 0.32 0.17
1 19 29 0.38 0.21
-1 19 -29 0.04 0.2
-1 19 -29 0.13 0.28
3 -19 29 0.4 0.18
-3 19 -29 0.31 0.28
-3 19 -29 0.16 0.22
3 19 29 0.07 0.19
5 -19 29 -0.28 0.13
-5 19 -29 -0.04 0.2
5 19 29 -0.04 0.19
-5 19 -29 0.18 0.3
7 -19 29 0.13 0.16
7 19 29 -0.04 0.19
-7 19 -29 0.3 0.21
9 -19 29 0.33 0.17
-9 19 -29 0.48 0.23
9 19 29 0.21 0.22
11 -19 29 0.57 0.18
11 19 29 0.55 0.23
-11 19 -29 0.62 0.24
13 -19 29 0.8 0.21
13 19 29 0.35 0.23
-13 19 -29 0.64 0.25
15 -19 29 0.24 0.18
15 19 29 0.01 0.2
-15 19 -29 0.32 0.22
17 -19 29 0.07 0.17
19 -19 29 0.26 0.18
21 -19 29 -0.24 0.15
-31 -21 29 0.27 0.16
-29 -21 29 0.38 0.18
-27 -21 29 0.56 0.19
-25 -21 29 0.26 0.19
-23 -21 29 -0.06 0.17
-21 -21 29 0.04 0.18
-19 -21 29 -0.19 0.17
-17 -21 29 0.58 0.21
-15 -21 29 1.15 0.24
-13 -21 29 3.07 0.34
13 21 -29 4.19 0.46
-11 -21 29 4.36 0.43
11 21 -29 4.21 0.48
-9 -21 29 3.86 0.42
9 21 -29 5.37 0.55
-7 -21 29 3.9 0.42
7 21 -29 4.15 0.5
-5 -21 29 1.15 0.23
5 21 -29 1.18 0.31
-3 -21 29 0.74 0.2
3 21 -29 1.08 0.31
-1 -21 29 0.02 0.16
1 21 -29 0.12 0.22
1 -21 29 0.42 0.18
1 21 29 0.03 0.2
-1 21 -29 0.58 0.24
3 -21 29 0.57 0.2
3 21 29 0.54 0.24
-3 21 -29 0.85 0.28
5 -21 29 1.35 0.24
-5 21 -29 1.54 0.32
5 21 29 1.35 0.3
7 -21 29 3.91 0.4
-7 21 -29 4.27 0.49
7 21 29 3.74 0.44
9 -21 29 4.31 0.42
-9 21 -29 4.91 0.53
9 21 29 3.96 0.48
11 -21 29 4.67 0.43
-11 21 -29 4.86 0.53
11 21 29 4.12 0.48
13 -21 29 4.48 0.44
-13 21 -29 3.74 0.45
13 21 29 3.3 0.42
15 -21 29 1.68 0.26
17 -21 29 0.67 0.21
19 -21 29 -0.05 0.16
21 -21 29 -0.08 0.16
23 -21 29 -0.03 0.16
25 -21 29 -0.12 0.15
-31 -23 29 0.76 0.18
-29 -23 29 1.09 0.2
-27 -23 29 0.84 0.21
-25 -23 29 0.72 0.21
-23 -23 29 0.58 0.2
-21 -23 29 -0.04 0.17
-19 -23 29 0.09 0.19
-17 -23 29 0.5 0.21
-15 -23 29 1.92 0.28
-13 -23 29 4.68 0.46
-11 -23 29 6.45 0.53
-9 -23 29 7.95 0.58
9 23 -29 7.07 0.67
-7 -23 29 5.97 0.51
7 23 -29 6.07 0.61
-5 -23 29 3 0.34
5 23 -29 3.48 0.46
-3 -23 29 1.2 0.25
3 23 -29 1.63 0.34
-1 -23 29 0.17 0.18
1 23 -29 0.29 0.24
1 -23 29 0.06 0.18
-1 23 -29 0.52 0.25
1 23 29 0.14 0.21
3 -23 29 1.18 0.23
3 23 29 0.99 0.28
-3 23 -29 1.28 0.32
5 -23 29 4.17 0.45
5 23 29 3.85 0.46
-5 23 -29 3.27 0.46
7 -23 29 6.03 0.5
-7 23 -29 6.15 0.6
7 23 29 6.28 0.58
9 -23 29 6.8 0.56
9 23 29 7.53 0.64
-9 23 -29 7.57 0.65
11 -23 29 6.07 0.52
13 -23 29 5.05 0.49
15 -23 29 2.08 0.28
17 -23 29 0.47 0.2
19 -23 29 -0.21 0.16
21 -23 29 -0.09 0.17
23 -23 29 -0.04 0.16
25 -23 29 0.47 0.17
27 -23 29 0.68 0.17
-29 -25 29 1.29 0.2
-27 -25 29 1.73 0.24
-25 -25 29 1.17 0.22
-23 -25 29 0.54 0.2
-21 -25 29 0.23 0.19
-19 -25 29 -0.07 0.18
-17 -25 29 0.56 0.21
-15 -25 29 2.5 0.3
-13 -25 29 7.42 0.6
-11 -25 29 9.15 0.65
-9 -25 29 10.66 0.7
-7 -25 29 9.92 0.7
-5 -25 29 5.23 0.51
-3 -25 29 1.85 0.29
3 25 -29 2.6 0.47
-1 -25 29 0.2 0.2
1 25 -29 0.14 0.25
1 -25 29 0.47 0.2
1 25 29 0.35 0.24
-1 25 -29 0.19 0.25
3 -25 29 2 0.29
-3 25 -29 2.21 0.42
5 -25 29 6.09 0.53
7 -25 29 9.44 0.65
9 -25 29 10.23 0.67
11 -25 29 9.16 0.64
13 -25 29 6.9 0.56
15 -25 29 2.19 0.29
17 -25 29 0.85 0.23
19 -25 29 0.08 0.17
21 -25 29 -0.02 0.17
23 -25 29 0.5 0.18
25 -25 29 1.03 0.19
27 -25 29 1.41 0.19
-27 -27 29 1.87 0.23
-25 -27 29 1.79 0.24
-23 -27 29 0.69 0.2
-21 -27 29 0.23 0.18
-19 -27 29 -0.35 0.16
-17 -27 29 0.33 0.2
-15 -27 29 1.77 0.27
-13 -27 29 4.79 0.49
-11 -27 29 7.45 0.59
-9 -27 29 8.45 0.64
-7 -27 29 7.3 0.58
-5 -27 29 6.09 0.57
-3 -27 29 1.51 0.29
-1 -27 29 0.2 0.22
1 -27 29 0.16 0.21
3 -27 29 1.16 0.26
5 -27 29 4.86 0.51
7 -27 29 7.32 0.57
9 -27 29 9.25 0.65
11 -27 29 7.52 0.59
13 -27 29 4.28 0.44
15 -27 29 2.37 0.29
17 -27 29 0.23 0.19
19 -27 29 0.06 0.17
21 -27 29 0.34 0.18
23 -27 29 0.74 0.18
25 -27 29 1.45 0.2
-25 -29 29 1.13 0.2
-23 -29 29 0.81 0.2
-21 -29 29 0.29 0.18
-19 -29 29 -0.18 0.16
-17 -29 29 0.24 0.19
-15 -29 29 2.05 0.28
-13 -29 29 4.36 0.47
-11 -29 29 8.26 0.62
-9 -29 29 8.45 0.63
-7 -29 29 9.24 0.67
-5 -29 29 4.32 0.48
-3 -29 29 2.12 0.32
-1 -29 29 -0.11 0.21
1 -29 29 -0.11 0.2
3 -29 29 1.94 0.29
5 -29 29 3.67 0.38
7 -29 29 8.27 0.63
9 -29 29 7.73 0.6
11 -29 29 7.83 0.6
13 -29 29 4.4 0.46
15 -29 29 1.7 0.26
17 -29 29 0.14 0.18
19 -29 29 -0.19 0.16
21 -29 29 0.36 0.17
23 -29 29 0.82 0.18
-23 -31 29 0.6 0.17
-21 -31 29 0.13 0.16
-19 -31 29 -0.28 0.15
-17 -31 29 -0.1 0.17
-15 -31 29 0.6 0.21
-13 -31 29 1.49 0.25
-11 -31 29 2.98 0.33
-9 -31 29 3.22 0.34
-7 -31 29 3 0.34
-5 -31 29 1.96 0.3
-3 -31 29 0.73 0.24
-1 -31 29 -0.18 0.2
1 -31 29 -0.18 0.19
3 -31 29 1.02 0.25
5 -31 29 2.16 0.3
7 -31 29 3.18 0.34
9 -31 29 3.12 0.34
11 -31 29 3.03 0.33
13 -31 29 1.4 0.24
15 -31 29 0.5 0.19
17 -31 29 0.11 0.16
19 -31 29 -0.02 0.15
21 -31 29 0.43 0.16
-19 -33 29 -0.13 0.14
-17 -33 29 0.02 0.15
-15 -33 29 0.6 0.19
-13 -33 29 0.99 0.22
-11 -33 29 2.39 0.29
-9 -33 29 1.89 0.28
-7 -33 29 2.29 0.3
-5 -33 29 1.32 0.25
-3 -33 29 0.47 0.21
-1 -33 29 -0.15 0.18
1 -33 29 -0.06 0.18
3 -33 29 0.45 0.21
5 -33 29 1.21 0.24
7 -33 29 1.99 0.28
9 -33 29 1.85 0.27
11 -33 29 1.91 0.26
13 -33 29 0.84 0.21
15 -33 29 0.69 0.19
17 -33 29 -0.29 0.14
19 -33 29 -0.16 0.14
-15 -35 29 0.16 0.16
-13 -35 29 0.07 0.16
-11 -35 29 0.25 0.18
-9 -35 29 0.36 0.18
-7 -35 29 0.25 0.18
-5 -35 29 0.27 0.19
-3 -35 29 0.05 0.18
-1 -35 29 0.08 0.18
1 -35 29 0.15 0.18
3 -35 29 -0.05 0.17
5 -35 29 -0.31 0.16
7 -35 29 0.23 0.18
9 -35 29 0.05 0.17
11 -35 29 0.28 0.17
13 -35 29 -0.06 0.16
15 -35 29 -0.08 0.14
-11 -37 29 -0.02 0.14
-9 -37 29 0.02 0.15
-7 -37 29 0.15 0.16
-5 -37 29 0.22 0.17
-3 -37 29 0.07 0.16
-1 -37 29 -0.21 0.15
1 -37 29 0.19 0.16
3 -37 29 0.04 0.16
5 -37 29 0.17 0.16
7 -37 29 0.05 0.16
9 -37 29 0 0.15
11 -37 29 0.19 0.15
-16 0 30 0.27 0.28
-14 0 30 7.36 0.74
-12 0 30 0.06 0.28
-10 0 30 1.81 0.42
-8 0 30 -0.41 0.25
-6 0 30 0.02 0.29
-4 0 30 -0.43 0.24
-2 0 30 -0.35 0.23
0 0 30 -0.01 0.26
2 0 30 0.03 0.26
4 0 30 -0.15 0.25
6 0 30 0.39 0.32
8 0 30 0.15 0.27
10 0 30 1.85 0.47
12 0 30 0.03 0.3
14 0 30 5.11 0.68
16 0 30 -0.09 0.32
-16 -2 30 5.72 0.68
-16 2 30 5.71 0.67
-14 -2 30 0.01 0.28
-14 2 30 0.16 0.28
-12 -2 30 2.08 0.47
-12 2 30 1.44 0.41
-10 -2 30 0.22 0.27
-10 2 30 -0.32 0.26
-8 -2 30 0.01 0.26
-8 2 30 0.34 0.31
-6 -2 30 -0.27 0.24
-6 2 30 -0.23 0.26
-4 -2 30 -0.1 0.24
-4 2 30 -0.55 0.19
-2 -2 30 -0.44 0.21
-2 2 30 0.12 0.29
0 -2 30 -0.11 0.23
0 2 30 -0.16 0.24
2 -2 30 0.01 0.27
2 2 30 -0.17 0.26
4 -2 30 0.26 0.3
4 2 30 0.29 0.28
6 -2 30 0.27 0.29
6 2 30 -0.04 0.29
8 -2 30 0.54 0.35
8 2 30 0.13 0.3
10 -2 30 0.12 0.32
10 2 30 -0.08 0.28
12 -2 30 2.3 0.47
12 2 30 1.92 0.48
14 -2 30 -0.14 0.27
14 2 30 0.07 0.32
16 -2 30 4.86 0.72
-34 -4 30 0.85 0.18
-32 -4 30 0.16 0.15
-30 -4 30 0.01 0.15
-28 -4 30 0 0.16
-14 -4 30 7.1 0.76
-14 4 30 8.05 0.75
-12 -4 30 -0.18 0.29
-12 4 30 0 0.27
-10 -4 30 2.15 0.45
-10 4 30 2.17 0.46
-8 -4 30 0.09 0.28
-8 4 30 0.16 0.28
-6 -4 30 -0.2 0.26
-6 4 30 -0.37 0.23
-4 -4 30 0.07 0.24
-4 4 30 -0.29 0.22
-2 -4 30 -0.04 0.26
-2 4 30 -0.15 0.25
0 -4 30 -0.19 0.24
0 4 30 -0.1 0.26
2 -4 30 0.07 0.25
2 4 30 0 0.26
4 -4 30 0.34 0.3
4 4 30 -0.2 0.24
6 -4 30 0.95 0.37
6 4 30 0.45 0.31
8 -4 30 -0.34 0.25
8 4 30 -0.25 0.25
10 -4 30 1.85 0.48
10 4 30 2.17 0.46
12 -4 30 0.35 0.35
12 4 30 -0.22 0.29
14 -4 30 7.47 0.87
-36 -6 30 0.22 0.13
-34 -6 30 -0.13 0.13
-32 -6 30 0.1 0.15
-30 -6 30 -0.2 0.15
-28 -6 30 0.73 0.19
-26 -6 30 0.01 0.16
-24 -6 30 0.35 0.17
-22 -6 30 -0.2 0.15
-14 -6 30 -0.24 0.26
-14 6 30 -0.15 0.25
-12 -6 30 1.69 0.44
-12 6 30 1.47 0.38
-10 -6 30 0.17 0.28
-10 6 30 -0.08 0.28
-8 -6 30 -0.01 0.27
-8 6 30 0 0.24
-6 -6 30 -0.07 0.28
-6 6 30 -0.27 0.26
-4 -6 30 0.39 0.33
-4 6 30 0.2 0.3
-2 -6 30 -0.26 0.24
-2 6 30 -0.23 0.28
0 -6 30 0.69 0.32
0 6 30 0.24 0.31
2 -6 30 -0.03 0.23
2 6 30 0.12 0.3
4 -6 30 -0.03 0.27
4 6 30 0.17 0.3
6 -6 30 -0.41 0.29
6 6 30 0.2 0.3
8 -6 30 -0.19 0.31
8 6 30 -0.14 0.29
10 -6 30 0 0.3
10 6 30 0.21 0.3
12 -6 30 1.45 0.45
14 -6 30 -0.28 0.29
-34 -8 30 0.47 0.16
-32 -8 30 -0.07 0.15
-30 -8 30 0.01 0.16
-28 -8 30 -0.05 0.17
-26 -8 30 -0.06 0.17
-24 -8 30 -0.12 0.16
-22 -8 30 -0.1 0.15
-20 -8 30 -0.02 0.15
-18 -8 30 0.95 0.19
-12 -8 30 -0.32 0.28
-12 8 30 -0.17 0.27
-10 -8 30 0.03 0.3
-10 8 30 -0.23 0.27
-8 -8 30 -0.23 0.26
-8 8 30 -0.35 0.24
-6 -8 30 -0.04 0.26
6 8 -30 0.18 0.17
-6 8 30 0.01 0.27
-4 -8 30 0.26 0.27
4 8 -30 0.1 0.16
-4 8 30 0.2 0.26
-2 -8 30 0.27 0.29
2 8 -30 0.16 0.17
-2 8 30 0.48 0.31
0 -8 30 0.33 0.28
0 8 -30 -0.34 0.14
0 8 30 -0.03 0.28
2 -8 30 -0.09 0.29
2 8 30 -0.09 0.27
-2 8 -30 -0.21 0.15
4 -8 30 0.24 0.32
-4 8 -30 -0.2 0.16
4 8 30 0.03 0.27
6 -8 30 -0.15 0.29
6 8 30 -0.05 0.28
-6 8 -30 -0.01 0.17
8 -8 30 -0.31 0.31
-8 8 -30 -0.06 0.17
8 8 30 0.04 0.25
10 -8 30 -0.34 0.33
-10 8 -30 0.32 0.2
10 8 30 0.4 0.34
12 -8 30 -0.1 0.35
-34 -10 30 0.05 0.14
-32 -10 30 0.07 0.16
-30 -10 30 0 0.16
-28 -10 30 0.06 0.17
-26 -10 30 -0.28 0.17
-24 -10 30 0.14 0.18
-22 -10 30 -0.33 0.15
-20 -10 30 -0.25 0.14
-18 -10 30 -0.3 0.13
-16 -10 30 1.11 0.2
-14 -10 30 -0.03 0.13
-12 -10 30 0.82 0.18
-10 -10 30 0.1 0.26
10 10 -30 -0.02 0.18
-10 10 30 0.07 0.26
-8 -10 30 0.39 0.31
8 10 -30 0.24 0.2
-8 10 30 -0.25 0.27
-6 -10 30 -0.24 0.29
-6 10 30 -0.49 0.26
6 10 -30 -0.12 0.16
-4 -10 30 2.75 0.48
-4 10 30 2.13 0.45
4 10 -30 2.55 0.34
-2 -10 30 -0.04 0.28
-2 10 30 0.24 0.27
2 10 -30 -0.02 0.17
0 -10 30 1.43 0.41
0 10 -30 1.57 0.28
0 10 30 1.34 0.38
2 -10 30 0.13 0.26
2 10 30 -0.07 0.27
-2 10 -30 -0.02 0.18
4 -10 30 1.94 0.49
-4 10 -30 2.46 0.34
4 10 30 2 0.46
6 -10 30 -0.3 0.3
-6 10 -30 -0.07 0.18
6 10 30 -0.3 0.25
8 -10 30 0.01 0.33
-8 10 -30 0.22 0.2
8 10 30 0.49 0.32
10 -10 30 -0.51 0.32
-10 10 -30 0 0.18
12 -10 30 0.81 0.46
-12 10 -30 1.03 0.25
-14 10 -30 0.02 0.18
-34 -12 30 0.26 0.15
-32 -12 30 0.03 0.15
-30 -12 30 0.2 0.17
-28 -12 30 0.07 0.18
-26 -12 30 0.64 0.21
-24 -12 30 -0.29 0.17
-22 -12 30 0.72 0.22
-20 -12 30 -0.05 0.17
-18 -12 30 0.57 0.18
-16 -12 30 -0.12 0.14
-14 -12 30 0.09 0.14
-12 -12 30 0.09 0.14
12 12 -30 -0.14 0.18
-10 -12 30 0.88 0.19
10 12 -30 1.46 0.28
-8 -12 30 0.16 0.15
-8 -12 30 -0.61 0.27
8 12 -30 -0.09 0.18
-8 12 30 0.2 0.28
-6 -12 30 1.39 0.24
-6 -12 30 1.79 0.41
-6 12 30 2.3 0.44
6 12 -30 1.92 0.31
-4 -12 30 0.3 0.32
4 12 -30 0.18 0.2
-4 12 30 0.3 0.29
-2 -12 30 1.55 0.41
2 12 -30 1.54 0.29
-2 12 30 1.9 0.41
0 -12 30 -0.3 0.29
0 12 30 0.01 0.27
0 12 -30 0.08 0.2
2 -12 30 1.8 0.45
-2 12 -30 1.41 0.3
2 12 30 2.02 0.44
4 -12 30 -0.2 0.31
-4 12 -30 0.18 0.2
4 12 30 -0.26 0.24
6 -12 30 1.92 0.51
6 12 30 1.8 0.46
-6 12 -30 1.77 0.31
8 -12 30 -0.12 0.36
-8 12 -30 -0.1 0.17
-10 12 -30 1.07 0.26
-12 12 -30 0.1 0.19
-14 12 -30 0.15 0.21
-16 12 -30 0.05 0.19
-34 -14 30 0.01 0.13
-32 -14 30 0.11 0.15
-30 -14 30 -0.06 0.16
-28 -14 30 0.14 0.18
-26 -14 30 -0.32 0.16
-24 -14 30 1.39 0.25
-22 -14 30 -0.12 0.16
-20 -14 30 1.34 0.23
-18 -14 30 -0.24 0.15
-16 -14 30 0.68 0.19
-14 -14 30 -0.18 0.14
14 14 -30 0.09 0.19
-12 -14 30 0.15 0.15
12 14 -30 0.12 0.19
-10 -14 30 -0.13 0.14
10 14 -30 -0.02 0.2
-8 -14 30 1.93 0.25
8 14 -30 2.43 0.35
-6 -14 30 -0.04 0.31
-6 -14 30 0.03 0.14
-6 14 30 -0.13 0.21
6 14 -30 -0.23 0.18
-4 -14 30 7.74 0.74
-4 -14 30 7.22 0.52
-4 14 30 8.19 0.72
4 14 -30 8.69 0.65
-2 -14 30 -0.15 0.31
-2 -14 30 -0.19 0.13
-2 14 30 0.68 0.31
2 14 -30 -0.15 0.19
0 -14 30 6.52 0.78
0 -14 30 6.6 0.5
0 14 30 7.34 0.69
0 14 -30 9 0.64
2 -14 30 -0.23 0.26
-2 14 -30 0.19 0.21
2 14 30 -0.01 0.28
4 -14 30 6.28 0.75
4 14 30 6.9 0.71
-4 14 -30 8.74 0.64
6 -14 30 -0.47 0.29
-6 14 -30 0 0.19
8 14 30 2.8 0.37
-8 14 -30 2.87 0.39
10 14 30 0 0.19
-10 14 -30 0.1 0.2
-12 14 -30 0.03 0.19
12 14 30 0.11 0.2
-14 14 -30 -0.13 0.18
-16 14 -30 0.88 0.26
-18 14 -30 -0.05 0.21
-34 -16 30 0.04 0.14
-32 -16 30 0.08 0.15
-30 -16 30 0.31 0.17
-28 -16 30 0.09 0.17
-26 -16 30 1.25 0.23
-24 -16 30 -0.1 0.17
-22 -16 30 1.82 0.27
-20 -16 30 -0.34 0.16
-18 -16 30 1.55 0.25
-16 -16 30 -0.2 0.15
16 16 -30 -0.21 0.2
-14 -16 30 0.68 0.19
14 16 -30 0.92 0.26
-12 -16 30 -0.09 0.14
12 16 -30 -0.14 0.18
-10 -16 30 1.1 0.21
10 16 -30 1.16 0.29
-8 -16 30 -0.21 0.13
8 16 -30 0.01 0.2
-6 -16 30 6.51 0.49
6 16 -30 7.65 0.62
-4 -16 30 0.07 0.29
-4 -16 30 -0.12 0.14
4 16 -30 -0.17 0.2
-2 -16 30 5.65 0.72
-2 -16 30 5.92 0.46
-2 16 30 6.08 0.74
2 16 -30 5.31 0.56
0 -16 30 -0.16 0.13
0 -16 30 0.21 0.35
0 16 30 0.16 0.28
0 16 -30 0.34 0.23
2 -16 30 5.58 0.44
-2 16 -30 5.95 0.55
2 16 30 5.15 0.67
4 -16 30 0 0.15
-4 16 -30 0.15 0.2
6 -16 30 6.69 0.5
-6 16 -30 8.81 0.65
6 16 30 7.88 0.62
8 -16 30 0.01 0.15
8 16 30 -0.04 0.18
-8 16 -30 0.01 0.2
10 16 30 1.04 0.27
-10 16 -30 1.36 0.29
-12 16 -30 0.12 0.19
12 16 30 0.15 0.19
14 16 30 1.35 0.29
-14 16 -30 0.92 0.26
-16 16 -30 0.02 0.21
-32 -18 30 0.17 0.14
-30 -18 30 0.07 0.15
-28 -18 30 0.13 0.16
-26 -18 30 -0.11 0.16
-24 -18 30 0.53 0.2
-22 -18 30 -0.07 0.17
-20 -18 30 0.95 0.22
-18 -18 30 -0.26 0.16
-16 -18 30 1.59 0.25
-14 -18 30 0.09 0.16
14 18 -30 0.1 0.23
-12 -18 30 0.61 0.19
12 18 -30 0.26 0.23
-10 -18 30 -0.18 0.14
10 18 -30 -0.16 0.2
-8 -18 30 0.94 0.2
8 18 -30 1.52 0.3
-6 -18 30 -0.1 0.15
6 18 -30 -0.08 0.2
-4 -18 30 5.4 0.46
4 18 -30 5.99 0.58
-2 -18 30 -0.03 0.14
2 18 -30 0.37 0.23
0 -18 30 4.41 0.42
0 18 -30 5.46 0.56
2 -18 30 0.12 0.15
-2 18 -30 0.15 0.22
4 -18 30 5.84 0.48
-4 18 -30 5.94 0.57
4 18 30 6.74 0.57
6 -18 30 0.11 0.15
-6 18 -30 0.07 0.2
6 18 30 0.17 0.2
8 -18 30 1.14 0.22
8 18 30 1.59 0.29
-8 18 -30 1.32 0.3
10 -18 30 -0.07 0.15
-10 18 -30 0.2 0.2
10 18 30 0.02 0.2
12 -18 30 0.54 0.19
12 18 30 0.36 0.22
-12 18 -30 0.4 0.24
14 -18 30 0 0.17
14 18 30 0.02 0.2
-14 18 -30 0 0.21
16 -18 30 2.04 0.27
-32 -20 30 -0.02 0.14
-30 -20 30 0.03 0.14
-28 -20 30 0.18 0.16
-26 -20 30 0.76 0.2
-24 -20 30 -0.18 0.16
-22 -20 30 1.26 0.24
-20 -20 30 -0.17 0.17
-18 -20 30 1.27 0.25
-16 -20 30 -0.09 0.17
-14 -20 30 1.5 0.25
-12 -20 30 -0.27 0.16
12 20 -30 -0.07 0.22
-10 -20 30 0.21 0.17
10 20 -30 0.08 0.22
-8 -20 30 -0.06 0.17
8 20 -30 0.04 0.21
-6 -20 30 2.79 0.31
6 20 -30 3.44 0.44
-4 -20 30 -0.06 0.15
4 20 -30 0 0.21
-2 -20 30 4.16 0.41
2 20 -30 4.39 0.51
0 -20 30 -0.04 0.15
0 20 -30 -0.01 0.22
2 -20 30 4.25 0.41
-2 20 -30 3.74 0.47
4 -20 30 0.11 0.17
-4 20 -30 0.14 0.21
4 20 30 0.02 0.19
6 -20 30 2.71 0.3
-6 20 -30 3 0.42
6 20 30 4.41 0.47
8 -20 30 -0.29 0.15
-8 20 -30 0.13 0.21
8 20 30 0.05 0.19
10 -20 30 -0.07 0.17
-10 20 -30 -0.06 0.19
10 20 30 -0.13 0.2
12 -20 30 0.05 0.17
12 20 30 0.32 0.22
-12 20 -30 0.13 0.22
14 -20 30 1.88 0.27
16 -20 30 0.25 0.19
18 -20 30 1.35 0.24
20 -20 30 -0.03 0.16
-30 -22 30 -0.01 0.14
-28 -22 30 0.07 0.16
-26 -22 30 0.02 0.17
-24 -22 30 0.65 0.2
-22 -22 30 -0.22 0.17
-20 -22 30 1.13 0.23
-18 -22 30 0 0.18
-16 -22 30 1.7 0.26
-14 -22 30 -0.13 0.17
-12 -22 30 1.15 0.24
-10 -22 30 0.17 0.18
-8 -22 30 -0.14 0.16
8 22 -30 -0.09 0.23
-6 -22 30 0 0.17
6 22 -30 0.22 0.24
-4 -22 30 0.87 0.23
4 22 -30 1.43 0.32
-2 -22 30 -0.08 0.17
2 22 -30 0.15 0.24
0 -22 30 0.84 0.21
0 22 -30 1.01 0.3
2 -22 30 -0.01 0.16
-2 22 -30 0.05 0.22
4 -22 30 1.04 0.23
4 22 30 1.17 0.3
-4 22 -30 1.18 0.3
6 -22 30 0.22 0.18
-6 22 -30 0.1 0.22
6 22 30 0.06 0.21
8 -22 30 -0.06 0.17
-8 22 -30 0.12 0.22
8 22 30 -0.14 0.19
10 -22 30 0.07 0.17
12 -22 30 0.79 0.22
14 -22 30 0.08 0.19
16 -22 30 2.37 0.29
18 -22 30 -0.16 0.17
20 -22 30 1.15 0.22
22 -22 30 -0.12 0.15
24 -22 30 0.36 0.17
-28 -24 30 0.06 0.15
-26 -24 30 0.12 0.17
-24 -24 30 -0.28 0.16
-22 -24 30 0.77 0.21
-20 -24 30 -0.14 0.16
-18 -24 30 0.57 0.21
-16 -24 30 0.3 0.19
-14 -24 30 1.48 0.26
-12 -24 30 0 0.19
-10 -24 30 0.23 0.19
-8 -24 30 -0.11 0.18
-6 -24 30 0.53 0.21
-4 -24 30 0.05 0.18
-2 -24 30 0.71 0.22
0 -24 30 0.08 0.19
0 24 -30 -0.02 0.24
2 -24 30 0.85 0.22
4 -24 30 0.12 0.18
6 -24 30 0.85 0.22
8 -24 30 -0.08 0.18
10 -24 30 -0.12 0.17
12 -24 30 0 0.2
14 -24 30 1.52 0.26
16 -24 30 0.28 0.19
18 -24 30 0.59 0.2
20 -24 30 0.05 0.16
22 -24 30 0.59 0.18
24 -24 30 -0.04 0.15
26 -24 30 0.09 0.14
-26 -26 30 -0.06 0.15
-24 -26 30 0.49 0.18
-22 -26 30 -0.07 0.17
-20 -26 30 0.44 0.2
-18 -26 30 -0.23 0.17
-16 -26 30 1.25 0.25
-14 -26 30 0.08 0.19
-12 -26 30 1.01 0.24
-10 -26 30 0.01 0.19
-8 -26 30 -0.03 0.2
-6 -26 30 -0.07 0.19
-4 -26 30 0.05 0.2
-2 -26 30 -0.19 0.19
0 -26 30 0.08 0.2
2 -26 30 0.13 0.2
4 -26 30 0.24 0.2
6 -26 30 0.02 0.18
8 -26 30 0.06 0.19
10 -26 30 0.05 0.18
12 -26 30 0.55 0.22
14 -26 30 0 0.19
16 -26 30 1.4 0.25
18 -26 30 -0.04 0.17
20 -26 30 0.48 0.19
22 -26 30 -0.04 0.15
24 -26 30 0.19 0.15
-24 -28 30 0.05 0.16
-22 -28 30 -0.04 0.16
-20 -28 30 -0.21 0.15
-18 -28 30 0.06 0.17
-16 -28 30 -0.19 0.17
-14 -28 30 -0.06 0.18
-12 -28 30 0.03 0.2
-10 -28 30 0.05 0.19
-8 -28 30 -0.15 0.18
-6 -28 30 0.54 0.23
-4 -28 30 0.14 0.21
-2 -28 30 0.6 0.23
0 -28 30 0.07 0.2
2 -28 30 0.61 0.22
4 -28 30 -0.13 0.18
6 -28 30 0.44 0.21
8 -28 30 0.18 0.19
10 -28 30 0.1 0.2
12 -28 30 -0.11 0.19
14 -28 30 -0.03 0.18
16 -28 30 0.15 0.18
18 -28 30 -0.01 0.16
20 -28 30 -0.08 0.15
22 -28 30 0.08 0.14
24 -28 30 -0.11 0.14
-22 -30 30 -0.15 0.14
-20 -30 30 -0.09 0.16
-18 -30 30 -0.39 0.15
-16 -30 30 0.21 0.18
-14 -30 30 -0.09 0.17
-12 -30 30 0.12 0.19
-10 -30 30 0.06 0.19
-8 -30 30 -0.1 0.19
-6 -30 30 -0.14 0.19
-4 -30 30 -0.08 0.2
-2 -30 30 -0.01 0.2
0 -30 30 -0.12 0.2
2 -30 30 0 0.2
4 -30 30 -0.25 0.19
6 -30 30 0.04 0.19
8 -30 30 -0.03 0.18
10 -30 30 -0.01 0.18
12 -30 30 0.09 0.19
14 -30 30 -0.03 0.17
16 -30 30 0.07 0.17
18 -30 30 -0.33 0.15
20 -30 30 -0.18 0.14
22 -30 30 0.01 0.14
-20 -32 30 -0.3 0.14
-18 -32 30 -0.01 0.15
-16 -32 30 0 0.16
-14 -32 30 0.16 0.17
-12 -32 30 0.35 0.19
-10 -32 30 -0.18 0.18
-8 -32 30 0.01 0.18
-6 -32 30 0.1 0.19
-4 -32 30 -0.24 0.17
-2 -32 30 0.35 0.21
0 -32 30 -0.22 0.18
2 -32 30 0.06 0.19
4 -32 30 -0.02 0.19
6 -32 30 0.11 0.18
8 -32 30 -0.05 0.18
10 -32 30 -0.1 0.17
12 -32 30 0.03 0.17
14 -32 30 0.06 0.17
16 -32 30 0 0.15
18 -32 30 -0.05 0.15
-16 -34 30 -0.27 0.13
-14 -34 30 -0.13 0.16
-12 -34 30 0.03 0.17
-10 -34 30 -0.16 0.16
-8 -34 30 0.69 0.2
-6 -34 30 0 0.18
-4 -34 30 0.86 0.21
-2 -34 30 0.14 0.18
0 -34 30 1.56 0.25
2 -34 30 -0.02 0.17
4 -34 30 0.86 0.22
6 -34 30 -0.1 0.17
8 -34 30 0.32 0.19
10 -34 30 -0.03 0.16
12 -34 30 0.12 0.17
14 -34 30 -0.09 0.14
16 -34 30 -0.1 0.14
-12 -36 30 0.01 0.14
-10 -36 30 -0.05 0.15
-8 -36 30 -0.09 0.15
-6 -36 30 -0.03 0.16
-4 -36 30 -0.17 0.16
-2 -36 30 0.57 0.19
0 -36 30 0.19 0.17
2 -36 30 0.42 0.18
4 -36 30 0.12 0.17
6 -36 30 0.09 0.17
8 -36 30 -0.02 0.16
10 -36 30 0.1 0.15
-13 -1 31 -0.55 0.26
-13 1 31 0.16 0.28
-11 -1 31 0.16 0.3
-11 1 31 0 0.31
-9 -1 31 -0.17 0.31
-9 1 31 0.18 0.33
-7 -1 31 -0.1 0.27
-7 1 31 0.06 0.28
-5 -1 31 0.23 0.3
-5 1 31 -0.07 0.27
-3 -1 31 -0.26 0.28
-3 1 31 -0.19 0.28
-1 -1 31 0.19 0.29
-1 1 31 0.08 0.28
1 -1 31 -0.24 0.28
1 1 31 -0.26 0.26
3 -1 31 -0.42 0.26
3 1 31 -0.52 0.26
5 -1 31 -0.04 0.27
5 1 31 0.23 0.35
7 -1 31 0.12 0.29
7 1 31 0.24 0.32
9 -1 31 0.24 0.32
9 1 31 0.62 0.36
11 -1 31 -0.08 0.33
11 1 31 0 0.3
13 -1 31 -0.18 0.32
13 1 31 0.11 0.32
-13 -3 31 3.05 0.56
-13 3 31 3.92 0.57
-11 -3 31 6.36 0.75
-11 3 31 4.88 0.64
-9 -3 31 6.54 0.76
-9 3 31 6.91 0.7
-7 -3 31 8.58 0.88
-7 3 31 7.92 0.78
-5 -3 31 4.53 0.65
-5 3 31 3.92 0.58
-3 -3 31 2.82 0.51
-3 3 31 2.86 0.52
-1 -3 31 0.13 0.28
-1 3 31 -0.33 0.25
1 -3 31 -0.01 0.32
1 3 31 -0.08 0.27
3 -3 31 2.43 0.48
3 3 31 2.5 0.49
5 -3 31 4.17 0.64
5 3 31 3.79 0.59
7 -3 31 7.37 0.87
7 3 31 8.97 0.84
9 -3 31 8.19 0.82
9 3 31 6.59 0.79
11 -3 31 6.73 0.79
11 3 31 5.24 0.71
13 -3 31 3.9 0.66
13 3 31 4.21 0.63
-13 -5 31 2.63 0.51
-11 -5 31 6.14 0.72
-11 5 31 7.37 0.74
-9 -5 31 7.93 0.83
-9 5 31 8.3 0.76
-7 -5 31 8.24 0.83
-7 5 31 9.56 0.84
-5 -5 31 6.14 0.73
-5 5 31 5.14 0.65
-3 -5 31 3.63 0.58
-3 5 31 4.06 0.59
-1 -5 31 -0.1 0.31
-1 5 31 0.05 0.31
1 -5 31 0.26 0.3
1 5 31 -0.46 0.27
3 -5 31 3.88 0.6
3 5 31 4 0.61
5 -5 31 4.66 0.68
5 5 31 5.99 0.71
7 -5 31 7.43 0.83
7 5 31 7.33 0.81
9 -5 31 7.5 0.85
9 5 31 7.24 0.83
11 -5 31 6.12 0.78
11 5 31 5.41 0.73
13 -5 31 4.63 0.75
-33 -7 31 1.09 0.18
-31 -7 31 1.49 0.21
-29 -7 31 3.28 0.35
-27 -7 31 3.99 0.39
-25 -7 31 4.63 0.42
-23 -7 31 2.97 0.3
-13 -7 31 4.3 0.66
-11 -7 31 9.97 0.9
-11 7 31 11.52 0.87
-9 -7 31 12.41 1
-9 7 31 12.97 0.97
-7 -7 31 14.48 1.06
-7 7 31 15.61 1.04
-5 -7 31 7.58 0.82
-5 7 31 8.16 0.78
-3 -7 31 8.54 0.79
-3 7 31 8.11 0.79
-1 -7 31 0.41 0.32
-1 7 31 -0.39 0.24
1 -7 31 0.14 0.32
1 7 31 0.52 0.33
3 -7 31 7.08 0.81
3 7 31 8.57 0.81
5 -7 31 8.01 0.9
5 7 31 8.75 0.8
7 -7 31 14.02 1.06
7 7 31 11.75 0.99
9 -7 31 11.56 0.99
9 7 31 12.11 0.98
11 -7 31 12.2 1.05
-33 -9 31 0.83 0.18
-31 -9 31 1.13 0.2
-29 -9 31 3.81 0.39
-27 -9 31 3.01 0.3
-25 -9 31 5.17 0.44
-23 -9 31 2.9 0.3
-21 -9 31 2.05 0.26
-19 -9 31 0.24 0.16
-17 -9 31 -0.01 0.14
-11 -9 31 8.37 0.82
-9 -9 31 10.79 0.93
-9 9 31 12.16 0.93
-7 -9 31 12.13 0.95
-7 9 31 12.72 0.95
-5 -9 31 7.52 0.82
-5 9 31 9.26 0.79
5 9 -31 7.6 0.58
-3 -9 31 6.76 0.77
-3 9 31 6.48 0.72
3 9 -31 7.01 0.53
-1 -9 31 0.55 0.34
-1 9 31 0.14 0.31
1 9 -31 -0.11 0.16
1 -9 31 -0.25 0.31
-1 9 -31 0.24 0.19
1 9 31 -0.17 0.24
3 -9 31 6.69 0.79
3 9 31 7.16 0.73
-3 9 -31 7.14 0.56
5 -9 31 8.45 0.82
5 9 31 8.05 0.81
-5 9 -31 8.14 0.61
7 -9 31 10.53 0.98
-7 9 -31 13.41 0.8
7 9 31 13.24 1.01
9 -9 31 11.86 1.01
-9 9 -31 11.03 0.73
-33 -11 31 0.84 0.17
-31 -11 31 1.48 0.22
-29 -11 31 3.92 0.39
-27 -11 31 4.21 0.41
-25 -11 31 5.31 0.46
-23 -11 31 2.42 0.29
-21 -11 31 1.5 0.24
-19 -11 31 0.1 0.16
-17 -11 31 -0.07 0.14
-15 -11 31 1.18 0.21
-13 -11 31 1.73 0.23
-9 -11 31 8.36 0.8
9 11 -31 8.92 0.62
-7 -11 31 10.2 0.93
7 11 -31 11.43 0.73
-7 11 31 10.74 0.85
-5 -11 31 7.32 0.82
-5 11 31 6.82 0.76
5 11 -31 8.37 0.6
-3 -11 31 6.04 0.73
3 11 -31 6.82 0.55
-3 11 31 6.08 0.7
-1 -11 31 0.39 0.35
-1 11 31 -0.14 0.3
1 11 -31 0.2 0.2
1 -11 31 -0.01 0.31
-1 11 -31 -0.03 0.19
1 11 31 0.12 0.28
3 -11 31 6.12 0.74
3 11 31 6.01 0.71
-3 11 -31 6.71 0.56
5 -11 31 6.48 0.8
-5 11 -31 7.75 0.6
5 11 31 6.13 0.73
7 -11 31 11.12 1
-7 11 -31 12.55 0.78
7 11 31 10.74 0.94
-9 11 -31 9.72 0.69
-11 11 -31 5.7 0.53
-13 11 -31 1.88 0.32
-33 -13 31 0.38 0.15
-31 -13 31 0.27 0.16
-29 -13 31 1.55 0.23
-27 -13 31 1.31 0.23
-25 -13 31 2.28 0.28
-23 -13 31 1.44 0.24
-21 -13 31 0.76 0.21
-19 -13 31 -0.05 0.16
-17 -13 31 -0.03 0.16
-15 -13 31 0.73 0.19
-13 -13 31 0.84 0.19
-11 -13 31 1.75 0.24
11 13 -31 1.9 0.31
-9 -13 31 3.15 0.31
9 13 -31 3.72 0.41
-7 -13 31 4.29 0.39
7 13 -31 5.53 0.51
-5 -13 31 2.68 0.51
5 13 -31 3.12 0.39
-3 -13 31 3.78 0.6
3 13 -31 3.9 0.43
-3 13 31 3.57 0.53
-1 -13 31 -0.14 0.29
-1 13 31 0.01 0.26
1 13 -31 -0.05 0.18
1 -13 31 -0.1 0.32
1 13 31 0.47 0.32
-1 13 -31 0.06 0.2
3 -13 31 3.74 0.63
-3 13 -31 4.47 0.47
3 13 31 3.3 0.57
5 13 31 2.98 0.54
-5 13 -31 3.22 0.41
-7 13 -31 6.2 0.57
-9 13 -31 3.62 0.43
-11 13 -31 1.63 0.3
-13 13 -31 0.93 0.27
-15 13 -31 0.45 0.22
-33 -15 31 0.27 0.14
-31 -15 31 0.11 0.15
-29 -15 31 0.87 0.2
-27 -15 31 0.94 0.21
-25 -15 31 1.21 0.23
-23 -15 31 0.38 0.21
-21 -15 31 -0.04 0.17
-19 -15 31 -0.1 0.16
-17 -15 31 -0.11 0.16
-15 -15 31 0.74 0.2
-13 -15 31 0.6 0.19
13 15 -31 0.27 0.22
-11 -15 31 0.87 0.2
11 15 -31 1.57 0.3
-9 -15 31 1.3 0.22
9 15 -31 1.2 0.29
-7 -15 31 1.06 0.21
7 15 -31 1.59 0.31
-5 -15 31 1.76 0.24
5 15 -31 2.03 0.34
-3 -15 31 1.11 0.2
3 15 -31 1.43 0.3
-1 -15 31 0.01 0.15
1 15 -31 0.05 0.2
1 -15 31 0.18 0.16
-1 15 -31 -0.05 0.2
-3 15 -31 1.22 0.29
-5 15 -31 2.34 0.37
-7 15 -31 2.16 0.34
-9 15 -31 1.27 0.29
-11 15 -31 1.37 0.29
-13 15 -31 0.61 0.24
-15 15 -31 0.91 0.27
-31 -17 31 0.07 0.14
-29 -17 31 0.1 0.15
-27 -17 31 -0.02 0.16
-25 -17 31 0.01 0.16
-23 -17 31 -0.16 0.17
-21 -17 31 -0.08 0.18
-19 -17 31 -0.06 0.17
-17 -17 31 -0.02 0.17
-15 -17 31 0.08 0.18
-13 -17 31 -0.02 0.16
13 17 -31 0.05 0.22
-11 -17 31 -0.23 0.14
11 17 -31 0.07 0.21
-9 -17 31 -0.16 0.14
9 17 -31 -0.02 0.2
7 17 -31 -0.02 0.2
-5 -17 31 -0.02 0.14
5 17 -31 -0.05 0.2
-3 -17 31 -0.05 0.14
3 17 -31 0.47 0.25
-1 -17 31 0.12 0.16
1 17 -31 0.02 0.21
1 -17 31 0.1 0.16
-1 17 -31 0.01 0.2
3 -17 31 0.38 0.17
-3 17 -31 0.26 0.21
5 -17 31 -0.02 0.15
-5 17 -31 0.23 0.22
7 -17 31 -0.04 0.15
-7 17 -31 0.11 0.2
9 17 31 0.17 0.2
-9 17 -31 0.02 0.2
-11 17 -31 0.14 0.21
11 17 31 -0.06 0.2
-13 17 -31 0.18 0.22
13 17 31 -0.09 0.21
-31 -19 31 0.13 0.15
-29 -19 31 -0.04 0.14
-27 -19 31 -0.14 0.15
-25 -19 31 -0.21 0.15
-23 -19 31 -0.2 0.17
-21 -19 31 -0.26 0.17
-19 -19 31 -0.1 0.18
-17 -19 31 0.01 0.18
-15 -19 31 -0.21 0.16
-13 -19 31 0.04 0.17
-11 -19 31 0.06 0.16
11 19 -31 -0.16 0.22
-9 -19 31 0.36 0.18
9 19 -31 0.36 0.26
-7 -19 31 0.29 0.17
7 19 -31 0.58 0.25
-5 -19 31 -0.06 0.14
5 19 -31 0.22 0.24
-3 -19 31 0.06 0.16
3 19 -31 0 0.2
-1 -19 31 0.03 0.16
1 19 -31 0.42 0.25
1 -19 31 0.08 0.16
-1 19 -31 0.12 0.22
3 -19 31 0.01 0.17
-3 19 -31 0.14 0.21
5 -19 31 0.25 0.17
-5 19 -31 0.26 0.22
7 -19 31 0.53 0.19
-7 19 -31 0.34 0.24
7 19 31 0.5 0.24
9 -19 31 0.17 0.17
9 19 31 0.39 0.23
-9 19 -31 0.55 0.24
11 -19 31 0.19 0.17
11 19 31 0.18 0.22
-11 19 -31 -0.04 0.21
13 -19 31 0.25 0.19
15 -19 31 -0.13 0.16
-29 -21 31 0.4 0.16
-27 -21 31 0.53 0.18
-25 -21 31 0.6 0.19
-23 -21 31 0.23 0.18
-21 -21 31 0.05 0.18
-19 -21 31 -0.02 0.17
-17 -21 31 -0.11 0.16
-15 -21 31 0.17 0.18
-13 -21 31 1.1 0.23
-11 -21 31 1.6 0.27
-9 -21 31 1.66 0.26
-7 -21 31 1.66 0.26
7 21 -31 2.68 0.4
-5 -21 31 0.95 0.22
5 21 -31 0.84 0.3
-3 -21 31 0.39 0.19
3 21 -31 0.59 0.27
-1 -21 31 -0.21 0.15
1 21 -31 0.22 0.23
1 -21 31 0.11 0.17
-1 21 -31 -0.06 0.21
3 -21 31 0.39 0.19
-3 21 -31 0.25 0.23
5 -21 31 0.97 0.21
-5 21 -31 1.14 0.3
7 -21 31 1.94 0.27
7 21 31 1.77 0.34
-7 21 -31 1.95 0.36
9 -21 31 2.18 0.28
11 -21 31 1.68 0.26
13 -21 31 1.06 0.23
15 -21 31 0.58 0.21
17 -21 31 0.07 0.18
19 -21 31 -0.05 0.16
-27 -23 31 0.82 0.19
-25 -23 31 0.58 0.19
-23 -23 31 0.54 0.19
-21 -23 31 0.13 0.17
-19 -23 31 -0.24 0.16
-17 -23 31 0 0.18
-15 -23 31 0.34 0.2
-13 -23 31 1.53 0.27
-11 -23 31 1.95 0.28
-9 -23 31 3.3 0.35
-7 -23 31 2.63 0.31
-5 -23 31 1.56 0.27
-3 -23 31 0.55 0.21
-1 -23 31 0.01 0.17
1 -23 31 0.18 0.18
3 -23 31 0.67 0.21
5 -23 31 1.52 0.25
7 -23 31 2.77 0.32
9 -23 31 4.14 0.45
11 -23 31 2.68 0.31
13 -23 31 1.33 0.25
15 -23 31 0.51 0.2
17 -23 31 0.13 0.18
19 -23 31 -0.03 0.16
21 -23 31 -0.08 0.15
23 -23 31 0.38 0.18
-27 -25 31 1.15 0.19
-25 -25 31 1.35 0.21
-23 -25 31 0.55 0.19
-21 -25 31 0.15 0.17
-19 -25 31 -0.13 0.17
-17 -25 31 0.15 0.19
-15 -25 31 1.18 0.24
-13 -25 31 2.5 0.3
-11 -25 31 4.55 0.47
-9 -25 31 5.58 0.52
-7 -25 31 4.66 0.49
-5 -25 31 2.69 0.33
-3 -25 31 0.93 0.24
-1 -25 31 0.22 0.19
1 -25 31 0.09 0.18
3 -25 31 0.66 0.21
5 -25 31 2.18 0.29
7 -25 31 5.02 0.49
9 -25 31 5.03 0.49
11 -25 31 5.4 0.5
13 -25 31 2.77 0.31
15 -25 31 1.26 0.23
17 -25 31 0.11 0.18
19 -25 31 -0.23 0.15
21 -25 31 0.19 0.16
23 -25 31 0.39 0.16
-25 -27 31 1.07 0.19
-23 -27 31 0.85 0.19
-21 -27 31 0.26 0.18
-19 -27 31 -0.09 0.16
-17 -27 31 -0.06 0.16
-15 -27 31 1.01 0.23
-13 -27 31 1.4 0.26
-11 -27 31 3.26 0.34
-9 -27 31 3.86 0.43
-7 -27 31 3.06 0.34
-5 -27 31 1.9 0.3
-3 -27 31 0.95 0.25
-1 -27 31 -0.18 0.19
1 -27 31 -0.04 0.18
3 -27 31 0.87 0.23
5 -27 31 1.68 0.27
7 -27 31 2.92 0.33
9 -27 31 2.6 0.31
11 -27 31 4.33 0.46
13 -27 31 1.45 0.25
15 -27 31 0.32 0.19
17 -27 31 0.1 0.17
19 -27 31 0.26 0.16
21 -27 31 0.27 0.16
23 -27 31 0.74 0.17
-23 -29 31 0.59 0.17
-21 -29 31 0.23 0.17
-19 -29 31 -0.1 0.15
-17 -29 31 -0.21 0.16
-15 -29 31 0.58 0.2
-13 -29 31 1.63 0.26
-11 -29 31 2.87 0.32
-9 -29 31 2.72 0.32
-7 -29 31 2.62 0.32
-5 -29 31 2.06 0.3
-3 -29 31 0.85 0.24
-1 -29 31 0.12 0.19
1 -29 31 0.1 0.19
3 -29 31 0.43 0.21
5 -29 31 1.95 0.28
7 -29 31 2.64 0.31
9 -29 31 2.84 0.31
11 -29 31 2.67 0.31
13 -29 31 1.37 0.23
15 -29 31 0.68 0.2
17 -29 31 0.15 0.16
19 -29 31 -0.12 0.15
21 -29 31 0.13 0.14
-19 -31 31 -0.11 0.14
-17 -31 31 -0.14 0.15
-15 -31 31 0.18 0.17
-13 -31 31 0.32 0.18
-11 -31 31 1.14 0.23
-9 -31 31 1 0.23
-7 -31 31 1.23 0.24
-5 -31 31 0.65 0.22
-3 -31 31 0.01 0.19
-1 -31 31 -0.06 0.18
1 -31 31 0.04 0.19
3 -31 31 0.13 0.19
5 -31 31 0.87 0.22
7 -31 31 1.12 0.23
9 -31 31 0.74 0.21
11 -31 31 1.09 0.21
13 -31 31 0.15 0.17
15 -31 31 0.16 0.16
17 -31 31 -0.03 0.14
19 -31 31 -0.16 0.13
-17 -33 31 0.02 0.14
-15 -33 31 0.19 0.16
-13 -33 31 0.19 0.17
-11 -33 31 0.44 0.19
-9 -33 31 0.85 0.21
-7 -33 31 0.91 0.21
-5 -33 31 0.46 0.2
-3 -33 31 0.31 0.19
-1 -33 31 0.02 0.18
1 -33 31 -0.06 0.17
3 -33 31 0.19 0.18
5 -33 31 0.36 0.18
7 -33 31 0.65 0.2
9 -33 31 0.57 0.19
11 -33 31 0.75 0.19
13 -33 31 0.29 0.17
15 -33 31 0.08 0.15
-11 -35 31 0.12 0.15
-9 -35 31 -0.24 0.14
-7 -35 31 0.01 0.16
-5 -35 31 0.02 0.16
-3 -35 31 -0.31 0.15
-1 -35 31 0.06 0.17
1 -35 31 0.06 0.16
3 -35 31 -0.06 0.16
5 -35 31 0 0.16
7 -35 31 0.09 0.16
9 -35 31 0.17 0.16
11 -35 31 0.04 0.14
-3 -37 31 0.06 0.15
-1 -37 31 -0.07 0.14
1 -37 31 -0.07 0.13
3 -37 31 0.05 0.16
-10 0 32 0.29 0.34
-8 0 32 6.11 0.74
-6 0 32 0.3 0.35
-4 0 32 26.39 1.59
-2 0 32 -0.16 0.36
0 0 32 36.29 1.98
2 0 32 -0.24 0.32
4 0 32 25.68 1.6
6 0 32 0.04 0.34
8 0 32 5.09 0.71
10 0 32 0.11 0.3
-10 -2 32 3.74 0.58
-10 2 32 3.33 0.55
-8 -2 32 -0.16 0.3
-8 2 32 0.59 0.33
-6 -2 32 26.57 1.59
-6 2 32 26.62 1.54
-4 -2 32 0.57 0.39
-4 2 32 0.46 0.33
-2 -2 32 59.44 2.85
-2 2 32 55.72 2.8
0 -2 32 0.05 0.38
0 2 32 0.8 0.39
2 -2 32 59.34 2.86
2 2 32 54.78 2.79
4 -2 32 -0.18 0.33
4 2 32 0.08 0.37
6 -2 32 27.28 1.67
6 2 32 28.52 1.66
8 -2 32 -0.04 0.3
8 2 32 -0.24 0.3
10 -2 32 3.49 0.62
10 2 32 2.81 0.55
-10 -4 32 -0.59 0.28
-10 4 32 -0.02 0.33
-8 -4 32 4.27 0.64
-8 4 32 3.87 0.56
-6 -4 32 0.28 0.32
-6 4 32 0.25 0.31
-4 -4 32 15.33 1.12
-4 4 32 14.84 1.09
-2 -4 32 0.11 0.39
-2 4 32 0.08 0.35
0 -4 32 27.03 1.64
0 4 32 27.25 1.6
2 -4 32 0.18 0.33
2 4 32 -0.34 0.35
4 -4 32 17.23 1.24
4 4 32 16.95 1.19
6 -4 32 0.36 0.34
6 4 32 0.26 0.37
8 -4 32 3.62 0.6
8 4 32 3.25 0.59
10 -4 32 0.39 0.35
10 4 32 -0.03 0.31
-10 -6 32 2.06 0.46
-8 -6 32 -0.16 0.32
-8 6 32 0.03 0.33
-6 -6 32 12.38 0.98
-6 6 32 11.58 0.95
-4 -6 32 -0.28 0.29
-4 6 32 0.35 0.32
-2 -6 32 25.87 1.59
-2 6 32 28.86 1.6
0 -6 32 0.03 0.3
0 6 32 0.2 0.31
2 -6 32 26.66 1.62
2 6 32 26.38 1.56
4 -6 32 0.15 0.34
4 6 32 -0.2 0.3
6 -6 32 12.79 1.04
6 6 32 11.52 0.96
8 -6 32 -0.07 0.32
8 6 32 -0.02 0.32
10 6 32 1.37 0.43
-32 -8 32 0.18 0.14
-30 -8 32 0.15 0.15
-28 -8 32 0.13 0.16
-26 -8 32 -0.11 0.15
-24 -8 32 0.09 0.16
-8 -8 32 2.09 0.5
-6 -8 32 0.05 0.33
-6 8 32 -0.2 0.3
-4 -8 32 4.62 0.63
-4 8 32 4.07 0.59
-2 -8 32 -0.12 0.28
-2 8 32 0.04 0.28
0 -8 32 4.37 0.67
0 8 32 6.08 0.71
2 -8 32 0.55 0.35
2 8 32 -0.09 0.32
4 -8 32 4.4 0.66
4 8 32 4.37 0.64
6 -8 32 0.28 0.36
6 8 32 -0.01 0.3
8 8 32 1.9 0.5
-32 -10 32 0.26 0.14
-30 -10 32 -0.02 0.14
-28 -10 32 -0.06 0.16
-26 -10 32 0.05 0.17
-24 -10 32 0.15 0.17
-22 -10 32 0.06 0.17
-20 -10 32 -0.05 0.16
-18 -10 32 0.66 0.19
-6 -10 32 1.5 0.49
-4 -10 32 -0.32 0.31
4 10 -32 -0.2 0.16
-4 10 32 -0.21 0.29
-2 -10 32 3.96 0.64
-2 10 32 3.34 0.55
2 10 -32 4.3 0.43
0 -10 32 0.38 0.33
0 10 32 -0.11 0.28
0 10 -32 -0.04 0.17
2 -10 32 3.26 0.59
-2 10 -32 3.4 0.39
2 10 32 3.84 0.6
4 10 32 -0.38 0.26
-4 10 -32 -0.08 0.18
6 10 32 1.53 0.42
-6 10 -32 1.64 0.3
-8 10 -32 -0.04 0.19
-32 -12 32 0.03 0.13
-30 -12 32 0.13 0.15
-28 -12 32 0.04 0.15
-26 -12 32 0.02 0.17
-24 -12 32 0.45 0.19
-22 -12 32 -0.03 0.17
-20 -12 32 0.92 0.21
-18 -12 32 -0.07 0.16
-16 -12 32 2.17 0.27
-14 -12 32 -0.1 0.15
-12 -12 32 2.13 0.26
8 12 -32 -0.05 0.19
6 12 -32 -0.24 0.18
4 12 -32 1.14 0.26
2 12 -32 0.05 0.19
0 12 -32 1.54 0.31
-2 12 -32 -0.09 0.19
-4 12 -32 1.02 0.28
-6 12 -32 -0.13 0.18
-8 12 -32 -0.02 0.19
-10 12 -32 0.09 0.2
-12 12 -32 2.08 0.34
-32 -14 32 -0.08 0.12
-30 -14 32 -0.12 0.14
-28 -14 32 0.09 0.16
-26 -14 32 0.33 0.18
-24 -14 32 -0.16 0.17
-22 -14 32 1.42 0.24
-20 -14 32 -0.23 0.16
-18 -14 32 3.37 0.33
-16 -14 32 -0.05 0.16
-14 -14 32 6.38 0.48
-12 -14 32 -0.23 0.14
-10 -14 32 1.69 0.24
10 14 -32 2.43 0.35
-8 -14 32 0.15 0.14
8 14 -32 -0.04 0.2
-6 -14 32 0.4 0.17
6 14 -32 0.5 0.23
4 14 -32 -0.1 0.2
2 14 -32 1.66 0.31
0 14 -32 0.11 0.2
-2 14 -32 2.14 0.36
-4 14 -32 0.06 0.19
-6 14 -32 0.32 0.24
-8 14 -32 -0.04 0.19
-10 14 -32 2.58 0.38
-12 14 -32 0.06 0.21
-14 14 -32 6.78 0.6
-30 -16 32 -0.07 0.14
-28 -16 32 0.16 0.16
-26 -16 32 -0.22 0.15
-24 -16 32 1.56 0.24
-22 -16 32 -0.11 0.18
-20 -16 32 2.62 0.3
-18 -16 32 -0.05 0.17
-16 -16 32 4.25 0.44
-14 -16 32 0.05 0.17
-12 -16 32 1.97 0.27
12 16 -32 2.34 0.36
-10 -16 32 -0.25 0.14
10 16 -32 0.13 0.22
-8 -16 32 0.02 0.15
8 16 -32 -0.1 0.21
-6 -16 32 0.02 0.15
6 16 -32 -0.12 0.19
-4 -16 32 4.2 0.4
4 16 -32 4.43 0.49
-2 -16 32 0.03 0.15
2 16 -32 0.23 0.23
0 -16 32 7.63 0.54
0 16 -32 7.54 0.64
-2 16 -32 0.38 0.23
-4 16 -32 5 0.53
-6 16 -32 0.01 0.2
-8 16 -32 0.28 0.23
-10 16 -32 0.06 0.21
-12 16 -32 2.27 0.37
-30 -18 32 -0.01 0.14
-28 -18 32 -0.22 0.14
-26 -18 32 0.11 0.17
-24 -18 32 0.1 0.17
-22 -18 32 1.11 0.24
-20 -18 32 -0.12 0.17
-18 -18 32 2.94 0.33
-16 -18 32 -0.1 0.17
-14 -18 32 3.9 0.41
-12 -18 32 -0.06 0.16
-10 -18 32 0.76 0.2
10 18 -32 0.98 0.29
-8 -18 32 0.04 0.16
8 18 -32 -0.38 0.18
-6 -18 32 1.19 0.23
6 18 -32 1.05 0.29
-4 -18 32 0.04 0.15
4 18 -32 -0.22 0.2
-2 -18 32 3.87 0.41
2 18 -32 3.34 0.45
0 -18 32 0.35 0.17
0 18 -32 0.13 0.24
2 -18 32 3.89 0.41
-2 18 -32 3.02 0.42
4 -18 32 0.05 0.16
-4 18 -32 0.22 0.23
6 -18 32 1.12 0.22
-6 18 -32 1.3 0.31
8 -18 32 0.1 0.16
-8 18 -32 -0.06 0.19
-10 18 -32 0.97 0.27
-28 -20 32 0.03 0.15
-26 -20 32 0.13 0.15
-24 -20 32 1.09 0.21
-22 -20 32 0 0.17
-20 -20 32 1.98 0.27
-18 -20 32 -0.09 0.17
-16 -20 32 2.37 0.29
-14 -20 32 0.01 0.17
-12 -20 32 0.71 0.21
-10 -20 32 -0.07 0.17
-8 -20 32 0.2 0.17
-6 -20 32 0.02 0.16
6 20 -32 -0.26 0.2
-4 -20 32 2.44 0.29
4 20 -32 3.07 0.43
-2 -20 32 0 0.16
2 20 -32 0.21 0.25
0 -20 32 2.9 0.32
0 20 -32 2.62 0.42
2 -20 32 0.27 0.17
-2 20 -32 -0.13 0.22
4 -20 32 2.65 0.3
-4 20 -32 2.86 0.42
6 -20 32 0.13 0.17
-6 20 -32 0.15 0.23
8 -20 32 0.08 0.17
10 -20 32 -0.03 0.17
12 -20 32 1.03 0.23
14 -20 32 0.1 0.18
-28 -22 32 0.1 0.14
-26 -22 32 0.2 0.16
-24 -22 32 0.16 0.17
-22 -22 32 0.74 0.2
-20 -22 32 -0.04 0.16
-18 -22 32 1.6 0.26
-16 -22 32 0.11 0.18
-14 -22 32 1.71 0.27
-12 -22 32 -0.13 0.17
-10 -22 32 0.24 0.18
-8 -22 32 -0.07 0.17
-6 -22 32 0.86 0.22
-4 -22 32 0.12 0.18
-2 -22 32 1.29 0.24
0 -22 32 -0.02 0.18
2 -22 32 1.68 0.25
4 -22 32 0.23 0.18
6 -22 32 0.73 0.21
8 -22 32 0.26 0.18
10 -22 32 0.2 0.18
12 -22 32 -0.16 0.17
14 -22 32 1.94 0.27
16 -22 32 0.24 0.18
18 -22 32 1.58 0.23
-26 -24 32 0.14 0.14
-24 -24 32 0.52 0.17
-22 -24 32 0.14 0.16
-20 -24 32 1.19 0.23
-18 -24 32 -0.1 0.17
-16 -24 32 1.16 0.23
-14 -24 32 0.01 0.17
-12 -24 32 0.52 0.2
-10 -24 32 -0.16 0.17
-8 -24 32 -0.06 0.18
-6 -24 32 0 0.17
-4 -24 32 0.9 0.22
-2 -24 32 0.16 0.18
0 -24 32 0.7 0.22
2 -24 32 0.13 0.19
4 -24 32 0.92 0.22
6 -24 32 0.03 0.18
8 -24 32 0.13 0.19
10 -24 32 0.08 0.19
12 -24 32 0.42 0.21
14 -24 32 0.12 0.19
16 -24 32 1.5 0.24
18 -24 32 -0.04 0.16
20 -24 32 0.52 0.18
-24 -26 32 -0.2 0.14
-22 -26 32 0.12 0.16
-20 -26 32 -0.19 0.15
-18 -26 32 0.48 0.18
-16 -26 32 0 0.17
-14 -26 32 0.36 0.19
-12 -26 32 0.13 0.18
-10 -26 32 0.12 0.19
-8 -26 32 -0.02 0.18
-6 -26 32 0.36 0.2
-4 -26 32 0.14 0.19
-2 -26 32 0.35 0.2
0 -26 32 0.02 0.18
2 -26 32 0.24 0.18
4 -26 32 -0.23 0.18
6 -26 32 0.45 0.19
8 -26 32 -0.1 0.17
10 -26 32 -0.05 0.19
12 -26 32 -0.33 0.18
14 -26 32 0.46 0.2
16 -26 32 -0.17 0.15
18 -26 32 0.2 0.16
20 -26 32 -0.02 0.14
22 -26 32 -0.13 0.13
-22 -28 32 -0.14 0.14
-20 -28 32 -0.21 0.14
-18 -28 32 0.03 0.16
-16 -28 32 -0.27 0.15
-14 -28 32 -0.08 0.17
-12 -28 32 -0.08 0.17
-10 -28 32 0.3 0.19
-8 -28 32 0.32 0.2
-6 -28 32 0.24 0.19
-4 -28 32 0.32 0.2
-2 -28 32 0.07 0.19
0 -28 32 -0.24 0.17
2 -28 32 -0.06 0.18
4 -28 32 0.1 0.18
6 -28 32 -0.04 0.17
8 -28 32 0.14 0.18
10 -28 32 0.11 0.19
12 -28 32 -0.08 0.17
14 -28 32 -0.02 0.17
16 -28 32 0.06 0.15
18 -28 32 -0.05 0.14
20 -28 32 0.08 0.14
-20 -30 32 -0.04 0.14
-18 -30 32 -0.15 0.14
-16 -30 32 -0.08 0.15
-14 -30 32 -0.2 0.15
-12 -30 32 -0.07 0.17
-10 -30 32 -0.08 0.17
-8 -30 32 0.18 0.19
-6 -30 32 0.08 0.18
-4 -30 32 -0.06 0.18
-2 -30 32 0.07 0.19
0 -30 32 -0.04 0.17
2 -30 32 0.19 0.19
4 -30 32 -0.13 0.17
6 -30 32 -0.04 0.17
8 -30 32 -0.2 0.16
10 -30 32 0.11 0.17
12 -30 32 -0.12 0.16
14 -30 32 0.01 0.15
16 -30 32 -0.08 0.14
18 -30 32 0.09 0.14
-16 -32 32 0.45 0.17
-14 -32 32 -0.05 0.14
-12 -32 32 -0.06 0.16
-10 -32 32 0.11 0.17
-8 -32 32 -0.09 0.16
-6 -32 32 0.13 0.17
-4 -32 32 0.3 0.18
-2 -32 32 -0.09 0.17
0 -32 32 1.29 0.23
2 -32 32 -0.09 0.17
4 -32 32 0.66 0.19
6 -32 32 -0.3 0.15
8 -32 32 0.14 0.17
10 -32 32 -0.04 0.16
12 -32 32 0.05 0.15
14 -32 32 -0.1 0.14
-12 -34 32 -0.09 0.14
-10 -34 32 0.11 0.15
-8 -34 32 -0.12 0.15
-6 -34 32 0.68 0.19
-4 -34 32 0.28 0.17
-2 -34 32 1.84 0.24
0 -34 32 0.11 0.16
2 -34 32 1.97 0.25
4 -34 32 0.08 0.16
6 -34 32 0.55 0.18
8 -34 32 -0.18 0.15
10 -34 32 0.01 0.14
-4 -36 32 0.77 0.18
-2 -36 32 0.04 0.15
0 -36 32 1.22 0.2
2 -36 32 0.34 0.16
-7 -1 33 -0.2 0.29
-7 1 33 0.27 0.29
-5 -1 33 -0.07 0.31
-5 1 33 -0.31 0.28
-3 -1 33 0.36 0.32
-3 1 33 -0.66 0.28
-1 -1 33 -0.02 0.29
-1 1 33 -0.15 0.27
1 -1 33 -0.18 0.34
1 1 33 -0.28 0.31
3 -1 33 0.13 0.33
3 1 33 0.27 0.37
5 -1 33 0.1 0.3
5 1 33 -0.73 0.28
7 -1 33 -0.36 0.3
7 1 33 0.02 0.31
-7 -3 33 1.96 0.51
-5 -3 33 1.36 0.42
-5 3 33 0.56 0.35
-3 -3 33 1.07 0.42
-3 3 33 1.13 0.44
-1 -3 33 -0.18 0.29
-1 3 33 0 0.29
1 -3 33 0.28 0.33
1 3 33 0.15 0.34
3 -3 33 1.15 0.41
3 3 33 0.89 0.37
5 -3 33 2.06 0.52
5 3 33 1.26 0.44
7 -3 33 1.75 0.54
7 3 33 2.52 0.55
-5 -5 33 1 0.46
-5 5 33 1.35 0.48
-3 -5 33 1.75 0.51
-3 5 33 1 0.39
-1 -5 33 0.25 0.31
-1 5 33 0 0.31
1 -5 33 0.02 0.29
1 5 33 -0.15 0.34
3 -5 33 1.35 0.43
3 5 33 1.44 0.43
5 -5 33 1.39 0.5
5 5 33 1.11 0.43
-3 -7 33 2.74 0.59
-1 -7 33 0.12 0.34
-1 7 33 -0.27 0.3
1 -7 33 0.1 0.39
1 7 33 -0.24 0.3
3 7 33 1.78 0.53
-29 -9 33 1.97 0.23
-27 -9 33 2.02 0.25
-31 -11 33 0.8 0.17
-29 -11 33 1.73 0.22
-27 -11 33 2.25 0.25
-25 -11 33 3.77 0.38
-23 -11 33 2.2 0.27
-21 -11 33 1.27 0.23
-19 -11 33 -0.03 0.16
1 11 -33 0.19 0.19
-1 11 -33 0.13 0.19
-3 11 -33 1.63 0.3
-5 11 -33 1.85 0.32
-31 -13 33 0.36 0.14
-29 -13 33 0.74 0.17
-27 -13 33 1.18 0.2
-25 -13 33 2.01 0.25
-23 -13 33 1.39 0.23
-21 -13 33 0.98 0.22
-19 -13 33 -0.06 0.17
-17 -13 33 0.08 0.17
-15 -13 33 0.47 0.18
-13 -13 33 0.65 0.19
7 13 -33 1.17 0.3
5 13 -33 1.65 0.3
3 13 -33 1.18 0.28
1 13 -33 -0.05 0.2
-1 13 -33 0.04 0.2
-3 13 -33 0.7 0.24
-5 13 -33 1.17 0.29
-7 13 -33 1.4 0.3
-9 13 -33 1.17 0.29
-29 -15 33 0.79 0.17
-27 -15 33 0.57 0.18
-25 -15 33 1.15 0.22
-23 -15 33 0.98 0.22
-21 -15 33 0.36 0.19
-19 -15 33 0 0.18
-17 -15 33 0.08 0.18
-15 -15 33 0.21 0.18
-13 -15 33 0.36 0.18
-11 -15 33 1.23 0.22
-9 -15 33 1.31 0.23
9 15 -33 1.6 0.3
-7 -15 33 1.1 0.21
7 15 -33 1.59 0.32
5 15 -33 1 0.27
3 15 -33 0.61 0.26
1 15 -33 -0.15 0.19
-1 15 -33 0.31 0.22
-3 15 -33 0.47 0.25
-5 15 -33 0.6 0.25
-7 15 -33 1.5 0.32
-9 15 -33 1.71 0.33
-11 15 -33 1.98 0.36
-29 -17 33 -0.07 0.14
-27 -17 33 -0.06 0.15
-25 -17 33 0.3 0.17
-23 -17 33 0.16 0.18
-21 -17 33 0.35 0.19
-19 -17 33 -0.17 0.17
-17 -17 33 -0.14 0.17
-15 -17 33 -0.04 0.17
-13 -17 33 -0.22 0.17
-11 -17 33 0.01 0.16
-9 -17 33 -0.01 0.17
9 17 -33 0.16 0.23
-7 -17 33 0.1 0.16
7 17 -33 0.14 0.23
-5 -17 33 0.49 0.18
5 17 -33 0.33 0.24
-3 -17 33 -0.07 0.15
3 17 -33 0.43 0.24
-1 -17 33 -0.17 0.15
1 17 -33 0.04 0.22
1 -17 33 0.12 0.18
-1 17 -33 0 0.21
-3 17 -33 0.19 0.23
-5 17 -33 0.42 0.24
-7 17 -33 0.16 0.23
-9 17 -33 0.18 0.22
-29 -19 33 -0.18 0.13
-27 -19 33 -0.01 0.15
-25 -19 33 -0.11 0.14
-23 -19 33 -0.09 0.16
-21 -19 33 -0.01 0.18
-19 -19 33 -0.01 0.18
-17 -19 33 -0.2 0.17
-15 -19 33 -0.12 0.16
-13 -19 33 -0.03 0.17
-11 -19 33 -0.25 0.16
-9 -19 33 0.01 0.16
-7 -19 33 -0.05 0.16
-5 -19 33 -0.04 0.16
-3 -19 33 0.18 0.17
3 19 -33 0.25 0.24
-1 -19 33 0.12 0.16
1 19 -33 -0.05 0.22
1 -19 33 -0.03 0.16
-1 19 -33 -0.32 0.2
3 -19 33 0.24 0.17
-3 19 -33 0.19 0.22
5 -19 33 -0.21 0.15
7 -19 33 -0.08 0.16
-27 -21 33 0.12 0.14
-25 -21 33 0.04 0.15
-23 -21 33 0.07 0.16
-21 -21 33 -0.19 0.16
-19 -21 33 0.01 0.17
-17 -21 33 0.26 0.18
-15 -21 33 0.27 0.19
-13 -21 33 0.92 0.23
-11 -21 33 1.07 0.23
-9 -21 33 1.03 0.22
-7 -21 33 0.75 0.21
-5 -21 33 0.3 0.18
-3 -21 33 -0.11 0.16
-1 -21 33 -0.01 0.16
1 -21 33 0.3 0.19
3 -21 33 0.11 0.17
5 -21 33 0.26 0.18
7 -21 33 0.82 0.21
9 -21 33 0.98 0.22
11 -21 33 1.43 0.25
13 -21 33 1.08 0.24
-25 -23 33 0.2 0.15
-23 -23 33 0.03 0.15
-21 -23 33 0.1 0.17
-19 -23 33 -0.05 0.17
-17 -23 33 0.04 0.17
-15 -23 33 1.07 0.23
-13 -23 33 1.34 0.24
-11 -23 33 1.95 0.27
-9 -23 33 1.71 0.26
-7 -23 33 1.82 0.27
-5 -23 33 1.11 0.23
-3 -23 33 0.16 0.19
-1 -23 33 0.1 0.18
1 -23 33 0.19 0.18
3 -23 33 0.11 0.17
5 -23 33 1.08 0.23
7 -23 33 1.75 0.26
9 -23 33 2.27 0.28
11 -23 33 2.44 0.29
13 -23 33 1.41 0.24
15 -23 33 1.33 0.23
17 -23 33 0.09 0.17
-23 -25 33 0.21 0.15
-21 -25 33 0.04 0.14
-19 -25 33 -0.21 0.14
-17 -25 33 0.1 0.17
-15 -25 33 0.84 0.21
-13 -25 33 1.67 0.26
-11 -25 33 3.14 0.33
-9 -25 33 2.92 0.32
-7 -25 33 2.55 0.3
-5 -25 33 1.45 0.26
-3 -25 33 0.4 0.21
-1 -25 33 0.24 0.19
1 -25 33 0.1 0.18
3 -25 33 0.39 0.2
5 -25 33 1.66 0.26
7 -25 33 2.46 0.3
9 -25 33 3.08 0.32
11 -25 33 4.21 0.44
13 -25 33 2.07 0.27
15 -25 33 1.21 0.22
17 -25 33 0.22 0.16
19 -25 33 -0.2 0.14
-21 -27 33 -0.09 0.14
-19 -27 33 -0.16 0.15
-17 -27 33 -0.09 0.15
-15 -27 33 0.4 0.18
-13 -27 33 0.8 0.21
-11 -27 33 1.74 0.25
-9 -27 33 2.29 0.29
-7 -27 33 1.75 0.27
-5 -27 33 1.33 0.25
-3 -27 33 0.21 0.19
-1 -27 33 -0.1 0.17
1 -27 33 0 0.18
3 -27 33 0.26 0.19
5 -27 33 1 0.23
7 -27 33 1.96 0.27
9 -27 33 2.43 0.29
11 -27 33 2.05 0.26
13 -27 33 1.01 0.21
15 -27 33 0.49 0.18
17 -27 33 -0.11 0.14
19 -27 33 -0.13 0.13
-19 -29 33 0.01 0.14
-17 -29 33 -0.15 0.14
-15 -29 33 0.67 0.18
-13 -29 33 0.8 0.2
-11 -29 33 1.72 0.25
-9 -29 33 1.66 0.26
-7 -29 33 1.76 0.26
-5 -29 33 1.23 0.24
-3 -29 33 0.21 0.19
-1 -29 33 -0.03 0.17
1 -29 33 0 0.17
3 -29 33 0.47 0.2
5 -29 33 1.29 0.23
7 -29 33 1.83 0.25
9 -29 33 2.03 0.26
11 -29 33 1.97 0.25
13 -29 33 0.71 0.19
15 -29 33 0.56 0.17
17 -29 33 0.04 0.14
-15 -31 33 0.2 0.15
-13 -31 33 0.35 0.17
-11 -31 33 0.96 0.2
-9 -31 33 0.79 0.19
-7 -31 33 0.94 0.21
-5 -31 33 0.42 0.19
-3 -31 33 0.2 0.17
-1 -31 33 -0.13 0.16
1 -31 33 -0.16 0.16
3 -31 33 0.3 0.18
5 -31 33 0.23 0.18
7 -31 33 1.07 0.21
9 -31 33 0.68 0.19
11 -31 33 0.73 0.18
13 -31 33 0.4 0.16
15 -31 33 -0.05 0.14
-11 -33 33 0.5 0.16
-9 -33 33 0.51 0.17
-7 -33 33 0.73 0.19
-5 -33 33 0.25 0.17
-3 -33 33 0.12 0.16
-1 -33 33 -0.01 0.16
1 -33 33 -0.01 0.16
3 -33 33 -0.05 0.15
5 -33 33 0.29 0.17
7 -33 33 0.75 0.19
9 -33 33 0.43 0.16
11 -33 33 0.37 0.16
-3 -35 33 0.04 0.15
-1 -35 33 -0.03 0.13
1 -35 33 0.12 0.15
3 -35 33 -0.06 0.15
-30 -12 34 0.07 0.13
-28 -12 34 0.09 0.14
-26 -12 34 1.47 0.22
-24 -12 34 0.12 0.16
-22 -12 34 4.08 0.39
-20 -12 34 0.14 0.16
-28 -14 34 0.2 0.15
-26 -14 34 0.24 0.15
-24 -14 34 3.41 0.37
-22 -14 34 0.34 0.17
-20 -14 34 7.34 0.53
-18 -14 34 0.14 0.17
-16 -14 34 7.85 0.56
-14 -14 34 0.34 0.18
-12 -14 34 2.06 0.28
4 14 -34 2.04 0.34
2 14 -34 0.11 0.21
0 14 -34 4.29 0.47
-2 14 -34 0.12 0.22
-4 14 -34 3.1 0.41
-6 14 -34 -0.21 0.21
-8 14 -34 0.09 0.23
-28 -16 34 0.16 0.14
-26 -16 34 1.41 0.21
-24 -16 34 0.21 0.16
-22 -16 34 7.75 0.54
-20 -16 34 0.46 0.19
-18 -16 34 11.03 0.68
-16 -16 34 0.3 0.18
-14 -16 34 7.69 0.55
-12 -16 34 0.14 0.16
-10 -16 34 0.31 0.18
-8 -16 34 0.04 0.15
-6 -16 34 2.31 0.29
6 16 -34 3.16 0.42
4 16 -34 -0.11 0.21
2 16 -34 5.22 0.55
0 16 -34 0.28 0.24
-2 16 -34 5.8 0.58
-4 16 -34 -0.16 0.22
-6 16 -34 3.01 0.41
-28 -18 34 0.13 0.13
-26 -18 34 0.12 0.15
-24 -18 34 2.39 0.27
-22 -18 34 0.23 0.17
-20 -18 34 8.28 0.58
-18 -18 34 0.14 0.18
-16 -18 34 10.31 0.65
-14 -18 34 0.05 0.17
-12 -18 34 3.1 0.32
-10 -18 34 -0.17 0.16
-8 -18 34 0.14 0.17
-6 -18 34 -0.17 0.15
-4 -18 34 4.48 0.4
-2 -18 34 0.27 0.18
0 -18 34 6.57 0.51
-26 -20 34 0.77 0.17
-24 -20 34 0.04 0.15
-22 -20 34 4.53 0.41
-20 -20 34 0.37 0.18
-18 -20 34 8.95 0.59
-16 -20 34 0.48 0.19
-14 -20 34 6.78 0.53
-12 -20 34 -0.02 0.17
-10 -20 34 0.6 0.2
-8 -20 34 -0.06 0.16
-6 -20 34 0.88 0.21
-4 -20 34 0.26 0.18
-2 -20 34 5.86 0.5
0 -20 34 0.22 0.18
2 -20 34 5.45 0.47
4 -20 34 -0.13 0.16
6 -20 34 1.21 0.23
-24 -22 34 1.34 0.2
-22 -22 34 0.13 0.16
-20 -22 34 4.42 0.41
-18 -22 34 0.01 0.17
-16 -22 34 7.14 0.53
-14 -22 34 0.26 0.18
-12 -22 34 3.45 0.34
-10 -22 34 -0.25 0.16
-8 -22 34 -0.05 0.17
-6 -22 34 -0.01 0.17
-4 -22 34 1.76 0.26
-2 -22 34 0.21 0.18
0 -22 34 2.16 0.28
2 -22 34 -0.06 0.16
4 -22 34 1.57 0.25
6 -22 34 -0.08 0.17
8 -22 34 0.02 0.17
10 -22 34 -0.18 0.17
-24 -24 34 0.03 0.14
-22 -24 34 1.08 0.19
-20 -24 34 0.13 0.15
-18 -24 34 2.34 0.27
-16 -24 34 0.19 0.17
-14 -24 34 2.3 0.28
-12 -24 34 -0.01 0.18
-10 -24 34 0.79 0.21
-8 -24 34 -0.12 0.17
-6 -24 34 -0.09 0.18
-4 -24 34 -0.08 0.18
-2 -24 34 0.7 0.21
0 -24 34 0.02 0.17
2 -24 34 0.97 0.21
4 -24 34 -0.25 0.16
6 -24 34 -0.05 0.17
8 -24 34 -0.01 0.17
10 -24 34 1.06 0.22
12 -24 34 0.28 0.17
14 -24 34 3.54 0.38
-22 -26 34 -0.02 0.14
-20 -26 34 0.83 0.18
-18 -26 34 -0.09 0.15
-16 -26 34 1.32 0.22
-14 -26 34 -0.05 0.16
-12 -26 34 1.29 0.22
-10 -26 34 -0.07 0.17
-8 -26 34 0.25 0.18
-6 -26 34 -0.03 0.18
-4 -26 34 0.05 0.18
-2 -26 34 0.02 0.18
0 -26 34 -0.02 0.17
2 -26 34 -0.15 0.16
4 -26 34 -0.24 0.16
6 -26 34 0.22 0.17
8 -26 34 0.52 0.19
10 -26 34 0.27 0.18
12 -26 34 1.58 0.23
14 -26 34 0.06 0.15
16 -26 34 1.3 0.2
-18 -28 34 -0.06 0.13
-16 -28 34 0.01 0.14
-14 -28 34 -0.15 0.15
-12 -28 34 0.01 0.16
-10 -28 34 -0.06 0.17
-8 -28 34 -0.15 0.16
-6 -28 34 -0.12 0.16
-4 -28 34 0.06 0.17
-2 -28 34 -0.15 0.15
0 -28 34 -0.12 0.16
2 -28 34 0.05 0.17
4 -28 34 -0.27 0.16
6 -28 34 0.09 0.16
8 -28 34 0.01 0.16
10 -28 34 0.01 0.16
12 -28 34 -0.07 0.15
14 -28 34 0.15 0.15
16 -28 34 -0.15 0.12
-16 -30 34 0.06 0.14
-14 -30 34 -0.06 0.14
-12 -30 34 0.17 0.16
-10 -30 34 -0.11 0.15
-8 -30 34 0.63 0.19
-6 -30 34 -0.06 0.15
-4 -30 34 1.02 0.21
-2 -30 34 -0.19 0.15
0 -30 34 0.99 0.21
2 -30 34 0.14 0.17
4 -30 34 0.92 0.2
6 -30 34 0.14 0.16
8 -30 34 0.38 0.17
10 -30 34 0.2 0.15
12 -30 34 0.11 0.15
14 -30 34 -0.05 0.13
-12 -32 34 0.03 0.14
-10 -32 34 0.06 0.14
-8 -32 34 0.13 0.14
-6 -32 34 0.56 0.17
-4 -32 34 0.22 0.16
-2 -32 34 1.8 0.24
0 -32 34 0.18 0.16
2 -32 34 1.68 0.22
4 -32 34 0.18 0.16
6 -32 34 0.34 0.17
8 -32 34 -0.03 0.14
10 -32 34 0.04 0.14
-2 -34 34 0.16 0.15
0 -34 34 4.64 0.38
-27 -13 35 0.31 0.15
-25 -13 35 0.35 0.16
-23 -13 35 0.02 0.15
-27 -15 35 0.19 0.14
-25 -15 35 0.29 0.16
-23 -15 35 0.04 0.16
-21 -15 35 -0.24 0.15
-19 -15 35 -0.06 0.16
-17 -15 35 0.18 0.17
-15 -15 35 0.8 0.2
-13 -15 35 0.27 0.18
-27 -17 35 0.01 0.13
-25 -17 35 0.08 0.14
-23 -17 35 -0.03 0.15
-21 -17 35 0.29 0.17
-19 -17 35 -0.06 0.17
-17 -17 35 0.43 0.19
-15 -17 35 0.07 0.16
-13 -17 35 0.15 0.17
-11 -17 35 0.21 0.17
-9 -17 35 0 0.16
-7 -17 35 0.23 0.17
-25 -19 35 0.02 0.13
-23 -19 35 -0.15 0.14
-21 -19 35 0.01 0.15
-19 -19 35 -0.17 0.16
-17 -19 35 0.03 0.17
-15 -19 35 -0.02 0.17
-13 -19 35 -0.18 0.16
-11 -19 35 -0.22 0.16
-9 -19 35 -0.24 0.15
-7 -19 35 -0.07 0.16
-5 -19 35 0.01 0.16
-3 -19 35 -0.08 0.16
-1 -19 35 0.2 0.16
-23 -21 35 0.11 0.15
-21 -21 35 0.22 0.16
-19 -21 35 -0.06 0.15
-17 -21 35 -0.13 0.16
-15 -21 35 -0.31 0.15
-13 -21 35 -0.22 0.16
-11 -21 35 -0.33 0.15
-9 -21 35 0.11 0.17
-7 -21 35 -0.01 0.16
-5 -21 35 0.05 0.17
-3 -21 35 0.24 0.17
-1 -21 35 0.13 0.17
1 -21 35 -0.09 0.16
3 -21 35 -0.03 0.17
5 -21 35 -0.08 0.17
-23 -23 35 0.18 0.14
-21 -23 35 -0.02 0.14
-19 -23 35 -0.01 0.15
-17 -23 35 -0.13 0.15
-15 -23 35 -0.17 0.15
-13 -23 35 -0.03 0.17
-11 -23 35 -0.07 0.16
-9 -23 35 0.23 0.18
-7 -23 35 0.14 0.17
-5 -23 35 0.13 0.18
-3 -23 35 -0.01 0.16
-1 -23 35 -0.23 0.15
1 -23 35 0.09 0.16
3 -23 35 -0.01 0.16
5 -23 35 0.17 0.18
7 -23 35 0.25 0.17
9 -23 35 0.33 0.18
-21 -25 35 0.02 0.13
-19 -25 35 -0.15 0.13
-17 -25 35 -0.03 0.14
-15 -25 35 0.16 0.16
-13 -25 35 -0.06 0.15
-11 -25 35 0.35 0.18
-9 -25 35 0.39 0.18
-7 -25 35 0.32 0.19
-5 -25 35 0.38 0.19
-3 -25 35 0.1 0.18
-1 -25 35 -0.23 0.16
1 -25 35 -0.22 0.16
3 -25 35 0.12 0.17
5 -25 35 0.06 0.16
7 -25 35 0.39 0.18
9 -25 35 0.34 0.18
11 -25 35 0.5 0.17
13 -25 35 0.13 0.16
-17 -27 35 0.08 0.14
-15 -27 35 -0.03 0.14
-13 -27 35 -0.02 0.15
-11 -27 35 0.17 0.16
-9 -27 35 0.24 0.17
-7 -27 35 0.5 0.19
-5 -27 35 0.14 0.17
-3 -27 35 0.07 0.16
-1 -27 35 -0.06 0.16
1 -27 35 -0.23 0.15
3 -27 35 0.15 0.17
5 -27 35 0.17 0.17
7 -27 35 0.43 0.18
9 -27 35 0.21 0.16
11 -27 35 0.28 0.16
13 -27 35 0.15 0.15
15 -27 35 0.15 0.14
-15 -29 35 -0.03 0.14
-13 -29 35 -0.04 0.15
-11 -29 35 0.23 0.16
-9 -29 35 0.39 0.17
-7 -29 35 0.47 0.17
-5 -29 35 0.26 0.17
-3 -29 35 0.15 0.16
-1 -29 35 -0.16 0.15
1 -29 35 0.19 0.17
3 -29 35 0.02 0.16
5 -29 35 0.24 0.16
7 -29 35 0.43 0.17
9 -29 35 0.13 0.15
11 -29 35 0.22 0.15
13 -29 35 0.19 0.13
-11 -31 35 0.13 0.14
-9 -31 35 0.05 0.14
-7 -31 35 -0.03 0.14
-5 -31 35 -0.21 0.13
-3 -31 35 -0.21 0.14
-1 -31 35 -0.03 0.15
1 -31 35 0.05 0.15
3 -31 35 0.04 0.15
5 -31 35 0 0.15
7 -31 35 0 0.14
9 -31 35 0.02 0.13
-24 -16 36 1.93 0.22
-22 -16 36 0.11 0.14
-20 -16 36 5.26 0.43
-18 -16 36 0.02 0.15
-16 -16 36 6.3 0.47
-24 -18 36 0.04 0.13
-22 -18 36 3.12 0.34
-20 -18 36 0.16 0.15
-18 -18 36 5.17 0.44
-16 -18 36 0.27 0.16
-14 -18 36 4.39 0.4
-12 -18 36 -0.16 0.14
-10 -18 36 0.17 0.16
-22 -20 36 0.2 0.14
-20 -20 36 4.16 0.37
-18 -20 36 0.24 0.16
-16 -20 36 5.53 0.44
-14 -20 36 -0.16 0.15
-12 -20 36 1.46 0.23
-10 -20 36 -0.12 0.15
-8 -20 36 0.24 0.17
-6 -20 36 -0.1 0.15
-4 -20 36 5.95 0.48
-2 -20 36 0.07 0.18
-22 -22 36 1.46 0.2
-20 -22 36 0.06 0.14
-18 -22 36 2.25 0.25
-16 -22 36 0.11 0.15
-14 -22 36 2.3 0.26
-12 -22 36 -0.15 0.15
-10 -22 36 -0.03 0.16
-8 -22 36 -0.12 0.15
-6 -22 36 1.31 0.23
-4 -22 36 0.12 0.17
-2 -22 36 3.75 0.39
0 -22 36 0.03 0.16
2 -22 36 3.83 0.4
-20 -24 36 1.42 0.2
-18 -24 36 0.02 0.14
-16 -24 36 1.73 0.22
-14 -24 36 -0.01 0.14
-12 -24 36 0.9 0.2
-10 -24 36 0.12 0.16
-8 -24 36 -0.07 0.16
-6 -24 36 -0.04 0.16
-4 -24 36 1.29 0.22
-2 -24 36 0.17 0.16
0 -24 36 1.18 0.22
2 -24 36 -0.11 0.15
4 -24 36 0.82 0.19
6 -24 36 -0.07 0.15
-16 -26 36 -0.06 0.13
-14 -26 36 0.3 0.16
-12 -26 36 0.03 0.15
-10 -26 36 -0.07 0.16
-8 -26 36 0.01 0.15
-6 -26 36 0.1 0.16
-4 -26 36 -0.09 0.15
-2 -26 36 0.28 0.17
0 -26 36 -0.07 0.15
2 -26 36 0.23 0.16
4 -26 36 -0.04 0.15
6 -26 36 0 0.15
8 -26 36 -0.07 0.14
10 -26 36 -0.01 0.14
-14 -28 36 -0.07 0.13
-12 -28 36 0.08 0.15
-10 -28 36 0.24 0.15
-8 -28 36 -0.03 0.15
-6 -28 36 -0.24 0.14
-4 -28 36 -0.1 0.14
-2 -28 36 -0.02 0.15
0 -28 36 -0.06 0.14
2 -28 36 0 0.14
4 -28 36 -0.18 0.13
6 -28 36 -0.25 0.13
8 -28 36 0 0.14
10 -28 36 0.14 0.14
-10 -30 36 -0.09 0.13
-8 -30 36 -0.09 0.13
-6 -30 36 0.21 0.15
-4 -30 36 -0.06 0.14
-2 -30 36 0.5 0.17
0 -30 36 0.27 0.15
2 -30 36 0.46 0.15
4 -30 36 0.11 0.15
6 -30 36 -0.03 0.14
-21 -19 37 0.05 0.13
-19 -19 37 -0.03 0.13
-17 -19 37 -0.22 0.13
-15 -19 37 -0.09 0.14
-13 -19 37 -0.18 0.14
-11 -19 37 -0.07 0.14
-19 -21 37 -0.16 0.13
-17 -21 37 -0.06 0.14
-15 -21 37 -0.07 0.14
-13 -21 37 0.13 0.15
-11 -21 37 0.08 0.15
-9 -21 37 0.13 0.16
-7 -21 37 0.27 0.17
-5 -21 37 0.1 0.15
-19 -23 37 -0.14 0.12
-17 -23 37 0.07 0.13
-15 -23 37 0.12 0.14
-13 -23 37 0.02 0.14
-11 -23 37 0.02 0.15
-9 -23 37 0.01 0.15
-7 -23 37 0.19 0.16
-5 -23 37 0.24 0.16
-3 -23 37 0.01 0.15
-1 -23 37 0.19 0.15
1 -23 37 -0.06 0.15
-15 -25 37 0.14 0.13
-13 -25 37 0.15 0.15
-11 -25 37 0.17 0.16
-9 -25 37 0.13 0.16
-7 -25 37 0.37 0.16
-5 -25 37 0.19 0.16
-3 -25 37 -0.02 0.14
-1 -25 37 0.06 0.15
1 -25 37 -0.01 0.14
3 -25 37 -0.1 0.14
5 -25 37 0.12 0.15
-13 -27 37 0.04 0.13
-11 -27 37 0.17 0.14
-9 -27 37 -0.02 0.13
-7 -27 37 0.17 0.15
-5 -27 37 0.14 0.15
-3 -27 37 -0.03 0.14
-1 -27 37 -0.1 0.14
1 -27 37 0.1 0.14
3 -27 37 -0.02 0.14
5 -27 37 -0.17 0.14
7 -27 37 0.08 0.15
-7 -29 37 0.29 0.14
-5 -29 37 -0.08 0.13
-3 -29 37 -0.09 0.13
-1 -29 37 -0.07 0.13
1 -29 37 -0.06 0.13
3 -29 37 -0.26 0.12
5 -29 37 -0.18 0.12
-18 -20 38 5.95 0.45
-16 -22 38 4.63 0.36
-14 -22 38 0.12 0.14
-12 -22 38 1.76 0.22
-10 -22 38 0.1 0.15
-8 -22 38 0.04 0.15
-14 -24 38 1.33 0.19
-12 -24 38 -0.07 0.13
-10 -24 38 0.27 0.15
-8 -24 38 0.14 0.14
-6 -24 38 0.25 0.15
-4 -24 38 0.02 0.14
-2 -24 38 1.17 0.21
-10 -26 38 0.11 0.13
-8 -26 38 0 0.13
-6 -26 38 -0.09 0.13
-4 -26 38 -0.01 0.13
-2 -26 38 -0.12 0.13
0 -26 38 0.04 0.14
-4 -28 38 -0.05 0.13
-2 -28 38 -0.28 0.12
0 -28 38 -0.15 0.12
2 -28 38 0.02 0.15
