#------------------------------------------------------------------------------
#$Date: 2017-06-16 01:41:29 +0300 (Fri, 16 Jun 2017) $
#$Revision: 197856 $
#$URL: file:///home/coder/svn-repositories/cod/cif/4/12/62/4126221.cif $
#------------------------------------------------------------------------------
#
# This file is available in the Crystallography Open Database (COD),
# http://www.crystallography.net/
#
# All data on this site have been placed in the public domain by the
# contributors.
#
data_4126221
loop_
_publ_author_name
'Oburn, Shalisa M.'
'Swenson, Dale C.'
'Mariappan, S. V. Santhana'
'MacGillivray, Leonard R.'
_publ_section_title
;
 Supramolecular Construction of an Aldehyde-Cyclobutane via the Solid
 State: Combining Reversible Imine Formation and Metal-Organic
 Self-Assembly.
;
_journal_name_full               'Journal of the American Chemical Society'
_journal_paper_doi               10.1021/jacs.7b04420
_journal_year                    2017
_chemical_formula_moiety         'C22 H28 O4'
_chemical_formula_sum            'C22 H28 O4'
_chemical_formula_weight         356.44
_chemical_name_systematic
(2,4-bis(dimethoxymethyl)cyclobutane-1,3-diyl)dibenzene
_space_group_crystal_system      monoclinic
_space_group_IT_number           14
_space_group_name_Hall           '-P 2ybc'
_space_group_name_H-M_alt        'P 1 21/c 1'
_symmetry_space_group_name_Hall  '-P 2ybc'
_symmetry_space_group_name_H-M   'P 1 21/c 1'
_atom_sites_solution_hydrogens   geom
_atom_sites_solution_primary     dual
_audit_creation_date             2017-02-17
_audit_creation_method
;
Olex2 1.2
(compiled 2017.01.04 svn.r3372 for OlexSys, GUI svn.r5292)
;
_cell_angle_alpha                90
_cell_angle_beta                 104.214(5)
_cell_angle_gamma                90
_cell_formula_units_Z            2
_cell_length_a                   9.9381(10)
_cell_length_b                   6.3564(6)
_cell_length_c                   15.9611(16)
_cell_measurement_reflns_used    26140
_cell_measurement_temperature    190
_cell_measurement_theta_max      27.94
_cell_measurement_theta_min      2.63
_cell_volume                     977.40(17)
_computing_molecular_graphics    'Olex2 (Dolomanov et al., 2009)'
_computing_publication_material  'Olex2 (Dolomanov et al., 2009)'
_computing_structure_refinement  'ShelXL (Sheldrick, 2015)'
_computing_structure_solution    'ShelXT (Sheldrick, 2015)'
_diffrn_ambient_temperature      190.15
_diffrn_measured_fraction_theta_full 0.999
_diffrn_measured_fraction_theta_max 0.995
_diffrn_measurement_device_type  'Bruker Nonius APEX II Kappa'
_diffrn_measurement_method       'CCD phi and omega scans'
_diffrn_radiation_type           MoK\a
_diffrn_radiation_wavelength     0.71073
_diffrn_reflns_av_R_equivalents  0.0302
_diffrn_reflns_av_unetI/netI     0.0144
_diffrn_reflns_Laue_measured_fraction_full 0.999
_diffrn_reflns_Laue_measured_fraction_max 0.995
_diffrn_reflns_limit_h_max       13
_diffrn_reflns_limit_h_min       -13
_diffrn_reflns_limit_k_max       8
_diffrn_reflns_limit_k_min       -8
_diffrn_reflns_limit_l_max       21
_diffrn_reflns_limit_l_min       -21
_diffrn_reflns_number            24777
_diffrn_reflns_point_group_measured_fraction_full 0.999
_diffrn_reflns_point_group_measured_fraction_max 0.995
_diffrn_reflns_theta_full        25.242
_diffrn_reflns_theta_max         27.960
_diffrn_reflns_theta_min         2.944
_exptl_absorpt_coefficient_mu    0.082
_exptl_absorpt_correction_T_max  0.7456
_exptl_absorpt_correction_T_min  0.7257
_exptl_absorpt_correction_type   multi-scan
_exptl_absorpt_process_details
'SADABS-2014/5 (Bruker,2014/5) was used for absorption correction. wR2(int) was 0.0459 before and 0.0424 after correction. The Ratio of minimum to maximum transmission is 0.9733. The \l/2 correction factor is 0.00150.'
_exptl_crystal_colour            colourless
_exptl_crystal_colour_primary    colourless
_exptl_crystal_density_diffrn    1.211
_exptl_crystal_description       prism
_exptl_crystal_F_000             384
_exptl_crystal_recrystallization_method methanol
_exptl_crystal_size_max          0.4
_exptl_crystal_size_mid          0.39
_exptl_crystal_size_min          0.36
_exptl_transmission_factor_max   0.7456
_exptl_transmission_factor_min   0.7257
_refine_diff_density_max         0.271
_refine_diff_density_min         -0.185
_refine_diff_density_rms         0.036
_refine_ls_extinction_coef       0.057(5)
_refine_ls_extinction_expression Fc^*^=kFc[1+0.001xFc^2^\l^3^/sin(2\q)]^-1/4^
_refine_ls_extinction_method     'SHELXL-2016/6 (Sheldrick 2016)'
_refine_ls_goodness_of_fit_ref   1.086
_refine_ls_hydrogen_treatment    constr
_refine_ls_matrix_type           full
_refine_ls_number_parameters     121
_refine_ls_number_reflns         2347
_refine_ls_number_restraints     0
_refine_ls_restrained_S_all      1.086
_refine_ls_R_factor_all          0.0455
_refine_ls_R_factor_gt           0.0384
_refine_ls_shift/su_max          0.000
_refine_ls_shift/su_mean         0.000
_refine_ls_structure_factor_coef Fsqd
_refine_ls_weighting_details
'w=1/[\s^2^(Fo^2^)+(0.0480P)^2^+0.2570P] where P=(Fo^2^+2Fc^2^)/3'
_refine_ls_weighting_scheme      calc
_refine_ls_wR_factor_gt          0.0994
_refine_ls_wR_factor_ref         0.1056
_reflns_Friedel_coverage         0.000
_reflns_number_gt                2013
_reflns_number_total             2347
_reflns_threshold_expression     'I > 2\s(I)'
_cod_data_source_file            ja7b04420_si_002.cif
_cod_data_source_block           alpha-trux-ald
_cod_database_code               4126221
_shelx_shelxl_version_number     2016/6
_shelx_space_group_comment
;
The symmetry employed for this shelxl refinement is uniquely defined
by the following loop, which should always be used as a source of
symmetry information in preference to the above space-group names.
They are only intended as comments.
;
_shelx_estimated_absorpt_t_max   0.971
_shelx_estimated_absorpt_t_min   0.968
_olex2_refinement_description
;
1. Fixed Uiso
 At 1.2 times of:
  All C(H) groups
 At 1.5 times of:
  All C(H,H,H) groups
2.a Ternary CH refined with riding coordinates:
 C8(H8), C7(H7), C9(H9)
2.b Aromatic/amide H refined with riding coordinates:
 C1(H1), C5(H5), C2(H2), C4(H4), C3(H3)
2.c Idealised Me refined as rotating group:
 C13(H13A,H13B,H13C), C11(H11A,H11B,H11C)
;
_shelx_res_file
;
TITL mcg16165_a.res in P2(1)/c
    mcg16165.res
    created by SHELXL-2016/6 at 13:53:33 on 17-Feb-2017
REM Old TITL mcg16165 in P21/c #14
REM SHELXT solution in P2(1)/c
REM R1 0.149, Rweak 0.003, Alpha 0.015, Orientation as input
REM Formula found by SHELXT: C11 O2
CELL 0.71073 9.9381 6.3564 15.9611 90 104.214 90
ZERR 2 0.001 0.0006 0.0016 0 0.005 0
LATT 1
SYMM -X,0.5+Y,0.5-Z
SFAC C H O
UNIT 44 56 8

L.S. 10
PLAN  -20
SIZE 0.36 0.39 0.4
TEMP -83
BOND $H
list 4
MORE -1
CONF
fmap 2
acta
OMIT 1 0 0
OMIT 0 0 2
REM <olex2.extras>
REM <HklSrc "%.\\mcg16165.hkl">
REM </olex2.extras>

WGHT    0.048000    0.257000
EXTI    0.057329
FVAR       1.13989
O10   3    0.302225    0.731649    0.609457    11.00000    0.02906    0.03144 =
         0.04261   -0.00542    0.01443    0.00172
O12   3    0.519395    0.895182    0.634931    11.00000    0.03619    0.02855 =
         0.03667   -0.00658    0.00729   -0.00574
C8    1    0.474655    0.556144    0.559455    11.00000    0.02460    0.02179 =
         0.02319    0.00202    0.00744   -0.00038
AFIX  13
H8    2    0.488295    0.462637    0.611247    11.00000   -1.20000
AFIX   0
C7    1    0.607452    0.561547    0.524298    11.00000    0.02502    0.01938 =
         0.02582    0.00161    0.00828   -0.00225
AFIX  13
H7    2    0.627311    0.709422    0.509624    11.00000   -1.20000
AFIX   0
C6    1    0.738034    0.460866    0.577533    11.00000    0.02386    0.02645 =
         0.02531   -0.00330    0.00602   -0.00186
C9    1    0.420319    0.769446    0.577619    11.00000    0.02780    0.02450 =
         0.02884   -0.00175    0.00776   -0.00048
AFIX  13
H9    2    0.389927    0.846551    0.521534    11.00000   -1.20000
AFIX   0
C1    1    0.867813    0.537329    0.573805    11.00000    0.02881    0.03710 =
         0.03534   -0.00409    0.00987   -0.00727
AFIX  43
H1    2    0.873527    0.657503    0.539461    11.00000   -1.20000
AFIX   0
C5    1    0.733950    0.284984    0.628830    11.00000    0.02742    0.03442 =
         0.03731    0.00732    0.00653    0.00059
AFIX  43
H5    2    0.646782    0.229582    0.632464    11.00000   -1.20000
AFIX   0
C2    1    0.989073    0.440488    0.619565    11.00000    0.02366    0.05522 =
         0.04530   -0.01365    0.00748   -0.00516
AFIX  43
H2    2    1.076634    0.493831    0.615683    11.00000   -1.20000
AFIX   0
C4    1    0.855298    0.189308    0.674756    11.00000    0.04006    0.04125 =
         0.03968    0.00801    0.00308    0.00834
AFIX  43
H4    2    0.850445    0.069211    0.709320    11.00000   -1.20000
AFIX   0
C3    1    0.982919    0.267693    0.670474    11.00000    0.02997    0.05024 =
         0.03977   -0.01060   -0.00162    0.01073
AFIX  43
H3    2    1.065869    0.202922    0.702405    11.00000   -1.20000
AFIX   0
C13   1    0.579765    0.801374    0.716818    11.00000    0.04457    0.04380 =
         0.03333   -0.01069    0.00274   -0.00137
AFIX 137
H13A  2    0.639800    0.684395    0.709070    11.00000   -1.50000
H13B  2    0.506033    0.748675    0.742272    11.00000   -1.50000
H13C  2    0.634898    0.906667    0.755317    11.00000   -1.50000
AFIX   0
C11   1    0.213504    0.910014    0.602179    11.00000    0.03882    0.03990 =
         0.07824   -0.01277    0.01979    0.00907
AFIX 137
H11A  2    0.173375    0.940918    0.540983    11.00000   -1.50000
H11B  2    0.267198    1.031577    0.629775    11.00000   -1.50000
H11C  2    0.138855    0.880352    0.630768    11.00000   -1.50000
AFIX   0
HKLF 4




REM  mcg16165_a.res in P2(1)/c
REM R1 =  0.0384 for    2013 Fo > 4sig(Fo)  and  0.0455 for all    2347 data
REM    121 parameters refined using      0 restraints

END

WGHT      0.0481      0.2579

REM Highest difference peak  0.271,  deepest hole -0.185,  1-sigma level  0.036
Q1    1   0.4425  0.6615  0.5685  11.00000  0.05    0.27
Q2    1   0.5397  0.5682  0.5472  11.00000  0.05    0.27
Q3    1   0.4206  0.5107  0.5189  11.00000  0.05    0.24
Q4    1   0.6755  0.5123  0.5541  11.00000  0.05    0.23
Q5    1   0.8018  0.5028  0.5812  11.00000  0.05    0.20
Q6    1   0.9172  0.2214  0.6576  11.00000  0.05    0.18
Q7    1   0.7371  0.3719  0.5986  11.00000  0.05    0.18
Q8    1   0.2546  1.0436  0.5992  11.00000  0.05    0.18
Q9    1   0.9829  0.3169  0.6242  11.00000  0.05    0.17
Q10   1   0.7956  0.2224  0.6399  11.00000  0.05    0.16
Q11   1   0.3581  0.7562  0.5949  11.00000  0.05    0.16
Q12   1   0.9282  0.4578  0.5869  11.00000  0.05    0.15
Q13   1   0.4137  0.8740  0.5373  11.00000  0.05    0.15
Q14   1   0.1193  0.8936  0.5796  11.00000  0.05    0.13
Q15   1   0.4780  0.8266  0.6138  11.00000  0.05    0.13
Q16   1   0.4706  0.4976  0.5987  11.00000  0.05    0.12
Q17   1   0.4932  1.0380  0.6384  11.00000  0.05    0.12
Q18   1   0.6768  0.7447  0.7048  11.00000  0.05    0.12
Q19   1   0.6028  0.6752  0.7199  11.00000  0.05    0.11
Q20   1   0.1640  0.8631  0.6578  11.00000  0.05    0.11
;
_shelx_res_checksum              65344
_shelx_hkl_file
;
  -1   0   0   -1.40    0.10
  -1   0   0   -1.10    0.10
   2   0   0  920.11   23.70
   2   0   0  914.51   23.60
   2   0   0  922.41   23.80
  -2   0   0  908.01   23.20
  -2   0   0  896.51   23.20
  -2   0   0  898.01   23.40
  -2   0   0  888.31   23.60
   2   0   0  901.51   23.30
  -3   0   0  179.48    5.40
   3   0   0  190.38    6.00
   3   0   0  188.38    5.80
  -3   0   0  179.88    5.00
  -3   0   0  176.18    5.70
   3   0   0  184.08    4.90
   3   0   0  181.48    4.90
  -3   0   0  179.28    4.90
   4   0   0 1399.16   35.20
  -4   0   0 1373.76   35.90
   4   0   0 1393.46   36.80
  -4   0   0 1354.86   36.40
   4   0   0 1365.26   35.20
  -4   0   0 1373.86   35.20
   4   0   0 1414.96   36.50
   5   0   0    2.30    1.00
   5   0   0    3.80    0.90
   5   0   0    4.90    0.50
  -5   0   0    3.00    0.90
   5   0   0    1.80    0.80
   5   0   0    2.40    0.90
   5   0   0    3.10    0.40
  -5   0   0    4.40    0.90
  -5   0   0    2.90    0.40
  -5   0   0    2.30    0.40
   6   0   0   42.20    2.80
  -6   0   0   41.60    2.40
   6   0   0   44.40    3.00
  -6   0   0   43.00    1.60
  -6   0   0   42.00    2.80
   6   0   0   41.40    2.40
  -6   0   0   40.50    1.60
   6   0   0   41.50    1.50
   6   0   0   42.90    1.50
   6   0   0   40.70    2.40
   7   0   0 1140.29   32.40
  -7   0   0 1118.69   29.20
  -7   0   0 1144.39   31.80
   7   0   0 1179.08   30.90
  -7   0   0 1145.29   30.90
   7   0   0 1159.48   31.70
   7   0   0 1165.98   30.90
  -7   0   0 1111.69   29.20
   8   0   0  495.45   15.70
  -8   0   0  501.45   15.80
   8   0   0  503.65   14.90
   8   0   0  488.15   14.80
  -8   0   0  496.25   14.90
   8   0   0  499.95   16.50
   9   0   0   23.70    3.40
  -9   0   0   28.80    2.80
  -9   0   0   28.00    3.30
   9   0   0   27.70    2.80
   9   0   0   31.80    3.00
 -10   0   0   94.79    5.80
 -10   0   0   94.69    4.80
 -10   0   0  107.59    6.40
  10   0   0   87.69    6.20
 -11   0   0   23.50    3.80
  11   0   0   22.00    4.00
 -11   0   0   20.50    3.40
 -12   0   0    1.40    2.10
 -12   0   0    3.60    2.20
 -12   0   0    6.90    2.90
  12   0   0    0.20    2.30
   0  -1   0   -0.10    0.30
   0  -1   0   -0.50    0.30
   0  -1   0   -0.40    0.30
   0  -1   0   -0.50    0.20
   0  -1   0    0.00    0.40
   0  -1   0   -0.60    0.20
   0   1   0    0.20    0.30
   0   1   0   -0.50    0.30
   0   1   0    0.20    0.40
   0   1   0   -0.40    0.30
   0   1   0   -0.20    0.20
   0   1   0   -0.20    0.30
   0   1   0   -0.80    0.30
   1  -1   0 4449.65  117.99
  -1  -1   0 4301.37  117.19
   1  -1   0 4553.94  117.49
   1  -1   0 4658.33  116.29
  -1  -1   0 4570.44  116.89
  -1  -1   0 4389.66  116.89
  -1  -1   0 4032.80  115.69
  -1  -1   0 4330.07  115.49
   1  -1   0 4639.34  117.59
   1  -1   0 4826.92  116.89
   1  -1   0 4598.14  117.49
   1   1   0 4647.63  116.69
   1   1   0 4229.28  116.99
  -1   1   0 4300.17  116.89
  -1   1   0 4502.55  116.49
  -1   1   0 4612.84  117.89
  -1   1   0 4703.63  117.89
  -1   1   0 4395.96  117.39
  -1   1   0 4654.13  117.59
   1   1   0 4703.13  116.89
   1   1   0 4468.05  117.39
   1   1   0 4375.26  117.19
  -2  -1   0  124.79    4.30
   2  -1   0  128.19    4.10
   2  -1   0  123.59    4.10
  -2  -1   0  122.39    3.70
   2  -1   0  131.99    4.00
   2  -1   0  125.29    4.00
   2  -1   0  134.29    4.40
  -2  -1   0  121.89    4.10
  -2  -1   0  126.89    3.80
  -2   1   0  129.99    4.10
   2   1   0  121.69    4.10
   2   1   0  124.19    3.70
   2   1   0  125.19    4.20
   2   1   0  135.19    4.50
  -2   1   0  126.09    4.00
  -2   1   0  128.39    4.30
  -2   1   0  126.49    4.10
  -2   1   0  126.29    4.00
   3  -1   0 1627.24   41.60
   3  -1   0 1622.94   42.20
  -3  -1   0 1575.64   41.30
   3  -1   0 1612.24   41.60
   3  -1   0 1656.83   42.40
  -3  -1   0 1597.74   41.10
  -3  -1   0 1618.74   42.00
   3  -1   0 1590.04   41.60
  -3   1   0 1603.14   41.60
   3   1   0 1650.43   41.60
   3   1   0 1632.44   42.30
  -3   1   0 1555.94   41.60
  -3   1   0 1634.74   41.70
  -3   1   0 1588.54   41.60
  -3   1   0 1608.34   42.20
   3   1   0 1639.04   42.00
   4  -1   0  597.24   15.70
   4  -1   0  593.74   16.10
  -4  -1   0  578.94   15.00
  -4  -1   0  577.14   16.40
   4  -1   0  577.94   15.80
  -4  -1   0  559.34   15.80
   4  -1   0  597.24   16.60
   4  -1   0  571.04   15.70
   4  -1   0  573.94   16.70
   4  -1   0  600.04   16.00
  -4  -1   0  573.44   15.00
  -4   1   0  572.04   16.50
   4   1   0  575.64   15.00
  -4   1   0  578.24   15.70
   4   1   0  575.84   16.60
   4   1   0  603.54   16.00
  -4   1   0  545.65   15.60
  -4   1   0  573.44   15.80
   4   1   0  571.24   16.40
   4   1   0  569.84   15.00
   5  -1   0   90.59    3.30
   5  -1   0   85.39    3.50
   5  -1   0   88.09    3.60
  -5  -1   0   84.59    2.50
  -5  -1   0   87.29    2.50
   5  -1   0   81.09    3.20
  -5  -1   0   91.59    3.70
   5  -1   0   87.39    3.80
   5  -1   0   86.39    4.30
  -5  -1   0   81.19    3.90
  -5   1   0   87.19    3.50
   5   1   0   89.29    4.10
  -5   1   0   86.29    3.30
   5   1   0   85.99    3.60
  -5   1   0   86.29    4.10
   5   1   0   91.89    2.40
   5   1   0   87.79    2.40
  -5   1   0   87.69    3.30
   5   1   0   87.09    4.20
  -6  -1   0  116.39    5.40
   6  -1   0  131.59    4.50
   6  -1   0  124.19    5.80
   6  -1   0  135.89    5.00
   6  -1   0  125.49    4.90
   6  -1   0  132.69    5.10
  -6  -1   0  132.19    5.20
   6   1   0  124.19    4.90
  -6   1   0  128.39    5.70
  -6   1   0  131.69    4.50
   6   1   0  131.49    5.60
   6   1   0  133.89    5.70
   6   1   0  141.29    4.80
  -6   1   0  130.89    4.50
  -6   1   0  126.69    4.90
   7  -1   0   61.19    3.20
  -7  -1   0   53.09    3.00
   7  -1   0   37.80    2.20
  -7  -1   0   55.29    3.70
   7  -1   0   55.69    3.30
   7  -1   0   49.40    3.90
  -7  -1   0   49.99    3.30
   7   1   0   52.69    2.90
  -7   1   0   50.89    2.50
   7   1   0   54.39    3.70
   7   1   0   53.09    3.70
   7   1   0   55.09    3.10
  -7   1   0   49.20    2.50
  -7   1   0   55.39    3.60
  -7   1   0   53.29    2.90
   8  -1   0  291.67    9.50
   8  -1   0  291.97    8.60
  -8  -1   0  282.37    9.60
  -8  -1   0  283.67   10.00
   8  -1   0  281.77    9.80
  -8  -1   0  288.87   10.70
   8  -1   0  286.77   11.10
   8   1   0  279.77    9.10
  -8   1   0  283.17   10.60
  -8   1   0  274.37    8.40
   8   1   0  279.27    9.50
  -8   1   0  278.17    8.50
   8   1   0  280.07   10.60
   8   1   0  283.27   10.80
  -8   1   0  279.67    9.40
  -9  -1   0    0.20    1.60
  -9  -1   0   -0.10    1.10
   9  -1   0   -3.10    1.60
  -9  -1   0    0.70    1.20
   9  -1   0    0.90    1.20
   9  -1   0   -0.50    1.10
   9   1   0   -0.30    1.20
  -9   1   0   -2.90    1.20
   9   1   0    1.20    1.60
  -9   1   0   -1.10    0.60
  -9   1   0   -1.00    1.00
   9   1   0    0.10    1.60
 -10  -1   0   30.40    3.20
  10  -1   0   39.20    3.80
 -10  -1   0   27.40    3.30
 -10  -1   0   30.70    3.90
  10  -1   0   34.50    4.60
 -10  -1   0   36.70    4.30
  10   1   0   37.60    3.60
  10   1   0   37.10    4.50
  10   1   0   26.70    3.80
 -10   1   0   34.80    3.30
 -10   1   0   32.30    4.00
  11  -1   0    7.90    3.10
 -11  -1   0    6.60    2.60
 -11  -1   0    0.90    2.10
 -11  -1   0    3.80    2.00
 -11   1   0    7.10    2.60
  11   1   0   -0.60    1.90
 -12  -1   0   22.00    3.80
 -12  -1   0   18.60    4.00
  12  -1   0   15.00    3.70
  12   1   0   24.60    4.40
 -12   1   0   21.20    3.80
   0  -2   0  297.97    9.00
   0  -2   0  304.17    9.10
   0  -2   0  310.27    9.10
   0  -2   0  305.87    9.20
   0  -2   0  305.57    9.20
   0  -2   0  306.57    8.80
   0   2   0  316.07    9.10
   0   2   0  319.47    9.10
   0   2   0  302.27    8.80
   0   2   0  308.87    9.10
   0   2   0  308.87    9.20
   0   2   0  313.67    9.00
   0   2   0  304.67    9.20
   1  -2   0  109.19    3.80
   1  -2   0   96.99    3.70
  -1  -2   0  101.79    3.80
   1  -2   0   96.89    3.90
  -1  -2   0  103.09    3.40
   1  -2   0  100.89    3.60
  -1  -2   0  101.69    3.80
   1  -2   0  100.29    3.90
  -1  -2   0  104.49    3.80
   1  -2   0  107.79    4.00
  -1  -2   0  102.79    3.80
  -1  -2   0  103.29    3.90
  -1   2   0  102.29    3.60
   1   2   0  101.39    3.80
  -1   2   0  104.49    3.80
   1   2   0  102.19    3.80
   1   2   0  102.39    3.90
  -1   2   0   96.29    3.80
  -1   2   0  107.49    3.70
   1   2   0  101.09    3.80
  -1   2   0   97.19    3.70
  -1   2   0  102.79    3.90
  -1   2   0   98.39    3.90
   1   2   0  103.69    4.00
   1   2   0   99.19    3.40
   2  -2   0  190.38    6.10
  -2  -2   0  194.28    6.10
  -2  -2   0  187.28    6.20
  -2  -2   0  188.98    5.60
  -2  -2   0  184.48    6.00
   2  -2   0  197.28    6.40
   2  -2   0  187.48    6.30
  -2  -2   0  196.38    6.30
  -2  -2   0  187.08    6.40
   2  -2   0  195.78    6.40
   2  -2   0  191.48    6.00
   2   2   0  198.58    6.10
  -2   2   0  189.68    6.10
  -2   2   0  189.28    6.00
   2   2   0  194.18    6.10
   2   2   0  190.28    6.40
   2   2   0  193.28    6.30
  -2   2   0  193.78    6.40
   2   2   0  196.48    6.60
  -2   2   0  186.78    6.30
  -2   2   0  194.28    6.40
  -2   2   0  192.38    6.40
  -3  -2   0 1531.15   39.50
   3  -2   0 1511.65   40.30
  -3  -2   0 1521.25   39.80
   3  -2   0 1532.05   40.00
   3  -2   0 1529.25   40.30
   3  -2   0 1543.05   40.50
  -3  -2   0 1503.85   40.60
  -3  -2   0 1534.65   40.40
   3  -2   0 1545.05   40.70
   3  -2   0 1552.04   40.10
  -3  -2   0 1521.85   39.80
  -3   2   0 1515.15   40.30
  -3   2   0 1520.85   40.10
   3   2   0 1527.05   40.20
   3   2   0 1515.45   40.80
   3   2   0 1546.95   40.40
  -3   2   0 1534.05   40.60
   3   2   0 1553.14   39.80
  -3   2   0 1544.85   40.60
  -3   2   0 1514.95   40.30
   3   2   0 1517.25   39.80
  -3   2   0 1575.94   40.00
   3   2   0 1564.24   40.30
   4  -2   0  116.19    4.50
  -4  -2   0  102.09    3.70
   4  -2   0  107.29    4.40
  -4  -2   0  104.79    4.50
  -4  -2   0  111.09    4.80
  -4  -2   0  103.09    3.80
   4  -2   0  110.79    4.20
   4  -2   0  102.09    4.70
   4  -2   0  112.49    4.60
   4  -2   0  105.69    4.20
  -4   2   0  102.89    4.30
  -4   2   0  106.79    4.40
  -4   2   0  102.99    4.70
   4   2   0  110.49    4.90
  -4   2   0  116.39    4.30
   4   2   0  100.09    4.20
   4   2   0  109.89    4.50
   4   2   0  104.19    3.70
   4   2   0  107.99    4.40
  -4   2   0  106.69    4.20
   5  -2   0   -0.60    0.70
  -5  -2   0    1.00    0.90
  -5  -2   0   -0.60    0.50
   5  -2   0    0.70    0.80
   5  -2   0    1.50    0.90
  -5  -2   0    0.10    0.50
   5  -2   0    1.30    1.10
  -5  -2   0    2.50    1.10
   5  -2   0   -0.50    0.80
  -5   2   0   -0.30    0.80
  -5   2   0    0.80    1.20
   5   2   0    1.60    1.10
   5   2   0    0.10    0.50
  -5   2   0    2.50    0.90
   5   2   0    0.70    0.90
  -5   2   0    0.60    0.80
   5   2   0    0.10    0.70
   5   2   0    0.30    0.50
  -5   2   0    0.90    0.90
   5   2   0    1.40    0.90
   6  -2   0   34.60    2.50
   6  -2   0   37.50    2.50
  -6  -2   0   33.70    1.60
  -6  -2   0   32.90    1.60
  -6  -2   0   36.00    2.90
   6  -2   0   34.40    2.70
  -6  -2   0   31.70    3.00
   6  -2   0   33.10    3.40
  -6  -2   0   34.90    2.30
   6   2   0   34.20    1.60
   6   2   0   34.90    2.20
   6   2   0   36.80    3.50
   6   2   0   37.70    2.60
  -6   2   0   26.20    2.90
   6   2   0   38.10    2.90
  -6   2   0   37.80    2.60
  -6   2   0   38.10    2.50
  -6   2   0   33.20    2.40
   6   2   0   31.90    1.60
  -7  -2   0  472.25   15.40
  -7  -2   0  482.25   12.50
   7  -2   0  497.15   14.60
  -7  -2   0  463.85   14.30
   7  -2   0  501.35   14.40
   7  -2   0  494.95   15.10
   7  -2   0  464.05   16.00
  -7  -2   0  496.75   15.80
  -7  -2   0  478.95   12.50
   7   2   0  493.55   14.00
  -7   2   0  472.85   14.30
  -7   2   0  486.05   14.30
   7   2   0  473.75   15.40
  -7   2   0  504.55   14.60
   7   2   0  478.15   14.70
   7   2   0  473.05   15.90
  -7   2   0  473.05   15.70
  -8  -2   0  392.36   12.20
   8  -2   0  404.06   12.30
   8  -2   0  375.96   13.80
  -8  -2   0  372.36   13.20
  -8  -2   0  390.36   13.50
   8  -2   0  391.46   12.70
   8   2   0  353.86   13.40
   8   2   0  373.06   12.20
  -8   2   0  382.16   11.70
   8   2   0  369.66   13.20
  -8   2   0  366.06   12.00
   8   2   0  374.96   11.60
  -8   2   0  369.56   13.30
   9  -2   0    1.30    1.60
  -9  -2   0    0.30    1.20
  -9  -2   0    0.10    1.40
   9  -2   0   -2.30    1.60
   9  -2   0    0.60    1.30
  -9  -2   0    2.00    1.80
  -9  -2   0    0.10    1.70
   9   2   0   -3.10    1.20
   9   2   0    1.00    1.20
  -9   2   0    0.70    1.80
  -9   2   0    1.50    1.20
  -9   2   0   -0.70    1.00
   9   2   0    0.00    1.70
  10  -2   0    3.70    2.00
  10  -2   0    6.10    2.70
 -10  -2   0    8.30    2.10
 -10  -2   0    6.50    1.80
 -10  -2   0    8.90    2.50
 -10  -2   0    9.80    2.90
 -10   2   0    5.40    2.10
 -10   2   0    6.90    1.50
  10   2   0    3.30    1.80
 -10   2   0    4.90    1.80
  10   2   0    1.60    2.00
  10   2   0    8.00    2.60
 -11  -2   0   10.30    3.00
  11  -2   0    8.70    2.60
 -11  -2   0    9.20    2.80
  11  -2   0   10.30    3.30
 -11   2   0    6.90    2.70
  11   2   0    5.50    2.50
  11   2   0    6.00    2.50
 -12  -2   0   14.40    3.70
  12  -2   0   13.50    3.80
 -12  -2   0   13.30    3.50
  12   2   0   11.00    3.20
  12   2   0   10.00    3.20
 -12   2   0   11.00    3.40
   0  -3   0   -1.30    0.50
   0  -3   0   -3.90    0.70
   0  -3   0   -0.70    0.80
   0  -3   0   -0.20    0.60
   0  -3   0   -0.40    0.70
   0  -3   0   -2.00    0.80
   0   3   0    0.10    0.80
   0   3   0   -1.00    0.70
   0   3   0    0.60    0.90
   0   3   0   -0.90    0.60
   0   3   0   -1.70    0.90
   0   3   0   -2.60    0.80
   0   3   0    1.10    0.90
   1  -3   0  643.44   18.20
   1  -3   0  661.23   18.30
  -1  -3   0  637.64   18.50
   1  -3   0  645.24   18.70
   1  -3   0  660.13   18.60
  -1  -3   0  632.54   18.50
  -1  -3   0  631.74   18.40
  -1  -3   0  636.44   18.50
   1  -3   0  677.73   18.50
  -1  -3   0  651.63   17.80
   1  -3   0  665.93   18.70
  -1  -3   0  647.54   18.40
   1   3   0  668.33   18.60
   1   3   0  647.04   18.50
   1   3   0  639.14   18.60
  -1   3   0  633.04   18.20
  -1   3   0  668.93   18.60
  -1   3   0  669.43   18.30
  -1   3   0  676.03   18.80
  -1   3   0  648.44   18.70
   1   3   0  649.93   17.80
   1   3   0  648.44   18.50
  -1   3   0  641.84   18.40
   1   3   0  664.93   18.50
  -1   3   0  667.13   18.20
   1   3   0  666.53   18.60
   2  -3   0  552.44   16.00
  -2  -3   0  548.85   15.00
  -2  -3   0  527.65   15.70
   2  -3   0  536.25   16.10
   2  -3   0  559.54   15.80
   2  -3   0  554.34   15.50
  -2  -3   0  535.55   15.90
   2  -3   0  545.95   16.10
  -2  -3   0  534.15   15.80
  -2  -3   0  535.75   16.00
  -2   3   0  546.45   15.80
  -2   3   0  540.95   15.90
  -2   3   0  545.85   16.10
   2   3   0  559.64   15.00
  -2   3   0  562.24   15.60
  -2   3   0  543.75   16.10
   2   3   0  547.15   15.90
   2   3   0  538.75   15.70
  -2   3   0  561.44   15.40
   2   3   0  558.34   16.30
   3  -3   0  305.57   10.30
   3  -3   0  314.37    9.70
  -3  -3   0  295.47   10.30
  -3  -3   0  320.97    9.80
  -3  -3   0  322.67    9.10
  -3  -3   0  319.27   10.20
   3  -3   0  328.77   10.70
  -3  -3   0  327.77    9.90
  -3   3   0  314.67   10.30
  -3   3   0  318.27    9.40
  -3   3   0  311.77   10.40
   3   3   0  321.37    9.80
   3   3   0  310.97   10.60
  -3   3   0  315.17    9.70
  -3   3   0  312.07   10.00
  -3   3   0  303.57   10.30
   4  -3   0  148.99    6.10
  -4  -3   0  141.39    5.40
   4  -3   0  149.79    5.60
  -4  -3   0  150.58    6.30
  -4  -3   0  147.29    6.00
  -4  -3   0  159.58    5.60
  -4  -3   0  155.18    5.00
   4   3   0  134.49    6.30
  -4   3   0  155.28    5.80
  -4   3   0  143.59    6.00
  -4   3   0  143.49    6.20
  -4   3   0  154.98    6.10
  -4   3   0  145.09    5.50
   4   3   0  156.08    5.50
   5  -3   0   46.00    3.50
  -5  -3   0   39.80    3.10
   5  -3   0   38.60    2.90
  -5  -3   0   37.80    3.50
  -5  -3   0   40.80    2.40
  -5  -3   0   41.90    2.50
  -5  -3   0   43.90    2.30
   5  -3   0   44.20    3.20
  -5   3   0   41.90    3.40
  -5   3   0   39.60    2.90
   5   3   0   41.20    2.40
  -5   3   0   41.60    3.00
  -5   3   0   41.90    2.80
  -5   3   0   43.70    2.90
   5   3   0   38.70    3.20
  -6  -3   0  237.18    9.30
   6  -3   0  232.78    9.50
   6  -3   0  234.88    8.40
  -6  -3   0  244.68    9.10
   6  -3   0  237.18    9.00
  -6  -3   0  235.58    7.50
  -6  -3   0  235.78    7.60
   6  -3   0  238.08    8.60
   6   3   0  233.38    9.50
  -6   3   0  250.07    9.50
  -6   3   0  242.88    8.40
   6   3   0  233.58    7.90
  -6   3   0  235.78    8.60
  -6   3   0  244.18    8.70
   6   3   0  228.48    8.70
   7  -3   0    1.80    1.30
  -7  -3   0    0.00    0.70
  -7  -3   0    0.10    1.60
  -7  -3   0    0.70    1.00
   7  -3   0    0.20    1.40
  -7  -3   0    3.40    1.50
   7  -3   0    0.10    1.50
   7  -3   0    0.60    1.20
  -7  -3   0    0.80    0.90
  -7   3   0    0.80    1.30
  -7   3   0    1.00    1.70
  -7   3   0    0.00    1.20
   7   3   0   -0.30    1.20
   7   3   0   -0.70    1.70
   7   3   0    3.20    1.20
   8  -3   0  254.17    9.10
  -8  -3   0  251.07    8.40
   8  -3   0  231.08   10.40
  -8  -3   0  228.38    9.70
  -8  -3   0  239.68    6.90
  -8  -3   0  264.37   10.50
   8  -3   0  228.18    9.50
  -8   3   0  244.48    8.90
  -8   3   0  230.18   10.00
  -8   3   0  233.88    8.90
   8   3   0  247.08   10.60
   8   3   0  229.98    9.60
  -9  -3   0    2.70    2.10
   9  -3   0    4.30    1.80
   9  -3   0    3.60    2.40
  -9  -3   0    4.10    2.10
   9   3   0    3.30    2.20
  -9   3   0    4.20    1.70
  -9   3   0    3.30    1.90
  -9   3   0    2.80    1.60
   9   3   0    3.50    1.90
  10  -3   0    1.60    2.30
  10  -3   0    2.60    2.40
 -10  -3   0    5.00    2.50
 -10  -3   0    2.70    2.20
 -10   3   0    2.60    1.60
  10   3   0   -2.10    1.90
 -10   3   0    3.90    1.90
  10   3   0    5.30    2.30
 -10   3   0    2.20    2.50
 -11  -3   0   13.80    3.60
 -11  -3   0   24.50    4.00
  11  -3   0   12.70    3.60
 -11   3   0   16.10    2.40
  11   3   0    9.30    3.10
  11   3   0   18.70    3.80
 -11   3   0   16.00    3.80
   0  -4   0 1032.90   28.90
   0  -4   0 1033.70   28.70
   0  -4   0 1036.10   28.00
   0  -4   0  978.80   28.30
   0   4   0 1052.09   28.60
   0   4   0 1002.60   27.90
   0   4   0 1045.60   28.90
   0   4   0 1033.20   28.60
  -1  -4   0   27.00    2.70
  -1  -4   0   22.70    2.60
   1  -4   0   29.00    2.80
  -1  -4   0   28.60    2.80
  -1  -4   0   25.90    2.70
   1  -4   0   20.90    2.60
   1  -4   0   31.40    2.70
  -1  -4   0   27.30    2.00
   1   4   0   25.30    1.90
  -1   4   0   26.80    2.60
  -1   4   0   27.30    2.60
   1   4   0   22.80    2.60
  -1   4   0   17.90    2.50
  -1   4   0   24.40    2.40
   1   4   0   30.10    2.90
  -2  -4   0  142.19    5.20
   2  -4   0  147.69    5.80
  -2  -4   0  140.29    6.00
  -2  -4   0  145.39    6.10
  -2  -4   0  150.18    6.30
   2  -4   0  138.99    6.30
  -2  -4   0  145.09    6.10
   2  -4   0  140.79    6.20
  -2   4   0  147.39    6.10
  -2   4   0  145.59    6.40
  -2   4   0  145.69    5.60
   2   4   0  143.19    6.30
  -2   4   0  143.59    6.00
   2   4   0  148.49    5.20
   2   4   0  149.19    6.10
   3  -4   0  652.03   18.80
  -3  -4   0  665.63   19.20
  -3  -4   0  638.44   17.90
  -3  -4   0  650.13   19.70
  -3  -4   0  654.13   19.10
   3  -4   0  673.93   19.80
  -3  -4   0  635.24   19.30
   3   4   0  656.43   20.00
  -3   4   0  651.53   18.50
   3   4   0  673.03   19.20
  -3   4   0  648.44   19.20
  -3   4   0  641.44   19.70
  -3   4   0  631.64   19.40
  -4  -4   0    0.00    0.70
   4  -4   0   -1.80    1.20
   4  -4   0    0.10    1.00
  -4  -4   0   -1.20    1.00
  -4  -4   0    0.10    1.20
  -4  -4   0   -0.10    1.30
  -4  -4   0   -0.70    1.00
  -4   4   0   -0.30    0.80
   4   4   0    0.00    1.10
  -4   4   0   -0.70    0.80
  -4   4   0   -0.60    1.20
   4   4   0   -2.30    0.90
  -4   4   0   -0.60    0.80
  -5  -4   0    5.40    1.60
   5  -4   0   10.20    2.10
   5  -4   0    8.70    1.70
  -5  -4   0    7.90    1.20
   5  -4   0   10.30    2.30
  -5  -4   0    7.50    1.60
  -5  -4   0   10.20    2.10
  -5  -4   0   10.70    2.30
  -5   4   0    9.40    1.90
  -5   4   0    5.50    1.80
  -5   4   0    7.40    1.50
  -5   4   0   10.40    2.10
   5   4   0    7.60    2.30
   5   4   0    6.80    1.60
   6  -4   0   81.39    4.90
   6  -4   0   72.19    4.40
   6  -4   0   64.59    5.00
  -6  -4   0   65.89    3.80
  -6  -4   0   88.29    5.50
  -6  -4   0   75.69    4.80
  -6   4   0   84.79    4.90
  -6   4   0   82.99    4.60
   6   4   0   78.59    4.30
   6   4   0   62.79    5.00
  -6   4   0   74.29    5.20
   6   4   0   65.49    3.80
   7  -4   0  432.56   14.60
  -7  -4   0  434.86   12.80
   7  -4   0  426.16   15.60
  -7  -4   0  438.96   15.50
  -7  -4   0  433.26   13.10
   7  -4   0  423.66   14.30
  -7  -4   0  454.25   15.10
  -7   4   0  433.66   14.30
  -7   4   0  436.26   14.60
   7   4   0  435.16   15.90
   7   4   0  430.86   13.50
  -7   4   0  418.86   15.50
  -8  -4   0    0.40    0.90
  -8  -4   0    1.90    1.80
   8  -4   0   -2.60    1.30
   8  -4   0   -1.80    1.80
  -8  -4   0   -3.20    1.70
  -8   4   0    0.20    1.50
  -8   4   0    0.20    2.00
  -8   4   0    0.70    1.50
   8   4   0    0.30    2.00
  -9  -4   0   -0.30    1.80
   9  -4   0   -1.30    2.00
  -9  -4   0    1.00    2.30
   9  -4   0    1.40    1.80
  -9   4   0    4.30    2.00
  -9   4   0    2.80    2.40
   9   4   0   -0.90    1.60
  -9   4   0    2.30    1.80
 -10  -4   0    1.60    2.20
 -10  -4   0    0.20    2.50
  10  -4   0    0.00    1.90
  10  -4   0    5.30    2.80
  10   4   0    3.90    2.60
 -10   4   0    1.40    1.80
 -10   4   0   -0.30    2.30
  11  -4   0   -0.30    2.50
 -11  -4   0    1.30    2.50
 -11   4   0    0.50    1.80
  11   4   0    0.70    2.70
   0  -5   0   -1.90    1.10
   0  -5   0   -0.90    1.20
   0  -5   0   -1.30    1.00
   0   5   0   -0.40    1.10
   0   5   0   -0.20    0.90
   0   5   0   -1.10    1.30
   0   5   0   -1.30    1.10
   1  -5   0  185.28    8.10
  -1  -5   0  179.08    7.60
  -1  -5   0  176.38    7.70
  -1  -5   0  181.88    7.60
   1  -5   0  176.68    7.30
   1  -5   0  180.18    7.70
  -1   5   0  189.58    7.30
  -1   5   0  167.88    7.40
   1   5   0  181.58    6.70
  -1   5   0  184.98    7.30
  -1   5   0  174.08    7.90
   1   5   0  174.18    7.60
   1   5   0  163.68    7.50
  -2  -5   0  104.79    5.60
   2  -5   0  114.29    5.40
   2  -5   0  117.29    6.20
  -2  -5   0  113.59    4.70
  -2  -5   0  114.49    5.80
   2  -5   0  121.29    6.10
  -2  -5   0   95.59    5.40
  -2   5   0  107.49    5.10
  -2   5   0  103.59    5.40
  -2   5   0  104.19    6.00
   2   5   0  102.29    5.80
   2   5   0  110.09    5.70
   2   5   0  107.09    4.60
  -2   5   0  108.19    5.50
  -3  -5   0  110.19    5.90
   3  -5   0  108.49    6.20
  -3  -5   0  119.69    6.00
   3  -5   0  109.69    5.30
  -3  -5   0  110.49    4.60
  -3  -5   0  112.29    6.00
   3   5   0  112.49    6.30
   3   5   0  113.49    5.70
  -3   5   0  107.59    5.00
  -3   5   0  113.39    5.80
  -3   5   0  113.89    5.90
  -3   5   0  115.09    6.30
  -4  -5   0   38.00    4.20
   4  -5   0   43.30    4.40
  -4  -5   0   39.00    4.00
   4  -5   0   41.60    3.30
  -4  -5   0   40.50    3.90
  -4   5   0   44.10    4.40
  -4   5   0   41.40    4.20
   4   5   0   38.40    4.40
  -4   5   0   44.70    3.00
   4   5   0   48.90    3.80
  -4   5   0   46.80    4.10
  -5  -5   0  502.95   17.10
  -5  -5   0  490.85   16.50
   5  -5   0  507.55   16.80
  -5  -5   0  509.65   16.00
   5  -5   0  495.35   15.60
   5   5   0  488.05   17.30
  -5   5   0  490.45   16.10
  -5   5   0  471.25   16.60
  -5   5   0  475.35   16.60
   5   5   0  507.45   15.80
  -5   5   0  486.05   14.80
   6  -5   0   68.89    4.20
   6  -5   0   65.89    4.90
   6  -5   0   62.79    4.90
  -6  -5   0   59.29    4.80
  -6  -5   0   60.79    4.10
  -6  -5   0   62.19    5.70
  -6   5   0   79.29    5.60
  -6   5   0   54.99    4.30
   6   5   0   64.19    5.40
  -6   5   0   62.29    4.90
   7  -5   0   94.89    6.40
  -7  -5   0   95.19    5.00
  -7  -5   0   91.69    5.90
  -7  -5   0   93.19    6.50
   7  -5   0   89.39    6.60
   7  -5   0   77.39    5.20
   7   5   0   86.59    6.60
  -7   5   0   96.29    6.00
  -7   5   0   99.59    6.70
  -7   5   0   83.99    5.30
  -8  -5   0   -2.90    1.60
   8  -5   0   -0.70    2.10
   8  -5   0    1.80    2.00
  -8  -5   0   -0.30    1.30
  -8  -5   0   -1.10    2.00
  -8   5   0    2.70    1.90
  -8   5   0   -1.30    2.10
  -8   5   0   -0.40    1.80
   8   5   0    0.20    1.80
   9  -5   0    8.60    3.30
  -9  -5   0    4.40    2.40
   9  -5   0    6.00    2.40
  -9  -5   0    5.50    2.90
  -9   5   0    6.80    3.20
   9   5   0    8.20    3.30
  -9   5   0    0.20    1.90
  -9   5   0    7.80    2.50
 -10  -5   0    0.80    2.30
  10  -5   0    3.60    2.20
  10  -5   0    0.80    2.50
  10   5   0    4.40    2.90
 -10   5   0   -2.50    2.00
   0  -6   0  550.44   18.70
   0  -6   0  551.44   18.40
   0  -6   0  558.34   18.10
   0   6   0  535.85   17.90
   0   6   0  585.34   18.90
   0   6   0  557.24   17.30
  -1  -6   0  110.89    6.50
   1  -6   0  110.09    6.70
  -1  -6   0  103.09    6.10
   1  -6   0  112.49    6.10
  -1  -6   0  113.89    6.40
   1  -6   0  108.49    6.40
   1   6   0  114.89    6.40
  -1   6   0  103.79    5.80
  -1   6   0  111.59    6.30
  -1   6   0  127.59    6.00
  -1   6   0  107.69    6.60
   1   6   0  114.39    6.50
   1   6   0  116.59    5.50
   2  -6   0   32.10    4.00
  -2  -6   0   29.90    3.80
   2  -6   0   37.00    3.90
   2  -6   0   35.20    4.30
  -2  -6   0   33.50    4.00
  -2  -6   0   38.50    4.20
  -2   6   0   38.20    4.10
   2   6   0   30.60    2.90
  -2   6   0   34.30    3.70
  -2   6   0   38.80    4.40
   2   6   0   32.20    4.00
  -2   6   0   30.70    3.40
   2   6   0   29.90    3.80
  -3  -6   0    7.50    2.20
   3  -6   0    7.70    2.50
  -3  -6   0   13.40    3.00
   3  -6   0   19.00    2.90
  -3  -6   0   13.80    3.00
   3   6   0   12.00    2.70
  -3   6   0   12.80    3.00
  -3   6   0    9.50    2.60
  -3   6   0   13.50    2.60
   3   6   0    9.70    2.90
  -4  -6   0  110.59    6.90
   4  -6   0  101.39    5.80
  -4  -6   0  125.19    6.80
   4  -6   0  120.79    7.10
  -4  -6   0  103.99    6.50
  -4   6   0  120.79    6.70
   4   6   0  107.89    6.30
   4   6   0  106.99    7.00
  -4   6   0  106.79    5.40
  -4   6   0  125.89    7.00
  -4   6   0  112.79    6.90
   5  -6   0    7.90    2.20
  -5  -6   0    3.70    2.60
   5  -6   0    5.40    2.50
  -5  -6   0   12.60    3.00
  -5  -6   0    7.90    2.40
  -5   6   0    4.40    2.30
   5   6   0    6.70    2.50
  -5   6   0   11.30    3.00
  -5   6   0    9.50    2.50
   6  -6   0    6.30    2.60
  -6  -6   0    2.70    2.70
  -6  -6   0    6.20    2.20
   6  -6   0    6.70    2.00
   6  -6   0    8.60    2.80
  -6  -6   0    2.10    2.20
  -6   6   0    8.10    3.00
   6   6   0    1.90    2.80
  -6   6   0    9.70    2.60
  -6   6   0    8.60    3.00
  -7  -6   0    1.90    1.80
  -7  -6   0    1.80    1.90
   7  -6   0   -1.60    1.60
  -7  -6   0   -0.30    2.10
   7  -6   0    2.30    2.30
  -7   6   0   -1.50    1.80
   7   6   0    3.00    2.90
  -7   6   0    1.60    2.40
  -7   6   0   -0.80    2.20
  -8  -6   0    2.60    1.80
   8  -6   0    3.00    2.20
  -8  -6   0    0.00    2.60
  -8  -6   0    1.30    2.60
   8  -6   0    5.70    2.60
  -8   6   0    0.00    2.00
  -8   6   0    1.70    2.40
   8   6   0    1.40    2.20
  -8   6   0    1.90    2.70
   0  -7   0   -2.30    1.90
   0  -7   0    1.70    2.10
   0  -7   0   -1.00    1.30
   0   7   0    0.40    1.80
   0   7   0    0.40    1.60
   0   7   0    0.80    2.10
   1  -7   0   17.90    3.70
  -1  -7   0   20.30    3.50
   1  -7   0   21.00    3.50
  -1  -7   0   16.90    3.60
   1  -7   0   19.70    3.40
  -1  -7   0   19.60    3.40
  -1   7   0   12.30    2.70
   1   7   0   18.30    3.70
   1   7   0   21.00    2.90
   1   7   0   22.10    3.70
  -1   7   0   15.00    2.90
  -1   7   0   18.70    3.60
  -2  -7   0   13.20    3.20
   2  -7   0    6.10    2.80
   2  -7   0    7.70    2.50
  -2  -7   0   10.90    3.00
  -2  -7   0   11.30    3.10
   2  -7   0    7.60    2.50
  -2   7   0    7.80    2.70
  -2   7   0   16.50    3.40
   2   7   0   10.70    3.00
  -2   7   0    6.80    2.50
   2   7   0   10.40    3.10
  -2   7   0   13.10    3.30
  -3  -7   0   26.00    4.00
   3  -7   0   19.60    3.90
  -3  -7   0   28.60    4.30
  -3  -7   0   18.10    3.50
   3  -7   0   22.50    3.50
  -3   7   0   20.20    3.50
   3   7   0   21.80    4.10
  -3   7   0   23.00    4.20
  -3   7   0   24.20    3.40
  -3   7   0   21.50    3.60
  -4  -7   0   -0.30    2.00
  -4  -7   0   -2.60    2.10
  -4  -7   0    0.20    2.10
   4  -7   0    3.10    2.20
   4  -7   0   -0.10    2.40
  -4   7   0    1.40    2.20
  -4   7   0   -0.30    2.10
   4   7   0   -1.70    1.60
  -4   7   0    3.20    2.80
   5  -7   0   29.60    4.80
  -5  -7   0   20.90    4.10
  -5  -7   0   19.50    3.90
   5  -7   0   22.00    4.00
  -5  -7   0   28.60    4.30
  -5   7   0   20.80    3.90
   5   7   0   23.70    4.60
  -5   7   0   23.90    4.30
  -5   7   0   22.00    4.30
  -6  -7   0   24.20    3.90
   6  -7   0   28.40    5.60
   6  -7   0   27.20    4.60
  -6  -7   0   26.80    4.70
  -6  -7   0   24.20    4.40
  -6   7   0   24.00    4.80
  -6   7   0   30.70    4.70
   6   7   0   27.40    5.00
  -6   7   0   25.40    4.20
  -7  -7   0    8.80    2.80
   0  -8   0   65.49    6.50
   0  -8   0   53.49    6.40
   0  -8   0   60.69    6.10
   0   8   0   56.79    6.10
   0   8   0   64.69    6.70
   1  -8   0    0.50    1.90
   1  -8   0    0.40    2.30
  -1  -8   0    5.20    2.90
   1  -8   0    0.10    2.60
  -1  -8   0    5.10    3.00
  -1  -8   0    2.10    2.80
  -1   8   0   19.50    4.40
  -1   8   0    4.20    2.40
   1   8   0    6.30    3.10
   1   8   0   -1.50    2.50
   2  -8   0    2.70    3.00
   2  -8   0    4.80    3.00
  -2  -8   0    0.20    2.60
  -2  -8   0    0.60    2.40
   2   8   0   -4.00    2.70
  -2   8   0    2.50    3.00
  -2   8   0    1.80    2.60
  -3  -8   0    9.30    3.00
   3  -8   0    6.40    3.50
  -3  -8   0   11.40    3.40
  -3   8   0   11.10    4.10
  -3   8   0   10.80    3.20
   3   8   0   11.80    4.00
 -12   0   1   -2.80    1.80
  12   0  -1    2.90    2.50
 -12   0   1   -1.90    1.70
 -12   0   1   -1.10    1.80
 -11   0   1    0.60    2.00
 -11   0   1    0.30    1.70
  11   0  -1   -0.50    2.00
 -11   0   1   -1.10    1.40
 -11   0   1   -1.10    1.40
  10   0  -1   -1.60    1.80
  10   0  -1    0.40    1.30
 -10   0   1   -0.90    1.10
 -10   0   1    0.50    1.50
 -10   0   1    2.80    1.90
  -9   0   1    1.30    1.60
   9   0  -1    4.70    2.20
   9   0  -1   -0.80    1.60
   9   0  -1    3.80    1.40
  -9   0   1    1.50    1.30
   9   0  -1    4.50    1.60
   8   0  -1    1.10    1.00
   8   0  -1   -0.10    1.10
  -8   0   1   -1.20    1.00
   8   0  -1    0.60    1.60
   8   0  -1   -0.20    1.20
  -8   0   1    1.70    1.10
   7   0  -1   -0.90    1.20
   7   0  -1    0.00    0.80
  -7   0   1    1.00    1.00
  -7   0   1    1.10    1.20
   7   0  -1    3.10    1.30
   7   0  -1    0.10    1.00
   6   0  -1   -0.50    1.00
  -6   0   1   -0.60    0.70
   6   0  -1   -0.80    0.60
  -6   0   1    0.10    0.70
   6   0  -1   -0.90    0.60
   6   0  -1   -1.00    0.80
   5   0  -1   -0.50    0.80
   5   0  -1    0.70    0.80
  -5   0   1   -0.40    0.60
  -5   0   1    0.30    0.60
   5   0  -1    0.40    0.20
   5   0  -1   -0.40    0.60
  -5   0   1    0.00    0.20
   5   0  -1   -0.20    0.10
   4   0  -1    0.10    0.70
   4   0  -1   -0.10    0.20
   4   0  -1   -0.20    0.50
  -4   0   1    0.00    0.20
  -4   0   1    0.20    0.50
  -4   0   1    0.00    0.50
  -4   0   1    0.00    0.20
   4   0  -1   -0.40    0.20
   4   0  -1   -0.20    0.60
   3   0  -1   -0.30    0.10
  -3   0   1    2.80    0.70
  -3   0   1   -0.20    0.10
   3   0  -1    0.20    0.20
  -3   0   1   -0.20    0.40
  -3   0   1    0.00    0.20
   3   0  -1   -0.50    0.40
   3   0  -1   -0.50    0.50
  -2   0   1   -0.20    0.20
  -2   0   1    0.10    0.10
   2   0  -1    0.20    0.30
   2   0  -1    0.00    0.10
   2   0  -1   -0.50    0.40
  -2   0   1    0.20    0.10
   2   0  -1    0.20    0.10
   1   0  -1   -4.20    0.10
  -1   0   1   -4.00    0.10
  -1   0   1   -3.90    0.10
   1   0  -1   -3.40    0.20
  -1   0   1   -3.90    0.10
   1   0  -1   -3.90    0.10
   1   0  -1   -3.70    0.20
  -1   0   1   -3.80    0.10
   0   0  -1   -0.90    0.10
   0   0  -1   -0.90    0.10
   0   0  -1   -0.90    0.10
   0   0   1   -1.00    0.10
   0   0   1   -0.90    0.10
   0   0  -1   -1.00    0.10
   0   0   1   -0.90    0.10
   0   0   1   -1.10    0.10
   0   0   1   -1.00    0.10
   0   0  -1   -1.00    0.10
   0   0   1   -1.00    0.10
   0   0  -1   -1.00    0.10
   1   0   1    0.10    0.20
   1   0   1    0.00    0.20
  -1   0  -1   -0.40    0.10
   1   0   1   -0.20    0.20
  -1   0  -1   -0.20    0.20
  -1   0  -1   -0.10    0.20
   2   0   1   -0.10    0.30
   2   0   1   -0.20    0.10
  -2   0  -1    0.30    0.30
  -2   0  -1    0.50    0.40
  -2   0  -1   -0.30    0.20
   2   0   1    0.20    0.40
   2   0   1   -0.20    0.30
   2   0   1    0.10    0.40
   3   0   1    0.40    0.40
   3   0   1    1.90    0.80
   3   0   1   -0.30    0.10
   3   0   1   -0.50    0.50
   3   0   1   -0.60    0.40
  -3   0  -1   -0.30    0.30
  -3   0  -1   -1.10    0.30
  -3   0  -1   -0.80    0.30
   4   0   1   -1.00    0.60
   4   0   1    0.20    0.70
   4   0   1    0.70    0.80
  -4   0  -1   -0.30    0.50
  -4   0  -1   -0.60    0.30
  -4   0  -1   -0.40    0.30
  -4   0  -1   -0.50    0.40
   4   0   1   -0.60    0.20
   4   0   1   -0.90    0.50
   4   0   1   -0.30    0.40
   5   0   1    0.20    0.40
  -5   0  -1    0.00    0.60
   5   0   1   -0.90    0.70
   5   0   1    0.40    0.40
  -5   0  -1    0.00    0.40
   5   0   1   -0.20    0.70
  -5   0  -1    0.30    0.50
  -5   0  -1   -0.70    0.30
   5   0   1   -0.20    0.80
   6   0   1   -0.50    0.80
   6   0   1   -0.80    0.80
   6   0   1   -0.50    0.40
   6   0   1    0.10    0.70
   6   0   1   -1.20    0.90
   6   0   1   -0.40    0.40
  -6   0  -1    0.20    0.60
  -6   0  -1    0.10    0.40
  -6   0  -1   -0.10    0.40
  -6   0  -1    0.80    0.80
   7   0   1   -1.30    0.80
   7   0   1   -0.60    0.70
  -7   0  -1    0.20    0.80
  -7   0  -1    0.10    0.40
   7   0   1    0.60    0.50
   7   0   1   -0.20    1.30
   7   0   1    0.00    0.40
  -7   0  -1    0.60    0.50
  -7   0  -1   -0.20    1.10
   8   0   1    2.80    1.30
  -8   0  -1    0.40    0.40
   8   0   1    1.70    1.70
  -8   0  -1    0.30    0.50
  -8   0  -1   -0.90    1.20
   8   0   1    2.30    1.20
   8   0   1    1.10    0.40
  -8   0  -1    1.20    1.10
   8   0   1    0.90    0.50
   9   0   1   -1.70    1.00
  -9   0  -1    0.50    1.10
   9   0   1    1.30    1.40
   9   0   1   -0.60    1.10
  -9   0  -1   -0.70    1.20
  -9   0  -1   -0.10    1.40
  10   0   1   -1.10    1.60
 -10   0  -1    1.00    1.70
  10   0   1   -0.40    1.40
 -10   0  -1   -1.10    1.70
 -10   0  -1    0.40    1.30
 -11   0  -1   -0.60    2.00
  11   0   1   -1.10    1.90
 -11   0  -1   -2.20    1.40
 -12   0  -1   -0.10    2.20
 -12   0  -1    2.30    2.00
  12   0   1    1.00    1.90
  12  -1  -1   31.80    4.70
 -12  -1   1   28.80    4.40
 -12  -1   1   24.40    3.80
 -12  -1   1   40.70    5.00
 -12   1   1   30.00    4.40
  12   1  -1   23.40    4.30
 -11  -1   1   16.40    2.60
 -11  -1   1   21.10    3.30
 -11  -1   1   14.90    3.20
 -11  -1   1   11.30    2.80
  11  -1  -1   14.40    3.50
  11   1  -1   12.70    2.90
  11   1  -1   22.40    3.90
 -11   1   1   15.60    3.30
 -11   1   1   12.30    2.40
 -10  -1   1   45.40    3.90
  10  -1  -1   38.10    4.70
  10  -1  -1   45.00    3.90
 -10  -1   1   45.30    4.60
 -10  -1   1   39.80    4.00
  10  -1  -1   43.70    3.80
 -10  -1   1   36.40    4.20
  10   1  -1   44.30    3.90
  10   1  -1   47.70    5.10
 -10   1   1   43.60    3.80
 -10   1   1   43.80    4.50
  10   1  -1   34.60    4.10
   9  -1  -1   24.40    2.80
   9  -1  -1   28.10    3.90
  -9  -1   1   21.00    3.00
  -9  -1   1   29.40    3.50
  -9  -1   1   24.10    2.80
   9  -1  -1   31.00    3.00
  -9  -1   1   22.60    2.80
   9   1  -1   31.50    3.70
  -9   1   1   27.70    3.60
  -9   1   1   26.60    2.80
   9   1  -1   24.30    2.90
   9   1  -1   20.40    3.20
  -8  -1   1   84.59    4.70
   8  -1  -1   86.39    4.30
  -8  -1   1   87.59    5.00
  -8  -1   1   85.19    4.30
   8  -1  -1   83.49    5.20
  -8  -1   1   92.69    5.00
   8  -1  -1   85.89    4.30
   8  -1  -1   80.89    3.10
  -8   1   1   77.99    3.20
   8   1  -1   76.39    5.00
  -8   1   1   80.59    4.30
   8   1  -1   85.89    5.10
  -8   1   1   79.89    3.20
   8   1  -1   82.59    3.70
  -8   1   1   84.09    5.10
   8   1  -1   82.79    4.40
   7  -1  -1  785.02   21.50
  -7  -1   1  754.32   22.20
   7  -1  -1  755.12   22.90
  -7  -1   1  746.03   21.50
  -7  -1   1  762.52   21.80
   7  -1  -1  766.52   21.50
  -7  -1   1  760.12   22.20
   7  -1  -1  756.72   20.30
  -7   1   1  758.72   21.40
  -7   1   1  746.33   20.40
  -7   1   1  739.03   22.40
  -7   1   1  777.62   20.40
   7   1  -1  734.83   22.50
   7   1  -1  748.33   22.30
   7   1  -1  807.32   20.80
   7   1  -1  774.32   21.60
  -6  -1   1  268.27    9.00
  -6  -1   1  250.27    8.90
  -6  -1   1  266.87    8.70
   6  -1  -1  256.27    7.70
   6  -1  -1  247.98    9.30
   6  -1  -1  264.37    8.50
   6  -1  -1  271.07    8.60
   6  -1  -1  270.67    8.50
   6   1  -1  263.77    9.30
  -6   1   1  259.47    7.80
  -6   1   1  263.67    8.50
  -6   1   1  256.87    7.80
   6   1  -1  271.07    9.20
   6   1  -1  262.57    8.50
  -6   1   1  249.38    9.10
   5  -1  -1   29.90    2.00
   5  -1  -1   28.50    2.70
  -5  -1   1   30.30    2.20
  -5  -1   1   32.70    2.40
   5  -1  -1   29.60    1.70
   5  -1  -1   30.40    2.00
   5  -1  -1   29.50    2.00
  -5   1   1   27.60    1.70
  -5   1   1   30.20    1.70
  -5   1   1   31.80    2.00
   5   1  -1   31.00    2.40
  -5   1   1   27.00    2.50
   5   1  -1   28.50    2.10
   5   1  -1   27.00    2.30
   4  -1  -1  151.08    5.10
  -4  -1   1  155.48    5.40
   4  -1  -1  151.08    4.80
   4  -1  -1  146.89    5.50
   4  -1  -1  143.59    5.50
  -4  -1   1  146.59    4.00
   4  -1  -1  154.98    5.10
  -4  -1   1  143.49    4.00
   4  -1  -1  145.49    4.70
   4  -1  -1  145.09    5.00
  -4  -1   1  140.09    5.10
  -4   1   1  152.38    5.10
   4   1  -1  145.19    3.90
  -4   1   1  153.38    4.80
   4   1  -1  153.28    5.50
   4   1  -1  154.38    5.20
  -4   1   1  147.09    4.70
   4   1  -1  143.89    3.90
   4   1  -1  152.78    5.50
  -4   1   1  143.79    5.50
   3  -1  -1 2176.88   55.09
   3  -1  -1 2141.89   54.59
  -3  -1   1 2123.49   54.89
   3  -1  -1 2201.88   54.49
  -3  -1   1 2049.70   54.89
  -3  -1   1 2107.39   54.69
  -3  -1   1 2064.69   54.59
   3  -1  -1 2080.49   54.39
   3  -1  -1 2163.78   54.99
  -3   1   1 2096.39   54.99
  -3   1   1 2168.78   54.59
   3   1  -1 2147.79   55.09
  -3   1   1 2171.98   54.39
  -3   1   1 2130.29   54.39
   3   1  -1 2128.29   54.99
   3   1  -1 1940.61   54.89
  -3   1   1 2169.28   54.29
   3   1  -1 2157.88   54.49
  -2  -1   1    0.90    0.50
   2  -1  -1   -0.10    0.40
  -2  -1   1    1.30    0.40
   2  -1  -1    1.10    0.40
   2  -1  -1    5.30    0.90
  -2  -1   1    2.10    0.40
  -2  -1   1    0.20    0.40
   2  -1  -1    1.40    0.60
   2  -1  -1    1.10    0.50
   2  -1  -1    1.60    0.60
   2   1  -1    0.90    0.60
  -2   1   1    0.30    0.40
  -2   1   1    0.70    0.40
   2   1  -1    0.10    0.20
   2   1  -1    1.50    0.60
   2   1  -1    1.00    0.50
  -2   1   1    2.40    0.70
  -2   1   1    0.50    0.50
   2   1  -1    0.80    0.40
  -2   1   1    0.70    0.50
   2   1  -1    1.10    0.60
  -2   1   1    0.80    0.50
  -1  -1   1  264.67    7.50
  -1  -1   1  267.97    7.40
  -1  -1   1  247.08    7.30
   1  -1  -1  276.87    7.50
   1  -1  -1  269.67    7.50
   1  -1  -1  265.97    7.50
  -1  -1   1  261.57    7.30
   1  -1  -1  264.67    7.50
   1  -1  -1  268.17    7.50
  -1  -1   1  247.38    7.30
   1  -1  -1  273.57    7.10
  -1   1   1  252.77    7.10
  -1   1   1  263.37    7.50
   1   1  -1  272.87    7.40
   1   1  -1  263.17    7.30
   1   1  -1  276.97    7.40
  -1   1   1  265.77    7.50
  -1   1   1  251.87    7.50
   1   1  -1  272.47    7.40
  -1   1   1  262.07    7.50
  -1   1   1  247.18    7.00
  -1   1   1  273.97    7.50
   1   1  -1  268.67    7.60
   1   1  -1  268.87    7.60
   0  -1  -1 2934.81   76.79
   0  -1  -1 2959.50   76.19
   0  -1  -1 2776.92   76.49
   0  -1   1 2915.61   76.39
   0  -1  -1 2954.40   77.39
   0  -1   1 2886.51   77.09
   0  -1   1 2580.84   75.49
   0  -1   1 2470.85   75.99
   0  -1  -1 3058.89   74.69
   0  -1   1 2896.81   76.19
   0   1  -1 3299.27   77.99
   0   1   1 2900.71   77.19
   0   1  -1 2949.80   77.09
   0   1  -1 2899.31   75.89
   0   1  -1 3137.49   75.39
   0   1  -1 2907.01   76.49
   0   1   1 2793.52   76.29
   0   1   1 2965.80   77.39
   0   1  -1 3035.30   77.19
   0   1   1 3260.97   76.29
   0   1   1 2858.41   75.99
  -1  -1  -1  621.34   16.70
  -1  -1  -1  621.04   16.90
  -1  -1  -1  625.64   16.70
   1  -1   1  637.54   17.00
   1  -1   1  622.04   16.80
   1  -1   1  628.84   16.90
   1  -1   1  634.24   16.90
  -1  -1  -1  631.74   16.80
  -1  -1  -1  628.74   16.40
  -1  -1  -1  627.04   16.90
   1  -1   1  618.94   16.60
  -1   1  -1  645.04   16.90
   1   1   1  652.43   17.10
   1   1   1  655.43   16.70
   1   1   1  636.24   16.90
  -1   1  -1  652.93   16.90
   1   1   1  667.43   16.50
   1   1   1  635.34   16.80
  -1   1  -1  650.53   16.80
  -1   1  -1  626.94   16.60
   1   1   1  647.14   16.80
  -1   1  -1  629.34   17.00
   2  -1   1  826.52   21.90
  -2  -1  -1  839.82   21.40
   2  -1   1  827.22   22.00
  -2  -1  -1  827.62   21.70
  -2  -1  -1  820.32   21.70
  -2  -1  -1  844.02   22.20
   2  -1   1  835.62   21.60
   2  -1   1  823.32   22.00
   2  -1   1  848.32   22.20
   2   1   1  853.31   21.80
   2   1   1  833.02   22.20
   2   1   1  856.21   21.70
  -2   1  -1  842.72   22.00
  -2   1  -1  847.52   22.00
  -2   1  -1  819.12   21.60
   2   1   1  852.31   22.40
  -2   1  -1  840.52   22.20
  -2   1  -1  820.42   21.90
   2   1   1  749.53   21.60
  -3  -1  -1    2.40    0.60
   3  -1   1    1.90    0.50
   3  -1   1    2.70    0.70
  -3  -1  -1    2.30    0.50
   3  -1   1    1.80    0.80
  -3  -1  -1    5.40    1.00
   3  -1   1    3.60    0.80
   3  -1   1    2.90    0.80
   3  -1   1    2.60    0.70
  -3  -1  -1    2.00    0.50
  -3   1  -1    2.20    0.60
   3   1   1    3.20    0.80
  -3   1  -1    1.40    0.70
  -3   1  -1    2.20    0.70
  -3   1  -1    1.80    0.70
   3   1   1    2.30    0.50
  -3   1  -1    2.40    0.60
   3   1   1    1.40    0.80
   4  -1   1   96.69    3.40
  -4  -1  -1   91.29    3.00
   4  -1   1   99.79    3.60
   4  -1   1  100.79    4.30
   4  -1   1   92.29    3.50
   4  -1   1   94.79    3.90
  -4  -1  -1   91.99    4.00
  -4  -1  -1   94.99    3.50
  -4  -1  -1   93.29    3.00
   4  -1   1   98.79    4.10
   4   1   1   96.29    4.20
  -4   1  -1   86.09    3.50
  -4   1  -1   92.79    3.90
   4   1   1   93.19    3.00
   4   1   1   97.29    4.00
  -4   1  -1   96.79    3.50
  -4   1  -1   91.79    3.30
   4   1   1   76.99    2.90
  -4   1  -1   94.79    4.10
  -5  -1  -1    1.50    0.40
   5  -1   1    0.90    0.60
   5  -1   1    0.70    1.00
   5  -1   1    2.70    1.00
   5  -1   1    2.90    0.80
  -5  -1  -1    1.70    1.00
   5  -1   1    2.00    0.70
  -5  -1  -1    1.70    0.80
  -5  -1  -1    1.60    0.40
   5  -1   1    2.00    0.70
  -5   1  -1    1.40    0.70
   5   1   1    0.60    0.90
   5   1   1    2.30    0.50
   5   1   1    2.90    1.20
   5   1   1    1.90    0.40
  -5   1  -1    1.30    1.00
   5   1   1    1.50    0.70
  -5   1  -1    1.00    0.60
   5   1   1    1.00    0.70
  -5   1  -1    3.30    0.80
   6  -1   1   56.99    2.80
   6  -1   1   49.00    2.50
   6  -1   1   52.29    3.60
  -6  -1  -1   55.99    3.00
   6  -1   1   57.89    3.20
  -6  -1  -1   54.59    2.00
  -6  -1  -1   58.09    3.50
  -6  -1  -1   56.19    2.00
   6   1   1   54.29    1.90
   6   1   1   55.89    2.90
  -6   1  -1   52.79    3.50
  -6   1  -1   54.09    2.60
   6   1   1   52.19    1.90
  -6   1  -1   54.39    2.70
  -6   1  -1   53.69    2.60
   6   1   1   56.29    3.50
   6   1   1   60.69    2.90
   6   1   1   57.99    3.70
   7  -1   1   25.40    2.20
  -7  -1  -1   25.50    3.00
  -7  -1  -1   20.80    0.90
  -7  -1  -1   21.70    2.10
  -7  -1  -1   22.00    2.30
   7  -1   1   19.20    2.80
   7  -1   1   24.90    2.70
  -7  -1  -1   20.00    0.90
  -7   1  -1   20.80    2.00
   7   1   1   20.80    2.10
  -7   1  -1   21.80    1.70
  -7   1  -1   23.90    2.70
   7   1   1   23.10    3.00
  -7   1  -1   21.30    1.80
   7   1   1   21.80    2.80
   7   1   1   26.20    2.40
  -8  -1  -1  497.45   14.80
   8  -1   1  487.95   16.60
  -8  -1  -1  480.15   15.20
  -8  -1  -1  498.45   16.20
   8  -1   1  497.05   14.60
   8  -1   1  485.15   15.20
   8   1   1  499.65   14.80
  -8   1  -1  486.95   13.90
  -8   1  -1  485.05   14.50
   8   1   1  502.75   14.60
  -8   1  -1  485.85   16.00
   8   1   1  480.55   16.20
   8   1   1  491.05   16.30
  -9  -1  -1   14.80    2.20
   9  -1   1    8.80    2.70
   9  -1   1   15.20    2.40
  -9  -1  -1   12.50    2.70
   9  -1   1   12.30    2.90
  -9  -1  -1    9.50    2.10
   9   1   1   14.00    2.80
  -9   1  -1   12.90    2.00
   9   1   1   13.90    2.80
  -9   1  -1   13.90    2.70
   9   1   1   13.70    2.10
  -9   1  -1   13.00    1.50
   9   1   1   14.50    2.30
  10  -1   1   33.70    4.50
 -10  -1  -1   38.70    4.60
 -10  -1  -1   40.50    3.40
  10  -1   1   39.00    3.90
 -10  -1  -1   32.40    3.50
  10   1   1   33.40    4.30
  10   1   1   35.10    4.20
 -10   1  -1   32.40    4.00
 -10   1  -1   34.30    2.00
 -10   1  -1   38.10    4.50
 -11  -1  -1   11.30    3.00
 -11  -1  -1    9.20    2.80
  11  -1   1   10.80    2.90
 -11  -1  -1    7.80    2.20
  11  -1   1   11.80    2.70
 -11   1  -1   10.30    2.80
  11   1   1    6.10    2.60
  12  -1   1   30.00    5.00
 -12  -1  -1   28.30    4.60
 -12  -1  -1   26.00    4.60
 -12   1  -1   43.00    5.50
 -12   1  -1   29.10    4.60
  12   1   1   34.10    5.10
  12  -2  -1   64.09    7.10
 -12  -2   1   54.49    5.80
 -12  -2   1   59.69    6.20
  12   2  -1   47.20    5.70
 -12   2   1   58.89    6.20
  12   2  -1   53.19    6.00
 -11  -2   1   25.70    3.90
 -11  -2   1   23.10    3.20
 -11  -2   1   18.90    3.50
  11  -2  -1   24.50    4.30
  11   2  -1   22.20    3.80
  11   2  -1   26.40    4.00
  11   2  -1   19.70    3.80
 -11   2   1   27.40    4.20
  10  -2  -1   13.20    2.50
 -10  -2   1   13.90    2.60
  10  -2  -1    9.00    2.60
 -10  -2   1   11.40    2.80
 -10  -2   1   10.10    2.30
 -10  -2   1    8.40    2.40
  10   2  -1    7.80    2.60
 -10   2   1   10.30    2.90
 -10   2   1   11.80    2.20
  10   2  -1    9.90    2.40
  10   2  -1   10.40    2.70
 -10   2   1   12.60    1.70
   9  -2  -1  130.59    6.20
  -9  -2   1  138.59    6.20
  -9  -2   1  132.69    6.80
  -9  -2   1  132.09    6.20
  -9  -2   1  128.59    6.70
   9  -2  -1  112.79    6.90
   9  -2  -1  141.69    6.30
   9   2  -1  127.09    6.00
  -9   2   1  134.19    7.20
  -9   2   1  133.89    6.10
  -9   2   1  141.89    5.40
   9   2  -1  135.09    7.00
   9   2  -1  131.29    7.10
  -8  -2   1    5.10    2.00
   8  -2  -1    2.90    1.40
   8  -2  -1    2.60    1.40
  -8  -2   1    3.80    1.50
   8  -2  -1    5.10    2.10
   8  -2  -1    2.80    1.60
  -8  -2   1   -0.10    1.30
   8   2  -1    2.60    1.40
  -8   2   1    0.90    1.20
  -8   2   1    4.50    1.70
   8   2  -1    4.00    2.00
   8   2  -1    1.70    1.70
  -8   2   1    2.60    1.20
   7  -2  -1  104.79    5.50
   7  -2  -1   96.69    4.70
  -7  -2   1   96.79    4.50
  -7  -2   1   93.29    4.90
   7  -2  -1  101.99    4.30
  -7  -2   1   93.89    5.20
   7  -2  -1   91.49    4.50
   7   2  -1   98.59    5.40
  -7   2   1   95.09    4.50
   7   2  -1   95.69    3.80
  -7   2   1   92.49    4.20
  -7   2   1   99.59    5.50
   7   2  -1   94.39    4.70
  -7   2   1   94.09    4.20
   7   2  -1   97.49    5.20
   6  -2  -1  377.96   11.40
  -6  -2   1  372.66   10.00
  -6  -2   1  375.26   12.40
   6  -2  -1  380.46   11.90
   6  -2  -1  387.76   11.70
  -6  -2   1  370.76   10.00
  -6  -2   1  367.26   12.00
   6  -2  -1  367.56   12.60
  -6   2   1  366.26   11.30
  -6   2   1  388.56   11.60
   6   2  -1  375.16    9.90
  -6   2   1  371.06   11.40
  -6   2   1  362.96   11.30
   6   2  -1  371.66   12.20
  -6   2   1  372.46   12.50
   6   2  -1  375.96   11.80
   6   2  -1  369.76    9.90
   6   2  -1  358.16   12.40
   5  -2  -1 1203.08   34.40
   5  -2  -1 1240.98   33.40
   5  -2  -1 1281.17   33.60
   5  -2  -1 1262.57   33.60
  -5  -2   1 1253.17   33.80
  -5  -2   1 1242.88   32.40
  -5  -2   1 1250.27   32.40
  -5  -2   1 1232.88   34.20
   5  -2  -1 1285.57   33.90
  -5   2   1 1224.88   34.30
   5   2  -1 1267.07   33.70
  -5   2   1 1245.08   33.20
  -5   2   1 1260.27   33.50
   5   2  -1 1296.87   32.40
  -5   2   1 1216.98   33.40
  -5   2   1 1250.07   33.40
   5   2  -1 1271.87   34.50
   5   2  -1 1240.68   32.30
   5   2  -1 1240.08   34.00
   4  -2  -1 2030.40   51.79
   4  -2  -1 1970.60   51.79
  -4  -2   1 1936.41   51.79
   4  -2  -1 2038.30   51.79
   4  -2  -1 2040.50   51.79
   4  -2  -1 1985.30   52.39
  -4  -2   1 1850.81   52.09
  -4  -2   1 1984.40   50.89
  -4  -2   1 1952.60   50.89
   4   2  -1 2019.90   51.89
  -4   2   1 1907.71   51.69
  -4   2   1 2001.10   51.29
  -4   2   1 1989.70   51.69
  -4   2   1 1939.31   52.29
   4   2  -1 1998.40   52.09
   4   2  -1 1997.10   50.99
   4   2  -1 1945.51   52.49
  -4   2   1 2099.09   53.39
   4   2  -1 2025.30   51.89
  -4   2   1 1949.20   51.69
  -3  -2   1  245.78    8.10
   3  -2  -1  252.47    8.20
  -3  -2   1  253.37    7.50
  -3  -2   1  248.98    7.40
   3  -2  -1  248.18    7.80
   3  -2  -1  255.87    8.20
   3  -2  -1  251.67    7.40
  -3  -2   1  257.87    7.50
   3  -2  -1  259.37    8.00
  -3  -2   1  249.48    7.90
   3  -2  -1  248.08    7.90
  -3   2   1  248.98    8.20
   3   2  -1  244.58    7.40
   3   2  -1  256.67    8.00
  -3   2   1  245.58    7.90
  -3   2   1  255.27    8.20
   3   2  -1  260.87    7.50
  -3   2   1  245.18    7.40
  -3   2   1  249.28    7.80
  -3   2   1  242.48    7.90
   3   2  -1  243.88    8.10
   3   2  -1  249.08    7.90
   3   2  -1  246.28    8.30
   2  -2  -1   24.50    1.40
   2  -2  -1   23.80    1.80
  -2  -2   1   24.20    1.60
  -2  -2   1   21.80    1.70
  -2  -2   1   21.80    1.50
   2  -2  -1   19.70    1.80
   2  -2  -1   18.50    1.70
   2  -2  -1   23.30    1.80
  -2  -2   1   22.00    1.40
   2  -2  -1   22.90    1.50
  -2  -2   1   20.60    1.50
   2   2  -1   23.00    1.60
   2   2  -1   22.70    1.80
   2   2  -1   21.90    1.70
   2   2  -1   24.40    1.50
   2   2  -1   25.80    1.90
   2   2  -1   24.00    1.60
  -2   2   1   21.10    1.60
  -2   2   1   23.00    1.30
  -2   2   1   23.10    1.60
  -2   2   1   17.70    1.70
  -2   2   1   20.30    1.20
  -2   2   1   22.80    1.80
  -2   2   1   20.70    1.70
   1  -2  -1 1296.07   34.50
  -1  -2   1 1315.77   34.40
   1  -2  -1 1308.97   34.00
  -1  -2   1 1310.77   34.10
   1  -2  -1 1339.87   34.30
  -1  -2   1 1256.47   34.20
  -1  -2   1 1304.77   34.40
   1  -2  -1 1304.87   34.50
  -1  -2   1 1244.28   34.40
   1  -2  -1 1295.57   34.50
   1  -2  -1 1314.67   34.40
  -1  -2   1 1297.97   34.40
  -1   2   1 1294.57   34.20
   1   2  -1 1296.17   34.50
  -1   2   1 1316.07   34.00
  -1   2   1 1309.37   34.40
  -1   2   1 1314.67   34.00
   1   2  -1 1315.87   34.40
  -1   2   1 1326.77   34.50
   1   2  -1 1370.86   34.40
   1   2  -1 1311.77   34.10
  -1   2   1 1296.17   34.50
   1   2  -1 1305.27   34.30
  -1   2   1 1352.16   34.60
   1   2  -1 1363.86   34.70
   0  -2   1 1229.18   32.50
   0  -2   1 1233.78   32.50
   0  -2   1 1222.28   32.40
   0  -2   1 1258.27   32.70
   0  -2  -1 1198.18   32.60
   0  -2  -1 1284.07   32.60
   0  -2   1 1256.67   32.60
   0  -2  -1 1228.88   32.00
   0  -2  -1 1232.58   32.40
   0  -2  -1 1240.48   32.60
   0  -2   1 1268.87   32.40
   0  -2  -1 1189.88   32.60
   0   2  -1 1216.78   32.60
   0   2  -1 1204.48   32.40
   0   2   1 1241.38   32.60
   0   2  -1 1250.27   32.40
   0   2   1 1251.67   32.40
   0   2  -1 1249.77   32.70
   0   2   1 1230.68   32.50
   0   2   1 1257.37   32.60
   0   2   1 1210.58   32.60
   0   2   1 1247.58   32.40
   0   2  -1 1241.58   32.50
   0   2  -1 1275.47   32.50
   0   2   1 1223.38   32.00
   0   2  -1 1250.07   32.60
  -1  -2  -1   25.90    1.70
   1  -2   1   30.80    1.80
  -1  -2  -1   29.50    1.80
  -1  -2  -1   29.00    1.80
  -1  -2  -1   28.40    1.30
   1  -2   1   24.60    1.80
  -1  -2  -1   26.10    1.70
   1  -2   1   30.50    2.00
   1  -2   1   30.70    1.90
  -1  -2  -1   29.00    1.80
   1  -2   1   28.10    1.80
   1  -2   1   28.90    1.80
   1  -2   1   31.80    1.80
  -1   2  -1   29.80    1.90
  -1   2  -1   31.20    1.90
   1   2   1   29.10    1.90
   1   2   1   27.80    1.70
   1   2   1   28.00    1.80
  -1   2  -1   25.10    1.80
   1   2   1   28.50    1.90
  -1   2  -1   28.70    1.70
   1   2   1   29.80    1.90
  -1   2  -1   30.10    1.90
   1   2   1   30.90    1.30
  -1   2  -1   31.50    1.80
   1   2   1   27.90    1.80
  -2  -2  -1 1086.49   28.60
   2  -2   1 1091.79   29.00
  -2  -2  -1 1082.59   27.70
   2  -2   1 1088.89   28.50
   2  -2   1 1075.99   28.90
  -2  -2  -1 1076.59   28.90
   2  -2   1 1056.89   28.60
  -2  -2  -1 1053.19   28.50
   2  -2   1 1100.19   28.90
  -2  -2  -1 1062.79   28.60
   2  -2   1 1111.69   29.00
  -2  -2  -1 1064.29   28.90
  -2   2  -1 1097.19   28.70
  -2   2  -1 1091.29   28.90
  -2   2  -1 1071.19   28.50
  -2   2  -1 1043.50   28.80
   2   2   1 1098.89   28.90
  -2   2  -1 1083.59   29.00
   2   2   1 1085.49   29.20
  -2   2  -1 1083.69   29.00
   2   2   1 1100.49   28.60
   2   2   1 1067.89   28.50
  -3  -2  -1  175.38    6.40
   3  -2   1  182.78    6.30
   3  -2   1  187.88    6.60
   3  -2   1  194.38    6.50
   3  -2   1  180.68    6.10
  -3  -2  -1  186.08    5.30
  -3  -2  -1  183.48    6.10
  -3  -2  -1  180.28    5.90
  -3  -2  -1  185.68    6.60
  -3  -2  -1  179.98    5.80
   3  -2   1  186.48    5.90
   3  -2   1  189.58    6.30
   3   2   1  188.48    6.00
  -3   2  -1  178.18    6.50
  -3   2  -1  187.18    6.20
  -3   2  -1  175.68    5.90
   3   2   1  187.38    6.50
   3   2   1  180.88    6.70
  -3   2  -1  174.98    6.20
  -3   2  -1  175.08    6.20
  -3   2  -1  176.18    6.50
   3   2   1  178.58    5.80
   3   2   1  189.28    5.90
   4  -2   1  289.07    8.40
  -4  -2  -1  273.17    8.10
  -4  -2  -1  268.57    8.10
  -4  -2  -1  263.77    9.00
   4  -2   1  266.67    8.70
   4  -2   1  277.57    9.00
  -4  -2  -1  257.97    9.10
   4   2   1  275.47    9.40
   4   2   1  265.77    8.00
  -4   2  -1  269.67    8.70
   4   2   1  274.77    8.10
   4   2   1  272.97    8.60
   4   2   1  277.67    8.40
  -4   2  -1  260.27    9.10
  -4   2  -1  278.17    8.70
  -4   2  -1  280.67    8.80
  -4   2  -1  266.87    8.30
   4   2   1  278.17    9.70
   5  -2   1  273.57    8.50
  -5  -2  -1  264.77    8.00
  -5  -2  -1  275.37    8.00
  -5  -2  -1  267.77    9.30
   5  -2   1  272.47    9.20
  -5  -2  -1  276.07    8.20
   5  -2   1  267.17    9.70
  -5  -2  -1  249.88    9.40
   5  -2   1  278.67    8.90
   5  -2   1  281.87    8.60
   5   2   1  279.77    9.10
  -5   2  -1  265.87    8.80
  -5   2  -1  277.47    9.00
   5   2   1  260.97    9.60
   5   2   1  271.47    8.00
  -5   2  -1  265.87    8.80
  -5   2  -1  275.77    8.50
   5   2   1  280.37    8.80
  -5   2  -1  272.87    9.50
   5   2   1  272.07    8.50
  -6  -2  -1  186.38    7.40
  -6  -2  -1  173.38    6.10
   6  -2   1  172.88    6.90
   6  -2   1  167.68    6.30
   6  -2   1  168.48    7.40
  -6  -2  -1  178.98    5.60
   6  -2   1  180.88    6.60
   6  -2   1  192.28    6.50
  -6  -2  -1  174.68    5.50
  -6  -2  -1  188.18    7.40
  -6   2  -1  189.98    6.70
   6   2   1  176.78    5.50
   6   2   1  181.48    6.40
   6   2   1  182.28    5.50
  -6   2  -1  174.08    6.50
   6   2   1  179.48    6.50
   6   2   1  174.78    7.50
  -6   2  -1  181.28    6.40
   6   2   1  179.78    7.00
  -6   2  -1  192.08    7.60
  -7  -2  -1  212.78    8.70
  -7  -2  -1  210.68    7.30
   7  -2   1  214.38    7.50
   7  -2   1  218.98    7.50
   7  -2   1  208.98    8.10
  -7  -2  -1  204.28    6.10
   7  -2   1  196.58    8.80
  -7  -2  -1  216.58    8.60
  -7  -2  -1  212.68    6.20
   7   2   1  215.28    8.40
   7   2   1  206.38    8.80
  -7   2  -1  216.78    7.40
   7   2   1  212.88    7.60
  -7   2  -1  212.98    7.50
  -7   2  -1  205.28    7.40
   7   2   1  218.38    6.10
   7   2   1  211.48    6.00
   7   2   1  211.58    7.40
  -7   2  -1  216.18    8.70
   8  -2   1   82.59    5.30
   8  -2   1   78.59    4.70
   8  -2   1   78.59    4.10
  -8  -2  -1   86.39    5.20
  -8  -2  -1   83.79    5.20
  -8  -2  -1   81.29    4.20
  -8   2  -1   74.59    4.00
   8   2   1   70.29    5.20
  -8   2  -1   76.39    5.00
  -8   2  -1   83.69    4.20
   8   2   1   74.89    4.90
   8   2   1   81.69    4.10
   8   2   1   84.29    4.30
  -9  -2  -1   24.40    3.60
  -9  -2  -1   23.40    2.70
  -9  -2  -1   23.60    2.70
  -9  -2  -1   24.10    3.60
   9  -2   1   27.50    3.00
   9  -2   1   24.90    3.40
   9  -2   1   24.00    3.60
  -9   2  -1   19.70    2.40
   9   2   1   21.80    3.40
  -9   2  -1   23.60    3.60
   9   2   1   26.50    2.90
  -9   2  -1   26.00    2.60
   9   2   1   24.50    3.70
 -10  -2  -1  176.68    8.80
  10  -2   1  173.28    8.00
  10  -2   1  165.88    9.10
 -10  -2  -1  170.08    8.80
 -10  -2  -1  185.48    9.00
  10   2   1  159.88    8.30
 -10   2  -1  169.88    8.80
  10   2   1  170.38    8.80
 -11  -2  -1    4.30    2.50
 -11  -2  -1    6.60    2.90
  11  -2   1    3.30    2.00
  11  -2   1    6.90    2.60
  11   2   1   -2.00    1.70
  11   2   1    5.00    2.60
 -11   2  -1   -1.60    2.00
 -12  -2  -1    2.00    2.60
  12  -2   1    1.90    2.50
 -12  -2  -1   -1.60    2.30
  12   2   1    3.20    2.50
 -12   2  -1   -2.00    2.40
  11  -3  -1    3.30    2.70
 -11  -3   1    2.90    2.30
 -11  -3   1    2.40    2.00
 -11  -3   1    2.90    2.40
 -11   3   1    3.90    2.70
  11   3  -1   -1.10    1.80
 -11   3   1    6.70    1.80
  11   3  -1    6.40    2.90
  11   3  -1    5.40    2.70
  10  -3  -1   23.50    3.30
 -10  -3   1   25.10    3.70
 -10  -3   1   17.30    3.30
  10  -3  -1   22.00    3.90
  10   3  -1   22.40    3.60
  10   3  -1   18.70    3.70
  10   3  -1   18.40    2.90
 -10   3   1   22.40    3.70
 -10   3   1   23.20    3.10
 -10   3   1   24.50    2.80
  -9  -3   1    8.40    2.70
  -9  -3   1    7.10    2.50
   9  -3  -1   14.70    2.40
   9  -3  -1    8.30    2.80
  -9  -3   1   13.50    2.20
  -9   3   1    9.20    2.00
   9   3  -1   10.60    2.60
  -9   3   1   13.70    2.30
   9   3  -1    9.40    2.80
  -9   3   1   13.80    3.00
   9   3  -1   10.10    2.20
   8  -3  -1   14.20    2.50
  -8  -3   1    4.70    0.70
   8  -3  -1    6.40    2.40
  -8  -3   1    8.10    1.70
  -8  -3   1    7.60    2.00
  -8  -3   1    6.80    2.50
  -8   3   1    7.50    1.80
  -8   3   1    6.10    1.80
   8   3  -1    8.80    2.10
  -8   3   1    8.70    2.50
   8   3  -1    8.20    2.40
   8   3  -1    5.20    2.00
  -7  -3   1    5.40    1.10
  -7  -3   1    5.70    1.10
   7  -3  -1    6.80    1.80
  -7  -3   1    8.20    2.00
   7  -3  -1    7.20    1.80
  -7  -3   1    5.60    2.20
   7  -3  -1   10.60    2.40
   7   3  -1    3.30    2.10
  -7   3   1    7.90    1.80
   7   3  -1    8.50    1.50
   7   3  -1    7.90    1.80
  -7   3   1    5.20    1.90
   7   3  -1    7.60    2.00
  -7   3   1    4.50    1.60
  -7   3   1    7.30    1.80
  -6  -3   1   60.19    3.00
  -6  -3   1   76.59    4.30
  -6  -3   1   69.19    3.10
   6  -3  -1   66.89    4.60
   6  -3  -1   68.69    3.90
  -6  -3   1   59.19    4.30
   6  -3  -1   72.49    4.10
  -6  -3   1   74.19    3.50
   6   3  -1   66.79    4.40
   6   3  -1   72.19    3.30
  -6   3   1   77.29    4.00
  -6   3   1   70.49    3.60
  -6   3   1   75.09    4.10
  -6   3   1   73.99    4.00
   6   3  -1   63.59    3.90
   5  -3  -1   34.70    3.00
   5  -3  -1   37.90    2.80
  -5  -3   1   32.60    2.20
  -5  -3   1   28.90    2.80
  -5  -3   1   34.80    2.20
   5  -3  -1   33.60    3.20
  -5  -3   1   33.10    3.30
  -5  -3   1   31.30    2.10
  -5   3   1   31.50    3.00
  -5   3   1   28.90    2.80
  -5   3   1   32.30    2.80
  -5   3   1   31.30    2.90
   5   3  -1   33.10    3.00
   5   3  -1   28.70    2.00
   5   3  -1   28.80    3.10
  -5   3   1   29.90    2.20
  -4  -3   1    2.90    0.80
  -4  -3   1    1.20    1.00
   4  -3  -1    1.10    0.80
  -4  -3   1    1.00    0.80
  -4  -3   1    0.70    1.00
   4  -3  -1    2.30    1.20
  -4  -3   1    2.60    1.00
   4  -3  -1    1.80    1.30
   4   3  -1    1.00    1.30
  -4   3   1    5.60    1.40
  -4   3   1    1.90    0.90
  -4   3   1    2.50    1.20
  -4   3   1    2.10    1.20
   4   3  -1    3.00    1.00
  -4   3   1    2.30    0.70
  -4   3   1    3.90    1.10
  -3  -3   1  664.33   19.00
  -3  -3   1  665.13   19.60
  -3  -3   1  662.83   18.90
  -3  -3   1  668.73   19.20
  -3  -3   1  696.83   18.60
   3  -3  -1  682.93   19.50
   3  -3  -1  685.43   18.70
  -3   3   1  663.03   19.20
  -3   3   1  678.23   19.50
   3   3  -1  662.83   19.80
   3   3  -1  692.33   19.30
  -3   3   1  685.63   19.60
  -3   3   1  680.33   18.70
  -3   3   1  682.63   19.50
   3   3  -1  674.63   19.00
  -3   3   1  690.23   18.30
   2  -3  -1  282.57    9.00
  -2  -3   1  279.27    8.90
  -2  -3   1  267.97    8.80
   2  -3  -1  286.17    9.00
  -2  -3   1  274.17    8.90
   2  -3  -1  263.67    9.10
  -2  -3   1  269.87    9.10
  -2  -3   1  270.57    8.30
   2  -3  -1  273.37    9.10
   2  -3  -1  278.67    8.50
  -2   3   1  270.77    9.10
  -2   3   1  280.57    8.50
   2   3  -1  287.07    8.90
  -2   3   1  273.87    9.20
   2   3  -1  268.47    9.30
  -2   3   1  275.07    8.90
   2   3  -1  270.47    8.80
  -2   3   1  271.07    8.30
  -2   3   1  279.67    8.90
   2   3  -1  277.07    8.40
   1  -3  -1  604.94   16.80
  -1  -3   1  605.84   16.90
  -1  -3   1  604.64   16.40
   1  -3  -1  569.34   16.40
   1  -3  -1  556.94   16.90
  -1  -3   1  579.84   16.90
  -1  -3   1  582.44   16.80
   1  -3  -1  595.24   17.10
   1  -3  -1  596.64   17.00
  -1  -3   1  569.54   16.60
   1  -3  -1  583.74   16.50
  -1  -3   1  582.64   16.90
  -1   3   1  578.44   17.00
  -1   3   1  595.04   17.00
   1   3  -1  591.34   16.90
  -1   3   1  580.14   16.50
  -1   3   1  592.14   17.10
  -1   3   1  605.64   16.40
  -1   3   1  572.24   16.70
   1   3  -1  576.14   16.30
   1   3  -1  598.44   16.80
   1   3  -1  581.34   17.00
   1   3  -1  570.84   16.90
  -1   3   1  590.44   16.50
   1   3  -1  604.04   16.90
   0  -3  -1 1387.66   36.10
   0  -3  -1 1369.86   36.50
   0  -3   1 1369.26   36.90
   0  -3   1 1409.96   36.70
   0  -3  -1 1423.86   36.80
   0  -3  -1 1364.76   36.90
   0  -3   1 1360.16   36.90
   0  -3   1 1394.06   36.50
   0  -3  -1 1355.56   36.80
   0  -3   1 1356.76   36.70
   0  -3   1 1359.66   36.70
   0  -3  -1 1328.37   36.70
   0   3  -1 1390.36   36.70
   0   3   1 1366.06   36.10
   0   3   1 1398.16   36.60
   0   3  -1 1390.46   36.70
   0   3   1 1372.76   36.90
   0   3  -1 1353.76   36.60
   0   3   1 1368.86   36.90
   0   3   1 1394.66   36.90
   0   3  -1 1362.76   36.90
   0   3  -1 1400.96   36.70
   0   3  -1 1389.76   36.90
   0   3   1 1366.76   36.60
   0   3  -1 1383.36   36.40
   0   3   1 1387.26   36.70
   1  -3   1   40.60    2.30
   1  -3   1   32.30    2.30
  -1  -3  -1   34.30    2.50
  -1  -3  -1   37.10    2.50
   1  -3   1   38.90    2.40
   1  -3   1   35.80    2.60
  -1  -3  -1   40.10    2.50
  -1  -3  -1   37.40    1.90
  -1  -3  -1   39.90    2.50
   1  -3   1   38.80    2.30
  -1  -3  -1   33.10    2.20
   1  -3   1   35.70    2.60
  -1   3  -1   38.70    2.40
   1   3   1   34.30    2.30
   1   3   1   36.10    2.50
  -1   3  -1   39.60    2.60
   1   3   1   36.10    2.50
   1   3   1   40.00    2.60
  -1   3  -1   33.70    2.30
  -1   3  -1   33.40    2.30
  -1   3  -1   37.30    2.40
   1   3   1   35.50    1.90
   1   3   1   36.10    2.40
  -1   3  -1   34.20    2.60
   1   3   1   36.60    2.30
  -1   3  -1   36.50    2.40
   2  -3   1  290.87    9.80
  -2  -3  -1  300.07    8.50
  -2  -3  -1  295.77    9.70
  -2  -3  -1  306.07    9.60
   2  -3   1  299.87    9.40
  -2  -3  -1  292.77    9.80
   2  -3   1  318.27   10.60
   2  -3   1  288.77    9.40
  -2  -3  -1  299.57    9.60
  -2  -3  -1  318.77   10.30
   2   3   1  308.97    8.50
  -2   3  -1  297.47    9.90
  -2   3  -1  290.87    9.40
   2   3   1  286.17    9.90
   2   3   1  315.07   10.50
  -2   3  -1  295.67    9.80
  -2   3  -1  292.57    9.80
   2   3   1  295.27    9.50
  -2   3  -1  306.77    9.30
  -2   3  -1  309.17    9.50
  -3  -3  -1   79.09    2.90
  -3  -3  -1   78.99    3.80
  -3  -3  -1   77.39    3.70
  -3  -3  -1   76.49    4.20
   3  -3   1   79.79    3.80
   3  -3   1   83.99    4.30
  -3  -3  -1   84.09    4.10
   3  -3   1   81.19    3.80
   3  -3   1   80.19    4.20
   3   3   1   85.09    4.50
  -3   3  -1   81.29    4.20
  -3   3  -1   86.19    3.80
   3   3   1   79.99    3.80
  -3   3  -1   84.39    4.30
  -3   3  -1   84.29    3.80
  -3   3  -1   77.59    4.10
  -4  -3  -1  135.49    5.90
  -4  -3  -1  146.49    6.30
  -4  -3  -1  138.89    5.40
   4  -3   1  149.88    6.00
   4  -3   1  145.09    6.10
   4  -3   1  144.59    5.60
  -4  -3  -1  142.39    4.60
  -4  -3  -1  147.39    5.40
   4   3   1  143.89    6.30
  -4   3  -1  148.69    6.30
  -4   3  -1  137.69    5.50
  -4   3  -1  152.68    6.40
  -4   3  -1  137.09    5.90
   4   3   1  140.69    5.40
  -4   3  -1  141.89    5.90
  -5  -3  -1    3.20    1.20
  -5  -3  -1    3.00    0.80
   5  -3   1    4.80    1.50
   5  -3   1    5.80    1.80
  -5  -3  -1    2.40    0.90
  -5  -3  -1    3.70    1.60
  -5  -3  -1    4.40    1.10
   5  -3   1    2.80    1.20
   5   3   1    3.80    1.10
   5   3   1    4.70    1.50
  -5   3  -1    4.00    1.30
   5   3   1    2.00    1.10
  -5   3  -1    0.70    1.30
  -5   3  -1    5.10    1.20
  -5   3  -1    3.70    1.30
  -6  -3  -1   68.79    3.30
   6  -3   1   80.69    4.30
  -6  -3  -1   72.59    3.20
  -6  -3  -1   80.99    4.70
   6  -3   1   67.49    4.70
  -6  -3  -1   67.99    4.60
   6  -3   1   80.09    4.60
  -6  -3  -1   70.69    3.40
   6  -3   1   71.99    3.80
   6   3   1   71.79    3.70
  -6   3  -1   75.39    4.20
  -6   3  -1   74.59    4.80
  -6   3  -1   73.89    4.20
   6   3   1   73.09    4.10
  -6   3  -1   75.39    3.90
   6   3   1   78.39    4.80
   7  -3   1   13.20    2.20
  -7  -3  -1   10.70    2.10
  -7  -3  -1   13.50    1.70
  -7  -3  -1    7.80    2.20
   7  -3   1   11.60    2.10
   7  -3   1   11.90    2.40
   7  -3   1   13.00    2.60
  -7  -3  -1   14.00    1.50
  -7  -3  -1   15.00    2.80
   7   3   1   15.70    2.50
   7   3   1   11.70    2.70
  -7   3  -1   14.40    2.10
  -7   3  -1    9.70    2.60
  -7   3  -1   10.70    2.10
   7   3   1   16.60    2.20
   8  -3   1  145.19    7.00
  -8  -3  -1  141.09    7.50
  -8  -3  -1  135.99    5.50
   8  -3   1  143.19    6.20
  -8  -3  -1  144.09    7.20
   8  -3   1  147.39    7.80
  -8  -3  -1  138.99    4.70
  -8   3  -1  140.79    6.10
  -8   3  -1  139.39    6.30
  -8   3  -1  140.09    7.50
   8   3   1  148.99    6.10
   8   3   1  128.19    7.40
   8   3   1  123.99    6.50
   9  -3   1   -1.00    1.20
   9  -3   1    3.00    2.40
   9  -3   1   -1.10    1.60
  -9  -3  -1   -1.00    1.90
  -9  -3  -1   -1.40    1.10
  -9   3  -1   -0.60    1.90
  -9   3  -1   -0.40    1.40
   9   3   1   -1.30    1.40
   9   3   1    3.30    2.20
  -9   3  -1    0.70    1.40
 -10  -3  -1    2.40    2.20
 -10  -3  -1    2.30    2.00
  10  -3   1    5.80    2.80
  10  -3   1    2.10    2.10
 -10   3  -1    3.60    2.50
  10   3   1    1.90    2.40
  10   3   1   -0.10    1.90
 -10   3  -1    3.60    1.60
  11  -3   1    8.00    3.30
 -11  -3  -1   10.50    3.40
 -11  -3  -1   12.90    3.40
  11   3   1    9.20    3.20
  11   3   1   11.90    3.30
 -11   3  -1    9.10    3.30
 -11   3  -1   12.10    2.30
  11  -4  -1    7.50    3.30
 -11  -4   1   10.40    3.50
 -11  -4   1    6.10    2.80
  11   4  -1   10.30    3.50
 -11   4   1   14.60    2.80
  10  -4  -1   17.30    3.10
 -10  -4   1   13.40    3.20
  10  -4  -1   15.60    3.50
 -10  -4   1   18.80    3.70
 -10   4   1   15.60    2.90
 -10   4   1   19.80    3.90
  10   4  -1   14.50    3.60
 -10   4   1   14.80    2.90
  -9  -4   1   61.09    6.00
  -9  -4   1   65.69    5.10
   9  -4  -1   71.39    5.00
   9  -4  -1   59.79    6.40
  -9   4   1   70.79    4.80
  -9   4   1   67.19    6.30
  -9   4   1   68.59    4.70
   9   4  -1   67.29    6.50
  -8  -4   1    7.40    2.50
  -8  -4   1   14.60    1.70
  -8  -4   1   11.50    2.50
   8  -4  -1    5.70    2.60
   8  -4  -1   12.30    2.50
  -8   4   1    8.50    2.70
  -8   4   1    9.30    2.20
   8   4  -1    7.30    2.80
  -8   4   1   12.70    2.40
  -7  -4   1   16.00    3.10
   7  -4  -1   25.20    3.70
   7  -4  -1   23.50    3.20
  -7  -4   1   27.40    2.50
  -7  -4   1   22.90    3.10
   7  -4  -1   23.40    3.10
   7   4  -1   32.10    4.30
  -7   4   1   24.10    3.20
  -7   4   1   20.50    3.20
  -7   4   1   23.60    2.90
  -6  -4   1   10.70    1.80
   6  -4  -1   10.60    2.30
   6  -4  -1    9.00    2.10
  -6  -4   1    8.70    2.10
  -6  -4   1   13.30    2.20
   6  -4  -1   11.00    2.70
  -6  -4   1    8.50    2.40
  -6   4   1   13.70    2.40
   6   4  -1   10.10    1.70
  -6   4   1   12.50    1.60
   6   4  -1    9.90    2.60
  -6   4   1    8.90    2.40
  -6   4   1    9.60    2.20
  -5  -4   1   16.90    2.60
  -5  -4   1   15.00    2.10
  -5  -4   1   16.20    1.80
   5  -4  -1   15.00    1.90
   5  -4  -1   14.90    2.60
   5  -4  -1   23.20    2.90
  -5  -4   1   19.00    2.50
  -5  -4   1   20.10    2.30
  -5   4   1   18.90    1.80
  -5   4   1   14.60    2.40
  -5   4   1   19.20    2.60
  -5   4   1   15.00    2.70
   5   4  -1   16.60    2.10
   5   4  -1   17.70    2.80
   4  -4  -1   11.80    1.70
  -4  -4   1   10.40    2.10
   4  -4  -1   10.70    2.10
  -4  -4   1    6.60    1.60
  -4  -4   1   11.10    1.50
  -4  -4   1    6.30    1.50
  -4  -4   1    9.60    1.90
  -4   4   1   11.00    1.50
  -4   4   1   11.50    2.20
   4   4  -1    8.20    1.60
  -4   4   1    8.20    1.70
  -4   4   1    7.80    1.80
   4   4  -1   11.50    2.40
  -3  -4   1    1.90    0.90
  -3  -4   1   -0.10    1.00
   3  -4  -1   -0.70    1.30
  -3  -4   1    1.60    1.20
  -3  -4   1    0.40    1.10
  -3  -4   1    1.10    1.30
   3  -4  -1   -0.10    0.90
   3  -4  -1    0.60    1.00
  -3   4   1    0.50    0.90
  -3   4   1   -1.20    0.90
   3   4  -1    1.90    1.30
  -3   4   1    1.40    1.00
  -3   4   1    0.60    0.90
   3   4  -1    1.10    1.40
  -3   4   1    2.90    1.30
  -2  -4   1   39.60    2.40
  -2  -4   1   31.70    3.10
   2  -4  -1   42.60    3.30
   2  -4  -1   39.70    3.00
  -2  -4   1   36.70    2.70
   2  -4  -1   41.60    2.70
  -2  -4   1   35.60    3.20
  -2  -4   1   39.60    3.00
  -2   4   1   44.10    3.10
  -2   4   1   37.10    2.90
  -2   4   1   40.30    2.90
   2   4  -1   39.90    3.00
  -2   4   1   37.90    2.50
   2   4  -1   43.50    2.60
  -2   4   1   36.30    2.70
   2   4  -1   36.70    3.10
   1  -4  -1    1.20    1.20
  -1  -4   1    0.80    1.20
   1  -4  -1    0.10    1.30
  -1  -4   1    1.90    1.00
  -1  -4   1   -0.70    0.70
   1  -4  -1    1.30    1.00
   1  -4  -1    0.30    0.90
  -1  -4   1    1.20    1.10
  -1  -4   1   -0.20    1.10
  -1   4   1   -0.40    1.00
   1   4  -1    1.10    0.90
  -1   4   1    0.70    1.30
   1   4  -1   -1.50    1.00
   1   4  -1    0.40    1.10
  -1   4   1   -0.50    0.80
  -1   4   1    2.30    1.20
   0  -4  -1   35.20    3.20
   0  -4   1   29.20    3.00
   0  -4  -1   31.70    3.00
   0  -4   1   30.90    2.90
   0  -4  -1   31.60    2.30
   0  -4  -1   28.80    2.30
   0  -4   1   35.40    3.20
   0  -4   1   38.30    2.90
   0   4  -1   33.60    2.50
   0   4   1   31.10    2.20
   0   4  -1   30.90    2.90
   0   4  -1   39.80    3.10
   0   4   1   31.50    3.10
   0   4  -1   33.10    3.00
   0   4   1   37.60    2.80
   0   4   1   39.50    2.80
  -1  -4  -1  396.46   12.40
  -1  -4  -1  393.96   11.40
   1  -4   1  382.16   12.50
  -1  -4  -1  395.76   12.60
  -1  -4  -1  390.16   12.50
   1  -4   1  355.96   12.50
   1  -4   1  383.16   12.30
  -1  -4  -1  388.96   12.60
   1   4   1  388.66   11.40
  -1   4  -1  392.46   12.30
   1   4   1  380.76   12.50
   1   4   1  379.26   12.30
  -1   4  -1  393.16   12.20
   1   4   1  376.96   12.40
  -1   4  -1  398.16   12.30
  -1   4  -1  394.06   12.80
   2  -4   1   42.90    2.90
  -2  -4  -1   36.10    2.90
  -2  -4  -1   44.80    3.10
  -2  -4  -1   43.90    3.20
   2  -4   1   37.40    3.40
  -2  -4  -1   41.40    3.10
  -2  -4  -1   44.30    2.30
   2  -4   1   46.00    3.50
   2   4   1   35.70    2.90
  -2   4  -1   43.90    3.10
  -2   4  -1   41.40    3.30
   2   4   1   40.20    2.20
  -2   4  -1   43.50    3.20
   2   4   1   52.19    3.40
  -2   4  -1   40.30    2.70
   3  -4   1   10.90    2.20
  -3  -4  -1   13.80    1.30
   3  -4   1   13.50    2.00
  -3  -4  -1   13.20    2.00
  -3  -4  -1   14.80    2.40
  -3  -4  -1   14.20    2.30
  -3  -4  -1   15.80    2.20
  -3   4  -1   11.30    2.10
   3   4   1    8.70    2.00
  -3   4  -1   16.50    2.50
  -3   4  -1   14.80    2.10
  -3   4  -1   15.60    2.00
   3   4   1   11.80    2.00
  -4  -4  -1   53.99    2.40
  -4  -4  -1   52.39    3.90
   4  -4   1   53.79    3.90
  -4  -4  -1   52.99    3.50
  -4  -4  -1   53.19    3.80
   4  -4   1   54.49    3.50
  -4  -4  -1   53.39    3.40
   4   4   1   49.60    3.80
  -4   4  -1   50.59    3.10
  -4   4  -1   54.79    4.00
  -4   4  -1   58.79    3.50
   4   4   1   48.20    3.20
  -4   4  -1   54.59    3.90
  -5  -4  -1  185.98    7.30
  -5  -4  -1  191.98    6.00
   5  -4   1  195.88    7.60
   5  -4   1  194.98    8.10
  -5  -4  -1  205.78    8.30
  -5  -4  -1  190.18    7.30
  -5  -4  -1  202.18    8.40
  -5   4  -1  199.48    8.20
  -5   4  -1  192.08    7.50
   5   4   1  204.48    8.80
  -5   4  -1  188.98    8.40
   5   4   1  197.38    7.30
   6  -4   1  302.67   11.00
  -6  -4  -1  297.57   11.20
  -6  -4  -1  291.17    8.70
  -6  -4  -1  294.07    9.90
   6  -4   1  279.77   11.50
  -6  -4  -1  316.87   11.80
  -6   4  -1  294.47   10.40
  -6   4  -1  302.37   11.00
  -6   4  -1  300.87   11.70
   6   4   1  295.27   10.10
   6   4   1  296.07   11.90
   7  -4   1  157.48    6.90
  -7  -4  -1  166.78    7.80
   7  -4   1  150.98    7.30
  -7  -4  -1  142.59    7.80
  -7  -4  -1  160.08    6.20
   7  -4   1  130.89    7.50
   7   4   1  145.59    7.90
  -7   4  -1  167.58    7.60
  -7   4  -1  161.88    6.90
  -7   4  -1  160.98    8.20
   7   4   1  160.58    6.60
  -8  -4  -1   57.79    3.20
  -8  -4  -1   59.89    5.80
   8  -4   1   62.69    4.40
  -8  -4  -1   59.69    5.40
   8  -4   1   59.89    5.90
   8   4   1   54.69    5.70
  -8   4  -1   58.89    5.70
  -8   4  -1   56.09    4.10
  -8   4  -1   69.79    4.80
   9  -4   1   57.39    6.20
  -9  -4  -1   74.39    6.60
  -9  -4  -1   58.79    5.70
   9  -4   1   53.39    4.70
   9   4   1   47.00    5.60
  -9   4  -1   54.49    5.90
  -9   4  -1   54.99    4.20
  -9   4  -1   57.59    4.50
 -10  -4  -1   17.10    3.90
 -10  -4  -1   13.40    3.40
  10  -4   1   13.80    3.70
 -10   4  -1   14.80    3.80
 -10   4  -1   12.50    2.70
  10   4   1   13.70    3.70
  10  -5  -1   42.20    5.00
  10  -5  -1   43.40    5.70
 -10  -5   1   44.60    5.30
 -10   5   1   36.80    4.50
  10   5  -1   44.20    6.10
  -9  -5   1   52.59    6.00
   9  -5  -1   45.90    5.70
   9  -5  -1   40.80    4.60
  -9  -5   1   33.90    4.40
  -9   5   1   39.90    5.20
  -9   5   1   38.70    4.60
   9   5  -1   38.80    5.50
  -9   5   1   40.80    4.60
  -8  -5   1   29.80    2.90
  -8  -5   1   21.20    4.10
   8  -5  -1   25.20    3.80
  -8  -5   1   28.90    4.00
   8  -5  -1   30.90    4.50
   8   5  -1   28.50    4.70
  -8   5   1   27.30    3.80
  -8   5   1   33.90    4.00
  -8   5   1   22.90    4.00
  -7  -5   1   10.20    2.70
   7  -5  -1    9.50    2.70
   7  -5  -1    8.70    2.70
   7  -5  -1   13.80    2.70
  -7  -5   1   10.30    2.00
  -7  -5   1    8.40    2.90
  -7   5   1   10.50    2.50
  -7   5   1   17.90    3.20
   7   5  -1    7.50    2.40
  -7   5   1   15.40    3.10
  -6  -5   1   42.90    4.40
  -6  -5   1   38.40    3.60
  -6  -5   1   38.60    4.60
   6  -5  -1   42.90    4.70
   6  -5  -1   43.50    3.40
   6  -5  -1   36.60    4.20
   6   5  -1   39.10    4.80
  -6   5   1   40.80    4.10
  -6   5   1   42.10    4.60
  -6   5   1   36.50    4.20
  -5  -5   1  313.07   12.10
  -5  -5   1  298.27   10.90
  -5  -5   1  293.27   11.30
   5  -5  -1  300.17   11.60
   5  -5  -1  313.27   10.50
   5  -5  -1  307.87   11.80
  -5   5   1  307.77   10.80
  -5   5   1  302.87   11.70
  -5   5   1  292.17   11.60
  -5   5   1  301.87   11.20
   5   5  -1  307.77   10.80
   5   5  -1  295.97   12.20
  -4  -5   1  113.59    6.70
  -4  -5   1  105.69    6.20
   4  -5  -1  109.99    6.10
   4  -5  -1  113.39    5.20
  -4  -5   1  113.69    5.80
  -4  -5   1  106.59    5.80
   4   5  -1  111.09    5.70
  -4   5   1  118.79    6.20
   4   5  -1  102.59    6.30
  -4   5   1  113.99    5.90
  -4   5   1  113.59    6.40
  -4   5   1  117.59    4.90
  -3  -5   1    0.30    1.10
   3  -5  -1   -1.00    1.10
  -3  -5   1   -0.60    1.20
   3  -5  -1    0.10    1.60
  -3  -5   1   -1.10    1.40
   3  -5  -1   -0.50    1.70
   3   5  -1    1.30    1.40
  -3   5   1   -0.70    1.50
  -3   5   1   -0.50    1.40
  -3   5   1    1.30    1.10
  -3   5   1    0.10    1.30
   3   5  -1   -4.30    1.20
  -2  -5   1   24.60    3.10
   2  -5  -1   34.00    3.10
  -2  -5   1   27.70    3.30
   2  -5  -1   27.90    3.40
  -2  -5   1   31.20    3.30
   2  -5  -1   26.10    3.40
   2   5  -1   32.60    2.80
  -2   5   1   29.30    3.30
   2   5  -1   36.30    3.60
   2   5  -1   27.50    3.30
  -2   5   1   32.30    2.70
  -2   5   1   32.20    3.20
  -2   5   1   31.90    3.70
  -1  -5   1   15.60    2.60
   1  -5  -1   18.90    2.90
   1  -5  -1   15.80    2.60
  -1  -5   1   21.40    2.80
   1  -5  -1   21.00    2.60
  -1  -5   1   16.70    2.60
  -1   5   1   18.90    2.40
   1   5  -1   18.70    2.20
  -1   5   1   17.30    2.40
   1   5  -1   17.10    2.80
  -1   5   1   20.70    2.80
   1   5  -1   20.80    2.90
  -1   5   1   16.80    2.80
   0  -5  -1  183.18    7.90
   0  -5   1  190.28    8.10
   0  -5  -1  183.58    7.50
   0  -5  -1  185.88    8.00
   0  -5   1  184.68    7.70
   0  -5   1  199.88    8.00
   0   5  -1  184.48    7.70
   0   5  -1  189.88    7.30
   0   5   1  186.18    7.60
   0   5   1  179.98    7.70
   0   5  -1  183.98    8.00
   0   5   1  184.08    6.90
   0   5   1  176.38    7.90
   1  -5   1   16.60    2.70
  -1  -5  -1   13.60    2.50
  -1  -5  -1   19.40    2.80
  -1  -5  -1   15.80    2.30
   1  -5   1   15.80    2.50
   1  -5   1   18.80    2.90
  -1  -5  -1   18.90    2.10
  -1   5  -1   12.70    2.50
   1   5   1   14.10    1.80
  -1   5  -1   14.90    2.40
  -1   5  -1   16.90    2.40
   1   5   1   12.30    2.40
  -1   5  -1   19.00    2.70
   1   5   1   15.70    2.60
  -2  -5  -1  115.89    5.90
  -2  -5  -1  115.39    4.60
   2  -5   1  122.19    6.20
  -2  -5  -1  123.49    6.10
   2  -5   1  121.89    5.80
  -2  -5  -1  118.09    6.10
   2  -5   1  111.69    6.10
  -2   5  -1  123.79    5.90
  -2   5  -1  107.59    5.60
   2   5   1  113.09    6.10
  -2   5  -1  116.09    5.40
   2   5   1  120.49    6.00
  -2   5  -1  123.09    6.40
   2   5   1  120.09    4.70
  -3  -5  -1   20.50    2.80
  -3  -5  -1   23.00    3.20
   3  -5   1   15.40    2.80
  -3  -5  -1   16.30    1.70
   3  -5   1   18.90    2.60
  -3  -5  -1   16.90    2.70
  -3   5  -1   20.30    3.00
  -3   5  -1   14.40    2.30
  -3   5  -1   15.90    2.70
  -3   5  -1   14.90    2.50
   3   5   1   15.40    2.90
   3   5   1   16.80    2.60
  -4  -5  -1  279.67   10.80
  -4  -5  -1  268.87   10.30
   4  -5   1  286.47   10.30
   4  -5   1  289.87   11.20
  -4  -5  -1  271.47   10.80
  -4   5  -1  263.67   10.80
   4   5   1  289.97   10.40
  -4   5  -1  283.67   10.40
   4   5   1  269.37   11.20
  -4   5  -1  279.77    9.70
  -4   5  -1  288.97   11.20
   5  -5   1   10.60    2.70
  -5  -5  -1    5.80    2.20
   5  -5   1    9.40    2.10
  -5  -5  -1    5.60    2.10
  -5  -5  -1    7.30    2.60
   5   5   1    7.70    2.70
  -5   5  -1    7.30    2.20
  -5   5  -1    8.60    1.80
  -5   5  -1    5.80    2.00
   5   5   1    3.30    1.90
  -5   5  -1    4.80    2.20
   6  -5   1   -0.10    1.70
  -6  -5  -1    1.90    1.50
   6  -5   1    3.10    2.10
  -6  -5  -1   -1.20    1.70
  -6  -5  -1    4.30    2.40
  -6   5  -1   -0.30    1.70
  -6   5  -1    4.30    1.90
  -6   5  -1    0.30    2.00
   6   5   1    1.40    2.20
   7  -5   1   10.70    3.10
   7  -5   1   11.40    2.50
  -7  -5  -1    9.30    2.10
  -7  -5  -1   11.80    3.10
  -7  -5  -1   10.90    2.70
   7   5   1   12.90    3.10
  -7   5  -1   10.90    3.10
  -7   5  -1    8.20    2.60
   7   5   1   12.90    2.40
  -7   5  -1   13.90    2.60
  -8  -5  -1    1.50    1.90
  -8  -5  -1    0.60    1.40
   8  -5   1    0.70    1.80
  -8  -5  -1   -0.80    2.10
   8  -5   1    3.00    2.50
  -8   5  -1    0.70    1.50
   8   5   1    2.40    2.60
  -8   5  -1    1.10    2.30
  -8   5  -1   -1.40    1.80
   9  -5   1   23.30    4.20
  -9  -5  -1   39.50    5.40
  -9  -5  -1   40.20    5.00
   9  -5   1   28.00    3.80
  -9   5  -1   31.70    4.20
   9   5   1   34.40    5.20
  -9   5  -1   28.10    4.80
 -10  -5  -1   13.50    3.50
  10   5   1   21.70    4.40
 -10   5  -1   15.40    3.60
  -8  -6   1   -0.60    1.60
  -8  -6   1   -2.50    1.90
  -8  -6   1    1.60    2.60
   8  -6  -1    0.90    2.10
   8  -6  -1    0.50    2.40
  -8   6   1   -0.30    2.40
  -8   6   1   -2.00    1.70
   8   6  -1   -0.40    1.90
  -8   6   1   -0.20    2.60
   7  -6  -1   92.09    6.40
  -7  -6   1   92.39    7.00
   7  -6  -1  100.39    6.50
  -7  -6   1  104.99    5.80
  -7  -6   1   89.79    6.40
  -7   6   1   96.49    6.70
   7   6  -1   99.09    7.40
  -7   6   1   86.99    6.10
  -7   6   1   98.49    7.10
  -6  -6   1  180.68    9.20
  -6  -6   1  161.88    7.60
   6  -6  -1  162.58    8.60
   6  -6  -1  149.29    8.30
  -6  -6   1  147.09    8.00
   6   6  -1  154.18    8.80
  -6   6   1  164.28    8.80
  -6   6   1  148.29    8.20
  -6   6   1  165.38    8.20
   5  -6  -1  388.66   14.90
  -5  -6   1  398.66   15.20
  -5  -6   1  404.16   14.20
   5  -6  -1  398.26   13.40
  -5  -6   1  399.36   14.60
   5  -6  -1  380.16   14.60
   5   6  -1  378.36   15.30
  -5   6   1  399.06   14.90
  -5   6   1  418.86   14.70
  -5   6   1  391.76   15.00
   4  -6  -1  194.48    8.10
  -4  -6   1  199.48    8.90
  -4  -6   1  202.58    9.50
  -4  -6   1  201.48    8.90
   4  -6  -1  191.48    9.40
  -4   6   1  193.88    8.90
   4   6  -1  191.88    9.40
   4   6  -1  176.68    8.40
  -4   6   1  204.08    9.60
  -4   6   1  200.88    9.10
   3  -6  -1   38.50    3.90
   3  -6  -1   34.50    4.50
  -3  -6   1   25.70    3.70
   3  -6  -1   28.30    4.00
  -3  -6   1   27.70    3.70
  -3  -6   1   34.70    4.10
  -3   6   1   30.40    4.00
   3   6  -1   30.80    3.70
  -3   6   1   34.60    3.90
  -3   6   1   29.30    3.80
  -3   6   1   27.00    3.10
   3   6  -1   32.40    4.30
   2  -6  -1    2.20    1.60
   2  -6  -1    3.00    2.20
  -2  -6   1    5.40    2.20
  -2  -6   1    1.80    1.80
   2  -6  -1    2.90    2.10
  -2  -6   1   -0.60    1.80
   2   6  -1    2.00    1.30
  -2   6   1    2.60    2.20
   2   6  -1    0.40    1.80
   2   6  -1    1.60    2.00
  -2   6   1    4.90    1.90
  -2   6   1    4.50    1.80
  -2   6   1    2.60    2.00
  -1  -6   1   27.00    3.60
   1  -6  -1   31.00    3.50
  -1  -6   1   27.90    3.70
   1  -6  -1   32.00    4.10
  -1  -6   1   27.60    3.80
   1  -6  -1   30.00    3.90
   1   6  -1   33.00    3.90
  -1   6   1   29.80    3.40
  -1   6   1   41.80    4.50
   1   6  -1   28.30    3.10
  -1   6   1   31.20    3.30
   1   6  -1   32.30    4.00
  -1   6   1   26.10    3.60
   0  -6  -1   -0.60    1.60
   0  -6  -1    6.70    2.40
   0  -6   1   -0.60    1.70
   0  -6   1   -0.30    1.60
   0  -6   1    1.30    2.00
   0  -6  -1   -1.30    1.80
   0   6   1    0.60    1.60
   0   6   1    2.80    1.50
   0   6  -1    2.70    2.10
   0   6   1    3.50    1.80
   0   6  -1   -0.20    1.70
   0   6  -1   -1.40    1.20
   0   6   1   -3.10    1.50
   1  -6   1    1.80    2.10
  -1  -6  -1   -0.60    1.80
   1  -6   1    1.80    1.90
  -1  -6  -1    2.00    1.90
   1  -6   1    3.90    2.20
  -1  -6  -1    3.30    1.80
  -1   6  -1    2.10    1.70
  -1   6  -1    2.80    1.60
   1   6   1    3.40    2.00
   1   6   1    1.40    1.80
  -1   6  -1    3.70    2.20
   1   6   1    2.20    1.40
  -1   6  -1    2.30    1.90
   2  -6   1   -1.70    1.30
   2  -6   1   -0.90    1.30
  -2  -6  -1   -1.70    1.70
  -2  -6  -1   -1.50    1.60
  -2  -6  -1   -0.80    1.70
   2  -6   1    0.30    1.70
  -2   6  -1    0.90    1.80
  -2   6  -1   -3.00    1.30
   2   6   1   -1.70    1.60
   2   6   1   -0.70    1.90
   2   6   1   -2.90    0.90
  -2   6  -1    0.60    1.90
  -2   6  -1   -2.80    1.40
   3  -6   1  636.84   20.20
  -3  -6  -1  669.93   21.20
   3  -6   1  632.14   21.30
  -3  -6  -1  656.03   21.00
  -3  -6  -1  669.93   21.00
   3   6   1  640.64   21.30
  -3   6  -1  657.63   21.50
  -3   6  -1  655.23   20.80
  -3   6  -1  627.64   19.70
   3   6   1  646.04   20.70
  -3   6  -1  627.94   20.50
   4  -6   1   14.50    3.10
   4  -6   1   11.60    2.50
  -4  -6  -1    9.00    2.80
  -4  -6  -1   10.20    2.80
  -4  -6  -1    7.40    2.40
  -4   6  -1    6.10    2.30
   4   6   1   11.90    3.20
   4   6   1   10.30    3.00
  -4   6  -1   11.30    2.70
  -4   6  -1    6.80    2.10
  -4   6  -1   10.20    2.90
  -5  -6  -1    3.80    2.10
  -5  -6  -1   -2.70    1.80
   5  -6   1    3.10    1.80
   5  -6   1    0.70    2.30
  -5  -6  -1    1.90    2.20
  -5   6  -1    3.00    2.40
   5   6   1    0.80    2.40
  -5   6  -1    2.70    1.60
  -5   6  -1   -1.80    1.90
  -6  -6  -1   29.40    4.60
  -6  -6  -1   31.10    4.30
   6  -6   1   32.50    4.50
   6  -6   1   36.00    4.80
  -6  -6  -1   25.00    3.50
  -6   6  -1   33.90    4.10
  -6   6  -1   26.50    4.00
   6   6   1   24.90    4.40
  -6   6  -1   28.50    4.20
  -7  -6  -1    0.50    2.50
   7  -6   1    4.10    2.70
  -7  -6  -1   -1.20    2.10
   7  -6   1    3.70    2.10
  -7  -6  -1    0.80    1.90
  -7   6  -1   -1.50    2.10
  -7   6  -1    2.30    2.50
   7   6   1   -0.40    2.60
  -7   6  -1    4.40    2.20
  -8  -6  -1    2.20    1.90
  -8  -6  -1   -0.50    2.40
   8  -6   1    4.80    2.40
   8  -6   1    4.10    2.90
  -8  -6  -1    1.40    3.10
  -8   6  -1    3.80    2.40
  -8   6  -1    0.30    2.70
  -8   6  -1    3.80    2.60
   8   6   1    2.70    2.40
  -7  -7   1   19.60    4.20
   7  -7  -1   20.20    4.10
   7  -7  -1   16.60    3.80
  -7  -7   1   20.70    3.60
  -7   7   1   15.90    3.70
   7   7  -1   29.00    5.20
   6  -7  -1   -1.10    2.00
  -6  -7   1   -2.20    2.10
  -6  -7   1    1.40    2.80
   6  -7  -1   12.90    3.90
  -6  -7   1    2.70    2.50
   6   7  -1    0.40    2.80
  -6   7   1    4.00    2.30
  -6   7   1   -0.80    2.10
  -6   7   1    5.80    2.90
  -5  -7   1   22.00    3.80
  -5  -7   1   23.80    4.00
   5  -7  -1   23.20    3.90
   5  -7  -1   26.50    4.50
  -5  -7   1   21.00    3.90
  -5   7   1   25.00    4.20
  -5   7   1   31.80    4.90
   5   7  -1   21.20    4.40
  -5   7   1   27.10    4.20
   4  -7  -1   14.40    3.70
   4  -7  -1   18.40    3.10
  -4  -7   1   15.10    3.60
  -4  -7   1   22.80    3.90
  -4  -7   1   11.00    3.10
  -4   7   1   12.80    3.10
  -4   7   1   28.30    4.60
  -4   7   1   18.50    3.70
   4   7  -1   14.30    3.70
  -3  -7   1   51.19    5.60
  -3  -7   1   48.80    5.20
  -3  -7   1   59.69    5.70
   3  -7  -1   53.79    5.00
   3  -7  -1   59.39    6.20
   3   7  -1   52.19    5.90
  -3   7   1   72.49    6.60
  -3   7   1   57.69    5.20
  -3   7   1   56.19    5.60
   2  -7  -1    4.20    2.60
  -2  -7   1    2.20    2.20
  -2  -7   1   -0.90    1.90
   2  -7  -1    2.00    2.10
   2  -7  -1    1.00    2.10
  -2  -7   1    0.30    2.10
  -2   7   1    0.90    1.80
  -2   7   1   -0.60    2.10
  -2   7   1    0.60    2.10
   2   7  -1   -3.20    1.80
  -2   7   1    3.20    1.90
   2   7  -1   -0.20    2.00
  -1  -7   1   18.10    3.60
  -1  -7   1   20.10    3.50
   1  -7  -1   16.30    3.70
   1  -7  -1   13.70    2.90
   1  -7  -1   17.70    3.60
  -1  -7   1   11.40    3.10
  -1   7   1   16.00    3.40
  -1   7   1   12.70    3.30
  -1   7   1   12.00    2.60
   1   7  -1   12.40    2.40
   1   7  -1   14.60    3.40
   1   7  -1   20.60    3.70
  -1   7   1   16.50    3.20
   0  -7  -1   78.39    6.00
   0  -7  -1   93.79    6.00
   0  -7   1   76.29    5.70
   0  -7   1   69.79    6.40
   0  -7   1   90.89    6.20
   0  -7  -1   81.99    6.40
   0   7  -1   79.89    5.70
   0   7  -1   78.49    5.30
   0   7   1   78.69    6.30
   0   7  -1   70.99    6.50
   0   7   1   77.79    5.70
   0   7   1   79.09    4.90
  -1  -7  -1    3.30    2.30
   1  -7   1    6.10    2.80
   1  -7   1    5.40    2.50
   1  -7   1   -1.10    2.10
  -1  -7  -1    2.30    2.50
  -1  -7  -1    4.20    2.40
   1   7   1    2.90    2.50
  -1   7  -1    8.20    2.90
  -1   7  -1    1.30    2.20
  -1   7  -1    0.90    2.00
   1   7   1    4.80    2.70
  -2  -7  -1   -1.70    1.70
   2  -7   1   -1.10    1.80
   2  -7   1    1.90    2.40
  -2  -7  -1    0.00    2.10
  -2  -7  -1    2.10    2.30
  -2   7  -1   -1.30    1.70
   2   7   1    0.90    2.40
  -2   7  -1   -1.30    1.60
   2   7   1   -0.60    2.10
  -2   7  -1    2.00    2.60
  -3  -7  -1    2.30    1.90
   3  -7   1    1.50    2.00
   3  -7   1    8.60    3.10
  -3  -7  -1    4.70    2.60
  -3  -7  -1    4.50    2.50
  -3   7  -1    6.50    3.00
  -3   7  -1    3.60    2.00
  -3   7  -1    5.70    2.60
  -3   7  -1    4.80    2.60
   3   7   1    5.50    2.90
   4  -7   1    3.60    2.80
  -4  -7  -1   15.80    3.30
  -4  -7  -1   11.60    3.10
  -4  -7  -1   12.00    3.20
   4  -7   1   10.10    2.70
  -4   7  -1    7.10    2.80
   4   7   1    3.80    2.90
  -4   7  -1   13.50    3.60
  -4   7  -1   10.90    2.90
  -5  -7  -1   -2.50    2.10
   5  -7   1   -1.80    2.00
  -5  -7  -1   -1.40    2.10
   5  -7   1    2.10    2.80
  -5  -7  -1    0.90    2.70
  -5   7  -1   -1.40    2.20
  -5   7  -1    0.90    2.20
   5   7   1    1.80    2.70
  -5   7  -1    6.70    2.80
  -6  -7  -1   39.20    4.80
  -6  -7  -1   32.50    4.90
  -6  -7  -1   20.70    4.80
   6  -7   1   36.20    5.20
  -6   7  -1   32.50    5.10
  -6   7  -1   39.60    5.00
   6   7   1   37.60    5.60
   3  -8  -1   19.10    4.40
  -3  -8   1   15.90    4.00
  -3  -8   1   19.00    4.20
  -3   8   1   15.30    4.30
  -3   8   1   21.00    3.90
   3   8  -1   21.40    4.50
  -2  -8   1   38.40    5.10
   2  -8  -1   30.10    4.20
   2  -8  -1   28.40    5.10
  -2  -8   1   32.70    5.00
   2  -8  -1   25.40    4.70
   2   8  -1   29.80    4.80
  -2   8   1   28.40    5.00
  -1  -8   1    8.50    3.30
   1  -8  -1    8.30    3.30
   1  -8  -1   11.60    3.70
  -1  -8   1    9.20    3.40
  -1  -8   1    8.90    3.10
   1  -8  -1   14.10    3.50
  -1   8   1   12.40    3.70
  -1   8   1    6.80    2.70
   1   8  -1    3.80    3.10
   1   8  -1    9.40    3.30
   0  -8  -1   36.70    5.30
   0  -8  -1   37.60    5.50
   0  -8   1   40.90    5.10
   0  -8   1   33.90    5.30
   0  -8  -1   49.90    5.50
   0  -8   1   46.90    5.40
   0   8  -1   31.10    5.00
   0   8   1   39.60    5.30
   0   8  -1   35.70    4.90
   0   8   1   41.90    5.30
   1  -8   1    9.40    3.50
  -1  -8  -1    7.00    3.10
   1  -8   1    3.20    2.70
   1  -8   1    4.00    2.90
  -1  -8  -1    2.50    2.70
  -1  -8  -1    4.00    3.00
  -1   8  -1    3.40    2.40
   1   8   1    3.70    2.90
   1   8   1    0.40    2.40
  -1   8  -1    3.20    2.80
  -1   8  -1    3.30    2.80
   2  -8   1    3.30    3.30
  -2  -8  -1    5.40    2.90
   2  -8   1    5.60    3.00
  -2  -8  -1    3.20    2.80
  -2   8  -1    8.10    2.90
  -2   8  -1    5.20    2.80
   2   8   1    2.70    2.90
  -2   8  -1    5.00    3.20
  -3  -8  -1   16.40    3.90
   3  -8   1   15.60    4.20
  -3  -8  -1   12.00    3.60
   3  -8   1   20.20    4.00
  -3   8  -1   13.40    3.50
  -3   8  -1   10.60    3.90
   3   8   1   10.00    3.70
 -12   0   2  154.18    8.50
 -12   0   2  169.28    8.30
  12   0  -2  149.09    9.10
 -12   0   2  155.78    8.50
  11   0  -2    0.60    2.10
 -11   0   2   -1.00    1.50
 -11   0   2    0.80    1.50
  11   0  -2    0.40    1.60
 -11   0   2    2.60    2.10
 -11   0   2   -1.00    1.50
 -10   0   2   53.79    4.10
  10   0  -2   52.89    5.40
 -10   0   2   58.99    4.60
  10   0  -2   54.29    4.00
  10   0  -2   49.80    3.80
 -10   0   2   58.09    3.90
 -10   0   2   60.39    4.60
   9   0  -2 1462.45   42.00
  -9   0   2 1494.65   41.20
   9   0  -2 1521.65   40.40
  -9   0   2 1424.06   40.10
   9   0  -2 1462.65   40.50
   8   0  -2   99.09    4.10
  -8   0   2   90.99    5.00
   8   0  -2   89.89    5.30
  -8   0   2  100.29    4.80
   8   0  -2   97.09    4.60
   8   0  -2   92.49    4.70
  -7   0   2   85.29    4.60
   7   0  -2   95.59    4.50
   7   0  -2   95.19    5.10
  -7   0   2   88.59    4.30
   7   0  -2   96.69    4.40
   7   0  -2   97.39    3.80
   6   0  -2   35.80    2.80
   6   0  -2   35.80    2.30
   6   0  -2   30.90    2.30
  -6   0   2   33.10    2.30
  -6   0   2   30.30    2.50
  -5   0   2   39.70    2.30
   5   0  -2   42.80    2.50
  -5   0   2   38.50    1.20
   5   0  -2   35.10    2.50
   5   0  -2   41.60    1.20
   5   0  -2   39.20    1.20
  -5   0   2   40.30    1.20
  -5   0   2   38.10    2.50
   5   0  -2   41.90    2.30
   4   0  -2   10.00    0.60
  -4   0   2    8.80    0.50
   4   0  -2    9.60    1.40
   4   0  -2    9.00    1.20
  -4   0   2   10.00    1.20
   4   0  -2    9.30    0.50
  -4   0   2    9.50    0.60
   4   0  -2   11.00    1.20
   3   0  -2  645.14   16.50
   3   0  -2  618.64   17.00
   3   0  -2  614.24   15.90
  -3   0   2  606.04   15.90
  -3   0   2  607.34   16.40
  -3   0   2  611.04   16.70
  -3   0   2  604.04   15.90
  -2   0   2 2456.65   66.49
   2   0  -2 2646.74   66.99
  -2   0   2 2467.65   66.99
   2   0  -2 2547.55   66.69
   2   0  -2 2601.14   66.59
  -2   0   2 2747.72   67.79
  -2   0   2 2526.15   67.39
   1   0  -2 2112.99   53.09
   1   0  -2 1871.11   53.89
   1   0  -2 2201.58   54.39
   0   0   2  586.14   16.70
   0   0  -2  677.13   16.80
  -1   0  -2  148.29    4.40
   1   0   2  151.68    4.40
  -1   0  -2  141.09    4.40
  -1   0  -2  137.89    4.30
   1   0   2  152.18    4.30
  -2   0  -2  148.59    4.50
  -2   0  -2  140.19    4.50
  -2   0  -2  142.09    4.00
   2   0   2  147.99    4.50
   2   0   2  151.58    4.70
   2   0   2  142.69    4.50
  -2   0  -2  147.59    4.60
   2   0   2  143.89    4.50
   3   0   2  126.89    4.40
  -3   0  -2  131.69    4.40
   3   0   2  129.59    4.10
   3   0   2  131.99    4.10
  -3   0  -2  124.59    4.10
  -3   0  -2  128.79    4.10
   3   0   2  130.39    4.60
  -3   0  -2  125.39    3.80
  -4   0  -2   27.90    1.50
   4   0   2   28.60    1.90
   4   0   2   27.90    2.10
  -4   0  -2   26.10    1.30
   4   0   2   28.40    1.90
  -4   0  -2   25.60    1.80
  -4   0  -2   27.40    1.50
   4   0   2   27.20    1.50
  -5   0  -2    0.60    0.50
   5   0   2    1.10    0.80
  -5   0  -2    1.80    0.80
   5   0   2    3.00    0.70
  -5   0  -2    1.50    0.60
   5   0   2    1.60    0.80
   5   0   2    4.00    1.20
  -5   0  -2    2.70    0.70
  -6   0  -2  224.48    8.10
  -6   0  -2  229.18    7.00
   6   0   2  245.48    7.50
   6   0   2  230.08    8.60
  -6   0  -2  229.08    7.20
   6   0   2  240.78    8.10
   6   0   2  240.48    7.10
  -6   0  -2  234.28    7.10
   7   0   2  126.89    5.90
   7   0   2  120.59    5.30
   7   0   2  125.19    4.50
  -7   0  -2  117.79    5.40
   7   0   2  121.69    4.10
  -7   0  -2  121.09    4.20
  -7   0  -2  124.09    4.60
  -7   0  -2  116.69    4.20
   8   0   2  411.26   13.40
  -8   0  -2  427.36   13.90
  -8   0  -2  419.66   14.50
   8   0   2  408.16   14.60
  -8   0  -2  413.46   11.80
  -8   0  -2  418.56   11.80
  -8   0  -2  431.86   12.60
   8   0   2  456.75   13.10
  -9   0  -2  600.14   19.90
  -9   0  -2  607.24   16.20
  -9   0  -2  629.24   19.20
   9   0   2  575.94   19.80
  -9   0  -2  616.24   17.60
   9   0   2  630.74   18.70
 -10   0  -2    1.70    1.60
 -10   0  -2   -3.30    1.70
  10   0   2    1.80    1.80
  10   0   2    1.40    1.90
 -11   0  -2    4.00    2.70
  11   0   2    5.00    2.10
 -11   0  -2    3.40    2.30
 -12   0  -2   17.00    3.70
 -12   0  -2   13.50    3.10
  12   0   2   13.70    3.60
 -12  -1   2   30.20    4.40
 -12  -1   2   26.50    4.00
 -12  -1   2   27.70    3.90
  12  -1  -2   30.30    4.90
 -12   1   2   28.90    4.40
  12   1  -2   41.90    5.40
  12   1  -2   17.80    3.40
 -11  -1   2   69.89    5.20
 -11  -1   2   73.69    5.20
  11  -1  -2   69.49    4.70
 -11  -1   2   79.99    5.50
  11  -1  -2   62.39    6.30
 -11  -1   2   72.09    4.70
 -11   1   2   66.59    5.20
  11   1  -2   65.89    6.40
 -11   1   2   69.79    4.60
  11   1  -2   67.49    4.60
  11   1  -2   73.69    5.20
 -10  -1   2   97.99    5.90
  10  -1  -2  101.49    6.70
 -10  -1   2  113.19    6.30
  10  -1  -2  107.79    5.60
 -10  -1   2  105.69    5.90
 -10  -1   2  111.69    5.70
  10   1  -2  103.19    6.40
  10   1  -2  105.99    6.30
 -10   1   2  110.09    5.60
  10   1  -2  107.29    5.60
 -10   1   2  114.19    6.60
  -9  -1   2  123.49    6.20
  -9  -1   2  132.19    6.50
  -9  -1   2  124.69    6.10
  -9  -1   2  122.09    5.80
   9  -1  -2  118.39    5.80
   9  -1  -2  120.49    5.40
   9  -1  -2  122.49    6.90
   9   1  -2  127.19    6.00
  -9   1   2  121.49    5.70
  -9   1   2  118.59    6.60
   9   1  -2  146.59    6.70
   9   1  -2  127.19    6.70
  -9   1   2  123.59    4.00
   8  -1  -2  301.07   11.60
  -8  -1   2  306.97   10.90
   8  -1  -2  303.87    8.70
   8  -1  -2  312.67   10.00
  -8  -1   2  308.07   10.90
  -8  -1   2  321.67   10.80
   8  -1  -2  311.07   10.40
  -8  -1   2  316.37   10.50
  -8   1   2  303.37    8.80
  -8   1   2  299.07   10.30
   8   1  -2  299.07   10.90
  -8   1   2  306.27   11.30
   8   1  -2  301.87   11.40
   8   1  -2  320.37   10.50
  -8   1   2  300.77    8.80
   7  -1  -2   42.00    2.80
  -7  -1   2   36.80    2.90
   7  -1  -2   37.20    2.00
  -7  -1   2   39.30    3.00
   7  -1  -2   40.00    3.80
  -7  -1   2   31.10    2.90
   7  -1  -2   38.70    2.50
  -7  -1   2   40.60    2.80
   7  -1  -2   43.00    2.40
   7   1  -2   43.70    2.90
  -7   1   2   30.70    3.20
   7   1  -2   37.60    3.10
  -7   1   2   36.90    2.00
  -7   1   2   40.90    2.80
   7   1  -2   32.70    3.50
  -7   1   2   34.20    2.00
   6  -1  -2   15.90    2.20
  -6  -1   2   13.20    1.80
   6  -1  -2   16.50    1.40
   6  -1  -2   17.90    2.00
   6  -1  -2   15.40    1.70
  -6  -1   2   16.00    1.90
   6   1  -2   17.90    2.20
   6   1  -2   15.00    1.90
  -6   1   2   13.40    1.30
  -6   1   2   13.50    1.70
  -6   1   2   14.70    2.10
  -6   1   2   14.80    1.30
   6   1  -2   17.00    2.20
  -5  -1   2 1327.77   35.40
  -5  -1   2 1293.27   35.10
   5  -1  -2 1331.07   35.20
   5  -1  -2 1295.27   35.90
   5  -1  -2 1344.67   35.10
   5  -1  -2 1363.66   34.90
   5  -1  -2 1350.86   34.40
   5   1  -2 1320.47   35.50
  -5   1   2 1325.17   35.10
  -5   1   2 1293.77   34.30
  -5   1   2 1322.77   34.40
   5   1  -2 1308.77   35.10
  -5   1   2 1293.17   35.60
   5   1  -2 1309.37   35.80
  -4  -1   2    0.90    0.90
   4  -1  -2    0.10    0.60
  -4  -1   2    0.70    0.30
  -4  -1   2    1.30    0.30
   4  -1  -2    0.90    0.80
   4  -1  -2    1.20    0.80
   4  -1  -2   -0.50    0.80
  -4  -1   2   -0.10    0.70
   4  -1  -2    1.30    0.70
   4   1  -2    2.30    1.00
  -4   1   2    1.80    1.00
  -4   1   2    0.90    0.60
  -4   1   2    1.20    0.70
   4   1  -2    1.90    0.40
   4   1  -2    1.40    0.80
  -4   1   2    0.00    0.70
   3  -1  -2  954.00   25.00
   3  -1  -2  971.80   24.70
  -3  -1   2  944.51   25.00
  -3  -1   2  927.41   24.70
   3  -1  -2  977.50   25.10
   3  -1  -2  928.61   24.70
   3  -1  -2  945.21   25.30
  -3  -1   2  920.11   24.20
  -3  -1   2  924.31   24.20
  -3   1   2  915.11   25.20
  -3   1   2  929.21   25.00
  -3   1   2  918.21   24.70
  -3   1   2  919.31   24.70
  -3   1   2  943.21   24.30
   3   1  -2  933.81   25.00
   3   1  -2  955.20   25.20
   3   1  -2  956.80   24.20
   3   1  -2  936.91   25.30
   3   1  -2  957.80   25.00
  -2  -1   2 1880.41   48.90
   2  -1  -2 2064.19   49.50
  -2  -1   2 1836.72   49.70
   2  -1  -2 1962.80   49.30
  -2  -1   2 1932.31   49.40
  -2  -1   2 1865.11   49.90
   2  -1  -2 1951.00   49.40
   2  -1  -2 1958.50   49.40
   2  -1  -2 1920.11   49.30
  -2   1   2 1908.71   49.50
   2   1  -2 1972.00   49.60
   2   1  -2 1767.72   49.30
  -2   1   2 1949.01   49.40
  -2   1   2 1902.91   49.30
   2   1  -2 1915.71   49.90
   2   1  -2 1908.71   49.00
  -2   1   2 1918.51   49.30
   2   1  -2 1921.01   49.60
  -2   1   2 1942.51   49.50
  -2   1   2 1967.50   49.40
   2   1  -2 1868.71   49.40
  -1  -1   2 6870.31  167.28
   1  -1  -2 6094.99  166.08
   1  -1  -2 6532.95  168.28
   1  -1  -2 6939.41  166.78
  -1  -1   2 6464.55  168.08
   1  -1  -2 7013.20  167.98
   1  -1  -2 6615.84  168.08
  -1  -1   2 6254.17  167.58
  -1  -1   2 5856.91  164.98
  -1  -1   2 6360.16  167.18
   1   1  -2 6723.43  168.48
   1   1  -2 6032.00  167.18
  -1   1   2 6548.25  168.28
   1   1  -2 6619.84  167.28
   1   1  -2 5715.43  165.08
  -1   1   2 6333.57  167.28
   1   1  -2 6461.55  166.98
  -1   1   2 6380.66  164.48
  -1   1   2 6701.73  166.08
  -1   1   2 7116.09  165.08
   1   1  -2 5832.82  166.08
  -1   1   2 6691.13  167.48
  -1   1   2 6313.87  166.98
   0  -1  -2  883.11   23.40
   0  -1   2  892.91   23.50
   0  -1  -2  879.31   23.50
   0  -1  -2  902.71   23.30
   0  -1   2  889.91   23.50
   0  -1   2  908.71   23.50
   0  -1   2  880.61   23.50
   0  -1  -2  909.51   23.50
   0   1  -2  903.71   23.50
   0   1  -2  868.71   23.40
   0   1  -2  897.31   23.50
   0   1   2  903.31   23.30
   0   1   2  883.01   23.40
   0   1  -2  887.71   23.50
   0   1   2  898.21   22.90
   0   1   2  939.61   23.50
   0   1  -2  891.51   23.20
   0   1   2  896.31   23.50
   0   1   2  906.31   23.30
  -1  -1  -2 4224.48  114.89
   1  -1   2 4295.87  114.99
   1  -1   2 4527.15  113.19
  -1  -1  -2 4352.46  114.39
  -1  -1  -2 4326.57  114.09
   1  -1   2 4646.44  114.29
   1  -1   2 4308.37  113.59
   1  -1   2 4262.87  113.89
  -1  -1  -2 4200.78  111.99
   1   1   2 4397.16  114.49
  -1   1  -2 4577.64  114.29
  -1   1  -2 4300.27  113.39
  -1   1  -2 4223.28  111.69
   1   1   2 4475.35  114.19
   1   1   2 4252.17  112.99
   1   1   2 4407.16  114.29
   1   1   2 4455.15  114.89
  -1   1  -2 4415.96  114.69
   1   1   2 4358.26  112.09
  -1   1  -2 4556.24  114.89
   2  -1   2  967.90   25.80
  -2  -1  -2  967.80   25.40
   2  -1   2  975.60   26.00
  -2  -1  -2  961.10   25.00
   2  -1   2  970.10   26.00
  -2  -1  -2  957.80   26.10
   2  -1   2  972.30   25.30
   2  -1   2  976.00   25.80
  -2  -1  -2  974.80   25.60
  -2  -1  -2  954.80   25.60
   2   1   2  976.50   25.60
   2   1   2 1013.20   25.50
   2   1   2 1002.70   26.10
   2   1   2  992.10   26.30
  -2   1  -2  988.60   26.10
  -2   1  -2 1001.60   25.90
   2   1   2  994.30   25.60
  -2   1  -2  986.90   25.30
  -2   1  -2  998.60   26.00
  -2   1  -2  969.50   25.80
   3  -1   2  161.18    5.10
  -3  -1  -2  158.08    5.50
   3  -1   2  154.28    4.60
   3  -1   2  155.98    5.30
  -3  -1  -2  146.29    4.60
  -3  -1  -2  146.19    4.80
  -3  -1  -2  147.99    4.70
   3  -1   2  155.48    5.10
   3  -1   2  155.88    5.40
  -3   1  -2  142.89    5.00
   3   1   2  150.48    5.50
   3   1   2  152.48    4.80
  -3   1  -2  154.78    5.30
   3   1   2  149.88    4.80
  -3   1  -2  156.98    5.40
   3   1   2  150.18    5.00
  -3   1  -2  148.59    4.50
  -3   1  -2  146.59    5.00
   4  -1   2  455.65   13.60
   4  -1   2  451.75   12.80
  -4  -1  -2  427.76   12.30
  -4  -1  -2  442.86   12.30
   4  -1   2  448.66   12.30
   4  -1   2  458.35   13.40
   4  -1   2  443.26   12.80
  -4  -1  -2  438.26   13.40
   4  -1   2  459.05   13.30
  -4  -1  -2  459.95   12.50
  -4   1  -2  448.46   12.30
   4   1   2  450.55   13.10
   4   1   2  456.05   12.40
  -4   1  -2  460.85   13.30
   4   1   2  459.25   13.00
  -4   1  -2  441.66   12.80
  -4   1  -2  445.76   13.40
   4   1   2  464.45   13.80
  -4   1  -2  443.66   12.80
   5  -1   2    8.00    1.70
   5  -1   2   12.20    1.80
   5  -1   2   13.10    1.40
  -5  -1  -2   10.90    1.30
  -5  -1  -2   13.60    1.20
   5  -1   2   13.40    1.50
  -5  -1  -2   12.20    1.10
  -5  -1  -2    9.90    1.80
   5  -1   2   10.80    1.20
   5   1   2   12.90    1.50
   5   1   2   14.70    1.90
   5   1   2   10.00    1.40
  -5   1  -2   13.60    1.40
  -5   1  -2   13.00    1.40
   5   1   2   14.60    1.10
  -5   1  -2   14.50    1.30
   5   1   2    9.30    1.70
  -5   1  -2   14.00    1.80
  -6  -1  -2   43.70    2.00
   6  -1   2   47.80    3.50
   6  -1   2   42.70    2.90
   6  -1   2   45.80    2.50
  -6  -1  -2   48.10    2.10
  -6  -1  -2   45.30    3.20
  -6  -1  -2   41.90    2.60
   6  -1   2   48.00    2.40
   6   1   2   44.10    2.00
  -6   1  -2   47.90    2.30
   6   1   2   43.30    2.30
   6   1   2   41.10    3.00
   6   1   2   40.90    3.30
  -6   1  -2   45.80    2.50
   6   1   2   43.80    2.00
   6   1   2   44.10    2.80
  -6   1  -2   44.80    2.50
  -6   1  -2   46.50    3.20
  -7  -1  -2   26.10    2.50
  -7  -1  -2   30.20    1.60
   7  -1   2   27.30    2.00
   7  -1   2   23.60    2.10
  -7  -1  -2   27.70    2.10
  -7  -1  -2   32.90    3.40
   7  -1   2   31.90    3.20
   7  -1   2   33.80    3.60
  -7  -1  -2   26.60    1.50
   7   1   2   28.10    3.20
  -7   1  -2   26.20    2.90
   7   1   2   30.50    3.40
   7   1   2   33.30    2.50
  -7   1  -2   28.40    2.10
  -7   1  -2   24.30    2.10
   7   1   2   26.80    1.50
   7   1   2   29.90    1.50
   7   1   2   32.30    2.20
  -8  -1  -2  411.36   13.30
   8  -1   2  416.16   13.60
   8  -1   2  400.66   14.60
  -8  -1  -2  406.96   11.10
  -8  -1  -2  418.06   11.20
   8  -1   2  424.36   12.90
  -8  -1  -2  423.56   14.60
  -8  -1  -2  420.76   12.70
   8   1   2  419.86   13.20
   8   1   2  409.16   14.50
  -8   1  -2  423.76   14.30
  -8   1  -2  417.36   12.30
  -8   1  -2  425.86   12.50
   8   1   2  445.96   12.60
   8   1   2  403.56   14.20
   9  -1   2   72.19    4.40
  -9  -1  -2   66.39    3.70
  -9  -1  -2   75.39    5.10
  -9  -1  -2   63.69    4.10
   9  -1   2   67.09    5.20
   9   1   2   78.59    5.30
  -9   1  -2   64.69    3.20
   9   1   2   70.99    4.20
  -9   1  -2   71.29    5.00
  -9   1  -2   61.79    3.50
   9   1   2   66.49    4.90
  10  -1   2   99.29    5.70
 -10  -1  -2  103.29    5.70
  10  -1   2   93.89    6.60
 -10  -1  -2   97.39    6.50
 -10   1  -2   99.89    4.00
  10   1   2  113.19    6.70
 -10   1  -2   94.89    6.20
 -11  -1  -2  171.28    9.30
  11  -1   2  166.18    9.40
  11  -1   2  170.08    8.00
  11   1   2  166.48    9.00
 -11   1  -2  173.08    8.90
  12  -1   2    9.90    3.00
 -12  -1  -2    9.50    3.20
 -12  -1  -2   14.10    3.60
  12   1   2    8.70    3.10
 -12   1  -2   12.70    3.20
 -12  -2   2    2.10    2.30
 -12  -2   2    3.00    2.40
  12  -2  -2    0.00    2.40
 -12   2   2   -2.20    2.20
  12   2  -2    3.00    2.30
  12   2  -2   -0.80    2.10
  11  -2  -2    7.40    2.40
 -11  -2   2    7.30    2.30
  11  -2  -2    5.60    2.40
 -11  -2   2    4.60    2.50
 -11  -2   2    4.50    2.00
 -11  -2   2    2.70    2.20
 -11   2   2    2.70    1.90
  11   2  -2    3.00    2.10
  11   2  -2    6.10    2.60
 -11   2   2    5.00    2.70
  11   2  -2    4.00    1.90
 -10  -2   2   25.30    3.30
 -10  -2   2   35.20    4.10
 -10  -2   2   30.70    3.80
  10  -2  -2   32.30    3.60
  10  -2  -2   29.80    4.50
 -10  -2   2   31.80    3.50
  10   2  -2   34.50    3.70
 -10   2   2   32.10    3.40
 -10   2   2   35.60    4.30
  10   2  -2   34.00    4.30
  10   2  -2   36.90    4.60
 -10   2   2   33.00    2.40
  -9  -2   2   57.99    4.40
  -9  -2   2   50.79    3.70
  -9  -2   2   58.39    4.50
   9  -2  -2   61.09    4.10
  -9  -2   2   57.49    4.00
   9  -2  -2   56.89    5.50
  -9   2   2   59.59    3.90
   9   2  -2   52.39    5.00
   9   2  -2   58.89    4.60
  -9   2   2   48.30    4.70
  -9   2   2   54.19    3.10
   9   2  -2   56.49    4.10
   8  -2  -2    9.20    2.10
   8  -2  -2    9.50    1.70
  -8  -2   2    8.60    2.10
   8  -2  -2   15.40    2.90
  -8  -2   2    9.50    2.30
  -8  -2   2    9.80    2.00
   8   2  -2   11.70    2.10
  -8   2   2   10.50    1.70
  -8   2   2   10.60    2.00
   8   2  -2   13.40    2.50
  -8   2   2    6.90    1.90
   8   2  -2    8.10    2.30
  -7  -2   2   26.50    3.00
   7  -2  -2   27.30    2.80
   7  -2  -2   38.50    3.80
   7  -2  -2   33.90    2.40
  -7  -2   2   34.00    3.10
  -7   2   2   26.10    3.10
  -7   2   2   28.50    2.40
   7   2  -2   24.20    3.00
  -7   2   2   35.50    2.50
  -7   2   2   28.90    2.80
   7   2  -2   31.30    3.00
   7   2  -2   26.90    3.20
  -7   2   2   34.40    2.40
   6  -2  -2  183.88    7.70
   6  -2  -2  196.08    6.70
   6  -2  -2  192.78    7.10
  -6  -2   2  202.08    7.60
  -6  -2   2  197.48    7.20
  -6  -2   2  193.98    5.40
  -6  -2   2  188.88    5.40
  -6   2   2  192.18    6.70
   6   2  -2  190.68    5.30
  -6   2   2  185.18    6.70
  -6   2   2  182.18    7.50
   6   2  -2  194.48    5.30
  -6   2   2  192.18    7.00
   6   2  -2  186.28    7.60
   6   2  -2  193.78    7.20
  -6   2   2  191.98    6.50
   6   2  -2  199.38    7.60
  -5  -2   2   99.19    4.40
  -5  -2   2  101.69    3.50
   5  -2  -2  106.09    4.60
  -5  -2   2  105.59    3.50
  -5  -2   2  105.89    4.90
   5  -2  -2  102.69    4.90
   5  -2  -2  109.59    4.40
   5   2  -2  106.99    4.90
  -5   2   2  103.59    4.30
   5   2  -2  104.09    4.60
  -5   2   2   99.29    4.40
   5   2  -2  106.29    5.10
  -5   2   2  112.89    4.40
   5   2  -2  109.89    3.50
  -5   2   2  107.39    4.90
  -5   2   2  108.29    4.00
   5   2  -2  104.29    3.50
  -4  -2   2  113.89    3.90
   4  -2  -2  116.29    4.60
   4  -2  -2  114.39    4.60
  -4  -2   2  110.29    3.90
   4  -2  -2  112.59    4.90
  -4  -2   2  113.89    4.90
   4  -2  -2  116.19    4.60
   4  -2  -2  118.49    4.70
  -4  -2   2  113.19    4.40
   4   2  -2  114.09    4.80
  -4   2   2  113.69    3.90
  -4   2   2  116.19    4.80
   4   2  -2  121.89    5.10
  -4   2   2  111.89    4.50
   4   2  -2  113.09    4.40
   4   2  -2  125.69    4.80
  -4   2   2  109.59    4.50
  -4   2   2  113.49    4.90
   4   2  -2  118.39    3.90
  -4   2   2  106.19    4.50
   3  -2  -2  200.58    6.80
  -3  -2   2  193.18    6.10
  -3  -2   2  198.68    6.30
   3  -2  -2  193.88    5.80
  -3  -2   2  193.88    6.80
  -3  -2   2  199.08    6.30
   3  -2  -2  196.18    6.60
   3  -2  -2  193.38    6.70
   3  -2  -2  200.38    6.60
  -3  -2   2  198.88    6.20
   3  -2  -2  204.18    6.60
  -3   2   2  195.28    5.80
  -3   2   2  194.68    6.60
  -3   2   2  197.88    6.60
   3   2  -2  198.58    7.00
  -3   2   2  196.88    6.60
   3   2  -2  194.68    6.10
  -3   2   2  196.28    6.80
   3   2  -2  196.58    6.70
  -3   2   2  200.18    6.80
   3   2  -2  208.28    6.90
   3   2  -2  199.48    6.40
  -3   2   2  198.98    5.40
   3   2  -2  194.98    6.10
   2  -2  -2 1198.88   32.00
  -2  -2   2 1207.88   31.70
  -2  -2   2 1170.78   31.60
   2  -2  -2 1193.98   31.20
   2  -2  -2 1223.68   31.90
  -2  -2   2 1225.18   31.70
   2  -2  -2 1206.38   31.80
  -2  -2   2 1190.38   31.60
   2  -2  -2 1239.98   31.90
   2  -2  -2 1207.38   32.00
   2  -2  -2 1212.48   32.10
  -2  -2   2 1147.19   32.00
  -2   2   2 1219.48   31.20
   2   2  -2 1229.08   32.10
  -2   2   2 1207.48   32.00
   2   2  -2 1202.38   31.70
   2   2  -2 1189.68   31.70
   2   2  -2 1211.58   32.00
  -2   2   2 1201.38   31.90
  -2   2   2 1241.48   31.00
   2   2  -2 1222.78   31.60
   2   2  -2 1221.28   32.30
  -2   2   2 1198.38   31.90
  -2   2   2 1205.78   32.00
  -2   2   2 1172.98   32.00
   1  -2  -2  179.38    6.10
   1  -2  -2  181.28    5.80
  -1  -2   2  176.18    6.10
   1  -2  -2  182.08    5.60
  -1  -2   2  186.58    6.10
  -1  -2   2  179.88    6.00
   1  -2  -2  196.28    6.20
  -1  -2   2  188.58    6.00
  -1  -2   2  189.18    6.10
   1  -2  -2  192.38    6.30
  -1  -2   2  184.28    5.80
   1  -2  -2  192.38    6.10
   1   2  -2  187.48    6.10
  -1   2   2  196.58    6.30
  -1   2   2  192.88    5.60
   1   2  -2  185.88    5.80
   1   2  -2  194.68    6.20
  -1   2   2  180.48    5.80
  -1   2   2  187.08    5.60
  -1   2   2  189.98    6.30
  -1   2   2  189.18    6.20
   1   2  -2  188.58    6.10
  -1   2   2  180.78    6.00
   1   2  -2  178.58    5.90
   1   2  -2  190.48    6.30
   0  -2  -2 3199.78   79.89
   0  -2  -2 3224.08   79.69
   0  -2  -2 3052.49   79.79
   0  -2  -2 2969.10   80.19
   0  -2   2 3016.60   79.79
   0  -2   2 3091.19   79.79
   0  -2  -2 3112.59   80.89
   0  -2   2 3035.80   79.49
   0  -2  -2 3006.80   79.79
   0  -2   2 3135.99   79.69
   0  -2   2 3313.77   79.89
   0  -2   2 3064.29   79.59
   0   2   2 3187.18   79.89
   0   2  -2 3039.70   79.79
   0   2   2 3097.89   79.69
   0   2   2 3109.39   80.29
   0   2  -2 3149.39   79.89
   0   2  -2 3126.69   79.59
   0   2   2 3098.19   79.89
   0   2   2 3053.49   79.79
   0   2  -2 3159.18   79.89
   0   2   2 3159.38   79.49
   0   2   2 3157.38   79.59
   0   2  -2 3236.78   79.89
   0   2  -2 2998.00   79.69
  -1  -2  -2  203.28    6.60
  -1  -2  -2  205.48    5.60
   1  -2   2  209.28    6.40
   1  -2   2  200.68    6.60
  -1  -2  -2  191.68    6.50
   1  -2   2  190.88    6.60
  -1  -2  -2  199.38    6.70
  -1  -2  -2  195.28    6.50
   1  -2   2  213.58    6.70
   1  -2   2  204.18    6.70
   1  -2   2  194.08    6.70
  -1  -2  -2  215.48    6.50
  -1   2  -2  217.98    6.60
  -1   2  -2  211.98    6.40
   1   2   2  207.28    6.60
   1   2   2  204.68    6.70
  -1   2  -2  209.38    6.60
  -1   2  -2  191.08    6.70
  -1   2  -2  203.68    6.80
   1   2   2  205.58    6.70
   1   2   2  202.08    6.60
   1   2   2  199.38    6.40
  -1   2  -2  206.48    6.70
   1   2   2  203.88    5.60
   2  -2   2   27.00    2.00
  -2  -2  -2   27.50    2.10
  -2  -2  -2   29.90    0.90
   2  -2   2   31.50    1.70
   2  -2   2   26.90    1.90
  -2  -2  -2   26.10    2.00
  -2  -2  -2   31.00    1.80
   2  -2   2   27.20    1.90
  -2  -2  -2   27.20    1.90
  -2  -2  -2   30.80    1.90
   2  -2   2   23.90    1.90
   2   2   2   27.40    1.90
  -2   2  -2   32.00    2.10
  -2   2  -2   28.10    2.00
  -2   2  -2   30.40    1.80
  -2   2  -2   27.80    2.00
   2   2   2   31.80    2.20
   2   2   2   26.50    1.80
  -2   2  -2   31.10    1.90
  -2   2  -2   28.00    2.00
   2   2   2   27.90    1.90
  -3  -2  -2   45.80    1.60
  -3  -2  -2   52.19    2.90
  -3  -2  -2   45.30    2.40
   3  -2   2   44.90    2.60
   3  -2   2   46.90    2.90
   3  -2   2   53.69    2.80
   3  -2   2   52.79    2.80
   3  -2   2   49.99    2.80
  -3  -2  -2   49.40    2.50
  -3  -2  -2   44.20    2.70
  -3  -2  -2   53.59    2.50
   3  -2   2   52.19    2.40
  -3   2  -2   49.40    2.40
   3   2   2   49.99    2.90
   3   2   2   50.39    2.40
   3   2   2   50.19    2.30
  -3   2  -2   45.80    2.90
   3   2   2   47.30    2.40
  -3   2  -2   47.10    2.70
  -3   2  -2   54.29    2.80
   3   2   2   47.20    3.00
  -3   2  -2   46.10    2.60
  -4  -2  -2  184.18    6.30
  -4  -2  -2  183.28    5.50
   4  -2   2  186.88    6.60
  -4  -2  -2  187.98    6.10
  -4  -2  -2  182.78    6.10
   4  -2   2  187.18    6.00
  -4  -2  -2  180.98    6.90
   4  -2   2  182.78    6.70
  -4   2  -2  182.98    7.00
   4   2   2  180.18    7.10
  -4   2  -2  184.68    6.60
  -4   2  -2  194.18    6.70
   4   2   2  181.08    6.00
  -4   2  -2  181.98    6.60
   4   2   2  186.48    6.40
   4   2   2  185.48    6.30
  -4   2  -2  191.48    6.10
   4   2   2  199.98    6.20
   5  -2   2    1.30    0.90
  -5  -2  -2   -0.10    0.50
  -5  -2  -2    0.10    0.60
   5  -2   2    0.30    0.70
  -5  -2  -2   -1.00    0.90
   5  -2   2    0.30    0.90
   5  -2   2    0.40    0.70
   5  -2   2    0.90    1.00
  -5  -2  -2   -0.40    0.50
   5   2   2   -0.20    0.70
   5   2   2   -0.50    1.00
   5   2   2    0.90    0.70
  -5   2  -2   -0.50    0.80
   5   2   2   -0.80    0.80
  -5   2  -2    0.50    0.80
  -5   2  -2    0.90    0.90
  -5   2  -2    0.20    0.70
   5   2   2    0.50    0.50
   6  -2   2  132.39    5.30
   6  -2   2  127.59    5.70
   6  -2   2  125.89    4.90
  -6  -2  -2  124.99    4.50
  -6  -2  -2  123.29    4.40
  -6  -2  -2  123.99    4.60
   6  -2   2  132.19    6.30
   6  -2   2  130.59    4.90
  -6  -2  -2  124.19    5.90
   6   2   2  123.39    5.50
   6   2   2  126.49    5.20
  -6   2  -2  123.09    5.20
  -6   2  -2  128.79    4.80
  -6   2  -2  125.69    5.30
  -6   2  -2  120.89    5.80
   6   2   2  127.59    6.20
  -7  -2  -2   17.70    1.50
   7  -2   2   19.20    2.00
   7  -2   2   14.80    2.00
  -7  -2  -2   14.10    1.40
   7  -2   2   17.00    2.00
  -7  -2  -2   10.70    2.40
   7  -2   2   18.40    3.00
  -7  -2  -2   17.70    1.90
   7  -2   2   16.60    2.50
  -7   2  -2   17.50    2.10
   7   2   2   18.40    1.40
  -7   2  -2   13.80    1.80
  -7   2  -2   13.30    2.50
   7   2   2   15.90    2.20
   7   2   2   17.70    3.00
   7   2   2   15.40    2.30
  -7   2  -2   15.40    2.10
   8  -2   2  320.77   11.40
   8  -2   2  291.57   12.00
  -8  -2  -2  309.87   10.20
   8  -2   2  328.57   10.20
  -8  -2  -2  323.07   12.20
  -8  -2  -2  312.77    8.80
  -8  -2  -2  312.67   11.90
   8   2   2  321.57   11.60
   8   2   2  308.97   10.50
  -8   2  -2  311.77   11.90
   8   2   2  304.67   12.20
  -8   2  -2  325.27   10.50
  -8   2  -2  310.47   10.00
   9  -2   2  104.99    6.80
  -9  -2  -2  121.59    6.70
  -9  -2  -2  112.49    5.40
  -9  -2  -2  123.79    7.00
  -9  -2  -2  120.69    5.50
   9  -2   2  129.49    6.40
   9   2   2  121.09    5.60
  -9   2  -2  120.79    6.70
  -9   2  -2  118.79    5.30
  -9   2  -2  118.59    5.20
   9   2   2  119.59    7.00
   9   2   2  121.89    6.60
  10  -2   2   14.30    3.00
 -10  -2  -2   10.30    3.10
  10  -2   2   13.80    3.10
 -10  -2  -2   17.50    3.50
 -10   2  -2   14.90    3.30
  10   2   2   14.90    3.10
  10   2   2    8.80    2.90
  11  -2   2   -0.80    2.40
 -11  -2  -2   -2.00    2.10
 -11  -2  -2    0.90    2.20
  11  -2   2    1.80    2.00
  11   2   2    1.90    2.10
  11   2   2    1.00    2.10
 -11   2  -2   -0.30    2.20
 -12  -3   2   78.99    6.20
 -12  -3   2   80.19    7.40
  12  -3  -2   76.69    7.80
  12   3  -2   70.89    7.00
  12   3  -2   83.29    6.80
  11  -3  -2    9.50    2.50
 -11  -3   2   13.40    3.10
 -11  -3   2   15.10    3.00
  11  -3  -2    8.10    2.70
 -11  -3   2    6.90    3.00
  11   3  -2    9.70    3.10
 -11   3   2   11.70    2.10
 -11   3   2   10.20    3.20
  11   3  -2   11.60    2.80
 -11   3   2    5.70    2.10
  11   3  -2   14.60    3.60
 -10  -3   2    0.70    1.80
 -10  -3   2   -0.10    1.60
  10  -3  -2   -1.00    1.40
 -10  -3   2   -2.80    1.70
  10  -3  -2   -0.20    1.40
  10   3  -2   -2.30    1.70
  10   3  -2   -1.10    1.80
 -10   3   2    0.80    1.60
 -10   3   2   -1.50    1.20
 -10   3   2    0.20    1.60
  10   3  -2   -1.00    1.70
   9  -3  -2  174.28    9.00
  -9  -3   2  187.48    8.20
  -9  -3   2  176.68    8.60
   9  -3  -2  183.68    7.80
  -9  -3   2  186.58    7.50
   9   3  -2  164.48    8.30
  -9   3   2  178.58    8.90
  -9   3   2  170.28    7.20
  -9   3   2  178.78    7.70
   9   3  -2  177.48    7.80
   9   3  -2  177.18    8.80
  -8  -3   2  616.74   19.00
  -8  -3   2  582.44   18.20
  -8  -3   2  560.94   14.90
  -8  -3   2  564.04   14.90
   8  -3  -2  561.04   19.10
   8  -3  -2  570.94   18.00
   8   3  -2  570.54   19.10
  -8   3   2  569.54   17.80
   8   3  -2  567.84   18.60
  -8   3   2  582.94   19.10
  -8   3   2  583.24   17.50
   7  -3  -2  792.72   24.70
  -7  -3   2  805.52   21.70
   7  -3  -2  850.11   23.50
  -7  -3   2  802.32   21.60
  -7  -3   2  820.92   23.80
  -7  -3   2  803.62   24.40
   7  -3  -2  793.82   23.60
  -7   3   2  789.72   23.50
   7   3  -2  809.02   24.20
  -7   3   2  789.42   23.30
   7   3  -2  799.82   24.80
   7   3  -2  843.62   22.30
  -7   3   2  837.12   23.50
  -7   3   2  810.92   24.70
  -7   3   2  817.12   22.70
   7   3  -2  825.92   23.90
   6  -3  -2  111.39    5.70
  -6  -3   2  109.69    4.20
  -6  -3   2  118.99    5.40
  -6  -3   2  111.69    4.80
  -6  -3   2  116.99    5.90
  -6  -3   2  112.79    4.30
   6  -3  -2  118.29    5.40
   6  -3  -2  117.49    5.20
  -6   3   2  113.09    5.90
   6   3  -2  108.99    6.00
   6   3  -2  119.89    4.30
  -6   3   2  108.19    5.10
   6   3  -2  105.59    5.30
  -6   3   2  106.39    5.10
  -6   3   2  113.89    5.20
  -6   3   2  116.19    4.60
  -5  -3   2  104.39    4.80
   5  -3  -2  104.99    5.30
   5  -3  -2  101.89    4.80
   5  -3  -2  101.99    4.80
  -5  -3   2  103.79    5.20
  -5  -3   2  108.79    4.20
  -5  -3   2  106.39    4.40
  -5  -3   2  105.49    4.20
  -5   3   2  108.09    3.50
   5   3  -2  106.59    5.00
   5   3  -2  108.09    5.40
   5   3  -2   98.29    4.10
  -5   3   2  105.89    4.90
  -5   3   2  107.59    4.90
  -5   3   2  101.39    5.20
  -5   3   2  107.79    4.20
  -5   3   2   95.29    4.60
  -4  -3   2   15.50    1.70
   4  -3  -2   14.70    2.00
  -4  -3   2   15.90    1.90
  -4  -3   2   11.80    1.50
  -4  -3   2   14.90    1.60
   4  -3  -2   15.70    2.10
  -4  -3   2   15.10    2.20
   4  -3  -2   14.60    1.50
  -4   3   2   15.10    1.10
  -4   3   2   16.60    2.10
  -4   3   2   17.60    2.10
  -4   3   2   16.10    2.10
  -4   3   2   14.20    1.50
   4   3  -2   12.70    1.70
  -4   3   2   13.20    1.90
   4   3  -2   10.00    1.80
   4   3  -2   12.60    1.50
   4   3  -2   16.90    2.10
   3  -3  -2  609.14   16.90
  -3  -3   2  617.24   17.50
  -3  -3   2  600.04   18.10
  -3  -3   2  639.34   17.30
  -3  -3   2  632.64   17.50
   3  -3  -2  610.14   18.10
   3  -3  -2  638.74   18.10
  -3  -3   2  623.24   17.60
  -3   3   2  599.64   17.90
  -3   3   2  610.84   17.80
   3   3  -2  615.84   17.50
  -3   3   2  630.34   16.60
   3   3  -2  611.44   18.40
  -3   3   2  612.84   18.00
   3   3  -2  616.44   17.60
  -3   3   2  628.34   17.00
  -3   3   2  601.64   18.00
  -2  -3   2    0.10    0.70
  -2  -3   2    3.10    1.00
  -2  -3   2    0.40    1.00
   2  -3  -2    1.10    0.80
  -2  -3   2   -0.90    0.80
   2  -3  -2   -0.80    1.00
  -2  -3   2    0.40    0.80
   2  -3  -2    0.90    1.00
   2  -3  -2    1.50    0.90
  -2   3   2    1.60    0.90
  -2   3   2    1.00    1.10
   2   3  -2   -0.10    0.80
  -2   3   2    1.20    0.60
   2   3  -2    2.00    1.10
   2   3  -2    1.00    0.80
  -2   3   2    0.70    0.90
  -2   3   2    0.70    0.80
  -2   3   2    1.70    0.80
   2   3  -2    1.30    0.90
   1  -3  -2    8.80    1.40
   1  -3  -2    9.00    1.50
  -1  -3   2    7.00    1.20
   1  -3  -2    7.50    1.10
  -1  -3   2    5.40    1.20
   1  -3  -2    5.80    1.10
  -1  -3   2    5.90    1.30
  -1  -3   2    5.10    1.30
   1  -3  -2    7.90    1.40
  -1  -3   2    4.80    1.20
   1  -3  -2   11.80    1.70
  -1  -3   2    8.20    1.40
  -1   3   2    6.80    1.40
   1   3  -2    7.70    1.30
   1   3  -2    6.60    1.30
  -1   3   2    7.30    1.50
   1   3  -2    5.10    1.20
  -1   3   2    8.30    1.50
   1   3  -2    8.50    1.40
   1   3  -2    6.00    1.40
  -1   3   2    7.40    1.20
  -1   3   2    6.90    1.10
  -1   3   2    7.80    1.40
   1   3  -2    7.90    1.30
  -1   3   2    8.90    1.30
   0  -3  -2  478.55   13.30
   0  -3  -2  470.55   14.20
   0  -3  -2  476.15   14.30
   0  -3   2  484.65   14.00
   0  -3   2  485.95   14.20
   0  -3  -2  484.45   14.30
   0  -3   2  464.75   14.20
   0  -3  -2  499.15   14.10
   0  -3   2  465.55   13.90
   0  -3   2  481.85   14.30
   0  -3  -2  476.55   13.80
   0  -3   2  503.45   14.10
   0   3  -2  472.85   14.00
   0   3  -2  480.05   14.30
   0   3  -2  462.85   14.20
   0   3   2  478.85   14.30
   0   3   2  470.55   14.00
   0   3  -2  499.75   14.10
   0   3   2  477.05   13.90
   0   3  -2  466.45   14.10
   0   3  -2  479.25   14.20
   0   3   2  477.05   13.30
   0   3   2  467.95   14.20
   0   3   2  479.35   13.90
   0   3   2  484.95   14.30
  -1  -3  -2   67.09    3.40
  -1  -3  -2   60.99    2.40
  -1  -3  -2   62.79    3.30
   1  -3   2   60.09    3.10
  -1  -3  -2   57.79    3.10
   1  -3   2   58.99    3.30
   1  -3   2   59.29    3.30
   1  -3   2   53.89    3.10
  -1  -3  -2   56.29    3.10
  -1  -3  -2   60.49    3.20
   1  -3   2   55.09    3.00
   1  -3   2   60.39    3.10
  -1   3  -2   65.49    3.40
  -1   3  -2   59.39    3.40
  -1   3  -2   63.49    3.30
  -1   3  -2   61.99    3.30
   1   3   2   58.79    3.10
   1   3   2   60.09    3.20
  -1   3  -2   56.69    3.10
   1   3   2   59.29    3.20
   1   3   2   63.29    3.70
   1   3   2   60.99    2.40
  -1   3  -2   59.29    3.20
  -1   3  -2   66.49    3.20
   1   3   2   65.19    3.20
  -2  -3  -2  968.60   26.10
   2  -3   2  935.21   26.00
  -2  -3  -2  945.11   24.50
   2  -3   2  944.41   26.30
  -2  -3  -2  922.91   26.20
  -2  -3  -2 1039.90   26.90
  -2  -3  -2  943.51   26.10
   2  -3   2  945.71   26.40
   2  -3   2  948.01   25.80
  -2  -3  -2  973.10   26.40
  -2   3  -2  928.21   26.30
  -2   3  -2  960.40   26.50
  -2   3  -2  947.81   25.80
   2   3   2  962.00   26.10
  -2   3  -2  922.81   26.00
  -2   3  -2  892.31   26.30
   2   3   2  956.40   26.50
  -3  -3  -2 2949.60   77.89
   3  -3   2 3010.90   77.49
  -3  -3  -2 2951.30   77.89
  -3  -3  -2 2986.00   77.39
  -3  -3  -2 2935.41   77.29
   3  -3   2 3030.90   77.89
  -3  -3  -2 2957.00   76.39
   3  -3   2 2995.50   77.89
   3  -3   2 3056.19   77.19
  -3   3  -2 2950.60   77.89
   3   3   2 2945.51   78.19
  -3   3  -2 3032.50   78.09
   3   3   2 3088.69   77.39
  -3   3  -2 2956.60   77.19
  -3   3  -2 2968.20   77.89
  -4  -3  -2  197.88    7.00
  -4  -3  -2  199.98    5.70
   4  -3   2  210.68    7.70
   4  -3   2  207.08    7.80
  -4  -3  -2  195.58    5.70
   4  -3   2  203.68    7.40
   4  -3   2  206.08    7.00
  -4  -3  -2  203.08    7.90
  -4  -3  -2  202.78    7.10
  -4  -3  -2  195.18    7.70
  -4   3  -2  202.78    7.60
  -4   3  -2  203.28    7.00
  -4   3  -2  200.18    7.90
   4   3   2  209.38    7.10
  -4   3  -2  196.48    7.50
   4   3   2  203.38    8.10
  -5  -3  -2    6.30    1.60
   5  -3   2   10.80    1.90
  -5  -3  -2    6.50    1.30
  -5  -3  -2    7.30    0.90
  -5  -3  -2    8.50    1.80
  -5  -3  -2    7.70    0.90
   5  -3   2    7.30    1.80
  -5  -3  -2    9.50    1.50
   5   3   2   10.40    1.70
   5   3   2    8.80    1.40
  -5   3  -2   11.00    1.90
  -5   3  -2    9.10    1.90
  -5   3  -2    7.90    1.80
  -5   3  -2    7.00    1.50
   5   3   2    8.40    2.00
   5   3   2   11.10    1.70
   6  -3   2   58.39    4.10
   6  -3   2   58.29    3.80
   6  -3   2   58.19    4.20
  -6  -3  -2   61.49    4.20
   6  -3   2   57.09    3.40
  -6  -3  -2   62.19    2.60
  -6  -3  -2   63.49    3.20
  -6  -3  -2   63.59    3.20
  -6  -3  -2   61.79    4.10
   6   3   2   61.59    3.10
   6   3   2   56.49    4.50
  -6   3  -2   57.39    3.40
  -6   3  -2   60.19    4.50
   6   3   2   63.89    3.60
  -6   3  -2   57.19    3.80
  -6   3  -2   63.99    3.90
   6   3   2   62.29    3.70
   7  -3   2   38.80    3.00
   7  -3   2   35.50    3.90
  -7  -3  -2   38.10    4.20
  -7  -3  -2   49.50    4.50
  -7  -3  -2   41.90    2.50
   7  -3   2   39.90    3.20
   7  -3   2   37.20    4.10
  -7  -3  -2   40.20    2.40
   7   3   2   39.70    3.20
   7   3   2   39.40    3.40
  -7   3  -2   37.40    3.40
   7   3   2   38.90    4.30
  -7   3  -2   39.00    2.90
  -7   3  -2   41.60    4.30
   8  -3   2   11.40    2.90
  -8  -3  -2   13.90    1.50
   8  -3   2   13.60    2.20
  -8  -3  -2   15.60    3.00
   8  -3   2   15.20    2.80
  -8  -3  -2   14.60    2.90
   8   3   2   18.30    2.80
   8   3   2   15.40    3.20
   8   3   2   17.80    2.50
  -8   3  -2   15.60    3.10
  -8   3  -2   13.70    2.40
  -8   3  -2   14.10    2.10
  -9  -3  -2   60.59    5.70
  -9  -3  -2   55.29    5.60
   9  -3   2   61.79    6.10
   9  -3   2   56.89    5.20
   9   3   2   65.79    4.70
   9   3   2   57.69    5.90
  -9   3  -2   63.59    6.00
  -9   3  -2   70.69    4.40
 -10  -3  -2   65.89    6.40
 -10  -3  -2   49.40    5.50
  10  -3   2   55.69    5.30
  10  -3   2   57.09    6.20
 -10   3  -2   61.99    4.30
  10   3   2   45.80    5.50
 -10   3  -2   63.29    6.20
  10   3   2   60.19    5.60
 -11  -3  -2   -3.20    2.00
 -11  -3  -2    0.60    2.40
  11  -3   2   -2.70    2.20
  11  -3   2    1.20    2.10
  11   3   2    0.80    2.30
  11   3   2    0.90    2.40
 -11   3  -2    0.30    2.40
 -11  -4   2   -0.50    2.30
  11  -4  -2   -1.10    1.70
 -11  -4   2    0.30    2.10
  11  -4  -2   -2.10    2.20
  11   4  -2    1.90    2.50
 -11   4   2    1.20    1.80
 -10  -4   2   18.30    3.40
  10  -4  -2   11.90    3.50
 -10  -4   2   11.30    3.30
  10  -4  -2   11.20    2.70
 -10   4   2   11.20    2.50
 -10   4   2   12.30    2.80
  10   4  -2   13.50    3.60
 -10   4   2   11.80    3.10
   9  -4  -2  102.09    6.00
  -9  -4   2   94.59    6.10
  -9  -4   2   88.69    6.40
   9  -4  -2   89.89    6.50
   9   4  -2   85.79    6.60
  -9   4   2   87.39    5.40
  -9   4   2   98.49    5.70
  -9   4   2   88.79    6.20
   8  -4  -2   10.50    2.50
  -8  -4   2   12.50    3.00
  -8  -4   2   10.00    1.50
   8  -4  -2   13.10    2.90
  -8  -4   2   11.90    2.50
  -8   4   2   10.00    2.30
   8   4  -2    6.80    2.70
  -8   4   2    8.90    2.20
  -8   4   2   14.00    3.00
  -7  -4   2  165.58    8.00
  -7  -4   2  158.78    6.00
   7  -4  -2  155.48    7.90
  -7  -4   2  161.38    7.20
   7  -4  -2  152.08    7.10
   7  -4  -2  160.58    7.30
  -7   4   2  156.28    7.10
  -7   4   2  153.88    7.90
   7   4  -2  167.38    8.40
  -7   4   2  156.98    7.30
   6  -4  -2  222.88    8.70
   6  -4  -2  203.08    8.40
   6  -4  -2  198.28    8.80
  -6  -4   2  203.58    8.90
  -6  -4   2  213.38    8.40
  -6  -4   2  202.88    7.40
  -6   4   2  209.88    8.80
  -6   4   2  206.18    8.30
   6   4  -2  204.98    9.20
   6   4  -2  210.08    7.40
  -6   4   2  200.08    8.40
  -5  -4   2   12.60    2.20
   5  -4  -2   11.80    1.70
   5  -4  -2   11.40    2.40
  -5  -4   2    7.80    1.80
  -5  -4   2   15.20    1.90
   5  -4  -2   11.20    2.30
  -5  -4   2   17.50    2.60
  -5  -4   2   14.70    2.10
   5   4  -2   10.10    2.40
  -5   4   2   12.60    2.50
   5   4  -2    9.80    1.80
  -5   4   2   13.40    1.40
  -5   4   2   12.70    1.70
  -5   4   2   13.90    2.40
  -5   4   2    8.20    2.00
   4  -4  -2    5.20    1.70
  -4  -4   2    7.50    1.60
   4  -4  -2    5.40    1.80
  -4  -4   2   10.20    1.60
  -4  -4   2    6.70    1.70
  -4  -4   2   12.60    2.30
  -4  -4   2   10.80    1.80
   4  -4  -2    6.20    1.30
   4   4  -2    7.90    2.10
  -4   4   2    8.50    1.50
  -4   4   2   10.40    2.00
  -4   4   2    8.80    2.10
  -4   4   2    6.90    1.70
  -4   4   2    7.20    1.20
   4   4  -2    6.80    1.60
   3  -4  -2   49.99    3.70
  -3  -4   2   45.90    3.30
   3  -4  -2   48.80    2.90
   3  -4  -2   46.20    3.50
  -3  -4   2   48.90    3.60
  -3  -4   2   56.49    3.10
  -3  -4   2   55.39    3.50
  -3  -4   2   53.19    3.30
  -3   4   2   47.70    3.20
  -3   4   2   48.80    3.40
  -3   4   2   52.89    2.70
   3   4  -2   52.89    3.30
  -3   4   2   55.69    3.00
  -3   4   2   43.30    3.50
   3   4  -2   47.70    3.70
  -2  -4   2  561.64   16.60
   2  -4  -2  541.45   17.00
   2  -4  -2  551.44   16.10
  -2  -4   2  567.74   17.10
  -2  -4   2  557.64   16.80
   2  -4  -2  551.24   17.20
  -2  -4   2  553.44   16.80
  -2  -4   2  556.64   16.20
   2   4  -2  560.74   16.80
  -2   4   2  556.54   17.10
  -2   4   2  578.54   16.20
   2   4  -2  564.44   17.30
   2   4  -2  557.34   16.20
  -2   4   2  569.84   16.00
  -2   4   2  515.45   16.60
  -2   4   2  551.84   16.50
   1  -4  -2  108.49    5.20
  -1  -4   2  107.39    5.10
   1  -4  -2  103.59    4.50
  -1  -4   2   98.89    4.90
   1  -4  -2  102.69    5.20
   1  -4  -2  106.89    4.60
  -1  -4   2   98.09    4.70
  -1  -4   2  117.99    5.30
  -1  -4   2  104.39    5.10
  -1   4   2  112.69    5.20
  -1   4   2  105.49    5.00
   1   4  -2  106.59    4.70
   1   4  -2  105.59    5.10
  -1   4   2  101.19    4.50
   1   4  -2  119.69    5.30
  -1   4   2  110.79    4.80
  -1   4   2  108.99    4.60
   0  -4   2   62.29    3.60
   0  -4  -2   56.59    3.50
   0  -4  -2   55.29    3.70
   0  -4   2   63.19    3.90
   0  -4   2   55.29    3.60
   0  -4  -2   61.29    3.40
   0   4  -2   56.79    3.70
   0   4   2   63.19    3.70
   0   4   2   57.79    3.30
   0   4  -2   54.29    3.50
   0   4  -2   59.19    3.40
   0   4   2   50.19    3.60
   0   4   2   62.29    3.00
  -1  -4  -2   27.20    2.80
  -1  -4  -2   22.50    2.50
  -1  -4  -2   32.50    3.60
   1  -4   2   29.40    2.90
  -1  -4  -2   28.70    1.80
   1  -4   2   26.60    2.80
  -1  -4  -2   31.00    2.40
   1  -4   2   27.30    2.90
   1   4   2   28.20    2.80
  -1   4  -2   25.90    2.60
   1   4   2   28.40    2.80
  -1   4  -2   26.00    2.60
  -1   4  -2   26.50    2.70
  -1   4  -2   22.20    2.70
   1   4   2   25.20    1.80
   1   4   2   23.40    2.60
  -2  -4  -2  239.68    8.80
  -2  -4  -2  248.78    8.70
  -2  -4  -2  239.08    7.00
  -2  -4  -2  232.18    8.70
   2  -4   2  214.18    8.70
  -2  -4  -2  238.58    8.70
   2  -4   2  253.67    8.60
   2   4   2  225.78    8.50
  -2   4  -2  230.88    8.30
   2   4   2  224.08    8.70
  -2   4  -2  241.18    8.80
  -2   4  -2  233.58    8.90
   2   4   2  227.98    7.00
  -2   4  -2  227.68    8.30
   3  -4   2  131.79    6.20
  -3  -4  -2  123.49    4.00
  -3  -4  -2  126.79    5.70
   3  -4   2  132.89    5.70
  -3  -4  -2  135.39    5.90
  -3  -4  -2  124.09    6.00
  -3  -4  -2  129.39    6.00
  -3   4  -2  114.99    6.00
  -3   4  -2  143.09    5.70
   3   4   2  120.89    6.20
   3   4   2  134.69    5.80
  -3   4  -2  136.09    6.20
  -3   4  -2  130.59    5.50
  -4  -4  -2   -1.20    1.00
   4  -4   2   -0.60    1.00
  -4  -4  -2    0.60    1.10
   4  -4   2    1.40    1.20
  -4  -4  -2   -0.10    0.40
  -4  -4  -2   -0.50    1.30
  -4  -4  -2    0.90    1.10
   4  -4   2   -1.10    1.10
   4   4   2    0.40    1.20
  -4   4  -2   -1.80    1.20
  -4   4  -2   -0.50    1.00
   4   4   2   -0.40    1.00
  -4   4  -2   -1.70    1.20
  -5  -4  -2   36.70    4.00
  -5  -4  -2   37.00    1.50
   5  -4   2   37.70    3.70
  -5  -4  -2   39.10    3.30
   5  -4   2   36.20    3.80
   5  -4   2   41.90    3.20
  -5  -4  -2   40.20    3.00
  -5  -4  -2   38.20    1.50
  -5  -4  -2   39.80    3.90
   5   4   2   37.50    2.90
  -5   4  -2   44.40    3.20
   5   4   2   38.90    4.20
  -5   4  -2   33.70    3.70
  -5   4  -2   45.80    3.60
   6  -4   2   70.59    5.20
  -6  -4  -2   70.59    5.00
   6  -4   2   76.99    5.10
  -6  -4  -2   64.49    3.90
   6  -4   2   74.89    4.80
  -6  -4  -2   64.49    5.00
   6   4   2   72.99    4.20
  -6   4  -2   67.59    4.10
  -6   4  -2   63.09    5.00
   6   4   2   74.79    5.40
  -6   4  -2   78.79    4.90
  -7  -4  -2   46.50    5.00
   7  -4   2   43.80    4.20
  -7  -4  -2   46.20    3.20
   7  -4   2   40.60    4.40
   7  -4   2   50.79    3.70
   7  -4   2   42.80    4.90
  -7  -4  -2   50.19    4.90
  -7   4  -2   48.90    4.50
  -7   4  -2   49.30    4.90
   7   4   2   35.90    4.50
   7   4   2   45.80    3.50
  -7   4  -2   50.09    3.70
  -8  -4  -2   13.60    1.90
   8  -4   2   13.00    3.00
  -8  -4  -2   19.30    3.60
  -8  -4  -2   13.90    3.00
   8  -4   2   15.20    3.50
   8  -4   2   16.00    2.60
  -8   4  -2   13.70    3.30
   8   4   2   11.90    2.60
  -8   4  -2   10.10    2.50
  -8   4  -2   14.10    2.40
   9  -4   2   30.50    4.80
  -9  -4  -2   39.30    5.10
   9  -4   2   26.70    4.10
  -9  -4  -2   32.20    4.50
   9   4   2   38.60    5.30
  -9   4  -2   37.40    4.10
  -9   4  -2   33.60    4.70
 -10  -4  -2    2.50    2.50
  10  -4   2   -0.70    2.40
 -10  -4  -2    3.10    2.90
 -10   4  -2    0.80    1.80
 -10   4  -2    3.30    2.80
  10   4   2    0.50    2.40
 -10  -5   2   35.90    4.70
  10  -5  -2   28.40    4.90
 -10  -5   2   22.50    4.80
  10  -5  -2   32.70    4.50
 -10   5   2   31.00    4.20
 -10   5   2   31.30    4.20
  10   5  -2   37.80    5.70
   9  -5  -2   -0.40    2.20
  -9  -5   2    0.50    2.30
  -9  -5   2    0.40    2.50
   9  -5  -2    1.50    1.90
  -9   5   2    3.30    2.00
  -9   5   2   -1.10    1.70
   9   5  -2    2.00    2.60
  -9   5   2    0.60    2.40
  -8  -5   2   10.50    2.90
   8  -5  -2    8.50    3.00
   8  -5  -2   13.80    2.90
  -8  -5   2   12.40    3.00
  -8  -5   2    8.20    1.90
  -8   5   2   11.50    2.70
  -8   5   2    9.30    2.60
  -8   5   2    9.70    3.00
   8   5  -2    7.30    3.00
  -7  -5   2   28.90    3.00
  -7  -5   2   25.30    3.60
   7  -5  -2   24.00    3.50
   7  -5  -2   26.10    3.60
   7  -5  -2   19.60    3.50
  -7  -5   2   22.70    3.90
   7   5  -2   22.30    3.90
  -7   5   2   26.50    4.00
  -7   5   2   24.80    3.60
  -7   5   2   29.60    3.70
   6  -5  -2   75.79    5.30
   6  -5  -2   73.59    5.20
  -6  -5   2   67.39    4.40
  -6  -5   2   73.89    5.00
  -6  -5   2   77.19    5.70
  -6   5   2   79.09    5.50
  -6   5   2   75.89    4.80
  -6   5   2   68.39    5.30
   6   5  -2   82.29    6.00
   5  -5  -2  202.28    7.60
   5  -5  -2  201.38    9.00
   5  -5  -2  207.38    8.90
  -5  -5   2  211.68    9.10
  -5  -5   2  195.08    8.40
  -5  -5   2  197.88    8.10
   5   5  -2  206.08    9.60
  -5   5   2  205.78    9.10
   5   5  -2  211.28    8.20
  -5   5   2  211.28    9.10
  -5   5   2  195.38    8.40
  -4  -5   2  199.58    8.70
  -4  -5   2  183.78    8.00
   4  -5  -2  188.68    7.20
   4  -5  -2  188.08    8.60
  -4  -5   2  188.38    7.80
  -4   5   2  178.48    8.40
   4   5  -2  193.28    8.90
   4   5  -2  197.88    8.00
  -4   5   2  186.28    6.70
  -4   5   2  198.78    8.40
  -4   5   2  195.38    8.20
  -3  -5   2    2.70    1.50
  -3  -5   2   -0.30    1.50
  -3  -5   2    1.60    1.40
   3  -5  -2    2.70    1.40
   3  -5  -2    0.10    1.80
   3  -5  -2    2.90    1.70
   3   5  -2    1.60    1.40
  -3   5   2    4.20    1.40
  -3   5   2   -0.30    1.10
  -3   5   2    1.40    1.80
   3   5  -2   -0.50    1.60
  -3   5   2   -0.60    1.20
   2  -5  -2    5.50    2.20
   2  -5  -2    7.00    2.10
  -2  -5   2    6.10    1.90
  -2  -5   2    5.60    1.70
   2  -5  -2    6.70    1.80
  -2  -5   2    4.50    1.90
  -2   5   2    5.20    2.00
  -2   5   2    7.50    1.60
  -2   5   2    7.20    1.70
   2   5  -2    5.40    2.00
  -2   5   2    6.80    2.00
   2   5  -2    3.50    1.70
   2   5  -2    7.60    1.70
   1  -5  -2  208.08    9.00
   1  -5  -2  207.48    8.90
  -1  -5   2  219.68    8.90
  -1  -5   2  214.68    8.60
  -1  -5   2  233.38    9.10
   1  -5  -2  221.48    8.30
  -1   5   2  230.58    8.20
  -1   5   2  206.88    8.90
  -1   5   2  218.68    8.20
   1   5  -2  237.08    9.10
  -1   5   2  222.18    8.70
   1   5  -2  226.88    9.00
   1   5  -2  238.08    8.40
   0  -5  -2   37.40    3.80
   0  -5   2   34.40    3.40
   0  -5  -2   38.20    3.50
   0  -5  -2   36.70    3.60
   0  -5   2   34.10    3.70
   0   5   2   33.80    3.40
   0   5   2   35.70    3.80
   0   5   2   36.30    2.70
   0   5  -2   34.70    3.70
   0   5  -2   34.70    3.50
   0   5  -2   29.20    3.00
   0   5   2   35.50    3.40
  -1  -5  -2  123.99    6.10
   1  -5   2  129.99    6.20
   1  -5   2  130.19    6.60
   1  -5   2  124.29    6.20
  -1  -5  -2  136.99    5.20
  -1  -5  -2  125.99    6.40
  -1  -5  -2  139.99    6.60
  -1   5  -2  141.59    6.80
  -1   5  -2  127.79    6.00
  -1   5  -2  134.69    6.20
   1   5   2  134.19    6.40
  -1   5  -2  129.99    6.20
   1   5   2  128.99    6.40
   1   5   2  127.39    6.30
   1   5   2  128.49    5.10
   2  -5   2   11.00    2.60
  -2  -5  -2   11.60    2.40
  -2  -5  -2    9.20    1.40
  -2  -5  -2   12.20    2.50
  -2  -5  -2   10.50    2.20
   2  -5   2   10.80    2.20
   2   5   2   11.70    2.30
  -2   5  -2   10.80    2.30
   2   5   2    6.70    2.00
  -2   5  -2    7.90    2.40
  -2   5  -2   12.50    2.30
  -2   5  -2   15.50    2.40
   2   5   2   11.00    1.40
   3  -5   2  256.67   10.70
  -3  -5  -2  273.67   10.70
  -3  -5  -2  276.77   10.40
   3  -5   2  281.37   10.20
  -3  -5  -2  273.17   10.60
  -3   5  -2  272.47   10.70
  -3   5  -2  293.17   10.00
   3   5   2  291.87   10.50
  -3   5  -2  286.77   10.30
  -3   5  -2  253.87   10.70
   3   5   2  267.97   10.70
  -4  -5  -2  218.18    9.50
   4  -5   2  237.88    9.20
  -4  -5  -2  234.78    9.20
  -4  -5  -2  224.78    9.60
   4  -5   2  230.48    9.80
  -4   5  -2  237.48    9.10
   4   5   2  232.78    9.20
  -4   5  -2  246.18    9.90
  -4   5  -2  226.08    9.70
  -4   5  -2  226.38    8.60
   4   5   2  213.38    9.80
   5  -5   2    3.40    1.70
   5  -5   2    0.30    1.80
  -5  -5  -2    2.90    2.10
  -5  -5  -2    1.90    2.00
  -5  -5  -2    4.30    2.00
  -5   5  -2    3.60    2.00
  -5   5  -2    3.20    1.80
  -5   5  -2    2.70    1.70
  -5   5  -2   -0.10    1.50
   5   5   2    3.60    2.30
  -6  -5  -2   36.80    4.40
  -6  -5  -2   31.60    3.40
   6  -5   2   28.10    4.00
   6  -5   2   31.20    4.00
  -6  -5  -2   29.40    4.00
  -6   5  -2   29.80    3.20
  -6   5  -2   37.70    4.50
   6   5   2   33.20    4.60
  -6   5  -2   29.20    3.40
  -6   5  -2   39.20    4.30
  -7  -5  -2   17.70    2.60
  -7  -5  -2   14.00    3.40
   7  -5   2   18.30    3.60
  -7  -5  -2   15.30    3.20
   7  -5   2   14.90    2.60
   7   5   2   15.30    2.70
  -7   5  -2   14.60    3.50
  -7   5  -2   13.40    3.00
   7   5   2   16.90    3.80
  -7   5  -2   15.80    2.60
   8  -5   2   97.89    7.30
  -8  -5  -2  120.39    7.30
   8  -5   2  111.99    6.20
  -8  -5  -2  105.39    5.40
  -8  -5  -2   99.89    7.30
  -8   5  -2  111.09    6.00
  -8   5  -2  109.59    6.90
   8   5   2  124.29    8.10
  -8   5  -2  111.49    7.30
   9  -5   2   -1.50    2.20
  -9  -5  -2    0.00    2.50
  -9  -5  -2    2.60    2.40
  -9   5  -2   -1.20    1.80
  -9   5  -2   -0.50    1.80
   9   5   2    0.80    2.80
   9  -6  -2   70.59    6.80
   9  -6  -2   70.09    7.30
  -9  -6   2   76.19    6.80
   9   6  -2   68.09    7.50
  -9   6   2   74.99    6.60
   8  -6  -2    1.80    2.30
  -8  -6   2    3.80    2.90
  -8  -6   2    0.40    2.50
  -8  -6   2   -2.00    1.60
   8  -6  -2   -0.70    1.70
   8   6  -2    1.00    2.00
  -8   6   2    0.40    1.90
  -8   6   2    0.70    2.30
  -8   6   2    1.40    2.00
   7  -6  -2    4.80    2.70
  -7  -6   2    5.40    2.50
  -7  -6   2    1.70    1.70
  -7  -6   2    4.60    2.30
   7  -6  -2    3.90    2.60
  -7   6   2    3.50    1.90
  -7   6   2   -0.50    2.30
   7   6  -2   -0.80    2.40
  -7   6   2    2.20    2.20
   6  -6  -2   45.30    5.00
  -6  -6   2   46.40    5.40
   6  -6  -2   48.70    5.20
  -6  -6   2   49.20    4.50
  -6  -6   2   44.50    4.80
  -6   6   2   49.90    5.40
   6   6  -2   42.20    5.30
  -6   6   2   45.60    4.90
  -6   6   2   43.70    5.10
  -5  -6   2    3.00    2.10
   5  -6  -2   10.60    3.00
  -5  -6   2    7.20    2.50
   5  -6  -2    9.60    2.60
   5  -6  -2    4.40    1.80
  -5  -6   2    5.70    2.70
  -5   6   2    8.60    2.80
   5   6  -2    4.10    2.70
  -5   6   2    3.90    2.20
  -5   6   2   10.30    2.70
   4  -6  -2   47.10    3.70
  -4  -6   2   42.60    4.30
   4  -6  -2   50.29    5.20
  -4  -6   2   43.50    4.40
  -4  -6   2   41.20    4.80
   4   6  -2   37.90    4.20
  -4   6   2   47.50    4.70
  -4   6   2   45.80    4.60
   4   6  -2   33.80    4.60
  -4   6   2   48.60    5.10
  -3  -6   2   24.30    3.40
   3  -6  -2   23.10    2.90
  -3  -6   2   18.50    3.20
  -3  -6   2   18.20    3.40
   3  -6  -2   24.60    3.90
   3  -6  -2   26.20    3.80
   3   6  -2   20.60    3.70
  -3   6   2   20.10    3.60
  -3   6   2   24.50    2.80
  -3   6   2   20.40    3.30
   3   6  -2   25.00    3.50
  -3   6   2   24.60    3.30
  -2  -6   2   -1.80    1.70
   2  -6  -2    2.40    1.60
   2  -6  -2   -0.70    1.30
  -2  -6   2    0.80    1.70
  -2  -6   2    0.90    1.60
   2  -6  -2   -1.30    1.80
   2   6  -2    0.90    1.30
  -2   6   2   -0.40    1.90
   2   6  -2    0.20    1.80
  -2   6   2   -0.60    1.20
   2   6  -2   -1.80    1.60
  -2   6   2   -0.50    1.70
  -2   6   2    0.80    1.40
   1  -6  -2   -1.00    1.70
  -1  -6   2    6.70    2.30
  -1  -6   2    4.70    2.10
   1  -6  -2    4.60    1.90
  -1  -6   2    2.80    2.00
   1  -6  -2    7.10    2.00
  -1   6   2    6.00    1.70
  -1   6   2    3.50    1.60
   1   6  -2    3.40    2.00
   1   6  -2    3.10    2.10
  -1   6   2    2.50    2.10
   1   6  -2    1.20    1.40
  -1   6   2    2.80    1.80
   0  -6   2   71.59    5.10
   0  -6  -2   73.79    4.90
   0  -6   2   65.79    5.30
   0  -6  -2   70.89    5.40
   0  -6   2   79.09    5.30
   0  -6  -2   74.19    5.40
   0   6   2   79.09    4.30
   0   6   2   80.79    5.30
   0   6   2   64.19    5.20
   0   6  -2   81.99    4.80
   0   6  -2   79.29    5.50
   0   6   2   74.89    4.90
   0   6  -2   69.99    5.00
   1  -6   2  299.97   11.60
  -1  -6  -2  288.77   11.60
  -1  -6  -2  318.47   12.00
   1  -6   2  279.97   11.20
   1  -6   2  318.77   12.20
  -1  -6  -2  292.07   11.30
   1   6   2  284.57    9.80
   1   6   2  294.37   11.40
   1   6   2  292.47   11.70
  -1   6  -2  301.17   11.20
  -1   6  -2  273.07   11.00
  -1   6  -2  298.17   12.00
   2  -6   2    4.00    2.30
  -2  -6  -2    2.90    2.20
  -2  -6  -2    3.70    2.10
   2  -6   2    1.10    1.90
  -2  -6  -2    3.90    2.20
  -2   6  -2    2.60    2.00
   2   6   2    4.80    2.20
  -2   6  -2    1.80    2.10
   2   6   2    2.10    1.20
  -2   6  -2    0.60    1.90
  -2   6  -2    2.60    1.90
   2   6   2   -1.50    1.70
  -3  -6  -2    0.90    2.00
  -3  -6  -2    1.90    2.10
   3  -6   2   -1.70    1.90
  -3  -6  -2    1.80    2.10
   3  -6   2    0.00    1.70
  -3   6  -2    2.90    1.90
  -3   6  -2    1.20    2.20
  -3   6  -2   -0.20    1.80
  -3   6  -2   -0.40    1.80
   3   6   2    1.50    2.10
   3   6   2    1.60    1.90
  -4  -6  -2   -1.20    1.90
  -4  -6  -2   -2.00    1.80
   4  -6   2    0.20    1.60
  -4  -6  -2   -0.70    1.90
   4  -6   2    0.30    1.70
  -4   6  -2    0.70    1.80
  -4   6  -2    1.20    2.10
  -4   6  -2   -1.80    1.60
  -4   6  -2    1.20    2.10
   4   6   2    2.80    2.40
  -5  -6  -2   19.20    3.70
  -5  -6  -2   26.70    4.10
  -5  -6  -2   27.30    3.60
   5  -6   2   28.60    4.20
   5  -6   2   25.50    3.50
  -5   6  -2   27.70    3.70
   5   6   2   21.40    4.00
  -5   6  -2   29.90    4.20
  -5   6  -2   31.40    4.00
  -5   6  -2   22.70    4.00
  -6  -6  -2   -2.00    2.00
  -6  -6  -2    2.90    2.40
  -6  -6  -2   -0.90    1.70
   6  -6   2   -1.20    1.50
   6  -6   2   -0.70    2.20
   6  -6   2    0.60    1.70
  -6   6  -2   -2.20    1.80
  -6   6  -2   -0.90    2.10
  -6   6  -2    1.80    2.00
   6   6   2    2.20    2.60
  -7  -6  -2    1.90    1.90
  -7  -6  -2    0.20    2.40
   7  -6   2    0.80    2.50
  -7  -6  -2    1.70    2.50
  -7   6  -2    2.10    2.10
   7   6   2   -0.40    1.80
   7   6   2    2.30    2.20
  -7   6  -2   -1.30    2.30
  -7   6  -2    1.40    2.40
   8  -6   2    7.80    2.60
  -8  -6  -2    1.70    1.80
   8  -6   2    1.00    2.60
  -8  -6  -2    0.50    2.50
   8   6   2    0.00    2.20
  -7  -7   2    7.90    2.60
   7  -7  -2    8.50    3.30
   7  -7  -2    4.10    2.70
  -7  -7   2    8.30    3.10
  -7   7   2   11.70    3.60
   7   7  -2    6.30    2.90
  -7   7   2    5.50    2.70
  -6  -7   2   -0.80    2.40
   6  -7  -2    4.10    3.00
  -6  -7   2    1.40    2.30
   6  -7  -2    1.20    2.60
  -6  -7   2    1.20    2.30
  -6   7   2    5.80    3.00
   6   7  -2   -2.60    2.40
  -6   7   2    0.20    2.30
  -6   7   2   -0.20    2.20
  -5  -7   2   10.30    3.10
   5  -7  -2   14.10    3.20
  -5  -7   2   26.70    4.30
   5  -7  -2    8.80    3.30
  -5  -7   2   18.40    4.10
  -5   7   2   14.60    3.60
  -5   7   2   18.50    3.80
  -5   7   2   15.80    3.60
   5   7  -2   15.50    3.90
   4  -7  -2   67.59    5.30
  -4  -7   2   66.59    6.00
  -4  -7   2   76.49    6.10
   4  -7  -2   65.59    6.50
  -4  -7   2   78.79    7.00
  -4   7   2   66.89    6.10
   4   7  -2   71.39    7.00
  -4   7   2   74.59    6.00
  -4   7   2   67.09    6.30
   3  -7  -2   23.40    3.40
   3  -7  -2   18.90    3.80
  -3  -7   2   17.80    3.40
  -3  -7   2   17.10    3.40
   3  -7  -2   17.90    3.80
  -3  -7   2   25.10    4.20
  -3   7   2   25.50    4.20
   3   7  -2   19.40    3.90
  -3   7   2   24.00    3.90
  -3   7   2   25.20    3.80
   2  -7  -2   31.00    4.50
  -2  -7   2   36.80    4.80
  -2  -7   2   22.90    3.70
   2  -7  -2   30.20    3.90
   2  -7  -2   27.20    4.30
  -2  -7   2   36.90    4.60
  -2   7   2   26.10    3.50
   2   7  -2   26.30    4.20
   2   7  -2   22.30    3.20
   2   7  -2   30.40    4.50
  -2   7   2   22.80    4.10
  -2   7   2   29.30    4.20
  -1  -7   2   52.69    5.30
   1  -7  -2   59.59    4.70
   1  -7  -2   57.79    5.80
   1  -7  -2   45.60    5.40
  -1  -7   2   50.79    5.30
  -1  -7   2   52.49    5.70
  -1   7   2   52.19    5.10
  -1   7   2   44.70    5.00
   1   7  -2   44.60    5.20
  -1   7   2   50.49    4.00
   1   7  -2   51.59    4.70
   1   7  -2   54.09    5.60
  -1   7   2   44.90    5.30
   0  -7   2  128.29    7.90
   0  -7  -2  129.09    7.10
   0  -7   2  141.99    7.70
   0  -7  -2  129.79    7.80
   0  -7  -2  143.59    8.30
   0  -7   2  141.69    7.70
   0   7   2  140.59    8.20
   0   7   2  130.69    7.20
   0   7  -2  127.59    6.90
   0   7  -2  122.29    7.70
   0   7  -2  127.19    7.40
   1  -7   2   10.00    3.00
  -1  -7  -2    6.30    2.80
  -1  -7  -2    5.10    2.60
  -1  -7  -2    3.30    2.20
   1  -7   2    9.60    2.90
   1  -7   2   11.30    3.30
   1   7   2    6.00    2.60
  -1   7  -2    5.50    2.40
  -1   7  -2    8.30    3.00
   1   7   2    5.90    2.70
  -1   7  -2    9.70    2.60
  -2  -7  -2    9.60    2.90
   2  -7   2    7.80    2.60
  -2  -7  -2    6.90    2.90
   2  -7   2    8.20    3.00
  -2  -7  -2    6.00    2.70
   2   7   2    4.00    2.50
   2   7   2    5.40    2.60
  -2   7  -2    3.10    2.00
  -2   7  -2    9.90    3.20
  -2   7  -2    6.90    2.50
   3  -7   2    3.30    2.30
  -3  -7  -2    0.90    2.50
   3  -7   2   -0.30    2.50
  -3  -7  -2    3.10    2.40
  -3  -7  -2    4.40    2.70
  -3   7  -2    1.10    2.00
   3   7   2    0.50    2.30
  -3   7  -2    3.30    2.80
  -3   7  -2    7.40    2.70
  -4  -7  -2   24.80    4.30
   4  -7   2   30.70    4.80
  -4  -7  -2   24.80    4.30
   4  -7   2   25.30    3.80
  -4  -7  -2   24.30    4.10
  -4   7  -2   28.00    4.60
  -4   7  -2   19.10    3.90
   4   7   2   28.30    4.60
  -4   7  -2   23.80    3.90
  -5  -7  -2   64.49    6.50
  -5  -7  -2   63.89    6.10
  -5  -7  -2   71.19    6.90
   5  -7   2   57.59    5.50
   5  -7   2   65.69    6.70
  -5   7  -2   73.79    6.40
  -5   7  -2   59.29    6.40
   5   7   2   62.39    6.90
  -5   7  -2   62.89    6.50
   6  -7   2   -4.20    1.80
  -6  -7  -2   -0.60    1.90
  -6  -7  -2   -3.50    2.30
  -6   7  -2    1.70    2.70
  -6   7  -2    2.30    2.70
   6   7   2   -0.30    2.10
  -3  -8   2    4.70    3.40
   3  -8  -2   -0.20    2.60
  -3  -8   2    1.40    2.50
   3   8  -2   -1.80    2.60
  -3   8   2   -1.50    2.50
  -2  -8   2   10.90    3.40
  -2  -8   2   13.10    3.70
   2  -8  -2   14.10    4.30
   2  -8  -2   15.50    4.00
  -2   8   2   10.50    4.30
   2   8  -2   10.20    3.50
  -2   8   2    9.90    3.80
  -1  -8   2   56.59    6.60
   1  -8  -2   63.59    6.70
   1  -8  -2   73.89    7.40
  -1  -8   2   64.99    6.60
   1  -8  -2   69.89    6.30
  -1  -8   2   65.29    6.60
   1   8  -2   70.69    7.10
  -1   8   2   77.29    7.50
   1   8  -2   85.89    7.00
  -1   8   2   75.09    5.90
   0  -8   2   10.60    3.60
   0  -8  -2   19.50    3.80
   0  -8   2   13.80    3.70
   0  -8  -2   14.10    3.80
   0  -8   2   18.30    4.00
   0  -8  -2   16.90    3.90
   0   8  -2   14.10    3.50
   0   8   2   16.30    3.90
   0   8   2   12.50    3.50
  -1  -8  -2    4.80    3.60
  -1  -8  -2   15.60    3.90
   1  -8   2    7.20    3.30
  -1  -8  -2    5.70    2.90
   1  -8   2    9.60    3.10
  -1   8  -2   10.10    3.50
  -1   8  -2    2.40    2.40
   1   8   2    7.00    3.00
   1   8   2    2.70    2.80
  -1   8  -2    8.90    2.90
  -2  -8  -2    0.00    2.60
   2  -8   2    5.20    3.30
   2  -8   2   -0.20    2.20
  -2  -8  -2    1.20    2.70
  -2   8  -2   -0.50    2.80
   2   8   2    3.60    2.80
  -2   8  -2   -0.20    2.40
  -2   8  -2    2.30    2.50
  -3  -8  -2   -2.20    2.40
   3  -8   2   -1.40    2.50
   3  -8   2    2.60    2.50
  -3   8  -2    0.30    2.70
   3   8   2   -3.60    2.90
 -13   0   3    0.70    2.40
  13   0  -3    1.10    2.50
 -13   0   3   -3.70    1.80
  12   0  -3   -3.00    1.60
 -12   0   3    1.90    1.70
 -12   0   3    0.10    1.80
 -12   0   3    0.90    2.00
  12   0  -3   -1.90    1.40
 -12   0   3    3.10    2.20
 -11   0   3    0.10    1.40
  11   0  -3    0.40    1.70
  11   0  -3    0.20    1.60
 -11   0   3   -0.70    1.70
 -11   0   3   -1.20    1.30
 -11   0   3    1.40    1.80
 -10   0   3   -1.60    1.10
  10   0  -3    0.40    1.90
 -10   0   3   -0.40    1.30
  10   0  -3   -0.60    1.30
 -10   0   3   -0.10    1.60
  10   0  -3   -1.90    1.30
   9   0  -3    4.00    1.70
  -9   0   3    4.20    1.60
   9   0  -3    3.80    1.70
  -9   0   3    2.20    1.50
  -9   0   3    0.10    1.30
   9   0  -3   -0.80    1.40
  -8   0   3    3.30    1.20
  -8   0   3    0.80    1.10
   8   0  -3    0.00    1.40
  -8   0   3   -0.20    1.20
   8   0  -3   -0.50    1.00
   8   0  -3   -0.60    1.00
   8   0  -3   -0.40    0.80
  -7   0   3    0.80    1.10
   7   0  -3   -0.30    1.00
  -7   0   3   -0.10    0.90
   7   0  -3   -1.50    0.70
  -7   0   3   -0.80    0.80
   7   0  -3   -1.10    0.80
   6   0  -3    0.40    1.10
  -6   0   3    1.30    0.80
  -6   0   3    0.60    1.00
   6   0  -3    0.80    0.90
   6   0  -3   -0.50    0.80
  -6   0   3    1.10    0.90
  -6   0   3    0.00    0.20
   5   0  -3   -0.10    0.60
   5   0  -3    0.10    0.30
   5   0  -3    0.10    0.30
   5   0  -3   -0.10    0.80
  -5   0   3   -0.20    0.30
   5   0  -3   -0.80    0.70
  -5   0   3   -0.40    0.70
  -5   0   3   -0.40    0.30
  -5   0   3   -0.70    0.70
   4   0  -3    2.10    0.50
  -4   0   3    1.60    0.80
  -4   0   3   -1.30    0.50
   4   0  -3    0.50    0.40
  -4   0   3    0.10    0.30
   4   0  -3    0.30    0.90
   4   0  -3    1.00    0.60
  -4   0   3    1.30    0.40
   4   0  -3    0.20    0.70
   3   0  -3    0.20    0.50
   3   0  -3   -0.20    0.40
  -3   0   3   -0.30    0.60
   3   0  -3   -1.40    0.50
  -3   0   3    0.30    0.40
   3   0  -3   -0.40    0.10
   3   0  -3   -0.40    0.30
  -3   0   3   -0.30    0.30
  -3   0   3    0.10    0.40
  -2   0   3   -0.10    0.40
  -2   0   3    0.40    0.50
   2   0  -3   -0.60    0.30
   2   0  -3    0.10    0.50
   2   0  -3    0.10    0.30
  -2   0   3   -0.10    0.30
   2   0  -3   -0.40    0.40
   2   0  -3   -0.50    0.30
  -2   0   3   -0.80    0.30
  -1   0   3   -0.70    0.40
  -1   0   3   -0.70    0.30
   1   0  -3    0.00    0.40
  -1   0   3   -0.70    0.40
  -1   0   3   -1.30    0.40
   1   0  -3   -1.10    0.40
   1   0  -3   -1.40    0.40
   1   0  -3   -1.60    0.40
  -1   0   3   -0.50    0.20
   1   0  -3   -0.50    0.20
   0   0   3   -1.90    0.30
   0   0  -3   -1.00    0.40
   0   0   3   -1.50    0.30
   0   0  -3   -1.60    0.40
   0   0   3   -1.80    0.30
   0   0  -3   -1.50    0.30
   0   0  -3   -1.60    0.30
   0   0   3   -1.10    0.30
   0   0   3   -2.30    0.30
   0   0  -3   -1.20    0.40
   0   0  -3   -1.40    0.30
   1   0   3    0.00    0.10
  -1   0  -3   -0.20    0.40
  -1   0  -3   -0.80    0.40
  -1   0  -3   -0.70    0.40
  -1   0  -3   -0.70    0.40
   1   0   3   -0.90    0.40
   1   0   3   -0.70    0.30
  -2   0  -3    0.40    0.40
  -2   0  -3   -0.20    0.50
   2   0   3    0.30    0.50
  -2   0  -3   -0.50    0.40
   2   0   3    0.10    0.40
   2   0   3    1.60    0.60
  -3   0  -3    0.50    0.60
  -3   0  -3   -0.60    0.50
   3   0   3    1.40    0.70
   3   0   3   -0.90    0.50
   3   0   3   -0.70    0.50
   3   0   3   -0.50    0.40
  -3   0  -3    0.10    0.50
  -3   0  -3   -0.80    0.20
   3   0   3   -1.30    0.40
   4   0   3   -0.80    0.60
  -4   0  -3   -0.50    0.50
  -4   0  -3    0.30    0.60
   4   0   3   -0.60    0.70
   4   0   3    0.60    0.80
   4   0   3   -0.90    0.50
  -4   0  -3   -0.20    0.50
   4   0   3   -0.30    0.50
  -4   0  -3   -0.10    0.30
   5   0   3    0.70    0.80
   5   0   3    0.20    0.60
   5   0   3    0.70    0.90
   5   0   3    0.30    0.60
  -5   0  -3    1.30    0.60
  -5   0  -3   -0.60    0.50
   5   0   3   -0.20    0.80
  -5   0  -3   -0.30    0.40
  -5   0  -3   -0.20    0.60
  -6   0  -3    0.50    0.80
   6   0   3    1.60    1.00
  -6   0  -3    1.80    0.70
   6   0   3   -0.20    0.40
  -6   0  -3    1.40    0.70
   6   0   3    0.60    1.10
  -6   0  -3    1.00    0.60
  -7   0  -3    1.20    0.80
  -7   0  -3    0.80    0.80
   7   0   3    2.50    1.30
  -7   0  -3    0.40    0.80
   7   0   3    0.50    1.40
  -7   0  -3   -0.20    1.00
   7   0   3    0.60    0.50
  -8   0  -3   -2.20    1.50
   8   0   3    0.30    1.30
  -8   0  -3   -0.90    0.80
  -8   0  -3    1.40    1.40
   8   0   3    0.70    1.60
  -8   0  -3   -0.60    0.70
  -9   0  -3    1.10    0.70
   9   0   3    1.60    1.80
   9   0   3    0.70    1.80
  -9   0  -3    1.70    1.80
  -9   0  -3   -0.10    1.80
  10   0   3   -1.40    1.40
 -10   0  -3   -0.80    1.50
 -10   0  -3   -3.60    1.70
  10   0   3    0.50    1.90
  11   0   3   -2.10    1.70
  11   0   3   -2.70    1.80
 -11   0  -3    0.20    1.70
 -11   0  -3    3.00    2.50
  12   0   3   -0.60    2.30
  12  -1  -3   78.69    7.60
 -12  -1   3   72.79    5.70
 -12  -1   3   83.79    5.40
 -12  -1   3   89.49    6.10
 -12  -1   3   82.09    5.80
  12  -1  -3   85.99    5.50
  12   1  -3   75.69    5.90
  12   1  -3   83.49    5.70
 -12   1   3   89.79    6.80
  12   1  -3   81.29    6.70
 -12   1   3   82.69    5.50
 -11  -1   3   12.10    2.70
 -11  -1   3    7.40    2.10
 -11  -1   3   11.90    2.80
  11  -1  -3    8.70    2.70
  11  -1  -3   12.90    2.60
 -11  -1   3   11.20    2.60
  11   1  -3    8.60    2.40
 -11   1   3    8.00    2.20
 -11   1   3   13.50    2.60
  11   1  -3   10.60    2.50
  11   1  -3   14.40    3.40
 -11   1   3    8.50    2.80
 -10  -1   3  120.59    6.30
 -10  -1   3  112.89    6.30
  10  -1  -3  117.49    7.20
 -10  -1   3  115.19    5.90
  10  -1  -3  124.89    6.20
 -10  -1   3  112.59    6.20
 -10   1   3  123.19    7.00
  10   1  -3  119.89    6.40
 -10   1   3  110.39    5.90
  10   1  -3  114.29    6.80
  10   1  -3  102.89    5.90
  -9  -1   3   96.39    5.40
   9  -1  -3  101.49    5.20
  -9  -1   3   97.99    5.40
  -9  -1   3   91.39    5.20
  -9  -1   3   98.39    5.20
   9  -1  -3   99.59    6.20
   9   1  -3   90.29    5.90
  -9   1   3  104.69    3.50
   9   1  -3   99.29    5.50
   9   1  -3   91.99    5.00
  -9   1   3   93.79    5.00
  -9   1   3   98.59    3.30
  -9   1   3  101.29    6.00
  -8  -1   3  131.19    6.10
  -8  -1   3  133.09    6.10
  -8  -1   3  145.09    6.10
   8  -1  -3  123.39    6.60
   8  -1  -3  134.09    5.90
  -8  -1   3  131.99    6.00
   8  -1  -3  133.19    4.40
  -8   1   3  136.89    4.50
  -8   1   3  128.69    4.40
   8   1  -3  139.99    6.00
  -8   1   3  135.79    5.90
  -8   1   3  134.79    6.60
   8   1  -3  140.59    6.40
   8   1  -3  131.29    6.60
  -7  -1   3  218.08    7.80
  -7  -1   3  223.48    8.20
  -7  -1   3  227.98    8.00
   7  -1  -3  218.88    6.60
  -7  -1   3  207.98    7.90
   7  -1  -3  214.18    7.90
   7  -1  -3  212.28    8.70
  -7   1   3  213.48    6.60
   7   1  -3  223.38    8.70
  -7   1   3  218.58    6.70
   7   1  -3  208.58    8.10
   7   1  -3  209.58    7.80
  -7   1   3  220.18    7.90
  -7   1   3  220.98    8.50
   6  -1  -3  114.39    5.40
   6  -1  -3  116.89    4.10
   6  -1  -3  121.29    4.20
   6  -1  -3  115.19    4.90
  -6  -1   3  114.19    4.90
  -6  -1   3  109.79    4.70
  -6   1   3  118.59    4.10
   6   1  -3  112.29    4.90
   6   1  -3  117.59    5.50
  -6   1   3  115.39    4.90
  -6   1   3  116.89    4.10
   6   1  -3  125.49    5.20
  -6   1   3  112.99    5.30
   5  -1  -3    2.20    0.70
   5  -1  -3    2.60    1.30
  -5  -1   3    1.90    0.30
   5  -1  -3    1.10    0.70
  -5  -1   3    2.10    0.90
   5  -1  -3    3.50    1.10
   5  -1  -3    3.40    1.10
  -5  -1   3    2.50    0.30
  -5  -1   3    1.00    0.80
   5  -1  -3    2.90    0.80
   5   1  -3    1.10    0.90
   5   1  -3    2.60    0.20
  -5   1   3    2.30    0.80
   5   1  -3    2.00    1.00
   5   1  -3    0.80    0.80
  -5   1   3    2.10    1.00
  -5   1   3    2.70    0.80
   5   1  -3    2.40    0.20
  -5   1   3    1.20    1.10
   4  -1  -3   42.60    2.40
   4  -1  -3   38.60    2.50
   4  -1  -3   46.10    1.60
  -4  -1   3   41.50    1.60
   4  -1  -3   43.00    2.10
  -4  -1   3   40.10    2.00
   4  -1  -3   40.10    2.00
  -4  -1   3   40.40    1.60
   4  -1  -3   38.10    2.40
  -4  -1   3   43.50    2.30
  -4   1   3   40.20    2.00
   4   1  -3   42.20    2.40
  -4   1   3   40.90    2.50
   4   1  -3   39.70    1.60
  -4   1   3   36.90    2.30
   4   1  -3   40.90    1.60
   4   1  -3   42.00    2.50
   4   1  -3   40.60    2.40
  -4   1   3   38.20    2.00
   3  -1  -3  648.74   16.90
  -3  -1   3  614.54   16.10
   3  -1  -3  623.24   16.80
  -3  -1   3  599.04   16.20
  -3  -1   3  573.84   16.60
   3  -1  -3  612.44   16.50
  -3  -1   3  599.24   16.10
   3  -1  -3  604.94   16.50
   3  -1  -3  621.04   16.90
   3   1  -3  594.14   16.10
  -3   1   3  597.64   16.50
   3   1  -3  605.74   17.10
   3   1  -3  629.84   17.00
  -3   1   3  607.84   15.70
  -3   1   3  605.34   16.60
   3   1  -3  602.14   16.70
  -3   1   3  600.94   16.80
  -3   1   3  610.34   17.00
  -3   1   3  600.34   16.50
   3   1  -3  617.74   16.90
   2  -1  -3  147.79    4.70
  -2  -1   3  140.29    4.50
   2  -1  -3  146.59    5.20
  -2  -1   3  146.59    4.50
   2  -1  -3  142.29    4.70
   2  -1  -3  144.79    4.70
  -2  -1   3  142.69    4.70
  -2  -1   3  144.09    4.10
   2  -1  -3  145.79    4.70
   2  -1  -3  140.49    4.80
  -2   1   3  144.29    4.80
   2   1  -3  146.19    4.50
   2   1  -3  144.99    4.90
  -2   1   3  147.59    4.70
  -2   1   3  139.59    4.70
   2   1  -3  150.88    5.30
   2   1  -3  146.89    4.70
  -2   1   3  151.48    4.80
   2   1  -3  143.69    4.50
   2   1  -3  141.49    4.10
   1  -1  -3 8339.77  208.98
  -1  -1   3 8216.98  209.38
   1  -1  -3 8072.09  211.78
   1  -1  -3 8889.51  211.38
  -1  -1   3 8130.79  207.68
  -1  -1   3 7674.73  211.38
   1  -1  -3 8206.98  210.18
  -1  -1   3 7820.72  211.18
   1  -1  -3 8285.77  211.68
  -1  -1   3 8162.28  211.38
   1   1  -3 7290.27  210.38
   1   1  -3 7654.93  211.58
  -1   1   3 8630.64  211.38
  -1   1   3 7894.11  210.48
  -1   1   3 8582.44  211.78
   1   1  -3 7442.36  207.58
   1   1  -3 8654.83  211.78
   1   1  -3 8551.74  211.28
  -1   1   3 8310.37  211.08
   0  -1  -3 2279.67   58.09
   0  -1  -3 2260.67   57.89
   0  -1   3 2251.37   57.79
   0  -1   3 2189.58   57.79
   0  -1  -3 2278.47   57.79
   0  -1   3 2238.28   57.79
   0  -1   3 2286.57   57.89
   0  -1  -3 2207.18   58.39
   0   1   3 2244.18   57.69
   0   1   3 2197.68   57.79
   0   1  -3 2246.18   57.79
   0   1   3 2278.07   58.09
   0   1   3 2278.67   57.89
   0   1  -3 2285.67   57.89
   0   1  -3 2160.08   57.79
   0   1   3 2341.27   57.69
   0   1  -3 2267.37   57.89
  -1  -1  -3  239.48    7.20
  -1  -1  -3  232.68    7.10
   1  -1   3  232.28    7.20
   1  -1   3  238.18    7.20
   1  -1   3  239.48    7.30
   1  -1   3  249.58    7.30
   1  -1   3  234.88    6.60
  -1  -1  -3  244.08    7.20
  -1  -1  -3  236.48    6.70
   1   1   3  233.68    6.30
   1   1   3  238.38    7.30
  -1   1  -3  232.48    7.20
  -1   1  -3  238.48    7.30
   1   1   3  232.48    6.70
   1   1   3  232.48    7.10
   1   1   3  236.98    7.10
  -1   1  -3  238.48    7.20
   1   1   3  247.18    7.30
  -1   1  -3  236.08    7.20
   1   1   3  249.38    6.30
   2  -1   3  744.63   19.50
  -2  -1  -3  754.12   19.70
  -2  -1  -3  740.23   19.40
   2  -1   3  729.33   20.40
  -2  -1  -3  734.73   20.10
   2  -1   3  738.23   20.50
  -2  -1  -3  749.33   20.10
   2  -1   3  775.52   20.50
  -2  -1  -3  730.83   20.50
   2  -1   3  741.73   20.30
   2  -1   3  778.62   20.40
   2   1   3  771.62   20.50
   2   1   3  750.22   20.10
  -2   1  -3  747.93   20.30
  -2   1  -3  774.32   20.50
  -2   1  -3  744.93   20.50
  -2   1  -3  740.53   20.30
   2   1   3  783.62   19.80
  -2   1  -3  734.43   19.50
   2   1   3  737.43   20.70
   2   1   3  757.52   19.40
   2   1   3  779.12   20.20
   2   1   3  756.02   20.50
   3  -1   3 1977.10   52.39
  -3  -1  -3 2037.70   51.69
   3  -1   3 2001.80   51.39
   3  -1   3 2047.60   52.39
  -3  -1  -3 1953.40   51.59
  -3  -1  -3 2010.70   52.89
  -3  -1  -3 1979.50   52.09
  -3  -1  -3 2022.40   52.09
   3  -1   3 2089.39   52.79
   3  -1   3 2068.99   52.79
  -3   1  -3 2059.79   52.79
  -3   1  -3 1986.10   52.19
   3   1   3 2052.19   51.59
  -3   1  -3 1949.70   52.29
  -3   1  -3 2019.50   52.69
   3   1   3 2071.49   52.19
   3   1   3 2053.69   52.49
   3   1   3 1986.40   52.09
  -3   1  -3 1998.00   52.39
   3   1   3 2027.70   53.09
   3   1   3 2038.20   52.09
  -4  -1  -3  104.59    3.70
   4  -1   3  110.29    4.60
   4  -1   3  104.09    4.70
  -4  -1  -3  105.09    3.90
   4  -1   3  110.59    3.50
   4  -1   3   98.19    4.10
  -4  -1  -3  101.79    3.90
   4  -1   3  106.89    4.20
  -4  -1  -3  108.89    4.70
   4  -1   3  107.19    4.50
   4   1   3  103.49    3.80
  -4   1  -3  103.09    4.50
  -4   1  -3   98.59    4.10
  -4   1  -3  101.29    4.10
  -4   1  -3  106.29    3.40
   4   1   3  101.89    4.80
   4   1   3  108.49    4.30
   4   1   3  105.59    4.20
   4   1   3  112.29    3.90
  -4   1  -3  106.59    4.50
   5  -1   3  109.09    4.80
  -5  -1  -3  104.59    4.10
   5  -1   3  112.69    4.40
  -5  -1  -3  111.39    4.00
  -5  -1  -3  104.99    4.00
  -5  -1  -3  105.79    5.00
   5  -1   3  100.59    5.00
   5   1   3  107.99    4.70
   5   1   3  114.99    4.70
  -5   1  -3  112.39    4.40
   5   1   3  110.99    5.20
   5   1   3  112.69    4.00
  -5   1  -3  106.39    3.70
  -5   1  -3  107.69    4.90
  -5   1  -3  103.19    4.30
  -6  -1  -3   57.89    2.60
   6  -1   3   57.39    3.60
   6  -1   3   50.79    3.60
  -6  -1  -3   52.99    3.60
  -6  -1  -3   53.59    2.60
   6  -1   3   61.39    3.10
  -6  -1  -3   52.39    2.90
  -6   1  -3   55.99    2.50
  -6   1  -3   57.49    3.00
   6   1   3   55.39    3.80
   6   1   3   65.99    3.40
   6   1   3   61.19    2.70
  -6   1  -3   54.79    3.40
  -6   1  -3   51.19    2.90
   6   1   3   55.99    3.50
   7  -1   3  549.54   18.40
  -7  -1  -3  579.44   16.10
   7  -1   3  610.84   16.80
  -7  -1  -3  574.04   18.50
  -7  -1  -3  575.44   16.50
  -7  -1  -3  587.44   16.10
   7  -1   3  588.24   17.90
  -7  -1  -3  588.94   17.20
   7  -1   3  605.74   16.80
   7   1   3  600.94   16.10
   7   1   3  596.34   16.40
  -7   1  -3  623.04   18.30
  -7   1  -3  588.84   16.80
  -7   1  -3  580.74   16.20
   7   1   3  559.64   18.40
   7   1   3  590.64   18.10
   7   1   3  570.04   17.50
   8  -1   3  342.17   11.80
  -8  -1  -3  328.87    9.60
  -8  -1  -3  330.87   10.30
  -8  -1  -3  341.27   12.60
  -8  -1  -3  336.37   11.20
   8  -1   3  321.97   12.40
   8   1   3  341.67   11.40
  -8   1  -3  322.57   12.00
  -8   1  -3  333.87   10.10
   8   1   3  329.37   12.10
  -8   1  -3  327.97   10.40
   9  -1   3   27.70    3.40
   9  -1   3   25.60    3.80
  -9  -1  -3   24.60    1.40
  -9  -1  -3   25.80    2.90
  -9  -1  -3   34.40    4.20
  -9  -1  -3   21.60    2.80
  -9   1  -3   25.10    3.40
   9   1   3   24.30    3.20
  -9   1  -3   26.30    2.40
   9   1   3   24.30    3.50
 -10  -1  -3   89.59    5.30
 -10  -1  -3   89.89    6.40
  10  -1   3   88.79    5.60
  10  -1   3   74.49    6.00
 -10   1  -3   88.09    5.90
  10   1   3   85.89    6.00
  10   1   3   89.49    5.20
 -10   1  -3   79.29    3.80
  11  -1   3   76.49    5.30
 -11  -1  -3   78.59    7.20
  11  -1   3   60.69    6.60
  11   1   3   77.89    6.00
 -11   1  -3   66.79    6.10
 -11   1  -3   67.89    6.50
  12  -1   3    8.00    3.30
  12   1   3    5.50    3.00
 -12   1  -3    4.40    3.00
  12  -2  -3   10.90    3.50
 -12  -2   3   12.60    2.90
 -12  -2   3   15.60    3.30
  12  -2  -3   10.30    2.80
 -12  -2   3    8.10    2.80
  12   2  -3   13.00    3.20
  12   2  -3   13.70    3.70
  12   2  -3   10.10    3.00
 -12   2   3   13.40    3.70
 -11  -2   3    3.60    2.20
  11  -2  -3    0.10    1.70
  11  -2  -3    4.90    2.10
 -11  -2   3   -0.70    1.70
 -11  -2   3    1.40    1.90
 -11  -2   3    4.20    2.00
  11   2  -3    2.60    2.10
 -11   2   3    0.00    1.80
  11   2  -3    2.00    1.90
  11   2  -3    1.20    1.70
 -11   2   3    1.30    1.90
  10  -2  -3    9.40    2.90
 -10  -2   3    9.70    2.30
 -10  -2   3   13.10    2.50
 -10  -2   3   12.10    2.80
  10  -2  -3   12.00    2.60
 -10  -2   3    9.50    2.30
  10   2  -3   14.50    3.20
 -10   2   3   16.00    2.60
  10   2  -3    8.00    2.50
 -10   2   3   13.70    3.10
 -10   2   3   11.40    1.70
  10   2  -3   14.40    2.70
  -9  -2   3    2.60    1.70
  -9  -2   3    4.00    1.70
  -9  -2   3    1.10    1.40
  -9  -2   3    0.30    1.30
   9  -2  -3   -0.40    1.80
   9  -2  -3    1.00    1.40
   9   2  -3    1.10    1.80
   9   2  -3    2.70    1.80
   9   2  -3   -0.50    1.50
  -9   2   3    1.90    1.10
  -9   2   3    0.40    1.80
  -9   2   3    3.00    1.50
   8  -2  -3    0.30    1.30
   8  -2  -3    0.00    1.00
  -8  -2   3   -1.80    1.50
   8  -2  -3   -0.50    1.20
  -8  -2   3    2.80    1.50
  -8   2   3   -1.10    1.10
   8   2  -3   -0.80    1.30
   8   2  -3   -0.70    1.70
  -8   2   3    0.00    1.10
   8   2  -3   -2.40    1.50
  -8   2   3    0.40    1.70
  -8   2   3   -1.80    1.10
   7  -2  -3    9.50    1.60
  -7  -2   3    7.80    2.00
   7  -2  -3   14.20    2.50
   7  -2  -3   11.30    2.00
  -7  -2   3   11.80    1.90
  -7   2   3    7.30    1.70
  -7   2   3   10.00    2.20
   7   2  -3   14.20    2.20
   7   2  -3   10.00    2.20
  -7   2   3   14.40    1.80
  -7   2   3   11.60    1.60
  -7   2   3   10.50    1.50
   7   2  -3   13.80    2.40
  -6  -2   3    2.50    0.50
   6  -2  -3    3.10    1.10
  -6  -2   3    3.20    1.40
   6  -2  -3    3.70    1.30
  -6  -2   3    3.10    0.50
  -6  -2   3    4.30    1.20
   6  -2  -3    2.20    1.50
   6   2  -3    2.50    1.20
  -6   2   3    3.20    1.10
  -6   2   3    3.30    1.10
  -6   2   3    4.80    1.20
  -6   2   3    3.70    0.90
   6   2  -3    2.50    1.30
   6   2  -3    1.40    1.10
   6   2  -3    4.40    0.60
  -6   2   3    2.60    1.40
  -5  -2   3   62.69    3.10
   5  -2  -3   57.49    3.30
   5  -2  -3   61.09    3.60
  -5  -2   3   58.69    2.40
   5  -2  -3   59.69    3.10
  -5  -2   3   59.39    2.40
  -5  -2   3   64.49    3.50
  -5   2   3   55.49    3.40
  -5   2   3   59.69    2.50
   5   2  -3   61.29    2.40
   5   2  -3   61.79    3.50
  -5   2   3   61.49    3.10
  -5   2   3   56.79    3.20
   5   2  -3   57.79    3.30
  -5   2   3   54.89    3.00
   5   2  -3   55.49    3.50
   4  -2  -3  769.72   21.80
   4  -2  -3  787.92   21.50
  -4  -2   3  755.52   20.70
   4  -2  -3  780.12   21.60
  -4  -2   3  753.52   20.70
  -4  -2   3  764.62   21.80
  -4  -2   3  775.22   21.10
   4  -2  -3  787.02   21.70
   4  -2  -3  774.62   21.40
  -4   2   3  753.32   21.50
   4   2  -3  785.22   21.80
   4   2  -3  813.62   21.10
   4   2  -3  791.52   20.70
   4   2  -3  733.33   20.60
  -4   2   3  803.72   21.80
  -4   2   3  798.52   21.50
  -4   2   3  748.33   21.30
  -4   2   3  770.82   21.90
   4   2  -3  801.82   21.80
  -4   2   3  773.12   20.30
   4   2  -3  763.62   22.00
  -3  -2   3  425.86   13.20
   3  -2  -3  443.96   13.10
  -3  -2   3  439.76   12.60
   3  -2  -3  457.05   13.20
  -3  -2   3  438.66   12.50
  -3  -2   3  462.25   13.00
  -3  -2   3  435.46   12.60
   3  -2  -3  448.56   13.10
   3  -2  -3  438.56   11.90
   3  -2  -3  449.46   13.10
   3  -2  -3  446.26   13.10
   3  -2  -3  445.16   13.10
   3   2  -3  451.85   12.60
   3   2  -3  447.66   13.20
  -3   2   3  440.76   13.10
  -3   2   3  472.75   13.20
  -3   2   3  451.15   13.20
  -3   2   3  443.76   11.90
   3   2  -3  447.76   13.20
  -3   2   3  469.45   13.20
   3   2  -3  440.66   12.60
   3   2  -3  449.86   12.60
  -3   2   3  441.96   13.10
   3   2  -3  454.85   13.50
   2  -2  -3  495.45   14.50
  -2  -2   3  499.35   14.00
   2  -2  -3  500.85   14.50
   2  -2  -3  510.05   13.60
   2  -2  -3  519.75   14.30
   2  -2  -3  498.45   14.60
  -2  -2   3  487.85   14.60
   2  -2  -3  518.85   14.70
  -2  -2   3  522.45   14.40
  -2  -2   3  499.85   14.30
  -2  -2   3  512.75   14.30
  -2   2   3  508.25   13.60
  -2   2   3  513.25   14.60
  -2   2   3  519.85   14.50
   2   2  -3  530.55   14.90
  -2   2   3  521.35   14.70
   2   2  -3  508.85   14.00
   2   2  -3  537.55   14.40
   2   2  -3  518.95   14.70
  -2   2   3  524.25   14.60
  -2   2   3  524.25   13.50
  -2   2   3  512.55   14.40
   2   2  -3  490.75   14.30
   2   2  -3  504.85   14.60
   1  -2  -3   13.90    1.60
   1  -2  -3   14.90    1.10
   1  -2  -3   15.40    1.60
   1  -2  -3   14.30    1.10
  -1  -2   3   13.80    1.50
  -1  -2   3   13.50    1.50
  -1  -2   3   12.90    1.50
  -1  -2   3   14.20    1.30
   1  -2  -3   13.40    1.40
  -1  -2   3   16.80    1.60
   1  -2  -3   15.10    1.60
  -1   2   3   16.70    1.10
   1   2  -3   16.00    1.60
   1   2  -3   16.20    1.70
   1   2  -3   13.60    1.50
  -1   2   3   17.70    1.80
   1   2  -3   18.20    1.70
  -1   2   3   17.50    1.70
  -1   2   3   15.20    1.20
  -1   2   3   13.60    1.10
   1   2  -3   15.90    1.60
   1   2  -3   16.60    1.30
   1   2  -3   17.00    1.80
  -1   2   3   14.50    1.50
  -1   2   3   13.70    1.50
   0  -2  -3  400.76   11.40
   0  -2  -3  391.16   11.50
   0  -2   3  387.96   11.50
   0  -2   3  411.76   11.40
   0  -2   3  401.16   11.60
   0  -2   3  388.06   11.20
   0  -2   3  399.66   11.30
   0  -2   3  390.76   11.60
   0  -2  -3  384.86   11.10
   0  -2  -3  380.56   11.50
   0  -2  -3  388.96   11.60
   0  -2   3  393.56   11.60
   0   2   3  404.26   11.70
   0   2  -3  405.36   11.70
   0   2   3  397.46   11.30
   0   2  -3  396.96   11.60
   0   2  -3  393.96   11.60
   0   2  -3  391.46   11.60
   0   2   3  387.16   11.60
   0   2  -3  391.36   11.20
   0   2   3  385.16   10.70
   0   2   3  393.46   11.40
   0   2   3  408.16   11.60
   1  -2   3  411.76   11.90
  -1  -2  -3  384.76   11.60
  -1  -2  -3  399.96   11.70
   1  -2   3  389.76   11.70
   1  -2   3  396.16   11.80
  -1  -2  -3  407.76   11.40
   1  -2   3  411.16   11.70
   1  -2   3  410.76   11.30
  -1  -2  -3  398.66   11.60
   1  -2   3  393.06   11.80
  -1  -2  -3  391.06   11.80
  -1   2  -3  389.46   11.80
  -1   2  -3  384.56   11.70
   1   2   3  396.66   11.70
  -1   2  -3  410.76   11.60
   1   2   3  398.06   11.40
   1   2   3  399.16   11.80
   1   2   3  412.56   11.70
  -1   2  -3  398.36   11.80
   1   2   3  392.46   11.80
  -1   2  -3  387.96   11.80
   1   2   3  399.96   10.30
   2  -2   3 1120.59   29.30
  -2  -2  -3 1084.79   30.20
   2  -2   3 1101.89   30.00
   2  -2   3 1120.69   30.10
   2  -2   3 1109.09   30.10
  -2  -2  -3 1122.19   29.60
  -2  -2  -3 1148.79   29.90
   2  -2   3 1139.89   30.20
  -2  -2  -3 1074.39   29.80
   2  -2   3 1148.89   30.30
  -2   2  -3 1127.49   30.10
   2   2   3 1117.89   30.40
   2   2   3 1121.19   29.60
  -2   2  -3 1129.29   30.20
   2   2   3 1122.09   30.20
   2   2   3 1116.49   29.80
   2   2   3 1104.79   29.80
  -2   2  -3 1110.59   30.10
  -2   2  -3 1131.09   30.10
  -2   2  -3 1105.39   29.30
   3  -2   3   85.49    4.00
  -3  -2  -3   84.19    3.60
   3  -2   3   86.79    3.30
  -3  -2  -3   92.09    3.70
   3  -2   3   87.19    4.00
  -3  -2  -3   85.89    3.50
   3  -2   3   86.09    4.00
  -3  -2  -3   84.89    4.00
  -3   2  -3   77.49    4.00
   3   2   3   91.09    3.90
  -3   2  -3   81.79    3.90
  -3   2  -3   92.99    3.40
  -3   2  -3   84.89    3.90
   3   2   3   93.19    3.30
   3   2   3   85.59    4.30
   3   2   3   81.89    3.60
   3   2   3   91.29    3.70
  -3   2  -3   83.69    4.00
  -4  -2  -3  546.35   14.40
   4  -2   3  552.44   15.00
  -4  -2  -3  542.15   16.30
   4  -2   3  529.85   16.20
  -4  -2  -3  532.35   15.30
  -4  -2  -3  557.84   15.40
   4  -2   3  553.14   16.00
  -4  -2  -3  542.35   15.40
  -4   2  -3  523.15   15.90
  -4   2  -3  544.75   15.90
   4   2   3  557.04   15.90
  -4   2  -3  548.15   15.10
   4   2   3  529.25   16.60
  -4   2  -3  529.65   16.40
   4   2   3  567.64   15.50
   4   2   3  553.94   15.40
  -5  -2  -3  303.47    8.70
  -5  -2  -3  311.47    9.40
  -5  -2  -3  307.17   10.60
   5  -2   3  310.27    9.20
   5  -2   3  325.27   10.90
   5  -2   3  306.67   10.40
  -5  -2  -3  311.77    9.30
  -5  -2  -3  305.67    9.40
   5  -2   3  293.67    9.90
   5  -2   3  316.47    9.10
  -5   2  -3  303.57    9.10
   5   2   3  311.47    9.30
  -5   2  -3  302.47   10.50
  -5   2  -3  291.57    9.90
   5   2   3  310.17    9.80
   5   2   3  289.57   10.80
  -5   2  -3  289.47    9.90
   5   2   3  303.77    9.90
   6  -2   3    1.90    0.90
   6  -2   3    1.40    1.50
  -6  -2  -3    0.10    0.70
  -6  -2  -3    0.40    0.70
  -6  -2  -3   -0.70    1.20
   6  -2   3    0.70    0.70
   6  -2   3   -0.60    0.90
   6  -2   3   -1.20    0.80
  -6  -2  -3   -0.30    0.80
  -6  -2  -3    2.00    0.80
   6   2   3   -0.20    1.00
   6   2   3   -0.30    1.00
   6   2   3   -0.80    1.00
   6   2   3    0.20    0.40
  -6   2  -3    1.00    1.40
  -6   2  -3    1.50    1.10
  -6   2  -3    1.20    0.80
  -6   2  -3    0.00    1.00
   7  -2   3   23.40    3.00
  -7  -2  -3   28.70    2.10
  -7  -2  -3   24.90    1.90
   7  -2   3   24.30    2.20
   7  -2   3   25.50    2.60
  -7  -2  -3   27.00    3.50
   7  -2   3   31.60    3.90
  -7  -2  -3   28.40    2.00
   7  -2   3   28.70    2.40
   7   2   3   27.50    2.80
  -7   2  -3   25.60    2.20
  -7   2  -3   29.50    2.80
   7   2   3   27.30    3.60
   7   2   3   27.30    3.00
  -7   2  -3   31.40    3.60
  -7   2  -3   32.20    3.50
   7   2   3   29.10    3.00
  -8  -2  -3   56.99    2.60
  -8  -2  -3   63.79    4.90
   8  -2   3   50.29    4.00
   8  -2   3   57.09    5.40
  -8  -2  -3   54.79    3.30
   8   2   3   50.69    4.00
  -8   2  -3   52.09    4.90
  -8   2  -3   54.79    3.60
   8   2   3   49.40    5.00
   8   2   3   45.10    3.40
  -8   2  -3   56.19    3.10
   9  -2   3    4.00    2.40
  -9  -2  -3    3.90    2.30
   9  -2   3    4.70    2.10
  -9  -2  -3    6.80    1.70
   9   2   3    4.40    1.80
   9   2   3    9.50    2.80
  -9   2  -3    1.90    1.70
   9   2   3    2.70    1.80
  10  -2   3    4.40    2.60
 -10  -2  -3    3.10    2.00
  10  -2   3    1.80    2.20
 -10  -2  -3    8.50    2.90
 -10   2  -3    4.10    1.60
  10   2   3    3.80    2.40
 -10   2  -3    2.60    2.20
  10   2   3    5.90    2.40
  11  -2   3   76.69    5.80
 -11  -2  -3   80.89    7.30
 -11  -2  -3   68.29    6.80
  11  -2   3   69.19    7.10
  11   2   3   72.79    5.90
 -11   2  -3   70.49    6.70
 -12  -3   3    4.60    2.40
  12  -3  -3   -0.70    2.50
 -12  -3   3   -0.70    2.20
  12  -3  -3   -1.30    1.80
 -12  -3   3   -0.10    2.00
  12   3  -3   -1.30    1.90
  12   3  -3    2.50    2.30
  12   3  -3    3.00    2.80
 -11  -3   3   -0.40    1.90
  11  -3  -3   -0.60    1.90
  11  -3  -3    1.20    2.00
 -11  -3   3    4.80    2.60
 -11  -3   3    3.30    1.90
 -11   3   3   -0.10    1.30
  11   3  -3   -0.60    1.70
  11   3  -3    0.90    2.20
 -11   3   3    0.10    2.20
 -11   3   3    3.40    2.10
  11   3  -3    0.40    2.10
  10  -3  -3    5.80    2.30
 -10  -3   3    9.70    2.90
 -10  -3   3    4.90    2.00
  10  -3  -3   11.50    2.70
 -10  -3   3    6.70    2.20
 -10   3   3    7.00    2.40
 -10   3   3    6.90    1.80
  10   3  -3    9.50    2.40
 -10   3   3    7.80    2.50
  10   3  -3    7.90    2.80
  10   3  -3    4.70    2.40
   9  -3  -3   54.89    5.60
  -9  -3   3   58.09    4.20
  -9  -3   3   53.79    3.80
  -9  -3   3   53.99    5.20
   9  -3  -3   57.99    4.20
   9   3  -3   55.29    4.90
   9   3  -3   51.69    5.30
  -9   3   3   52.79    3.70
   9   3  -3   53.89    5.30
  -9   3   3   56.19    4.20
  -9   3   3   57.19    5.40
   8  -3  -3   -0.50    1.30
  -8  -3   3    0.20    0.40
  -8  -3   3    1.10    1.80
  -8  -3   3   -0.30    0.30
  -8  -3   3    1.20    1.30
   8  -3  -3   -0.60    1.40
   8   3  -3   -0.10    1.50
  -8   3   3   -1.10    1.20
   8   3  -3   -0.60    1.70
  -8   3   3   -0.80    1.80
   8   3  -3    2.40    1.70
  -8   3   3   -1.20    1.30
  -7  -3   3    6.20    1.70
  -7  -3   3    5.70    1.80
   7  -3  -3    3.20    1.60
   7  -3  -3    1.70    1.30
  -7  -3   3    2.30    0.90
   7  -3  -3    6.20    2.00
  -7  -3   3    2.10    1.00
   7   3  -3    2.40    1.10
  -7   3   3    3.10    1.60
  -7   3   3    4.90    1.90
  -7   3   3    4.80    1.30
   7   3  -3    2.00    1.60
  -7   3   3    5.10    2.20
  -7   3   3    4.60    1.70
   7   3  -3    6.20    2.30
  -6  -3   3    5.10    1.40
  -6  -3   3    4.70    1.10
   6  -3  -3    4.20    1.50
  -6  -3   3    8.50    1.30
  -6  -3   3    4.60    1.90
   6  -3  -3    6.50    1.80
   6  -3  -3    3.10    1.70
  -6   3   3    6.70    1.70
  -6   3   3    3.90    1.50
  -6   3   3    5.70    1.10
  -6   3   3    4.80    1.60
   6   3  -3    4.90    1.60
  -6   3   3    6.40    1.70
   6   3  -3    4.70    1.90
   5  -3  -3   29.30    2.80
  -5  -3   3   25.80    2.00
  -5  -3   3   29.50    3.00
   5  -3  -3   32.20    3.20
  -5  -3   3   25.00    2.40
   5  -3  -3   27.20    2.80
  -5  -3   3   23.60    1.90
  -5  -3   3   24.20    2.40
  -5   3   3   24.90    2.80
   5   3  -3   29.30    2.90
   5   3  -3   23.00    2.90
  -5   3   3   23.00    1.70
  -5   3   3   29.40    2.80
  -5   3   3   27.70    2.70
   5   3  -3   24.60    1.90
  -5   3   3   28.40    2.70
   4  -3  -3   32.20    2.60
  -4  -3   3   33.10    3.00
  -4  -3   3   30.00    2.30
   4  -3  -3   38.00    2.80
  -4  -3   3   33.70    2.30
   4  -3  -3   33.80    1.90
  -4  -3   3   37.70    2.40
  -4  -3   3   33.30    2.30
  -4   3   3   33.20    2.70
   4   3  -3   31.90    2.30
   4   3  -3   36.00    2.80
   4   3  -3   32.70    2.40
  -4   3   3   33.70    2.60
  -4   3   3   34.00    1.30
  -4   3   3   32.00    1.80
  -4   3   3   30.70    2.80
  -4   3   3   31.30    2.80
   4   3  -3   28.90    3.00
  -3  -3   3  921.81   24.60
  -3  -3   3  895.01   24.60
   3  -3  -3  904.51   23.80
   3  -3  -3  895.61   25.10
   3  -3  -3  886.11   25.10
  -3  -3   3  896.71   24.60
   3  -3  -3  894.11   24.80
  -3  -3   3  874.21   24.40
  -3  -3   3  858.91   25.10
  -3   3   3  907.61   25.00
  -3   3   3  921.11   23.80
  -3   3   3  928.91   23.50
   3   3  -3  864.11   24.50
  -3   3   3  875.31   25.10
   3   3  -3  903.91   24.50
   3   3  -3  904.21   25.50
   3   3  -3  879.11   25.10
  -3   3   3  890.31   25.00
  -3   3   3  921.71   25.20
  -2  -3   3  379.06   11.90
  -2  -3   3  380.66   11.50
  -2  -3   3  392.56   11.80
  -2  -3   3  399.56   12.30
   2  -3  -3  390.56   11.20
   2  -3  -3  398.16   12.30
   2  -3  -3  382.66   11.70
  -2  -3   3  393.96   11.90
   2  -3  -3  411.36   12.30
   2   3  -3  390.86   12.40
   2   3  -3  380.26   11.90
  -2   3   3  370.66   11.90
   2   3  -3  405.56   11.80
  -2   3   3  377.96   11.70
  -2   3   3  390.56   12.30
  -2   3   3  394.76   11.20
   2   3  -3  407.06   11.70
  -2   3   3  402.16   11.10
  -2   3   3  400.76   12.30
  -1  -3   3  209.58    7.60
   1  -3  -3  226.08    7.10
  -1  -3   3  221.88    7.30
  -1  -3   3  214.58    7.70
   1  -3  -3  231.38    7.90
   1  -3  -3  223.18    7.10
  -1  -3   3  229.78    7.50
   1  -3  -3  216.58    7.80
   1  -3  -3  233.78    7.80
  -1  -3   3  236.68    8.20
  -1  -3   3  217.78    7.60
   1   3  -3  225.08    7.70
  -1   3   3  220.48    7.60
  -1   3   3  218.68    7.80
  -1   3   3  226.88    7.10
  -1   3   3  221.78    7.10
   1   3  -3  214.28    7.80
  -1   3   3  225.48    7.90
   1   3  -3  227.28    7.40
   1   3  -3  211.58    7.40
  -1   3   3  221.18    7.10
   0  -3  -3   24.20    1.90
   0  -3  -3   27.10    2.40
   0  -3   3   27.00    2.10
   0  -3   3   29.80    2.20
   0  -3  -3   24.20    2.40
   0  -3  -3   23.50    2.30
   0  -3   3   26.20    2.00
   0  -3  -3   25.50    1.50
   0  -3  -3   20.40    2.20
   0  -3   3   24.00    2.40
   0  -3   3   29.10    2.10
   0  -3   3   24.10    2.40
   0  -3   3   28.80    2.60
   0   3  -3   26.20    2.20
   0   3   3   22.80    2.00
   0   3  -3   25.80    2.00
   0   3   3   25.90    1.60
   0   3   3   23.40    1.90
   0   3  -3   26.20    2.80
   0   3  -3   24.40    2.40
   0   3   3   24.20    2.40
   0   3   3   28.90    2.90
   0   3  -3   25.50    2.00
   0   3   3   27.10    2.00
   0   3  -3   26.90    2.80
   1  -3   3   36.30    3.40
  -1  -3  -3   36.00    2.60
  -1  -3  -3   34.30    1.50
   1  -3   3   37.50    2.50
  -1  -3  -3   31.10    2.40
  -1  -3  -3   30.20    2.20
   1  -3   3   33.80    2.30
   1  -3   3   35.20    2.70
  -1  -3  -3   32.20    2.40
   1  -3   3   35.80    2.50
  -1  -3  -3   31.90    2.30
  -1   3  -3   34.40    2.40
  -1   3  -3   31.30    2.50
   1   3   3   32.80    2.30
   1   3   3   35.30    2.50
  -1   3  -3   31.90    2.40
  -1   3  -3   38.20    2.40
   1   3   3   32.30    2.40
  -1   3  -3   32.20    2.50
  -1   3  -3   36.70    2.80
   1   3   3   33.00    1.50
   2  -3   3    7.50    1.50
   2  -3   3    6.70    1.30
  -2  -3  -3    7.10    1.60
   2  -3   3    5.40    1.50
   2  -3   3    6.20    1.50
  -2  -3  -3    6.70    1.50
  -2  -3  -3    4.00    1.30
  -2  -3  -3    5.70    1.30
  -2  -3  -3    7.30    1.40
   2   3   3    3.70    1.20
   2   3   3    4.20    1.20
  -2   3  -3    6.50    1.40
  -2   3  -3    5.80    1.30
  -2   3  -3    5.40    1.50
  -2   3  -3    5.60    1.50
   2   3   3    6.10    1.40
   3  -3   3   51.49    3.20
   3  -3   3   47.00    3.30
  -3  -3  -3   46.30    3.10
   3  -3   3   49.40    3.40
   3  -3   3   48.80    2.70
  -3  -3  -3   44.00    2.90
  -3  -3  -3   54.79    3.50
  -3  -3  -3   42.00    3.30
  -3   3  -3   48.10    3.30
   3   3   3   45.50    2.90
  -3   3  -3   48.60    3.20
  -3   3  -3   50.89    3.20
   3   3   3   46.40    3.30
  -3   3  -3   54.09    2.90
  -4  -3  -3  348.37   12.20
  -4  -3  -3  369.56   11.50
  -4  -3  -3  369.76   11.50
   4  -3   3  372.86   11.20
   4  -3   3  356.26   12.00
   4  -3   3  343.97   12.00
  -4  -3  -3  364.36   12.30
   4  -3   3  373.26   11.90
  -4   3  -3  388.96   12.60
  -4   3  -3  369.36   11.20
   4   3   3  364.46   12.60
  -4   3  -3  378.96   12.10
   4   3   3  368.26   11.40
  -4   3  -3  379.26   12.10
  -5  -3  -3   15.60    0.80
   5  -3   3   17.80    2.00
  -5  -3  -3   11.00    2.20
  -5  -3  -3   14.60    1.80
   5  -3   3   13.60    2.20
  -5  -3  -3   18.00    2.00
   5  -3   3   17.10    2.40
  -5  -3  -3   19.90    2.80
  -5  -3  -3   16.30    0.80
   5   3   3   15.70    2.50
  -5   3  -3   20.20    2.60
  -5   3  -3   16.60    2.60
  -5   3  -3   13.40    1.80
   5   3   3   17.30    2.20
   5   3   3   19.60    2.10
   5   3   3   17.50    2.00
  -5   3  -3   16.80    2.40
   6  -3   3   67.09    3.60
   6  -3   3   65.89    4.50
  -6  -3  -3   68.99    4.60
  -6  -3  -3   68.99    3.50
  -6  -3  -3   63.09    2.50
  -6  -3  -3   60.69    3.40
   6  -3   3   66.09    4.20
   6  -3   3   63.39    4.40
  -6  -3  -3   65.49    2.50
  -6  -3  -3   60.59    4.30
   6   3   3   74.39    4.00
  -6   3  -3   73.39    4.40
   6   3   3   67.09    3.80
   6   3   3   58.29    4.60
  -6   3  -3   63.79    4.40
  -6   3  -3   64.59    3.50
   6   3   3   62.99    3.40
  -6   3  -3   61.89    4.00
  -7  -3  -3    5.10    1.10
   7  -3   3    3.20    1.40
  -7  -3  -3    3.90    2.20
   7  -3   3    4.40    1.70
  -7  -3  -3    2.40    1.90
  -7  -3  -3    5.90    1.40
   7  -3   3    3.00    1.50
   7  -3   3    3.50    2.20
  -7   3  -3    3.20    1.30
  -7   3  -3    3.60    1.80
   7   3   3    4.10    1.60
   7   3   3    3.40    2.10
  -7   3  -3    3.40    1.50
   7   3   3    7.50    1.90
   8  -3   3    9.80    2.80
  -8  -3  -3   12.70    3.00
  -8  -3  -3   15.50    1.80
  -8  -3  -3   22.00    3.60
   8  -3   3   10.80    2.70
  -8   3  -3   18.20    2.20
  -8   3  -3   18.70    2.60
   8   3   3   17.20    2.80
   8   3   3   15.30    2.50
  -8   3  -3   14.20    2.80
   8   3   3    9.70    2.90
   9  -3   3   10.80    3.20
   9  -3   3   11.50    2.80
  -9  -3  -3   11.40    3.10
  -9  -3  -3    8.10    2.50
   9   3   3   13.90    3.40
  -9   3  -3    9.30    2.20
   9   3   3   11.70    2.70
  -9   3  -3   13.40    3.30
   9   3   3   17.90    3.00
 -10  -3  -3    5.60    2.60
  10  -3   3    5.90    2.50
 -10  -3  -3    9.00    3.10
  10  -3   3    8.60    3.10
  10   3   3    9.30    2.60
 -10   3  -3    7.30    2.10
 -10   3  -3   13.20    3.20
  10   3   3   11.30    3.30
  11  -3   3   25.60    4.70
 -11  -3  -3   19.00    4.20
  11  -3   3   25.80    4.20
 -11   3  -3   36.40    5.20
  11   3   3   35.70    5.30
  11   3   3   29.80    4.30
 -11  -4   3    0.30    2.10
  11  -4  -3    4.60    2.50
 -11  -4   3    3.50    2.90
  11  -4  -3   -0.20    2.20
 -11   4   3    1.60    2.00
 -11   4   3   -1.90    1.60
  11   4  -3   -0.80    2.20
  10  -4  -3    9.70    2.70
 -10  -4   3    7.20    2.50
  10  -4  -3   16.50    3.60
 -10  -4   3   14.60    3.50
 -10   4   3   14.70    3.00
 -10   4   3   17.30    3.00
  10   4  -3   14.10    3.10
  10   4  -3   17.50    3.70
 -10   4   3   13.70    3.60
   9  -4  -3    0.90    1.80
  -9  -4   3   -2.10    1.80
  -9  -4   3   -2.10    1.40
   9  -4  -3    2.80    2.30
  -9   4   3    2.00    1.80
  -9   4   3   -0.20    1.30
   9   4  -3   -2.80    1.80
   9   4  -3   -0.70    1.60
  -9   4   3   -1.40    1.50
  -8  -4   3   47.80    4.30
   8  -4  -3   35.60    4.10
  -8  -4   3   45.00    2.60
  -8  -4   3   38.10    4.50
   8  -4  -3   50.39    5.20
   8   4  -3   40.10    4.20
  -8   4   3   44.00    4.10
  -8   4   3   43.90    4.80
   8   4  -3   40.00    4.90
  -8   4   3   43.40    4.20
   7  -4  -3    5.30    2.20
  -7  -4   3    2.50    1.20
  -7  -4   3    5.00    2.00
   7  -4  -3    3.10    1.80
   7  -4  -3    2.50    1.70
  -7  -4   3    4.40    1.90
  -7   4   3    0.40    1.80
   7   4  -3    2.20    2.10
  -7   4   3    1.40    1.60
   7   4  -3    3.60    1.80
  -7   4   3   -0.80    1.60
  -6  -4   3   18.40    2.60
   6  -4  -3   15.30    2.60
   6  -4  -3   18.80    2.80
   6  -4  -3   14.80    2.80
  -6  -4   3   14.40    2.00
  -6  -4   3   14.10    2.50
   6   4  -3   14.70    2.00
  -6   4   3   10.80    2.30
  -6   4   3   17.10    2.90
  -6   4   3   17.20    2.10
  -6   4   3   17.40    2.60
   6   4  -3   12.30    2.80
   5  -4  -3  315.87   11.00
   5  -4  -3  281.17   10.60
  -5  -4   3  301.67   10.30
  -5  -4   3  291.47   11.00
  -5  -4   3  291.37    9.90
  -5  -4   3  312.77   10.00
   5  -4  -3  301.97    9.30
  -5   4   3  304.67    9.30
  -5   4   3  295.67   10.90
  -5   4   3  285.97   10.50
  -5   4   3  296.07   10.80
   5   4  -3  280.27    9.80
   5   4  -3  307.77   11.50
  -4  -4   3  437.86   13.70
  -4  -4   3  439.56   14.50
  -4  -4   3  430.46   13.60
   4  -4  -3  447.66   12.90
   4  -4  -3  422.66   14.30
   4  -4  -3  435.36   14.00
  -4  -4   3  449.36   13.80
  -4   4   3  433.46   14.30
  -4   4   3  445.86   12.30
   4   4  -3  438.56   14.80
   4   4  -3  436.36   13.60
  -4   4   3  436.36   12.80
  -4   4   3  453.95   14.10
  -4   4   3  433.36   14.20
  -3  -4   3    0.60    1.00
   3  -4  -3    3.40    1.10
   3  -4  -3    2.60    1.60
  -3  -4   3    5.10    1.40
   3  -4  -3    2.80    1.20
  -3  -4   3    2.40    1.40
  -3  -4   3    1.30    1.20
   3  -4  -3    3.20    1.50
  -3   4   3    3.60    1.00
  -3   4   3    4.30    1.50
  -3   4   3    0.90    1.40
   3   4  -3    1.70    1.50
   3   4  -3    1.50    1.20
  -3   4   3    2.00    1.00
  -3   4   3    3.80    1.30
  -2  -4   3  254.37    8.30
  -2  -4   3  232.78    8.40
   2  -4  -3  225.08    8.60
   2  -4  -3  222.18    7.60
   2  -4  -3  223.98    8.70
  -2  -4   3  228.08    8.40
  -2  -4   3  234.18    8.60
  -2   4   3  223.38    7.60
  -2   4   3  228.28    8.40
   2   4  -3  223.98    8.70
   2   4  -3  231.58    8.40
  -2   4   3  218.18    8.60
   2   4  -3  219.18    7.90
  -2   4   3  227.98    7.50
  -2   4   3  223.88    8.00
   1  -4  -3   44.20    2.80
  -1  -4   3   54.09    3.50
   1  -4  -3   45.10    2.70
  -1  -4   3   47.60    3.40
  -1  -4   3   47.40    3.10
   1  -4  -3   48.70    3.50
   1  -4  -3   44.00    3.30
   1   4  -3   44.90    3.00
  -1   4   3   42.80    3.40
  -1   4   3   54.89    3.40
   1   4  -3   53.99    3.40
  -1   4   3   45.80    2.70
  -1   4   3   50.69    3.00
  -1   4   3   48.00    3.00
   1   4  -3   52.79    3.50
   0  -4   3   33.00    3.10
   0  -4  -3   28.50    2.90
   0  -4  -3   34.10    2.50
   0  -4   3   33.50    2.70
   0  -4  -3   30.00    3.00
   0  -4   3   28.10    3.00
   0  -4  -3   27.90    1.90
   0   4   3   28.50    2.00
   0   4   3   30.40    2.80
   0   4  -3   28.00    2.70
   0   4   3   28.00    2.70
   0   4   3   27.60    2.80
   0   4  -3   27.10    2.80
   0   4  -3   28.90    3.00
   1  -4   3   21.70    2.60
  -1  -4  -3   22.50    2.70
  -1  -4  -3   17.40    2.40
   1  -4   3   22.60    2.60
   1  -4   3   23.40    2.60
  -1  -4  -3   24.80    2.60
  -1  -4  -3   24.30    1.60
   1   4   3   20.50    2.40
   1   4   3   23.30    1.60
   1   4   3   21.60    2.60
  -1   4  -3   20.90    2.60
   1   4   3   22.10    2.60
  -1   4  -3   21.00    2.50
  -1   4  -3   21.10    2.50
  -2  -4  -3    1.20    1.30
   2  -4   3    5.20    1.80
  -2  -4  -3    5.90    1.70
   2  -4   3    2.60    1.40
  -2  -4  -3    4.10    1.60
  -2  -4  -3    1.80    1.40
  -2  -4  -3    3.90    0.70
   2   4   3    3.10    1.40
  -2   4  -3    1.60    1.40
  -2   4  -3    4.40    1.20
  -2   4  -3    3.40    1.30
   2   4   3    4.10    1.30
   2   4   3    7.10    1.70
  -2   4  -3    4.00    1.50
   2   4   3    5.00    0.70
   3  -4   3  362.76   12.30
  -3  -4  -3  389.16   12.90
  -3  -4  -3  374.66   12.30
   3  -4   3  361.26   12.60
   3  -4   3  377.56   12.80
  -3  -4  -3  366.76   12.30
  -3  -4  -3  384.96   12.80
  -3   4  -3  378.96   12.80
  -3   4  -3  388.06   13.00
  -3   4  -3  356.86   11.90
   3   4   3  383.86   12.30
   3   4   3  372.76   12.90
  -4  -4  -3  122.99    6.10
  -4  -4  -3  119.99    5.40
   4  -4   3  103.19    5.40
  -4  -4  -3   97.09    5.40
   4  -4   3  108.69    5.80
  -4  -4  -3  115.29    5.40
   4  -4   3  111.69    5.80
   4   4   3  114.49    5.30
  -4   4  -3  111.19    5.80
  -4   4  -3  111.89    5.80
   4   4   3  111.29    6.10
  -4   4  -3  109.79    5.10
  -5  -4  -3   63.19    3.90
  -5  -4  -3   54.29    4.40
   5  -4   3   54.19    4.30
  -5  -4  -3   52.29    4.00
   5  -4   3   58.69    4.30
   5  -4   3   56.69    4.00
   5   4   3   58.79    4.70
   5   4   3   58.89    3.70
  -5   4  -3   56.99    4.50
  -5   4  -3   56.89    3.70
  -5   4  -3   53.19    4.10
  -6  -4  -3    4.80    1.90
   6  -4   3    6.20    2.00
  -6  -4  -3    8.70    2.50
   6  -4   3   10.90    2.60
  -6  -4  -3    9.00    1.80
   6   4   3    4.90    2.40
  -6   4  -3    3.90    1.40
  -6   4  -3    5.30    2.00
  -6   4  -3    7.60    2.10
   6   4   3    7.90    1.90
   7  -4   3    4.10    2.20
  -7  -4  -3    2.50    2.20
   7  -4   3   11.10    2.90
  -7  -4  -3    3.50    1.50
  -7  -4  -3    1.30    2.10
   7  -4   3    6.30    2.10
   7  -4   3    3.70    1.70
  -7   4  -3    5.90    2.30
   7   4   3    3.30    2.30
  -7   4  -3    1.20    1.70
  -7   4  -3    2.10    1.50
   7   4   3    6.80    1.90
  -8  -4  -3    1.10    2.00
   8  -4   3    0.90    2.20
  -8  -4  -3    1.90    1.20
  -8  -4  -3    0.50    2.00
   8  -4   3    2.30    2.00
   8   4   3   -0.50    1.50
  -8   4  -3   -0.90    1.30
   8   4   3   -0.20    2.10
  -8   4  -3    0.20    1.70
  -8   4  -3    2.80    2.40
  -9  -4  -3   48.00    5.40
  -9  -4  -3   57.99    6.00
   9  -4   3   44.50    5.00
   9  -4   3   55.19    6.20
  -9   4  -3   41.00    5.10
   9   4   3   43.20    5.60
  -9   4  -3   41.90    4.40
  10  -4   3    7.80    2.90
  10  -4   3   14.70    3.60
 -10  -4  -3   15.20    3.80
 -10  -4  -3   12.80    3.80
 -10   4  -3    8.60    3.50
  10   4   3    9.80    3.40
 -10   4  -3   13.30    2.80
 -10  -5   3    6.30    3.20
  10  -5  -3   13.10    3.70
  10  -5  -3    9.50    3.00
 -10  -5   3    9.70    3.20
 -10   5   3    9.50    2.90
  10   5  -3    9.30    3.60
 -10   5   3    6.00    2.60
   9  -5  -3    2.80    2.60
  -9  -5   3    7.20    2.70
  -9  -5   3    5.30    2.50
   9  -5  -3    0.80    2.00
   9   5  -3    5.30    3.00
  -9   5   3    8.00    2.70
  -9   5   3    7.10    2.60
  -9   5   3    6.10    2.40
   8  -5  -3   48.80    5.00
  -8  -5   3   39.10    4.70
  -8  -5   3   36.90    3.20
  -8  -5   3   34.90    4.10
   8  -5  -3   29.80    4.30
  -8   5   3   35.70    4.80
   8   5  -3   32.40    4.90
  -8   5   3   28.40    3.80
  -8   5   3   40.40    4.50
   7  -5  -3   72.79    5.20
  -7  -5   3   69.99    4.20
   7  -5  -3   68.59    5.40
  -7  -5   3   70.99    4.90
   7  -5  -3   67.69    5.10
  -7  -5   3   75.99    5.90
  -7   5   3   72.39    5.10
   7   5  -3   58.69    6.00
  -7   5   3   73.99    5.70
  -7   5   3   70.39    5.40
  -6  -5   3   50.09    5.10
  -6  -5   3   50.59    4.00
   6  -5  -3   53.39    5.00
  -6  -5   3   47.50    3.70
   6  -5  -3   51.99    4.80
   6  -5  -3   59.89    4.70
  -6   5   3   53.49    4.90
  -6   5   3   49.60    4.60
   6   5  -3   38.10    4.60
  -6   5   3   52.79    4.90
  -5  -5   3    8.10    2.50
   5  -5  -3   12.50    2.70
  -5  -5   3    8.00    2.10
  -5  -5   3    8.30    2.10
   5  -5  -3    6.30    2.10
   5  -5  -3    7.50    1.60
  -5   5   3    8.40    2.40
  -5   5   3   11.40    2.70
  -5   5   3   10.00    2.50
   5   5  -3    5.50    1.80
   5   5  -3   14.50    3.10
   4  -5  -3   63.09    3.70
  -4  -5   3   63.09    4.80
   4  -5  -3   67.49    4.30
  -4  -5   3   66.19    4.30
  -4  -5   3   66.39    4.20
   4  -5  -3   58.89    4.70
   4  -5  -3   60.99    4.50
  -4   5   3   52.19    4.20
  -4   5   3   61.09    3.10
  -4   5   3   63.99    4.50
   4   5  -3   62.29    4.10
   4   5  -3   61.59    4.90
  -4   5   3   59.69    4.40
  -3  -5   3   99.69    5.20
   3  -5  -3   96.19    5.80
   3  -5  -3   97.09    4.70
  -3  -5   3   92.89    5.40
   3  -5  -3   94.79    5.40
  -3  -5   3   89.59    5.20
  -3   5   3   98.99    5.20
  -3   5   3   98.39    5.80
   3   5  -3   92.09    5.70
   3   5  -3  102.49    5.40
  -3   5   3  102.79    4.40
  -3   5   3  103.49    5.60
   2  -5  -3    3.50    1.70
   2  -5  -3    7.20    1.60
  -2  -5   3    6.20    1.80
   2  -5  -3    5.90    1.80
  -2  -5   3    4.90    1.80
   2   5  -3    5.50    1.60
  -2   5   3    3.00    1.90
  -2   5   3    4.10    1.40
  -2   5   3    2.50    1.60
   2   5  -3    5.80    1.80
  -2   5   3    7.50    1.60
   1  -5  -3   47.30    3.40
  -1  -5   3   52.59    3.70
   1  -5  -3   54.99    4.00
  -1  -5   3   46.40    4.20
  -1  -5   3   52.79    3.80
   1  -5  -3   48.60    3.90
  -1   5   3   47.80    3.80
  -1   5   3   50.39    3.30
   1   5  -3   45.40    4.30
  -1   5   3   53.29    3.70
  -1   5   3   55.89    3.60
   1   5  -3   58.29    3.70
   1   5  -3   60.49    4.20
   0  -5   3  101.99    5.90
   0  -5  -3  109.39    6.00
   0  -5  -3  113.09    4.70
   0  -5   3  109.49    5.60
   0  -5   3  106.19    5.80
   0  -5  -3  114.69    5.50
   0  -5  -3  112.79    6.10
   0   5   3  120.59    5.70
   0   5   3  109.49    4.70
   0   5  -3  117.49    5.90
   0   5   3  114.29    5.60
   0   5  -3  114.59    5.60
   0   5  -3  108.79    6.00
   0   5   3  106.79    5.90
  -1  -5  -3  113.39    6.20
  -1  -5  -3  117.59    4.60
   1  -5   3  114.79    5.80
  -1  -5  -3  118.09    5.90
  -1  -5  -3  117.39    6.10
   1  -5   3  115.89    5.90
   1  -5   3  132.99    6.70
  -1   5  -3  118.69    5.80
  -1   5  -3  116.69    5.90
   1   5   3  117.19    6.20
   1   5   3  121.49    6.10
   1   5   3  128.69    6.20
  -1   5  -3  124.69    6.50
   1   5   3  124.29    4.70
   2  -5   3   44.80    4.40
   2  -5   3   48.20    3.90
  -2  -5  -3   47.60    3.80
  -2  -5  -3   43.10    4.10
  -2  -5  -3   44.30    2.30
  -2  -5  -3   43.40    4.10
   2   5   3   44.30    2.30
  -2   5  -3   47.10    3.60
  -2   5  -3   49.20    4.60
  -2   5  -3   37.00    3.70
   2   5   3   47.10    4.20
   2   5   3   45.00    4.40
  -2   5  -3   45.40    4.20
  -3  -5  -3   60.29    4.40
   3  -5   3   55.49    5.00
   3  -5   3   69.89    4.50
  -3  -5  -3   69.69    4.90
  -3  -5  -3   57.89    4.50
   3   5   3   57.29    4.30
  -3   5  -3   59.79    4.20
  -3   5  -3   69.19    4.90
   3   5   3   66.69    4.90
  -3   5  -3   60.49    4.70
  -3   5  -3   66.29    4.40
  -4  -5  -3  407.06   14.20
   4  -5   3  395.76   14.20
   4  -5   3  390.66   13.50
  -4  -5  -3  398.36   13.60
  -4  -5  -3  374.36   14.00
  -4   5  -3  395.46   14.30
  -4   5  -3  396.76   14.20
   4   5   3  383.36   13.30
  -4   5  -3  374.76   13.10
   4   5   3  392.26   14.50
  -4   5  -3  396.26   13.30
   5  -5   3  135.89    7.10
  -5  -5  -3  127.19    6.30
  -5  -5  -3  120.49    6.80
   5  -5   3  120.39    6.30
  -5  -5  -3  123.79    7.00
   5   5   3  122.29    7.30
  -5   5  -3  134.29    6.20
  -5   5  -3  126.49    7.00
  -5   5  -3  113.39    6.70
  -5   5  -3  121.49    6.00
  -6  -5  -3   94.39    6.40
  -6  -5  -3   88.79    6.10
  -6  -5  -3   94.49    5.30
   6  -5   3   82.49    5.80
  -6   5  -3   90.09    5.30
  -6   5  -3   91.09    6.40
  -6   5  -3   95.39    6.10
   6   5   3   84.29    5.30
   6   5   3   88.79    6.20
  -7  -5  -3   -1.60    1.30
   7  -5   3    1.10    1.70
  -7  -5  -3   -1.30    1.70
  -7  -5  -3    0.90    2.20
   7  -5   3   -4.20    1.80
  -7   5  -3    0.10    1.40
  -7   5  -3    0.30    2.20
   7   5   3   -0.80    2.10
  -7   5  -3   -2.40    1.80
   7   5   3   -1.50    1.40
  -8  -5  -3    0.70    1.80
  -8  -5  -3    2.20    2.50
   8  -5   3   -1.60    2.20
   8  -5   3    1.40    2.00
  -8  -5  -3    0.90    1.60
  -8   5  -3    4.10    2.40
  -8   5  -3    0.90    2.40
   8   5   3   -1.70    2.20
   9  -5   3   40.60    5.80
  -9  -5  -3   46.80    5.70
  -9   5  -3   43.00    6.50
   9   5   3   36.50    5.60
  -9   5  -3   40.50    4.90
   9  -6  -3   18.70    4.00
   9  -6  -3   17.80    3.90
  -9   6   3   12.10    3.40
   9   6  -3    8.30    3.20
   8  -6  -3   33.20    4.50
  -8  -6   3   24.80    4.00
   8  -6  -3   22.60    4.20
  -8  -6   3   40.50    5.50
  -8  -6   3   30.40    3.60
  -8   6   3   29.90    4.40
  -8   6   3   31.80    4.80
   8   6  -3   25.20    4.80
  -8   6   3   33.80    4.80
  -7  -6   3   94.39    5.50
   7  -6  -3   74.79    5.90
   7  -6  -3   78.59    6.10
  -7  -6   3   91.59    7.00
  -7  -6   3   95.69    6.10
  -7   6   3   97.79    6.40
   7   6  -3   88.39    7.10
  -7   6   3   93.99    6.50
  -7   6   3   92.19    6.70
  -6  -6   3  199.68   10.10
  -6  -6   3  202.78    8.80
   6  -6  -3  188.78    9.40
   6  -6  -3  204.48    9.80
  -6  -6   3  216.68    9.40
  -6   6   3  204.48    9.50
  -6   6   3  202.08    9.90
  -6   6   3  199.58    9.80
   6   6  -3  194.18   10.30
  -5  -6   3   17.80    3.20
  -5  -6   3   16.90    3.60
   5  -6  -3   16.90    3.40
   5  -6  -3   20.00    3.30
  -5  -6   3   15.60    2.90
  -5   6   3   19.10    3.40
  -5   6   3   16.60    3.30
  -5   6   3   13.50    2.70
   5   6  -3   22.50    4.10
   4  -6  -3   12.10    2.20
  -4  -6   3    6.90    2.20
  -4  -6   3    9.10    2.50
   4  -6  -3    9.00    2.80
  -4  -6   3   12.80    3.10
   4  -6  -3    7.40    2.10
  -4   6   3    8.70    2.40
   4   6  -3    6.10    2.40
  -4   6   3    7.00    2.50
  -4   6   3    5.20    2.40
   4   6  -3   10.20    2.50
   3  -6  -3  108.39    5.30
   3  -6  -3  101.39    6.60
  -3  -6   3  104.89    6.50
   3  -6  -3   93.69    6.30
  -3  -6   3  106.99    6.30
  -3  -6   3   98.59    5.80
   3   6  -3  101.09    6.60
  -3   6   3   97.49    5.90
  -3   6   3  101.49    6.60
  -3   6   3  100.89    5.70
  -3   6   3  103.59    5.00
   3   6  -3  105.19    6.30
  -2  -6   3    0.40    2.00
   2  -6  -3    1.10    2.00
   2  -6  -3    0.00    1.90
  -2  -6   3    1.70    1.70
   2  -6  -3    0.50    1.60
  -2  -6   3    0.40    1.90
  -2   6   3    3.40    1.70
  -2   6   3    0.50    1.50
  -2   6   3    1.70    1.90
   2   6  -3    2.60    2.10
   2   6  -3    2.70    1.70
   2   6  -3    0.70    2.00
  -2   6   3   -1.20    1.70
   1  -6  -3   -1.70    1.70
  -1  -6   3   -1.50    1.40
   1  -6  -3    5.80    2.30
  -1  -6   3   -0.40    1.70
   1  -6  -3   -0.20    1.40
  -1  -6   3    0.70    1.50
  -1   6   3   -1.30    1.90
  -1   6   3    0.20    1.50
   1   6  -3   -2.10    1.60
   1   6  -3    0.30    1.50
   1   6  -3    0.20    1.80
  -1   6   3    1.20    1.90
  -1   6   3    0.30    1.20
   0  -6  -3   36.60    4.20
   0  -6   3   25.00    3.40
   0  -6  -3   34.20    3.70
   0  -6   3   22.70    3.40
   0  -6   3   35.70    4.30
   0  -6  -3   40.20    4.50
   0   6  -3   29.20    3.80
   0   6  -3   31.30    3.90
   0   6   3   30.40    3.50
   0   6   3   36.10    4.30
   0   6   3   23.30    3.50
   0   6   3   31.20    2.90
   0   6  -3   34.30    3.70
   1  -6   3  191.28    8.90
  -1  -6  -3  175.38    8.60
   1  -6   3  158.38    7.80
  -1  -6  -3  166.48    8.40
   1  -6   3  176.88    8.30
  -1  -6  -3  180.78    8.10
   1   6   3  183.18    8.20
   1   6   3  171.48    6.50
   1   6   3  160.88    7.90
   1   6   3  175.18    8.50
  -1   6  -3  172.08    8.00
  -1   6  -3  181.08    8.20
  -1   6  -3  178.38    8.70
   2  -6   3  185.38    9.00
  -2  -6  -3  196.38    8.60
   2  -6   3  184.48    8.50
  -2  -6  -3  184.08    8.70
  -2  -6  -3  176.18    8.70
  -2   6  -3  184.48    9.00
   2   6   3  182.98    8.70
  -2   6  -3  180.38    8.40
   2   6   3  182.58    8.60
  -2   6  -3  172.58    8.00
   3  -6   3   47.60    5.20
  -3  -6  -3   45.90    4.80
  -3  -6  -3   57.09    5.20
  -3  -6  -3   58.59    5.50
   3  -6   3   48.00    4.70
  -3   6  -3   42.50    4.40
  -3   6  -3   47.00    5.00
   3   6   3   57.49    5.60
  -3   6  -3   51.09    5.10
   3   6   3   44.30    4.60
  -3   6  -3   45.70    4.40
  -4  -6  -3   78.19    5.70
   4  -6   3  100.69    6.10
  -4  -6  -3   90.99    5.90
  -4  -6  -3   94.09    6.30
   4  -6   3   91.39    6.40
  -4   6  -3   96.69    5.80
  -4   6  -3   85.99    5.40
  -4   6  -3   86.59    6.30
  -4   6  -3   80.09    5.80
   4   6   3   87.29    6.40
   5  -6   3   37.10    4.80
  -5  -6  -3   44.70    4.50
  -5  -6  -3   37.10    4.80
   5  -6   3   35.20    4.10
  -5  -6  -3   32.30    4.50
  -5   6  -3   36.20    4.80
  -5   6  -3   38.90    4.00
   5   6   3   37.00    4.80
  -5   6  -3   32.70    4.00
  -5   6  -3   42.70    4.80
  -6  -6  -3   10.80    2.70
  -6  -6  -3    6.40    2.80
   6  -6   3    6.20    2.80
   6  -6   3   10.90    2.90
  -6  -6  -3    6.10    2.90
  -6   6  -3    5.20    2.20
  -6   6  -3    6.80    2.50
   6   6   3    7.50    3.30
  -6   6  -3    4.70    2.70
  -7  -6  -3    1.80    2.40
  -7  -6  -3    1.70    1.90
   7  -6   3    1.10    2.40
  -7  -6  -3    2.60    2.70
  -7   6  -3    4.10    2.80
   7   6   3    3.60    2.90
  -7   6  -3    2.70    2.60
  -7   6  -3    0.80    1.80
   7   6   3    4.80    2.40
  -8  -6  -3   91.49    8.00
   8  -6   3   95.39    6.00
  -8  -6  -3   87.89    5.50
   8  -6   3   75.79    7.70
   8   6   3   77.09    7.70
   7  -7  -3    6.80    2.90
  -7  -7   3    8.90    2.70
   7  -7  -3    4.30    3.10
  -7  -7   3   11.00    3.50
  -7   7   3   13.50    3.60
  -7   7   3   10.50    3.50
   7   7  -3    4.50    3.30
   6  -7  -3   41.20    5.60
  -6  -7   3   41.50    4.80
  -6  -7   3   50.39    5.40
   6  -7  -3   43.50    5.20
  -6  -7   3   41.80    5.70
  -6   7   3   57.89    6.30
  -6   7   3   58.79    6.00
  -6   7   3   51.49    5.70
   6   7  -3   48.20    6.30
  -5  -7   3    0.80    2.40
  -5  -7   3    0.90    2.00
   5  -7  -3   -0.40    2.50
  -5  -7   3   -2.20    1.80
   5  -7  -3    2.30    2.30
  -5   7   3    0.60    2.10
  -5   7   3    0.50    1.90
   5   7  -3   -4.40    1.90
  -5   7   3    5.40    2.90
  -4  -7   3    3.80    2.30
  -4  -7   3    6.20    2.50
   4  -7  -3    2.00    1.90
   4  -7  -3    1.30    2.40
  -4  -7   3    4.00    2.40
  -4   7   3    1.30    2.10
   4   7  -3   -0.30    2.30
  -4   7   3    2.50    2.60
  -4   7   3    0.70    2.40
   3  -7  -3   70.79    6.60
   3  -7  -3   62.89    6.40
   3  -7  -3   72.89    5.00
   3  -7  -3   57.59    4.60
  -3  -7   3   60.79    5.70
  -3  -7   3   61.89    5.90
  -3  -7   3   71.19    6.60
  -3   7   3   76.99    5.60
  -3   7   3   75.49    6.80
  -3   7   3   66.49    6.00
   3   7  -3   55.19    5.90
  -2  -7   3   37.70    4.80
  -2  -7   3   24.90    3.90
  -2  -7   3   32.30    4.70
   2  -7  -3   31.70    4.50
   2  -7  -3   27.50    4.40
   2  -7  -3   36.10    4.00
   2   7  -3   32.30    4.60
  -2   7   3   25.20    3.50
  -2   7   3   36.60    3.90
   2   7  -3   29.70    4.30
  -2   7   3   37.10    4.90
   2   7  -3   29.00    3.60
  -2   7   3   37.70    4.70
   1  -7  -3  120.99    6.70
  -1  -7   3  123.79    7.20
  -1  -7   3  127.09    7.80
   1  -7  -3  132.99    7.90
   1  -7  -3  117.09    7.50
  -1  -7   3  132.99    7.70
  -1   7   3  123.29    6.30
  -1   7   3  121.99    6.90
   1   7  -3  126.89    7.60
   1   7  -3  137.79    7.90
  -1   7   3  129.59    7.30
  -1   7   3  124.99    7.80
   1   7  -3  116.09    6.80
   0  -7  -3    1.20    2.40
   0  -7   3    1.60    2.30
   0  -7  -3    2.80    2.50
   0  -7  -3    1.20    1.90
   0  -7   3    1.20    2.50
   0  -7   3    2.30    2.20
   0   7  -3    0.70    2.40
   0   7   3    1.10    2.00
   0   7  -3    3.70    2.30
   0   7  -3    4.20    2.10
   0   7   3   -1.80    2.20
   0   7   3    0.00    2.10
  -1  -7  -3    0.10    2.20
   1  -7   3    1.00    2.20
   1  -7   3    1.20    2.50
  -1  -7  -3    1.80    1.90
  -1  -7  -3    3.70    2.50
   1   7   3    0.00    2.00
  -1   7  -3    1.10    2.30
   1   7   3   -0.30    2.00
  -1   7  -3    0.90    1.90
  -1   7  -3    1.10    2.40
   2  -7   3    0.80    2.00
  -2  -7  -3    2.00    2.00
   2  -7   3   -3.10    2.10
  -2  -7  -3    1.00    2.20
  -2  -7  -3   -1.20    2.10
  -2   7  -3    3.50    2.10
  -2   7  -3   -1.60    1.90
   2   7   3    0.70    2.00
  -2   7  -3   -0.90    2.20
   2   7   3    4.30    2.50
  -3  -7  -3   11.20    3.40
  -3  -7  -3    8.90    3.00
   3  -7   3   10.40    3.30
  -3  -7  -3    8.90    3.00
   3  -7   3    7.10    2.60
  -3   7  -3    5.10    2.80
  -3   7  -3    8.30    2.90
  -3   7  -3    8.50    2.60
   3   7   3    8.70    3.10
   4  -7   3  172.38    9.60
  -4  -7  -3  155.48    8.60
  -4  -7  -3  164.98    9.20
   4  -7   3  155.28    8.30
  -4  -7  -3  176.18    9.30
  -4   7  -3  167.78    8.30
  -4   7  -3  163.08    9.20
  -4   7  -3  161.28    9.40
   4   7   3  146.59    9.10
  -5  -7  -3   15.30    3.70
   5  -7   3   24.30    3.90
  -5  -7  -3   24.50    4.50
   5  -7   3   28.00    4.80
  -5  -7  -3   17.00    3.70
  -5   7  -3   21.70    4.50
  -5   7  -3   19.30    4.30
   5   7   3   21.80    4.50
  -6  -7  -3   11.60    3.20
  -6  -7  -3    5.00    2.60
   6   7   3    7.60    3.40
  -6   7  -3    5.90    2.90
  -3  -8   3   41.20    5.40
   3  -8  -3   39.20    5.80
  -3   8   3   58.39    6.80
   3   8  -3   34.90    5.40
  -2  -8   3   43.50    5.90
   2  -8  -3   63.09    7.00
  -2  -8   3   56.09    5.90
   2   8  -3   47.20    5.90
  -2   8   3   58.69    6.60
   1  -8  -3   22.30    4.80
  -1  -8   3   16.40    3.80
   1  -8  -3   22.90    3.90
  -1  -8   3   25.20    4.50
  -1  -8   3   23.90    5.30
   1  -8  -3   22.30    4.60
   1   8  -3   28.50    4.80
   1   8  -3   33.40    5.10
  -1   8   3   29.00    5.10
   0  -8   3   30.50    4.60
   0  -8  -3   22.40    4.00
   0  -8  -3   25.80    4.80
   0  -8  -3   14.70    3.90
   0  -8   3   18.80    4.20
   0  -8   3   23.80    4.50
   0   8  -3   26.50    4.70
   0   8  -3   17.00    3.80
   0   8  -3   12.20    3.30
   0   8   3   27.40    4.20
   0   8   3   24.00    4.70
   1  -8   3   -0.40    2.70
  -1  -8  -3   -2.20    2.00
  -1  -8  -3    3.00    3.10
   1  -8   3    0.50    2.70
  -1   8  -3   -1.70    2.00
   1   8   3    1.20    2.70
  -1   8  -3   -1.60    2.10
   1   8   3   -0.60    2.30
  -1   8  -3   -0.40    2.60
   2  -8   3    3.70    3.20
   2  -8   3    3.10    2.70
  -2  -8  -3   -1.10    2.50
  -2   8  -3    1.80    3.10
   2   8   3    6.60    3.20
  -2   8  -3    1.50    2.40
  -2   8  -3    1.10    2.40
  13   0  -4   12.80    3.80
 -13   0   4   12.30    3.40
 -13   0   4   11.10    3.30
 -12   0   4   19.70    3.70
 -12   0   4   14.70    2.90
 -12   0   4   16.10    3.30
  12   0  -4   11.00    3.50
  12   0  -4   15.50    3.20
 -11   0   4    0.40    1.50
 -11   0   4   -1.20    1.30
  11   0  -4    1.70    1.60
  11   0  -4   -0.20    1.50
  11   0  -4    2.10    1.70
 -11   0   4    0.80    1.60
 -11   0   4    0.20    1.80
 -10   0   4    2.10    1.40
 -10   0   4    0.20    1.20
  10   0  -4   -0.10    1.50
 -10   0   4   -1.00    1.30
  10   0  -4   -3.20    1.50
  10   0  -4   -1.00    1.20
   9   0  -4   90.59    4.80
  -9   0   4   91.89    5.40
  -9   0   4   92.09    4.90
   9   0  -4  108.99    5.40
   9   0  -4   98.09    6.10
  -9   0   4   89.89    5.00
  -8   0   4   94.49    4.80
  -8   0   4   92.59    4.50
   8   0  -4   88.69    4.80
  -8   0   4   86.19    5.00
   8   0  -4  102.19    4.60
   8   0  -4   91.59    5.50
  -7   0   4  148.09    6.60
  -7   0   4  168.68    6.00
   7   0  -4  161.28    6.00
   7   0  -4  152.18    6.90
  -7   0   4  152.18    6.20
   7   0  -4  157.78    6.40
   6   0  -4  756.02   22.70
   6   0  -4  775.82   22.10
   6   0  -4  798.42   21.60
  -6   0   4  769.72   22.00
  -6   0   4  782.52   20.30
   6   0  -4  789.52   20.20
   6   0  -4  800.12   20.20
  -6   0   4  770.82   20.30
  -6   0   4  781.42   21.40
  -5   0   4 2455.75   63.79
  -5   0   4 2407.66   64.49
   5   0  -4 2502.45   65.09
   5   0  -4 2387.26   63.49
   5   0  -4 2555.54   63.49
  -5   0   4 2438.76   63.89
  -5   0   4 2468.55   63.99
   5   0  -4 2502.85   64.59
   5   0  -4 2608.34   64.09
  -4   0   4 9472.25  234.88
  -4   0   4 9031.40  233.68
   4   0  -4 8711.83  231.18
   4   0  -4 8988.90  233.68
   4   0  -4 8832.02  235.38
  -4   0   4 8646.43  236.08
  -4   0   4 8965.30  233.18
   4   0  -4 9999.00  234.38
   3   0  -4  717.23   19.70
   3   0  -4  728.43   18.90
  -3   0   4  711.83   19.60
   3   0  -4  757.82   19.20
  -3   0   4  714.43   19.10
  -3   0   4  704.43   19.10
  -3   0   4  714.03   18.90
   3   0  -4  725.93   19.80
   3   0  -4  705.93   19.10
   3   0  -4  731.73   19.10
   2   0  -4   34.80    1.80
  -2   0   4   34.50    1.50
  -2   0   4   33.40    1.80
  -2   0   4   30.20    1.20
  -2   0   4   31.20    1.70
   2   0  -4   37.10    1.90
  -2   0   4   35.20    1.70
   2   0  -4   34.70    1.70
  -1   0   4    6.50    0.70
   1   0  -4    8.50    0.80
   1   0  -4    5.20    0.70
  -1   0   4    5.60    0.80
   1   0  -4    6.50    0.60
   1   0  -4    6.30    0.90
  -1   0   4    4.80    0.80
   1   0  -4    5.60    0.90
  -1   0   4    6.10    0.90
  -1   0   4    5.90    0.50
   0   0  -4 8382.66  221.58
   0   0   4 8397.06  223.08
   0   0  -4 8940.01  221.58
   0   0   4 8832.72  224.58
   0   0  -4 8799.22  224.08
   0   0   4 8837.62  224.38
   0   0  -4 8516.55  223.88
   0   0  -4 8787.72  225.18
   0   0  -4 8543.95  222.48
   0   0   4 8368.26  220.88
  -1   0  -4 1800.82   45.50
  -1   0  -4 1691.53   45.60
   1   0   4 1763.62   45.60
   1   0   4 1735.63   45.40
   1   0   4 1770.32   45.30
  -1   0  -4 1772.32   45.30
  -1   0  -4 1799.32   45.70
  -2   0  -4 1178.18   31.40
   2   0   4 1239.98   31.50
   2   0   4 1172.88   31.40
  -2   0  -4 1172.78   31.60
   2   0   4 1206.18   31.70
  -2   0  -4 1189.88   31.40
   2   0   4 1196.88   31.20
  -2   0  -4 1186.28   31.20
  -3   0  -4  780.22   20.90
   3   0   4  767.82   21.30
   3   0   4  766.62   20.90
  -3   0  -4  761.32   20.90
   3   0   4  782.92   20.90
   3   0   4  766.92   21.00
  -3   0  -4  751.12   20.80
   3   0   4  774.62   20.80
  -4   0  -4 1243.08   32.20
   4   0   4 1273.47   34.10
   4   0   4 1250.97   33.50
   4   0   4 1273.07   33.70
  -4   0  -4 1297.87   33.60
  -4   0  -4 1238.88   33.60
   4   0   4 1276.47   33.50
  -4   0  -4 1264.27   33.50
   4   0   4 1275.27   34.10
   5   0   4  126.89    5.10
   5   0   4  127.59    5.50
  -5   0  -4  125.89    3.90
   5   0   4  128.69    4.80
  -5   0  -4  123.59    4.70
  -5   0  -4  129.79    5.10
   5   0   4  132.09    5.40
  -5   0  -4  127.89    4.80
  -6   0  -4  163.48    6.30
  -6   0  -4  157.88    5.70
   6   0   4  167.28    5.70
  -6   0  -4  155.18    4.90
   6   0   4  159.78    6.50
   6   0   4  159.48    6.70
  -6   0  -4  149.09    6.70
  -6   0  -4  153.38    5.60
  -7   0  -4  941.61   27.60
  -7   0  -4  927.01   24.70
   7   0   4  954.20   27.40
  -7   0  -4  943.81   25.50
  -7   0  -4  934.31   25.50
   7   0   4  929.31   26.80
  -7   0  -4  924.91   26.50
  -8   0  -4   50.59    4.80
  -8   0  -4   40.70    2.30
  -8   0  -4   45.70    3.50
   8   0   4   54.49    4.30
   8   0   4   49.30    3.70
  -8   0  -4   46.30    2.80
  -9   0  -4   -2.00    1.10
  -9   0  -4   -0.40    1.30
   9   0   4   -1.20    1.50
  -9   0  -4    0.00    0.90
   9   0   4   -1.50    1.50
  10   0   4   72.39    5.60
 -10   0  -4   64.49    6.10
  10   0   4   56.19    5.30
 -10   0  -4   65.49    4.80
 -11   0  -4   52.09    5.90
  11   0   4   51.69    5.70
 -11   0  -4   48.50    4.90
  11   0   4   58.19    5.40
 -12  -1   4    2.30    2.20
 -12  -1   4    2.00    1.80
  12  -1  -4    4.20    2.70
  12  -1  -4    3.00    2.20
 -12  -1   4    2.70    2.20
 -12  -1   4    0.90    2.00
  12   1  -4    4.70    2.40
 -12   1   4   -0.50    1.70
  12   1  -4    3.20    2.60
 -12   1   4    5.20    2.80
  12   1  -4    3.00    2.10
 -11  -1   4    4.50    2.10
  11  -1  -4    9.30    2.40
 -11  -1   4   12.40    2.80
 -11  -1   4    9.60    2.40
  11  -1  -4    8.20    2.60
 -11  -1   4    5.30    2.10
 -11   1   4   12.20    3.10
  11   1  -4    8.10    2.50
  11   1  -4    4.60    2.10
  11   1  -4    9.20    2.50
 -11   1   4   10.00    2.30
 -10  -1   4   74.29    5.00
 -10  -1   4   80.39    4.90
 -10  -1   4   77.09    5.20
 -10  -1   4   81.09    5.00
  10  -1  -4   70.69    4.90
  10  -1  -4   71.29    5.70
 -10   1   4   86.59    5.80
  10   1  -4   77.19    5.80
 -10   1   4   78.89    4.80
 -10   1   4   74.29    4.40
  10   1  -4   75.89    5.10
  10   1  -4   75.39    4.90
  -9  -1   4   34.90    3.70
  -9  -1   4   35.80    3.60
  -9  -1   4   39.50    3.60
  -9  -1   4   36.50    3.50
   9  -1  -4   40.30    3.80
   9  -1  -4   40.40    4.50
  -9   1   4   39.50    1.90
   9   1  -4   33.70    3.60
  -9   1   4   39.90    3.70
   9   1  -4   42.40    3.90
  -9   1   4   42.40    4.20
   9   1  -4   37.20    4.30
  -9   1   4   46.30    3.10
   8  -1  -4  379.16   12.80
  -8  -1   4  391.26   13.10
   8  -1  -4  369.16   13.70
  -8  -1   4  392.26   12.60
   8  -1  -4  385.26   10.90
  -8  -1   4  383.36   12.70
  -8  -1   4  394.06   12.90
   8   1  -4  384.76   12.80
  -8   1   4  394.36   11.00
  -8   1   4  388.16   13.50
   8   1  -4  398.36   13.00
   8   1  -4  400.36   13.80
  -8   1   4  394.36   12.80
  -8   1   4  385.76   11.00
   7  -1  -4  106.59    4.00
  -7  -1   4  103.89    5.00
  -7  -1   4   96.49    4.70
   7  -1  -4   96.19    5.30
   7  -1  -4  110.19    5.10
  -7  -1   4  102.09    4.60
  -7   1   4  107.79    5.40
  -7   1   4  105.19    4.90
   7   1  -4   97.19    5.40
   7   1  -4  104.49    4.90
  -7   1   4  102.29    3.80
  -7   1   4  102.29    3.80
   7   1  -4  106.49    5.00
  -6  -1   4   28.10    2.10
   6  -1  -4   26.00    1.70
   6  -1  -4   26.10    2.60
  -6  -1   4   25.90    0.90
   6  -1  -4   25.90    1.60
  -6  -1   4   26.30    2.40
  -6  -1   4   26.60    2.60
   6  -1  -4   25.00    2.90
  -6  -1   4   27.20    0.90
  -6   1   4   26.10    1.80
  -6   1   4   23.80    2.60
   6   1  -4   32.10    2.60
   6   1  -4   27.70    2.60
  -6   1   4   30.90    2.30
   6   1  -4   24.70    2.60
  -6   1   4   27.20    1.70
   5  -1  -4  163.08    5.20
  -5  -1   4  162.68    5.70
   5  -1  -4  153.28    4.70
   5  -1  -4  161.38    6.30
  -5  -1   4  151.18    4.50
   5  -1  -4  150.58    5.90
  -5  -1   4  158.18    5.30
  -5  -1   4  151.28    4.50
   5  -1  -4  157.48    5.20
   5   1  -4  153.08    5.90
   5   1  -4  154.28    6.20
  -5   1   4  170.18    5.80
  -5   1   4  152.38    5.80
  -5   1   4  155.18    5.20
   5   1  -4  152.78    4.50
  -5   1   4  145.89    6.00
   5   1  -4  157.58    6.00
   5   1  -4  155.08    4.50
  -5   1   4  148.39    5.20
  -4  -1   4  102.99    3.50
   4  -1  -4  106.89    4.50
   4  -1  -4  110.69    3.90
   4  -1  -4  112.59    4.40
  -4  -1   4  103.49    3.60
  -4  -1   4  104.09    3.50
  -4  -1   4  103.99    4.10
   4  -1  -4  110.69    3.20
   4  -1  -4  107.69    4.50
   4  -1  -4  107.59    3.90
  -4   1   4  104.49    3.90
   4   1  -4  106.19    4.50
  -4   1   4  107.09    4.30
   4   1  -4  103.19    4.30
  -4   1   4  105.69    3.90
   4   1  -4  104.59    4.40
  -4   1   4  103.89    3.20
  -4   1   4  101.89    4.40
  -4   1   4  111.89    4.10
   4   1  -4  108.19    4.10
   4   1  -4  106.39    3.50
   3  -1  -4  107.99    4.10
   3  -1  -4  108.09    3.00
   3  -1  -4  102.79    3.80
   3  -1  -4  106.49    4.10
   3  -1  -4  107.49    3.90
   3  -1  -4  108.09    4.20
  -3  -1   4  102.59    3.60
  -3  -1   4  103.19    3.60
  -3  -1   4  105.59    3.90
  -3  -1   4  102.99    3.30
  -3   1   4  101.89    3.80
   3   1  -4  104.09    4.30
  -3   1   4  103.49    4.10
   3   1  -4  109.69    4.00
  -3   1   4  106.29    3.80
   3   1  -4  107.19    3.60
  -3   1   4  106.79    3.90
   3   1  -4  103.89    4.10
   3   1  -4  108.79    4.20
  -2  -1   4  465.45   12.60
  -2  -1   4  437.56   12.60
   2  -1  -4  444.96   12.80
  -2  -1   4  457.05   11.80
  -2  -1   4  450.05   12.70
   2  -1  -4  460.95   12.80
   2  -1  -4  464.95   12.70
   2  -1  -4  458.55   12.90
  -2  -1   4  465.85   13.00
   2  -1  -4  449.06   12.50
   2  -1  -4  459.55   12.80
  -2   1   4  464.35   12.60
   2   1  -4  455.05   11.80
   2   1  -4  444.26   12.60
  -2   1   4  473.95   12.90
  -2   1   4  443.46   12.80
   2   1  -4  442.86   12.80
  -2   1   4  458.25   12.80
   2   1  -4  459.65   13.00
   2   1  -4  467.15   12.80
   2   1  -4  458.45   12.60
  -1  -1   4 6672.13  180.88
  -1  -1   4 6604.34  180.38
   1  -1  -4 7298.27  180.48
   1  -1  -4 6593.54  181.18
  -1  -1   4 7287.37  181.98
   1  -1  -4 6765.32  180.18
   1  -1  -4 6867.71  178.58
  -1  -1   4 7407.16  181.18
   1  -1  -4 7060.09  180.58
   1   1  -4 7097.69  180.78
   1   1  -4 6339.17  179.78
  -1   1   4 6969.30  180.48
   1   1  -4 6919.31  177.08
  -1   1   4 6588.94  180.78
   1   1  -4 7263.87  181.78
   1   1  -4 7322.97  181.38
  -1   1   4 6945.50  181.38
  -1   1   4 6816.72  178.18
   0  -1   4 3973.80   98.29
   0  -1  -4 3781.22   98.29
   0  -1  -4 3732.53   96.49
   0  -1   4 3604.14   97.99
   0  -1   4 3667.63   96.49
   0  -1  -4 3827.02   96.09
   0  -1   4 3907.61   96.59
   0  -1  -4 3657.13   98.59
   0   1  -4 3642.74   98.29
   0   1   4 3901.31   97.39
   0   1   4 3732.93   98.19
   0   1  -4 3936.81   98.09
   0   1  -4 3947.21   98.19
   0   1   4 3623.34   96.29
   0   1   4 3714.23   98.99
   0   1  -4 3854.11   96.59
   1  -1   4 2121.79   54.79
  -1  -1  -4 2103.49   54.69
  -1  -1  -4 2090.69   53.99
  -1  -1  -4 2043.90   54.69
   1  -1   4 2200.78   54.79
  -1  -1  -4 2108.39   54.69
   1  -1   4 2058.29   54.79
   1  -1   4 2116.49   54.79
   1  -1   4 2117.59   54.69
   1  -1   4 2160.68   54.79
   1   1   4 2098.19   54.69
   1   1   4 2043.80   54.59
   1   1   4 2202.38   54.89
  -1   1  -4 2117.29   54.79
   1   1   4 2172.08   54.79
  -1   1  -4 2178.28   54.79
   1   1   4 2085.89   54.19
   1   1   4 2166.68   54.79
   1   1   4 2110.49   54.69
  -1   1  -4 2083.09   54.79
  -1   1  -4 2069.19   54.79
   1   1   4 2106.69   54.69
   2  -1   4  923.01   25.30
  -2  -1  -4  924.41   25.10
   2  -1   4  912.11   24.00
  -2  -1  -4  922.71   25.40
  -2  -1  -4  930.91   24.20
   2  -1   4  947.51   25.30
   2  -1   4  939.81   25.30
  -2  -1  -4  949.71   25.10
   2  -1   4  950.50   25.40
  -2  -1  -4  932.71   24.30
  -2   1  -4  914.71   25.20
   2   1   4  954.00   25.60
  -2   1  -4  950.00   25.30
  -2   1  -4  956.40   25.40
   2   1   4  937.51   24.20
   2   1   4  932.01   24.30
   2   1   4  927.91   25.40
  -2   1  -4  927.01   25.30
   2   1   4  916.41   25.10
   2   1   4  964.80   24.50
   2   1   4  956.70   25.30
   2   1   4  936.01   25.10
   3  -1   4   75.29    2.30
  -3  -1  -4   70.69    2.50
  -3  -1  -4   67.19    2.60
  -3  -1  -4   66.09    3.50
  -3  -1  -4   68.19    3.10
   3  -1   4   75.69    3.40
  -3  -1  -4   71.99    3.10
   3  -1   4   73.69    3.50
   3  -1   4   74.09    3.30
   3  -1   4   64.59    3.20
  -3   1  -4   71.99    3.30
   3   1   4   70.89    2.60
   3   1   4   71.29    3.10
   3   1   4   72.99    3.40
   3   1   4   70.19    3.60
  -3   1  -4   69.69    3.30
  -3   1  -4   73.19    2.30
   3   1   4   69.59    3.10
   3   1   4   70.99    3.00
  -3   1  -4   70.89    3.40
  -3   1  -4   73.79    3.60
   4  -1   4  340.37   10.50
  -4  -1  -4  323.67    9.80
   4  -1   4  324.57   10.00
  -4  -1  -4  319.57    9.10
  -4  -1  -4  331.67    9.80
  -4  -1  -4  323.67   10.70
  -4  -1  -4  333.57    9.40
   4  -1   4  326.37    8.80
   4  -1   4  327.87   10.50
  -4   1  -4  322.67   10.40
   4   1   4  318.17    9.70
  -4   1  -4  326.27   10.10
  -4   1  -4  317.67   10.00
   4   1   4  328.67   10.30
   4   1   4  325.57    9.40
   4   1   4  318.07   10.80
   4   1   4  318.57    9.70
  -4   1  -4  322.77    8.80
   4   1   4  328.57   10.00
  -5  -1  -4    3.80    0.80
  -5  -1  -4    2.60    0.80
  -5  -1  -4    2.80    0.90
   5  -1   4    3.20    1.30
   5  -1   4    4.80    1.40
   5  -1   4    3.70    1.10
  -5  -1  -4    2.20    0.80
  -5  -1  -4    4.30    1.50
   5   1   4    3.00    1.10
  -5   1  -4    2.70    1.00
  -5   1  -4    1.60    1.00
   5   1   4    2.00    0.90
   5   1   4    3.50    1.20
  -5   1  -4    4.60    1.40
  -5   1  -4    3.70    0.60
   5   1   4    2.50    0.90
   5   1   4    2.10    1.30
  -6  -1  -4  103.19    4.40
   6  -1   4  111.29    4.60
   6  -1   4  115.69    5.60
  -6  -1  -4  102.29    5.40
  -6  -1  -4  107.69    4.20
  -6  -1  -4   99.99    4.20
  -6  -1  -4  108.69    3.90
   6  -1   4  101.29    5.10
  -6  -1  -4  105.99    3.90
   6   1   4  109.09    5.00
   6   1   4   96.19    4.90
  -6   1  -4  101.69    4.50
   6   1   4  107.09    4.20
   6   1   4   95.49    5.30
  -6   1  -4  104.69    3.60
  -6   1  -4  104.29    5.20
   7  -1   4  261.07    8.80
  -7  -1  -4  257.17    9.00
   7  -1   4  267.97    9.90
   7  -1   4  266.57   10.30
  -7  -1  -4  267.07    8.40
  -7  -1  -4  261.37    8.20
  -7  -1  -4  285.87   10.70
  -7  -1  -4  264.77    8.40
   7   1   4  268.77    9.70
   7   1   4  286.77   10.00
  -7   1  -4  259.57    7.90
  -7   1  -4  258.97    8.90
  -7   1  -4  251.67    9.80
  -7   1  -4  276.47    9.00
  -8  -1  -4  168.08    6.80
  -8  -1  -4  158.08    5.70
  -8  -1  -4  172.18    5.90
   8  -1   4  163.88    8.00
  -8  -1  -4  162.08    7.90
   8  -1   4  164.38    7.50
  -8   1  -4  169.48    7.60
  -8   1  -4  177.88    6.00
   8   1   4  172.28    7.70
  -8   1  -4  159.98    6.30
   8   1   4  160.78    7.10
  -9  -1  -4   47.50    3.70
  -9  -1  -4   47.40    2.50
   9  -1   4   44.30    4.40
  -9  -1  -4   47.40    5.00
   9  -1   4   47.80    5.10
  -9   1  -4   52.59    4.80
   9   1   4   46.80    4.70
  -9   1  -4   45.60    3.20
   9   1   4   52.79    4.10
 -10  -1  -4   12.20    3.00
  10  -1   4    7.60    2.50
  10  -1   4    4.50    2.50
 -10   1  -4    6.90    1.60
  10   1   4    6.50    2.50
 -10   1  -4    8.50    2.50
  10   1   4    7.40    2.30
 -11  -1  -4   19.10    4.20
  11  -1   4   19.00    4.00
  11  -1   4   23.10    3.90
 -11   1  -4   26.70    4.30
 -11   1  -4   25.40    4.00
  11   1   4   21.60    3.90
  12  -2  -4   58.89    5.40
 -12  -2   4   45.50    5.20
  12  -2  -4   46.10    6.00
 -12  -2   4   49.40    5.00
 -12  -2   4   44.10    5.00
 -12   2   4   39.90    4.50
  12   2  -4   37.80    5.30
  12   2  -4   54.09    5.70
  12   2  -4   52.49    5.20
 -12   2   4   49.40    5.90
 -11  -2   4    8.00    2.40
  11  -2  -4    6.50    2.50
 -11  -2   4    5.50    2.40
 -11  -2   4    6.80    2.30
  11  -2  -4    6.00    2.40
 -11  -2   4    3.70    2.00
  11   2  -4    8.30    2.60
  11   2  -4    6.30    2.70
 -11   2   4    5.20    2.50
  11   2  -4    4.60    2.20
 -11   2   4    2.80    1.80
 -10  -2   4   67.29    4.60
  10  -2  -4   70.89    6.50
 -10  -2   4   70.29    4.80
  10  -2  -4   71.59    5.00
 -10  -2   4   63.19    4.80
 -10  -2   4   64.39    4.80
  10   2  -4   67.09    5.10
  10   2  -4   73.09    4.90
 -10   2   4   69.39    4.70
  10   2  -4   57.49    5.70
 -10   2   4   91.69    6.20
 -10   2   4   68.59    3.40
  -9  -2   4   66.59    4.30
   9  -2  -4   73.09    5.40
  -9  -2   4   58.99    4.40
  -9  -2   4   74.39    4.70
  -9  -2   4   64.39    4.40
   9  -2  -4   65.99    4.60
   9   2  -4   67.99    4.60
  -9   2   4   55.29    5.20
   9   2  -4   70.59    4.90
  -9   2   4   69.59    4.50
   9   2  -4   73.49    5.20
  -9   2   4   65.09    3.50
  -8  -2   4 1014.70   28.60
   8  -2  -4 1030.90   30.20
  -8  -2   4 1033.70   29.30
   8  -2  -4 1005.40   29.00
   8  -2  -4 1030.10   27.80
  -8   2   4 1023.10   27.70
   8   2  -4 1000.60   29.00
   8   2  -4  981.50   29.70
   8   2  -4  980.40   29.50
  -8   2   4 1012.10   28.90
  -8   2   4 1015.20   29.90
  -8   2   4 1027.80   27.50
   7  -2  -4  535.95   16.40
  -7  -2   4  519.35   15.70
  -7  -2   4  514.05   13.40
  -7  -2   4  532.65   16.50
  -7  -2   4  521.65   13.50
   7  -2  -4  517.85   17.00
   7  -2  -4  540.45   15.40
  -7   2   4  523.55   15.40
   7   2  -4  530.45   16.40
  -7   2   4  527.05   15.40
  -7   2   4  536.85   17.00
   7   2  -4  542.05   16.90
   7   2  -4  519.15   16.90
  -7   2   4  513.45   16.10
  -7   2   4  528.25   14.70
   6  -2  -4   22.90    2.20
  -6  -2   4   24.50    2.00
  -6  -2   4   23.10    1.40
  -6  -2   4   24.70    1.40
   6  -2  -4   33.40    3.00
  -6  -2   4   25.30    2.70
   6  -2  -4   26.70    3.00
  -6   2   4   25.50    1.60
   6   2  -4   21.60    2.60
  -6   2   4   23.10    2.80
  -6   2   4   26.10    2.60
  -6   2   4   26.00    2.30
   6   2  -4   26.50    2.70
  -6   2   4   23.90    2.30
   6   2  -4   24.30    1.40
   6   2  -4   23.10    2.70
  -5  -2   4   95.79    4.50
   5  -2  -4  101.89    4.90
  -5  -2   4  103.19    3.70
   5  -2  -4  105.69    4.70
  -5  -2   4  105.69    4.10
   5  -2  -4  106.19    4.40
  -5  -2   4  101.29    3.70
   5   2  -4  108.69    5.00
   5   2  -4  107.79    3.70
   5   2  -4   98.59    4.80
  -5   2   4  105.59    4.70
   5   2  -4  101.09    4.70
  -5   2   4   95.29    4.80
  -5   2   4   99.69    4.30
  -5   2   4   99.59    4.30
  -5   2   4  103.79    3.30
   4  -2  -4   79.79    3.60
   4  -2  -4   73.49    3.70
   4  -2  -4   74.59    3.70
  -4  -2   4   70.09    3.00
  -4  -2   4   75.19    3.10
  -4  -2   4   74.29    3.10
  -4  -2   4   71.09    3.70
   4   2  -4   76.99    3.10
  -4   2   4   67.29    3.50
   4   2  -4   75.99    3.10
   4   2  -4   73.29    3.10
  -4   2   4   75.79    3.60
  -4   2   4   72.39    2.30
   4   2  -4   72.09    3.80
  -4   2   4   77.79    3.70
   4   2  -4   75.99    3.80
  -4   2   4   74.39    3.80
  -4   2   4   71.29    3.50
   4   2  -4   67.99    3.60
  -3  -2   4   70.69    3.10
   3  -2  -4   71.59    3.50
  -3  -2   4   78.39    3.20
  -3  -2   4   78.99    2.90
   3  -2  -4   74.09    3.50
   3  -2  -4   79.99    3.60
   3  -2  -4   76.19    3.60
   3  -2  -4   76.09    3.40
   3  -2  -4   72.69    2.30
  -3  -2   4   77.49    3.60
   3  -2  -4   77.69    3.60
  -3  -2   4   76.79    3.50
  -3   2   4   73.49    3.40
  -3   2   4   83.69    3.60
   3   2  -4   77.49    2.90
   3   2  -4   77.69    3.20
  -3   2   4   77.29    3.50
   3   2  -4   71.79    3.20
   3   2  -4   76.29    3.60
  -3   2   4   74.19    3.50
   3   2  -4   71.79    3.70
  -3   2   4   78.09    3.60
  -3   2   4   78.49    2.30
   3   2  -4   78.69    3.70
   2  -2  -4  509.85   14.20
  -2  -2   4  476.95   14.00
   2  -2  -4  488.35   14.10
   2  -2  -4  498.55   14.30
  -2  -2   4  490.45   14.20
   2  -2  -4  482.25   13.10
  -2  -2   4  495.05   14.00
   2  -2  -4  473.05   14.30
  -2  -2   4  494.75   13.40
   2  -2  -4  489.65   13.70
  -2  -2   4  463.75   14.20
  -2   2   4  493.25   14.20
  -2   2   4  484.35   14.00
   2   2  -4  493.75   14.60
   2   2  -4  521.85   14.10
  -2   2   4  507.25   13.20
   2   2  -4  499.75   14.10
   2   2  -4  499.65   13.40
   2   2  -4  497.85   14.30
  -2   2   4  502.85   14.40
  -2   2   4  499.95   14.20
  -2   2   4  504.65   14.30
   2   2  -4  495.85   14.30
   1  -2  -4 3172.28   81.39
   1  -2  -4 3142.69   81.59
  -1  -2   4 3279.77   81.49
   1  -2  -4 3028.20   82.19
  -1  -2   4 3079.89   81.49
  -1  -2   4 3184.28   81.49
   1  -2  -4 3232.88   82.19
   1  -2  -4 3258.67   81.69
  -1  -2   4 3103.89   81.49
   1  -2  -4 3217.38   81.29
  -1  -2   4 3070.99   81.29
  -1   2   4 3285.37   81.69
   1   2  -4 3242.28   81.49
  -1   2   4 3326.17   80.89
   1   2  -4 3053.59   81.49
   1   2  -4 3183.18   81.59
   1   2  -4 3181.78   81.39
  -1   2   4 3137.19   81.59
   1   2  -4 3024.50   80.69
  -1   2   4 3234.58   81.39
  -1   2   4 3047.00   81.59
  -1   2   4 3180.68   81.49
   1   2  -4 3175.38   81.79
   1   2  -4 3201.48   81.49
   0  -2  -4  169.58    4.30
   0  -2   4  162.48    5.70
   0  -2   4  163.08    5.40
   0  -2  -4  162.98    5.80
   0  -2   4  154.48    5.70
   0  -2  -4  158.08    5.30
   0  -2  -4  161.68    5.80
   0  -2   4  163.08    5.50
   0  -2  -4  163.58    5.70
   0  -2   4  163.08    5.80
   0  -2  -4  153.08    5.40
   0  -2   4  154.48    5.60
   0   2  -4  158.58    5.20
   0   2   4  156.58    5.70
   0   2   4  169.38    5.80
   0   2  -4  153.68    5.60
   0   2   4  146.59    5.30
   0   2  -4  157.58    5.80
   0   2   4  164.98    5.60
   0   2   4  160.38    4.80
   0   2   4  159.78    5.70
   0   2  -4  156.88    5.70
   0   2  -4  160.98    5.70
   1  -2   4 1116.79   30.00
  -1  -2  -4 1080.19   29.80
  -1  -2  -4 1105.79   29.90
   1  -2   4 1112.09   29.20
  -1  -2  -4 1112.99   29.40
   1  -2   4 1082.59   29.90
  -1  -2  -4 1135.29   29.90
   1  -2   4 1138.79   29.90
   1  -2   4 1104.09   29.90
   1  -2   4 1129.59   30.00
   1   2   4 1106.39   29.80
   1   2   4 1085.49   29.80
  -1   2  -4 1121.39   30.00
   1   2   4 1073.59   29.30
  -1   2  -4 1147.79   29.60
   1   2   4 1129.79   30.00
   1   2   4 1120.59   30.00
  -1   2  -4 1100.79   30.00
  -1   2  -4 1102.59   30.00
  -1   2  -4 1111.59   29.90
   1   2   4 1093.19   28.20
   2  -2   4 1262.17   34.70
   2  -2   4 1286.47   34.70
   2  -2   4 1284.27   34.70
   2  -2   4 1253.77   34.70
  -2  -2  -4 1302.87   34.00
  -2  -2  -4 1300.97   34.50
  -2  -2  -4 1268.57   34.80
  -2  -2  -4 1318.37   34.50
   2  -2   4 1262.27   33.70
   2  -2   4 1285.77   34.80
   2   2   4 1266.07   34.90
  -2   2  -4 1343.47   34.80
   2   2   4 1364.56   33.20
   2   2   4 1337.37   34.50
   2   2   4 1280.87   34.40
   2   2   4 1284.27   34.00
  -2   2  -4 1262.27   34.70
  -2   2  -4 1294.37   34.80
  -2   2  -4 1312.07   34.70
   2   2   4 1288.07   34.80
  -3  -2  -4 1249.68   34.60
   3  -2   4 1232.08   34.20
   3  -2   4 1269.07   34.40
  -3  -2  -4 1225.58   33.90
  -3  -2  -4 1288.57   33.50
   3  -2   4 1277.87   33.20
  -3  -2  -4 1274.77   33.90
   3  -2   4 1277.17   34.50
   3   2   4 1296.67   34.00
  -3   2  -4 1263.27   34.60
   3   2   4 1271.07   34.90
   3   2   4 1279.57   34.30
  -3   2  -4 1239.28   33.10
  -3   2  -4 1299.07   34.40
   3   2   4 1316.47   33.20
  -3   2  -4 1279.17   34.30
   4  -2   4   32.60    1.80
  -4  -2  -4   32.60    2.30
  -4  -2  -4   26.90    2.70
   4  -2   4   33.80    3.10
  -4  -2  -4   30.00    1.30
  -4  -2  -4   32.80    2.20
  -4  -2  -4   31.70    2.00
   4  -2   4   32.30    2.60
   4   2   4   35.10    2.10
  -4   2  -4   33.60    2.60
  -4   2  -4   33.20    2.50
   4   2   4   32.50    2.50
  -4   2  -4   31.50    1.80
   4   2   4   27.20    2.90
  -4   2  -4   29.80    2.80
   4   2   4   33.30    2.30
   5  -2   4   51.69    2.50
  -5  -2  -4   53.69    2.90
   5  -2   4   51.49    3.50
   5  -2   4   51.29    2.40
  -5  -2  -4   51.19    2.70
  -5  -2  -4   51.79    2.20
   5  -2   4   62.49    3.40
  -5  -2  -4   54.49    2.90
  -5  -2  -4   58.29    3.70
   5   2   4   46.70    3.20
   5   2   4   57.19    3.10
  -5   2  -4   55.19    3.60
  -5   2  -4   48.10    3.20
   5   2   4   57.49    3.00
  -5   2  -4   49.60    3.20
   5   2   4   51.99    3.70
  -5   2  -4   50.79    2.40
   6  -2   4   81.69    4.70
  -6  -2  -4   75.59    3.20
  -6  -2  -4   76.19    3.60
  -6  -2  -4   85.99    3.70
  -6  -2  -4   74.69    4.80
   6  -2   4   81.99    3.30
   6  -2   4   76.19    4.20
   6  -2   4   74.39    4.80
  -6  -2  -4   82.59    3.70
   6  -2   4   74.29    3.30
  -6   2  -4   76.99    3.30
  -6   2  -4   75.49    4.70
   6   2   4   78.09    5.00
   6   2   4   73.49    4.10
   6   2   4   67.49    4.00
  -6   2  -4   77.99    4.20
  -6   2  -4   74.09    4.10
   6   2   4   74.59    3.50
   7  -2   4    2.00    1.60
   7  -2   4   -0.90    1.40
  -7  -2  -4    0.20    0.90
  -7  -2  -4    2.50    1.00
  -7  -2  -4    4.10    2.10
  -7  -2  -4    1.60    1.30
   7  -2   4    0.70    1.20
   7   2   4    3.00    1.50
  -7   2  -4    2.00    1.00
   7   2   4    1.80    1.40
   7   2   4    3.40    2.10
  -7   2  -4    0.50    1.70
  -7   2  -4    2.90    1.40
   8  -2   4  247.38   10.20
  -8  -2  -4  266.77    8.40
  -8  -2  -4  267.07    8.80
   8  -2   4  260.97   11.10
  -8  -2  -4  265.47   11.00
   8   2   4  259.67   11.00
  -8   2  -4  266.77    9.50
  -8   2  -4  272.97   10.90
   8   2   4  265.57    9.80
   8   2   4  255.07   10.00
  -9  -2  -4   36.30    2.20
  -9  -2  -4   34.70    4.30
   9  -2   4   34.30    4.10
   9  -2   4   39.90    5.00
   9   2   4   37.10    3.90
  -9   2  -4   36.20    4.40
   9   2   4   32.90    4.00
  -9   2  -4   38.90    3.50
   9   2   4   35.60    4.70
 -10  -2  -4  152.48    8.70
  10  -2   4  139.79    8.50
  10  -2   4  143.59    7.80
 -10   2  -4  147.89    6.50
  10   2   4  153.28    7.90
 -10   2  -4  149.79    8.40
  10   2   4  143.49    7.20
 -11  -2  -4    9.00    3.30
 -11  -2  -4    2.50    2.80
  11  -2   4   10.10    3.10
  11  -2   4    7.30    3.20
  11   2   4    4.10    2.40
 -11   2  -4   13.60    3.60
 -12  -3   4   21.80    4.20
  12  -3  -4   30.60    4.40
 -12  -3   4   21.60    3.80
  12  -3  -4   34.80    5.30
 -12   3   4   21.60    3.70
  12   3  -4   32.70    4.70
  12   3  -4   23.90    4.30
  12   3  -4   29.40    4.70
 -11  -3   4    6.80    2.40
 -11  -3   4    6.30    2.30
  11  -3  -4   10.70    2.90
  11  -3  -4    9.80    3.00
 -11  -3   4    6.00    2.70
  11   3  -4    5.10    2.70
 -11   3   4    7.30    1.80
  11   3  -4    6.50    2.80
  11   3  -4    8.10    2.80
 -11   3   4   10.30    2.80
 -11   3   4    9.50    2.90
 -10  -3   4   11.00    2.40
  10  -3  -4   12.30    2.70
  10  -3  -4   15.00    3.50
 -10  -3   4    9.70    2.80
 -10  -3   4   14.00    2.70
  10   3  -4   10.40    2.60
  10   3  -4   14.40    3.20
  10   3  -4   14.00    3.30
 -10   3   4   10.50    2.50
 -10   3   4   10.40    2.80
 -10   3   4   12.60    2.20
   9  -3  -4   -0.20    1.40
   9  -3  -4    0.00    2.00
  -9  -3   4    0.50    1.20
  -9  -3   4    0.30    1.70
  -9   3   4   -1.00    1.40
   9   3  -4    1.00    1.90
  -9   3   4   -0.40    1.20
   9   3  -4    4.10    2.20
  -9   3   4   -3.70    1.70
   9   3  -4   -0.40    1.60
   8  -3  -4    0.90    1.50
  -8  -3   4   -0.40    0.40
  -8  -3   4    0.10    1.60
   8  -3  -4    1.30    1.80
  -8  -3   4    0.40    1.40
  -8   3   4   -2.00    1.50
  -8   3   4   -1.40    1.20
   8   3  -4   -1.50    1.40
  -8   3   4   -0.10    1.40
   8   3  -4    2.20    1.70
   8   3  -4   -1.30    1.70
   7  -3  -4  540.75   16.40
   7  -3  -4  518.35   17.50
  -7  -3   4  534.05   17.30
  -7  -3   4  542.75   16.40
  -7  -3   4  524.85   14.90
  -7  -3   4  541.55   14.90
   7  -3  -4  517.75   16.90
  -7   3   4  540.35   17.60
  -7   3   4  550.04   17.00
  -7   3   4  541.95   15.00
  -7   3   4  539.85   16.60
   7   3  -4  526.05   17.70
   7   3  -4  529.35   17.10
   7   3  -4  543.95   15.50
  -7   3   4  542.65   16.50
  -6  -3   4  880.71   24.00
  -6  -3   4  831.62   24.80
  -6  -3   4  837.92   23.00
  -6  -3   4  847.82   23.00
   6  -3  -4  822.82   24.60
   6  -3  -4  906.71   24.50
   6  -3  -4  859.01   25.00
   6   3  -4  835.62   25.20
  -6   3   4  848.12   22.60
  -6   3   4  820.12   24.40
  -6   3   4  827.22   24.20
   6   3  -4  819.82   24.60
  -6   3   4  864.61   25.20
  -6   3   4  875.01   24.40
  -5  -3   4   36.90    3.40
   5  -3  -4   40.20    3.00
  -5  -3   4   34.00    2.30
   5  -3  -4   33.60    3.20
  -5  -3   4   34.60    2.40
   5  -3  -4   38.60    3.00
  -5  -3   4   35.40    2.30
   5   3  -4   29.30    3.10
  -5   3   4   39.10    1.90
  -5   3   4   35.90    3.20
  -5   3   4   35.90    3.20
   5   3  -4   32.70    2.20
   5   3  -4   33.10    2.40
  -5   3   4   32.90    3.30
  -5   3   4   36.80    2.80
   5   3  -4   34.80    3.30
  -4  -3   4  473.55   14.00
   4  -3  -4  497.05   14.80
  -4  -3   4  483.45   15.00
  -4  -3   4  475.75   14.10
   4  -3  -4  439.76   14.70
   4  -3  -4  483.25   14.90
   4  -3  -4  480.05   14.80
   4  -3  -4  484.95   13.20
  -4  -3   4  488.45   14.10
  -4  -3   4  512.95   15.40
  -4   3   4  495.55   14.90
   4   3  -4  487.65   14.10
   4   3  -4  478.35   14.90
  -4   3   4  454.95   14.60
  -4   3   4  485.75   13.20
   4   3  -4  468.65   14.10
  -4   3   4  491.95   15.00
  -4   3   4  503.05   14.90
   4   3  -4  500.65   15.50
   3  -3  -4  488.75   13.60
  -3  -3   4  496.75   15.20
  -3  -3   4  492.55   14.30
  -3  -3   4  524.65   14.90
   3  -3  -4  510.25   15.20
  -3  -3   4  507.75   14.70
   3  -3  -4  502.95   14.70
  -3  -3   4  481.95   14.60
   3  -3  -4  504.75   15.20
  -3   3   4  477.65   14.90
   3   3  -4  494.35   15.10
   3   3  -4  492.85   14.60
   3   3  -4  491.05   15.40
  -3   3   4  477.65   15.10
   3   3  -4  506.25   14.30
  -3   3   4  517.15   13.40
  -3   3   4  489.05   14.80
  -3   3   4  506.05   13.60
  -3   3   4  503.65   15.20
  -2  -3   4  279.47    9.10
   2  -3  -4  282.67    8.20
   2  -3  -4  268.87    9.20
   2  -3  -4  275.57    9.40
  -2  -3   4  276.97    9.00
  -2  -3   4  271.77    8.50
  -2  -3   4  269.67    9.30
   2  -3  -4  283.47    8.60
  -2  -3   4  273.37    9.00
  -2   3   4  282.27    8.20
  -2   3   4  279.47    8.20
   2   3  -4  263.97    9.00
  -2   3   4  280.87    9.40
  -2   3   4  274.77    9.10
   2   3  -4  285.57    8.60
   2   3  -4  262.87    9.00
  -2   3   4  264.47    8.70
   2   3  -4  274.47    9.50
  -2   3   4  271.17    9.30
   2   3  -4  274.87    9.20
  -1  -3   4  711.93   20.40
   1  -3  -4  764.02   21.80
  -1  -3   4  727.83   20.30
   1  -3  -4  692.33   20.50
   1  -3  -4  704.93   19.50
   1  -3  -4  712.83   19.20
  -1  -3   4  738.23   20.00
  -1  -3   4  694.93   20.40
  -1  -3   4  697.53   19.70
  -1  -3   4  700.73   20.30
  -1   3   4  701.33   20.20
  -1   3   4  722.83   19.70
   1   3  -4  717.73   20.40
   1   3  -4  708.83   20.30
  -1   3   4  772.02   21.60
  -1   3   4  700.33   19.50
   1   3  -4  700.63   20.60
  -1   3   4  711.63   20.50
   1   3  -4  711.23   19.70
   0  -3   4   62.09    3.50
   0  -3  -4   62.99    3.10
   0  -3   4   54.89    3.00
   0  -3   4   62.39    3.10
   0  -3  -4   65.49    3.60
   0  -3   4   52.59    3.30
   0  -3   4   62.39    3.30
   0  -3   4   59.59    3.50
   0  -3  -4   62.59    3.40
   0  -3  -4   59.79    3.50
   0   3   4   66.09    3.20
   0   3  -4   64.59    3.60
   0   3  -4   61.69    3.10
   0   3   4   61.29    3.50
   0   3  -4   60.89    3.40
   0   3  -4   57.89    3.40
   0   3   4   58.59    2.50
   0   3   4   67.29    3.30
   1  -3   4   42.10    2.70
   1  -3   4   42.70    2.90
  -1  -3  -4   43.50    2.70
   1  -3   4   40.40    2.80
  -1  -3  -4   44.20    2.90
  -1  -3  -4   42.20    2.90
   1  -3   4   49.20    2.70
  -1  -3  -4   40.40    2.80
   1   3   4   43.00    1.70
  -1   3  -4   42.40    2.70
   1   3   4   40.70    2.80
  -1   3  -4   43.40    2.80
   1   3   4   37.20    2.70
   1   3   4   40.20    2.60
  -1   3  -4   41.90    3.00
  -2  -3  -4  127.19    5.30
   2  -3   4  130.69    5.60
  -2  -3  -4  125.19    5.30
  -2  -3  -4  130.69    5.60
   2  -3   4  123.09    5.40
   2  -3   4  126.49    4.90
  -2  -3  -4  125.99    5.40
   2  -3   4  123.09    5.30
   2   3   4  128.59    5.10
  -2   3  -4  128.09    4.90
  -2   3  -4  124.09    5.60
   2   3   4  124.79    5.60
   2   3   4  127.39    5.30
  -2   3  -4  119.99    5.50
  -3  -3  -4  349.27   11.40
  -3  -3  -4  332.67   10.70
   3  -3   4  334.67   10.20
  -3  -3  -4  319.97   11.10
  -3  -3  -4  320.17   10.70
   3  -3   4  330.07   11.00
   3  -3   4  326.27   11.20
   3  -3   4  340.17   11.30
   3   3   4  339.47   10.80
  -3   3  -4  343.37   11.40
   3   3   4  323.07   11.40
  -3   3  -4  335.47   10.20
  -3   3  -4  328.17   11.10
  -3   3  -4  345.27   11.90
   4  -3   4   17.20    2.40
  -4  -3  -4   17.50    2.10
  -4  -3  -4   17.90    2.50
  -4  -3  -4   16.70    2.50
   4  -3   4   16.90    2.50
   4  -3   4   17.80    1.90
  -4  -3  -4   19.30    2.20
   4  -3   4   13.70    2.20
  -4   3  -4   16.30    2.40
   4   3   4   19.60    2.40
  -4   3  -4   14.50    2.20
   4   3   4   18.20    2.50
  -4   3  -4   18.20    1.90
   4   3   4   18.60    2.10
  -4   3  -4   16.10    2.30
  -5  -3  -4   56.39    4.00
   5  -3   4   47.90    3.60
   5  -3   4   48.00    2.80
  -5  -3  -4   46.10    3.10
  -5  -3  -4   50.49    3.10
  -5  -3  -4   40.90    3.80
   5  -3   4   49.30    3.80
  -5   3  -4   50.29    3.90
   5   3   4   45.70    3.20
   5   3   4   52.49    4.20
  -5   3  -4   48.10    3.50
  -5   3  -4   47.00    2.80
   5   3   4   48.20    3.10
   5   3   4   50.39    2.90
  -5   3  -4   49.20    3.50
   6  -3   4  370.36   13.10
   6  -3   4  381.46   11.50
  -6  -3  -4  372.06   13.40
   6  -3   4  366.46   12.60
  -6  -3  -4  381.66   13.40
  -6  -3  -4  360.36    9.80
   6  -3   4  364.86   11.40
   6  -3   4  373.36   13.60
  -6  -3  -4  367.46   11.70
  -6   3  -4  387.86   11.40
  -6   3  -4  360.66   13.30
   6   3   4  378.26   11.70
   6   3   4  378.96   11.90
   6   3   4  382.66   12.40
  -6   3  -4  374.06   12.70
  -6   3  -4  357.76   12.60
   6   3   4  352.86   13.50
  -7  -3  -4    6.10    2.10
  -7  -3  -4    3.00    2.00
   7  -3   4    3.50    2.10
   7  -3   4    2.20    1.90
   7  -3   4    2.00    1.50
  -7  -3  -4    2.60    1.20
  -7   3  -4    3.70    1.70
   7   3   4    5.60    2.50
   7   3   4    3.20    1.50
  -7   3  -4    2.80    1.10
  -7   3  -4    1.90    1.60
   7   3   4    4.50    1.60
   8  -3   4    4.20    2.20
  -8  -3  -4    4.70    1.30
  -8  -3  -4    6.90    2.70
  -8  -3  -4    8.30    2.60
   8  -3   4    3.80    2.40
   8   3   4    6.00    2.60
   8   3   4    3.40    1.80
  -8   3  -4    4.10    2.30
   8   3   4    8.70    2.20
  -8   3  -4    4.80    1.80
   9  -3   4   -2.00    1.90
  -9  -3  -4   -0.20    1.00
   9  -3   4    0.60    2.00
  -9  -3  -4   -3.80    1.60
  -9  -3  -4    1.90    2.30
   9   3   4    0.00    1.40
  -9   3  -4    3.00    1.70
   9   3   4   -0.10    1.70
   9   3   4   -1.50    1.90
  -9   3  -4    0.10    2.20
  10  -3   4    4.50    2.40
 -10  -3  -4    4.20    2.80
  10  -3   4   10.60    3.30
 -10  -3  -4    4.90    3.00
  10   3   4    4.50    2.90
  10   3   4    0.20    1.90
 -10   3  -4    2.90    2.70
 -11   3  -4   10.20    2.40
  11  -4  -4    1.60    2.60
  11  -4  -4    1.90    2.10
 -11  -4   4    2.30    2.60
 -11   4   4    2.10    1.80
  11   4  -4    0.20    2.50
 -11   4   4    1.70    2.50
  11   4  -4    1.20    2.00
 -10  -4   4   17.80    3.70
  10  -4  -4   14.60    3.60
 -10  -4   4   21.40    3.40
  10  -4  -4   20.80    3.50
 -10   4   4   24.40    4.30
 -10   4   4   15.90    2.70
  10   4  -4   19.10    3.50
  10   4  -4   19.50    4.00
 -10   4   4   14.40    3.10
   9  -4  -4   16.60    3.20
  -9  -4   4   16.90    2.80
  -9  -4   4   16.60    3.40
   9  -4  -4   19.20    3.70
  -9   4   4   12.80    3.30
  -9   4   4   18.70    3.20
   9   4  -4   18.70    3.70
  -9   4   4   16.30    2.70
   9   4  -4   18.60    3.30
   8  -4  -4   58.29    5.60
   8  -4  -4   48.10    4.80
  -8  -4   4   63.39    4.20
  -8  -4   4   56.59    3.00
  -8  -4   4   51.89    5.10
   8   4  -4   51.19    5.40
  -8   4   4   56.79    4.30
   8   4  -4   63.09    4.70
  -8   4   4   56.99    4.90
  -8   4   4   58.69    5.60
   7  -4  -4   97.79    5.60
   7  -4  -4  101.49    6.00
  -7  -4   4   88.69    5.80
  -7  -4   4   93.79    4.30
   7  -4  -4   99.89    5.70
  -7  -4   4   92.49    5.10
  -7   4   4   89.29    5.40
   7   4  -4   92.09    6.20
  -7   4   4  100.39    6.10
   7   4  -4   90.59    5.60
  -7   4   4  100.29    5.50
  -6  -4   4   48.90    3.20
   6  -4  -4   47.70    4.50
   6  -4  -4   44.80    4.20
  -6  -4   4   49.10    3.90
  -6  -4   4   46.90    3.40
   6  -4  -4   41.60    4.10
  -6   4   4   36.30    4.00
   6   4  -4   42.10    4.10
   6   4  -4   44.90    3.00
  -6   4   4   46.00    4.20
   6   4  -4   43.40    4.50
  -6   4   4   49.30    3.80
  -5  -4   4   74.49    4.30
   5  -4  -4   81.29    4.80
  -5  -4   4   80.79    4.30
   5  -4  -4   71.89    4.60
   5  -4  -4   75.09    4.70
  -5  -4   4   88.89    4.40
   5  -4  -4   81.99    3.40
  -5  -4   4   75.49    4.90
  -5   4   4   77.59    4.80
   5   4  -4   86.79    5.00
   5   4  -4   80.89    5.30
  -5   4   4   77.89    4.80
  -5   4   4   84.79    4.90
  -5   4   4   76.89    3.40
   5   4  -4   83.09    4.30
   4  -4  -4   12.80    2.10
   4  -4  -4   15.40    2.30
   4  -4  -4   16.30    2.60
  -4  -4   4   15.30    2.20
   4  -4  -4   15.10    1.60
  -4  -4   4   12.70    2.00
  -4  -4   4   14.50    2.10
  -4  -4   4   16.40    2.60
  -4   4   4   16.50    2.50
  -4   4   4   13.80    1.30
  -4   4   4   13.10    2.30
   4   4  -4   15.50    2.20
   4   4  -4   14.10    2.60
  -4   4   4   15.30    1.70
  -4   4   4   19.40    2.60
   3  -4  -4  207.08    6.90
   3  -4  -4  204.28    8.30
  -3  -4   4  215.58    7.60
  -3  -4   4  208.08    8.30
   3  -4  -4  215.18    7.70
  -3  -4   4  211.28    7.90
  -3  -4   4  212.68    8.00
   3  -4  -4  213.08    8.40
   3   4  -4  207.68    7.90
  -3   4   4  209.38    8.10
  -3   4   4  222.38    6.80
  -3   4   4  215.98    7.00
   3   4  -4  208.28    8.50
  -3   4   4  209.88    8.40
  -3   4   4  206.38    7.80
  -2  -4   4   42.70    2.80
  -2  -4   4   45.50    3.20
   2  -4  -4   43.20    2.70
   2  -4  -4   43.30    2.60
  -2  -4   4   39.40    3.10
   2  -4  -4   38.90    3.60
  -2  -4   4   43.70    3.40
   2  -4  -4   42.30    3.40
  -2   4   4   40.40    3.00
  -2   4   4   39.00    2.70
  -2   4   4   43.50    2.50
  -2   4   4   38.20    2.50
  -2   4   4   43.40    3.40
   2   4  -4   47.10    3.10
   2   4  -4   49.60    3.30
   2   4  -4   47.20    3.40
  -1  -4   4   75.19    4.00
  -1  -4   4   80.69    4.50
   1  -4  -4   73.89    3.50
   1  -4  -4   68.09    4.20
   1  -4  -4   77.19    4.30
   1  -4  -4   78.79    3.80
  -1  -4   4   77.69    4.40
  -1   4   4   76.99    4.30
  -1   4   4   80.79    3.70
  -1   4   4   73.69    3.70
  -1   4   4   75.09    3.70
   1   4  -4   79.19    4.50
   1   4  -4   76.39    4.10
   1   4  -4   77.59    4.30
  -1   4   4   76.19    4.20
   0  -4   4   67.49    4.30
   0  -4   4   73.09    4.00
   0  -4  -4   82.09    4.40
   0  -4   4   80.99    4.30
   0  -4  -4   75.09    3.30
   0  -4  -4   80.09    3.90
   0  -4  -4   73.69    4.30
   0   4   4   77.69    4.40
   0   4  -4   84.39    4.60
   0   4   4   72.59    4.00
   0   4   4   79.09    3.30
   0   4   4   73.79    4.10
   0   4  -4   74.09    4.20
   0   4  -4   74.49    4.30
   1  -4   4   60.09    4.00
  -1  -4  -4   59.99    3.70
   1  -4   4   50.59    3.50
  -1  -4  -4   55.49    3.80
  -1  -4  -4   56.99    3.50
   1  -4   4   54.89    3.50
   1   4   4   51.59    3.70
   1   4   4   53.09    2.40
  -1   4  -4   62.49    3.90
  -1   4  -4   58.19    3.70
  -1   4  -4   59.59    4.00
   1   4   4   57.59    3.60
   1   4   4   54.89    3.60
  -2  -4  -4  675.73   19.70
   2  -4   4  661.13   19.60
  -2  -4  -4  640.34   19.40
  -2  -4  -4  652.03   19.90
  -2  -4  -4  644.04   19.60
   2  -4   4  628.34   19.60
   2  -4   4  650.33   19.90
  -2   4  -4  642.94   19.80
   2   4   4  661.03   19.60
   2   4   4  649.04   19.20
  -2   4  -4  654.53   19.90
   2   4   4  650.53   19.80
  -3  -4  -4  807.92   23.70
   3  -4   4  760.22   23.10
  -3  -4  -4  795.62   23.10
   3  -4   4  770.52   23.50
  -3  -4  -4  805.32   23.10
   3  -4   4  771.52   23.40
  -3  -4  -4  792.12   23.40
  -3   4  -4  796.32   23.60
  -3   4  -4  776.32   23.60
   3   4   4  788.82   23.80
  -3   4  -4  786.52   22.50
   3   4   4  811.12   23.10
  -4  -4  -4    1.90    1.60
  -4  -4  -4    0.60    1.20
  -4  -4  -4    2.20    1.40
   4  -4   4    1.60    1.60
  -4  -4  -4    4.30    1.60
   4  -4   4    2.60    1.60
   4  -4   4    2.40    1.30
  -4   4  -4    1.20    1.60
  -4   4  -4    1.90    1.20
   4   4   4    1.10    1.30
   4   4   4    2.20    1.80
  -4   4  -4    4.40    1.90
  -5  -4  -4   -1.50    1.20
  -5  -4  -4   -3.10    1.40
   5  -4   4   -0.80    1.50
   5  -4   4    0.40    1.60
  -5  -4  -4   -1.30    1.60
   5  -4   4    3.90    1.60
   5   4   4    0.20    1.40
  -5   4  -4   -0.10    1.00
  -5   4  -4    2.40    1.80
  -5   4  -4   -0.70    1.10
   5   4   4   -0.60    1.20
   5   4   4    1.30    1.40
  -6  -4  -4    7.00    1.80
  -6  -4  -4    4.20    2.30
   6  -4   4    7.70    2.40
   6  -4   4    8.00    2.30
  -6  -4  -4    8.70    2.60
   6   4   4   12.00    2.30
   6   4   4    9.40    2.80
  -6   4  -4    7.30    2.30
  -6   4  -4    8.20    1.90
  -6   4  -4    6.70    2.60
   7  -4   4  213.68    8.10
  -7  -4  -4  203.38    9.70
   7  -4   4  223.28    9.80
  -7  -4  -4  230.48   10.10
   7  -4   4  198.48    9.90
  -7  -4  -4  218.48    8.20
   7   4   4  217.68   10.40
  -7   4  -4  213.68    9.40
  -7   4  -4  203.68    9.90
  -7   4  -4  223.48    8.10
   7   4   4  216.58    8.80
  -8  -4  -4   10.60    3.00
   8  -4   4    9.40    2.80
  -8  -4  -4   15.30    3.50
  -8  -4  -4   11.30    2.00
   8  -4   4    7.60    2.60
   8   4   4   12.10    3.60
  -8   4  -4   10.50    2.80
  -8   4  -4   13.00    2.80
   8   4   4    8.40    2.10
   9  -4   4   34.60    5.20
  -9  -4  -4   26.90    4.20
  -9  -4  -4   33.50    4.90
   9  -4   4   33.40    4.70
   9   4   4   25.70    4.60
  -9   4  -4   30.50    4.40
  -9   4  -4   30.10    3.90
  10  -4   4   27.50    4.60
 -10  -4  -4   27.40    4.80
  10  -4   4   20.90    4.20
  10   4   4   31.80    5.20
 -10   4  -4   22.40    3.50
 -10  -5   4   28.20    4.80
  10  -5  -4   40.40    5.10
  10  -5  -4   26.20    4.70
 -10   5   4   25.80    4.00
 -10   5   4   31.50    4.10
  10   5  -4   20.20    4.10
  -9  -5   4   -0.50    1.90
   9  -5  -4   -0.40    2.10
  -9  -5   4   -1.60    2.30
   9  -5  -4    7.20    2.60
  -9   5   4    2.40    2.20
  -9   5   4    1.50    2.40
  -9   5   4    0.20    2.00
   9   5  -4    1.30    2.60
   8  -5  -4   57.79    5.60
  -8  -5   4   50.79    5.40
  -8  -5   4   49.40    3.50
   8  -5  -4   58.39    5.90
  -8  -5   4   51.09    4.80
  -8   5   4   49.90    5.30
   8   5  -4   37.90    5.20
  -8   5   4   52.69    5.00
  -8   5   4   55.09    5.20
  -7  -5   4    1.40    1.60
  -7  -5   4    1.10    1.40
   7  -5  -4   -0.20    1.60
   7  -5  -4    2.70    2.20
  -7  -5   4    1.00    2.20
   7  -5  -4    0.90    1.90
  -7   5   4    0.00    1.70
  -7   5   4    0.50    1.50
   7   5  -4    1.30    1.70
  -7   5   4    2.20    1.90
   6  -5  -4   18.70    3.20
   6  -5  -4   19.30    3.30
  -6  -5   4   20.30    2.70
  -6  -5   4   22.20    2.90
  -6  -5   4   23.30    3.40
   6  -5  -4   21.00    3.30
  -6   5   4   16.80    3.10
  -6   5   4   21.80    3.40
   6   5  -4   12.40    3.10
  -6   5   4   20.50    3.20
   5  -5  -4   85.29    5.60
   5  -5  -4   81.09    5.30
  -5  -5   4   84.79    5.00
  -5  -5   4   84.89    5.70
  -5  -5   4   88.89    5.10
   5  -5  -4   87.99    4.00
  -5   5   4   76.39    5.30
   5   5  -4   78.29    5.50
   5   5  -4   85.89    4.90
  -5   5   4   82.09    5.30
  -5   5   4   85.09    5.60
   4  -5  -4   -1.70    1.70
   4  -5  -4    2.10    1.20
  -4  -5   4    0.20    1.80
   4  -5  -4    2.60    1.90
  -4  -5   4    1.10    1.40
  -4  -5   4    1.20    1.50
   4  -5  -4   -0.90    1.40
   4   5  -4    2.00    1.40
  -4   5   4    0.20    1.60
  -4   5   4    0.60    1.40
  -4   5   4    0.00    1.70
   4   5  -4   -0.10    1.80
   3  -5  -4   22.10    2.40
  -3  -5   4   21.30    2.90
   3  -5  -4   18.10    2.50
   3  -5  -4   19.00    3.00
  -3  -5   4   25.40    3.40
   3  -5  -4   18.40    3.20
  -3  -5   4   23.60    2.80
  -3   5   4   24.10    3.40
  -3   5   4   23.40    2.30
   3   5  -4   24.70    3.50
   3   5  -4   27.10    3.20
  -3   5   4   23.00    3.10
  -3   5   4   23.10    2.90
   2  -5  -4   -1.60    1.10
  -2  -5   4   -1.00    1.30
  -2  -5   4    0.20    1.20
   2  -5  -4   -2.50    1.30
  -2  -5   4   -0.20    1.10
   2  -5  -4   -1.80    1.00
  -2   5   4   -0.70    0.90
  -2   5   4   -1.60    1.50
   2   5  -4    0.00    1.20
  -2   5   4   -0.60    1.30
   2   5  -4   -1.10    1.00
  -2   5   4   -0.40    1.00
   2   5  -4   -2.00    1.10
  -1  -5   4   28.90    3.10
   1  -5  -4   33.10    3.10
  -1  -5   4   27.10    3.30
   1  -5  -4   33.70    3.70
  -1  -5   4   29.00    3.50
   1  -5  -4   28.30    3.50
   1   5  -4   32.40    3.60
  -1   5   4   29.20    2.90
   1   5  -4   29.60    3.40
  -1   5   4   31.60    2.80
  -1   5   4   26.90    3.20
  -1   5   4   31.90    3.70
   1   5  -4   34.40    3.40
   0  -5  -4  417.66   14.30
   0  -5   4  425.46   13.80
   0  -5  -4  430.06   12.50
   0  -5   4  388.46   14.10
   0  -5  -4  406.06   13.40
   0  -5   4  435.06   14.30
   0  -5  -4  418.76   14.40
   0   5  -4  399.76   14.10
   0   5   4  420.66   13.90
   0   5  -4  402.86   14.20
   0   5   4  422.96   14.40
   0   5  -4  411.66   13.90
   0   5   4  423.96   12.50
   0   5   4  412.96   13.60
   1  -5   4  531.25   17.20
  -1  -5  -4  537.25   17.40
  -1  -5  -4  551.34   17.50
  -1  -5  -4  527.05   16.80
   1  -5   4  550.44   17.60
  -1   5  -4  547.15   17.60
  -1   5  -4  544.25   17.30
   1   5   4  526.75   14.90
   1   5   4  548.45   17.10
   1   5   4  524.85   17.00
   1   5   4  508.25   17.20
  -1   5  -4  512.35   17.00
  -2  -5  -4  720.13   21.90
  -2  -5  -4  745.93   21.80
   2  -5   4  709.33   22.20
   2  -5   4  678.23   21.60
  -2  -5  -4  741.83   22.20
   2   5   4  674.03   21.80
   2   5   4  727.73   21.90
  -2   5  -4  685.33   21.50
  -2   5  -4  708.13   22.20
  -2   5  -4  703.13   21.90
   3  -5   4   13.90    2.90
  -3  -5  -4   13.50    2.70
  -3  -5  -4   12.50    2.60
   3  -5   4   12.00    2.60
  -3  -5  -4    7.20    2.50
  -3   5  -4    6.30    2.00
  -3   5  -4   10.40    2.60
   3   5   4    8.90    2.60
  -3   5  -4   13.10    2.90
  -3   5  -4    8.40    2.40
   3   5   4    8.90    2.30
  -4  -5  -4   62.19    4.60
   4  -5   4   52.79    4.30
   4  -5   4   67.69    5.10
  -4  -5  -4   52.09    4.90
  -4  -5  -4   63.89    4.70
  -4   5  -4   58.59    5.30
  -4   5  -4   60.79    4.10
   4   5   4   56.89    4.30
   4   5   4   56.49    5.40
  -4   5  -4   61.19    5.40
  -4   5  -4   59.89    4.20
  -5  -5  -4   22.00    3.50
   5  -5   4   23.90    3.50
   5  -5   4   21.50    3.50
  -5  -5  -4   19.60    3.00
  -5  -5  -4   14.60    3.20
   5  -5   4   16.00    3.00
   5   5   4   21.60    3.70
  -5   5  -4   24.70    3.60
  -5   5  -4   27.50    3.30
  -5   5  -4   17.40    3.30
   6  -5   4    9.70    2.80
   6  -5   4    6.30    2.60
  -6  -5  -4    1.40    1.60
  -6  -5  -4    4.60    2.60
  -6  -5  -4    4.60    2.40
   6   5   4    8.00    2.90
  -6   5  -4    9.20    2.90
  -6   5  -4    6.10    2.50
   6   5   4    5.10    2.00
  -6   5  -4    7.30    1.90
   7  -5   4   11.70    2.50
  -7  -5  -4   18.30    3.60
   7  -5   4   22.40    3.90
  -7  -5  -4   17.80    3.70
  -7  -5  -4   18.10    2.80
   7  -5   4    6.30    2.40
  -7   5  -4   18.70    2.90
  -7   5  -4   25.60    4.20
   7   5   4   26.80    3.50
   7   5   4    9.60    3.20
  -7   5  -4   22.10    3.60
   8  -5   4   37.10    5.30
  -8  -5  -4   36.70    3.70
  -8  -5  -4   42.00    5.40
  -8  -5  -4   28.50    4.70
  -8   5  -4   34.70    4.50
   8   5   4   27.30    4.40
  -8   5  -4   37.90    5.20
   8   5   4   31.30    4.10
  -9  -5  -4    7.80    3.20
   9  -5   4   11.30    3.60
  -9   5  -4   12.40    3.50
   9   5   4   10.80    3.80
   9  -6  -4    5.20    2.70
   9  -6  -4    8.80    3.20
   9   6  -4    8.60    3.50
  -9   6   4   11.30    3.50
   8  -6  -4    1.70    2.20
  -8  -6   4   -0.30    2.40
   8  -6  -4    4.80    2.50
  -8  -6   4    1.30    1.80
  -8  -6   4    1.60    2.30
  -8   6   4    0.60    2.40
   8   6  -4    1.00    2.60
  -8   6   4    1.00    2.10
  -8   6   4    0.30    2.10
  -7  -6   4   11.00    3.50
  -7  -6   4   12.00    2.60
  -7  -6   4   16.70    3.30
   7  -6  -4   12.70    3.10
   7  -6  -4   15.20    3.40
   7   6  -4   14.90    3.80
  -7   6   4   13.60    3.30
  -7   6   4   13.10    3.20
  -7   6   4   12.00    3.30
   6  -6  -4   40.40    4.80
  -6  -6   4   38.80    5.10
  -6  -6   4   42.50    4.40
  -6  -6   4   35.20    4.00
   6  -6  -4   34.30    4.70
   6  -6  -4   33.90    4.30
  -6   6   4   29.00    4.10
  -6   6   4   38.40    4.80
  -6   6   4   34.40    4.50
   6   6  -4   39.50    5.30
  -5  -6   4   96.69    5.70
  -5  -6   4   90.29    5.80
   5  -6  -4   88.09    6.40
   5  -6  -4   98.39    6.10
  -5  -6   4   85.09    6.40
  -5   6   4   95.59    6.10
  -5   6   4   86.59    6.00
  -5   6   4   96.69    6.60
   5   6  -4   97.29    6.80
  -4  -6   4   95.09    5.60
  -4  -6   4  100.99    6.20
   4  -6  -4   98.49    5.70
  -4  -6   4   94.39    6.50
   4  -6  -4  102.39    5.00
   4  -6  -4  103.69    6.70
   4  -6  -4   97.29    6.50
  -4   6   4  109.09    6.90
  -4   6   4  107.09    6.10
   4   6  -4   94.69    5.90
  -4   6   4  106.09    6.40
   4   6  -4  102.29    6.80
   3  -6  -4    2.40    1.60
   3  -6  -4   -0.10    1.90
   3  -6  -4   -1.80    1.90
  -3  -6   4   -0.10    1.60
   3  -6  -4    2.90    1.60
  -3  -6   4    0.90    2.10
  -3  -6   4    0.80    1.90
   3   6  -4   -0.70    1.60
  -3   6   4    0.80    1.90
  -3   6   4    0.70    1.60
   3   6  -4    3.30    2.40
  -3   6   4    2.10    2.10
  -3   6   4    0.30    1.90
  -2  -6   4    2.20    1.70
  -2  -6   4   -0.20    1.70
   2  -6  -4    2.20    2.10
   2  -6  -4    0.30    1.60
  -2  -6   4    2.90    1.70
   2  -6  -4    3.40    2.30
  -2   6   4    2.00    2.00
  -2   6   4    1.60    1.80
   2   6  -4    0.60    1.50
  -2   6   4   -0.50    1.40
   2   6  -4   -1.60    1.80
  -2   6   4    3.50    1.50
   2   6  -4   -0.10    1.90
  -1  -6   4   41.30    4.10
  -1  -6   4   46.00    4.80
   1  -6  -4   41.20    3.80
   1  -6  -4   49.10    5.10
  -1  -6   4   43.70    4.50
   1  -6  -4   38.80    4.40
  -1   6   4   35.50    3.70
   1   6  -4   35.60    4.30
  -1   6   4   38.00    3.30
  -1   6   4   36.80    4.40
   1   6  -4   44.60    4.30
  -1   6   4   33.20    4.00
   1   6  -4   37.10    4.30
   0  -6  -4  158.38    7.20
   0  -6  -4  145.59    7.60
   0  -6   4  150.58    7.40
   0  -6  -4  159.38    8.20
   0  -6   4  151.98    7.80
   0  -6   4  167.68    8.30
   0   6   4  155.88    6.20
   0   6   4  164.88    8.20
   0   6  -4  153.38    8.00
   0   6  -4  146.19    7.40
   0   6   4  161.78    7.80
   0   6  -4  149.59    7.70
   0   6   4  152.88    7.20
   1  -6   4    3.30    2.30
  -1  -6  -4   -1.60    1.40
  -1  -6  -4    2.10    2.00
   1  -6   4    0.10    1.80
  -1  -6  -4    1.40    1.90
  -1   6  -4   -1.10    1.80
   1   6   4    1.70    1.80
  -1   6  -4    0.40    1.70
  -1   6  -4   -0.50    1.60
   1   6   4   -1.70    1.60
   1   6   4   -1.60    1.80
  -2  -6  -4   -1.50    1.30
  -2  -6  -4    2.50    1.60
  -2  -6  -4    3.40    2.20
   2  -6   4   -1.00    1.80
   2  -6   4   -0.60    2.00
  -2   6  -4    1.70    2.20
  -2   6  -4    2.30    2.00
   2   6   4    1.30    2.00
   2   6   4    0.90    1.90
  -2   6  -4    4.40    2.20
  -3  -6  -4    0.30    2.10
  -3  -6  -4    0.30    2.10
   3  -6   4    4.00    2.40
   3  -6   4    2.80    2.00
  -3  -6  -4    0.40    1.90
  -3   6  -4    0.50    1.60
  -3   6  -4    2.70    2.20
   3   6   4   -1.50    2.00
  -3   6  -4    1.40    2.30
   3   6   4   -1.10    1.80
  -4  -6  -4  121.59    7.40
  -4  -6  -4  122.09    7.20
   4  -6   4  136.29    7.80
  -4  -6  -4  113.89    6.70
   4  -6   4  125.79    6.90
  -4   6  -4  108.49    6.40
  -4   6  -4  112.19    7.20
   4   6   4  107.29    7.20
  -4   6  -4  110.59    7.20
  -5  -6  -4    9.80    3.20
  -5  -6  -4    6.90    2.70
   5  -6   4    8.00    2.50
   5  -6   4    8.90    2.90
   5   6   4   11.90    3.50
  -5   6  -4   18.60    3.70
  -5   6  -4   11.10    2.60
  -5   6  -4   13.40    2.70
  -5   6  -4    8.50    2.90
  -6  -6  -4    2.90    2.20
   6  -6   4    2.30    2.20
  -6  -6  -4    8.20    3.10
   6  -6   4    5.30    2.70
  -6  -6  -4    2.70    2.60
   6   6   4    8.60    2.90
  -6   6  -4    2.40    2.20
  -6   6  -4    4.70    2.80
  -6   6  -4    3.60    2.50
   6   6   4    1.30    2.20
   7  -6   4   19.80    4.00
  -7  -6  -4   22.30    4.30
  -7  -6  -4   21.40    3.40
  -7  -6  -4   11.80    3.70
   7   6   4   22.00    4.60
  -7   6  -4   20.50    3.90
  -7   6  -4   26.50    4.70
   7   6   4   17.40    3.40
  -7  -7   4   25.90    3.80
   7  -7  -4   13.40    3.80
   7  -7  -4   17.80    3.80
  -7   7   4   14.20    3.70
  -7   7   4   18.10    4.50
   7   7  -4   14.70    4.30
   6  -7  -4   40.90    5.50
   6  -7  -4   45.10    5.10
  -6  -7   4   40.90    4.80
  -6  -7   4   38.20    4.70
  -6  -7   4   45.10    5.80
   6   7  -4   42.70    5.70
  -6   7   4   41.70    5.60
  -6   7   4   45.70    5.50
  -6   7   4   37.80    4.90
  -5  -7   4    8.20    3.30
   5  -7  -4    3.80    2.80
  -5  -7   4   10.70    3.20
   5  -7  -4    9.40    2.80
  -5  -7   4   15.40    3.20
  -5   7   4   11.10    3.20
   5   7  -4    9.20    3.40
  -5   7   4   16.50    3.40
   4  -7  -4   67.39    6.70
   4  -7  -4   83.49    6.70
  -4  -7   4   68.69    6.20
   4  -7  -4   66.59    5.20
  -4  -7   4   72.49    6.90
  -4  -7   4   76.19    5.60
  -4   7   4   71.39    5.50
  -4   7   4   75.09    6.50
  -4   7   4   78.99    7.20
   4   7  -4   64.49    6.70
   3  -7  -4   25.70    4.50
  -3  -7   4   32.30    4.50
  -3  -7   4   25.70    3.80
   3  -7  -4   34.60    3.90
  -3  -7   4   26.50    4.40
  -3   7   4   29.90    3.80
   3   7  -4   27.70    4.60
  -3   7   4   23.30    4.10
  -3   7   4   29.50    4.60
   2  -7  -4    7.40    2.90
  -2  -7   4    6.90    2.90
   2  -7  -4    9.00    3.10
   2  -7  -4    5.70    2.10
  -2  -7   4    5.70    2.70
  -2  -7   4    7.50    2.50
   2   7  -4    4.60    2.30
   2   7  -4    8.00    3.00
  -2   7   4    4.60    2.60
   2   7  -4    5.10    2.60
  -2   7   4   11.40    3.30
  -2   7   4    6.10    2.20
  -1  -7   4   -0.10    1.90
  -1  -7   4    4.30    2.60
   1  -7  -4    0.90    2.30
   1  -7  -4    2.20    2.40
   1  -7  -4    2.00    2.20
  -1  -7   4    2.80    2.50
   1   7  -4    1.30    2.30
  -1   7   4   -1.00    1.80
  -1   7   4    1.20    2.30
  -1   7   4    1.20    2.20
   1   7  -4    5.70    2.60
   1   7  -4    3.60    2.30
   0  -7   4    2.10    2.40
   0  -7   4    3.00    2.30
   0  -7  -4    1.90    1.90
   0  -7  -4    1.10    2.50
   0  -7  -4    2.40    2.30
   0  -7   4    0.10    2.40
   0   7   4   -1.30    2.00
   0   7  -4   -2.50    1.90
   0   7   4    0.20    2.40
   0   7  -4    0.90    2.10
   0   7   4    0.60    2.20
   0   7  -4    1.40    1.90
   1  -7   4    2.30    2.30
  -1  -7  -4    4.40    2.30
   1  -7   4    3.40    2.70
  -1  -7  -4    6.70    2.80
  -1  -7  -4    2.90    2.40
   1   7   4    5.40    2.60
  -1   7  -4    3.10    2.80
  -1   7  -4    5.00    2.40
   1   7   4    1.80    2.50
  -1   7  -4    3.60    2.30
   2  -7   4   28.10    4.20
  -2  -7  -4   32.70    4.30
  -2  -7  -4   27.20    4.30
   2  -7   4   35.10    5.00
  -2  -7  -4   29.10    4.30
  -2   7  -4   25.10    4.40
   2   7   4   30.00    4.50
  -2   7  -4   29.50    4.20
   2   7   4   32.80    4.50
  -2   7  -4   32.00    4.40
  -3  -7  -4  166.28    9.00
   3  -7   4  150.68    9.00
  -3  -7  -4  161.68    8.60
  -3  -7  -4  151.28    8.50
   3  -7   4  143.19    8.10
  -3   7  -4  137.89    7.60
  -3   7  -4  147.39    8.60
   3   7   4  139.69    8.60
  -3   7  -4  163.28    9.30
  -4  -7  -4    2.30    2.80
   4  -7   4    5.20    3.10
  -4  -7  -4    7.50    3.00
  -4  -7  -4    3.80    2.60
   4  -7   4    4.10    2.50
  -4   7  -4    6.50    3.00
   4   7   4    6.30    3.10
  -4   7  -4    2.10    2.50
  -4   7  -4    5.30    2.30
   5  -7   4   49.40    5.40
  -5  -7  -4   50.09    6.00
   5  -7   4   50.49    6.20
  -5  -7  -4   51.49    5.50
  -5  -7  -4   48.70    5.90
  -5   7  -4   35.90    5.30
  -5   7  -4   39.40    6.00
   5   7   4   57.89    6.70
   3  -8  -4   -2.20    2.70
  -3  -8   4    2.70    2.50
  -3   8   4    2.10    3.40
   3   8  -4   -1.10    2.60
  -2  -8   4   23.80    4.10
  -2  -8   4   21.60    4.60
   2  -8  -4   30.90    5.10
  -2   8   4   25.80    4.90
   2   8  -4   24.70    4.70
  -1  -8   4   79.39    7.10
   1  -8  -4   68.39    7.40
  -1  -8   4   92.99    7.30
  -1   8   4   92.39    8.20
   1   8  -4   86.59    7.90
   1   8  -4   82.19    6.90
   0  -8   4   31.00    4.90
   0  -8   4   27.60    5.80
   0  -8  -4   28.20    4.20
   0   8   4   24.90    4.10
   0   8   4   32.40    5.20
   0   8  -4   27.10    4.20
   0   8  -4   38.20    5.40
   0   8  -4   31.70    4.90
  -1  -8  -4   32.70    4.60
   1  -8   4   36.30    6.70
   1  -8   4   23.80    4.50
  -1   8  -4   38.90    5.30
   1   8   4   32.80    4.80
  -1   8  -4   30.20    5.20
   1   8   4   40.20    5.50
  -1   8  -4   35.20    5.00
   2  -8   4    1.50    2.70
   2  -8   4    2.10    3.60
  -2  -8  -4   -0.40    2.30
  -2   8  -4    2.60    2.60
  -2   8  -4   -2.80    2.80
  -2   8  -4   -3.40    2.30
   2   8   4   -0.20    2.40
  13   0  -5    1.50    2.50
  13   0  -5   -1.90    2.40
 -13   0   5    3.10    2.40
 -13   0   5    0.10    2.20
 -13   0   5   -0.60    2.30
  12   0  -5    2.00    2.70
  12   0  -5    1.20    1.80
 -12   0   5    1.10    1.80
 -12   0   5    2.00    2.30
 -12   0   5   -0.80    2.00
  11   0  -5    0.60    2.30
  11   0  -5    3.90    2.00
 -11   0   5    0.00    1.40
 -11   0   5   -1.10    1.70
 -11   0   5   -1.00    1.60
 -11   0   5   -2.10    1.30
  10   0  -5    0.70    1.50
 -10   0   5   -1.10    1.60
  10   0  -5   -1.50    1.50
 -10   0   5    0.00    1.30
  10   0  -5   -1.20    1.20
 -10   0   5    2.00    1.60
  -9   0   5   -1.10    0.90
   9   0  -5    0.00    1.80
  -9   0   5   -0.90    1.50
  -9   0   5   -0.30    1.10
   9   0  -5    1.00    1.40
   9   0  -5   -0.50    1.30
  -8   0   5   -0.10    1.00
   8   0  -5   -0.60    1.00
   8   0  -5    1.00    1.00
  -8   0   5   -0.70    0.90
   8   0  -5   -1.20    1.10
  -8   0   5   -2.20    1.00
  -7   0   5    0.70    0.40
  -7   0   5   -0.10    0.30
   7   0  -5   -0.30    0.70
   7   0  -5    1.40    1.10
   7   0  -5   -0.20    0.80
   7   0  -5   -0.10    0.40
  -7   0   5    0.10    0.80
  -7   0   5   -1.20    0.60
   7   0  -5   -0.40    0.30
  -6   0   5    0.80    0.50
  -6   0   5   -0.70    0.60
   6   0  -5   -1.20    0.80
  -6   0   5   -0.90    0.60
   6   0  -5    0.40    0.80
   6   0  -5   -0.80    1.00
   6   0  -5   -0.30    0.40
  -6   0   5   -0.30    0.40
   6   0  -5    0.50    0.50
   5   0  -5    0.60    0.60
  -5   0   5    0.90    0.60
   5   0  -5    1.00    1.10
   5   0  -5    0.70    1.10
   5   0  -5   -0.40    0.70
  -5   0   5    2.30    0.90
   5   0  -5   -0.30    0.20
  -5   0   5    0.10    0.70
  -5   0   5   -1.00    0.50
   4   0  -5    2.00    1.00
  -4   0   5    1.20    0.70
   4   0  -5    2.20    1.10
  -4   0   5    0.90    0.70
   4   0  -5   -1.30    0.70
   4   0  -5    0.70    0.60
  -4   0   5    1.50    0.70
   4   0  -5    0.60    0.60
   4   0  -5    1.00    0.60
   3   0  -5   -0.80    0.50
  -3   0   5    0.20    0.60
  -3   0   5   -1.30    0.40
   3   0  -5   -0.80    0.50
  -3   0   5   -0.90    0.30
   3   0  -5    0.30    0.60
   3   0  -5   -1.40    0.40
  -3   0   5   -0.20    0.50
   3   0  -5    1.80    0.70
   3   0  -5   -0.70    0.60
  -3   0   5   -0.60    0.50
   2   0  -5   -0.40    0.30
  -2   0   5    0.30    0.40
  -2   0   5    0.40    0.30
   2   0  -5   -0.20    0.50
   2   0  -5   -0.50    0.60
  -2   0   5    0.00    0.50
  -2   0   5   -0.10    0.60
   2   0  -5    0.30    0.60
   2   0  -5    2.40    0.80
  -2   0   5   -0.10    0.60
   2   0  -5   -0.50    0.40
  -1   0   5    0.50    0.50
  -1   0   5   -1.00    0.50
   1   0  -5   -1.00    0.60
   1   0  -5   -0.50    0.30
  -1   0   5   -0.40    0.30
   1   0  -5   -0.30    0.60
  -1   0   5   -0.30    0.50
   1   0  -5   -0.70    0.40
  -1   0   5   -1.20    0.60
   0   0  -5   -0.50    0.60
   0   0   5   -0.30    0.60
   0   0   5    0.30    0.40
   0   0   5   -0.60    0.40
   0   0   5   -1.20    0.60
   0   0  -5    0.40    0.50
   0   0  -5   -0.90    0.30
   0   0  -5    0.60    0.50
   0   0  -5    0.90    0.70
   1   0   5   -2.70    0.80
  -1   0  -5   -3.60    0.60
   1   0   5   -2.90    0.50
  -1   0  -5   -3.10    0.70
   1   0   5   -1.60    0.70
  -1   0  -5   -2.30    0.70
  -1   0  -5   -2.40    0.80
   1   0   5   -2.10    0.40
  -1   0  -5   -3.60    0.70
  -2   0  -5   -0.40    0.50
  -2   0  -5   -1.00    0.60
   2   0   5    0.40    0.70
  -2   0  -5   -0.10    0.70
   2   0   5   -0.60    0.70
   2   0   5   -0.30    0.60
   2   0   5    0.60    0.90
  -2   0  -5   -0.80    0.60
   3   0   5    0.10    0.80
   3   0   5    0.10    0.70
   3   0   5   -0.10    0.60
  -3   0  -5    0.10    0.70
   3   0   5    0.70    0.70
  -3   0  -5   -0.60    0.50
  -3   0  -5    0.20    0.50
  -3   0  -5   -0.10    0.80
  -4   0  -5   -0.10    0.80
  -4   0  -5   -0.40    0.70
   4   0   5   -0.80    0.60
   4   0   5   -0.40    0.80
  -4   0  -5   -0.30    0.70
   4   0   5    0.50    0.90
   4   0   5    2.70    1.00
  -4   0  -5    0.40    0.70
   5   0   5   -1.00    0.60
   5   0   5    0.10    1.00
  -5   0  -5    0.00    0.20
  -5   0  -5    0.10    0.80
  -5   0  -5    0.00    0.20
  -5   0  -5    0.20    0.80
   5   0   5    0.30    1.00
  -5   0  -5    0.00    0.70
   5   0   5   -0.10    0.80
  -5   0  -5   -0.50    1.10
  -6   0  -5   -0.10    0.30
  -6   0  -5    0.00    0.90
   6   0   5   -0.60    0.80
  -6   0  -5    0.40    0.80
  -6   0  -5    0.20    0.90
  -6   0  -5    0.60    1.10
   6   0   5   -1.00    1.20
   6   0   5    0.30    1.20
   7   0   5   -0.30    0.90
  -7   0  -5   -0.10    1.20
   7   0   5    0.60    1.50
  -7   0  -5    0.50    0.50
   7   0   5    1.00    1.50
  -7   0  -5   -1.20    0.90
  -7   0  -5    1.30    1.60
   8   0   5    0.00    1.50
  -8   0  -5   -4.00    1.30
  -8   0  -5   -0.20    1.20
   8   0   5   -1.10    1.40
  -8   0  -5   -1.50    0.80
   9   0   5    0.50    1.90
  -9   0  -5   -0.30    1.00
  -9   0  -5   -1.10    2.00
  -9   0  -5    0.40    1.40
   9   0   5    0.60    2.00
  10   0   5    1.70    1.90
 -10   0  -5   -0.80    1.50
 -10   0  -5   -1.10    1.30
 -10   0  -5    1.70    2.30
  10   0   5    0.60    1.90
 -11   0  -5   -2.10    2.30
  11   0   5    0.80    2.00
  11   0   5    0.50    2.20
 -12  -1   5    0.00    1.90
  12  -1  -5   -2.80    1.30
 -12  -1   5   -2.10    1.60
  12  -1  -5    2.80    1.90
 -12  -1   5    0.90    1.90
 -12  -1   5    1.40    2.10
  12   1  -5    0.10    1.80
  12   1  -5   -3.60    1.70
 -12   1   5   -0.20    1.70
 -12   1   5   -0.90    2.00
  12   1  -5    1.70    1.90
 -11  -1   5   12.10    2.50
  11  -1  -5   12.90    2.90
 -11  -1   5   16.40    2.90
  11  -1  -5    9.80    3.10
 -11  -1   5    8.00    2.50
 -11  -1   5   13.90    2.70
  11   1  -5   13.20    2.80
 -11   1   5   10.50    2.50
  11   1  -5   20.10    3.20
  11   1  -5   10.40    2.80
 -11   1   5   16.20    3.40
 -10  -1   5   50.09    3.90
 -10  -1   5   53.79    4.80
  10  -1  -5   42.00    4.90
 -10  -1   5   53.89    4.00
 -10  -1   5   43.20    4.20
  10  -1  -5   43.60    4.50
  10   1  -5   48.70    4.60
  10   1  -5   49.50    5.20
 -10   1   5   57.69    3.60
 -10   1   5   63.59    4.80
 -10   1   5   52.89    4.60
  10   1  -5   48.20    4.00
  -9  -1   5    7.30    2.30
  -9  -1   5    7.40    1.90
   9  -1  -5   11.50    2.50
  -9  -1   5   10.60    2.30
   9  -1  -5   18.10    3.20
  -9  -1   5   12.90    2.30
   9   1  -5    7.20    2.20
   9   1  -5   13.20    2.90
   9   1  -5   11.20    2.30
  -9   1   5    9.90    2.10
  -9   1   5   13.70    1.90
  -9   1   5   10.50    1.10
  -9   1   5   12.00    2.70
   8  -1  -5  160.68    5.40
  -8  -1   5  171.18    6.80
   8  -1  -5  164.78    5.80
  -8  -1   5  158.28    7.00
   8  -1  -5  172.48    7.20
   8  -1  -5  163.58    7.60
  -8  -1   5  166.78    6.60
   8   1  -5  166.18    7.00
  -8   1   5  162.38    5.40
   8   1  -5  157.98    7.00
   8   1  -5  167.18    7.80
  -8   1   5  162.88    6.90
  -8   1   5  164.98    5.50
  -8   1   5  166.98    7.60
  -8   1   5  159.08    5.90
  -7  -1   5   94.39    4.40
   7  -1  -5   97.69    5.20
   7  -1  -5   94.29    4.80
   7  -1  -5   90.09    3.60
  -7  -1   5   88.39    4.10
  -7  -1   5   91.29    4.60
   7   1  -5   94.19    5.20
   7   1  -5   97.99    4.80
  -7   1   5   94.69    3.70
  -7   1   5   86.89    3.60
  -7   1   5   86.79    4.60
   7   1  -5   90.79    4.70
  -7   1   5   89.69    3.60
  -7   1   5   88.19    5.00
   6  -1  -5    4.80    1.00
  -6  -1   5    4.60    0.70
   6  -1  -5    4.00    0.80
  -6  -1   5    5.90    1.10
   6  -1  -5    5.10    1.60
   6  -1  -5    6.70    1.60
  -6  -1   5    5.30    0.70
  -6  -1   5    8.10    1.70
  -6  -1   5    6.50    1.30
  -6   1   5    3.40    0.80
  -6   1   5    5.30    1.00
  -6   1   5    5.80    1.40
  -6   1   5    5.10    1.30
  -6   1   5    6.20    1.10
   6   1  -5    2.40    1.40
   6   1  -5    5.20    1.50
   6   1  -5    4.90    1.30
  -6   1   5    5.60    1.60
   6   1  -5    6.30    0.70
   6   1  -5    4.20    0.60
  -5  -1   5  530.15   14.40
   5  -1  -5  541.05   15.00
  -5  -1   5  524.75   14.70
   5  -1  -5  546.15   15.90
   5  -1  -5  544.45   14.20
  -5  -1   5  510.15   14.40
  -5  -1   5  537.65   15.30
   5  -1  -5  533.85   15.00
   5  -1  -5  525.05   16.00
  -5   1   5  537.85   15.80
  -5   1   5  533.95   14.10
   5   1  -5  527.05   16.10
   5   1  -5  538.05   14.40
   5   1  -5  534.85   15.70
  -5   1   5  513.85   14.90
  -5   1   5  535.85   15.00
   5   1  -5  540.95   15.90
  -5   1   5  544.55   15.30
   5   1  -5  547.85   15.40
   4  -1  -5    3.20    0.60
  -4  -1   5    2.40    0.60
   4  -1  -5    1.70    1.00
   4  -1  -5    3.60    0.90
   4  -1  -5    3.60    0.90
  -4  -1   5    3.00    0.90
  -4  -1   5    1.90    0.70
   4  -1  -5    3.20    1.10
  -4  -1   5    2.40    0.70
   4  -1  -5    2.30    1.00
   4   1  -5    2.40    1.20
   4   1  -5    2.80    0.70
  -4   1   5    2.50    1.10
  -4   1   5    2.70    0.80
   4   1  -5    2.70    1.00
  -4   1   5    3.30    0.90
   4   1  -5    3.80    0.90
  -4   1   5    4.30    1.00
  -4   1   5    3.10    0.30
   4   1  -5    4.80    1.10
   4   1  -5    2.90    0.70
   3  -1  -5  231.48    7.50
  -3  -1   5  227.48    7.00
   3  -1  -5  227.98    7.40
  -3  -1   5  225.08    6.10
  -3  -1   5  219.68    7.10
   3  -1  -5  218.48    7.20
   3  -1  -5  240.88    7.30
  -3  -1   5  223.38    7.00
   3  -1  -5  245.08    7.40
   3  -1  -5  215.88    6.90
   3   1  -5  239.58    7.60
   3   1  -5  238.48    7.20
   3   1  -5  233.28    7.00
   3   1  -5  225.48    7.00
  -3   1   5  217.68    7.20
  -3   1   5  228.38    7.40
  -3   1   5  237.28    7.30
  -3   1   5  229.78    7.00
   3   1  -5  217.98    7.40
   2  -1  -5   75.29    3.30
  -2  -1   5   84.99    3.50
  -2  -1   5   74.49    3.20
   2  -1  -5   83.69    3.40
   2  -1  -5   79.69    3.40
   2  -1  -5   76.89    3.00
   2  -1  -5   79.69    3.10
  -2  -1   5   73.79    3.20
   2  -1  -5   81.69    2.40
  -2  -1   5   83.49    3.30
   2  -1  -5   76.99    3.30
  -2   1   5   80.09    3.40
  -2   1   5   80.49    3.30
   2   1  -5   83.29    3.30
   2   1  -5   78.99    3.30
  -2   1   5   90.29    3.20
  -2   1   5   77.59    3.40
   2   1  -5   83.99    3.40
  -1  -1   5 2581.04   71.79
  -1  -1   5 2801.32   71.99
   1  -1  -5 2693.13   71.59
   1  -1  -5 2804.92   72.09
   1  -1  -5 2879.61   71.79
  -1  -1   5 2848.22   72.09
   1  -1  -5 2870.71   71.79
  -1  -1   5 2774.42   72.09
   1  -1  -5 2825.22   72.79
   1  -1  -5 2694.33   72.09
   1   1  -5 2954.30   72.09
  -1   1   5 2824.72   72.09
  -1   1   5 2810.22   71.69
  -1   1   5 2789.02   71.59
   1   1  -5 2927.71   71.89
   1   1  -5 2689.33   72.09
  -1   1   5 2814.12   72.09
   1   1  -5 2847.92   71.89
   1   1  -5 2791.92   71.99
   0  -1   5  494.65   14.00
   0  -1   5  488.65   14.00
   0  -1  -5  477.55   13.70
   0  -1  -5  506.45   14.10
   0  -1   5  501.65   14.10
   0  -1   5  504.05   14.10
   0  -1  -5  508.05   14.20
   0  -1   5  501.15   13.90
   0  -1  -5  494.15   13.50
   0   1   5  476.85   13.40
   0   1  -5  494.05   14.10
   0   1  -5  496.35   14.00
   0   1   5  491.65   13.80
   0   1   5  482.45   14.00
   0   1  -5  490.65   14.10
   0   1  -5  507.15   14.10
   0   1   5  486.45   14.10
  -1  -1  -5   12.10    1.40
  -1  -1  -5    8.90    1.30
   1  -1   5   12.60    1.50
  -1  -1  -5    8.40    0.90
   1  -1   5    9.70    1.30
   1  -1   5    9.00    1.20
  -1  -1  -5    9.60    1.30
   1  -1   5    8.00    1.30
   1  -1   5    8.60    1.30
   1   1   5    9.30    0.90
  -1   1  -5    7.90    1.30
   1   1   5    8.40    1.20
   1   1   5   10.70    1.50
  -1   1  -5    7.80    1.30
  -1   1  -5    8.30    1.30
   1   1   5   10.20    0.90
  -1   1  -5    5.90    1.20
   1   1   5    8.50    1.30
   1   1   5    6.60    1.20
  -2  -1  -5    6.50    1.20
  -2  -1  -5    7.30    0.80
   2  -1   5    6.60    1.20
  -2  -1  -5    7.80    0.80
   2  -1   5    5.90    1.10
   2  -1   5    9.30    1.40
  -2  -1  -5    6.60    1.30
   2  -1   5    7.60    0.60
   2  -1   5    8.00    1.30
  -2  -1  -5    6.80    1.20
   2   1   5    8.80    1.30
   2   1   5    7.00    0.90
  -2   1  -5    7.70    1.30
  -2   1  -5    8.30    1.30
  -2   1  -5    5.80    1.20
   2   1   5    4.80    1.30
   2   1   5    8.40    0.80
  -2   1  -5    9.00    1.40
   2   1   5    5.90    1.10
   2   1   5    9.90    1.40
   2   1   5    7.40    0.80
   3  -1   5    3.50    0.40
  -3  -1  -5    3.90    1.00
  -3  -1  -5    4.20    0.60
  -3  -1  -5    3.00    1.20
   3  -1   5    4.00    1.10
   3  -1   5    5.00    1.20
   3  -1   5    3.60    1.20
  -3  -1  -5    4.00    0.70
  -3  -1  -5    4.00    1.10
   3   1   5    3.80    1.00
   3   1   5    4.00    0.70
   3   1   5    4.20    0.90
  -3   1  -5    3.80    1.10
   3   1   5    3.00    1.00
  -3   1  -5    2.50    1.00
   3   1   5    5.20    1.20
  -3   1  -5    4.50    1.10
  -4  -1  -5   93.49    4.10
  -4  -1  -5   96.79    3.20
  -4  -1  -5   91.99    4.10
  -4  -1  -5   97.49    3.60
   4  -1   5   90.09    4.50
  -4  -1  -5   90.39    4.60
   4  -1   5   96.79    4.30
   4   1   5   94.39    4.10
   4   1   5  101.09    4.10
  -4   1  -5  101.89    4.50
  -4   1  -5   95.69    4.30
   4   1   5   97.49    4.50
  -4   1  -5   99.59    4.30
   4   1   5   97.69    3.70
  -5  -1  -5    6.90    1.20
  -5  -1  -5    6.50    1.30
   5  -1   5    4.70    1.20
   5  -1   5    6.00    1.70
  -5  -1  -5    7.10    1.60
  -5  -1  -5    5.50    1.20
  -5  -1  -5    4.20    0.80
   5  -1   5    3.90    1.50
   5   1   5    6.90    1.60
  -5   1  -5    5.60    0.50
   5   1   5    5.10    1.30
   5   1   5    7.90    1.40
  -5   1  -5    5.50    1.40
   5   1   5    6.10    1.20
  -5   1  -5    6.70    1.40
   6  -1   5   47.30    3.60
  -6  -1  -5   56.39    4.10
  -6  -1  -5   60.29    2.40
  -6  -1  -5   55.89    2.40
   6  -1   5   51.49    3.70
  -6  -1  -5   57.29    3.10
  -6  -1  -5   55.49    3.10
   6  -1   5   54.39    3.30
  -6  -1  -5   52.69    3.00
   6   1   5   52.39    3.50
  -6   1  -5   57.99    3.40
  -6   1  -5   55.29    3.40
  -6   1  -5   48.90    3.60
   6   1   5   58.59    3.70
   6   1   5   60.79    3.10
  -6   1  -5   55.09    2.00
  -7  -1  -5  584.74   17.20
  -7  -1  -5  597.54   16.40
   7  -1   5  612.24   18.80
  -7  -1  -5  608.64   17.60
   7  -1   5  596.34   19.20
   7  -1   5  603.34   17.70
  -7  -1  -5  604.64   19.40
   7   1   5  602.04   18.50
  -7   1  -5  607.74   15.90
  -7   1  -5  605.24   17.80
   7   1   5  604.44   18.60
  -7   1  -5  581.54   18.60
  -8  -1  -5    0.90    1.50
   8  -1   5    1.90    1.90
  -8  -1  -5    1.40    1.40
   8  -1   5    1.70    1.90
  -8  -1  -5    0.80    1.00
  -8   1  -5   -0.70    1.10
   8   1   5    4.00    2.10
  -8   1  -5    2.50    1.70
   8   1   5    5.50    1.90
  -9  -1  -5    2.70    1.90
  -9  -1  -5    0.30    1.30
  -9  -1  -5    0.20    1.00
   9  -1   5    0.50    1.70
   9  -1   5    1.50    2.10
   9   1   5   -1.50    1.40
  -9   1  -5   -0.70    1.60
   9   1   5   -0.20    1.60
  -9   1  -5   -1.30    1.20
  10  -1   5   26.10    3.90
 -10  -1  -5   26.00    4.30
  10  -1   5   22.60    4.00
  10   1   5   18.70    3.30
 -10   1  -5   24.90    3.80
  10   1   5   17.60    3.50
 -10   1  -5   21.60    3.80
 -10   1  -5   19.80    2.40
  11  -1   5   27.00    4.10
 -11  -1  -5   15.50    4.10
  11  -1   5   20.00    4.10
  11   1   5   18.20    3.50
  11   1   5   21.00    3.80
 -11   1  -5   18.20    4.70
 -11   1  -5   15.00    3.40
 -12  -2   5    8.00    2.70
  12  -2  -5   15.60    3.40
 -12  -2   5   10.70    2.90
 -12  -2   5   10.20    2.90
  12  -2  -5    7.70    3.30
  12   2  -5   13.70    3.10
 -12   2   5   11.20    3.00
  12   2  -5   10.70    3.30
 -12   2   5    3.70    2.20
  12   2  -5    9.30    3.20
 -11  -2   5   16.80    3.10
 -11  -2   5   17.40    3.10
 -11  -2   5   18.00    3.30
  11  -2  -5   15.20    3.70
 -11  -2   5   18.10    3.20
  11  -2  -5   13.30    2.90
  11   2  -5   14.80    3.40
  11   2  -5   15.80    3.30
 -11   2   5   14.80    2.90
  11   2  -5   15.20    3.10
 -11   2   5   17.00    3.70
 -10  -2   5   16.60    2.90
 -10  -2   5   21.50    3.30
 -10  -2   5   21.70    2.90
 -10  -2   5   16.30    2.90
  10  -2  -5   19.70    3.80
  10  -2  -5   22.10    3.30
  10   2  -5   22.70    3.60
  10   2  -5   18.10    3.50
 -10   2   5   18.30    2.00
 -10   2   5   19.40    3.00
 -10   2   5   19.70    3.60
  10   2  -5   15.20    2.90
  -9  -2   5   72.39    4.80
   9  -2  -5   63.59    5.10
   9  -2  -5   63.69    4.70
  -9  -2   5   62.29    4.10
  -9  -2   5   68.59    4.60
   9   2  -5   63.69    4.60
  -9   2   5   60.49    4.70
   9   2  -5   78.39    5.00
  -9   2   5   73.39    4.70
   9   2  -5   69.29    5.00
  -9   2   5   63.29    3.30
  -9   2   5   69.19    3.60
  -8  -2   5  348.47   11.80
   8  -2  -5  341.67   10.60
   8  -2  -5  316.07   12.20
   8  -2  -5  321.07   11.60
  -8  -2   5  320.07   10.80
  -8   2   5  311.97   12.10
   8   2  -5  307.97   12.00
   8   2  -5  319.57   11.90
  -8   2   5  329.67   10.40
   8   2  -5  322.47   11.60
  -8   2   5  319.47   11.50
  -7  -2   5   24.30    2.80
   7  -2  -5   19.30    2.90
   7  -2  -5   22.60    2.30
  -7  -2   5   22.00    1.20
  -7  -2   5   22.70    1.30
   7  -2  -5   25.40    2.90
  -7  -2   5   23.40    2.30
   7   2  -5   24.60    1.20
  -7   2   5   23.10    2.30
  -7   2   5   21.70    1.60
  -7   2   5   23.10    2.90
   7   2  -5   18.20    2.60
   7   2  -5   13.60    2.50
  -7   2   5   22.70    2.70
   7   2  -5   25.50    1.20
  -7   2   5   22.50    2.40
   7   2  -5   24.40    3.00
   6  -2  -5   14.70    2.30
  -6  -2   5    9.70    1.80
  -6  -2   5   10.00    1.10
   6  -2  -5   10.00    1.90
  -6  -2   5   11.40    1.20
  -6  -2   5   12.50    1.60
   6  -2  -5   12.00    1.70
   6   2  -5   12.60    1.20
   6   2  -5   12.70    2.10
   6   2  -5   14.30    2.20
  -6   2   5   13.30    1.80
   6   2  -5    8.70    1.90
  -6   2   5   11.70    1.60
  -6   2   5    9.50    1.80
   6   2  -5   14.80    1.30
  -6   2   5   12.40    2.20
  -6   2   5   12.30    1.00
  -5  -2   5   58.09    2.70
  -5  -2   5   62.39    3.50
   5  -2  -5   57.19    3.40
   5  -2  -5   52.29    3.10
  -5  -2   5   55.99    2.60
  -5  -2   5   59.29    2.70
   5  -2  -5   58.39    3.50
  -5   2   5   54.49    3.40
  -5   2   5   54.79    3.10
   5   2  -5   60.19    3.60
   5   2  -5   53.69    2.60
  -5   2   5   53.09    3.20
  -5   2   5   56.19    3.20
  -5   2   5   56.39    1.70
   5   2  -5   53.49    3.40
  -5   2   5   56.59    1.70
   5   2  -5   56.59    2.60
  -4  -2   5 1047.50   27.90
   4  -2  -5  970.10   27.00
  -4  -2   5  967.50   25.80
   4  -2  -5  989.50   26.90
  -4  -2   5  960.10   26.20
   4  -2  -5  983.20   27.20
  -4  -2   5  957.60   26.20
  -4  -2   5 1004.10   27.00
  -4   2   5  969.50   26.80
   4   2  -5 1040.20   28.00
  -4   2   5  964.90   27.10
  -4   2   5  956.20   26.80
   4   2  -5  985.10   27.20
   4   2  -5  965.40   27.30
  -4   2   5  983.30   26.80
  -4   2   5  942.21   26.90
   4   2  -5  962.70   26.20
   4   2  -5  979.50   25.80
   4   2  -5 1003.90   26.30
   3  -2  -5  188.28    6.70
  -3  -2   5  179.68    6.20
  -3  -2   5  188.18    5.60
   3  -2  -5  191.38    6.70
   3  -2  -5  194.98    7.30
   3  -2  -5  181.08    6.30
  -3  -2   5  190.68    6.70
  -3  -2   5  180.38    6.60
   3  -2  -5  192.18    7.40
   3  -2  -5  189.38    6.50
  -3  -2   5  185.58    6.30
   3   2  -5  185.78    6.90
   3   2  -5  196.98    6.80
   3   2  -5  182.18    6.20
  -3   2   5  184.78    6.60
  -3   2   5  184.78    6.60
   3   2  -5  180.78    6.20
   3   2  -5  188.28    5.60
  -3   2   5  183.98    6.50
  -3   2   5  169.18    6.50
  -3   2   5  185.58    6.60
   3   2  -5  189.08    6.70
  -2  -2   5  452.55   13.30
   2  -2  -5  462.25   12.80
  -2  -2   5  446.26   13.50
   2  -2  -5  455.35   13.30
   2  -2  -5  465.65   12.20
   2  -2  -5  457.55   13.40
  -2  -2   5  460.75   12.40
   2  -2  -5  463.95   13.50
   2  -2  -5  460.15   13.60
  -2  -2   5  456.95   13.30
   2  -2  -5  459.35   13.60
  -2  -2   5  456.15   13.60
   2   2  -5  482.75   13.60
  -2   2   5  469.25   13.40
  -2   2   5  443.76   13.50
   2   2  -5  460.85   13.80
  -2   2   5  456.15   13.20
  -2   2   5  451.35   13.60
  -2   2   5  455.95   13.40
   2   2  -5  448.86   13.30
   2   2  -5  458.55   13.50
   2   2  -5  456.25   12.40
   2   2  -5  452.65   13.30
  -1  -2   5   60.99    2.80
  -1  -2   5   57.99    3.10
   1  -2  -5   57.29    3.10
  -1  -2   5   51.89    3.00
   1  -2  -5   60.69    3.20
   1  -2  -5   60.09    2.50
   1  -2  -5   59.79    2.20
  -1  -2   5   54.69    2.90
   1  -2  -5   57.49    2.90
  -1  -2   5   58.69    3.00
  -1   2   5   62.59    2.70
  -1   2   5   62.79    3.00
  -1   2   5   56.89    2.50
   1   2  -5   57.49    3.10
   1   2  -5   61.19    3.00
  -1   2   5   61.09    3.20
   1   2  -5   59.69    3.00
   1   2  -5   59.99    3.10
   1   2  -5   58.99    2.40
  -1   2   5   60.39    3.00
  -1   2   5   58.29    3.20
   1   2  -5   60.09    3.10
   0  -2   5 1049.09   28.90
   0  -2  -5 1076.89   29.00
   0  -2   5 1079.59   28.70
   0  -2   5 1046.40   28.90
   0  -2   5 1097.99   29.00
   0  -2  -5 1065.69   28.50
   0  -2   5 1108.59   29.00
   0  -2  -5 1075.99   29.00
   0  -2  -5 1008.70   28.70
   0   2  -5 1043.00   28.90
   0   2  -5 1094.59   28.20
   0   2   5 1069.19   28.50
   0   2   5 1040.10   28.90
   0   2  -5 1043.20   28.90
   0   2  -5 1050.19   29.00
   0   2   5 1096.39   28.70
   0   2  -5 1084.69   28.50
   0   2  -5 1084.69   29.00
   0   2   5 1084.69   28.90
   0   2   5 1050.39   29.00
   0   2   5 1063.29   27.70
   1  -2   5  596.74   17.50
  -1  -2  -5  622.64   17.40
   1  -2   5  607.84   17.30
   1  -2   5  586.84   17.40
  -1  -2  -5  601.04   17.40
  -1  -2  -5  609.14   16.80
   1  -2   5  616.34   16.60
   1  -2   5  606.94   17.50
   1  -2   5  607.14   17.50
  -1  -2  -5  592.04   17.30
   1   2   5  606.24   15.70
  -1   2  -5  594.84   17.40
   1   2   5  623.54   17.50
  -1   2  -5  608.84   17.50
   1   2   5  611.54   15.70
   1   2   5  609.44   17.40
   1   2   5  621.34   17.40
   1   2   5  594.94   16.70
  -1   2  -5  605.74   17.50
  -1   2  -5  602.34   17.50
   1   2   5  613.34   17.40
   2  -2   5 1429.46   38.40
   2  -2   5 1443.56   38.40
  -2  -2  -5 1431.76   38.50
  -2  -2  -5 1431.36   37.40
   2  -2   5 1463.45   37.20
  -2  -2  -5 1442.96   38.20
  -2  -2  -5 1401.86   38.10
   2  -2   5 1410.26   38.40
   2   2   5 1397.66   37.40
  -2   2  -5 1435.86   38.40
   2   2   5 1372.16   38.50
  -2   2  -5 1415.06   38.40
   2   2   5 1491.55   36.50
   2   2   5 1430.06   38.20
  -2   2  -5 1434.76   38.50
   3  -2   5  156.58    6.20
   3  -2   5  148.89    6.10
  -3  -2  -5  146.99    5.80
  -3  -2  -5  158.78    6.00
  -3  -2  -5  157.58    5.30
  -3  -2  -5  154.48    6.30
   3  -2   5  159.48    5.00
   3  -2   5  152.68    6.20
   3   2   5  154.58    5.90
   3   2   5  159.98    5.00
  -3   2  -5  162.58    6.30
  -3   2  -5  142.59    6.00
   3   2   5  158.38    6.10
   3   2   5  152.88    6.40
  -3   2  -5  154.88    6.20
   4  -2   5  118.09    5.50
   4  -2   5  111.89    3.90
   4  -2   5  116.39    5.20
  -4  -2  -5  116.99    4.90
  -4  -2  -5  118.99    4.90
  -4  -2  -5  116.89    3.50
  -4  -2  -5  122.39    5.60
  -4  -2  -5  115.09    4.30
   4   2   5  118.49    4.40
   4   2   5  105.49    5.50
  -4   2  -5  123.49    5.60
   4   2   5  117.99    5.20
   4   2   5  117.49    4.90
  -4   2  -5  121.29    4.00
  -4   2  -5  112.39    5.20
  -4   2  -5  119.99    5.20
  -5  -2  -5   47.90    2.50
   5  -2   5   46.90    3.50
  -5  -2  -5   49.60    3.00
  -5  -2  -5   46.10    2.10
   5  -2   5   52.29    2.30
  -5  -2  -5   47.00    3.70
   5  -2   5   45.90    3.20
  -5  -2  -5   51.59    3.00
  -5   2  -5   43.30    3.30
  -5   2  -5   52.69    3.40
  -5   2  -5   44.80    3.20
   5   2   5   49.80    3.30
   5   2   5   52.59    3.00
   5   2   5   49.70    3.90
  -5   2  -5   46.40    2.20
   5   2   5   51.49    2.90
  -6  -2  -5  292.77   11.00
  -6  -2  -5  297.77    9.50
  -6  -2  -5  282.77    9.40
   6  -2   5  293.57   10.10
  -6  -2  -5  288.17    8.60
   6  -2   5  285.17    8.40
   6  -2   5  272.57   10.50
   6  -2   5  285.67   11.00
  -6  -2  -5  290.37    9.00
   6   2   5  292.47   10.30
   6   2   5  285.27   11.20
  -6   2  -5  283.07   10.00
   6   2   5  292.97    9.40
   6   2   5  283.47    9.70
  -6   2  -5  288.57   10.10
  -6   2  -5  287.67   10.70
  -6   2  -5  289.77    8.50
   7  -2   5   21.20    3.40
   7  -2   5   22.20    3.20
  -7  -2  -5   26.10    2.50
   7  -2   5   30.10    3.00
  -7  -2  -5   27.50    3.50
  -7  -2  -5   24.00    2.10
  -7   2  -5   27.80    3.50
  -7   2  -5   23.30    1.70
   7   2   5   22.70    3.50
   7   2   5   22.90    2.80
   7   2   5   24.00    3.00
  -7   2  -5   22.70    2.70
  -8  -2  -5   21.50    3.60
   8  -2   5   16.80    3.00
  -8  -2  -5   20.10    2.20
   8  -2   5   23.60    3.80
   8   2   5   16.20    2.70
  -8   2  -5   20.70    3.40
   8   2   5   19.00    2.90
   9  -2   5   73.69    5.90
  -9  -2  -5   75.39    6.00
  -9  -2  -5   70.99    3.50
   9  -2   5   62.49    5.00
  -9   2  -5   60.39    4.20
   9   2   5   69.69    4.70
   9   2   5   71.79    5.10
  -9   2  -5   64.19    5.80
  10  -2   5  130.49    7.50
  10  -2   5  122.19    8.00
 -10  -2  -5  136.79    8.30
  10   2   5  125.69    6.80
 -10   2  -5  119.69    7.60
  10   2   5  148.39    7.70
 -10   2  -5  134.39    6.30
  11  -2   5    0.90    2.10
  11  -2   5    5.20    3.00
  11   2   5   -0.50    2.30
 -11   2  -5    0.10    2.40
 -12  -3   5   25.40    4.00
  12  -3  -5   32.80    4.60
  12  -3  -5   24.10    4.70
 -12  -3   5   26.30    4.40
 -12   3   5   32.30    4.40
  12   3  -5   27.20    4.20
  12   3  -5   32.60    4.90
  12   3  -5   27.10    4.80
 -11  -3   5   -0.40    1.70
 -11  -3   5   -1.80    1.80
  11  -3  -5   -3.40    1.70
 -11  -3   5    4.70    2.10
  11  -3  -5    3.20    2.70
 -11  -3   5    1.80    2.10
 -11   3   5   -0.10    1.30
 -11   3   5   -1.20    2.20
 -11   3   5    1.70    2.10
  11   3  -5   -2.30    1.80
  11   3  -5   -0.50    2.10
  11   3  -5    5.60    2.60
 -10  -3   5   -0.70    1.70
  10  -3  -5    2.90    1.90
  10  -3  -5    0.50    1.80
 -10   3   5    0.30    1.70
  10   3  -5    0.30    1.80
  10   3  -5    2.10    2.20
  10   3  -5    0.90    1.80
 -10   3   5    0.50    1.30
 -10   3   5    1.30    2.20
  -9  -3   5   10.90    2.70
   9  -3  -5   11.00    2.60
  -9  -3   5   15.50    2.60
   9  -3  -5   17.90    3.40
  -9   3   5   14.30    2.80
  -9   3   5   18.30    2.60
   9   3  -5   15.90    3.20
   9   3  -5    8.90    2.50
   9   3  -5   10.90    2.70
  -9   3   5   11.70    3.00
   8  -3  -5  151.58    7.30
  -8  -3   5  155.18    4.90
   8  -3  -5  156.58    7.90
  -8  -3   5  163.88    7.60
  -8  -3   5  152.98    6.60
   8   3  -5  156.48    7.40
   8   3  -5  155.58    7.80
  -8   3   5  161.08    6.80
  -8   3   5  157.08    7.30
  -8   3   5  170.38    8.10
   7  -3  -5  246.48   10.10
  -7  -3   5  261.57    9.10
  -7  -3   5  272.17   10.20
   7  -3  -5  267.37    9.50
  -7  -3   5  265.37    8.10
   7  -3  -5  270.37   10.10
  -7  -3   5  264.37    8.10
  -7   3   5  257.37   10.30
   7   3  -5  251.17   10.40
  -7   3   5  257.77    9.40
  -7   3   5  281.07   10.30
  -7   3   5  242.38    9.60
   7   3  -5  253.27   10.00
  -6  -3   5   79.19    4.00
  -6  -3   5   85.99    3.80
  -6  -3   5   91.89    3.90
   6  -3  -5   86.29    5.00
  -6  -3   5   94.29    5.10
   6  -3  -5   91.99    4.80
   6  -3  -5   92.79    5.00
   6   3  -5   93.19    5.10
  -6   3   5   82.39    4.70
  -6   3   5   85.69    4.70
  -6   3   5   84.39    4.80
   6   3  -5   82.89    5.00
  -6   3   5  101.09    5.50
  -6   3   5   86.39    3.00
   6   3  -5   88.09    3.80
  -5  -3   5    0.90    0.90
   5  -3  -5    1.90    1.30
  -5  -3   5    2.30    1.40
   5  -3  -5    3.90    1.30
   5  -3  -5    2.10    1.30
  -5  -3   5    2.00    1.00
  -5  -3   5    1.30    1.00
  -5   3   5    1.40    1.20
  -5   3   5   -0.60    1.20
   5   3  -5    2.50    1.00
  -5   3   5    2.30    0.50
   5   3  -5    0.40    1.40
   5   3  -5    1.70    1.40
  -5   3   5    2.20    1.30
   5   3  -5    2.00    1.00
  -5   3   5    3.30    1.50
  -4  -3   5  193.58    7.60
   4  -3  -5  199.78    7.60
   4  -3  -5  193.38    7.10
   4  -3  -5  197.58    5.60
  -4  -3   5  187.78    6.80
  -4  -3   5  192.18    6.50
   4  -3  -5  183.08    7.30
  -4  -3   5  201.28    7.00
   4  -3  -5  196.58    7.50
  -4   3   5  194.08    7.40
  -4   3   5  192.98    7.50
  -4   3   5  186.18    7.30
  -4   3   5  192.58    7.40
   4   3  -5  188.88    7.80
   4   3  -5  193.88    7.60
  -4   3   5  200.38    5.60
   4   3  -5  194.48    6.50
   4   3  -5  202.58    6.90
  -3  -3   5  171.48    6.70
   3  -3  -5  165.68    6.70
  -3  -3   5  170.78    5.70
  -3  -3   5  165.88    6.30
  -3  -3   5  178.18    6.40
   3  -3  -5  163.48    6.50
   3  -3  -5  164.18    5.10
   3  -3  -5  171.08    6.10
   3   3  -5  170.68    5.80
  -3   3   5  157.58    6.60
   3   3  -5  167.68    6.30
   3   3  -5  168.98    7.00
  -3   3   5  179.88    6.90
   3   3  -5  178.28    6.80
  -3   3   5  152.88    6.30
  -3   3   5  171.68    6.40
  -3   3   5  170.38    5.10
   2  -3  -5   70.59    3.00
  -2  -3   5   60.49    3.50
  -2  -3   5   71.99    3.10
   2  -3  -5   68.09    3.70
   2  -3  -5   64.19    2.70
  -2  -3   5   66.09    3.70
   2  -3  -5   63.19    3.70
  -2  -3   5   69.49    3.60
  -2   3   5   61.19    3.40
   2   3  -5   73.29    3.10
   2   3  -5   64.69    3.90
  -2   3   5   68.29    3.30
  -2   3   5   65.79    2.90
   2   3  -5   62.69    3.50
  -2   3   5   71.99    3.80
  -2   3   5   71.49    4.40
   2   3  -5   68.29    3.60
   2   3  -5   64.49    3.60
  -1  -3   5  222.98    8.10
   1  -3  -5  220.98    8.10
   1  -3  -5  224.58    7.30
  -1  -3   5  244.28    7.80
  -1  -3   5  238.88    8.20
  -1  -3   5  228.68    8.20
   1  -3  -5  233.18    6.80
  -1  -3   5  232.18    7.40
   1  -3  -5  230.78    8.10
  -1   3   5  228.68    8.20
   1   3  -5  226.08    8.30
  -1   3   5  221.78    7.90
  -1   3   5  223.38    7.20
   1   3  -5  239.68    7.50
  -1   3   5  226.68    7.50
   1   3  -5  229.38    8.10
   1   3  -5  223.78    8.10
   0  -3   5   10.40    2.10
   0  -3   5    9.20    1.60
   0  -3  -5    8.70    1.40
   0  -3  -5    6.40    1.50
   0  -3  -5    9.60    1.70
   0  -3   5   11.30    1.60
   0  -3   5    7.80    1.60
   0  -3  -5    8.60    1.70
   0  -3  -5    9.00    0.70
   0  -3   5    7.10    1.50
   0   3  -5   11.30    1.70
   0   3   5    4.80    1.40
   0   3   5    9.40    1.60
   0   3   5    7.90    1.00
   0   3  -5    8.90    1.70
   0   3  -5    9.60    1.50
   0   3   5    6.70    1.40
  -1  -3  -5    0.20    0.90
   1  -3   5    0.90    1.00
  -1  -3  -5    1.00    1.00
  -1  -3  -5    1.10    0.90
   1  -3   5    0.80    0.90
   1  -3   5    1.20    1.00
  -1  -3  -5    0.40    1.10
   1  -3   5    0.50    0.90
   1   3   5    2.00    1.20
  -1   3  -5   -0.70    1.10
   1   3   5    2.90    1.20
  -1   3  -5    1.60    1.10
   1   3   5    1.50    0.40
   1   3   5    0.80    0.90
  -1   3  -5    1.60    1.00
   2  -3   5   42.70    3.20
  -2  -3  -5   42.10    3.00
  -2  -3  -5   41.80    3.00
  -2  -3  -5   38.80    2.90
   2  -3   5   48.40    2.60
   2  -3   5   44.70    3.10
   2  -3   5   46.30    3.10
  -2  -3  -5   43.80    3.20
   2   3   5   43.80    3.10
  -2   3  -5   46.00    3.30
  -2   3  -5   45.90    3.30
   2   3   5   41.50    3.10
   2   3   5   40.70    2.70
  -3  -3  -5   26.20    2.80
   3  -3   5   30.30    2.10
  -3  -3  -5   25.30    2.70
   3  -3   5   31.80    3.10
   3  -3   5   30.80    3.10
  -3  -3  -5   28.70    2.80
  -3  -3  -5   24.20    2.80
   3  -3   5   25.40    2.80
   3   3   5   25.00    3.00
  -3   3  -5   22.20    2.70
   3   3   5   25.60    2.70
  -3   3  -5   31.10    3.20
   4  -3   5    5.90    1.80
  -4  -3  -5    7.40    1.60
  -4  -3  -5    7.20    1.70
  -4  -3  -5    5.90    1.50
   4  -3   5    9.10    2.10
   4  -3   5    7.20    1.30
   4  -3   5    9.50    2.00
  -4  -3  -5    6.30    1.80
   4   3   5    6.10    1.80
   4   3   5    8.80    1.70
  -4   3  -5   10.10    2.00
   4   3   5    9.60    2.00
  -4   3  -5    8.00    1.30
  -4   3  -5   10.30    2.00
   5  -3   5   14.30    1.70
  -5  -3  -5   17.50    2.80
   5  -3   5   13.20    2.30
  -5  -3  -5   11.40    2.00
  -5  -3  -5   12.50    2.00
   5  -3   5   15.60    2.50
  -5  -3  -5   12.70    2.50
   5   3   5   13.30    2.70
  -5   3  -5   10.90    2.20
   5   3   5   10.20    2.10
  -5   3  -5   15.20    1.70
   5   3   5   12.60    1.70
  -5   3  -5   12.00    2.50
   5   3   5   16.30    2.10
  -6  -3  -5    0.10    1.80
   6  -3   5    0.70    1.00
  -6  -3  -5    0.20    1.20
   6  -3   5    0.90    1.60
  -6  -3  -5   -1.30    1.60
   6  -3   5    0.60    1.40
   6   3   5   -0.60    1.40
  -6   3  -5    1.80    1.80
   6   3   5    0.50    1.40
   6   3   5    0.90    1.30
   6   3   5   -0.10    1.10
  -6   3  -5   -0.40    1.40
  -6   3  -5    0.90    0.90
   7  -3   5   56.99    5.50
  -7  -3  -5   51.09    3.30
  -7  -3  -5   51.89    5.00
  -7  -3  -5   47.60    4.80
   7  -3   5   49.70    4.80
   7  -3   5   47.70    5.10
  -7   3  -5   51.69    5.00
  -7   3  -5   52.69    3.30
   7   3   5   46.00    5.10
   7   3   5   48.10    3.80
   7   3   5   48.50    3.50
  -7   3  -5   49.60    4.40
  -8  -3  -5   -1.60    1.20
   8  -3   5   -2.40    1.70
  -8  -3  -5   -1.10    1.50
  -8  -3  -5   -1.00    0.90
   8  -3   5   -3.40    1.50
   8   3   5    0.70    1.50
  -8   3  -5   -2.50    1.30
  -8   3  -5    1.10    2.00
   8   3   5    3.20    2.40
   8   3   5   -0.30    1.50
  -9  -3  -5   16.10    2.10
   9  -3   5   17.80    4.00
  -9  -3  -5   18.70    3.80
  -9  -3  -5   20.90    4.00
   9  -3   5   22.70    3.80
   9   3   5   15.60    3.40
   9   3   5   25.70    3.50
  -9   3  -5   18.90    3.00
   9   3   5   21.00    3.20
  -9   3  -5   26.70    4.20
 -10  -3  -5    1.90    2.80
  10  -3   5   -0.10    2.50
  10  -3   5    1.10    2.30
 -10  -3  -5    2.00    2.60
 -10   3  -5   -1.20    2.20
  11  -4  -5   41.80    5.00
  11  -4  -5   48.30    6.10
 -11  -4   5   49.30    5.70
 -11   4   5   53.69    5.40
  11   4  -5   49.20    6.00
  11   4  -5   52.09    5.60
 -11   4   5   53.39    4.30
  10  -4  -5   -1.40    2.20
 -10  -4   5    2.30    2.30
  10  -4  -5    2.80    2.10
 -10  -4   5    1.80    3.30
 -10   4   5    2.80    2.50
 -10   4   5    3.10    1.90
 -10   4   5    0.30    1.90
  10   4  -5    3.40    2.20
  10   4  -5    2.20    2.40
   9  -4  -5    3.00    2.10
  -9  -4   5    0.20    2.10
   9  -4  -5    5.20    2.40
  -9  -4   5    0.80    1.60
   9   4  -5    0.60    2.20
  -9   4   5   -0.40    1.60
   9   4  -5   -2.40    1.70
  -9   4   5   -0.10    1.80
  -9   4   5    1.80    2.20
   8  -4  -5   42.70    4.80
   8  -4  -5   42.60    4.50
  -8  -4   5   45.70    4.00
  -8  -4   5   45.90    4.80
  -8  -4   5   50.59    2.90
   8   4  -5   36.00    4.70
  -8   4   5   49.60    4.50
   8   4  -5   39.00    4.30
  -8   4   5   43.10    4.90
  -8   4   5   53.59    4.80
  -7  -4   5    1.10    1.10
   7  -4  -5    3.50    1.90
   7  -4  -5    2.40    1.80
   7  -4  -5   -0.70    1.60
  -7  -4   5    0.90    2.00
  -7  -4   5    3.00    1.50
  -7   4   5    2.20    1.70
  -7   4   5   -1.00    1.70
   7   4  -5    1.30    1.70
   7   4  -5    2.70    1.50
  -7   4   5    4.10    1.90
  -6  -4   5  209.98    8.90
   6  -4  -5  192.88    8.60
  -6  -4   5  212.18    7.70
   6  -4  -5  213.88    8.70
  -6  -4   5  201.88    7.80
   6  -4  -5  206.98    8.70
  -6   4   5  223.18    9.20
   6   4  -5  204.98    9.30
   6   4  -5  208.88    7.70
  -6   4   5  218.38    8.70
   6   4  -5  198.38    8.60
  -6   4   5  214.08    8.70
   5  -4  -5  158.68    7.00
  -5  -4   5  167.48    6.50
   5  -4  -5  153.18    7.10
   5  -4  -5  156.38    7.20
   5  -4  -5  169.98    5.40
  -5  -4   5  166.88    6.60
  -5  -4   5  154.68    6.50
  -5  -4   5  174.48    7.70
  -5   4   5  155.88    7.20
  -5   4   5  161.68    5.30
   5   4  -5  150.38    7.20
  -5   4   5  164.78    7.30
  -5   4   5  162.28    7.10
   5   4  -5  163.38    6.60
   5   4  -5  168.78    7.90
  -4  -4   5  255.77    9.10
   4  -4  -5  257.57    9.70
   4  -4  -5  256.17    7.80
   4  -4  -5  243.88    9.60
  -4  -4   5  253.87    9.80
  -4  -4   5  249.78    8.70
  -4  -4   5  248.68    9.10
   4  -4  -5  247.98    9.00
   4   4  -5  257.17   10.10
  -4   4   5  270.77    9.50
  -4   4   5  257.87    9.70
  -4   4   5  259.27    9.60
  -4   4   5  253.87    7.80
   4   4  -5  253.27    9.10
  -4   4   5  260.57    7.30
   4   4  -5  262.17    9.70
  -3  -4   5    1.00    1.00
   3  -4  -5    0.70    1.40
  -3  -4   5    0.20    1.20
   3  -4  -5   -0.30    0.70
  -3  -4   5   -2.30    0.90
   3  -4  -5   -0.30    1.00
   3  -4  -5    1.10    1.00
  -3  -4   5   -0.40    1.00
  -3   4   5   -0.30    1.10
  -3   4   5   -0.90    1.10
  -3   4   5   -0.70    0.70
   3   4  -5   -1.30    1.20
  -3   4   5   -0.20    0.70
   3   4  -5   -0.60    1.10
  -3   4   5    1.90    1.40
   3   4  -5    1.30    1.30
  -2  -4   5   21.30    2.80
  -2  -4   5   29.40    3.50
   2  -4  -5   20.50    2.70
   2  -4  -5   23.30    1.90
   2  -4  -5   25.10    3.00
  -2  -4   5   23.30    2.40
   2  -4  -5   18.70    1.90
  -2  -4   5   19.90    2.50
  -2   4   5   17.50    2.00
   2   4  -5   26.10    3.10
  -2   4   5   17.80    2.60
   2   4  -5   21.40    2.50
  -2   4   5   20.60    2.00
   2   4  -5   19.80    2.50
  -2   4   5   19.70    2.40
  -1  -4   5  387.16   13.10
  -1  -4   5  392.86   13.10
   1  -4  -5  408.66   11.50
   1  -4  -5  392.86   12.10
   1  -4  -5  396.86   13.10
   1  -4  -5  391.46   13.20
  -1  -4   5  396.66   12.40
  -1   4   5  398.96   12.30
  -1   4   5  381.26   13.20
  -1   4   5  394.56   11.90
   1   4  -5  412.46   13.00
   1   4  -5  380.26   13.00
   1   4  -5  411.16   13.40
  -1   4   5  403.46   12.90
   0  -4  -5  602.84   18.00
   0  -4  -5  631.64   19.00
   0  -4   5  616.44   18.90
   0  -4  -5  644.54   19.00
   0  -4   5  616.64   18.50
   0  -4   5  600.24   18.70
   0   4   5  604.14   18.40
   0   4  -5  618.74   18.90
   0   4  -5  626.04   18.90
   0   4   5  626.04   17.00
   0   4   5  609.74   18.30
   0   4  -5  610.64   18.70
   0   4   5  621.14   18.90
  -1  -4  -5   78.29    4.30
   1  -4   5   75.99    4.70
   1  -4   5   91.59    5.10
   1  -4   5   83.79    4.60
  -1  -4  -5   86.29    4.90
  -1  -4  -5   85.89    4.80
  -1   4  -5   84.79    5.00
   1   4   5   87.29    3.00
   1   4   5   89.59    4.60
   1   4   5   94.49    4.80
  -1   4  -5   82.79    4.70
   1   4   5   93.59    4.90
  -1   4  -5   93.79    4.80
  -2  -4  -5 1273.07   37.00
   2  -4   5 1326.17   37.30
   2  -4   5 1272.27   36.90
   2  -4   5 1341.67   37.00
  -2  -4  -5 1325.57   36.90
  -2  -4  -5 1332.67   36.80
   2   4   5 1332.07   37.10
   2   4   5 1313.37   36.40
  -2   4  -5 1342.77   37.30
   2   4   5 1403.06   37.00
  -2   4  -5 1359.26   37.30
   3  -4   5  705.83   21.30
  -3  -4  -5  696.53   21.10
   3  -4   5  717.53   21.70
   3  -4   5  676.43   21.30
  -3  -4  -5  743.23   21.30
  -3  -4  -5  697.83   21.30
  -3  -4  -5  694.63   21.60
   3   4   5  736.63   21.20
  -3   4  -5  689.43   21.60
   3   4   5  694.63   21.70
  -3   4  -5  703.33   21.60
   4  -4   5    6.30    1.90
   4  -4   5    6.70    2.10
   4  -4   5    6.80    2.20
  -4  -4  -5    6.40    1.90
  -4  -4  -5    5.40    1.90
  -4  -4  -5    5.30    2.20
  -4  -4  -5    6.30    1.80
  -4   4  -5    6.60    1.60
  -4   4  -5    6.50    2.10
   4   4   5    4.40    1.80
   4   4   5    9.30    2.00
  -4   4  -5    5.40    1.90
   5  -4   5  112.59    6.40
  -5  -4  -5  113.39    5.70
  -5  -4  -5  118.79    6.60
  -5  -4  -5  123.49    6.70
   5  -4   5  115.59    6.30
   5   4   5  121.89    6.10
   5   4   5  112.09    5.60
  -5   4  -5  126.39    6.90
   5   4   5  128.29    7.10
  -5   4  -5  121.79    5.30
  -5   4  -5  119.59    6.40
  -6  -4  -5    7.50    2.50
   6  -4   5    7.50    2.20
   6  -4   5    9.50    2.40
  -6  -4  -5    7.20    1.90
  -6  -4  -5    6.80    2.20
  -6   4  -5    8.70    2.70
  -6   4  -5    7.10    1.70
   6   4   5    9.50    2.20
  -6   4  -5    5.50    2.10
   6   4   5    5.50    2.60
  -7  -4  -5   17.30    3.30
   7  -4   5   15.50    3.10
  -7  -4  -5   18.30    2.60
  -7  -4  -5   15.60    3.20
   7  -4   5   18.40    3.50
   7   4   5   17.20    3.60
  -7   4  -5   20.10    3.20
   7   4   5   17.00    2.80
  -7   4  -5   23.70    3.80
   8  -4   5   -0.40    1.60
  -8  -4  -5   -0.70    1.30
   8  -4   5   -1.00    1.90
  -8  -4  -5    2.50    2.50
  -8  -4  -5   -2.50    1.80
  -8   4  -5   -2.40    1.90
   8   4   5   -2.10    1.30
   8   4   5   -0.10    2.20
  -8   4  -5    1.60    2.00
   9  -4   5   -0.70    2.30
  -9  -4  -5   -0.90    1.70
  -9  -4  -5    3.40    2.30
   9  -4   5   -0.80    2.00
  -9  -4  -5   -1.10    2.30
  -9   4  -5   -1.60    1.70
   9   4   5    1.00    2.40
  -9   4  -5    0.50    2.40
   9   4   5   -1.60    1.50
  10  -5  -5   38.20    5.30
  10  -5  -5   30.60    4.80
 -10  -5   5   37.50    5.10
 -10   5   5   42.80    4.70
  10   5  -5   32.40    5.20
 -10   5   5   26.80    4.20
   9  -5  -5   26.00    4.30
  -9  -5   5   22.00    4.20
   9  -5  -5   17.60    3.70
   9   5  -5   23.60    4.20
  -9   5   5   19.60    3.50
  -9   5   5   21.10    3.70
  -9   5   5   24.50    4.30
  -8  -5   5    2.90    1.50
   8  -5  -5    5.40    2.50
   8  -5  -5    4.10    2.30
  -8  -5   5    4.80    2.30
  -8  -5   5    3.40    2.50
  -8   5   5    5.80    2.60
  -8   5   5    4.00    2.30
  -8   5   5    4.60    2.30
   8   5  -5    6.80    3.00
   7  -5  -5   -0.60    1.70
  -7  -5   5    1.10    1.40
   7  -5  -5   -0.60    1.60
  -7  -5   5    2.50    1.70
  -7  -5   5    0.20    1.50
   7  -5  -5    1.50    1.80
  -7   5   5    0.40    1.80
   7   5  -5    0.80    1.70
  -7   5   5   -0.70    1.80
  -7   5   5   -2.00    1.60
  -6  -5   5    3.60    1.80
   6  -5  -5    4.90    2.30
  -6  -5   5    8.40    2.10
   6  -5  -5    9.70    2.40
   6  -5  -5    3.20    2.00
  -6  -5   5    6.00    2.40
   6   5  -5    6.50    2.60
  -6   5   5    8.10    2.40
  -6   5   5    4.10    2.10
  -5  -5   5  156.38    7.20
  -5  -5   5  166.08    7.00
   5  -5  -5  159.18    7.40
   5  -5  -5  167.58    8.10
  -5  -5   5  162.88    8.20
   5  -5  -5  161.58    5.90
  -5   5   5  175.28    8.20
   5   5  -5  168.48    7.30
  -5   5   5  173.48    7.90
  -5   5   5  153.38    7.60
   5   5  -5  158.08    8.30
   4  -5  -5   25.80    3.60
   4  -5  -5   28.10    3.30
  -4  -5   5   25.60    3.10
  -4  -5   5   23.00    3.30
  -4  -5   5   34.40    3.20
   4  -5  -5   27.20    3.60
   4  -5  -5   25.80    2.30
   4   5  -5   27.40    3.30
   4   5  -5   21.30    3.30
  -4   5   5   25.20    3.40
  -4   5   5   30.70    3.40
  -4   5   5   16.30    3.00
  -3  -5   5   48.50    3.40
  -3  -5   5   44.90    4.40
   3  -5  -5   43.40    4.40
   3  -5  -5   44.40    4.50
   3  -5  -5   51.39    3.10
  -3  -5   5   60.49    4.20
   3  -5  -5   51.29    3.30
   3   5  -5   45.30    4.10
  -3   5   5   47.10    4.60
  -3   5   5   53.19    4.50
  -3   5   5   51.09    2.90
  -3   5   5   53.99    3.70
   3   5  -5   49.60    4.10
  -2  -5   5    2.40    1.70
  -2  -5   5    2.60    2.00
  -2  -5   5    2.80    1.40
   2  -5  -5    2.30    1.30
   2  -5  -5    3.10    1.90
   2  -5  -5   -1.10    1.40
   2  -5  -5    2.70    1.20
  -2   5   5    3.00    1.40
   2   5  -5    0.00    1.60
  -2   5   5    3.20    1.70
   2   5  -5    1.90    1.50
  -2   5   5    3.50    1.70
  -2   5   5    2.30    1.20
   2   5  -5    2.00    1.60
   1  -5  -5    2.50    1.80
   1  -5  -5   -1.10    1.40
   1  -5  -5    6.00    1.70
  -1  -5   5    3.60    2.00
  -1   5   5    3.80    1.30
   1   5  -5    4.80    2.00
   1   5  -5    1.00    1.50
  -1   5   5    0.30    1.60
   1   5  -5    1.40    1.80
  -1   5   5    2.20    1.20
  -1   5   5    4.10    1.40
   0  -5   5  445.56   15.40
   0  -5   5  452.75   15.50
   0  -5  -5  442.06   15.30
   0  -5  -5  443.56   15.50
   0  -5  -5  459.15   14.60
   0   5   5  472.75   15.60
   0   5   5  460.25   13.40
   0   5   5  457.55   14.80
   0   5  -5  479.35   15.40
   0   5   5  457.55   15.10
   0   5  -5  454.45   15.50
   0   5  -5  460.55   15.50
   1  -5   5   31.80    3.90
  -1  -5  -5   38.00    4.00
  -1  -5  -5   33.90    3.50
   1  -5   5   34.70    4.00
  -1  -5  -5   34.30    4.10
  -1   5  -5   30.70    3.50
   1   5   5   37.00    3.90
   1   5   5   32.90    3.40
  -1   5  -5   38.80    4.20
  -1   5  -5   32.60    3.80
   1   5   5   38.40    2.10
   1   5   5   40.40    4.00
   2  -5   5  194.68    8.70
   2  -5   5  189.48    8.30
  -2  -5  -5  174.48    8.10
  -2  -5  -5  171.28    7.80
  -2  -5  -5  180.48    8.40
  -2   5  -5  178.78    8.00
  -2   5  -5  196.78    8.70
   2   5   5  183.38    8.20
  -2   5  -5  184.78    8.40
   2   5   5  180.98    8.30
   2   5   5  165.28    7.50
   3  -5   5   36.10    4.10
   3  -5   5   36.50    4.20
  -3  -5  -5   37.50    4.20
  -3  -5  -5   41.60    4.20
   3  -5   5   47.40    4.60
  -3  -5  -5   35.10    4.00
  -3   5  -5   36.10    4.30
  -3   5  -5   39.60    4.00
  -3   5  -5   47.30    4.80
   3   5   5   43.20    4.70
   3   5   5   42.60    4.20
   4  -5   5   -0.60    1.90
  -4  -5  -5    0.90    1.70
   4  -5   5    0.30    1.70
  -4  -5  -5   -0.80    1.20
  -4  -5  -5   -0.20    1.30
   4  -5   5   -1.20    1.70
   4   5   5   -0.40    1.40
  -4   5  -5   -1.00    1.50
   4   5   5    1.00    1.50
  -4   5  -5    2.10    2.00
  -5  -5  -5    9.70    2.40
  -5  -5  -5    9.30    2.60
  -5  -5  -5    6.10    2.50
   5  -5   5    4.70    2.10
   5  -5   5    2.40    2.30
   5  -5   5    6.10    2.50
  -5   5  -5    3.90    1.90
   5   5   5    8.80    2.60
  -5   5  -5    0.80    1.90
   6  -5   5    3.50    2.20
  -6  -5  -5   -1.50    1.90
  -6  -5  -5    1.00    1.60
  -6  -5  -5    1.00    2.20
   6  -5   5   -1.80    1.80
   6   5   5   -0.90    2.10
  -6   5  -5    0.90    2.20
  -6   5  -5    1.30    1.80
  -6   5  -5    0.70    1.50
   6   5   5    6.20    2.10
  -7  -5  -5    6.20    2.10
  -7  -5  -5    7.10    2.90
   7  -5   5    8.00    2.90
  -7  -5  -5    8.00    2.90
   7  -5   5    6.20    2.40
   7   5   5    5.20    2.20
  -7   5  -5    7.10    2.70
   7   5   5    6.80    3.00
  -7   5  -5   10.60    3.20
   8  -5   5    1.20    2.30
  -8  -5  -5    1.60    1.80
  -8  -5  -5   -0.80    2.50
  -8  -5  -5   -2.10    2.10
   8  -5   5    0.40    2.50
   8   5   5    2.80    2.30
  -8   5  -5    0.80    2.50
   8   5   5    1.00    2.10
  -8   5  -5    0.50    2.10
   9  -6  -5    4.90    2.90
   9  -6  -5    4.10    2.90
   9   6  -5    3.80    3.00
  -9   6   5    1.90    2.60
   8  -6  -5   77.59    6.20
  -8  -6   5   78.39    7.50
   8  -6  -5   81.29    6.30
  -8  -6   5   79.89    5.10
   8   6  -5   82.79    7.90
  -8   6   5   84.99    6.40
  -8   6   5   79.19    6.30
  -8   6   5   84.99    6.80
   7  -6  -5    4.40    2.50
  -7  -6   5    2.30    2.70
   7  -6  -5    0.80    2.30
  -7  -6   5    0.60    1.70
  -7  -6   5    2.80    1.90
  -7   6   5   -2.90    1.80
   7   6  -5    2.00    2.60
  -7   6   5    4.10    2.60
  -7   6   5    1.10    2.30
  -6  -6   5   10.30    2.60
  -6  -6   5   10.50    3.30
  -6  -6   5   12.00    2.60
   6  -6  -5    6.40    2.30
   6  -6  -5    9.10    3.00
   6  -6  -5   12.00    3.00
  -6   6   5   12.40    3.10
   6   6  -5   13.20    3.40
  -6   6   5   14.20    3.30
  -6   6   5    9.90    2.90
   5  -6  -5    8.60    2.90
   5  -6  -5    9.00    2.60
  -5  -6   5    7.60    2.90
  -5  -6   5    5.70    2.20
  -5  -6   5    5.50    2.40
  -5   6   5    4.40    2.50
  -5   6   5    5.90    2.40
  -5   6   5   11.60    2.90
   5   6  -5    4.40    2.80
   4  -6  -5   50.49    4.50
   4  -6  -5   51.29    5.40
  -4  -6   5   54.79    5.50
  -4  -6   5   43.90    4.20
   4  -6  -5   56.19    5.50
  -4  -6   5   57.29    5.20
  -4   6   5   43.60    5.10
   4   6  -5   52.39    4.90
  -4   6   5   61.09    5.40
   4   6  -5   54.59    5.60
  -4   6   5   51.99    4.70
   3  -6  -5   59.99    3.90
   3  -6  -5   72.49    5.50
   3  -6  -5   68.59    6.20
   3  -6  -5   65.29    4.30
  -3  -6   5   56.59    5.60
  -3  -6   5   68.09    4.60
  -3  -6   5   71.29    5.40
  -3   6   5   70.29    5.60
   3   6  -5   72.69    5.20
  -3   6   5   60.99    4.40
  -3   6   5   56.69    5.20
   3   6  -5   53.69    5.60
   2  -6  -5    0.80    2.10
   2  -6  -5    2.90    2.10
  -2  -6   5    4.60    2.40
  -2  -6   5    1.20    1.60
  -2  -6   5    2.90    1.90
   2  -6  -5    6.40    1.70
   2  -6  -5    1.70    1.40
  -2   6   5    5.60    1.70
   2   6  -5    3.00    2.20
   2   6  -5    1.50    2.20
  -2   6   5    2.00    1.80
  -2   6   5    6.30    1.90
   2   6  -5    1.90    1.60
  -2   6   5    2.70    1.70
  -1  -6   5  178.18    8.70
   1  -6  -5  186.88    7.70
   1  -6  -5  181.68    8.60
  -1  -6   5  179.08    8.50
   1  -6  -5  175.38    8.80
  -1  -6   5  165.08    7.80
  -1   6   5  177.58    8.80
   1   6  -5  168.18    8.10
   1   6  -5  175.38    8.70
   1   6  -5  190.98    8.90
  -1   6   5  178.58    7.70
  -1   6   5  161.48    8.00
  -1   6   5  180.28    7.10
   0  -6  -5    2.30    2.10
   0  -6  -5    0.00    1.40
   0  -6   5    3.40    2.20
   0  -6  -5    1.90    2.10
   0  -6   5    1.50    2.00
   0   6  -5   -1.10    1.60
   0   6   5    0.30    1.50
   0   6  -5    0.00    2.10
   0   6   5    1.80    1.20
   0   6   5   -0.30    2.00
   0   6  -5    1.60    1.90
   0   6   5   -0.40    1.60
  -1  -6  -5   19.10    3.40
   1  -6   5   16.00    3.30
   1  -6   5   15.30    3.20
  -1  -6  -5   16.50    3.30
  -1  -6  -5   17.00    3.00
  -1   6  -5   16.20    3.00
  -1   6  -5   18.00    3.00
   1   6   5   13.20    3.10
  -1   6  -5   18.40    3.50
   1   6   5   15.90    2.80
   1   6   5   23.30    3.40
  -2  -6  -5   14.60    3.10
   2  -6   5   10.40    2.90
  -2  -6  -5    9.20    2.90
  -2  -6  -5   17.40    3.10
   2  -6   5   12.50    3.20
  -2   6  -5   13.40    2.90
   2   6   5   17.70    3.30
   2   6   5   14.70    3.10
  -2   6  -5    8.00    2.70
  -2   6  -5    8.90    2.90
   3  -6   5  157.08    8.50
   3  -6   5  156.78    7.90
  -3  -6  -5  132.79    7.60
  -3  -6  -5  140.19    8.10
  -3  -6  -5  146.89    7.80
  -3   6  -5  150.28    8.00
  -3   6  -5  148.49    7.60
  -3   6  -5  162.38    8.60
   3   6   5  163.98    8.10
   3   6   5  143.09    8.10
  -4  -6  -5   35.00    4.60
  -4  -6  -5   32.90    4.20
  -4  -6  -5   30.10    4.20
   4  -6   5   31.30    4.10
   4  -6   5   25.30    4.40
  -4   6  -5   34.50    4.70
  -4   6  -5   34.80    4.10
  -4   6  -5   40.60    4.80
   4   6   5   39.80    5.10
  -5  -6  -5   -0.60    2.00
  -5  -6  -5   -2.90    2.00
   5  -6   5   -2.30    1.60
   5  -6   5   -2.00    2.10
  -5  -6  -5   -1.00    2.00
  -5   6  -5   -3.70    1.80
  -5   6  -5    1.60    2.30
  -5   6  -5   -2.40    1.50
   5   6   5    3.20    2.50
  -6  -6  -5   19.90    3.50
  -6  -6  -5   17.60    3.90
  -6  -6  -5   15.20    3.70
   6   6   5   18.30    4.20
  -6   6  -5   10.70    3.10
   6   6   5   17.40    3.30
  -6   6  -5   22.90    4.20
  -6   6  -5   11.30    2.80
  -7  -6  -5    3.40    2.30
  -7  -6  -5   -0.60    2.10
   7  -6   5   -0.20    1.90
  -7  -6  -5    6.70    3.30
   7   6   5    2.10    3.00
   7   6   5    5.60    2.60
   7  -7  -5   -1.90    2.30
  -7  -7   5   -0.50    2.00
   7  -7  -5    1.10    2.60
   7   7  -5   -0.10    2.10
  -7   7   5    1.60    2.60
   6  -7  -5   40.10    4.90
  -6  -7   5   37.10    4.60
   6  -7  -5   33.70    5.00
   6  -7  -5   48.00    6.00
  -6  -7   5   43.30    6.40
  -6   7   5   38.30    5.00
  -6   7   5   50.19    5.70
  -6   7   5   38.50    5.40
   6   7  -5   39.90    5.80
   5  -7  -5  155.28    8.30
   5  -7  -5  158.48    9.40
  -5  -7   5  173.88    8.90
  -5  -7   5  170.88    9.70
  -5  -7   5  161.08    8.40
  -5   7   5  169.58    9.20
  -5   7   5  179.48    9.80
   5   7  -5  155.88    9.70
  -5   7   5  184.58    9.20
  -4  -7   5   14.10    3.50
   4  -7  -5   11.00    3.40
   4  -7  -5    9.00    2.70
  -4  -7   5   15.30    3.00
  -4  -7   5   10.90    3.30
   4  -7  -5   10.00    3.40
  -4   7   5   14.70    3.00
   4   7  -5    7.60    3.20
  -4   7   5    5.40    2.70
  -4   7   5    8.40    2.90
  -3  -7   5   22.00    4.00
  -3  -7   5   18.60    3.30
   3  -7  -5   16.90    3.40
   3  -7  -5   28.80    4.60
  -3  -7   5   17.60    3.50
   3   7  -5   19.20    3.70
  -3   7   5   23.20    3.30
  -3   7   5   21.30    3.70
  -3   7   5   18.50    3.90
   2  -7  -5   22.10    3.20
  -2  -7   5   24.80    4.20
   2  -7  -5   25.70    4.40
  -2  -7   5   24.20    4.00
  -2  -7   5   20.60    3.40
   2  -7  -5   23.40    3.90
   2   7  -5   27.50    3.80
  -2   7   5   20.80    3.90
   2   7  -5   31.50    4.60
  -2   7   5   28.40    4.50
   2   7  -5   26.20    4.40
   1  -7  -5   11.50    3.50
   1  -7  -5   12.60    3.00
  -1  -7   5   14.50    3.70
   1  -7  -5    7.10    2.40
  -1  -7   5   12.50    3.50
  -1  -7   5    9.80    2.70
  -1   7   5    8.90    3.20
   1   7  -5   18.40    3.80
   1   7  -5   16.30    3.60
  -1   7   5   12.30    2.70
   1   7  -5   10.20    2.90
  -1   7   5   11.20    3.00
   0  -7   5    2.00    2.40
   0  -7   5    0.70    2.60
   0  -7  -5    2.40    2.40
   0  -7  -5   -0.60    2.30
   0  -7  -5    2.80    2.00
   0   7  -5    2.00    2.30
   0   7  -5    2.50    2.10
   0   7  -5    1.10    2.60
   0   7   5   -0.70    2.10
   0   7   5    1.40    1.70
   0   7   5    1.40    2.60
  -1  -7  -5    4.20    2.50
  -1  -7  -5    0.00    1.90
   1  -7   5   -2.30    2.20
   1  -7   5    1.50    2.40
  -1  -7  -5   -1.10    2.20
  -1   7  -5    1.00    2.40
   1   7   5    6.50    2.60
  -1   7  -5   -2.20    1.80
   1   7   5    3.70    2.50
  -1   7  -5   -0.50    2.10
  -2  -7  -5    2.80    2.30
   2  -7   5    4.40    2.90
  -2  -7  -5   -0.10    2.40
  -2  -7  -5    3.40    2.40
   2  -7   5    1.30    2.30
  -2   7  -5    0.00    2.10
  -2   7  -5    1.10    2.40
   2   7   5    1.50    2.40
   2   7   5    6.10    2.80
  -2   7  -5    1.30    2.70
  -3  -7  -5    2.10    2.30
  -3  -7  -5    1.60    2.30
  -3  -7  -5    4.10    2.80
   3  -7   5    1.00    2.00
   3  -7   5    0.50    2.70
   3   7   5    4.40    2.70
  -3   7  -5    5.20    2.50
  -3   7  -5   -1.40    2.20
  -3   7  -5   -0.20    2.80
  -4  -7  -5   23.00    4.40
  -4  -7  -5   19.10    3.90
   4  -7   5   20.90    3.80
   4  -7   5   24.10    4.80
  -4  -7  -5   22.00    4.50
   4   7   5   14.40    3.80
  -4   7  -5   23.40    4.10
  -4   7  -5   22.10    3.80
  -4   7  -5   16.60    4.00
  -5  -7  -5    3.00    2.70
  -5  -7  -5    0.10    2.60
   5  -7   5    6.70    3.40
   5  -7   5    7.60    2.80
   5   7   5    2.10    3.00
   3  -8  -5   -2.80    2.40
  -2  -8   5    2.50    2.80
   2  -8  -5   -0.10    2.70
  -2   8   5   -3.90    2.70
   2   8  -5    2.00    2.90
  -1  -8   5   -0.40    2.80
   1   8  -5    2.80    2.40
   1   8  -5   -5.50    2.60
  -1   8   5   -0.60    2.70
   1   8  -5   -0.60    2.80
   0  -8   5   -4.30    2.30
   0   8   5    4.20    2.90
   0   8  -5    0.50    2.60
   0   8  -5    4.00    2.90
   0   8  -5   -2.50    2.30
   0   8   5    1.00    3.00
   1  -8   5   -0.20    2.70
  -1  -8  -5    1.00    2.70
   1   8   5    2.10    3.30
   1   8   5    3.40    2.60
  -1   8  -5   -1.60    2.70
  -1   8  -5    2.10    2.60
  -1   8  -5    3.00    2.60
  13   0  -6  203.38   11.20
 -13   0   6  215.98   11.00
  13   0  -6  216.38   10.10
 -13   0   6  214.68   10.10
 -12   0   6   57.09    6.00
  12   0  -6   52.79    5.40
 -12   0   6   42.10    4.70
  12   0  -6   48.80    6.00
 -12   0   6   51.99    5.10
 -11   0   6   11.40    2.70
  11   0  -6   10.40    3.20
 -11   0   6   19.00    3.50
 -11   0   6   12.50    2.70
  11   0  -6   16.20    3.10
  10   0  -6  147.29    8.30
 -10   0   6  163.18    6.80
  10   0  -6  166.78    6.90
  10   0  -6  167.88    7.80
 -10   0   6  157.08    7.50
 -10   0   6  170.18    8.30
   9   0  -6  205.78    9.30
   9   0  -6  211.38    7.90
   9   0  -6  219.08    8.80
  -9   0   6  215.98    7.80
  -9   0   6  204.88    8.60
  -9   0   6  206.38    9.10
   8   0  -6   27.30    1.20
   8   0  -6   26.70    3.10
  -8   0   6   25.20    1.30
   8   0  -6   24.60    1.20
  -8   0   6   25.50    1.30
  -8   0   6   26.40    2.40
  -8   0   6   24.50    3.20
   8   0  -6   23.20    2.50
   8   0  -6   20.60    3.00
  -8   0   6   20.80    2.70
   7   0  -6   22.70    2.70
   7   0  -6   27.10    1.50
  -7   0   6   22.80    1.50
   7   0  -6   28.90    2.20
   7   0  -6   24.80    3.10
  -7   0   6   23.90    1.90
   7   0  -6   26.30    1.50
  -7   0   6   19.20    2.50
  -6   0   6  180.68    6.00
   6   0  -6  177.38    7.00
  -6   0   6  181.18    7.00
  -6   0   6  179.78    5.70
   6   0  -6  188.48    6.30
   6   0  -6  187.08    5.80
   6   0  -6  163.78    7.10
  -6   0   6  176.78    5.70
   5   0  -6 1769.82   47.30
   5   0  -6 1750.12   47.40
  -5   0   6 1759.12   45.90
   5   0  -6 1818.72   46.10
   5   0  -6 1823.22   46.40
  -5   0   6 1766.22   46.10
   5   0  -6 1779.82   46.10
  -5   0   6 1763.72   46.10
  -5   0   6 1747.53   47.10
   4   0  -6  335.37    9.80
   4   0  -6  338.27   10.50
  -4   0   6  325.57    9.30
   4   0  -6  333.57    9.40
  -4   0   6  319.07   10.20
   4   0  -6  333.07    9.80
   4   0  -6  328.97    9.70
  -4   0   6  321.97    9.70
   4   0  -6  334.17   10.40
  -4   0   6  324.17    9.70
  -4   0   6  336.37    9.20
  -3   0   6   55.59    2.70
  -3   0   6   56.99    2.90
   3   0  -6   55.69    2.70
  -3   0   6   55.99    1.90
  -3   0   6   53.19    2.60
   3   0  -6   54.99    2.90
   3   0  -6   56.59    2.30
  -3   0   6   52.19    2.20
   3   0  -6   53.79    2.90
   3   0  -6   55.29    2.70
  -2   0   6 1038.70   28.00
  -2   0   6 1041.30   28.00
  -2   0   6 1059.59   26.90
   2   0  -6 1037.50   28.00
   2   0  -6 1095.29   27.50
  -2   0   6 1038.40   27.40
  -2   0   6 1032.30   27.90
   2   0  -6 1067.09   28.10
   2   0  -6 1033.90   26.90
   2   0  -6 1050.19   28.00
  -1   0   6   76.39    3.40
  -1   0   6   80.29    3.30
  -1   0   6   77.09    3.40
  -1   0   6   81.09    3.10
   1   0  -6   81.19    3.10
   1   0  -6   78.29    3.40
  -1   0   6   81.39    3.10
   1   0  -6   73.69    2.70
   1   0  -6   78.19    3.40
  -1   0   6   75.69    2.70
   1   0  -6   81.29    3.20
   0   0   6 1352.26   35.10
   0   0   6 1289.07   34.10
   0   0  -6 1353.86   35.10
   0   0  -6 1302.07   34.40
   0   0   6 1329.77   34.70
   0   0   6 1328.47   34.90
   0   0   6 1289.17   35.00
   0   0  -6 1339.17   34.80
   0   0  -6 1309.57   35.10
  -1   0  -6 3006.20   77.49
   1   0   6 3039.60   77.49
   1   0   6 2913.61   77.59
   1   0   6 3025.70   76.99
  -1   0  -6 2902.11   76.99
   1   0   6 3019.80   77.39
  -1   0  -6 3059.29   77.49
  -1   0  -6 3022.20   77.39
  -1   0  -6 3018.10   76.99
  -2   0  -6  355.46   10.90
  -2   0  -6  350.46   10.50
   2   0   6  343.87   11.00
   2   0   6  368.56   10.60
   2   0   6  363.06   11.00
   2   0   6  352.86   10.90
  -2   0  -6  355.06   11.00
  -2   0  -6  374.36   11.20
  -2   0  -6  360.86   11.00
   3   0   6  138.39    5.50
   3   0   6  134.59    5.30
  -3   0  -6  129.69    5.40
  -3   0  -6  128.39    5.20
  -3   0  -6  136.69    5.00
  -3   0  -6  132.69    5.30
   3   0   6  135.49    5.00
  -4   0  -6   33.70    2.30
  -4   0  -6   29.60    2.40
   4   0   6   35.40    2.50
   4   0   6   36.20    2.40
   4   0   6   31.00    2.40
  -4   0  -6   31.40    3.00
   4   0   6   36.10    3.20
  -4   0  -6   35.20    2.50
   5   0   6   80.89    3.90
  -5   0  -6   74.19    3.80
   5   0   6   73.79    4.30
  -5   0  -6   78.89    3.90
  -5   0  -6   75.29    3.90
   5   0   6   72.09    4.00
  -5   0  -6   75.29    4.50
  -6   0  -6  351.46   11.40
  -6   0  -6  354.36   12.60
  -6   0  -6  351.26   11.70
   6   0   6  383.36   11.60
   6   0   6  358.86   12.20
  -6   0  -6  359.26   11.50
   6   0   6  358.66   12.30
   7   0   6  196.98    8.30
  -7   0  -6  198.58    7.40
   7   0   6  207.08    8.50
  -7   0  -6  189.38    8.60
  -7   0  -6  205.48    7.90
   8   0   6  237.08    9.70
  -8   0  -6  249.48   10.60
   8   0   6  223.88    9.70
  -8   0  -6  234.08    8.40
  -8   0  -6  241.68    9.30
  -9   0  -6  286.67    9.90
  -9   0  -6  307.07   11.30
   9   0   6  283.97   11.80
  -9   0  -6  298.97   12.40
   9   0   6  295.97   11.60
  10   0   6  117.99    7.00
 -10   0  -6  101.69    4.90
 -10   0  -6  119.69    7.50
  10   0   6  110.59    7.10
 -10   0  -6  104.79    7.50
  11   0   6   -1.40    1.90
  11   0   6   -1.90    2.10
 -12  -1   6   13.50    2.90
  12  -1  -6    7.10    2.50
 -12  -1   6   10.30    2.90
  12  -1  -6   16.20    4.00
 -12   1   6   12.00    3.30
 -12   1   6   11.80    2.80
  12   1  -6   12.80    3.60
  12   1  -6   10.40    2.90
  12   1  -6   11.70    3.10
 -11  -1   6   51.39    5.20
 -11  -1   6   44.50    4.60
 -11  -1   6   38.20    4.00
 -11  -1   6   53.79    4.70
  11  -1  -6   48.60    4.90
  11  -1  -6   35.60    5.00
 -11   1   6   55.89    5.70
  11   1  -6   44.80    4.80
  11   1  -6   36.30    4.80
 -11   1   6   41.90    4.50
  11   1  -6   51.39    4.10
 -10  -1   6   60.99    5.10
  10  -1  -6   51.79    5.40
 -10  -1   6   48.10    4.90
  10  -1  -6   57.49    5.20
 -10  -1   6   66.69    4.40
 -10  -1   6   50.79    4.00
 -10   1   6   54.79    4.80
  10   1  -6   54.89    5.00
  10   1  -6   59.69    5.80
  10   1  -6   59.89    4.30
 -10   1   6   54.79    2.20
 -10   1   6   59.69    4.70
   9  -1  -6  188.78    8.30
   9  -1  -6  193.28    9.00
  -9  -1   6  193.18    7.80
  -9  -1   6  209.08    7.80
  -9  -1   6  190.38    8.30
   9   1  -6  189.98    8.10
   9   1  -6  191.18    8.30
   9   1  -6  197.38    9.10
  -9   1   6  190.48    8.80
  -9   1   6  196.98    6.90
  -9   1   6  192.38    8.30
  -9   1   6  196.78    6.20
   8  -1  -6   17.40    1.80
   8  -1  -6   13.30    1.50
   8  -1  -6   18.30    2.70
  -8  -1   6   16.70    2.30
  -8  -1   6   14.00    2.40
  -8  -1   6   16.60    2.10
   8  -1  -6   12.10    2.60
  -8   1   6   17.20    1.70
  -8   1   6   18.30    2.90
  -8   1   6   14.90    1.60
   8   1  -6   15.00    2.60
   8   1  -6   13.60    2.30
   8   1  -6   14.40    2.80
  -8   1   6   14.70    1.60
  -8   1   6   14.00    2.40
  -7  -1   6   49.40    2.00
   7  -1  -6   52.39    2.40
   7  -1  -6   44.30    2.50
   7  -1  -6   54.49    3.80
  -7  -1   6   54.79    3.50
  -7  -1   6   47.30    3.10
  -7  -1   6   49.40    2.80
  -7  -1   6   51.39    2.00
   7  -1  -6   54.69    3.50
   7   1  -6   64.19    3.90
  -7   1   6   53.19    2.70
   7   1  -6   50.59    2.00
  -7   1   6   54.49    2.40
   7   1  -6   49.40    1.90
   7   1  -6   53.49    3.40
  -7   1   6   57.49    3.70
   7   1  -6   49.20    3.70
  -7   1   6   47.00    3.50
  -7   1   6   49.10    2.70
  -6  -1   6  674.43   19.00
   6  -1  -6  680.23   18.60
  -6  -1   6  690.43   18.40
  -6  -1   6  673.73   19.70
  -6  -1   6  668.43   17.90
   6  -1  -6  678.53   20.00
   6  -1  -6  678.53   19.80
   6  -1  -6  695.73   17.90
  -6  -1   6  669.63   18.00
  -6   1   6  681.33   19.00
   6   1  -6  678.13   17.90
  -6   1   6  669.63   17.70
   6   1  -6  666.63   20.10
   6   1  -6  585.54   17.80
  -6   1   6  663.43   18.50
  -6   1   6  637.64   19.80
   6   1  -6  653.93   19.70
   6   1  -6  704.83   19.50
  -6   1   6  663.93   18.60
  -6   1   6  656.03   19.50
  -5  -1   6 1461.55   39.20
  -5  -1   6 1457.25   38.60
   5  -1  -6 1561.34   38.30
  -5  -1   6 1507.75   38.70
   5  -1  -6 1504.05   39.20
   5  -1  -6 1484.15   40.10
   5  -1  -6 1457.55   40.00
  -5  -1   6 1477.15   39.90
  -5  -1   6 1491.65   38.40
   5   1  -6 1543.45   39.40
  -5   1   6 1493.25   39.20
  -5   1   6 1483.55   37.80
   5   1  -6 1514.25   38.70
  -5   1   6 1443.96   39.80
   5   1  -6 1518.35   39.80
   5   1  -6 1378.46   38.60
   5   1  -6 1465.85   40.00
  -5   1   6 1481.85   39.10
  -5   1   6 1474.75   39.10
   5   1  -6 1471.95   40.30
   4  -1  -6  171.98    5.90
  -4  -1   6  164.68    5.80
   4  -1  -6  171.18    6.30
   4  -1  -6  167.48    5.90
  -4  -1   6  162.88    4.80
   4  -1  -6  170.78    6.30
  -4  -1   6  167.38    5.60
   4  -1  -6  176.18    5.10
  -4  -1   6  166.28    5.60
  -4   1   6  174.58    6.00
   4   1  -6  168.28    6.50
   4   1  -6  171.48    5.70
  -4   1   6  163.88    5.90
   4   1  -6  159.58    6.20
   4   1  -6  173.98    6.20
  -4   1   6  170.38    5.60
  -4   1   6  173.48    6.20
   4   1  -6  173.18    5.90
   4   1  -6  170.08    5.70
   3  -1  -6    1.90    0.80
   3  -1  -6    1.40    0.90
  -3  -1   6    1.50    0.70
   3  -1  -6    0.90    0.90
   3  -1  -6    0.70    0.70
   3  -1  -6    1.40    0.30
  -3  -1   6    1.40    0.70
  -3  -1   6    1.60    0.80
   3  -1  -6    1.00    0.70
   3   1  -6    0.60    0.70
  -3   1   6    0.80    0.80
   3   1  -6    0.80    0.70
  -3   1   6    2.40    0.90
   3   1  -6    0.90    0.80
  -3   1   6    2.40    0.70
   3   1  -6    1.70    0.80
   3   1  -6    0.60    0.70
  -3   1   6    0.30    0.70
   2  -1  -6  631.44   16.90
   2  -1  -6  631.14   17.50
   2  -1  -6  633.24   17.50
  -2  -1   6  620.94   17.20
  -2  -1   6  614.34   17.30
   2  -1  -6  645.14   17.40
  -2  -1   6  616.14   17.50
   2  -1  -6  625.24   17.20
   2  -1  -6  600.14   16.70
  -2  -1   6  606.74   17.30
   2  -1  -6  618.84   16.20
   2   1  -6  620.44   17.30
   2   1  -6  628.84   17.10
   2   1  -6  614.64   17.30
  -2   1   6  626.24   17.50
   2   1  -6  603.44   17.20
  -2   1   6  613.54   17.40
  -2   1   6  607.74   16.80
  -2   1   6  610.14   17.20
   1  -1  -6    2.10    0.90
   1  -1  -6    3.90    1.00
  -1  -1   6    2.20    0.90
  -1  -1   6    2.10    0.80
  -1  -1   6    2.20    0.90
  -1  -1   6    3.40    1.00
  -1  -1   6    3.20    1.00
   1  -1  -6    1.30    0.70
   1  -1  -6    3.00    0.90
   1  -1  -6    2.00    0.70
   1   1  -6    2.80    0.80
  -1   1   6    3.10    1.00
   1   1  -6    1.40    0.80
  -1   1   6    2.90    1.00
  -1   1   6    3.90    0.80
  -1   1   6    3.80    0.80
   1   1  -6    2.70    1.00
   1   1  -6    2.80    0.80
   0  -1   6   64.19    3.10
   0  -1  -6   65.69    3.00
   0  -1  -6   63.99    2.70
   0  -1   6   67.09    3.30
   0  -1  -6   67.49    3.30
   0  -1  -6   71.49    3.40
   0  -1   6   63.49    3.10
   0  -1   6   65.99    3.10
   0  -1   6   65.29    3.30
   0   1   6   65.29    2.90
   0   1   6   69.09    3.30
   0   1  -6   71.69    3.30
   0   1   6   69.49    2.70
   0   1  -6   68.39    3.30
   0   1   6   67.89    2.70
   0   1   6   70.19    3.30
   0   1   6   64.79    3.10
   0   1  -6   65.49    3.30
   0   1  -6   68.79    3.30
   1  -1   6  353.96   11.50
   1  -1   6  372.06   11.50
  -1  -1  -6  383.86   11.60
  -1  -1  -6  384.76   11.50
   1  -1   6  377.86   11.60
  -1  -1  -6  382.86   10.60
   1  -1   6  391.36   11.50
  -1  -1  -6  376.56   11.30
   1  -1   6  385.56   11.50
  -1   1  -6  386.96   11.60
   1   1   6  376.46   10.50
   1   1   6  385.66   10.60
   1   1   6  393.76   11.60
  -1   1  -6  384.36   11.60
  -1   1  -6  353.16   11.30
   1   1   6  377.66   11.40
   1   1   6  370.56   11.50
   1   1   6  370.86   11.50
  -1   1  -6  381.46   11.60
   2  -1   6 1310.57   34.40
  -2  -1  -6 1274.87   33.10
   2  -1   6 1275.87   34.20
  -2  -1  -6 1258.77   32.80
  -2  -1  -6 1268.57   34.20
  -2  -1  -6 1282.87   34.20
   2  -1   6 1229.68   32.50
  -2  -1  -6 1251.67   34.20
   2  -1   6 1259.37   34.30
   2   1   6 1235.88   32.80
  -2   1  -6 1317.67   34.40
  -2   1  -6 1263.17   34.30
   2   1   6 1287.67   34.40
  -2   1  -6 1264.97   34.20
   2   1   6 1290.77   34.30
   2   1   6 1272.27   34.70
   2   1   6 1288.27   34.20
   2   1   6 1300.17   33.10
   2   1   6 1261.17   33.10
  -3  -1  -6  119.99    5.00
   3  -1   6  142.29    5.90
  -3  -1  -6  125.59    3.90
  -3  -1  -6  126.89    5.40
  -3  -1  -6  134.19    4.40
   3  -1   6  130.99    5.50
   3  -1   6  131.99    5.30
  -3  -1  -6  122.29    5.10
   3   1   6  124.79    5.30
  -3   1  -6  128.49    5.30
   3   1   6  124.49    4.30
  -3   1  -6  131.49    5.30
   3   1   6  127.49    4.60
   3   1   6  124.59    5.10
   4  -1   6    7.70    1.70
  -4  -1  -6   11.50    1.70
  -4  -1  -6    9.60    1.70
  -4  -1  -6    8.60    1.20
  -4  -1  -6    9.30    0.80
  -4  -1  -6    9.50    1.50
   4  -1   6    6.70    1.50
  -4   1  -6    9.80    1.70
   4   1   6    9.50    1.40
   4   1   6    9.70    1.80
   4   1   6    7.90    1.40
  -4   1  -6   10.60    1.70
  -4   1  -6   10.40    1.70
   4   1   6   10.20    1.30
  -5  -1  -6   51.89    3.10
  -5  -1  -6   52.39    2.00
   5  -1   6   56.89    3.80
   5  -1   6   50.89    3.60
  -5  -1  -6   53.79    2.80
   5  -1   6   52.39    3.30
  -5  -1  -6   43.20    4.00
  -5  -1  -6   56.59    3.10
   5   1   6   51.59    3.50
   5   1   6   54.59    3.20
  -5   1  -6   54.79    3.50
   5   1   6   47.10    2.70
  -5   1  -6   50.69    3.30
   5   1   6   52.29    3.10
  -5   1  -6   54.29    3.40
  -6  -1  -6  130.39    6.50
   6  -1   6  132.89    5.70
  -6  -1  -6  134.59    4.20
  -6  -1  -6  137.69    5.30
  -6  -1  -6  140.09    5.60
  -6  -1  -6  135.69    4.20
   6  -1   6  137.29    6.60
  -6  -1  -6  134.89    5.60
   6  -1   6  127.29    6.30
  -6   1  -6  130.19    5.80
  -6   1  -6  135.79    5.80
   6   1   6  130.89    6.20
   6   1   6  136.59    5.50
   6   1   6  139.29    5.40
   6   1   6  132.09    5.90
  -6   1  -6  132.49    6.20
   7  -1   6   80.39    5.20
   7  -1   6   81.89    5.00
   7  -1   6   83.79    5.10
  -7  -1  -6   79.79    4.10
  -7  -1  -6   73.09    4.00
  -7  -1  -6   85.69    5.30
  -7   1  -6   82.59    4.90
   7   1   6   76.79    4.60
  -7   1  -6   79.59    4.40
   7   1   6   75.69    4.70
   8  -1   6   81.69    5.40
  -8  -1  -6   89.69    4.70
  -8  -1  -6  103.09    6.50
   8  -1   6   97.49    6.10
  -8  -1  -6   83.39    4.30
   8   1   6   92.69    5.40
  -8   1  -6   83.99    5.40
   8   1   6   95.69    5.50
  -8   1  -6   92.09    4.90
   9  -1   6   73.49    5.40
   9  -1   6   66.19    6.10
  -9  -1  -6   72.39    6.60
  -9  -1  -6   69.99    3.70
   9   1   6   66.29    5.00
   9   1   6   67.39    4.90
  -9   1  -6   71.09    6.40
  -9   1  -6   68.59    5.30
  -9   1  -6   63.29    4.10
 -10  -1  -6    1.60    2.50
  10  -1   6   -2.70    2.10
  10  -1   6    0.50    2.00
 -10   1  -6    0.50    1.90
 -10   1  -6   -0.10    2.30
  10   1   6    1.10    2.00
 -10   1  -6   -1.70    1.20
  10   1   6   -0.10    2.20
  11  -1   6    2.00    2.40
  11  -1   6    6.30    2.80
  11   1   6    3.70    2.30
  11   1   6    9.10    3.10
 -11   1  -6    4.80    2.60
  12  -2  -6    1.10    2.00
 -12  -2   6    3.50    2.20
 -12  -2   6    3.50    2.50
 -12  -2   6    2.20    2.40
  12  -2  -6    3.10    2.70
  12   2  -6    1.80    2.30
  12   2  -6   -1.40    2.40
 -12   2   6    4.70    2.30
 -12   2   6    0.40    2.70
  12   2  -6    1.40    2.10
  11  -2  -6    2.00    2.60
 -11  -2   6    1.20    1.80
  11  -2  -6   11.20    3.00
 -11  -2   6    3.20    1.80
 -11  -2   6    5.20    2.20
 -11  -2   6    3.50    2.10
 -11   2   6    3.50    2.20
  11   2  -6    3.30    2.20
  11   2  -6    2.30    2.40
 -11   2   6    2.80    2.60
  11   2  -6    5.60    2.40
 -10  -2   6  183.18    7.70
 -10  -2   6  176.78    8.10
  10  -2  -6  154.68    8.60
 -10  -2   6  173.68    8.30
  10  -2  -6  172.28    8.20
 -10   2   6  182.38    6.50
  10   2  -6  167.78    8.30
  10   2  -6  179.68    8.40
 -10   2   6  177.88    9.00
 -10   2   6  173.78    8.20
  10   2  -6  179.58    9.10
  -9  -2   6   50.99    4.00
   9  -2  -6   49.30    4.60
   9  -2  -6   45.00    4.80
  -9  -2   6   53.19    3.60
  -9  -2   6   51.19    4.60
  -9   2   6   55.29    5.10
   9   2  -6   56.49    5.40
  -9   2   6   54.89    4.70
  -9   2   6   53.09    3.20
   9   2  -6   45.20    4.50
   9   2  -6   50.19    4.70
  -8  -2   6  505.85   14.90
  -8  -2   6  492.55   15.80
   8  -2  -6  500.05   16.20
  -8  -2   6  480.55   12.60
   8  -2  -6  463.85   16.50
  -8  -2   6  477.85   12.60
   8  -2  -6  501.15   15.70
   8   2  -6  479.05   16.20
  -8   2   6  501.35   16.00
  -8   2   6  491.45   13.50
  -8   2   6  505.15   16.70
   8   2  -6  504.25   16.20
  -8   2   6  498.35   14.80
   8   2  -6  484.35   16.80
  -7  -2   6  411.76   13.50
  -7  -2   6  413.16   11.60
  -7  -2   6  423.16   12.60
   7  -2  -6  416.36   13.80
   7  -2  -6  431.86   14.30
   7  -2  -6  422.56   12.90
  -7  -2   6  420.06   11.60
  -7   2   6  410.76   11.10
  -7   2   6  408.96   11.10
  -7   2   6  436.16   14.40
   7   2  -6  424.26   14.00
  -7   2   6  412.16   13.70
  -7   2   6  404.86   12.80
   7   2  -6  417.76   14.00
   7   2  -6  398.46   14.30
   7   2  -6  423.06   11.60
  -7   2   6  425.46   12.90
  -6  -2   6  522.45   16.20
   6  -2  -6  539.15   15.80
  -6  -2   6  526.65   14.90
  -6  -2   6  531.45   14.90
  -6  -2   6  529.65   15.10
   6  -2  -6  537.25   16.70
   6  -2  -6  537.75   16.70
   6   2  -6  537.75   16.60
  -6   2   6  539.45   16.80
  -6   2   6  540.45   16.50
  -6   2   6  520.15   15.80
   6   2  -6  545.45   17.00
  -6   2   6  551.94   15.90
   6   2  -6  531.45   16.60
  -5  -2   6   12.20    1.30
   5  -2  -6   13.60    1.80
  -5  -2   6   11.70    1.40
  -5  -2   6   13.50    1.90
   5  -2  -6   14.40    2.00
  -5  -2   6   13.70    1.50
   5  -2  -6   13.20    1.90
  -5   2   6   11.20    1.80
  -5   2   6   10.30    1.60
   5   2  -6   11.50    2.00
  -5   2   6   16.10    2.00
   5   2  -6   13.40    2.10
  -5   2   6   14.40    2.00
   4  -2  -6   99.19    4.80
   4  -2  -6  105.59    4.70
   4  -2  -6  114.19    4.60
  -4  -2   6  105.09    4.30
  -4  -2   6  115.59    4.80
  -4  -2   6  106.79    3.60
  -4  -2   6  111.79    4.40
   4  -2  -6  108.79    4.60
  -4   2   6  113.19    4.60
  -4   2   6  114.29    4.90
   4   2  -6  101.89    4.30
   4   2  -6  102.29    5.00
  -4   2   6  105.19    4.70
   4   2  -6  107.89    4.80
  -4   2   6  110.29    4.90
  -4   2   6  104.19    4.70
   3  -2  -6  426.16   13.00
  -3  -2   6  418.96   12.60
  -3  -2   6  431.36   11.40
   3  -2  -6  431.36   12.40
  -3  -2   6  423.06   12.60
   3  -2  -6  422.86   12.60
  -3  -2   6  405.96   12.80
   3  -2  -6  440.06   13.00
  -3   2   6  409.06   12.70
  -3   2   6  428.06   13.00
  -3   2   6  435.06   12.70
   3   2  -6  427.06   11.40
   3   2  -6  415.46   13.20
  -3   2   6  416.56   12.90
  -3   2   6  410.96   12.70
   3   2  -6  421.56   12.50
   3   2  -6  419.66   12.80
   3   2  -6  432.46   13.00
  -2  -2   6   51.09    2.90
  -2  -2   6   47.10    2.80
   2  -2  -6   46.10    2.70
   2  -2  -6   45.30    2.70
   2  -2  -6   48.60    1.90
  -2  -2   6   43.50    2.70
   2  -2  -6   48.60    2.30
   2  -2  -6   50.09    2.80
   2  -2  -6   46.20    2.90
  -2  -2   6   50.49    3.00
  -2  -2   6   51.29    2.80
   2  -2  -6   46.50    3.40
   2   2  -6   54.09    3.00
   2   2  -6   45.90    3.00
   2   2  -6   52.49    2.90
  -2   2   6   47.10    2.90
  -2   2   6   47.00    2.80
  -2   2   6   51.79    2.80
   2   2  -6   48.60    2.00
  -2   2   6   44.10    2.60
   2   2  -6   50.79    3.20
   2   2  -6   52.49    2.90
   1  -2  -6 1789.72   47.20
  -1  -2   6 1763.72   47.00
  -1  -2   6 1834.32   46.60
  -1  -2   6 1798.02   47.20
  -1  -2   6 1755.92   47.00
   1  -2  -6 1850.61   47.30
  -1  -2   6 1811.72   47.10
   1  -2  -6 1797.42   45.50
   1  -2  -6 1741.13   46.80
   1  -2  -6 1787.52   46.70
   1   2  -6 1785.32   47.10
   1   2  -6 1711.83   47.10
  -1   2   6 1779.92   47.20
  -1   2   6 1817.22   47.30
   1   2  -6 1757.12   47.00
   1   2  -6 1813.22   46.80
   1   2  -6 1770.52   45.90
  -1   2   6 1779.02   46.80
   1   2  -6 1732.43   47.00
  -1   2   6 1749.62   46.60
   0  -2  -6  545.95   15.80
   0  -2  -6  536.15   15.80
   0  -2   6  539.65   15.80
   0  -2  -6  515.25   15.50
   0  -2   6  520.15   15.70
   0  -2   6  530.05   15.70
   0  -2   6  552.34   16.50
   0  -2  -6  532.85   15.10
   0  -2   6  545.65   15.50
   0   2  -6  530.65   15.80
   0   2   6  530.95   15.50
   0   2   6  540.65   15.80
   0   2  -6  533.15   15.80
   0   2   6  531.65   15.80
   0   2  -6  525.85   15.70
   0   2  -6  551.24   15.80
   0   2   6  525.45   15.10
   0   2  -6  539.15   15.20
   0   2  -6  537.35   14.90
  -1  -2  -6 1131.59   31.40
   1  -2   6 1123.69   31.50
   1  -2   6 1176.68   31.40
  -1  -2  -6 1164.18   30.70
   1  -2   6 1155.88   30.40
   1  -2   6 1162.58   31.50
  -1  -2  -6 1149.29   31.40
  -1  -2  -6 1191.48   31.50
   1   2   6 1142.49   30.60
   1   2   6 1151.58   31.50
  -1   2  -6 1170.98   31.60
   1   2   6 1132.09   32.10
   1   2   6 1158.18   29.70
  -1   2  -6 1166.58   31.60
   1   2   6 1146.09   31.40
  -1   2  -6 1146.99   31.50
  -2  -2  -6   87.69    4.10
  -2  -2  -6   87.99    4.20
   2  -2   6   80.59    4.20
  -2  -2  -6   86.69    3.50
   2  -2   6   86.39    4.30
  -2  -2  -6   79.19    4.00
   2  -2   6   86.19    4.20
   2  -2   6   84.69    3.20
   2   2   6   86.49    3.50
  -2   2  -6   81.79    4.20
   2   2   6   84.59    4.20
  -2   2  -6   84.79    4.20
   2   2   6   78.09    4.30
  -2   2  -6   85.99    4.20
   2   2   6   80.79    4.00
   2   2   6   84.99    2.50
   2   2   6   85.09    2.60
   3  -2   6    1.60    1.20
   3  -2   6    3.60    1.40
  -3  -2  -6    0.30    0.90
  -3  -2  -6    0.90    1.20
  -3  -2  -6    0.60    0.90
  -3  -2  -6    1.50    0.80
   3  -2   6    1.70    0.60
   3   2   6    2.40    1.20
   3   2   6    0.80    1.30
   3   2   6    2.60    1.10
  -3   2  -6    0.50    1.10
  -3   2  -6    2.50    1.20
   3   2   6    1.90    0.60
  -3   2  -6    1.30    1.10
  -4  -2  -6  177.08    6.70
   4  -2   6  171.48    7.00
   4  -2   6  160.88    7.00
  -4  -2  -6  184.38    6.70
   4  -2   6  168.68    5.30
  -4  -2  -6  172.68    5.80
  -4  -2  -6  164.78    7.20
  -4  -2  -6  170.28    5.00
   4   2   6  179.98    7.10
   4   2   6  167.38    7.40
   4   2   6  173.18    6.60
  -4   2  -6  166.38    6.90
  -4   2  -6  187.08    7.10
  -4   2  -6  186.88    7.30
   4   2   6  182.38    5.90
   5  -2   6   11.00    2.10
  -5  -2  -6   11.40    1.80
  -5  -2  -6   11.20    2.10
  -5  -2  -6   11.80    1.10
   5  -2   6   11.40    1.10
  -5  -2  -6   12.00    1.40
  -5  -2  -6   10.10    1.70
   5  -2   6   10.80    2.20
   5   2   6    9.70    2.30
   5   2   6    9.90    1.60
  -5   2  -6    8.40    1.80
  -5   2  -6   11.70    2.20
  -5   2  -6   15.50    2.40
   5   2   6   12.50    1.80
   5   2   6   14.60    2.30
  -6  -2  -6    9.00    1.20
   6  -2   6   10.90    2.40
  -6  -2  -6   10.80    1.80
   6  -2   6   15.90    2.30
  -6  -2  -6   14.00    2.70
   6  -2   6   10.70    2.60
  -6  -2  -6   13.90    2.40
   6   2   6    9.00    1.80
  -6   2  -6   11.90    2.40
   6   2   6    6.60    2.00
   6   2   6   13.50    2.00
   6   2   6   11.80    2.30
  -6   2  -6    9.10    2.00
  -6   2  -6   14.10    2.50
  -7  -2  -6  324.27   10.70
  -7  -2  -6  333.97   10.40
  -7  -2  -6  336.77   12.70
   7  -2   6  308.87   12.40
   7  -2   6  317.77   12.20
   7   2   6  315.67   11.60
   7   2   6  325.07   11.10
  -7   2  -6  319.87   12.20
  -8  -2  -6  182.08    6.90
  -8  -2  -6  200.18    9.40
   8  -2   6  179.28    8.60
   8  -2   6  171.08    8.90
  -8   2  -6  164.58    8.20
   8   2   6  177.18    7.80
  -8   2  -6  181.88    7.70
   8   2   6  178.78    8.00
  -9  -2  -6    2.20    2.30
  -9  -2  -6    1.00    1.20
   9  -2   6    0.90    2.30
   9  -2   6   -0.40    1.90
   9   2   6   -1.90    1.80
  -9   2  -6    0.60    1.90
  -9   2  -6    2.30    1.60
   9   2   6    1.00    1.90
 -10  -2  -6   15.80    3.90
  10  -2   6   17.60    3.90
  10  -2   6    7.60    3.00
 -10   2  -6   12.40    3.40
  10   2   6   16.40    3.20
  10   2   6   11.70    3.00
 -10   2  -6    9.60    2.30
  12  -3  -6   14.90    3.50
 -12  -3   6    7.80    2.90
  12  -3  -6    6.10    3.20
 -12  -3   6    5.30    2.70
  12   3  -6    6.10    2.90
  12   3  -6    7.80    3.30
  12   3  -6    6.40    3.20
 -12   3   6   15.10    3.60
 -11  -3   6   32.90    4.30
  11  -3  -6   32.80    5.00
 -11  -3   6   33.20    4.50
  11  -3  -6   30.30    4.30
 -11  -3   6   33.50    4.50
 -11   3   6   38.40    5.00
  11   3  -6   33.60    4.70
 -11   3   6   33.80    4.30
  11   3  -6   32.30    4.60
 -11   3   6   37.00    3.30
  11   3  -6   34.30    4.50
 -10  -3   6    0.90    1.80
 -10  -3   6   -1.80    1.60
  10  -3  -6    1.60    1.80
  10  -3  -6    2.40    2.30
 -10  -3   6   -0.70    1.40
  10   3  -6    1.30    2.10
 -10   3   6   -3.10    1.80
  10   3  -6   -0.90    1.80
 -10   3   6    0.60    1.80
 -10   3   6   -1.20    1.20
  -9  -3   6  188.98    7.50
   9  -3  -6  162.68    8.70
  -9  -3   6  182.58    8.50
   9  -3  -6  169.98    8.20
   9   3  -6  179.38    8.50
  -9   3   6  181.28    8.30
   9   3  -6  182.68    8.80
  -9   3   6  175.58    7.40
  -9   3   6  184.88    9.10
   8  -3  -6   20.40    3.30
  -8  -3   6   22.20    1.70
  -8  -3   6   24.40    3.40
   8  -3  -6   25.80    3.50
  -8  -3   6   24.50    2.70
   8   3  -6   21.20    3.40
   8   3  -6   25.50    3.50
  -8   3   6   27.70    3.40
  -8   3   6   19.20    2.60
  -8   3   6   21.30    3.40
  -7  -3   6  130.19    5.60
  -7  -3   6  127.49    4.90
   7  -3  -6  125.39    6.50
   7  -3  -6  124.09    6.40
  -7  -3   6  134.29    5.40
   7  -3  -6  127.39    6.00
  -7  -3   6  123.79    6.40
  -7   3   6  127.19    5.90
  -7   3   6  132.19    6.60
  -7   3   6  140.79    6.50
   7   3  -6  128.69    6.50
   7   3  -6  116.79    6.60
   6  -3  -6  387.36   13.40
   6  -3  -6  407.36   13.20
   6  -3  -6  402.76   13.60
  -6  -3   6  402.26   13.50
  -6  -3   6  394.36   12.10
  -6  -3   6  416.46   12.20
  -6  -3   6  400.96   12.10
   6   3  -6  415.36   12.20
  -6   3   6  410.16   13.20
   6   3  -6  392.66   13.50
  -6   3   6  389.56   13.00
   6   3  -6  391.36   13.80
  -6   3   6  408.86   13.80
  -6   3   6  426.46   13.60
   5  -3  -6  192.68    7.50
  -5  -3   6  198.28    7.90
  -5  -3   6  198.38    7.00
  -5  -3   6  195.38    7.00
   5  -3  -6  191.18    7.70
   5  -3  -6  204.38    7.70
  -5  -3   6  185.98    6.50
  -5   3   6  185.78    7.70
   5   3  -6  182.18    8.00
  -5   3   6  203.28    7.70
   5   3  -6  180.48    7.70
   5   3  -6  200.08    7.00
  -5   3   6  208.28    7.80
  -5   3   6  198.58    7.80
   5   3  -6  196.18    6.60
   4  -3  -6  225.58    8.00
   4  -3  -6  218.28    8.40
  -4  -3   6  223.18    7.90
  -4  -3   6  240.78    8.00
   4  -3  -6  230.08    8.50
   4  -3  -6  249.18    8.50
  -4  -3   6  224.68    8.40
   4  -3  -6  225.18    6.10
  -4  -3   6  224.18    7.20
   4   3  -6  230.58    7.30
   4   3  -6  224.68    8.50
   4   3  -6  228.58    8.80
   4   3  -6  220.18    7.90
  -4   3   6  227.88    8.40
  -4   3   6  230.08    8.50
  -4   3   6  221.18    8.30
  -4   3   6  235.08    8.50
   3  -3  -6  310.17   10.20
   3  -3  -6  294.77   10.20
   3  -3  -6  311.57    9.50
   3  -3  -6  294.87   10.30
  -3  -3   6  307.17    9.10
   3  -3  -6  309.37    8.50
  -3  -3   6  310.57   10.00
  -3  -3   6  298.37   10.30
  -3  -3   6  290.37    9.90
  -3   3   6  298.47   10.10
  -3   3   6  299.77    9.90
   3   3  -6  312.87    9.10
   3   3  -6  301.17   10.30
  -3   3   6  291.87   10.20
   3   3  -6  287.67   10.50
   3   3  -6  303.77   10.00
   2  -3  -6  114.09    5.10
  -2  -3   6  110.59    5.10
  -2  -3   6  118.49    4.30
  -2  -3   6  121.89    4.70
  -2  -3   6  118.29    5.40
  -2  -3   6  116.79    5.20
   2  -3  -6  116.89    4.30
   2  -3  -6  113.39    4.10
   2  -3  -6  119.39    5.40
  -2   3   6  120.99    4.30
   2   3  -6  120.99    5.20
   2   3  -6  120.79    5.60
  -2   3   6  113.29    5.10
   2   3  -6  124.99    5.40
  -2   3   6  111.79    4.60
  -2   3   6  118.69    5.40
   2   3  -6  112.19    5.10
   2   3  -6  116.29    4.30
  -1  -3   6  306.37   10.00
  -1  -3   6  306.57   10.50
   1  -3  -6  322.17   10.60
  -1  -3   6  324.37   10.70
   1  -3  -6  316.27    8.90
   1  -3  -6  317.37    9.60
  -1  -3   6  306.47   10.50
   1  -3  -6  316.37   10.80
  -1   3   6  322.17   10.30
  -1   3   6  322.27    9.60
   1   3  -6  328.17   10.80
  -1   3   6  329.27   10.80
  -1   3   6  323.17   10.00
   1   3  -6  330.07    9.70
   1   3  -6  316.57   10.60
   1   3  -6  309.07   10.80
   0  -3  -6   19.80    2.30
   0  -3   6   26.10    2.50
   0  -3   6   21.30    2.40
   0  -3   6   19.70    2.40
   0  -3   6   20.20    2.40
   0  -3  -6   28.40    2.80
   0  -3  -6   20.40    2.00
   0   3  -6   21.00    2.30
   0   3  -6   19.00    2.40
   0   3   6   16.50    2.00
   0   3   6   19.80    2.40
   0   3   6   19.20    1.40
   0   3  -6   17.90    1.90
   0   3   6   16.90    2.00
  -1  -3  -6   50.19    3.40
  -1  -3  -6   50.89    3.50
   1  -3   6   53.39    2.90
   1  -3   6   54.49    3.60
  -1  -3  -6   56.69    3.50
   1  -3   6   53.79    3.40
  -1  -3  -6   55.09    3.20
   1  -3   6   50.39    3.40
   1   3   6   54.69    3.40
   1   3   6   48.10    3.40
  -1   3  -6   48.80    3.30
  -1   3  -6   55.69    3.60
   1   3   6   50.19    1.80
   1   3   6   53.49    3.10
  -1   3  -6   52.69    3.50
   2  -3   6   -1.30    1.00
   2  -3   6    1.40    0.90
  -2  -3  -6   -0.20    1.10
   2  -3   6    0.00    0.90
   2  -3   6    1.20    1.00
  -2  -3  -6    0.30    1.10
  -2  -3  -6    0.80    1.10
  -2  -3  -6    1.40    1.10
   2   3   6    1.40    0.90
  -2   3  -6    0.00    1.20
  -2   3  -6    1.50    1.40
   2   3   6    0.60    1.30
   2   3   6    1.20    1.30
  -3  -3  -6  428.16   14.20
   3  -3   6  438.16   14.20
   3  -3   6  423.06   14.10
   3  -3   6  432.86   14.10
   3  -3   6  449.66   12.80
  -3  -3  -6  444.26   13.90
  -3  -3  -6  427.06   13.80
   3   3   6  446.26   13.90
   3   3   6  446.06   14.10
  -3   3  -6  425.36   14.10
  -3   3  -6  439.16   14.40
   3   3   6  425.66   14.50
   4  -3   6    6.70    1.80
   4  -3   6   10.10    1.40
   4  -3   6    9.20    2.10
   4  -3   6    6.60    1.80
  -4  -3  -6    7.50    1.70
  -4  -3  -6    6.80    1.80
  -4  -3  -6    5.70    1.60
  -4   3  -6    7.90    1.90
   4   3   6    7.00    1.70
   4   3   6    7.20    2.10
   4   3   6    9.30    1.80
  -4   3  -6    8.20    1.90
   5  -3   6   85.99    5.10
   5  -3   6   80.79    4.80
   5  -3   6   78.49    3.80
  -5  -3  -6   71.99    4.80
  -5  -3  -6   90.79    5.50
  -5  -3  -6   74.49    4.30
  -5   3  -6   71.09    5.00
   5   3   6   81.49    3.60
   5   3   6   69.99    4.50
   5   3   6   74.09    4.20
  -5   3  -6   67.69    4.50
   5   3   6   64.69    4.80
  -6  -3  -6    6.70    2.30
  -6  -3  -6    7.90    1.80
   6  -3   6    7.80    2.20
   6  -3   6    3.90    2.00
   6   3   6    8.20    2.50
  -6   3  -6    7.00    2.30
   6   3   6    6.80    2.00
   6   3   6    6.30    1.50
  -6   3  -6    6.90    2.00
  -7  -3  -6   31.30    3.10
   7  -3   6   37.10    4.70
   7  -3   6   32.20    4.10
  -7  -3  -6   32.00    4.20
  -7   3  -6   32.30    4.10
   7   3   6   35.30    3.90
   7   3   6   29.50    3.10
   7   3   6   28.20    4.20
  -7   3  -6   32.20    3.70
   8  -3   6   16.70    3.30
  -8  -3  -6   10.60    3.10
  -8  -3  -6   14.00    2.20
  -8  -3  -6    9.60    3.00
   8  -3   6   10.50    3.10
   8   3   6   13.30    2.70
  -8   3  -6    9.90    2.50
  -8   3  -6   10.20    2.70
   8   3   6   10.30    3.00
  -9  -3  -6   64.89    6.40
   9  -3   6   61.09    6.10
  -9  -3  -6   70.59    6.90
  -9  -3  -6   71.09    4.00
   9  -3   6   71.99    7.10
  -9   3  -6   68.39    6.50
   9   3   6   67.29    5.10
  10  -3   6   82.29    6.50
  10  -3   6   94.69    7.50
  10   3   6   86.89    6.10
 -10   3  -6  115.39    7.70
 -10   3  -6   95.69    6.00
 -11  -4   6    4.00    2.80
  11  -4  -6    0.00    2.40
  11  -4  -6    0.10    2.60
  11   4  -6    4.10    2.70
 -11   4   6   -2.00    2.00
  11   4  -6    1.10    2.30
 -11   4   6    0.50    1.70
  10  -4  -6    1.10    2.40
  10  -4  -6    1.80    2.00
 -10  -4   6    2.30    2.30
  10   4  -6   -2.90    1.60
 -10   4   6    3.30    2.30
  10   4  -6   -1.40    1.90
 -10   4   6    0.00    1.70
 -10   4   6   -0.40    2.20
   9  -4  -6    4.90    2.10
  -9  -4   6    7.80    2.00
   9  -4  -6    3.20    2.20
  -9  -4   6    9.80    3.00
   9   4  -6    4.80    2.50
  -9   4   6    8.50    3.10
  -9   4   6    6.90    2.20
   9   4  -6   11.60    3.20
  -9   4   6    9.40    2.70
   8  -4  -6    2.00    1.90
  -8  -4   6    3.10    1.70
   8  -4  -6    5.30    2.30
  -8  -4   6    1.90    2.00
  -8  -4   6    3.40    1.30
   8   4  -6    4.50    2.10
  -8   4   6    1.30    1.50
   8   4  -6    4.60    2.40
  -8   4   6    2.90    1.70
  -8   4   6    1.90    1.80
  -7  -4   6  232.88    8.20
   7  -4  -6  224.98    9.70
  -7  -4   6  233.58    8.60
  -7  -4   6  241.48   10.10
   7  -4  -6  236.68    9.60
   7  -4  -6  241.18    9.90
   7   4  -6  217.68   10.20
  -7   4   6  236.88   10.00
   7   4  -6  236.18    9.90
  -7   4   6  234.88    9.50
  -7   4   6  222.28    9.50
  -6  -4   6  212.08    7.80
   6  -4  -6  196.68    8.70
   6  -4  -6  194.88    8.60
  -6  -4   6  214.38    9.10
  -6  -4   6  213.68    7.70
   6  -4  -6  208.98    8.80
   6   4  -6  206.48    9.40
   6   4  -6  219.88    8.60
  -6   4   6  216.38    8.90
  -6   4   6  213.48    8.80
  -6   4   6  215.78    9.10
   6   4  -6  191.18    8.60
   5  -4  -6  100.39    5.70
  -5  -4   6  113.79    4.90
  -5  -4   6  111.59    5.30
   5  -4  -6  109.19    5.70
   5  -4  -6  108.89    5.50
  -5  -4   6  106.09    6.00
  -5  -4   6  107.19    5.20
  -5   4   6  114.39    5.90
   5   4  -6  108.39    5.90
   5   4  -6  105.29    5.10
  -5   4   6  108.39    5.80
   5   4  -6   98.49    6.10
  -5   4   6  112.49    5.90
  -4  -4   6   10.50    2.10
   4  -4  -6   13.40    1.30
   4  -4  -6   12.50    2.40
  -4  -4   6   14.00    1.80
  -4  -4   6   10.90    2.10
   4  -4  -6    9.40    2.20
   4  -4  -6   13.00    2.20
   4  -4  -6   12.10    1.90
  -4  -4   6   10.90    1.90
  -4   4   6   13.10    2.20
   4   4  -6   10.20    1.90
  -4   4   6    8.20    2.00
   4   4  -6    9.70    2.00
  -4   4   6   15.30    2.50
   4   4  -6   13.30    1.80
   4   4  -6   12.40    2.60
   3  -4  -6   -0.20    0.80
   3  -4  -6   -0.80    0.70
   3  -4  -6   -1.80    1.10
   3  -4  -6   -0.10    1.00
  -3  -4   6   -0.40    0.90
  -3  -4   6    0.90    1.50
  -3  -4   6    0.80    1.10
  -3  -4   6    1.60    1.20
  -3   4   6    2.10    1.10
  -3   4   6    2.00    1.60
   3   4  -6    0.40    0.90
  -3   4   6   -0.20    0.60
   3   4  -6   -0.20    1.20
   3   4  -6   -0.90    0.90
  -3   4   6   -0.80    1.20
   2  -4  -6   67.49    3.20
   2  -4  -6   63.59    3.20
   2  -4  -6   67.59    4.30
  -2  -4   6   63.79    4.10
  -2  -4   6   69.69    4.30
   2  -4  -6   65.09    4.20
  -2  -4   6   68.19    3.60
  -2   4   6   70.89    4.20
   2   4  -6   75.59    3.70
   2   4  -6   67.99    4.20
   2   4  -6   60.29    3.90
  -2   4   6   68.99    3.70
   2   4  -6   72.29    4.40
  -2   4   6   70.49    4.40
  -2   4   6   72.29    3.50
   1  -4  -6  123.99    6.10
   1  -4  -6  126.09    4.40
  -1  -4   6  128.59    6.10
   1  -4  -6  119.49    5.90
  -1  -4   6  139.89    6.30
   1  -4  -6  131.29    5.20
  -1  -4   6  119.59    5.50
  -1   4   6  128.59    5.80
  -1   4   6  132.79    4.90
  -1   4   6  121.79    6.10
   1   4  -6  130.69    6.00
   1   4  -6  127.09    6.10
   1   4  -6  123.59    6.10
  -1   4   6  124.79    5.30
   0  -4   6  284.27   10.50
   0  -4   6  285.37   10.10
   0  -4  -6  290.27   10.70
   0  -4  -6  288.17    9.70
   0  -4  -6  287.57    8.00
   0  -4   6  298.07   10.80
   0  -4  -6  298.77   10.70
   0   4  -6  293.17   10.70
   0   4   6  291.27    8.70
   0   4  -6  298.27   10.80
   0   4   6  299.67   10.20
   0   4   6  282.47   10.50
   0   4  -6  307.47   10.70
   0   4   6  277.57    9.90
  -1  -4  -6  319.87   11.60
   1  -4   6  312.47   11.40
   1  -4   6  342.87   12.00
   1  -4   6  329.97   11.60
  -1  -4  -6  335.57   11.20
  -1  -4  -6  338.57   11.80
   1   4   6  327.17    9.10
   1   4   6  346.27   11.80
  -1   4  -6  343.37   11.90
   1   4   6  342.57   11.20
  -1   4  -6  321.87   11.80
   1   4   6  332.07   11.50
  -2  -4  -6   26.30    3.20
  -2  -4  -6   29.50    3.20
   2  -4   6   20.00    3.00
   2  -4   6   25.70    3.20
  -2  -4  -6   22.30    2.90
   2   4   6   22.20    3.10
   2   4   6   24.20    3.00
   2   4   6   20.30    2.70
  -2   4  -6   21.50    3.10
  -2   4  -6   30.30    3.50
  -3  -4  -6   84.79    5.00
   3  -4   6   78.29    5.00
   3  -4   6   73.09    5.00
   3  -4   6   68.59    4.80
  -3  -4  -6   84.09    4.80
  -3  -4  -6   76.89    4.90
   3   4   6   77.79    4.70
  -3   4  -6   74.89    5.10
  -3   4  -6   71.99    5.00
   3   4   6   69.79    4.80
   4  -4   6   25.40    3.40
   4  -4   6   22.60    3.20
  -4  -4  -6   23.00    2.90
  -4  -4  -6   24.90    3.40
   4  -4   6   24.60    3.30
  -4  -4  -6   29.40    3.60
  -4   4  -6   24.60    3.50
   4   4   6   25.80    3.10
   4   4   6   21.10    3.40
   4   4   6   24.80    3.20
  -4   4  -6   21.90    3.20
   5  -4   6   38.60    4.30
   5  -4   6   46.70    4.60
  -5  -4  -6   47.70    4.80
  -5  -4  -6   39.40    3.80
  -5  -4  -6   49.30    4.90
  -5   4  -6   44.50    4.50
   5   4   6   45.60    4.00
   5   4   6   45.70    4.40
   5   4   6   45.10    4.90
  -5   4  -6   51.29    4.70
   6  -4   6    0.10    1.60
   6  -4   6    1.30    2.10
  -6  -4  -6    6.50    2.50
  -6  -4  -6    2.80    1.70
  -6  -4  -6    2.40    1.70
  -6   4  -6    2.70    1.90
  -6   4  -6    4.30    2.40
   6   4   6    2.40    1.90
   6   4   6    2.80    1.80
  -7  -4  -6   -0.10    1.40
   7  -4   6   -0.80    1.90
   7  -4   6   -1.50    1.90
  -7  -4  -6   -1.90    1.90
  -7  -4  -6    1.80    2.30
  -7   4  -6    1.10    1.80
  -7   4  -6   -2.10    1.70
   7   4   6    2.40    2.40
   7   4   6   -2.20    1.60
  -8  -4  -6    1.10    1.50
   8  -4   6   -0.20    2.10
  -8  -4  -6   -2.70    1.30
  -8  -4  -6   -0.40    1.70
   8  -4   6    0.60    2.20
   8   4   6    0.00    1.70
   8   4   6   -0.90    2.30
  -8   4  -6   -3.80    1.80
  -8   4  -6   -2.30    1.80
  -9  -4  -6    8.90    3.60
   9  -4   6   10.70    3.50
   9  -4   6    9.30    3.10
  -9  -4  -6    9.30    2.60
  -9  -4  -6    6.50    3.10
   9   4   6    5.70    2.60
  -9   4  -6   11.10    3.00
  -9   4  -6    8.80    3.40
   9   4   6   13.90    4.00
  10  -5  -6   14.30    3.70
 -10  -5   6   18.80    3.80
  10  -5  -6   15.20    3.60
  10   5  -6   14.00    4.00
 -10   5   6   19.40    3.60
 -10   5   6   20.40    3.90
  -9  -5   6   32.40    4.20
  -9  -5   6   35.00    4.90
   9  -5  -6   25.70    4.10
   9  -5  -6   29.60    4.50
   9   5  -6   26.10    4.70
  -9   5   6   33.00    4.40
  -9   5   6   25.90    4.10
  -9   5   6   32.30    4.20
   8  -5  -6  116.59    7.20
  -8  -5   6  124.49    7.60
  -8  -5   6  114.49    5.50
   8  -5  -6  119.39    7.20
  -8   5   6  126.89    7.60
  -8   5   6  121.99    7.00
  -8   5   6  103.19    6.80
   8   5  -6  116.79    7.80
  -7  -5   6   14.70    3.20
  -7  -5   6   12.60    2.50
   7  -5  -6   14.30    3.20
  -7  -5   6   14.30    2.40
   7  -5  -6   17.10    3.20
   7  -5  -6   16.20    3.00
  -7   5   6   18.50    3.20
  -7   5   6   10.10    2.50
   7   5  -6   13.80    3.00
  -7   5   6   11.80    2.90
   6  -5  -6    1.20    1.70
  -6  -5   6    1.70    1.50
   6  -5  -6    0.90    1.80
  -6  -5   6   -0.70    1.30
   6  -5  -6    2.10    1.70
  -6  -5   6    0.50    1.90
   6   5  -6    0.50    2.10
  -6   5   6    0.00    1.80
  -6   5   6    2.90    2.00
  -6   5   6   -0.60    1.60
  -5  -5   6  185.18    7.40
  -5  -5   6  180.38    7.90
   5  -5  -6  202.78    8.90
   5  -5  -6  184.88    8.50
  -5  -5   6  183.38    8.50
   5  -5  -6  176.48    7.80
   5   5  -6  154.28    8.60
   5   5  -6  188.88    8.00
  -5   5   6  185.48    8.20
  -5   5   6  178.88    8.60
  -5   5   6  184.38    8.40
  -4  -5   6    5.30    2.00
   4  -5  -6    5.60    1.30
  -4  -5   6    5.90    2.30
   4  -5  -6    3.90    2.10
   4  -5  -6    2.40    2.00
  -4  -5   6    5.10    1.70
   4  -5  -6    6.10    1.70
  -4   5   6    7.40    2.00
   4   5  -6    7.10    2.10
   4   5  -6   -0.50    2.00
  -4   5   6    2.50    2.00
  -4   5   6    3.20    1.60
  -3  -5   6   56.09    5.10
   3  -5  -6   70.69    4.80
  -3  -5   6   66.89    4.70
   3  -5  -6   65.99    3.50
  -3  -5   6   62.19    4.00
   3  -5  -6   63.49    4.80
   3  -5  -6   65.69    3.80
   3   5  -6   64.89    5.00
  -3   5   6   81.99    5.30
  -3   5   6   69.39    4.30
  -3   5   6   68.79    3.50
   3   5  -6   79.69    4.90
  -3   5   6   72.49    4.80
   2  -5  -6   -0.20    1.10
   2  -5  -6    3.90    1.30
   2  -5  -6    2.90    1.90
  -2  -5   6    2.40    1.80
   2  -5  -6    3.80    2.00
  -2  -5   6    1.50    1.80
  -2  -5   6    1.90    1.30
   2   5  -6    0.80    1.70
   2   5  -6    0.10    1.30
  -2   5   6    1.60    1.30
  -2   5   6    0.10    1.10
  -2   5   6    1.50    1.90
   2   5  -6    1.00    1.50
  -2   5   6    1.80    1.20
   1  -5  -6   51.79    4.80
   1  -5  -6   50.39    3.40
  -1  -5   6   59.39    3.80
  -1  -5   6   62.99    4.60
   1  -5  -6   53.09    4.10
  -1  -5   6   57.59    4.30
  -1   5   6   55.29    4.20
  -1   5   6   56.09    5.00
   1   5  -6   57.99    4.50
   1   5  -6   47.80    4.40
  -1   5   6   57.89    3.30
  -1   5   6   56.69    3.70
   1   5  -6   54.69    4.40
   0  -5  -6  123.09    6.60
   0  -5  -6  118.39    6.50
   0  -5   6  121.69    6.60
   0  -5   6  111.79    6.10
   0  -5  -6  124.09    5.70
   0   5   6  123.09    6.60
   0   5   6  123.39    6.10
   0   5   6  123.49    4.60
   0   5  -6  118.29    6.50
   0   5  -6  112.69    6.10
   0   5  -6  115.39    6.40
   0   5   6  125.79    6.20
   1  -5   6  255.77   10.60
  -1  -5  -6  262.47   10.50
  -1  -5  -6  256.67   10.40
  -1  -5  -6  254.67    9.80
   1  -5   6  271.87   10.60
   1   5   6  273.07   10.60
  -1   5  -6  266.67   10.60
  -1   5  -6  281.67   10.90
   1   5   6  249.28   10.00
   1   5   6  260.17    7.60
   1   5   6  264.07   10.00
  -1   5  -6  249.08   10.30
   2  -5   6  575.34   18.00
  -2  -5  -6  536.35   17.40
   2  -5   6  536.85   18.20
  -2  -5  -6  562.34   18.20
  -2  -5  -6  552.04   17.90
   2  -5   6  506.75   17.70
  -2   5  -6  520.55   17.80
  -2   5  -6  531.95   17.70
  -2   5  -6  546.15   18.20
   2   5   6  528.65   17.20
   2   5   6  545.05   17.80
   2   5   6  532.45   17.80
   3  -5   6    4.20    2.20
   3  -5   6    3.60    2.20
  -3  -5  -6   -0.70    1.70
   3  -5   6    2.30    1.90
  -3  -5  -6    2.90    1.70
  -3  -5  -6    3.60    2.00
   3   5   6    2.00    2.10
   3   5   6   -1.50    1.60
  -3   5  -6   -0.30    1.70
  -3   5  -6    2.70    1.90
  -3   5  -6    3.30    2.20
  -4  -5  -6   17.30    3.30
   4  -5   6   23.60    3.60
  -4  -5  -6   14.70    3.00
   4  -5   6   20.10    3.40
   4  -5   6   18.70    3.40
  -4  -5  -6   16.30    2.90
   4   5   6   13.90    3.30
  -4   5  -6   20.50    3.30
  -4   5  -6   18.40    3.40
   4   5   6   21.40    3.20
   5  -5   6    2.20    2.10
   5  -5   6    0.10    1.80
  -5  -5  -6    4.00    2.00
  -5  -5  -6    0.50    2.00
   5  -5   6    3.90    2.30
  -5  -5  -6    3.30    1.90
   5   5   6    2.70    2.00
  -5   5  -6    2.70    2.10
   5   5   6    1.40    1.80
  -5   5  -6   -0.40    1.50
  -6  -5  -6   10.10    3.00
   6  -5   6    7.00    2.90
  -6  -5  -6    5.10    2.60
  -6  -5  -6    5.50    2.20
   6  -5   6    4.20    2.50
  -6   5  -6    6.60    2.90
   6   5   6   15.20    3.60
  -6   5  -6    6.60    2.50
   6   5   6    8.30    2.40
  -7  -5  -6   13.30    3.60
   7  -5   6   18.80    4.00
  -7  -5  -6   15.10    3.60
  -7  -5  -6   18.80    3.00
   7  -5   6   17.30    3.70
   7   5   6   15.70    3.50
  -7   5  -6   13.30    3.20
  -7   5  -6   17.30    3.60
   7   5   6   16.20    3.40
   8  -5   6   13.40    3.70
  -8  -5  -6   14.80    4.40
  -8  -5  -6   10.50    3.10
   8  -5   6    8.10    3.40
  -8  -5  -6   16.30    2.90
   8   5   6   16.60    4.30
   8   5   6    9.90    2.80
  -8   5  -6    9.10    4.00
  -8   5  -6    5.00    2.90
   9  -6  -6   15.40    3.80
   8  -6  -6    3.90    2.80
   8  -6  -6    9.20    3.10
  -8  -6   6    0.00    2.60
  -8  -6   6    3.70    1.90
  -8   6   6    8.80    3.10
   8   6  -6    3.50    3.00
  -8   6   6    9.00    3.30
  -8   6   6   13.10    3.40
  -7  -6   6    0.50    1.70
  -7  -6   6    1.10    2.40
   7  -6  -6   -1.00    1.50
   7  -6  -6    1.10    2.00
  -7   6   6    0.70    2.10
  -7   6   6   -1.90    1.90
   7   6  -6    2.40    2.10
  -7   6   6   -0.90    2.10
   6  -6  -6   17.50    3.60
   6  -6  -6   19.50    3.70
  -6  -6   6   16.40    2.70
  -6  -6   6   18.30    3.20
  -6  -6   6   17.10    3.80
   6  -6  -6   24.70    3.70
  -6   6   6   24.80    3.80
  -6   6   6   18.20    3.40
   6   6  -6   18.90    3.70
  -6   6   6   15.10    3.30
  -5  -6   6   20.40    3.80
   5  -6  -6   25.70    4.20
  -5  -6   6   25.00    3.60
  -5  -6   6   15.50    2.60
   5  -6  -6   18.20    3.00
  -5   6   6   22.90    3.40
  -5   6   6   23.30    3.50
  -5   6   6   26.30    4.20
   5   6  -6   19.60    3.90
  -4  -6   6    9.70    3.10
   4  -6  -6   10.80    2.90
  -4  -6   6   12.10    2.30
   4  -6  -6   11.40    2.40
  -4  -6   6   15.40    3.10
   4  -6  -6    6.60    2.90
   4   6  -6   13.30    3.90
  -4   6   6    4.60    2.50
  -4   6   6   12.60    3.00
  -4   6   6   10.30    2.60
   4   6  -6   14.70    3.50
  -3  -6   6   55.59    4.30
  -3  -6   6   58.69    5.70
   3  -6  -6   56.89    5.60
  -3  -6   6   60.59    5.50
   3  -6  -6   57.89    3.90
   3  -6  -6   56.29    3.70
   3  -6  -6   55.39    5.50
  -3   6   6   59.99    5.80
  -3   6   6   55.89    5.30
   3   6  -6   54.49    5.70
  -3   6   6   51.39    4.20
   3   6  -6   51.69    5.10
   2  -6  -6   33.80    3.30
  -2  -6   6   41.30    4.60
   2  -6  -6   38.80    4.60
  -2  -6   6   34.30    4.50
  -2  -6   6   37.90    3.80
   2  -6  -6   46.90    4.80
   2   6  -6   33.70    4.00
   2   6  -6   38.00    4.40
  -2   6   6   30.20    3.90
  -2   6   6   39.50    3.60
  -2   6   6   38.00    4.70
  -2   6   6   30.00    3.20
   2   6  -6   33.60    4.50
  -1  -6   6    1.40    1.70
   1  -6  -6    0.30    1.60
   1  -6  -6   -0.90    1.90
   1  -6  -6    1.40    2.00
  -1  -6   6   -0.70    1.90
  -1   6   6    1.10    1.80
   1   6  -6   -0.60    1.70
  -1   6   6   -0.40    1.60
  -1   6   6    0.10    1.20
   1   6  -6   -3.00    1.50
  -1   6   6    3.20    2.30
   1   6  -6    1.30    2.20
   0  -6   6   38.90    4.50
   0  -6   6   30.40    4.20
   0  -6  -6   35.30    3.80
   0  -6  -6   38.20    4.50
   0  -6  -6   32.40    4.30
   0   6  -6   39.10    4.60
   0   6  -6   40.10    4.70
   0   6   6   34.20    4.50
   0   6   6   28.00    3.70
   0   6  -6   43.60    4.50
   0   6   6   34.30    3.90
   1  -6   6   51.69    5.00
  -1  -6  -6   49.00    4.50
  -1  -6  -6   41.90    4.80
  -1  -6  -6   43.50    4.80
   1  -6   6   42.00    4.90
  -1   6  -6   37.90    4.70
  -1   6  -6   39.00    4.40
   1   6   6   47.60    4.70
  -1   6  -6   42.00    4.80
   1   6   6   49.00    5.10
   1   6   6   42.90    4.50
  -2  -6  -6    7.70    2.90
  -2  -6  -6    4.20    2.20
   2  -6   6    7.70    2.90
  -2  -6  -6   14.00    3.10
   2  -6   6   13.00    2.70
  -2   6  -6   14.50    3.20
   2   6   6   14.30    3.10
   2   6   6   11.30    2.80
  -2   6  -6   13.80    3.30
  -2   6  -6   11.10    2.90
  -3  -6  -6    3.60    2.40
   3  -6   6    4.20    2.10
  -3  -6  -6    3.60    2.30
   3  -6   6    0.10    2.00
  -3  -6  -6    5.80    2.60
  -3   6  -6    3.80    2.60
   3   6   6    2.20    2.10
  -3   6  -6    4.90    2.20
  -3   6  -6   -0.20    2.10
   3   6   6    5.30    2.50
  -4  -6  -6   21.80    4.00
  -4  -6  -6   13.00    3.20
   4  -6   6   19.30    3.50
  -4  -6  -6   21.50    3.60
   4  -6   6   19.50    3.80
  -4   6  -6    9.70    3.20
  -4   6  -6   20.20    3.90
  -4   6  -6   18.20    3.50
   4   6   6   13.10    3.60
  -5  -6  -6   15.40    3.70
   5  -6   6    9.50    3.30
  -5  -6  -6    9.70    3.00
   5  -6   6    9.60    2.80
  -5  -6  -6   10.40    3.10
   5   6   6   12.60    3.50
  -5   6  -6   13.00    3.50
  -5   6  -6   11.90    3.30
  -5   6  -6    7.50    2.80
  -6  -6  -6   22.50    4.40
  -6  -6  -6   34.70    4.40
  -6  -6  -6   19.20    4.20
  -6   6  -6   23.80    3.90
   6   6   6   26.90    4.10
   6   6   6   25.80    4.80
  -6   6  -6   18.10    4.00
  -6   6  -6   26.10    4.70
  -7  -6  -6   17.40    3.30
   7  -6   6   12.90    3.90
   7   6   6   13.20    4.20
   7   6   6   18.80    3.50
  -6  -7   6   72.79    5.70
   6  -7  -6   79.79    5.90
   6  -7  -6   67.79    6.90
   6  -7  -6   78.39    7.80
  -6   7   6   69.09    7.60
  -6   7   6   66.89    6.40
   6   7  -6   56.89    6.70
  -5  -7   6   25.10    4.00
  -5  -7   6   12.80    3.40
   5  -7  -6   19.50    4.20
  -5   7   6   18.60    3.80
  -5   7   6   19.50    4.20
  -5   7   6   17.60    3.80
   5   7  -6   18.00    4.50
   4  -7  -6   67.49    6.70
  -4  -7   6   76.89    5.50
  -4  -7   6   80.19    6.20
  -4  -7   6   63.69    6.50
   4  -7  -6   66.39    6.70
  -4   7   6   63.89    6.60
  -4   7   6   58.79    5.90
   4   7  -6   63.59    6.70
  -4   7   6   59.89    5.50
   3  -7  -6   57.19    6.30
  -3  -7   6   66.39    6.60
   3  -7  -6   64.19    6.50
  -3  -7   6   48.30    4.80
  -3  -7   6   52.79    5.70
   3   7  -6   49.90    6.00
  -3   7   6   51.29    5.60
  -3   7   6   61.49    6.40
  -2  -7   6   10.50    2.80
  -2  -7   6   10.90    3.50
  -2  -7   6   16.30    3.70
   2  -7  -6   10.30    3.10
   2  -7  -6    9.70    3.30
  -2   7   6   16.50    3.80
   2   7  -6   11.10    3.50
  -2   7   6   12.90    3.20
   2   7  -6   16.50    3.70
   2   7  -6   16.30    3.40
   1  -7  -6   91.79    7.10
   1  -7  -6  103.49    7.30
  -1  -7   6  105.69    7.30
   1  -7  -6   92.19    5.80
  -1  -7   6   95.59    6.70
   1   7  -6   97.89    7.10
  -1   7   6  111.99    6.30
   1   7  -6  100.49    6.70
  -1   7   6   95.59    6.40
  -1   7   6  102.19    7.30
   1   7  -6   99.39    7.10
   0  -7   6  170.78    9.20
   0  -7   6  175.18    9.50
   0  -7  -6  148.89    7.80
   0  -7  -6  154.78    8.70
   0  -7  -6  160.08    9.20
   0   7  -6  165.18    8.80
   0   7   6  185.08    9.10
   0   7   6  158.28    8.10
   0   7  -6  166.28    9.10
   0   7  -6  180.18    9.50
   0   7   6  174.18    9.40
  -1  -7  -6   11.00    3.10
   1  -7   6   10.20    3.20
   1  -7   6    7.00    3.20
  -1  -7  -6   10.10    3.30
  -1  -7  -6    8.00    3.10
   1   7   6   14.10    3.00
  -1   7  -6    8.60    3.00
   1   7   6   12.40    3.50
  -1   7  -6   10.00    3.10
  -1   7  -6    7.80    3.30
   1   7   6    9.50    3.00
  -2  -7  -6   77.79    7.10
   2  -7   6   78.59    7.50
  -2  -7  -6   85.79    6.60
  -2  -7  -6   81.29    5.90
   2  -7   6   86.69    6.50
   2   7   6   79.59    6.40
  -2   7  -6   59.09    6.50
  -2   7  -6   90.99    6.80
  -2   7  -6   78.49    6.40
   2   7   6   76.39    6.10
  -3  -7  -6    0.60    2.50
  -3  -7  -6    0.30    2.30
  -3  -7  -6   -1.00    2.30
   3  -7   6   -0.30    2.50
   3  -7   6   -0.80    2.00
  -3   7  -6   -0.50    2.10
  -3   7  -6    2.10    2.80
   3   7   6   -3.70    2.10
  -3   7  -6    0.50    2.50
   4  -7   6    0.70    2.20
   4  -7   6    3.10    2.80
  -4  -7  -6   -0.30    2.20
  -4  -7  -6   -3.50    2.40
  -4  -7  -6    4.00    2.40
   4   7   6    1.80    2.80
  -4   7  -6    0.80    2.80
  -4   7  -6   -3.80    2.30
  -4   7  -6   -0.70    2.00
   5  -7   6   44.70    6.10
   5  -7   6   45.80    5.40
  -5  -7  -6   52.69    7.00
   5   7   6   45.80    6.30
  -1   8   6    7.10    3.40
   1   8  -6    2.20    2.70
   1   8  -6    6.90    3.30
   1   8  -6    5.00    3.20
   0   8   6   -3.50    2.30
   0   8  -6   -2.80    2.60
   0   8  -6    4.20    3.00
  13   0  -7    1.30    2.20
 -13   0   7   -0.80    2.00
  13   0  -7    5.20    3.30
 -13   0   7    0.70    2.60
 -12   0   7    3.80    3.10
  12   0  -7    1.80    2.10
 -12   0   7    4.10    2.30
 -12   0   7   -1.20    2.10
  12   0  -7    0.80    2.50
 -11   0   7   -0.20    2.00
 -11   0   7   -0.80    1.60
 -11   0   7    2.30    1.60
  11   0  -7    2.40    2.20
  11   0  -7   -0.40    2.10
 -10   0   7    1.80    1.30
  10   0  -7   -2.60    1.50
  10   0  -7   -0.40    1.30
  10   0  -7    2.00    2.30
 -10   0   7    0.10    1.70
 -10   0   7    1.40    2.00
  -9   0   7    2.80    1.90
  -9   0   7   -0.30    0.40
  -9   0   7   -0.30    1.00
   9   0  -7    0.30    1.20
  -9   0   7   -0.10    0.30
   9   0  -7    0.50    1.50
  -9   0   7    0.50    1.40
   9   0  -7    1.10    1.50
  -8   0   7   -0.50    0.80
   8   0  -7   -0.40    0.60
   8   0  -7    0.30    1.00
   8   0  -7   -0.30    1.50
  -8   0   7   -0.70    0.50
   8   0  -7   -1.10    1.30
  -8   0   7   -0.90    1.20
  -8   0   7   -0.50    0.50
   7   0  -7   -0.10    0.80
   7   0  -7   -0.10    1.30
  -7   0   7    2.20    1.30
  -7   0   7    1.00    0.80
   7   0  -7    0.00    0.40
  -7   0   7    0.10    0.70
   7   0  -7   -0.40    1.10
  -6   0   7   -0.50    0.60
  -6   0   7    0.30    0.70
   6   0  -7    0.30    0.90
   6   0  -7   -1.00    0.70
  -6   0   7    0.70    0.70
  -6   0   7   -1.10    1.00
   6   0  -7    0.50    0.70
   6   0  -7   -0.50    1.10
  -6   0   7    0.20    0.70
  -5   0   7   -0.40    0.70
   5   0  -7   -0.50    0.70
  -5   0   7   -0.80    0.70
  -5   0   7    0.00    0.50
  -5   0   7   -0.90    0.70
   5   0  -7   -0.70    0.60
   5   0  -7    0.20    0.80
  -5   0   7   -0.30    0.60
   5   0  -7    0.40    0.80
   5   0  -7    0.20    1.10
  -4   0   7   -0.70    0.60
   4   0  -7    0.30    0.70
   4   0  -7    0.70    1.00
  -4   0   7   -0.20    0.60
   4   0  -7    0.20    0.70
   4   0  -7   -0.30    0.70
   4   0  -7   -0.40    0.50
  -4   0   7    0.70    0.70
   4   0  -7   -1.50    0.70
  -4   0   7   -0.80    0.40
  -4   0   7    0.60    1.00
   3   0  -7   -0.50    0.70
   3   0  -7   -0.30    0.70
   3   0  -7    0.30    0.50
  -3   0   7    0.80    0.60
  -3   0   7    0.60    0.70
  -3   0   7   -0.50    0.70
   3   0  -7    0.70    0.80
   3   0  -7   -1.70    0.60
  -3   0   7   -1.00    0.70
  -3   0   7    0.10    0.30
   2   0  -7    0.20    0.60
  -2   0   7    1.50    0.80
  -2   0   7    1.10    0.70
   2   0  -7   -0.10    0.70
  -2   0   7    0.10    0.30
   2   0  -7   -0.70    0.60
   2   0  -7    0.90    0.40
   2   0  -7   -0.40    0.60
  -2   0   7    0.40    0.70
  -2   0   7    0.30    0.50
  -2   0   7   -0.90    0.50
  -1   0   7    0.40    0.40
  -1   0   7   -1.30    0.60
   1   0  -7    1.20    0.90
  -1   0   7   -1.20    0.60
   1   0  -7   -0.50    0.60
   1   0  -7    0.20    0.40
  -1   0   7    0.20    0.70
   1   0  -7    0.60    0.70
  -1   0   7   -1.10    0.60
  -1   0   7   -0.10    0.80
  -1   0   7   -1.50    0.50
   1   0  -7   -0.50    0.70
   0   0  -7    0.10    0.90
   0   0   7    0.60    0.90
   0   0  -7   -0.50    0.50
   0   0  -7   -0.60    0.60
   0   0  -7   -0.20    0.70
   0   0   7   -0.20    0.50
   0   0   7    0.20    0.60
   0   0   7    0.20    0.80
   0   0   7   -0.40    0.60
  -1   0  -7   -0.30    0.70
  -1   0  -7    0.10    0.60
   1   0   7    0.60    0.80
  -1   0  -7    0.10    0.80
   1   0   7   -0.30    0.80
  -1   0  -7    0.30    0.60
  -1   0  -7    1.40    0.80
   1   0   7    0.60    0.50
   1   0   7   -0.40    0.60
  -2   0  -7    0.60    0.80
   2   0   7   -0.10    0.90
   2   0   7   -0.50    0.60
  -2   0  -7    1.60    0.90
   2   0   7   -0.10    0.80
  -2   0  -7   -0.20    0.80
  -2   0  -7    1.10    0.90
   2   0   7    0.10    0.20
   3   0   7    0.80    1.10
  -3   0  -7   -0.20    0.90
  -3   0  -7   -1.50    0.80
  -3   0  -7    0.10    0.80
   3   0   7    0.90    1.00
  -3   0  -7    1.00    1.00
   3   0   7   -1.10    0.60
   4   0   7    0.90    1.00
   4   0   7    0.80    1.10
  -4   0  -7   -1.70    0.80
  -4   0  -7   -1.00    1.10
   4   0   7   -0.40    0.90
  -4   0  -7    1.10    1.00
   4   0   7    1.90    1.00
  -4   0  -7    0.50    0.90
   5   0   7    0.40    1.10
   5   0   7   -0.60    1.20
  -5   0  -7    0.30    1.00
  -5   0  -7   -2.00    1.10
  -5   0  -7    1.40    1.00
  -5   0  -7    0.50    1.10
   5   0   7    0.10    1.00
  -6   0  -7   -0.20    1.00
  -6   0  -7   -0.60    1.00
  -6   0  -7    0.30    1.10
   6   0   7   -0.40    1.20
  -6   0  -7    1.40    1.40
   6   0   7    1.50    1.50
   6   0   7    0.70    1.00
   7   0   7   -0.70    1.40
  -7   0  -7    0.20    1.20
   7   0   7   -0.10    1.40
  -7   0  -7    0.00    1.20
  -7   0  -7    0.70    1.30
  -8   0  -7    0.50    1.40
   8   0   7    0.40    1.70
  -8   0  -7   -1.20    1.20
  -8   0  -7    3.00    2.20
   8   0   7    2.20    1.90
  -9   0  -7    0.50    1.50
   9   0   7   -0.60    1.80
  -9   0  -7    0.30    1.30
   9   0   7   -2.40    1.70
  -9   0  -7    1.90    2.10
 -10   0  -7    0.90    2.40
  10   0   7    4.10    2.40
 -10   0  -7   -0.20    1.20
  10   0   7   -0.60    1.90
  12  -1  -7   44.30    5.80
 -12  -1   7   41.50    4.70
  12  -1  -7   37.80    4.80
 -12  -1   7   46.90    5.40
  12   1  -7   34.20    5.20
  12   1  -7   39.90    4.80
 -12   1   7   40.40    5.30
 -12   1   7   39.40    4.60
 -11  -1   7    0.80    1.70
 -11  -1   7   -0.20    1.80
 -11  -1   7   -1.80    1.40
  11  -1  -7    1.60    2.00
 -11  -1   7    1.60    1.90
  11  -1  -7    0.50    1.70
  11   1  -7   -1.50    1.50
 -11   1   7   -2.50    1.90
  11   1  -7   -1.20    1.80
 -11   1   7    0.40    1.70
  11   1  -7   -1.40    2.00
  10  -1  -7  143.89    8.10
 -10  -1   7  157.38    7.00
 -10  -1   7  168.48    8.20
 -10  -1   7  155.28    7.50
  10  -1  -7  162.28    7.90
 -10  -1   7  162.48    6.90
  10   1  -7  154.48    7.70
 -10   1   7  156.78    5.10
 -10   1   7  157.58    7.70
  10   1  -7  157.48    8.30
  10   1  -7  155.28    7.30
 -10   1   7  162.08    8.40
  -9  -1   7   91.99    5.40
  -9  -1   7  103.39    4.90
   9  -1  -7   98.39    6.20
   9  -1  -7  104.69    5.90
  -9  -1   7   97.99    5.00
   9   1  -7   99.39    5.70
   9   1  -7   91.79    6.10
   9   1  -7  105.49    5.40
  -9   1   7   97.89    4.10
  -9   1   7   90.79    5.90
  -9   1   7  100.39    5.70
  -9   1   7  101.79    4.00
   8  -1  -7  193.78    8.70
  -8  -1   7  219.48    8.50
  -8  -1   7  199.18    7.20
  -8  -1   7  205.88    5.90
   8  -1  -7  210.58    8.50
   8  -1  -7  208.88    6.70
  -8  -1   7  213.68    7.80
  -8  -1   7  199.68    5.90
  -8   1   7  210.28    8.50
   8   1  -7  206.48    5.80
   8   1  -7  216.18    8.30
   8   1  -7  213.78    9.10
  -8   1   7  197.78    6.90
  -8   1   7  202.18    6.50
   8   1  -7  210.08    8.60
  -8   1   7  202.18    8.90
  -8   1   7  205.48    6.90
  -7  -1   7   66.09    3.50
  -7  -1   7   63.49    3.10
   7  -1  -7   60.79    3.20
  -7  -1   7   67.59    2.80
   7  -1  -7   62.29    4.10
   7  -1  -7   67.79    4.30
  -7  -1   7   67.79    4.00
   7  -1  -7   70.29    2.90
  -7  -1   7   64.19    2.70
  -7   1   7   61.39    4.10
   7   1  -7   60.79    4.10
  -7   1   7   64.89    4.40
   7   1  -7   65.49    2.70
   7   1  -7   64.99    4.40
  -7   1   7   69.19    3.30
  -7   1   7   66.79    3.30
   7   1  -7   67.49    3.90
  -7   1   7   65.09    2.60
  -6  -1   7  102.49    4.50
  -6  -1   7  111.79    4.10
   6  -1  -7  101.89    5.10
  -6  -1   7  102.59    5.10
   6  -1  -7   99.79    5.10
  -6  -1   7  107.09    4.00
   6  -1  -7  107.49    3.80
   6  -1  -7  104.59    4.40
  -6  -1   7  109.29    3.90
  -6   1   7  111.29    3.40
   6   1  -7   99.69    4.80
   6   1  -7  100.09    5.30
   6   1  -7  102.09    5.20
  -6   1   7  114.89    4.50
  -6   1   7  104.79    4.40
  -6   1   7  108.19    4.40
   6   1  -7  109.19    4.60
  -6   1   7  113.19    5.10
  -5  -1   7 1706.53   44.40
   5  -1  -7 1626.84   44.40
   5  -1  -7 1639.84   44.40
  -5  -1   7 1629.64   43.20
  -5  -1   7 1607.84   42.40
   5  -1  -7 1719.63   42.70
  -5  -1   7 1617.04   43.50
  -5  -1   7 1610.54   43.20
   5  -1  -7 1673.03   43.70
  -5   1   7 1660.53   41.90
   5   1  -7 1641.94   44.50
   5   1  -7 1709.63   44.10
  -5   1   7 1656.83   43.30
  -5   1   7 1667.03   43.70
   5   1  -7 1649.83   43.20
  -5   1   7 1660.23   43.70
  -5   1   7 1619.64   44.20
   5   1  -7 1696.03   43.60
   5   1  -7 1601.34   44.70
   4  -1  -7  343.67   10.90
  -4  -1   7  336.47    8.80
  -4  -1   7  361.96   10.50
  -4  -1   7  343.17   10.40
   4  -1  -7  343.47   10.60
   4  -1  -7  330.47   11.00
   4  -1  -7  350.96    9.80
  -4  -1   7  344.37   10.40
  -4   1   7  324.87   10.80
   4   1  -7  325.37   10.30
   4   1  -7  349.57   11.10
  -4   1   7  356.96   10.70
  -4   1   7  346.37   10.10
   4   1  -7  362.26   10.50
  -4   1   7  346.17   10.70
   4   1  -7  348.07   10.90
  -3  -1   7  278.17    8.80
  -3  -1   7  270.37    8.80
   3  -1  -7  280.17    9.10
   3  -1  -7  280.67    9.00
   3  -1  -7  275.67    8.70
   3  -1  -7  272.37    8.20
  -3  -1   7  277.47    8.70
   3  -1  -7  272.07    7.50
   3  -1  -7  275.27    9.00
  -3   1   7  285.27    8.30
  -3   1   7  272.07    8.90
   3   1  -7  287.17    8.90
  -3   1   7  280.27    9.00
  -3   1   7  278.97    9.00
   3   1  -7  286.57    8.70
   3   1  -7  266.67    9.00
   3   1  -7  273.37    8.80
   2  -1  -7  297.17    8.90
   2  -1  -7  301.57    9.50
  -2  -1   7  294.27    9.60
   2  -1  -7  304.87    9.60
  -2  -1   7  302.47    9.20
  -2  -1   7  292.87    9.40
  -2  -1   7  291.27    9.40
   2  -1  -7  291.37    8.40
   2  -1  -7  294.87    8.80
   2  -1  -7  304.07    9.30
   2  -1  -7  305.97    9.40
  -2   1   7  291.07    9.50
   2   1  -7  299.57    9.30
  -2   1   7  308.77    8.80
  -2   1   7  274.97    9.10
  -2   1   7  297.77    9.50
   2   1  -7  296.57    9.40
   2   1  -7  300.57    9.20
   2   1  -7  303.67    9.40
   1  -1  -7  525.95   14.50
   1  -1  -7  517.95   15.30
   1  -1  -7  523.55   14.80
  -1  -1   7  536.15   15.30
  -1  -1   7  540.75   14.90
  -1  -1   7  514.25   15.20
   1  -1  -7  531.05   14.70
  -1  -1   7  520.85   15.00
   1  -1  -7  494.25   15.20
  -1  -1   7  542.05   15.40
   1  -1  -7  517.55   14.60
  -1   1   7  516.45   15.30
  -1   1   7  535.35   14.70
  -1   1   7  513.85   15.30
   1   1  -7  522.15   15.30
  -1   1   7  513.25   14.70
   1   1  -7  543.65   15.40
   1   1  -7  529.85   15.10
   1   1  -7  514.05   14.80
   0  -1  -7  792.82   21.30
   0  -1  -7  792.92   22.10
   0  -1   7  789.32   22.00
   0  -1   7  805.22   22.20
   0  -1   7  763.12   22.00
   0  -1  -7  795.72   21.20
   0  -1   7  796.42   21.90
   0  -1  -7  777.52   21.60
   0  -1  -7  789.42   22.20
   0  -1   7  819.42   22.10
   0   1  -7  798.82   21.30
   0   1  -7  779.12   22.00
   0   1  -7  788.52   22.00
   0   1   7  791.92   21.60
   0   1   7  773.22   21.20
   0   1   7  812.22   21.30
   0   1   7  802.12   22.20
   0   1  -7  795.82   22.20
   0   1   7  789.12   22.00
   0   1   7  780.12   22.10
   0   1  -7  763.72   22.00
   1  -1   7  102.39    4.30
  -1  -1  -7   99.79    3.50
  -1  -1  -7   93.69    4.40
   1  -1   7   94.79    4.30
   1  -1   7   98.79    4.40
   1  -1   7  104.89    4.60
  -1  -1  -7  100.99    4.50
  -1  -1  -7   98.29    4.20
   1  -1   7  105.09    5.00
   1   1   7  101.89    3.50
  -1   1  -7  103.39    4.60
   1   1   7   93.99    4.20
   1   1   7   99.99    4.50
   1   1   7  100.29    3.70
  -1   1  -7   94.79    4.40
  -1   1  -7   95.29    4.30
   1   1   7  102.49    4.40
  -1   1  -7  111.69    5.20
  -2  -1  -7  391.16   11.20
  -2  -1  -7  405.46   12.30
   2  -1   7  416.96   12.90
  -2  -1  -7  399.76   12.30
   2  -1   7  384.26   10.40
   2  -1   7  383.06   12.30
  -2  -1  -7  393.26   10.80
   2  -1   7  378.36   12.20
  -2  -1  -7  388.76   12.20
  -2   1  -7  386.06   12.10
   2   1   7  389.46   11.10
  -2   1  -7  400.36   12.40
   2   1   7  393.66   10.80
   2   1   7  391.16   12.20
   2   1   7  404.66   12.40
  -2   1  -7  390.16   12.30
  -3  -1  -7 1395.96   39.90
   3  -1   7 1477.65   40.10
  -3  -1  -7 1468.25   39.70
  -3  -1  -7 1484.65   38.60
  -3  -1  -7 1479.15   37.90
   3  -1   7 1461.15   39.80
  -3  -1  -7 1480.55   39.70
  -3   1  -7 1497.15   39.90
  -3   1  -7 1491.85   39.80
   3   1   7 1510.95   38.60
   3   1   7 1449.95   40.00
   3   1   7 1509.05   38.80
   3   1   7 1478.25   39.70
  -3   1  -7 1484.05   39.90
  -4  -1  -7   85.19    4.70
   4  -1   7   87.79    4.70
  -4  -1  -7   79.99    4.20
  -4  -1  -7   85.69    2.70
  -4  -1  -7   78.49    4.20
  -4  -1  -7   84.89    3.60
   4  -1   7   85.89    4.40
   4   1   7   81.69    4.20
  -4   1  -7   87.39    4.40
   4   1   7   81.79    4.50
   4   1   7   88.39    3.60
  -4   1  -7   81.79    4.40
   4   1   7   95.29    4.00
  -4   1  -7   77.99    4.30
  -5  -1  -7  301.07    7.90
   5  -1   7  305.37   10.30
  -5  -1  -7  309.57   11.00
   5  -1   7  281.07   10.60
  -5  -1  -7  291.57    7.90
  -5  -1  -7  299.27   10.10
  -5  -1  -7  304.87   10.10
  -5  -1  -7  289.77    9.30
   5   1   7  292.37   10.00
   5   1   7  304.77    9.40
  -5   1  -7  288.57   10.20
  -5   1  -7  302.67   10.50
   5   1   7  308.87   10.80
   5   1   7  310.57   10.00
  -5   1  -7  293.27   10.30
   6  -1   7   11.20    2.40
  -6  -1  -7    8.10    1.70
   6  -1   7   10.10    2.20
  -6  -1  -7   11.50    2.60
  -6  -1  -7    9.70    1.60
   6  -1   7   10.20    1.90
   6   1   7    8.70    1.90
   6   1   7   12.30    2.40
   6   1   7    9.00    1.70
   6   1   7   13.40    2.00
  -6   1  -7   12.40    2.30
  -6   1  -7    9.40    1.90
  -7  -1  -7    4.20    2.20
   7  -1   7    2.50    1.80
   7  -1   7    2.80    2.00
  -7  -1  -7    1.50    1.30
  -7  -1  -7    5.00    1.50
  -7   1  -7    1.00    1.50
  -7   1  -7    2.90    1.60
   7   1   7    3.50    1.80
   7   1   7    3.30    1.80
  -8  -1  -7   37.70    3.30
  -8  -1  -7   40.20    4.80
  -8  -1  -7   38.40    3.40
   8  -1   7   44.10    4.80
   8  -1   7   36.50    4.30
   8   1   7   37.50    4.20
  -8   1  -7   31.90    4.30
  -8   1  -7   34.80    3.50
  -8   1  -7   37.80    4.10
   8   1   7   35.10    3.90
   9  -1   7    5.80    2.50
  -9  -1  -7    0.70    2.30
   9  -1   7    0.40    2.10
  -9  -1  -7    4.40    1.60
   9   1   7    2.50    2.10
  -9   1  -7    2.50    2.40
  -9   1  -7    3.10    1.60
   9   1   7    5.40    2.40
  -9   1  -7    0.00    1.80
  10  -1   7    7.40    2.90
  10  -1   7    8.80    3.10
 -10  -1  -7   12.50    3.70
 -10   1  -7   11.40    3.20
 -10   1  -7   10.10    2.20
  10   1   7    9.40    3.10
  10   1   7   11.90    3.00
 -10   1  -7    9.90    3.30
 -12  -2   7   -3.50    2.10
 -12  -2   7    0.70    2.10
 -12  -2   7    3.50    2.20
  12  -2  -7    0.30    2.50
  12  -2  -7    3.70    2.70
 -12   2   7    1.80    2.00
  12   2  -7    0.20    1.80
 -12   2   7   -0.40    2.00
  12   2  -7   -2.00    2.20
  12   2  -7   -0.20    2.00
  11  -2  -7   15.00    3.60
 -11  -2   7   24.00    3.70
 -11  -2   7   15.70    3.10
  11  -2  -7   20.20    3.60
 -11  -2   7   19.30    3.50
  11   2  -7   20.40    3.50
  11   2  -7   20.10    3.60
 -11   2   7   19.50    3.40
  11   2  -7   21.90    4.10
 -11   2   7   14.80    3.50
  10  -2  -7   -2.20    1.70
 -10  -2   7   -0.10    1.50
 -10  -2   7   -0.60    1.30
  10  -2  -7    1.40    1.90
 -10  -2   7   -0.40    1.90
 -10   2   7   -1.20    1.90
 -10   2   7    0.80    1.20
  10   2  -7    2.40    2.00
  10   2  -7    1.00    1.70
 -10   2   7    1.60    1.50
  10   2  -7   -1.10    1.80
  -9  -2   7   20.90    2.90
   9  -2  -7   25.20    3.60
  -9  -2   7   31.30    2.90
   9  -2  -7   26.20    3.80
  -9  -2   7   30.40    3.70
  -9   2   7   27.20    2.60
   9   2  -7   25.10    3.70
   9   2  -7   31.40    4.20
  -9   2   7   24.80    3.60
   9   2  -7   27.70    3.70
  -9   2   7   28.60    3.40
   8  -2  -7  131.09    7.00
  -8  -2   7  136.59    6.70
  -8  -2   7  137.09    4.40
   8  -2  -7  136.79    6.80
  -8  -2   7  143.59    5.50
  -8  -2   7  135.19    4.40
  -8  -2   7  131.19    6.30
   8   2  -7  135.49    6.80
   8   2  -7  132.99    6.70
   8   2  -7  132.29    7.00
  -8   2   7  126.79    6.50
  -8   2   7  135.99    7.10
  -8   2   7  138.49    5.80
   7  -2  -7   78.69    4.10
  -7  -2   7   74.19    4.40
  -7  -2   7   76.09    3.30
  -7  -2   7   86.29    3.70
  -7  -2   7   80.49    3.40
   7  -2  -7   79.89    4.80
   7  -2  -7   87.69    5.20
  -7   2   7   86.69    5.20
   7   2  -7   80.19    4.80
   7   2  -7   83.89    3.40
   7   2  -7   77.19    4.80
  -7   2   7   78.79    4.20
  -7   2   7   78.39    4.20
  -7   2   7   81.19    4.80
   7   2  -7   82.59    5.20
  -6  -2   7   53.39    2.80
   6  -2  -7   51.99    3.70
  -6  -2   7   54.49    2.80
   6  -2  -7   53.29    3.40
  -6  -2   7   56.49    2.60
  -6  -2   7   54.79    3.50
   6  -2  -7   48.50    3.60
   6   2  -7   60.19    3.90
   6   2  -7   55.89    3.90
  -6   2   7   55.09    3.60
   6   2  -7   58.19    2.80
  -6   2   7   49.20    3.20
  -6   2   7   57.29    3.40
  -6   2   7   54.19    4.00
  -5  -2   7   60.89    3.10
   5  -2  -7   59.89    3.70
  -5  -2   7   63.69    3.60
  -5  -2   7   62.19    2.50
  -5  -2   7   60.89    3.10
   5  -2  -7   62.59    3.70
   5  -2  -7   65.39    3.60
   5   2  -7   61.89    3.20
  -5   2   7   67.89    3.60
  -5   2   7   64.69    3.90
   5   2  -7   61.19    3.90
   5   2  -7   70.69    4.00
  -5   2   7   68.89    3.70
  -5   2   7   60.69    3.90
  -4  -2   7   11.10    1.60
  -4  -2   7   13.40    1.70
   4  -2  -7   17.00    2.20
   4  -2  -7   15.60    1.80
  -4  -2   7   13.20    0.90
   4  -2  -7   12.70    1.70
   4  -2  -7   10.30    1.80
  -4  -2   7   14.70    1.90
  -4   2   7   12.20    1.90
   4   2  -7   12.30    1.60
  -4   2   7   10.60    1.70
   4   2  -7   13.80    2.00
   4   2  -7   13.40    2.00
  -4   2   7   10.60    1.80
  -4   2   7   15.20    2.00
  -4   2   7   12.30    1.90
  -3  -2   7  149.29    5.60
   3  -2  -7  141.79    3.80
   3  -2  -7  132.19    5.60
  -3  -2   7  140.69    5.60
   3  -2  -7  137.89    5.70
   3  -2  -7  151.68    5.20
  -3  -2   7  137.29    5.40
   3  -2  -7  144.59    5.40
   3  -2  -7  139.09    3.80
  -3   2   7  130.39    5.60
   3   2  -7  137.09    5.70
   3   2  -7  151.18    6.10
   3   2  -7  133.89    4.10
  -3   2   7  137.79    5.50
  -3   2   7  143.29    5.80
   3   2  -7  139.79    5.50
  -3   2   7  140.69    5.40
  -2  -2   7    4.40    1.00
  -2  -2   7    4.40    1.40
   2  -2  -7    6.40    1.00
  -2  -2   7    5.40    1.30
  -2  -2   7    8.00    1.50
   2  -2  -7    6.50    1.40
   2  -2  -7    4.10    1.10
   2  -2  -7    6.00    1.20
  -2   2   7    4.90    1.10
   2   2  -7    6.50    1.40
   2   2  -7    5.40    1.30
   2   2  -7    6.00    0.70
  -2   2   7    4.30    1.30
  -2   2   7    6.70    1.50
  -2   2   7    6.90    1.30
   1  -2  -7   20.00    2.10
   1  -2  -7   29.00    2.40
   1  -2  -7   24.40    2.50
  -1  -2   7   28.30    2.60
  -1  -2   7   23.40    2.40
   1  -2  -7   23.40    2.20
  -1  -2   7   26.90    2.00
  -1  -2   7   26.70    2.60
  -1   2   7   27.30    2.60
  -1   2   7   24.50    2.20
  -1   2   7   28.20    2.70
   1   2  -7   28.70    1.60
   1   2  -7   21.70    2.40
   1   2  -7   32.60    2.50
  -1   2   7   27.70    2.20
   1   2  -7   23.60    2.20
   0  -2  -7 1218.48   33.70
   0  -2  -7 1232.38   33.20
   0  -2   7 1211.68   33.90
   0  -2  -7 1276.47   34.10
   0  -2   7 1242.78   34.10
   0  -2  -7 1203.28   33.90
   0  -2   7 1251.67   33.70
   0  -2   7 1324.77   35.20
   0   2  -7 1229.28   34.00
   0   2  -7 1293.07   33.30
   0   2   7 1236.08   34.00
   0   2  -7 1256.07   34.10
   0   2   7 1248.88   33.80
   0   2  -7 1276.57   33.00
   0   2   7 1236.08   33.20
   1  -2   7   16.10    2.10
  -1  -2  -7   16.80    2.10
  -1  -2  -7   17.80    2.20
   1  -2   7   22.30    2.40
  -1  -2  -7   19.50    2.10
   1  -2   7   17.60    2.20
   1  -2   7   18.80    1.60
  -1  -2  -7   17.10    1.70
   1   2   7   17.20    1.20
  -1   2  -7   17.40    2.20
  -1   2  -7   14.90    2.10
   1   2   7   14.80    2.00
   1   2   7   16.60    1.70
   2  -2   7  150.48    6.20
  -2  -2  -7  147.19    5.20
   2  -2   7  155.58    6.40
   2  -2   7  145.59    6.20
   2  -2   7  145.99    4.90
  -2  -2  -7  153.88    6.20
  -2  -2  -7  145.79    6.10
  -2  -2  -7  145.49    6.10
   2   2   7  152.78    4.40
   2   2   7  145.29    5.20
   2   2   7  147.29    6.10
  -2   2  -7  145.89    6.20
  -2   2  -7  151.48    6.30
   2   2   7  156.58    4.20
   2   2   7  148.89    6.20
  -3  -2  -7  181.38    6.80
   3  -2   7  162.28    6.70
  -3  -2  -7  156.38    6.40
  -3  -2  -7  167.28    5.50
   3  -2   7  155.68    5.00
  -3  -2  -7  153.98    6.60
   3  -2   7  160.88    6.70
   3   2   7  171.48    5.10
  -3   2  -7  153.68    6.60
   3   2   7  160.38    4.70
  -3   2  -7  152.38    6.60
   3   2   7  155.08    6.40
  -3   2  -7  161.38    7.40
   3   2   7  161.88    6.60
   4  -2   7   14.20    2.40
  -4  -2  -7   18.50    2.70
  -4  -2  -7   21.20    2.50
   4  -2   7   21.90    2.80
  -4  -2  -7   19.60    2.40
   4  -2   7   21.80    1.20
  -4  -2  -7   22.60    1.70
   4   2   7   19.10    2.50
   4   2   7   16.90    2.20
  -4   2  -7   20.20    2.70
  -4   2  -7   22.90    2.80
   4   2   7   21.00    1.80
  -4   2  -7   21.30    2.60
  -5  -2  -7   20.50    2.50
  -5  -2  -7   17.90    2.70
  -5  -2  -7   22.20    2.60
  -5  -2  -7   21.30    1.50
  -5  -2  -7   19.20    1.70
   5  -2   7   20.20    1.10
   5  -2   7   19.20    2.60
   5  -2   7   17.60    2.80
   5   2   7   19.60    2.80
  -5   2  -7   21.30    2.80
   5   2   7   20.90    2.20
  -5   2  -7   19.00    2.50
  -5   2  -7   18.60    2.70
   5   2   7   23.30    2.60
   6  -2   7    3.50    1.60
   6  -2   7    3.00    2.10
  -6  -2  -7    5.00    1.50
  -6  -2  -7    3.20    0.90
  -6  -2  -7    5.40    2.10
   6  -2   7    3.30    2.00
  -6   2  -7    3.30    1.60
   6   2   7    4.50    1.50
   6   2   7    4.00    1.50
   6   2   7    2.80    1.80
  -7  -2  -7   14.60    3.10
   7  -2   7   19.50    3.40
   7  -2   7   13.70    3.00
  -7  -2  -7   18.80    2.50
  -7   2  -7   17.80    3.20
  -7   2  -7   20.50    2.80
   7   2   7   18.70    2.60
   7   2   7   25.00    3.40
   8  -2   7   25.30    3.80
  -8  -2  -7   23.30    2.70
  -8  -2  -7   22.10    3.80
   8  -2   7   24.40    4.00
   8   2   7   21.80    3.10
  -8   2  -7   17.90    3.30
   8   2   7   23.00    3.50
  -8   2  -7   20.40    3.00
  -9  -2  -7    2.40    1.50
   9  -2   7    2.30    2.50
  -9  -2  -7    2.90    2.60
   9  -2   7    4.50    2.60
  -9   2  -7    0.80    2.40
   9   2   7    2.10    2.10
  -9   2  -7    2.30    1.80
   9   2   7   -0.40    1.50
  10  -2   7    9.10    3.10
  10  -2   7    5.80    2.80
 -10  -2  -7    3.30    2.40
 -10   2  -7    4.90    2.10
  10   2   7    2.50    2.10
 -10   2  -7    3.30    2.60
 -12  -3   7    0.70    2.20
 -12  -3   7   -1.10    2.10
  12  -3  -7   -1.10    2.10
  12  -3  -7   -3.70    2.10
 -12  -3   7   -1.40    2.10
 -12   3   7    1.20    2.40
  12   3  -7    0.30    2.20
  12   3  -7   -2.20    2.30
  11  -3  -7   11.90    3.20
  11  -3  -7   11.80    3.70
 -11  -3   7   13.40    3.10
 -11  -3   7   11.00    2.90
  11   3  -7   16.10    3.40
 -11   3   7    6.70    3.10
  11   3  -7    6.20    2.60
 -11   3   7   12.50    2.30
 -11   3   7    8.70    2.90
  10  -3  -7   15.20    3.20
 -10  -3   7   15.20    3.30
 -10  -3   7   14.20    3.10
  10  -3  -7   14.70    3.50
 -10   3   7   18.10    3.70
  10   3  -7   10.60    2.90
  10   3  -7   18.40    3.60
 -10   3   7   13.00    3.00
 -10   3   7   16.60    2.60
  -9  -3   7   -0.40    1.20
   9  -3  -7    0.50    1.90
  -9  -3   7    1.60    2.00
   9  -3  -7   -3.70    1.30
   9   3  -7    0.90    1.90
  -9   3   7    0.00    1.90
  -9   3   7    2.60    2.00
   9   3  -7    1.80    1.90
  -9   3   7    1.90    1.50
   8  -3  -7   37.60    4.30
  -8  -3   7   36.20    2.70
   8  -3  -7   32.30    4.00
  -8  -3   7   34.60    2.20
  -8  -3   7   35.90    3.90
  -8   3   7   29.00    3.20
   8   3  -7   32.20    3.90
  -8   3   7   35.70    4.00
  -8   3   7   28.30    3.60
   8   3  -7   35.10    4.20
  -7  -3   7   51.19    4.50
   7  -3  -7   50.79    3.90
  -7  -3   7   56.29    3.10
  -7  -3   7   53.29    3.00
   7  -3  -7   51.49    3.70
   7  -3  -7   61.69    4.50
   7   3  -7   50.49    4.80
  -7   3   7   51.69    4.10
  -7   3   7   56.49    4.30
  -7   3   7   47.60    3.60
   7   3  -7   53.29    4.80
  -6  -3   7   72.29    3.80
  -6  -3   7   73.49    4.70
  -6  -3   7   79.09    3.50
   6  -3  -7   70.89    4.30
   6  -3  -7   73.39    4.50
  -6  -3   7   70.79    3.70
   6  -3  -7   85.89    5.00
   6   3  -7   81.19    3.90
  -6   3   7   74.29    4.80
   6   3  -7   71.69    4.70
  -6   3   7   89.59    4.80
   6   3  -7   67.89    4.60
  -6   3   7   76.29    4.70
  -6   3   7   71.79    4.40
   5  -3  -7   66.19    4.30
  -5  -3   7   64.19    4.00
   5  -3  -7   70.49    4.20
  -5  -3   7   74.49    3.90
   5  -3  -7   65.19    3.90
  -5  -3   7   71.59    3.80
  -5  -3   7   72.09    3.10
  -5   3   7   75.99    4.40
  -5   3   7   66.29    4.30
  -5   3   7   65.29    4.20
   5   3  -7   69.99    3.10
   5   3  -7   69.49    4.40
   5   3  -7   63.09    4.50
   5   3  -7   68.99    3.70
  -5   3   7   72.89    4.30
  -4  -3   7   20.40    2.30
  -4  -3   7   21.70    1.60
  -4  -3   7   24.80    2.50
   4  -3  -7   26.40    2.50
  -4  -3   7   23.40    2.70
   4  -3  -7   19.80    2.60
   4  -3  -7   21.50    2.50
   4  -3  -7   22.10    2.70
  -4   3   7   22.30    2.50
   4   3  -7   22.90    2.80
   4   3  -7   15.90    2.60
   4   3  -7   20.60    2.40
   4   3  -7   22.00    1.60
  -4   3   7   26.20    2.90
  -4   3   7   25.20    2.80
  -3  -3   7   10.70    1.80
  -3  -3   7   13.50    2.20
   3  -3  -7   13.90    2.00
   3  -3  -7   11.70    2.00
   3  -3  -7   13.30    1.60
  -3  -3   7   15.70    1.80
   3  -3  -7   14.10    1.00
  -3  -3   7   11.80    1.30
  -3  -3   7   14.50    2.00
   3  -3  -7   12.60    2.10
  -3   3   7   14.50    2.00
  -3   3   7   14.70    2.30
   3   3  -7   10.60    2.00
   3   3  -7   14.70    1.40
   3   3  -7   13.90    2.20
   3   3  -7   16.60    2.10
  -3   3   7   13.00    1.90
   2  -3  -7    1.10    0.70
  -2  -3   7    0.20    1.10
   2  -3  -7   -0.60    1.10
   2  -3  -7    2.30    0.80
  -2  -3   7    1.90    1.40
  -2  -3   7   -0.30    1.10
   2  -3  -7    1.30    1.00
  -2  -3   7    2.90    1.10
  -2   3   7    0.20    1.10
   2   3  -7    2.60    1.30
   2   3  -7    1.60    0.80
   2   3  -7    1.10    1.20
  -2   3   7    8.30    1.50
   2   3  -7    2.00    1.40
  -2   3   7    0.50    0.80
   1  -3  -7    1.10    0.50
   1  -3  -7   -0.60    1.10
  -1  -3   7   -0.60    1.00
   1  -3  -7    0.00    0.70
   1  -3  -7    2.00    1.30
  -1  -3   7    0.50    1.00
  -1  -3   7    0.40    1.20
   1   3  -7    0.90    0.80
  -1   3   7    0.20    0.70
   1   3  -7    1.70    1.30
  -1   3   7    0.60    0.80
  -1   3   7   -1.20    1.10
   1   3  -7    1.70    1.30
   1   3  -7    0.80    1.00
   0  -3   7  380.86   13.10
   0  -3   7  442.36   13.50
   0  -3  -7  401.66   13.30
   0  -3  -7  417.56   12.50
   0  -3  -7  410.66   13.20
   0  -3   7  405.56   12.90
   0   3  -7  408.76   13.30
   0   3   7  398.56   12.60
   0   3   7  412.46   11.60
   0   3  -7  407.96   13.30
   0   3  -7  417.86   12.30
   0   3   7  407.06   12.80
   0   3   7  432.26   13.50
  -1  -3  -7   15.20    2.30
   1  -3   7   17.50    2.40
   1  -3   7   16.80    2.40
   1  -3   7   16.60    1.90
  -1  -3  -7   14.50    2.30
   1  -3   7   20.20    2.50
  -1  -3  -7   14.60    1.90
   1   3   7   13.80    2.10
  -1   3  -7   15.20    2.30
   1   3   7   14.50    1.00
   1   3   7   14.70    1.90
   1   3   7   14.50    1.00
   1   3   7   16.80    2.40
  -1   3  -7   17.00    2.50
   2  -3   7  144.79    6.50
   2  -3   7  153.28    6.60
   2  -3   7  125.09    6.00
  -2  -3  -7  136.09    6.20
  -2  -3  -7  128.09    6.00
  -2  -3  -7  149.99    7.10
   2  -3   7  134.79    5.20
   2   3   7  137.19    6.20
   2   3   7  132.89    6.20
   2   3   7  141.09    5.50
  -2   3  -7  139.39    6.40
  -2   3  -7  137.89    6.40
  -3  -3  -7   -0.30    1.20
   3  -3   7    0.60    1.40
   3  -3   7   -0.20    1.40
  -3  -3  -7    2.10    1.30
   3  -3   7   -0.50    1.50
   3  -3   7    0.50    0.80
  -3  -3  -7    1.60    1.30
   3   3   7   -0.50    1.20
   3   3   7    0.70    1.30
  -3   3  -7   -0.90    1.30
  -3   3  -7    0.00    1.40
   3   3   7   -2.00    1.30
   4  -3   7   71.29    3.10
   4  -3   7   68.19    4.60
  -4  -3  -7   74.29    4.70
  -4  -3  -7   67.29    4.10
  -4  -3  -7   70.59    4.20
   4  -3   7   70.39    4.70
   4   3   7   62.99    4.30
  -4   3  -7   62.49    4.60
  -4   3  -7   68.69    4.50
   4   3   7   58.79    4.40
   4   3   7   71.49    4.20
  -5  -3  -7   13.10    2.50
  -5  -3  -7   16.90    2.50
   5  -3   7   11.00    2.40
   5  -3   7   11.60    2.70
   5   3   7   14.60    2.60
  -5   3  -7   17.10    2.70
   5   3   7   15.60    2.40
   5   3   7   17.00    3.00
  -5   3  -7   15.80    2.90
   6  -3   7   88.39    5.50
   6  -3   7   85.29    5.70
  -6  -3  -7   87.99    4.90
  -6  -3  -7   78.79    5.40
  -6   3  -7   95.69    5.50
  -6   3  -7   95.69    6.00
   6   3   7   90.09    5.40
   6   3   7   84.89    6.10
   7  -3   7  164.98    8.20
  -7  -3  -7  187.18    9.10
   7  -3   7  173.08    8.90
  -7  -3  -7  178.48    7.30
  -7   3  -7  161.98    8.50
   7   3   7  167.28    8.00
   7   3   7  157.68    8.60
  -7   3  -7  171.58    8.00
   8  -3   7   -0.80    2.20
   8  -3   7   -0.40    1.80
  -8  -3  -7   -0.20    1.30
  -8  -3  -7   -1.00    1.50
   8   3   7   -0.20    1.60
  -8   3  -7    0.20    2.10
   9  -3   7   -0.50    2.50
   9  -3   7   -2.00    1.80
  -9  -3  -7    2.40    2.70
  -9  -3  -7   -1.20    2.20
  -9  -3  -7    0.30    1.40
  -9   3  -7    2.90    2.70
   9   3   7    3.30    2.00
  -9   3  -7    1.00    1.90
 -10   3  -7    3.10    2.30
 -11  -4   7    1.40    2.40
  11  -4  -7    1.20    2.30
  11  -4  -7   -1.60    2.30
 -11   4   7    1.70    1.80
 -11   4   7   -2.40    2.10
  11   4  -7   -0.70    2.10
  11   4  -7   -1.00    2.10
 -10  -4   7    2.00    2.20
  10  -4  -7    3.60    2.50
  10  -4  -7    0.80    2.20
 -10   4   7   -3.10    2.20
 -10   4   7    2.20    2.20
 -10   4   7    1.80    1.80
  10   4  -7    2.10    2.40
  10   4  -7    3.50    2.30
   9  -4  -7    9.20    2.90
   9  -4  -7   10.60    3.00
  -9  -4   7   11.40    3.10
  -9  -4   7   13.30    1.70
  -9   4   7    7.70    2.70
  -9   4   7   14.30    2.80
   9   4  -7   14.50    3.40
  -9   4   7   11.70    2.90
   9   4  -7    8.80    2.90
  -8  -4   7   25.30    2.50
   8  -4  -7   27.70    3.80
  -8  -4   7   28.60    3.90
  -8  -4   7   29.10    3.00
   8  -4  -7   21.20    3.60
   8   4  -7   33.90    4.40
  -8   4   7   34.40    4.30
   8   4  -7   33.40    4.30
  -8   4   7   27.50    3.50
  -8   4   7   29.80    3.90
  -7  -4   7   61.49    3.70
   7  -4  -7   66.79    4.80
  -7  -4   7   61.39    3.60
   7  -4  -7   57.69    5.30
  -7  -4   7   51.09    5.00
   7  -4  -7   60.39    4.40
  -7   4   7   64.29    4.70
  -7   4   7   48.90    4.70
   7   4  -7   54.39    5.50
   7   4  -7   57.69    5.20
  -7   4   7   58.69    5.30
  -6  -4   7    5.80    2.20
   6  -4  -7   -0.30    1.80
   6  -4  -7    5.00    2.00
  -6  -4   7    1.50    1.40
  -6  -4   7    1.80    1.30
   6  -4  -7    1.60    1.80
  -6   4   7    2.10    1.80
  -6   4   7    4.30    1.80
  -6   4   7    4.20    2.10
   6   4  -7    3.50    1.90
   6   4  -7    3.80    1.80
   5  -4  -7  312.47   10.80
  -5  -4   7  283.27   11.20
   5  -4  -7  304.77   11.40
   5  -4  -7  306.57   11.30
  -5  -4   7  301.27   10.60
  -5  -4   7  320.77    9.90
   5  -4  -7  318.57   11.50
  -5   4   7  290.37   11.10
  -5   4   7  303.47   11.30
  -5   4   7  305.87   11.20
   5   4  -7  315.47   10.10
   5   4  -7  297.97   10.50
   5   4  -7  298.87   11.30
   5   4  -7  302.67   11.90
   4  -4  -7  264.87   10.20
  -4  -4   7  249.88    9.50
   4  -4  -7  276.47   10.40
  -4  -4   7  272.37    8.70
   4  -4  -7  258.77    9.20
  -4  -4   7  268.87   10.30
  -4  -4   7  280.87    9.90
   4  -4  -7  259.37   10.00
   4  -4  -7  267.17    7.70
   4   4  -7  272.17    8.70
   4   4  -7  262.47    9.60
   4   4  -7  257.57   10.50
  -4   4   7  261.37    9.90
  -4   4   7  272.87   10.30
   4   4  -7  260.17   10.20
  -4   4   7  267.37    9.80
   3  -4  -7   -0.70    1.20
  -3  -4   7   -0.60    0.90
  -3  -4   7    0.70    1.30
   3  -4  -7   -0.50    1.30
  -3  -4   7   -0.50    1.50
   3  -4  -7    0.50    0.70
   3  -4  -7   -1.00    0.80
  -3   4   7   -0.40    1.30
   3   4  -7   -0.30    0.80
   3   4  -7   -0.30    1.20
  -3   4   7   -1.40    1.20
   3   4  -7   -1.00    1.10
   3   4  -7   -1.50    1.30
  -3   4   7    0.40    1.00
   2  -4  -7    4.10    1.70
   2  -4  -7    6.90    1.30
  -2  -4   7    5.30    1.20
  -2  -4   7    4.80    1.70
  -2  -4   7    5.70    1.90
   2  -4  -7    6.00    1.20
   2  -4  -7    3.90    1.80
   2   4  -7    5.20    1.30
  -2   4   7    4.40    1.80
  -2   4   7    3.10    1.20
  -2   4   7    5.00    1.70
   2   4  -7    4.60    1.70
   2   4  -7    5.60    1.70
  -2   4   7    4.50    1.20
   2   4  -7    4.00    1.90
  -1  -4   7   12.70    2.40
   1  -4  -7   17.00    2.60
   1  -4  -7   20.30    2.80
  -1  -4   7   21.70    2.60
   1  -4  -7   17.40    2.00
  -1  -4   7   19.90    2.80
   1  -4  -7   20.40    1.30
  -1   4   7   15.40    1.80
   1   4  -7   14.30    2.50
  -1   4   7   19.40    2.70
   1   4  -7   19.30    2.80
  -1   4   7   21.80    2.60
   1   4  -7   21.30    2.80
  -1   4   7   18.40    2.30
   0  -4  -7  331.37   11.60
   0  -4  -7  324.57   11.70
   0  -4  -7  317.47   10.60
   0  -4   7  332.97   11.70
   0  -4   7  312.57   11.60
   0  -4   7  320.97   11.20
   0   4   7  320.87   11.00
   0   4   7  314.77   11.00
   0   4   7  331.17   11.70
   0   4  -7  331.77   11.70
   0   4   7  326.47    9.50
   0   4  -7  296.37   11.40
   0   4  -7  336.47   11.90
  -1  -4  -7  164.48    7.50
   1  -4   7  161.58    7.30
   1  -4   7  167.68    7.30
  -1  -4  -7  169.98    6.90
  -1  -4  -7  175.28    7.60
   1  -4   7  169.58    7.70
   1   4   7  167.48    4.80
   1   4   7  172.58    7.40
   1   4   7  165.58    6.90
  -1   4  -7  182.38    7.80
   1   4   7  176.08    7.60
  -1   4  -7  164.48    7.60
  -2  -4  -7  337.47   12.00
   2  -4   7  317.77   12.00
   2  -4   7  316.47   11.70
  -2  -4  -7  318.17   11.70
  -2  -4  -7  341.47   11.60
   2  -4   7  333.67   11.80
   2   4   7  314.67   10.90
   2   4   7  327.07   11.90
   2   4   7  327.97   11.80
  -2   4  -7  312.37   11.90
  -2   4  -7  335.97   12.20
   3  -4   7  292.77   11.20
   3  -4   7  307.77   11.50
   3  -4   7  281.87   11.10
  -3  -4  -7  282.47   11.00
  -3  -4  -7  287.47   10.90
  -3  -4  -7  309.17   11.50
  -3   4  -7  300.87   11.50
  -3   4  -7  285.67   11.30
   3   4   7  292.77   11.50
   3   4   7  292.97   10.80
  -4  -4  -7   39.20    4.40
   4  -4   7   41.30    4.30
  -4  -4  -7   40.70    3.90
  -4  -4  -7   36.60    4.20
   4  -4   7   37.00    4.10
   4  -4   7   39.70    4.40
   4   4   7   51.09    4.00
  -4   4  -7   50.19    4.70
   4   4   7   41.30    4.20
   4   4   7   40.00    4.50
  -4   4  -7   43.70    4.50
   5  -4   7    7.70    2.50
  -5  -4  -7    9.00    2.80
   5  -4   7   15.00    2.90
  -5  -4  -7    4.50    2.20
  -5  -4  -7    9.60    2.20
  -5   4  -7   14.40    2.90
   5   4   7   11.40    2.70
   5   4   7   15.30    2.80
  -5   4  -7    7.50    2.60
   6  -4   7   13.00    2.90
  -6  -4  -7    9.30    2.80
  -6  -4  -7    9.90    2.60
   6  -4   7   18.30    3.40
  -6  -4  -7   11.00    2.30
  -6   4  -7    8.30    2.60
  -6   4  -7   10.70    3.00
   6   4   7   10.60    2.60
   6   4   7   12.30    3.30
  -7  -4  -7   -0.70    1.60
  -7  -4  -7   -2.60    1.30
  -7  -4  -7   -1.70    2.10
   7  -4   7   -0.30    2.10
   7  -4   7   -0.10    2.10
   7   4   7    0.60    2.40
  -7   4  -7   -0.60    2.10
   7   4   7    1.40    1.80
  -7   4  -7    0.70    1.80
  -8  -4  -7    8.20    2.10
  -8  -4  -7    6.90    3.10
  -8  -4  -7    1.40    2.60
   8  -4   7    8.00    3.20
   8  -4   7   10.30    2.90
   8   4   7    4.40    2.90
  -8   4  -7    6.70    2.60
  -8   4  -7    6.00    2.90
   8   4   7    7.30    2.50
   9  -4   7   -0.60    2.50
  -9  -4  -7    0.80    1.80
   9  -4   7    6.30    3.10
  -9   4  -7    4.50    3.40
  -9   4  -7    0.70    2.10
   9   4   7    4.10    2.30
 -10  -5   7    9.80    3.20
  10  -5  -7    2.30    2.50
  10  -5  -7    2.70    2.50
 -10   5   7    2.70    2.50
  10   5  -7    6.00    3.30
 -10   5   7    5.40    2.60
  10   5  -7    0.40    2.30
   9  -5  -7    8.50    3.00
  -9  -5   7    9.20    1.90
   9  -5  -7    6.70    2.70
  -9  -5   7    8.80    3.20
   9   5  -7    9.90    3.50
  -9   5   7    7.30    2.90
  -9   5   7   12.30    2.90
   9   5  -7    6.60    2.90
  -9   5   7    9.40    2.90
   8  -5  -7    5.90    2.60
  -8  -5   7    6.80    2.00
   8  -5  -7    8.70    2.70
  -8  -5   7    4.80    2.80
   8   5  -7    8.00    2.80
   8   5  -7    2.20    2.30
  -8   5   7    5.40    2.50
  -8   5   7    2.20    2.40
  -8   5   7    5.30    2.50
  -7  -5   7   10.80    3.10
   7  -5  -7    6.70    2.50
   7  -5  -7    9.70    2.60
  -7  -5   7    6.70    1.90
   7  -5  -7    7.20    2.40
  -7   5   7    9.80    2.70
  -7   5   7    9.20    2.80
   7   5  -7    7.20    2.90
  -7   5   7    6.40    2.70
   6  -5  -7   31.10    4.10
  -6  -5   7   42.60    3.90
   6  -5  -7   41.70    4.70
  -6  -5   7   31.60    3.20
  -6  -5   7   34.70    4.40
   6  -5  -7   39.30    4.20
  -6   5   7   33.40    3.90
   6   5  -7   38.30    4.80
  -6   5   7   35.10    4.30
  -6   5   7   40.90    4.40
  -5  -5   7   11.30    2.00
   5  -5  -7   15.60    2.80
   5  -5  -7   14.70    3.00
   5  -5  -7   10.60    2.70
   5  -5  -7   15.80    3.10
  -5  -5   7   14.00    2.60
  -5  -5   7   11.80    2.90
   5   5  -7   13.70    3.20
  -5   5   7   12.30    2.90
   5   5  -7   11.50    2.80
  -5   5   7    9.10    2.30
  -5   5   7   11.90    2.50
   4  -5  -7   11.10    2.80
   4  -5  -7   14.00    2.40
  -4  -5   7   15.10    2.70
  -4  -5   7   10.70    2.00
   4  -5  -7    8.00    2.40
   4  -5  -7   10.30    2.10
  -4  -5   7    8.70    2.70
  -4   5   7    7.00    2.30
   4   5  -7    9.00    2.80
   4   5  -7   13.10    2.60
  -4   5   7   10.60    2.20
  -4   5   7    8.60    2.40
  -3  -5   7    2.20    1.60
   3  -5  -7    4.50    2.10
   3  -5  -7    3.70    2.20
   3  -5  -7    9.30    1.60
  -3  -5   7    6.00    1.60
  -3  -5   7    3.10    1.90
   3  -5  -7    6.60    1.60
  -3   5   7    4.80    2.20
  -3   5   7    6.60    1.50
  -3   5   7    5.50    1.70
  -3   5   7    3.10    1.60
   3   5  -7    6.30    2.20
   3   5  -7    4.80    2.20
  -2  -5   7  127.89    6.80
  -2  -5   7  134.29    5.80
   2  -5  -7  124.89    6.90
   2  -5  -7  123.59    5.00
   2  -5  -7  139.79    6.80
  -2  -5   7  134.59    7.00
   2  -5  -7  127.69    5.40
  -2   5   7  131.39    7.00
   2   5  -7  129.59    6.60
  -2   5   7  127.29    6.50
   2   5  -7  118.79    6.70
  -2   5   7  125.19    5.60
  -2   5   7  128.49    5.60
   2   5  -7  118.69    6.50
   1  -5  -7  263.17    9.00
  -1  -5   7  243.58   10.20
   1  -5  -7  243.48   10.30
   1  -5  -7  241.98   10.10
  -1  -5   7  258.07   10.40
  -1   5   7  255.37    9.90
   1   5  -7  244.18   10.00
   1   5  -7  226.58   10.10
  -1   5   7  250.07    8.40
  -1   5   7  259.47   10.50
  -1   5   7  235.48    9.10
   1   5  -7  244.48   10.20
   0  -5  -7  174.28    8.30
   0  -5   7  194.48    8.70
   0  -5   7  174.38    8.20
   0  -5  -7  186.58    7.50
   0  -5  -7  185.88    8.60
   0   5   7  164.18    7.70
   0   5  -7  188.58    8.60
   0   5  -7  179.88    8.20
   0   5   7  191.78    7.90
   0   5   7  188.28    8.60
   0   5  -7  177.98    8.50
   0   5   7  175.98    6.10
  -1  -5  -7  218.88    9.60
  -1  -5  -7  243.68    9.10
   1  -5   7  212.28    9.30
  -1  -5  -7  243.88   10.00
   1  -5   7  238.08   10.00
   1  -5   7  226.18    9.70
   1   5   7  229.98    9.10
   1   5   7  215.48    9.60
  -1   5  -7  236.08    9.90
  -1   5  -7  225.18    9.80
  -1   5  -7  221.48    9.80
   1   5   7  208.28    9.10
  -2  -5  -7   62.59    5.00
   2  -5   7   56.69    5.30
   2  -5   7   59.99    5.20
   2  -5   7   64.89    5.00
  -2  -5  -7   56.09    4.40
  -2  -5  -7   54.39    5.00
  -2   5  -7   53.69    5.20
   2   5   7   59.19    4.30
   2   5   7   58.49    4.70
  -2   5  -7   55.39    5.20
  -2   5  -7   55.59    4.60
   2   5   7   62.59    4.80
  -3  -5  -7   94.59    5.70
  -3  -5  -7   74.19    5.30
   3  -5   7   88.39    5.70
   3  -5   7   67.09    5.50
   3  -5   7   88.19    5.70
  -3  -5  -7   94.09    6.20
  -3   5  -7   83.99    5.80
   3   5   7   84.19    5.50
   3   5   7   76.19    5.40
  -3   5  -7   82.09    5.60
   4  -5   7   88.89    6.00
   4  -5   7   79.29    5.90
   4  -5   7   96.59    5.90
  -4  -5  -7   98.89    6.50
  -4  -5  -7   93.49    5.80
  -4  -5  -7   84.89    5.90
   4   5   7   91.79    5.80
  -4   5  -7   89.19    6.10
   4   5   7   92.49    6.40
  -4   5  -7   89.79    6.00
  -5  -5  -7    0.70    2.10
   5  -5   7   -0.50    2.00
   5  -5   7    2.10    2.20
   5  -5   7   -2.60    1.70
  -5  -5  -7    0.30    2.00
  -5  -5  -7   -1.70    1.70
   5   5   7   -0.60    2.10
   5   5   7    1.00    1.70
  -5   5  -7   -2.50    1.70
  -5   5  -7    1.10    2.10
   6  -5   7    3.40    2.80
  -6  -5  -7    2.30    2.00
  -6  -5  -7    0.50    2.10
  -6  -5  -7    5.50    2.70
   6  -5   7    0.70    2.20
  -6   5  -7    1.10    1.90
   6   5   7    1.90    2.00
   6   5   7    0.10    2.40
  -6   5  -7    3.30    2.40
   7  -5   7   24.60    4.40
  -7  -5  -7   26.20    4.40
  -7  -5  -7   26.40    4.60
  -7  -5  -7   31.00    3.90
  -7   5  -7   22.40    4.10
  -7   5  -7   33.90    4.70
   7   5   7   25.10    4.70
   7   5   7   28.10    4.00
   8  -5   7   18.90    4.10
  -8  -5  -7   21.10    3.30
   8  -5   7   23.50    4.70
   8   5   7   13.40    4.10
   8   5   7   21.00    3.90
  -8  -6   7   -0.50    1.70
  -8  -6   7   -1.90    2.60
   8  -6  -7    0.50    2.00
   8  -6  -7   -2.40    2.00
  -8   6   7    0.10    2.50
  -8   6   7    1.30    2.60
   8   6  -7    0.10    2.60
  -8   6   7   -2.70    2.10
   7  -6  -7   16.70    3.80
   7  -6  -7   17.30    3.40
  -7  -6   7   20.00    3.20
  -7  -6   7   15.90    3.80
  -7   6   7   17.30    3.60
   7   6  -7   17.40    4.20
  -7   6   7   15.80    3.50
  -7   6   7   16.60    3.50
   6  -6  -7   24.00    4.00
   6  -6  -7   19.20    3.40
  -6  -6   7   26.30    3.70
   6  -6  -7   24.30    4.30
  -6  -6   7   30.30    4.60
  -6   6   7   26.80    4.30
   6   6  -7   29.10    4.70
  -6   6   7   34.80    4.70
  -6   6   7   30.80    4.10
   5  -6  -7   96.19    5.70
   5  -6  -7   83.29    6.10
   5  -6  -7  103.19    6.80
   5  -6  -7  109.59    7.20
  -5  -6   7  102.39    5.60
  -5  -6   7  106.89    6.40
  -5  -6   7  106.19    7.10
  -5   6   7  106.49    6.80
  -5   6   7  111.99    7.20
   5   6  -7   86.89    6.50
  -5   6   7  102.89    6.30
   4  -6  -7   30.30    4.50
  -4  -6   7   33.20    4.10
  -4  -6   7   29.50    3.40
   4  -6  -7   36.50    3.70
   4  -6  -7   36.00    4.60
  -4  -6   7   33.80    4.40
  -4   6   7   43.20    5.00
   4   6  -7   30.60    4.30
  -4   6   7   37.60    3.90
  -4   6   7   35.10    4.40
  -3  -6   7   -1.60    1.40
   3  -6  -7    1.40    2.10
  -3  -6   7   -1.90    1.80
   3  -6  -7    3.00    2.20
  -3  -6   7   -2.40    1.40
   3   6  -7   -0.80    1.90
  -3   6   7   -0.50    1.30
   3   6  -7    1.20    2.10
  -3   6   7    0.30    1.90
  -3   6   7    2.90    1.70
  -2  -6   7   15.70    3.50
  -2  -6   7   12.30    2.40
   2  -6  -7   12.20    2.20
   2  -6  -7   12.00    3.00
  -2  -6   7   15.70    3.20
   2  -6  -7    6.90    2.70
  -2   6   7   15.40    3.40
  -2   6   7   10.00    2.10
   2   6  -7   14.60    2.90
   2   6  -7    6.80    2.70
  -2   6   7    9.50    2.70
   2   6  -7   13.90    3.30
  -2   6   7   14.20    2.30
  -1  -6   7    7.10    2.40
   1  -6  -7    7.40    2.80
  -1  -6   7    5.80    2.50
   1  -6  -7   10.70    2.10
   1  -6  -7   14.30    2.90
  -1   6   7    5.10    2.10
  -1   6   7    6.30    2.40
   1   6  -7    9.10    2.90
   1   6  -7    9.30    2.60
  -1   6   7   11.70    3.10
   1   6  -7    9.30    2.90
   0  -6  -7   52.79    5.40
   0  -6   7   49.60    5.30
   0  -6  -7   43.90    4.10
   0  -6   7   49.60    5.30
   0  -6  -7   48.60    5.20
   0   6  -7   46.00    5.10
   0   6  -7   40.80    4.90
   0   6   7   58.59    5.60
   0   6  -7   45.30    4.90
   0   6   7   49.60    4.20
   0   6   7   42.30    4.40
  -1  -6  -7    5.50    2.30
   1  -6   7    7.00    2.70
   1  -6   7    8.40    2.80
  -1  -6  -7    4.30    2.40
  -1  -6  -7    7.70    2.70
  -1   6  -7    7.90    2.40
   1   6   7    4.30    2.10
  -1   6  -7    7.60    2.60
  -1   6  -7    5.50    2.60
   1   6   7    6.70    2.40
   1   6   7    3.50    2.30
   2  -6   7   79.19    6.30
   2  -6   7   76.39    5.90
  -2  -6  -7  100.19    6.80
  -2  -6  -7   94.99    5.90
  -2  -6  -7   79.99    6.00
  -2   6  -7   95.79    6.70
  -2   6  -7   85.69    6.00
   2   6   7   89.79    6.10
  -2   6  -7   81.59    6.00
   2   6   7   82.39    5.90
   3  -6   7   15.40    3.50
  -3  -6  -7   15.70    3.70
  -3  -6  -7   14.40    3.40
  -3  -6  -7    8.80    2.80
   3  -6   7    9.60    2.90
   3   6   7   10.90    2.90
  -3   6  -7   10.40    3.30
   3   6   7   11.10    3.10
  -3   6  -7   10.80    2.90
  -3   6  -7   13.50    3.40
   4  -6   7    3.20    2.70
  -4  -6  -7    3.30    2.80
  -4  -6  -7    4.50    2.50
   4  -6   7    3.30    2.40
  -4  -6  -7    3.30    2.40
   4   6   7    3.70    2.30
  -4   6  -7    6.60    3.00
  -4   6  -7    9.00    3.10
  -4   6  -7    4.90    2.30
  -5  -6  -7   12.80    3.20
  -5  -6  -7   13.10    3.60
   5  -6   7    9.60    3.00
  -5  -6  -7    8.60    3.10
   5  -6   7   12.30    3.50
  -5   6  -7   11.60    3.10
  -5   6  -7    9.90    3.30
   5   6   7   11.20    3.20
  -5   6  -7   12.50    3.50
   5   6   7    9.60    3.50
  -6  -6  -7    8.90    3.50
  -6  -6  -7    5.20    2.70
  -6  -6  -7    4.50    2.90
  -6   6  -7    1.60    2.50
   6   6   7    4.30    3.20
   6   6   7    4.80    2.50
  -6  -7   7   51.19    5.70
   6  -7  -7   64.99    8.20
   6  -7  -7   64.99    6.70
   6   7  -7   57.89    7.00
  -6   7   7   72.69    6.70
   5  -7  -7  108.19    7.80
  -5  -7   7  103.49    7.00
  -5  -7   7  112.09    8.00
   5  -7  -7   81.79    7.60
  -5   7   7  104.49    6.80
  -5   7   7   93.29    7.10
  -5   7   7  101.49    7.60
   5   7  -7   93.49    7.70
  -4  -7   7   19.30    3.90
   4  -7  -7   24.50    4.40
   4  -7  -7   20.40    4.10
  -4  -7   7   18.70    3.90
  -4   7   7   23.00    3.90
  -4   7   7   22.10    4.40
   4   7  -7   23.60    4.50
  -3  -7   7    4.00    3.10
   3  -7  -7    5.90    2.90
  -3  -7   7    5.60    2.70
  -3  -7   7    3.60    2.30
   3  -7  -7    0.50    2.40
  -3   7   7    9.30    3.40
   3   7  -7    5.50    3.30
  -3   7   7    9.80    3.20
  -2  -7   7   13.60    3.60
   2  -7  -7   11.60    3.40
  -2  -7   7   10.60    3.30
   2  -7  -7   23.60    4.30
   2   7  -7   17.20    3.80
   2   7  -7   10.40    3.40
  -2   7   7   14.30    3.70
  -2   7   7   17.30    3.70
   2   7  -7   13.00    3.20
   1  -7  -7    6.30    3.00
  -1  -7   7    2.90    2.80
   1  -7  -7    0.80    2.50
  -1  -7   7    5.20    2.90
   1   7  -7    2.00    2.60
  -1   7   7    1.30    1.80
  -1   7   7    0.40    2.20
  -1   7   7    4.10    2.80
   1   7  -7    0.80    2.10
   1   7  -7    2.00    2.50
   0  -7   7   61.39    6.30
   0  -7   7   69.19    6.70
   0  -7  -7   70.09    6.90
   0  -7  -7   57.39    6.10
   0  -7  -7   63.19    4.90
   0   7  -7   61.19    6.10
   0   7   7   68.69    6.70
   0   7   7   58.99    5.00
   0   7   7   61.49    5.90
   0   7  -7   56.39    6.10
   0   7  -7   70.19    6.80
   1  -7   7   -2.60    2.20
   1  -7   7    0.20    2.00
  -1  -7  -7    0.10    2.30
  -1  -7  -7   -2.20    2.20
  -1  -7  -7   -2.50    2.10
  -1   7  -7   -0.40    2.40
  -1   7  -7   -0.60    2.30
  -1   7  -7   -3.60    1.80
   1   7   7    1.10    2.60
   1   7   7    1.90    2.30
   1   7   7    2.70    2.40
   2  -7   7   31.10    4.70
  -2  -7  -7   42.10    5.10
  -2  -7  -7   37.40    5.10
  -2  -7  -7   38.90    5.30
   2  -7   7   42.60    5.40
  -2   7  -7   31.10    4.80
  -2   7  -7   30.40    4.90
  -2   7  -7   39.50    5.20
   2   7   7   38.00    5.30
  -3  -7  -7   50.69    6.10
   3  -7   7   59.09    6.70
  -3  -7  -7   61.09    6.40
  -3  -7  -7   61.79    6.10
   3  -7   7   66.89    6.50
  -3   7  -7   63.69    6.40
  -3   7  -7   60.49    6.70
  -3   7  -7   47.70    5.70
   3   7   7   55.49    6.30
   4  -7   7   -2.20    2.10
   4  -7   7   -1.70    2.30
  -4  -7  -7    0.50    2.50
   4   7   7    3.10    2.80
  -4   7  -7   -1.00    2.40
 -12   0   8   46.40    5.20
  12   0  -8   46.90    5.90
 -12   0   8   46.30    5.60
  12   0  -8   55.99    5.80
 -11   0   8   32.20    4.10
  11   0  -8   25.60    4.40
 -11   0   8   36.30    3.70
  11   0  -8   31.60    4.20
 -11   0   8   34.60    4.40
  10   0  -8  151.88    8.30
  10   0  -8  154.88    7.80
 -10   0   8  157.08    7.80
 -10   0   8  154.88    8.00
   9   0  -8    2.90    1.90
  -9   0   8    5.10    0.90
   9   0  -8    5.00    1.60
  -9   0   8    6.50    1.50
   9   0  -8    3.40    1.80
  -9   0   8    2.60    1.50
  -8   0   8    3.80    1.70
  -8   0   8    3.50    1.20
   8   0  -8    6.30    2.10
  -8   0   8    5.00    1.10
   8   0  -8    3.10    1.30
   8   0  -8    5.20    2.00
  -8   0   8    5.50    1.10
   7   0  -8  327.57   10.40
  -7   0   8  347.57   12.00
   7   0  -8  337.97   12.30
   7   0  -8  368.86   11.10
  -7   0   8  345.37   10.40
  -7   0   8  355.86   10.50
  -7   0   8  357.36   10.60
   7   0  -8  337.47   12.10
   6   0  -8    5.80    1.80
   6   0  -8    6.20    1.20
   6   0  -8    6.00    1.70
  -6   0   8    5.30    1.40
  -6   0   8    5.50    1.20
   6   0  -8    7.80    1.40
  -6   0   8    3.70    0.90
  -6   0   8    5.80    1.20
  -6   0   8    4.30    1.00
  -5   0   8   71.99    2.90
  -5   0   8   64.69    3.60
   5   0  -8   64.69    3.80
   5   0  -8   66.89    3.30
  -5   0   8   62.09    2.50
   5   0  -8   68.09    3.90
  -5   0   8   64.69    3.30
   5   0  -8   64.19    3.20
  -5   0   8   61.59    3.30
   5   0  -8   69.49    2.90
  -4   0   8  626.34   17.50
   4   0  -8  602.24   17.40
  -4   0   8  603.44   16.00
   4   0  -8  602.54   17.90
  -4   0   8  651.63   17.60
   4   0  -8  633.14   17.30
   4   0  -8  591.24   17.80
  -4   0   8  587.44   17.60
  -4   0   8  588.54   16.60
   4   0  -8  613.74   16.60
  -3   0   8  538.55   14.40
   3   0  -8  542.55   16.00
  -3   0   8  562.14   15.40
  -3   0   8  555.44   16.00
   3   0  -8  534.95   15.90
   3   0  -8  539.05   14.40
   3   0  -8  572.24   15.20
  -3   0   8  542.55   15.90
  -3   0   8  550.04   15.90
  -3   0   8  541.75   15.10
   2   0  -8    9.60    1.20
   2   0  -8    7.20    0.80
  -2   0   8    8.20    1.50
   2   0  -8    7.20    1.40
  -2   0   8    7.90    1.40
  -2   0   8    6.60    1.20
   2   0  -8    7.00    1.30
  -2   0   8    8.70    1.30
  -2   0   8    7.10    0.80
  -2   0   8    9.20    1.20
   1   0  -8 1435.16   37.60
  -1   0   8 1348.97   36.60
  -1   0   8 1430.96   37.30
   1   0  -8 1387.36   36.30
   1   0  -8 1383.06   36.90
   1   0  -8 1370.66   37.50
  -1   0   8 1417.16   37.60
   1   0  -8 1425.86   36.90
  -1   0   8 1401.06   37.20
  -1   0   8 1385.66   37.50
   0   0  -8   81.19    3.40
   0   0  -8   84.59    3.30
   0   0   8   81.79    3.10
   0   0  -8   83.99    4.10
   0   0  -8   81.79    4.10
   0   0   8   77.09    4.00
   0   0   8   80.49    3.70
   0   0  -8   81.49    3.80
   0   0   8   79.29    3.80
  -1   0  -8    1.30    0.80
  -1   0  -8    1.70    1.10
   1   0   8    2.10    0.90
   1   0   8    2.60    1.20
  -1   0  -8    3.10    1.00
  -1   0  -8    2.50    1.10
   1   0   8    2.50    0.60
   1   0   8    3.20    1.20
   2   0   8  165.58    6.50
  -2   0  -8  163.98    6.40
  -2   0  -8  163.68    5.90
   2   0   8  168.18    6.00
   2   0   8  166.28    6.40
  -2   0  -8  141.79    6.20
   2   0   8  157.88    4.50
  -2   0  -8  160.08    6.20
  -3   0  -8  514.85   15.10
   3   0   8  504.75   15.80
  -3   0  -8  521.65   15.60
   3   0   8  500.55   15.00
  -3   0  -8  519.15   15.70
   3   0   8  516.75   15.60
  -3   0  -8  490.65   15.50
  -4   0  -8  387.26   13.20
  -4   0  -8  414.56   13.10
  -4   0  -8  404.06   13.00
   4   0   8  380.46   13.30
  -4   0  -8  422.26   12.60
   4   0   8  414.56   13.00
   5   0   8   21.10    2.70
   5   0   8   19.90    2.90
  -5   0  -8   18.40    2.30
   5   0   8   18.50    2.50
  -5   0  -8   20.50    2.60
  -5   0  -8   20.80    2.90
  -5   0  -8   15.60    2.30
   6   0   8   56.59    3.80
  -6   0  -8   63.09    4.60
   6   0   8   55.89    4.30
  -6   0  -8   52.99    3.80
  -6   0  -8   64.39    4.00
   6   0   8   61.29    4.10
   7   0   8    4.80    1.90
  -7   0  -8    1.30    1.60
  -7   0  -8    5.00    1.80
   7   0   8    6.40    2.30
  -7   0  -8    2.80    1.60
  -8   0  -8   -0.80    1.30
   8   0   8    0.20    1.70
   8   0   8    1.70    1.90
  -8   0  -8   -0.70    1.60
  -8   0  -8    0.70    1.60
  -9   0  -8   21.20    2.90
   9   0   8   19.10    3.70
   9   0   8   25.40    4.00
  -9   0  -8   24.20    4.30
  10   0   8   80.49    7.10
 -10   0  -8   83.79    8.80
  10   0   8   76.29    6.00
 -10   0  -8   77.09    4.70
  12  -1  -8   10.70    3.50
  12  -1  -8    9.00    3.00
 -12  -1   8   10.30    2.90
 -12  -1   8    8.40    3.10
 -12   1   8   12.40    3.10
  12   1  -8   13.80    3.70
 -12   1   8   16.10    3.80
  12   1  -8   14.80    3.40
 -11  -1   8   12.50    2.90
  11  -1  -8   16.50    3.40
  11  -1  -8   14.20    3.60
 -11  -1   8   19.40    3.60
  11   1  -8   15.60    2.90
  11   1  -8   13.70    3.00
 -11   1   8   23.00    3.60
 -11   1   8   10.90    3.20
  11   1  -8   14.60    3.50
 -10  -1   8   14.80    2.30
 -10  -1   8   10.70    2.30
  10  -1  -8   10.70    2.70
  10  -1  -8   15.60    3.40
 -10  -1   8   13.70    3.00
  10   1  -8   15.60    2.80
  10   1  -8   12.60    3.20
 -10   1   8   19.20    3.20
  10   1  -8   14.30    3.00
 -10   1   8   11.40    3.10
 -10   1   8   14.60    1.60
  -9  -1   8    2.80    0.50
   9  -1  -8    6.30    2.30
  -9  -1   8    1.90    1.20
  -9  -1   8    3.00    1.90
   9  -1  -8   -0.50    1.60
  -9  -1   8    1.40    1.40
   9   1  -8    2.10    2.00
   9   1  -8    2.00    1.50
  -9   1   8    1.00    1.60
  -9   1   8    3.00    1.80
  -9   1   8    1.30    1.00
   9   1  -8    2.20    1.90
  -8  -1   8   47.30    2.80
  -8  -1   8   43.30    3.10
  -8  -1   8   45.20    2.20
   8  -1  -8   45.30    4.30
  -8  -1   8   42.90    4.00
   8  -1  -8   48.90    4.60
  -8  -1   8   45.10    2.30
   8   1  -8   37.50    4.20
  -8   1   8   42.40    4.00
  -8   1   8   36.00    3.90
  -8   1   8   40.80    2.70
   8   1  -8   44.60    3.50
  -8   1   8   42.50    2.20
   8   1  -8   47.50    4.40
  -7  -1   8  195.88    6.40
   7  -1  -8  192.28    6.90
   7  -1  -8  184.58    8.20
   7  -1  -8  199.08    6.20
  -7  -1   8  200.88    6.50
   7  -1  -8  192.98    8.10
  -7  -1   8  199.68    7.20
  -7  -1   8  194.98    6.40
  -7  -1   8  183.08    7.90
   7   1  -8  210.58    7.70
  -7   1   8  191.08    5.70
   7   1  -8  184.18    8.00
  -7   1   8  197.28    7.00
   7   1  -8  178.68    8.20
  -7   1   8  199.18    8.00
  -7   1   8  190.38    6.90
   6  -1  -8   24.00    1.60
  -6  -1   8   22.70    2.00
  -6  -1   8   21.00    2.50
   6  -1  -8   28.20    3.00
  -6  -1   8   25.70    1.90
   6  -1  -8   22.60    2.80
  -6  -1   8   22.40    2.20
  -6  -1   8   25.60    1.50
   6  -1  -8   24.90    2.30
   6   1  -8   21.90    2.00
  -6   1   8   26.60    2.40
  -6   1   8   23.70    1.10
  -6   1   8   24.00    2.30
  -6   1   8   26.50    2.70
   6   1  -8   24.70    2.60
   6   1  -8   27.20    2.50
   6   1  -8   26.00    2.90
   6   1  -8   22.60    2.90
  -6   1   8   21.30    2.10
  -5  -1   8   19.70    0.90
  -5  -1   8   19.60    2.00
   5  -1  -8   19.70    2.50
  -5  -1   8   20.30    2.40
  -5  -1   8   18.70    0.90
  -5  -1   8   20.10    2.00
   5  -1  -8   19.10    2.40
   5  -1  -8   21.50    1.60
   5  -1  -8   18.90    2.10
  -5  -1   8   19.50    2.00
  -5   1   8   18.40    1.80
   5   1  -8   16.00    2.20
  -5   1   8   19.20    2.10
   5   1  -8   19.80    2.00
  -5   1   8   16.10    2.00
   5   1  -8   21.10    2.50
   5   1  -8   21.20    2.00
  -5   1   8   16.40    2.30
  -4  -1   8  661.13   18.20
   4  -1  -8  621.04   18.50
  -4  -1   8  643.94   18.30
   4  -1  -8  628.84   18.50
   4  -1  -8  633.34   18.80
  -4  -1   8  650.03   18.70
  -4  -1   8  635.44   18.30
   4  -1  -8  639.44   16.70
   4   1  -8  668.13   18.40
   4   1  -8  651.73   18.20
  -4   1   8  617.04   18.60
   4   1  -8  670.73   18.80
  -4   1   8  651.03   17.70
   4   1  -8  628.94   18.80
  -4   1   8  640.74   18.50
  -4   1   8  651.73   18.60
   3  -1  -8  351.86   10.80
   3  -1  -8  355.46    9.80
  -3  -1   8  361.66   11.10
  -3  -1   8  364.96   11.10
   3  -1  -8  367.06   11.30
  -3  -1   8  344.47   10.80
   3  -1  -8  356.36   11.20
  -3  -1   8  357.06   11.10
   3  -1  -8  347.47   10.30
  -3   1   8  352.66   11.20
  -3   1   8  362.36   11.10
   3   1  -8  350.96   10.80
  -3   1   8  354.96   11.30
   3   1  -8  343.97   11.00
   3   1  -8  356.86   11.30
  -3   1   8  359.86   10.30
  -2  -1   8   59.49    3.30
  -2  -1   8   64.49    2.90
   2  -1  -8   58.39    2.70
   2  -1  -8   63.79    3.20
  -2  -1   8   59.89    3.10
   2  -1  -8   58.29    3.40
   2  -1  -8   59.19    3.20
  -2  -1   8   60.59    3.30
   2  -1  -8   57.79    2.50
  -2   1   8   57.79    3.20
   2   1  -8   60.29    3.30
  -2   1   8   55.49    2.70
   2   1  -8   74.39    3.30
   2   1  -8   57.89    1.80
   2   1  -8   58.49    1.80
  -2   1   8   62.69    3.10
   2   1  -8   57.59    3.10
  -2   1   8   60.79    3.40
   1  -1  -8  127.09    5.40
   1  -1  -8  133.29    4.70
   1  -1  -8  133.39    4.80
  -1  -1   8  131.99    5.00
  -1  -1   8  129.59    5.40
  -1  -1   8  121.29    5.00
  -1  -1   8  135.79    5.50
   1  -1  -8  127.59    4.90
   1  -1  -8  124.59    4.70
   1   1  -8  124.69    5.30
  -1   1   8  131.49    4.80
  -1   1   8  126.99    5.20
  -1   1   8  126.69    5.30
  -1   1   8  142.59    4.90
   1   1  -8  123.89    4.10
   1   1  -8  132.59    5.20
  -1   1   8  128.39    5.40
   1   1  -8  133.09    4.90
   0  -1  -8 1097.39   29.60
   0  -1  -8 1087.79   29.20
   0  -1  -8 1136.09   29.40
   0  -1   8 1098.09   30.00
   0  -1  -8 1102.79   30.30
   0  -1   8 1088.29   30.20
   0  -1   8 1059.99   30.00
   0  -1  -8 1122.69   29.70
   0  -1   8 1147.99   31.30
   0  -1  -8 1116.69   30.40
   0   1  -8 1057.49   30.20
   0   1   8 1072.29   29.10
   0   1   8 1108.99   30.30
   0   1  -8 1103.19   29.20
   0   1   8 1138.59   29.50
   0   1   8 1096.29   30.10
   0   1  -8 1088.19   30.10
   0   1   8 1100.29   29.60
  -1  -1  -8   77.89    4.10
  -1  -1  -8   82.19    3.10
   1  -1   8   77.29    4.00
   1  -1   8   79.29    4.10
   1  -1   8   80.39    3.00
  -1  -1  -8   76.49    3.80
   1  -1   8   75.29    4.10
  -1  -1  -8   77.69    4.10
  -1  -1  -8   82.49    3.30
   1   1   8   76.89    4.10
  -1   1  -8   85.09    4.30
   1   1   8   79.19    3.80
  -1   1  -8   76.69    4.00
   1   1   8   82.29    4.10
   1   1   8   98.99    3.60
  -1   1  -8   83.79    4.10
   1   1   8   80.69    3.10
  -2  -1  -8    4.20    1.30
   2  -1   8    1.50    0.50
   2  -1   8    3.50    1.40
  -2  -1  -8    1.40    1.10
  -2  -1  -8    1.40    1.10
  -2  -1  -8    3.00    0.70
   2  -1   8    2.70    1.30
   2  -1   8    2.60    0.50
   2   1   8    2.30    0.60
   2   1   8    3.70    1.30
  -2   1  -8    4.00    1.30
  -2   1  -8    1.90    1.20
   2   1   8    1.50    0.80
   2   1   8    2.10    1.20
  -2   1  -8    0.70    1.10
   3  -1   8  909.01   26.50
   3  -1   8  931.31   26.40
  -3  -1  -8  905.21   26.20
  -3  -1  -8  944.71   26.30
  -3  -1  -8  917.11   24.10
  -3  -1  -8  957.30   26.60
  -3  -1  -8  971.50   25.10
  -3   1  -8  942.01   26.50
   3   1   8  912.31   26.20
   3   1   8  940.41   25.00
  -3   1  -8  884.71   26.10
   3   1   8  938.71   25.20
   3   1   8  946.51   26.60
  -3   1  -8  924.21   26.40
  -4  -1  -8  310.67   10.80
  -4  -1  -8  326.97    9.90
   4  -1   8  325.67   11.10
  -4  -1  -8  310.57    8.40
  -4  -1  -8  326.17   11.00
   4  -1   8  320.07   11.40
  -4  -1  -8  340.87   11.50
   4   1   8  335.47   10.00
  -4   1  -8  310.57   11.00
   4   1   8  327.17   10.90
  -4   1  -8  329.77   11.10
  -4   1  -8  332.77   11.20
   4   1   8  320.27   10.20
   4   1   8  317.27   11.30
  -5  -1  -8   47.10    2.90
  -5  -1  -8   52.59    3.60
   5  -1   8   57.99    4.20
   5  -1   8   59.39    3.90
  -5  -1  -8   59.09    4.30
  -5  -1  -8   51.29    3.50
   5   1   8   48.80    3.30
  -5   1  -8   49.99    3.70
   5   1   8   54.39    3.00
   5   1   8   50.49    3.90
  -5   1  -8   59.69    3.80
   5   1   8   45.20    3.30
  -5   1  -8   54.29    3.90
   6  -1   8    0.50    1.50
   6  -1   8    1.30    1.30
  -6  -1  -8   -1.50    0.90
  -6  -1  -8   -0.10    1.20
   6  -1   8   -2.20    0.90
  -6  -1  -8   -1.00    1.50
  -6   1  -8   -0.30    1.40
  -6   1  -8   -2.20    1.20
   6   1   8   -0.10    1.10
   6   1   8    2.40    1.40
   6   1   8    2.40    1.40
  -7  -1  -8  276.67    9.60
  -7  -1  -8  284.07   10.20
   7  -1   8  276.97   11.20
  -7  -1  -8  289.67   11.80
   7  -1   8  270.87   11.10
  -7   1  -8  277.17   11.50
   7   1   8  271.67   11.00
  -7   1  -8  292.87   10.60
  -7   1  -8  280.87   10.80
   7   1   8  290.67   10.50
   8  -1   8   40.90    4.70
   8  -1   8   36.90    4.50
  -8  -1  -8   43.70    4.90
  -8  -1  -8   42.10    3.70
  -8   1  -8   36.50    4.10
   8   1   8   31.70    3.80
  -8   1  -8   30.00    3.40
  -8   1  -8   41.70    4.80
   8   1   8   34.20    4.20
   9  -1   8   69.59    6.50
   9  -1   8   81.49    6.00
  -9  -1  -8   73.99    6.90
  -9  -1  -8   67.09    4.40
  -9   1  -8   84.59    5.90
  -9   1  -8   74.19    6.90
   9   1   8   64.69    6.00
   9   1   8   79.69    5.40
  -9   1  -8   74.49    4.90
  10  -1   8   23.40    4.10
  10  -1   8   19.30    3.80
 -10   1  -8   14.10    2.70
  10   1   8   11.30    3.10
 -10   1  -8   14.00    3.20
  10   1   8   14.00    3.40
  12  -2  -8  102.29    7.70
 -12  -2   8  114.79    7.30
 -12  -2   8  110.79    7.20
  12  -2  -8   99.19    6.90
  12   2  -8   94.99    6.50
 -12   2   8  119.59    7.30
  12   2  -8  100.89    7.00
 -12   2   8  107.89    7.90
  12   2  -8   89.89    7.10
  11  -2  -8    5.40    2.90
 -11  -2   8   14.00    3.30
  11  -2  -8    7.30    2.70
 -11  -2   8   10.70    2.60
 -11   2   8    8.70    1.70
 -11   2   8    3.50    2.30
  11   2  -8    7.70    2.50
  11   2  -8   14.10    3.30
  11   2  -8    8.90    3.30
 -11   2   8    9.40    3.10
 -10  -2   8   70.29    5.40
 -10  -2   8   81.59    5.10
  10  -2  -8   74.49    5.50
  10  -2  -8   73.99    5.90
 -10   2   8   72.49    5.40
 -10   2   8   74.29    4.00
 -10   2   8   80.79    6.10
  10   2  -8   64.49    6.30
  10   2  -8   78.39    5.50
  10   2  -8   73.29    5.50
  -9  -2   8  122.89    3.70
   9  -2  -8  120.99    6.80
  -9  -2   8  133.69    7.00
  -9  -2   8  126.89    6.40
  -9  -2   8  127.49    5.40
   9  -2  -8  120.89    7.10
   9   2  -8  132.39    7.10
   9   2  -8  129.29    6.70
   9   2  -8  118.49    7.20
  -9   2   8  127.09    6.80
  -9   2   8  130.49    7.30
  -9   2   8  122.69    5.50
  -8  -2   8   60.19    4.30
   8  -2  -8   65.19    4.80
   8  -2  -8   63.99    4.60
  -8  -2   8   52.59    4.00
  -8  -2   8   69.69    3.40
  -8  -2   8   60.49    2.80
   8   2  -8   63.99    4.70
   8   2  -8   64.49    4.60
  -8   2   8   65.49    4.90
  -8   2   8   60.79    3.80
   8   2  -8   52.79    5.10
  -8   2   8   72.89    4.60
  -7  -2   8   31.80    2.20
  -7  -2   8   30.20    2.00
   7  -2  -8   29.20    2.90
  -7  -2   8   30.90    3.10
  -7  -2   8   33.90    2.30
   7  -2  -8   29.70    3.50
   7  -2  -8   34.50    3.70
  -7   2   8   28.90    2.80
  -7   2   8   33.40    3.10
   7   2  -8   27.00    3.40
  -7   2   8   29.20    3.50
   7   2  -8   30.80    3.50
  -7   2   8   24.30    3.00
  -6  -2   8  170.68    6.70
   6  -2  -8  165.98    6.60
  -6  -2   8  166.88    6.00
   6  -2  -8  164.58    7.10
  -6  -2   8  166.48    5.20
   6  -2  -8  168.58    7.20
  -6  -2   8  165.18    6.00
  -6   2   8  164.48    7.30
  -6   2   8  158.48    7.00
  -6   2   8  165.58    6.60
   6   2  -8  148.19    6.90
  -6   2   8  170.18    6.60
   6   2  -8  157.98    5.90
   6   2  -8  163.78    7.10
   5  -2  -8 1008.30   28.40
  -5  -2   8 1000.70   27.70
  -5  -2   8 1012.10   26.00
   5  -2  -8 1041.70   25.80
   5  -2  -8  990.70   28.70
  -5  -2   8 1005.50   27.70
   5  -2  -8 1014.40   28.30
  -5  -2   8 1011.40   28.20
  -5   2   8 1030.90   28.30
   5   2  -8 1007.00   28.80
   5   2  -8  990.30   28.70
  -5   2   8 1009.30   28.70
   5   2  -8  995.60   27.70
  -5   2   8 1056.99   28.50
  -5   2   8  996.50   28.50
  -4  -2   8   47.30    3.10
   4  -2  -8   41.60    2.80
   4  -2  -8   50.79    3.00
  -4  -2   8   44.70    3.00
   4  -2  -8   55.89    3.40
   4  -2  -8   43.50    3.20
  -4  -2   8   48.20    3.00
  -4   2   8   47.00    3.00
   4   2  -8   48.10    3.20
  -4   2   8   54.19    3.40
   4   2  -8   52.79    3.10
   4   2  -8   54.79    3.40
  -4   2   8   44.50    3.00
  -4   2   8   51.89    3.30
   3  -2  -8   40.20    1.50
   3  -2  -8   37.30    1.50
   3  -2  -8   39.50    3.00
   3  -2  -8   35.50    2.50
  -3  -2   8   39.80    2.30
  -3  -2   8   39.80    2.80
  -3  -2   8   43.20    2.90
   3  -2  -8   37.90    2.80
  -3  -2   8   45.30    2.90
   3  -2  -8   41.40    2.40
  -3   2   8   39.50    3.00
  -3   2   8   40.30    2.60
   3   2  -8   37.70    1.30
   3   2  -8   41.40    2.80
   3   2  -8   42.30    3.20
  -3   2   8   34.80    2.70
  -3   2   8   39.20    2.90
   3   2  -8   40.60    2.90
   2  -2  -8 1754.72   45.30
   2  -2  -8 1760.82   46.50
  -2  -2   8 1807.02   46.80
  -2  -2   8 1707.63   46.50
   2  -2  -8 1770.72   46.10
  -2  -2   8 1744.63   46.60
   2  -2  -8 1728.43   46.80
  -2  -2   8 1775.22   45.90
  -2   2   8 1776.32   46.20
  -2   2   8 1701.83   46.80
   2   2  -8 1725.93   44.70
   2   2  -8 1755.52   46.50
  -2   2   8 1743.73   46.30
   2   2  -8 1712.03   46.60
  -1  -2   8  878.21   25.30
   1  -2  -8  908.11   25.00
  -1  -2   8  951.20   25.70
   1  -2  -8  867.71   25.50
  -1  -2   8  914.21   25.00
   1  -2  -8  897.11   25.00
  -1  -2   8  896.91   25.50
   1  -2  -8  940.91   25.80
  -1   2   8  941.41   25.10
   1   2  -8  927.81   24.00
   1   2  -8  889.11   24.90
   1   2  -8  869.91   25.40
  -1   2   8  881.61   25.50
   1   2  -8  908.61   25.60
  -1   2   8  884.41   24.80
   0  -2   8   57.59    3.60
   0  -2   8   49.40    3.40
   0  -2  -8   54.39    2.90
   0  -2   8   50.79    3.20
   0  -2  -8   55.79    3.00
   0  -2  -8   54.39    3.50
   0  -2  -8   56.79    3.30
   0   2  -8   49.60    3.50
   0   2  -8   59.49    3.00
   0   2   8   55.59    2.90
   0   2   8   58.99    2.60
   0   2   8   52.29    3.50
   0   2  -8   58.29    3.60
   1  -2   8   27.90    1.80
  -1  -2  -8   24.00    2.10
  -1  -2  -8   32.00    2.90
  -1  -2  -8   24.60    2.60
  -1  -2  -8   25.60    1.90
   1  -2   8   26.80    2.70
   1  -2   8   29.50    2.80
   1  -2   8   22.50    2.60
   1   2   8   25.60    2.70
  -1   2  -8   29.40    2.90
   1   2   8   27.60    2.00
   1   2   8   27.40    1.60
  -1   2  -8   19.40    2.50
   1   2   8   30.80    3.00
  -2  -2  -8  380.46   12.20
  -2  -2  -8  373.36   12.20
   2  -2   8  372.36   12.30
  -2  -2  -8  373.16   12.20
   2  -2   8  350.06   12.10
   2  -2   8  370.86   10.50
   2  -2   8  363.86   12.20
  -2  -2  -8  373.66   10.90
   2   2   8  381.06   12.20
   2   2   8  359.96   12.20
   2   2   8  363.36   10.20
  -2   2  -8  362.36   12.30
   2   2   8  376.86    9.80
   2   2   8  362.96   10.80
  -2   2  -8  353.56   12.10
  -3  -2  -8  100.99    4.90
   3  -2   8   86.99    4.90
   3  -2   8   93.19    3.20
  -3  -2  -8   97.59    5.10
   3  -2   8   85.89    4.90
  -3  -2  -8   89.09    4.80
  -3  -2  -8   93.99    3.70
   3   2   8   93.59    3.20
  -3   2  -8   92.59    5.00
  -3   2  -8   94.69    5.00
   3   2   8   92.39    4.80
   3   2   8   84.39    4.90
   3   2   8   91.69    3.30
   4  -2   8  278.07   10.70
  -4  -2  -8  293.87   10.40
  -4  -2  -8  286.77    8.70
   4  -2   8  291.37    7.90
  -4  -2  -8  291.67   10.80
   4  -2   8  295.07   10.60
  -4  -2  -8  280.67   10.20
   4   2   8  295.27   10.30
  -4   2  -8  289.17   10.70
   4   2   8  293.87    8.30
   4   2   8  299.67    8.90
   4   2   8  283.47   10.60
  -4   2  -8  300.07   10.60
  -5  -2  -8  385.96   10.90
   5  -2   8  375.06   13.60
  -5  -2  -8  383.76   13.70
  -5  -2  -8  389.26   12.90
   5  -2   8  389.26   13.30
   5   2   8  395.76   11.90
  -5   2  -8  409.06   13.70
   5   2   8  387.76   13.40
   5   2   8  391.56   12.90
   6  -2   8  198.18    8.40
  -6  -2  -8  191.98    9.00
  -6  -2  -8  191.48    7.80
   6  -2   8  192.38    8.80
   6   2   8  193.28    7.30
   6   2   8  205.68    8.70
  -6   2  -8  189.88    8.60
  -6   2  -8  201.58    8.40
   7  -2   8    8.10    2.70
   7  -2   8   12.20    2.90
  -7  -2  -8    9.80    2.10
  -7  -2  -8   10.60    3.00
  -7   2  -8   11.30    2.40
   7   2   8   12.00    2.10
   7   2   8    9.70    2.70
  -7   2  -8    8.30    2.50
  -8  -2  -8   43.00    3.80
   8  -2   8   50.49    5.60
  -8  -2  -8   41.50    5.10
   8  -2   8   49.70    5.30
  -8   2  -8   53.29    5.20
  -8   2  -8   42.10    4.20
   8   2   8   37.30    4.40
   9  -2   8   -2.10    2.00
  -9  -2  -8   -0.50    1.30
  -9  -2  -8   -4.00    2.00
   9  -2   8   -1.00    2.00
  -9   2  -8   -3.20    2.20
  -9   2  -8    1.00    1.80
   9   2   8   -1.50    2.00
  10  -2   8    3.60    2.70
  10  -2   8    3.20    2.70
  10   2   8    2.70    2.60
 -10   2  -8    0.90    1.90
 -10   2  -8    2.20    2.50
 -12  -3   8    4.00    2.50
  12  -3  -8   -0.10    2.30
  12  -3  -8    3.30    2.90
 -12  -3   8    0.70    2.60
 -12  -3   8   -2.10    2.20
 -12   3   8    2.60    2.60
  12   3  -8    0.80    2.50
  12   3  -8   -0.40    2.50
  11  -3  -8   27.60    4.30
 -11  -3   8   22.20    3.60
 -11  -3   8   16.30    3.50
  11  -3  -8   15.50    3.90
 -11   3   8   16.70    3.50
  11   3  -8   13.90    3.20
 -11   3   8   14.60    4.00
  11   3  -8   13.50    3.30
 -11   3   8   18.60    2.70
  10  -3  -8  127.49    7.40
 -10  -3   8  129.29    7.70
 -10  -3   8  152.78    7.90
  10  -3  -8  141.59    8.30
 -10   3   8  134.59    6.40
  10   3  -8  138.99    7.80
 -10   3   8  135.49    8.00
  10   3  -8  143.09    8.00
 -10   3   8  155.98    8.00
   9  -3  -8   23.90    3.60
  -9  -3   8   10.60    2.70
  -9  -3   8   15.70    1.50
   9  -3  -8   21.90    3.70
   9   3  -8   18.00    3.40
  -9   3   8   17.90    2.70
  -9   3   8   20.00    3.40
   9   3  -8   15.90    2.90
  -9   3   8   23.50    3.90
   8  -3  -8   24.90    3.50
  -8  -3   8   28.50    2.50
  -8  -3   8   29.40    2.30
  -8  -3   8   32.50    3.70
   8  -3  -8   29.20    3.80
  -8   3   8   27.80    3.20
  -8   3   8   20.80    3.20
   8   3  -8   22.70    3.40
   8   3  -8   24.70    3.70
  -8   3   8   24.00    3.70
  -7  -3   8  309.27   11.40
   7  -3  -8  298.97   11.40
   7  -3  -8  303.67   11.00
  -7  -3   8  309.57    9.90
  -7  -3   8  293.17    9.40
   7  -3  -8  299.57   11.60
  -7   3   8  324.37   11.10
   7   3  -8  300.67   11.60
  -7   3   8  311.07   11.40
   7   3  -8  289.27   11.60
  -7   3   8  313.97   11.90
   6  -3  -8  324.07   12.00
  -6  -3   8  348.47   11.90
  -6  -3   8  330.77    9.80
  -6  -3   8  339.47   10.90
  -6  -3   8  334.87   10.80
   6  -3  -8  320.57   11.60
   6  -3  -8  346.37   11.70
   6   3  -8  321.67   12.20
  -6   3   8  321.07   11.50
  -6   3   8  320.07   11.70
  -6   3   8  332.87   11.70
   6   3  -8  322.77   12.00
  -6   3   8  323.37   12.00
  -5  -3   8  125.79    5.50
   5  -3  -8  126.09    6.30
  -5  -3   8  123.59    5.50
   5  -3  -8  125.49    5.80
  -5  -3   8  128.99    4.40
  -5  -3   8  124.89    6.10
   5  -3  -8  138.59    6.30
   5  -3  -8  130.09    5.80
  -5   3   8  144.79    6.40
   5   3  -8  128.59    6.50
  -5   3   8  129.09    6.10
   5   3  -8  133.09    6.40
  -5   3   8  130.09    6.10
   5   3  -8  141.69    5.70
  -4  -3   8   93.69    3.40
  -4  -3   8   86.39    4.90
   4  -3  -8   95.09    4.40
   4  -3  -8   89.69    5.00
  -4  -3   8  102.39    4.80
   4  -3  -8   90.69    4.70
   4  -3  -8   95.69    5.10
  -4  -3   8   97.69    4.80
   4   3  -8   95.39    5.40
   4   3  -8   94.39    4.60
  -4   3   8   96.99    5.10
   4   3  -8   99.09    3.50
  -4   3   8   92.59    5.00
  -4   3   8   85.59    4.60
   4   3  -8   91.29    5.00
   3  -3  -8    2.00    1.00
  -3  -3   8    1.00    1.20
  -3  -3   8    0.80    0.90
  -3  -3   8    1.10    1.20
   3  -3  -8    0.30    0.50
  -3  -3   8   -0.70    1.20
   3  -3  -8   -1.50    0.90
   3  -3  -8   -0.40    1.10
   3  -3  -8    0.40    1.30
   3   3  -8   -1.70    1.20
   3   3  -8   -1.20    0.90
  -3   3   8   -0.10    0.80
  -3   3   8   -1.00    1.10
   3   3  -8    0.60    0.60
   3   3  -8    0.30    1.00
  -3   3   8    0.20    0.90
   2  -3  -8   42.70    3.10
  -2  -3   8   32.00    2.40
  -2  -3   8   32.00    3.10
   2  -3  -8   41.00    2.10
   2  -3  -8   38.70    2.10
  -2  -3   8   38.40    3.00
   2  -3  -8   39.30    3.00
   2  -3  -8   39.80    3.60
  -2   3   8   34.80    3.10
   2   3  -8   40.40    2.20
  -2   3   8   36.30    2.60
   2   3  -8   37.70    3.50
   2   3  -8   39.40    3.70
   2   3  -8   33.20    3.10
   2   3  -8   39.50    3.10
  -2   3   8   35.30    3.40
   1  -3  -8   68.49    3.30
   1  -3  -8   70.19    4.30
  -1  -3   8   68.99    3.70
   1  -3  -8   67.79    4.00
  -1  -3   8   70.59    4.20
  -1  -3   8   75.09    4.20
   1   3  -8   66.19    3.80
  -1   3   8   63.29    4.10
  -1   3   8   71.09    3.30
  -1   3   8   74.89    3.90
   1   3  -8   65.29    4.10
   1   3  -8   66.69    3.20
   1   3  -8   76.89    4.40
   0  -3  -8 1293.57   35.00
   0  -3   8 1327.47   36.20
   0  -3  -8 1278.47   36.10
   0  -3   8 1287.47   36.00
   0  -3   8 1313.37   35.60
   0  -3  -8 1306.47   35.80
   0   3  -8 1312.77   36.20
   0   3  -8 1286.37   36.10
   0   3  -8 1348.57   34.90
   0   3   8 1281.87   35.20
   0   3   8 1240.68   36.00
   0   3   8 1292.07   34.00
   1  -3   8  747.53   22.00
   1  -3   8  767.12   22.40
  -1  -3  -8  746.03   22.20
   1  -3   8  744.63   22.20
   1  -3   8  746.43   20.90
  -1  -3  -8  763.32   22.20
   1   3   8  763.02   21.20
  -1   3  -8  740.53   22.30
   1   3   8  762.02   22.20
   1   3   8  726.53   19.60
   1   3   8  741.43   19.60
  -1   3  -8  726.73   22.20
   2  -3   8  647.14   18.00
   2  -3   8  636.94   19.80
   2  -3   8  615.54   19.50
   2  -3   8  626.74   19.60
  -2  -3  -8  644.34   19.60
  -2  -3  -8  645.44   19.50
   2   3   8  601.34   19.40
  -2   3  -8  647.14   19.80
  -2   3  -8  654.43   19.80
   2   3   8  656.63   19.50
   2   3   8  654.93   19.80
   2   3   8  638.14   18.40
   3  -3   8  407.16   14.20
   3  -3   8  427.16   12.30
  -3  -3  -8  424.96   14.00
   3  -3   8  411.26   14.20
   3  -3   8  405.96   14.20
  -3  -3  -8  437.66   14.40
  -3   3  -8  411.46   14.20
   3   3   8  419.46   14.20
   3   3   8  443.26   12.90
  -3   3  -8  414.06   14.30
   3   3   8  401.66   14.40
   3   3   8  446.66   14.10
   4  -3   8    2.10    1.50
  -4  -3  -8    0.20    1.40
   4  -3   8    0.70    1.50
  -4  -3  -8    3.20    1.70
  -4  -3  -8    2.10    1.80
   4   3   8    2.50    1.60
  -4   3  -8    6.80    2.00
   4   3   8    1.10    1.40
   4   3   8   -1.40    1.30
  -4   3  -8   -1.30    1.50
  -5  -3  -8   42.80    4.50
   5  -3   8   54.69    4.30
  -5  -3  -8   43.00    3.90
   5  -3   8   33.60    4.10
   5   3   8   46.60    4.40
   5   3   8   44.80    4.00
  -5   3  -8   43.40    4.40
  -5   3  -8   45.00    4.30
   6  -3   8   60.69    4.70
  -6  -3  -8   55.39    4.10
   6  -3   8   62.19    4.60
  -6  -3  -8   48.30    5.10
  -6   3  -8   72.09    5.10
   6   3   8   51.89    4.90
  -6   3  -8   49.99    5.00
  -7  -3  -8   64.49    6.10
   7  -3   8   61.89    6.00
   7  -3   8   68.49    5.40
  -7  -3  -8   60.29    4.30
  -7   3  -8   63.79    5.00
  -7   3  -8   53.99    5.50
   7   3   8   52.69    5.00
  -8  -3  -8   85.29    5.00
  -8  -3  -8   60.19    6.30
   8  -3   8   75.29    6.00
   8  -3   8   72.39    7.00
   8   3   8   73.09    5.40
  -8   3  -8   78.79    6.90
  -9  -3  -8   51.19    4.00
   9  -3   8   50.19    5.80
   9  -3   8   48.00    6.10
  -9  -3  -8   53.29    6.30
  -9   3  -8   39.90    5.30
  -9   3  -8   46.90    4.90
   9   3   8   45.20    5.00
  11  -4  -8    2.20    2.50
 -11  -4   8    7.40    3.10
  11  -4  -8    2.50    2.60
 -11  -4   8   10.60    3.30
 -11   4   8    7.00    2.50
 -11   4   8    2.30    2.20
  11   4  -8    3.00    2.70
  11   4  -8    5.00    2.80
  10  -4  -8    6.70    2.90
  10  -4  -8   10.70    3.20
 -10  -4   8    9.90    3.40
 -10   4   8    2.90    2.50
 -10   4   8    7.20    3.10
  10   4  -8    4.20    2.70
  10   4  -8   14.10    3.50
 -10   4   8   12.10    2.80
   9  -4  -8    4.60    2.50
   9  -4  -8    6.90    2.80
  -9  -4   8    9.40    1.60
  -9  -4   8    4.00    2.40
  -9   4   8    6.10    2.70
   9   4  -8    7.90    2.80
  -9   4   8    5.70    2.40
  -9   4   8    7.00    2.80
   9   4  -8    4.00    2.40
   8  -4  -8  141.19    7.60
  -8  -4   8  137.09    7.60
  -8  -4   8  143.69    6.00
   8  -4  -8  133.69    7.60
  -8   4   8  144.39    8.00
   8   4  -8  144.99    8.00
  -8   4   8  164.78    8.10
   8   4  -8  146.39    7.90
  -8   4   8  161.18    7.60
   7  -4  -8    0.80    1.60
  -7  -4   8    2.30    1.40
  -7  -4   8   -3.60    1.50
   7  -4  -8   -2.30    1.60
   7  -4  -8    0.60    1.50
  -7  -4   8    0.40    1.20
  -7   4   8    0.90    1.50
  -7   4   8    0.60    1.70
   7   4  -8    0.30    1.80
   7   4  -8    1.40    2.10
  -7   4   8    2.20    2.00
   6  -4  -8    5.40    2.10
  -6  -4   8    0.70    1.10
   6  -4  -8   -2.30    1.60
  -6  -4   8    2.80    1.50
   6  -4  -8    3.70    2.00
  -6  -4   8    1.90    1.90
  -6   4   8    2.70    1.60
  -6   4   8    1.70    1.80
   6   4  -8    4.50    2.10
   6   4  -8    1.40    1.60
  -6   4   8    4.10    1.80
  -5  -4   8   16.30    1.90
   5  -4  -8   13.80    2.30
   5  -4  -8   14.60    2.40
   5  -4  -8   11.80    2.70
   5  -4  -8   14.00    2.70
  -5  -4   8   11.60    2.20
  -5  -4   8   12.40    2.70
   5   4  -8   12.20    2.10
  -5   4   8   16.20    2.80
   5   4  -8   13.40    2.70
   5   4  -8   16.40    3.10
  -5   4   8   17.50    2.70
  -4  -4   8  110.89    4.50
   4  -4  -8  109.39    6.00
   4  -4  -8  118.79    6.20
   4  -4  -8  110.89    3.60
  -4  -4   8  112.89    5.70
   4  -4  -8  114.99    5.80
  -4  -4   8  107.89    5.60
  -4  -4   8  115.99    6.20
   4  -4  -8  116.79    5.10
   4   4  -8  114.99    5.70
   4   4  -8  102.29    6.20
  -4   4   8  111.59    6.10
   4   4  -8  120.19    4.70
  -4   4   8  106.99    5.50
   4   4  -8  109.79    5.80
  -4   4   8  114.79    5.80
   3  -4  -8  120.69    4.80
   3  -4  -8  114.59    5.90
   3  -4  -8  118.79    6.20
   3  -4  -8  114.89    4.20
   3  -4  -8  117.99    6.00
  -3  -4   8  109.69    6.10
  -3  -4   8  107.29    5.70
   3   4  -8  109.19    4.60
  -3   4   8  113.49    5.40
   3   4  -8  120.09    5.80
   3   4  -8  112.69    5.70
  -3   4   8  104.29    5.90
   3   4  -8  118.89    6.40
  -3   4   8  114.69    5.80
   2  -4  -8   41.70    2.60
  -2  -4   8   45.50    4.30
  -2  -4   8   48.50    3.20
   2  -4  -8   45.30    2.40
   2  -4  -8   47.10    4.30
  -2  -4   8   50.69    3.90
   2  -4  -8   40.60    3.80
   2   4  -8   47.50    3.80
   2   4  -8   49.60    2.90
  -2   4   8   38.40    2.90
   2   4  -8   46.10    4.20
   2   4  -8   36.70    3.70
  -2   4   8   53.49    3.70
  -2   4   8   44.00    4.10
   1  -4  -8   -0.30    1.40
   1  -4  -8    3.60    1.40
  -1  -4   8    2.20    1.60
  -1  -4   8   16.30    2.90
   1  -4  -8    0.30    1.40
  -1  -4   8    1.70    1.30
  -1   4   8    2.60    1.20
  -1   4   8    1.10    1.30
  -1   4   8    1.30    1.30
  -1   4   8   -0.10    0.90
   1   4  -8    1.70    1.50
   1   4  -8    1.30    1.60
   1   4  -8    0.60    1.60
   0  -4  -8  139.39    5.90
   0  -4   8  145.99    6.50
   0  -4   8  137.59    6.70
   0  -4  -8  146.39    6.80
   0  -4  -8  135.79    6.80
   0  -4   8  148.09    7.00
   0   4   8  128.49    6.10
   0   4  -8  145.69    7.00
   0   4  -8  141.09    6.90
   0   4   8  143.69    4.80
   0   4   8  129.19    6.60
   0   4   8  129.59    6.10
  -1  -4  -8    5.60    1.80
   1  -4   8    5.20    2.20
  -1  -4  -8    5.50    1.80
  -1  -4  -8    6.50    2.10
   1  -4   8    6.70    2.10
   1  -4   8    6.20    1.90
  -1   4  -8    6.50    2.30
   1   4   8    9.00    1.90
  -1   4  -8    5.80    1.90
   1   4   8    7.40    0.70
   1   4   8   10.90    2.30
   1   4   8    4.20    2.00
   1   4   8    8.00    0.70
   2  -4   8  366.66   13.20
  -2  -4  -8  387.06   13.50
   2  -4   8  358.06   13.20
  -2  -4  -8  363.66   12.80
  -2  -4  -8  367.26   13.10
   2  -4   8  369.66   13.40
   2   4   8  376.36   13.30
  -2   4  -8  378.16   13.50
  -2   4  -8  381.66   13.60
   2   4   8  354.96   12.20
   2   4   8  372.26   13.10
  -3  -4  -8  111.09    6.20
   3  -4   8  119.79    6.50
  -3  -4  -8  120.59    6.40
   3  -4   8  113.89    6.50
  -3  -4  -8  114.49    6.20
   3  -4   8  113.89    6.40
  -3   4  -8  107.99    6.40
   3   4   8  113.69    6.30
   3   4   8  101.39    5.90
  -3   4  -8  103.79    6.40
   3   4   8  119.39    6.30
   4  -4   8   12.00    2.80
  -4  -4  -8   11.30    2.80
  -4  -4  -8   11.90    2.80
  -4  -4  -8   14.70    2.70
   4  -4   8   11.50    2.80
   4  -4   8   10.60    2.40
   4   4   8   10.80    2.90
   4   4   8   11.80    2.70
  -4   4  -8   11.60    2.80
   4   4   8   17.10    2.80
  -4   4  -8   16.80    3.20
   5  -4   8   13.10    3.00
  -5  -4  -8    8.90    2.90
   5  -4   8   15.50    3.20
  -5  -4  -8   16.40    3.20
  -5  -4  -8   20.90    3.20
  -5   4  -8   15.70    3.30
   5   4   8   10.20    2.60
  -5   4  -8   15.20    3.00
   5   4   8   15.80    3.40
  -6  -4  -8   -4.00    1.60
  -6  -4  -8    0.70    1.70
   6  -4   8   -0.30    1.90
   6  -4   8    1.80    2.00
  -6  -4  -8    2.30    2.10
   6   4   8   -0.90    1.90
  -6   4  -8    0.20    2.10
   6   4   8   -2.70    1.30
  -6   4  -8   -0.30    1.80
  -7  -4  -8    2.90    2.70
  -7  -4  -8   -0.40    2.10
   7  -4   8    6.20    2.90
  -7  -4  -8    3.40    1.90
   7   4   8    1.60    1.90
   7   4   8    2.00    2.60
  -7   4  -8    1.50    2.00
  -7   4  -8    3.90    2.70
   8  -4   8    0.30    2.40
   8  -4   8    0.20    2.20
  -8  -4  -8   -1.10    2.40
  -8  -4  -8   -1.50    1.60
  -8  -4  -8   -1.40    2.40
  -8   4  -8    0.20    2.10
   8   4   8   -2.30    1.70
  -8   4  -8   -0.40    2.40
 -10  -5   8   31.90    5.10
  10  -5  -8   42.10    5.50
  10  -5  -8   34.70    5.10
 -10   5   8   28.70    4.60
  10   5  -8   29.80    5.10
 -10   5   8   32.10    4.40
  10   5  -8   36.50    5.10
  -9  -5   8   24.90    2.80
  -9  -5   8   30.10    4.80
   9  -5  -8   22.30    4.20
   9  -5  -8   21.10    4.20
  -9   5   8   24.30    4.40
   9   5  -8   30.80    4.90
   9   5  -8   21.70    3.90
  -9   5   8   21.10    4.00
  -9   5   8   30.60    4.20
  -8  -5   8   12.00    3.30
  -8  -5   8   17.20    2.60
   8  -5  -8   12.70    3.00
   8  -5  -8   14.80    3.40
  -8   5   8   12.60    2.90
   8   5  -8    9.60    3.30
   8   5  -8   10.00    3.10
  -8   5   8   12.20    3.30
  -8   5   8   14.00    3.10
   7  -5  -8   18.90    3.40
  -7  -5   8   18.20    3.70
   7  -5  -8   21.30    3.80
  -7  -5   8   20.30    3.00
   7   5  -8   17.90    3.50
  -7   5   8   23.00    3.70
  -7   5   8   14.60    3.30
   7   5  -8   19.60    3.90
  -7   5   8   14.80    3.20
   6  -5  -8   -2.20    1.10
  -6  -5   8    1.10    1.60
  -6  -5   8    0.80    1.60
   6  -5  -8   -0.50    1.90
   6  -5  -8   -0.60    1.90
   6   5  -8    0.50    1.60
   6   5  -8    0.90    2.30
  -6   5   8   -1.40    1.30
  -6   5   8    3.00    2.10
  -6   5   8    0.90    1.90
  -5  -5   8  187.98    8.20
  -5  -5   8  188.38    7.20
   5  -5  -8  180.58    8.80
   5  -5  -8  189.88    8.90
   5  -5  -8  181.08    7.80
  -5  -5   8  187.78    9.00
   5  -5  -8  193.38    8.90
  -5   5   8  177.28    8.40
  -5   5   8  179.88    8.80
   5   5  -8  193.48    9.40
  -5   5   8  181.88    8.30
   4  -5  -8   86.69    5.80
  -4  -5   8   71.59    5.00
   4  -5  -8   87.29    5.70
  -4  -5   8   83.49    5.80
   4  -5  -8   77.69    4.40
  -4  -5   8   84.89    4.40
   4  -5  -8   71.29    5.00
   4   5  -8   92.89    5.60
  -4   5   8   82.79    5.50
  -4   5   8   80.09    5.40
   4   5  -8   81.79    5.70
  -4   5   8   87.59    5.20
  -3  -5   8   30.30    4.00
  -3  -5   8   30.70    3.70
   3  -5  -8   28.10    3.60
   3  -5  -8   33.00    2.80
  -3  -5   8   30.80    2.90
   3  -5  -8   28.50    2.40
   3  -5  -8   30.60    4.00
  -3   5   8   33.10    4.10
  -3   5   8   23.40    3.20
  -3   5   8   28.20    3.10
   3   5  -8   27.00    3.90
   3   5  -8   24.70    3.50
   2  -5  -8   53.69    4.90
  -2  -5   8   55.39    5.00
  -2  -5   8   62.69    5.00
   2  -5  -8   61.59    3.60
   2  -5  -8   51.79    5.10
  -2   5   8   57.79    3.60
  -2   5   8   62.99    4.60
   2   5  -8   59.09    4.70
  -2   5   8   51.79    5.00
   2   5  -8   62.19    5.00
   2   5  -8   58.09    4.60
  -2   5   8   61.09    3.60
   1  -5  -8   10.80    1.90
  -1  -5   8    8.00    2.60
   1  -5  -8    8.50    2.60
  -1  -5   8   11.20    2.70
   1  -5  -8    4.70    2.20
  -1   5   8   10.40    2.10
   1   5  -8    7.10    2.50
   1   5  -8    7.20    2.40
  -1   5   8    6.10    2.20
   1   5  -8    7.80    2.30
  -1   5   8    5.90    1.40
  -1   5   8   12.70    2.80
   0  -5   8    4.70    2.10
   0  -5   8    1.20    1.60
   0  -5  -8    5.60    1.80
   0  -5  -8    5.30    2.30
   0  -5  -8    4.10    2.20
   0   5  -8    5.30    2.40
   0   5  -8    1.90    1.90
   0   5   8    5.20    2.00
   0   5   8    3.10    1.70
   0   5   8    5.20    2.40
   0   5  -8    5.00    2.00
   1  -5   8    1.70    1.80
  -1  -5  -8    1.10    1.80
   1  -5   8   -1.40    1.70
  -1  -5  -8   -0.20    1.80
   1  -5   8   -0.40    1.30
  -1  -5  -8   -0.10    1.40
   1   5   8    1.10    1.60
  -1   5  -8   -3.30    1.40
   1   5   8    1.60    1.80
  -1   5  -8    1.60    2.10
   1   5   8    1.20    1.80
  -1   5  -8    0.40    2.00
   2  -5   8   28.20    3.90
  -2  -5  -8   34.60    3.90
  -2  -5  -8   28.50    3.80
   2  -5   8   33.70    4.10
   2  -5   8   29.90    4.00
  -2  -5  -8   28.30    3.80
   2   5   8   31.00    3.90
  -2   5  -8   34.80    4.30
  -2   5  -8   33.70    4.00
   2   5   8   33.30    4.10
   2   5   8   31.20    3.50
   3  -5   8   25.10    3.80
  -3  -5  -8   27.30    3.80
  -3  -5  -8   22.20    3.50
   3  -5   8   28.70    4.00
  -3  -5  -8   31.30    4.00
   3  -5   8   29.10    4.00
   3   5   8   37.80    4.50
  -3   5  -8   23.10    3.70
  -3   5  -8   21.40    3.70
   3   5   8   26.70    3.80
   4  -5   8   35.40    4.50
   4  -5   8   33.40    4.30
  -4  -5  -8   26.80    3.80
   4  -5   8   42.60    4.70
  -4  -5  -8   36.10    4.70
  -4  -5  -8   40.10    4.40
  -4   5  -8   35.20    4.50
  -4   5  -8   34.50    4.50
   4   5   8   34.00    4.60
   4   5   8   27.70    4.00
  -5  -5  -8   28.20    3.80
  -5  -5  -8   24.50    4.10
   5  -5   8   27.60    4.20
  -5  -5  -8   29.40    4.10
   5  -5   8   23.00    4.00
  -5   5  -8   34.80    4.50
  -5   5  -8   17.70    3.90
   5   5   8   28.50    4.10
   5   5   8   32.20    4.70
  -6  -5  -8   22.10    3.50
   6  -5   8   28.20    4.50
  -6  -5  -8   21.50    4.10
  -6  -5  -8   30.60    4.80
   6   5   8   17.40    4.00
   6   5   8   31.50    4.40
  -6   5  -8   25.70    4.20
  -6   5  -8   25.40    4.30
  -7  -5  -8    7.60    3.20
  -7  -5  -8    3.00    2.80
  -7  -5  -8    1.00    2.10
   7  -5   8    2.10    2.70
   7   5   8   -2.50    2.60
   7   5   8    2.20    2.20
  -7   5  -8    2.20    2.60
  -7   5  -8    4.00    3.00
   8  -6  -8    1.90    2.60
  -8  -6   8    1.60    1.80
  -8  -6   8    0.80    2.70
   8  -6  -8    5.60    2.80
   8   6  -8    0.20    2.60
  -8   6   8    1.10    2.50
  -8   6   8   -1.00    2.20
   7  -6  -8    1.40    2.00
  -7  -6   8   -0.60    2.50
   7  -6  -8    4.60    2.40
  -7  -6   8    4.80    2.20
  -7   6   8    5.30    2.80
  -7   6   8    2.90    2.60
   7   6  -8    3.80    2.90
  -7   6   8    3.00    2.60
   6  -6  -8    0.30    1.80
  -6  -6   8   -1.60    1.80
   6  -6  -8    1.00    2.40
  -6  -6   8   -2.80    2.20
   6  -6  -8   -2.70    1.90
  -6   6   8    1.70    2.20
   6   6  -8    0.70    2.40
  -6   6   8   -2.50    1.70
  -6   6   8    0.50    2.20
   5  -6  -8   54.89    5.60
   5  -6  -8   56.39    5.80
  -5  -6   8   59.79    6.20
   5  -6  -8   58.79    6.10
  -5  -6   8   53.79    5.30
   5   6  -8   46.80    5.70
  -5   6   8   56.99    5.70
  -5   6   8   53.69    5.70
  -5   6   8   51.79    5.00
   4  -6  -8   13.00    3.30
  -4  -6   8   17.40    3.40
   4  -6  -8    9.70    2.90
   4  -6  -8   10.20    2.60
  -4  -6   8   12.10    3.30
  -4  -6   8   17.60    2.70
  -4   6   8   15.50    2.90
  -4   6   8   15.10    3.30
  -4   6   8   18.00    3.70
   4   6  -8   11.50    3.40
  -3  -6   8    9.20    2.80
  -3  -6   8    6.90    2.10
  -3  -6   8    9.90    2.70
   3  -6  -8   13.00    3.30
   3  -6  -8    9.70    2.60
   3   6  -8    6.60    2.90
  -3   6   8   10.70    2.50
  -3   6   8   11.70    2.40
   3   6  -8    8.70    2.70
  -3   6   8    8.20    2.90
   2  -6  -8   10.30    3.00
  -2  -6   8   11.00    3.00
   2  -6  -8   14.80    3.40
  -2  -6   8   15.20    3.40
  -2   6   8    7.30    2.80
   2   6  -8   10.10    2.70
   2   6  -8    4.70    2.70
  -2   6   8   10.70    2.70
   2   6  -8   11.10    2.90
  -1  -6   8   78.09    5.70
   1  -6  -8   82.69    6.00
   1  -6  -8   72.19    4.60
   1  -6  -8   86.89    6.30
  -1  -6   8   57.29    5.70
  -1   6   8   65.59    5.70
   1   6  -8   76.99    5.70
   1   6  -8   61.59    6.20
   1   6  -8   85.59    6.10
  -1   6   8   77.59    6.00
  -1   6   8   71.69    4.90
   0  -6  -8   41.30    5.10
   0  -6  -8   45.10    4.30
   0  -6   8   51.69    5.40
   0  -6   8   48.80    5.10
   0  -6  -8   40.70    4.80
   0   6   8   39.60    4.30
   0   6  -8   43.40    5.00
   0   6   8   41.10    4.30
   0   6  -8   39.50    4.90
   0   6  -8   49.50    5.40
   0   6   8   43.80    5.10
  -1  -6  -8   53.89    4.80
   1  -6   8   50.69    5.40
  -1  -6  -8   34.60    4.50
  -1  -6  -8   48.10    5.30
   1  -6   8   39.40    4.80
  -1   6  -8   43.70    5.10
   1   6   8   48.40    5.10
  -1   6  -8   44.00    5.00
  -1   6  -8   49.00    5.40
   1   6   8   58.99    5.20
   1   6   8   54.39    5.40
   2  -6   8  113.49    7.30
  -2  -6  -8  112.79    6.70
  -2  -6  -8  118.09    7.40
  -2  -6  -8  120.69    7.60
   2  -6   8  129.19    7.90
   2   6   8  111.09    7.10
  -2   6  -8  110.79    7.20
  -2   6  -8  117.49    7.60
  -2   6  -8  114.39    7.40
   2   6   8  135.09    7.60
   2   6   8  112.89    6.60
  -3  -6  -8   11.10    2.90
   3  -6   8   14.10    3.50
  -3  -6  -8    7.50    2.60
  -3  -6  -8   17.10    3.50
   3  -6   8   11.60    3.20
  -3   6  -8   13.80    3.40
   3   6   8   15.40    3.60
  -3   6  -8   10.30    2.90
  -3   6  -8   11.10    3.30
   4  -6   8    1.90    2.40
  -4  -6  -8    3.60    2.40
   4  -6   8   -0.50    2.00
  -4  -6  -8   -1.10    2.00
   4  -6   8   -0.50    2.20
  -4  -6  -8   -5.80    1.90
  -4   6  -8   -4.80    1.80
  -4   6  -8    0.90    2.50
  -4   6  -8    2.70    2.50
   4   6   8   -2.00    2.10
  -5  -6  -8   -0.80    2.10
  -5  -6  -8   -0.50    2.20
   5  -6   8    2.70    2.70
   5  -6   8   -0.90    2.30
   5  -6   8   -1.30    2.20
  -5  -6  -8   -2.70    1.60
  -5   6  -8   -1.60    2.30
  -5   6  -8   -1.50    2.10
  -5   6  -8    0.50    2.50
   5   6   8   -0.80    1.70
   5   6   8   -3.90    1.60
   6  -6   8    9.60    3.70
  -6  -6  -8   17.80    4.10
   6   6   8   10.60    3.20
   6   6   8   18.90    4.60
   6  -7  -8    7.70    2.90
   6   7  -8   16.40    4.40
  -6   7   8   16.70    3.80
   5  -7  -8   16.40    3.90
   5  -7  -8    9.30    3.40
  -5  -7   8   16.30    3.70
   5  -7  -8   13.00    3.80
  -5  -7   8   16.00    4.70
   5   7  -8   15.60    4.20
  -5   7   8   11.50    3.40
  -5   7   8   21.80    4.70
  -5   7   8   26.00    4.90
  -4  -7   8   23.80    4.20
   4  -7  -8   22.70    4.70
   4  -7  -8   26.70    4.30
  -4  -7   8   35.90    5.30
  -4   7   8   28.00    4.90
  -4   7   8   22.10    3.90
   4   7  -8   24.70    4.40
  -3  -7   8   -1.50    2.50
   3  -7  -8   -0.70    1.70
  -3  -7   8   -3.80    1.80
   3  -7  -8    4.90    3.20
  -3   7   8   -5.40    2.10
   3   7  -8   -1.00    2.40
  -3   7   8    3.10    2.60
   2  -7  -8   20.70    4.00
  -2  -7   8   22.40    4.30
  -2  -7   8   13.00    3.30
   2  -7  -8   19.40    3.80
   2   7  -8   15.60    3.80
  -2   7   8   18.70    3.80
   2   7  -8   22.10    3.90
   2   7  -8   12.70    3.40
  -2   7   8   15.50    3.80
  -1  -7   8    8.50    3.30
   1  -7  -8   14.10    3.70
   1  -7  -8    8.00    3.30
  -1  -7   8    9.90    3.40
   1   7  -8   11.20    3.10
   1   7  -8   12.20    3.50
  -1   7   8    8.10    3.00
   1   7  -8   11.50    3.60
  -1   7   8    6.70    3.20
   0  -7  -8   20.30    4.10
   0  -7   8   18.90    4.00
   0  -7  -8   10.60    3.50
   0  -7  -8   13.50    4.30
   0  -7   8   16.10    4.00
   0   7   8   20.80    3.90
   0   7   8   18.90    3.60
   0   7  -8   16.10    3.80
   0   7  -8   14.90    3.70
   0   7  -8   19.70    4.00
   0   7   8   14.70    3.80
   1  -7   8   21.20    4.30
  -1  -7  -8   16.90    3.90
   1  -7   8   24.50    4.40
  -1  -7  -8   23.70    3.60
  -1  -7  -8   18.80    4.20
  -1   7  -8   17.60    4.00
   1   7   8   21.30    3.80
  -1   7  -8   21.50    4.40
  -1   7  -8   15.00    3.80
   1   7   8   13.40    3.70
   1   7   8   18.20    3.70
   2  -7   8    8.60    3.40
   2  -7   8    5.10    2.80
  -2  -7  -8    7.50    3.30
  -2  -7  -8    6.10    2.80
  -2  -7  -8    3.40    2.80
  -2   7  -8    3.00    3.20
  -2   7  -8    9.10    3.10
   2   7   8   10.70    3.60
  -2   7  -8   11.00    3.40
  -3  -7  -8  155.48    8.70
   3  -7   8  149.69    9.50
   3  -7   8  162.98    9.30
   3   7   8  164.48    9.50
  -3   7  -8  116.39    9.30
  -3   7  -8  167.58   10.10
  -3   7  -8  136.09    8.80
 -12   0   9    0.10    1.60
  12   0  -9    2.50    2.70
 -12   0   9    4.20    2.50
  12   0  -9   -3.10    1.90
  11   0  -9   -0.70    2.00
 -11   0   9    1.70    2.10
  11   0  -9   -2.50    1.80
 -11   0   9    1.60    2.20
 -10   0   9    0.40    0.70
  10   0  -9    2.30    2.00
 -10   0   9    0.80    1.80
  10   0  -9    4.00    2.40
 -10   0   9   -0.20    2.00
  -9   0   9    0.60    1.00
  -9   0   9    1.00    1.60
   9   0  -9   -0.50    1.20
   9   0  -9    0.70    1.40
   9   0  -9   -0.70    1.40
  -9   0   9    0.80    0.80
  -8   0   9    2.10    1.60
   8   0  -9   -0.60    1.20
  -8   0   9   -0.20    0.80
   8   0  -9    0.50    1.60
   8   0  -9   -0.50    1.00
  -8   0   9   -0.30    0.80
  -7   0   9   -0.20    0.80
   7   0  -9    0.10    1.00
   7   0  -9    0.00    0.80
  -7   0   9   -0.20    0.70
   7   0  -9    1.20    1.50
  -7   0   9   -0.90    1.30
  -7   0   9    0.40    0.90
   7   0  -9   -1.00    1.30
  -6   0   9   -0.70    0.80
   6   0  -9    0.10    0.90
  -6   0   9   -1.70    0.60
   6   0  -9   -1.20    0.80
  -6   0   9    0.60    1.00
   6   0  -9    0.10    0.80
  -6   0   9    0.40    0.60
   6   0  -9    0.20    1.20
   5   0  -9    1.20    0.90
   5   0  -9    0.90    0.70
  -5   0   9    0.30    0.90
  -5   0   9    0.20    0.60
  -5   0   9   -0.60    1.10
   5   0  -9   -0.20    0.80
  -5   0   9   -0.20    0.50
   5   0  -9   -1.90    0.90
   5   0  -9    1.00    1.20
  -5   0   9   -0.40    0.80
  -4   0   9   -0.60    0.60
   4   0  -9   -0.40    0.90
  -4   0   9   -0.70    0.60
   4   0  -9   -0.20    0.60
  -4   0   9   -0.40    0.40
  -4   0   9   -1.00    0.90
  -4   0   9   -0.60    0.90
  -4   0   9    0.30    0.90
   4   0  -9   -0.30    0.90
  -3   0   9   -1.30    0.70
  -3   0   9   -0.40    0.80
   3   0  -9   -0.50    0.90
   3   0  -9   -1.40    0.80
  -3   0   9    1.10    1.00
   3   0  -9   -0.40    0.70
   3   0  -9    0.60    0.40
  -3   0   9   -0.20    0.80
  -3   0   9   -0.50    0.40
  -3   0   9   -0.80    0.60
  -2   0   9    0.40    0.80
   2   0  -9    0.00    0.40
  -2   0   9    0.30    0.80
   2   0  -9    1.00    1.00
   2   0  -9   -0.70    0.70
   2   0  -9   -0.20    0.80
  -2   0   9   -0.50    0.60
  -2   0   9    0.00    0.70
  -2   0   9    0.70    0.80
   1   0  -9    0.60    0.80
  -1   0   9   -0.20    1.00
   1   0  -9   -0.10    1.00
   1   0  -9   -0.80    0.50
  -1   0   9    0.80    0.90
  -1   0   9    0.20    0.70
   1   0  -9    0.60    0.90
  -1   0   9    0.00    0.80
  -1   0   9    1.10    1.10
   0   0   9    0.10    0.80
   0   0   9   -0.40    0.50
   0   0   9    0.00    0.80
   0   0  -9   -0.50    0.90
   0   0  -9    0.90    0.80
   0   0   9    0.00    0.70
   0   0  -9    0.10    0.90
   0   0  -9    0.10    0.60
   1   0   9    0.40    1.00
  -1   0  -9    1.70    1.00
   1   0   9   -1.70    0.60
   1   0   9   -0.50    0.50
   1   0   9    1.00    1.10
  -1   0  -9   -0.50    0.80
  -1   0  -9   -0.10    0.70
  -2   0  -9   -0.40    0.80
   2   0   9   -0.70    0.70
   2   0   9    2.70    1.30
   2   0   9   -0.10    0.30
  -2   0  -9    0.20    1.00
  -2   0  -9   -0.90    1.00
   2   0   9    0.00    1.00
   3   0   9   -1.70    1.20
  -3   0  -9    0.60    1.30
  -3   0  -9    0.40    1.30
  -3   0  -9    1.00    1.20
  -3   0  -9    0.80    1.30
   3   0   9    1.40    1.30
  -4   0  -9   -0.90    1.10
   4   0   9    0.50    1.30
  -4   0  -9    0.10    1.40
  -4   0  -9   -0.50    1.20
  -4   0  -9   -1.70    1.00
   4   0   9    0.30    1.00
   5   0   9   -0.60    1.30
   5   0   9    1.00    1.50
   5   0   9   -0.50    1.10
  -5   0  -9   -1.30    1.20
  -5   0  -9    1.10    1.20
  -5   0  -9   -1.50    1.10
  -5   0  -9    1.20    1.40
   6   0   9   -1.00    1.10
  -6   0  -9   -2.50    1.20
   6   0   9    0.70    1.40
   6   0   9    0.70    1.70
  -6   0  -9   -1.90    1.00
  -6   0  -9    2.00    1.90
   7   0   9   -1.30    1.10
   7   0   9   -1.50    1.60
  -7   0  -9   -1.70    1.20
  -7   0  -9   -0.90    1.70
  -7   0  -9   -0.70    1.20
  -8   0  -9   -2.60    1.90
   8   0   9   -1.10    1.70
   8   0   9   -1.70    1.70
  -8   0  -9   -0.80    1.70
  -8   0  -9    0.10    1.50
   9   0   9    0.90    2.00
   9   0   9    1.80    2.30
  -9   0  -9   -0.90    1.50
  -9   0  -9   -1.60    1.50
  10   0   9   -3.40    2.00
 -10   0  -9    0.60    1.70
  10   0   9    2.50    2.60
  12  -1  -9   36.10    5.10
 -12  -1   9   28.20    4.20
 -12  -1   9   25.60    4.40
  12  -1  -9   36.20    4.70
 -12   1   9   29.40    4.90
  12   1  -9   23.90    4.50
  12   1  -9   31.70    4.60
 -12   1   9   27.90    4.30
  11  -1  -9   -2.00    2.00
 -11  -1   9   -0.20    1.90
  11  -1  -9    4.40    2.30
 -11  -1   9    0.50    2.10
  11   1  -9    1.00    2.00
  11   1  -9    2.80    2.40
 -11   1   9    1.50    1.80
 -11   1   9    1.30    2.10
  11   1  -9    1.70    2.00
  10  -1  -9   12.30    3.30
  10  -1  -9   16.50    3.20
 -10  -1   9   17.00    2.50
 -10  -1   9   14.30    2.80
  10   1  -9   15.10    3.20
 -10   1   9   11.60    1.70
  10   1  -9   13.00    2.60
 -10   1   9   11.80    3.10
  10   1  -9   11.90    3.00
 -10   1   9   15.10    3.10
   9  -1  -9   39.10    4.20
   9  -1  -9   30.20    4.00
  -9  -1   9   35.00    3.20
  -9  -1   9   29.90    3.80
  -9  -1   9   31.60    1.90
  -9  -1   9   34.20    2.60
  -9   1   9   31.50    3.80
   9   1  -9   30.60    4.00
   9   1  -9   39.50    4.20
   9   1  -9   27.30    3.30
  -9   1   9   35.20    2.70
  -9   1   9   31.40    4.10
   8  -1  -9   62.89    4.80
  -8  -1   9   63.99    4.40
   8  -1  -9   61.29    4.30
  -8  -1   9   66.69    3.10
  -8  -1   9   58.79    3.00
  -8  -1   9   59.69    3.60
   8   1  -9   60.89    4.80
  -8   1   9   63.29    2.70
   8   1  -9   61.09    4.20
  -8   1   9   60.09    3.50
  -8   1   9   66.49    4.60
   8   1  -9   61.69    4.60
   7  -1  -9   81.49    5.00
  -7  -1   9   76.79    3.00
   7  -1  -9   73.99    4.60
   7  -1  -9   81.39    3.30
  -7  -1   9   73.59    3.00
  -7  -1   9   76.59    3.60
  -7  -1   9   83.79    4.00
  -7  -1   9   75.89    4.70
   7  -1  -9   73.49    3.90
  -7  -1   9   76.89    3.60
   7   1  -9   71.39    4.20
   7   1  -9   65.99    4.80
  -7   1   9   79.09    4.00
   7   1  -9   75.79    3.60
  -7   1   9   77.29    2.50
   7   1  -9   72.89    4.80
  -7   1   9   71.19    4.60
  -7   1   9   77.79    4.20
  -7   1   9   75.09    4.00
  -6  -1   9  111.49    4.80
   6  -1  -9  131.99    5.90
  -6  -1   9  116.79    3.50
  -6  -1   9  112.59    4.80
  -6  -1   9  113.69    3.50
  -6  -1   9  110.19    5.60
   6  -1  -9  118.49    5.10
  -6  -1   9  115.19    4.90
   6  -1  -9  111.19    5.70
   6  -1  -9  112.09    4.20
   6   1  -9  116.89    5.30
   6   1  -9  119.19    4.80
  -6   1   9  115.89    5.70
   6   1  -9  117.59    4.90
  -6   1   9  103.19    4.90
  -6   1   9  113.59    3.20
   6   1  -9  106.99    5.60
  -6   1   9  111.69    5.00
  -6   1   9  123.19    4.60
   6   1  -9  114.09    5.80
   5  -1  -9  245.78    8.70
  -5  -1   9  252.97    9.10
   5  -1  -9  243.38    8.90
   5  -1  -9  240.18    9.10
  -5  -1   9  254.47    8.50
   5  -1  -9  250.47    7.80
  -5  -1   9  247.78    8.40
  -5  -1   9  249.58    8.30
   5   1  -9  230.98    9.00
  -5   1   9  243.28    8.70
   5   1  -9  251.17    8.40
   5   1  -9  258.77    8.50
   5   1  -9  263.27    9.00
  -5   1   9  250.07    7.90
  -5   1   9  262.47    9.10
  -5   1   9  254.37    8.80
  -4  -1   9   40.30    2.90
   4  -1  -9   46.90    3.10
  -4  -1   9   43.90    2.80
   4  -1  -9   45.50    2.90
  -4  -1   9   41.50    2.80
   4  -1  -9   39.20    1.70
   4  -1  -9   41.50    3.00
  -4  -1   9   35.30    2.60
   4  -1  -9   38.50    2.20
   4   1  -9   40.40    3.00
   4   1  -9   37.80    2.50
   4   1  -9   35.80    2.80
  -4   1   9   36.10    2.80
   4   1  -9   37.10    2.70
  -4   1   9   41.00    2.20
  -4   1   9   37.10    3.20
  -4   1   9   43.00    2.90
  -3  -1   9  121.89    5.20
  -3  -1   9  118.29    5.20
   3  -1  -9  124.29    4.10
  -3  -1   9  122.99    4.90
   3  -1  -9  116.59    5.30
   3  -1  -9  132.29    5.40
  -3  -1   9  126.29    5.20
  -3  -1   9  124.39    4.60
   3  -1  -9  126.09    4.40
   3   1  -9  122.69    5.20
  -3   1   9  131.89    5.50
   3   1  -9  114.89    4.90
   3   1  -9  123.79    5.30
  -3   1   9  125.39    4.50
  -3   1   9  115.99    5.10
  -3   1   9  117.29    5.30
   2  -1  -9  154.98    6.00
   2  -1  -9  158.48    5.50
  -2  -1   9  155.48    5.80
   2  -1  -9  147.39    6.30
  -2  -1   9  164.88    5.80
   2  -1  -9  159.78    5.30
  -2  -1   9  162.68    6.40
  -2  -1   9  162.18    6.00
  -2  -1   9  158.48    6.30
   2   1  -9  160.38    4.50
   2   1  -9  166.18    6.40
  -2   1   9  167.18    6.20
  -2   1   9  156.18    6.40
   2   1  -9  152.88    6.00
  -2   1   9  162.78    6.00
  -2   1   9  157.68    5.50
  -2   1   9  157.98    6.30
   2   1  -9  158.28    6.00
  -1  -1   9  579.14   17.70
  -1  -1   9  554.44   15.80
   1  -1  -9  568.14   16.00
   1  -1  -9  560.54   15.80
  -1  -1   9  551.24   16.30
  -1  -1   9  550.64   16.20
   1  -1  -9  573.54   15.90
   1  -1  -9  557.44   15.80
  -1  -1   9  541.85   16.70
   1  -1  -9  563.74   16.80
   1   1  -9  558.44   15.90
  -1   1   9  545.25   16.70
   1   1  -9  553.14   16.70
  -1   1   9  563.34   16.50
  -1   1   9  532.25   15.70
   1   1  -9  559.94   15.10
  -1   1   9  572.04   16.20
  -1   1   9  539.95   15.80
   0  -1   9  139.39    5.80
   0  -1  -9  135.69    5.00
   0  -1  -9  146.89    6.20
   0  -1  -9  151.18    5.70
   0  -1  -9  151.08    5.30
   0  -1   9  137.89    6.00
   0  -1   9  143.79    5.90
   0  -1   9  137.99    5.00
   0  -1  -9  150.98    5.60
   0   1  -9  143.49    5.10
   0   1   9  147.59    6.20
   0   1  -9  146.89    6.20
   0   1   9  151.08    5.60
   0   1   9  148.79    5.40
   0   1   9  141.09    5.10
   0   1  -9  144.49    6.00
   0   1  -9  141.89    5.20
   0   1   9  158.48    6.20
  -1  -1  -9   31.50    2.50
  -1  -1  -9   39.20    3.00
  -1  -1  -9   35.00    2.00
   1  -1   9   31.50    2.90
   1  -1   9   34.90    3.20
  -1  -1  -9   31.00    1.90
   1  -1   9   30.60    1.70
   1   1   9   31.90    3.10
   1   1   9   34.60    2.20
  -1   1  -9   31.60    3.00
   1   1   9   35.10    1.90
  -1   1  -9   33.30    1.90
  -1   1  -9   27.60    2.10
   1   1   9   30.40    2.90
  -1   1  -9   29.20    2.70
  -2  -1  -9   85.39    4.50
  -2  -1  -9   82.69    5.10
   2  -1   9   82.19    2.70
   2  -1   9   82.99    2.70
  -2  -1  -9   83.19    4.40
   2  -1   9   85.89    4.50
   2  -1   9   82.09    4.50
  -2  -1  -9   83.89    3.10
  -2   1  -9   84.09    4.40
   2   1   9   75.49    3.50
   2   1   9   72.69    4.40
   2   1   9   80.09    3.00
   2   1   9   83.19    4.50
  -2   1  -9   78.39    4.50
  -3  -1  -9  529.65   17.00
  -3  -1  -9  542.25   17.10
  -3  -1  -9  560.84   17.10
   3  -1   9  559.04   17.20
  -3  -1  -9  556.84   14.70
  -3  -1  -9  548.55   15.80
   3  -1   9  561.14   17.40
  -3   1  -9  565.14   17.30
   3   1   9  555.44   17.30
   3   1   9  543.45   15.70
   3   1   9  541.45   17.00
  -3   1  -9  574.44   17.00
   3   1   9  566.64   15.80
  -4  -1  -9   18.20    2.00
   4  -1   9   19.00    2.60
  -4  -1  -9   24.80    3.10
  -4  -1  -9   20.60    2.70
  -4  -1  -9   17.10    2.50
   4  -1   9   21.60    3.10
  -4   1  -9   20.30    2.70
   4   1   9   19.40    2.20
  -4   1  -9   15.50    2.40
   4   1   9   24.90    2.30
   4   1   9   20.40    2.90
   4   1   9   17.30    2.50
  -5  -1  -9    2.50    1.20
  -5  -1  -9    3.10    1.60
  -5  -1  -9    3.50    1.60
   5  -1   9    1.80    1.80
   5  -1   9    3.80    1.70
   5   1   9    5.20    1.50
   5   1   9    4.80    1.90
  -5   1  -9    2.30    1.70
   5   1   9    4.50    1.60
  -5   1  -9    3.20    1.70
  -5   1  -9    3.20    1.70
  -6  -1  -9  108.49    6.60
   6  -1   9  114.09    5.90
   6  -1   9  117.49    6.60
  -6  -1  -9  110.99    5.80
  -6  -1  -9  114.39    5.10
   6  -1   9  123.69    6.40
   6   1   9  119.89    6.50
   6   1   9  114.39    5.60
  -6   1  -9  131.99    6.90
  -6   1  -9  124.19    6.20
  -6   1  -9  119.99    6.10
   7  -1   9   20.20    3.30
  -7  -1  -9   14.80    2.60
   7  -1   9   10.70    2.80
  -7  -1  -9   10.50    2.90
  -7   1  -9   17.60    3.30
   7   1   9   20.40    3.30
  -7   1  -9   20.10    3.00
   7   1   9   20.60    3.00
  -7   1  -9   17.70    2.90
  -8  -1  -9   12.70    3.20
   8  -1   9   11.90    3.10
  -8  -1  -9   12.30    2.40
   8  -1   9    8.90    2.70
   8   1   9   11.10    2.80
  -8   1  -9   11.00    3.10
  -8   1  -9    7.00    2.40
   8   1   9   12.00    2.70
  -8   1  -9    8.60    2.30
   9  -1   9   23.00    4.20
  -9  -1  -9   21.30    4.30
   9  -1   9   21.60    4.00
  -9  -1  -9   27.70    3.40
   9   1   9   18.30    3.40
  -9   1  -9   22.20    3.20
  -9   1  -9   18.50    3.30
   9   1   9   19.90    3.80
  -9   1  -9   18.30    4.00
 -10   1  -9    3.10    2.00
  12  -2  -9    6.00    3.20
 -12  -2   9    5.70    2.70
 -12  -2   9    2.10    2.50
  12  -2  -9    1.40    2.40
  12   2  -9    2.20    2.30
  12   2  -9    2.40    2.50
 -12   2   9    2.40    2.60
  12   2  -9    4.50    2.80
 -11  -2   9    8.10    2.30
 -11  -2   9    6.70    2.90
  11  -2  -9   13.30    3.20
  11  -2  -9    8.70    3.20
  11   2  -9    6.80    3.00
 -11   2   9    8.40    1.80
  11   2  -9    8.00    2.60
  11   2  -9    7.60    2.90
 -11   2   9    8.30    2.80
 -11   2   9    5.80    3.00
 -10  -2   9    1.30    1.60
  10  -2  -9   -0.40    2.00
  10  -2  -9    2.00    2.00
 -10  -2   9    1.60    2.10
 -10   2   9    2.80    2.30
  10   2  -9   -0.10    1.40
 -10   2   9    2.10    1.70
 -10   2   9    1.50    1.30
  10   2  -9    2.40    1.90
  10   2  -9    1.90    2.10
  -9  -2   9    1.90    0.80
   9  -2  -9    1.90    2.00
  -9  -2   9    3.80    2.10
  -9  -2   9    2.00    1.50
   9  -2  -9    2.60    2.10
  -9   2   9   -2.00    1.50
   9   2  -9   -0.60    1.80
  -9   2   9    0.20    2.00
   9   2  -9   -0.40    1.80
  -9   2   9    0.60    1.30
  -8  -2   9  289.27    8.80
   8  -2  -9  285.37   11.30
  -8  -2   9  280.77    9.00
   8  -2  -9  275.67   11.10
  -8  -2   9  299.27   11.30
  -8  -2   9  299.27   10.60
  -8   2   9  301.17   11.70
  -8   2   9  276.97   11.00
  -8   2   9  278.97   10.00
   8   2  -9  277.37   10.90
   8   2  -9  306.47   11.50
  -7  -2   9    2.20    1.70
  -7  -2   9    1.30    1.40
   7  -2  -9   -1.30    1.10
  -7  -2   9    1.80    1.10
   7  -2  -9   -0.60    1.50
   7  -2  -9    0.40    1.40
  -7  -2   9    2.50    0.70
  -7   2   9    2.30    1.80
   7   2  -9   -0.30    1.50
   7   2  -9    0.80    1.00
   7   2  -9    3.10    1.90
  -7   2   9    0.30    1.20
  -7   2   9    0.50    1.50
  -6  -2   9   67.49    3.70
   6  -2  -9   80.49    4.60
   6  -2  -9   80.79    4.30
  -6  -2   9   77.89    3.90
  -6  -2   9   80.39    4.40
   6  -2  -9   73.69    4.60
  -6  -2   9   70.69    2.30
  -6   2   9   71.69    4.20
  -6   2   9   71.49    4.50
   6   2  -9   73.29    3.80
  -6   2   9   70.89    4.50
   6   2  -9   75.69    4.60
  -6   2   9   66.59    4.10
   6   2  -9   72.69    4.70
  -5  -2   9  389.56   12.30
   5  -2  -9  408.76   10.80
   5  -2  -9  387.36   13.20
  -5  -2   9  389.76   12.70
   5  -2  -9  391.36   12.70
  -5  -2   9  393.46   12.40
   5  -2  -9  400.66   12.90
   5   2  -9  404.16   12.40
   5   2  -9  379.96   13.10
  -5   2   9  397.56   13.10
  -5   2   9  409.76   13.00
   5   2  -9  383.26   13.20
  -5   2   9  377.86   12.80
  -4  -2   9  219.38    8.00
   4  -2  -9  222.48    7.70
   4  -2  -9  225.78    8.50
  -4  -2   9  219.98    8.10
   4  -2  -9  222.98    8.40
   4  -2  -9  212.88    7.70
  -4  -2   9  220.58    8.10
   4   2  -9  206.78    8.40
   4   2  -9  224.78    8.10
  -4   2   9  232.38    8.50
  -4   2   9  222.48    8.20
   4   2  -9  220.28    8.40
  -4   2   9  237.88    7.90
  -4   2   9  226.48    8.40
   3  -2  -9   53.69    3.10
   3  -2  -9   55.59    2.10
  -3  -2   9   55.49    2.90
   3  -2  -9   55.99    3.50
  -3  -2   9   57.09    3.50
  -3  -2   9   50.69    3.40
   3  -2  -9   57.49    2.90
  -3  -2   9   55.69    3.50
   3  -2  -9   51.99    3.50
   3   2  -9   51.39    3.40
  -3   2   9   55.09    3.40
   3   2  -9   60.99    3.60
   3   2  -9   53.19    3.70
  -3   2   9   52.59    3.00
  -3   2   9   50.29    3.50
   2  -2  -9  312.77   10.80
  -2  -2   9  316.67   10.70
  -2  -2   9  324.47   10.60
  -2  -2   9  315.27    9.90
   2  -2  -9  304.37   10.00
  -2  -2   9  297.47   10.50
   2  -2  -9  306.57   10.30
   2  -2  -9  323.67    9.20
  -2   2   9  315.37   10.10
   2   2  -9  312.57    8.60
  -2   2   9  309.47   10.10
  -2   2   9  319.77   10.80
   2   2  -9  306.67   10.30
   1  -2  -9    9.40    1.60
  -1  -2   9    6.90    1.50
  -1  -2   9   10.00    1.90
   1  -2  -9   10.30    2.00
   1  -2  -9   10.60    1.70
  -1  -2   9   14.00    2.20
   1   2  -9    9.80    1.60
  -1   2   9   11.10    1.70
  -1   2   9    8.20    1.90
   1   2  -9    8.40    1.80
   1   2  -9    7.80    1.60
   1   2  -9    9.90    1.20
   0  -2  -9  111.69    4.60
   0  -2  -9  109.69    4.90
   0  -2   9   99.39    4.80
   0  -2   9   98.49    5.00
   0  -2  -9  107.39    4.40
   0  -2  -9   97.59    5.10
   0  -2   9   97.79    5.10
   0   2  -9   95.69    5.10
   0   2   9  110.09    4.10
   0   2  -9   97.89    5.10
   0   2   9  103.99    4.30
   0   2   9  112.09    5.30
   0   2  -9   98.99    4.30
   0   2   9  103.79    5.00
   1  -2   9   21.20    2.60
  -1  -2  -9   20.40    2.00
  -1  -2  -9   16.80    2.40
   1  -2   9   18.70    1.80
   1  -2   9   16.80    2.50
  -1  -2  -9   17.60    2.40
  -1  -2  -9   19.10    1.90
   1  -2   9   14.60    2.20
   1   2   9   20.60    1.60
  -1   2  -9   19.30    2.60
   1   2   9   20.60    2.70
   1   2   9   17.80    1.80
  -1   2  -9   19.70    2.60
   1   2   9   15.60    2.40
   2  -2   9  108.19    3.90
  -2  -2  -9  106.79    5.40
   2  -2   9   98.59    5.40
   2  -2   9  102.79    5.30
  -2  -2  -9  107.39    4.30
  -2  -2  -9  108.79    5.40
   2  -2   9  104.29    5.30
  -2  -2  -9  110.89    4.20
  -2   2  -9   99.99    5.40
   2   2   9  103.29    4.10
   2   2   9  107.99    3.80
   2   2   9  110.39    3.30
  -2   2  -9  110.59    5.50
   2   2   9  103.29    5.40
   2   2   9  108.49    5.40
  -3  -2  -9  224.98    8.90
   3  -2   9  239.08    9.20
  -3  -2  -9  239.38    7.40
  -3  -2  -9  235.28    7.40
   3  -2   9  235.48    6.80
  -3  -2  -9  237.68    9.20
   3  -2   9  239.68    9.20
   3   2   9  245.08    7.50
   3   2   9  225.58    6.90
   3   2   9  236.28    9.00
   3   2   9  242.08    7.00
   3   2   9  228.58    9.10
  -3   2  -9  220.98    8.90
  -4  -2  -9   43.10    2.40
  -4  -2  -9   53.29    3.90
  -4  -2  -9   46.30    3.70
  -4  -2  -9   43.80    3.60
   4  -2   9   45.80    4.30
   4  -2   9   49.90    3.90
   4   2   9   45.00    3.60
  -4   2  -9   45.90    4.30
   4   2   9   54.99    4.10
   4   2   9   49.90    2.60
   5  -2   9   52.69    4.10
   5  -2   9   45.10    4.60
  -5  -2  -9   49.30    4.50
  -5  -2  -9   35.10    3.70
   5   2   9   47.30    4.10
   5   2   9   42.80    2.80
  -5   2  -9   39.70    4.10
   5   2   9   53.09    4.80
  -5   2  -9   42.70    4.10
  -6  -2  -9  255.57   10.30
   6  -2   9  280.87   11.40
  -6  -2  -9  285.17   11.70
   6  -2   9  288.27   11.00
  -6   2  -9  285.87   10.90
  -6   2  -9  282.07   11.20
   6   2   9  294.67   11.30
  -7  -2  -9   -1.00    1.40
   7  -2   9   -0.30    1.80
  -7  -2  -9    3.00    2.30
   7  -2   9    4.20    2.60
   7   2   9   -0.80    1.50
  -7   2  -9    2.10    1.70
  -7   2  -9   -0.90    1.80
   8  -2   9   15.40    3.60
  -8  -2  -9   10.20    2.30
  -8  -2  -9   10.10    3.30
   8  -2   9   14.20    3.40
   8   2   9   14.30    3.20
  -8   2  -9   16.50    3.30
  -8   2  -9   14.60    2.90
  -9  -2  -9    0.60    1.60
   9  -2   9    2.90    2.60
  -9  -2  -9    1.50    2.70
   9  -2   9    4.20    2.70
  -9   2  -9    1.30    2.00
  -9   2  -9    3.70    2.50
  -9   2  -9   -0.10    2.30
   9   2   9    0.10    2.00
  11  -3  -9    6.80    3.20
 -11  -3   9    8.30    2.70
  11  -3  -9    7.50    2.90
 -11  -3   9    8.80    3.20
 -11   3   9    5.30    3.10
  11   3  -9    7.30    2.70
  11   3  -9   12.40    3.20
 -11   3   9    4.70    2.70
 -11   3   9    5.50    2.00
 -10  -3   9   33.70    4.40
 -10  -3   9   44.00    4.60
  10  -3  -9   32.10    4.40
  10  -3  -9   32.70    4.60
 -10   3   9   31.30    4.50
 -10   3   9   31.70    3.50
  10   3  -9   31.90    4.50
  10   3  -9   34.70    4.50
 -10   3   9   32.20    4.10
  -9  -3   9  104.09    4.20
   9  -3  -9   95.49    6.40
   9  -3  -9   89.59    6.30
  -9  -3   9  113.89    6.50
   9   3  -9  103.69    6.30
  -9   3   9  100.19    5.70
  -9   3   9   89.09    6.20
  -9   3   9  114.39    7.10
   9   3  -9  106.69    6.60
  -8  -3   9   10.10    2.50
   8  -3  -9   14.50    2.90
  -8  -3   9   10.90    1.70
   8  -3  -9   11.60    2.60
   8   3  -9   10.70    2.80
  -8   3   9   13.50    2.40
  -8   3   9    7.30    2.50
  -8   3   9    9.10    2.50
   8   3  -9    8.80    2.50
   7  -3  -9  105.49    5.70
  -7  -3   9   99.39    4.80
  -7  -3   9  115.19    5.40
  -7  -3   9   99.49    5.70
   7  -3  -9  102.99    5.80
   7  -3  -9   92.59    5.90
  -7   3   9  109.39    6.10
   7   3  -9   94.99    5.90
  -7   3   9  100.99    5.90
   7   3  -9  102.99    6.00
  -7   3   9  102.09    5.50
   6  -3  -9   90.59    5.50
  -6  -3   9   92.09    5.40
  -6  -3   9   93.59    3.40
  -6  -3   9   91.49    4.70
   6  -3  -9   98.29    5.30
   6  -3  -9   93.79    5.20
   6   3  -9   93.19    4.60
  -6   3   9   98.09    5.30
  -6   3   9   85.69    5.40
   6   3  -9   84.19    5.60
   6   3  -9   90.29    5.50
  -6   3   9   98.49    5.60
   5  -3  -9  191.98    7.60
   5  -3  -9  190.68    8.10
   5  -3  -9  205.88    7.60
   5  -3  -9  199.08    8.10
  -5  -3   9  183.48    7.30
  -5  -3   9  189.78    7.40
  -5  -3   9  184.18    7.90
  -5  -3   9  188.48    5.60
  -5   3   9  176.68    7.80
  -5   3   9  204.88    8.20
   5   3  -9  189.28    7.40
  -5   3   9  180.88    7.80
   5   3  -9  189.28    8.40
   5   3  -9  174.48    7.90
   4  -3  -9   32.90    2.60
  -4  -3   9   35.60    3.30
  -4  -3   9   34.60    3.30
   4  -3  -9   31.50    3.10
  -4  -3   9   33.40    2.20
   4  -3  -9   32.50    3.40
   4  -3  -9   38.00    3.70
  -4  -3   9   25.70    3.10
  -4   3   9   32.20    3.40
   4   3  -9   32.80    3.50
   4   3  -9   35.20    3.30
   4   3  -9   34.10    3.70
  -4   3   9   34.90    3.20
  -4   3   9   37.60    3.50
   4   3  -9   33.50    1.60
  -3  -3   9    2.10    1.00
   3  -3  -9    1.20    1.40
  -3  -3   9    1.40    1.30
   3  -3  -9    2.10    0.90
   3  -3  -9    2.50    1.40
  -3  -3   9    1.00    1.30
   3  -3  -9    0.00    1.20
  -3  -3   9    0.00    1.40
   3  -3  -9    0.10    0.50
   3   3  -9   -1.60    0.80
   3   3  -9    2.20    1.30
  -3   3   9    1.50    1.10
  -3   3   9    4.00    1.60
   3   3  -9    1.50    1.30
  -3   3   9    0.10    1.30
   3   3  -9    0.50    0.60
   2  -3  -9  460.25   14.50
  -2  -3   9  439.96   14.60
   2  -3  -9  439.66   14.20
   2  -3  -9  466.05   12.70
   2  -3  -9  434.26   14.80
  -2  -3   9  478.05   14.90
  -2  -3   9  445.16   13.80
   2  -3  -9  472.85   13.00
   2   3  -9  444.36   14.40
  -2   3   9  470.75   13.80
  -2   3   9  461.85   15.00
   2   3  -9  455.05   15.10
   2   3  -9  457.65   12.80
  -2   3   9  441.76   14.20
   2   3  -9  452.75   14.80
   2   3  -9  438.06   14.60
  -1  -3   9  160.18    6.50
   1  -3  -9  164.88    6.60
  -1  -3   9  158.28    6.90
  -1  -3   9  160.08    7.10
   1  -3  -9  160.38    6.70
   1  -3  -9  154.48    5.80
   1  -3  -9  153.48    7.00
   1   3  -9  157.38    7.00
   1   3  -9  154.38    5.60
  -1   3   9  158.98    6.50
  -1   3   9  160.68    5.80
   1   3  -9  165.98    6.60
  -1   3   9  176.18    7.30
   1   3  -9  160.68    7.00
   0  -3  -9   41.40    3.00
   0  -3   9   51.89    3.90
   0  -3  -9   43.50    4.00
   0  -3  -9   38.60    3.60
   0  -3   9   46.30    3.50
   0  -3   9   43.30    3.30
   0   3   9   41.90    3.00
   0   3   9   42.00    2.40
   0   3  -9   45.50    2.80
   0   3   9   41.00    3.80
   0   3  -9   40.30    3.80
   0   3  -9   42.40    3.90
  -1  -3  -9   83.39    5.00
   1  -3   9   73.89    4.60
   1  -3   9   82.19    5.00
  -1  -3  -9   86.49    4.90
   1  -3   9   77.89    4.70
   1   3   9   80.99    3.00
   1   3   9   77.69    4.90
  -1   3  -9   72.59    4.80
   1   3   9   92.29    4.30
   1   3   9   79.39    2.90
  -1   3  -9   83.89    5.10
   2  -3   9    8.20    1.50
   2  -3   9    8.20    2.20
  -2  -3  -9    6.70    2.00
   2  -3   9    8.80    2.30
  -2  -3  -9    7.80    2.10
   2  -3   9    9.80    2.40
   2   3   9    8.90    2.20
  -2   3  -9    5.30    2.10
  -2   3  -9    7.20    2.20
   2   3   9    9.40    2.20
   2   3   9    6.20    1.50
   3  -3   9  192.98    7.20
   3  -3   9  175.48    8.20
   3  -3   9  172.08    7.90
   3  -3   9  186.68    8.30
  -3  -3  -9  172.88    7.80
  -3  -3  -9  188.78    8.30
  -3   3  -9  190.28    8.30
   3   3   9  189.98    8.20
  -3   3  -9  196.88    8.50
   3   3   9  185.88    8.00
   3   3   9  178.78    6.70
   4  -3   9    1.70    1.80
   4  -3   9   -1.60    1.50
  -4  -3  -9    0.30    1.50
  -4  -3  -9    0.60    1.80
  -4   3  -9    1.60    1.70
   4   3   9    1.00    1.30
   4   3   9    0.00    1.50
  -4   3  -9    0.70    1.30
   5  -3   9  114.89    6.40
  -5  -3  -9  109.99    6.80
   5  -3   9  116.39    6.80
  -5  -3  -9  114.69    6.10
  -5   3  -9  121.89    6.90
   5   3   9  120.49    6.20
   5   3   9  117.49    6.50
  -5   3  -9  116.49    6.50
  -6  -3  -9   10.70    3.00
   6  -3   9   14.00    3.20
  -6  -3  -9   13.60    2.60
   6  -3   9   11.70    2.80
  -6   3  -9   10.60    2.90
   6   3   9    9.80    2.70
  -6   3  -9   15.80    3.00
  -7  -3  -9   16.50    2.80
  -7  -3  -9   18.40    3.40
   7  -3   9   16.10    3.60
   7  -3   9   13.60    3.50
  -7   3  -9   21.60    3.80
   7   3   9   14.90    3.20
  -8  -3  -9   42.90    4.20
   8  -3   9   47.80    5.90
  -8  -3  -9   37.40    5.20
   8  -3   9   41.60    5.30
   8   3   9   30.30    4.50
  -8   3  -9   39.90    5.10
  -8   3  -9   41.00    4.60
   9  -3   9    1.50    2.60
   9  -3   9    0.70    2.60
  -9  -3  -9    1.20    1.80
   9   3   9    1.00    2.20
  -9   3  -9   -2.30    2.50
  -9   3  -9    1.10    2.20
  11  -4  -9   14.80    3.80
  11  -4  -9   10.00    3.50
 -11  -4   9   13.70    3.70
 -11   4   9   17.80    3.20
  11   4  -9   16.30    3.90
  11   4  -9   13.50    3.70
 -11   4   9   11.80    3.90
  10  -4  -9   25.00    4.40
 -10  -4   9   23.30    4.00
  10  -4  -9   21.90    4.10
  10   4  -9   32.10    4.80
 -10   4   9   28.50    4.70
 -10   4   9   26.60    4.30
  10   4  -9   30.10    4.70
 -10   4   9   32.40    3.90
   9  -4  -9   85.09    6.50
  -9  -4   9   85.69    4.40
  -9  -4   9   89.99    6.30
   9  -4  -9   92.09    6.50
   9   4  -9   98.69    6.80
  -9   4   9  100.89    7.00
  -9   4   9   90.39    6.50
   9   4  -9   79.59    6.30
  -9   4   9  104.29    6.20
  -8  -4   9   15.90    2.30
  -8  -4   9   17.10    3.20
   8  -4  -9   16.20    3.30
   8  -4  -9   23.90    4.00
  -8   4   9   19.40    3.30
  -8   4   9   14.80    3.30
   8   4  -9   17.20    3.50
  -8   4   9   14.00    2.80
   8   4  -9   15.60    3.30
   7  -4  -9    1.90    1.70
   7  -4  -9    3.40    2.10
  -7  -4   9    2.70    1.50
   7  -4  -9    1.60    1.80
  -7  -4   9    0.40    1.90
   7   4  -9    1.20    2.10
  -7   4   9    2.00    2.00
   7   4  -9    0.80    1.90
  -7   4   9    2.00    1.60
  -7   4   9    1.10    1.80
   6  -4  -9  336.97   12.10
   6  -4  -9  329.37   12.90
  -6  -4   9  358.06   13.00
   6  -4  -9  358.46   12.80
  -6  -4   9  337.77   11.80
  -6   4   9  340.57   12.70
   6   4  -9  337.77   12.90
   6   4  -9  324.97   13.10
  -6   4   9  333.37   12.70
  -6   4   9  353.16   12.90
  -5  -4   9  110.79    6.30
   5  -4  -9  109.39    6.20
  -5  -4   9  100.19    5.50
   5  -4  -9  107.89    5.40
   5  -4  -9   99.69    5.70
   5  -4  -9  113.59    6.30
  -5  -4   9  113.59    4.30
   5   4  -9   98.09    6.00
   5   4  -9  103.19    5.50
  -5   4   9  124.19    6.40
   5   4  -9  112.89    6.60
  -5   4   9  111.89    6.20
  -5   4   9  115.79    6.00
   4  -4  -9   43.30    4.00
   4  -4  -9   42.60    4.30
   4  -4  -9   33.00    3.70
   4  -4  -9   39.00    2.90
  -4  -4   9   36.40    3.90
  -4  -4   9   46.40    3.70
   4   4  -9   35.60    4.30
  -4   4   9   38.40    3.60
   4   4  -9   40.40    3.80
   4   4  -9   36.30    3.90
  -4   4   9   28.50    3.60
  -4   4   9   44.90    4.00
   3  -4  -9   70.49    4.60
   3  -4  -9   67.69    4.60
  -3  -4   9   65.79    4.50
  -3  -4   9   65.79    4.50
   3  -4  -9   63.39    3.30
   3  -4  -9   60.99    4.40
  -3  -4   9   71.79    3.90
   3  -4  -9   71.89    3.00
   3   4  -9   60.39    4.30
  -3   4   9   65.79    4.50
   3   4  -9   66.79    3.70
  -3   4   9   66.69    4.00
  -3   4   9   71.19    4.80
   3   4  -9   63.79    4.70
   3   4  -9   67.99    4.60
   2  -4  -9  499.85   16.30
  -2  -4   9  483.55   15.50
   2  -4  -9  508.25   14.60
   2  -4  -9  501.05   16.80
  -2  -4   9  507.45   16.70
  -2  -4   9  498.85   16.50
   2  -4  -9  499.45   16.30
  -2   4   9  518.95   16.90
   2   4  -9  511.85   17.10
  -2   4   9  505.15   15.10
  -2   4   9  499.85   16.10
   2   4  -9  506.55   14.80
   2   4  -9  492.85   16.60
   2   4  -9  519.85   16.60
   1  -4  -9  200.18    7.30
  -1  -4   9  193.88    8.50
  -1  -4   9  195.18    8.60
  -1  -4   9  190.38    7.90
   1  -4  -9  205.08    8.80
   1  -4  -9  196.28    8.30
   1   4  -9  202.58    8.70
   1   4  -9  204.08    8.80
  -1   4   9  213.18    8.90
  -1   4   9  206.38    8.20
  -1   4   9  204.58    6.90
   1   4  -9  196.58    8.90
   0  -4   9   11.00    2.30
   0  -4  -9   10.80    2.30
   0  -4  -9    5.60    2.10
   0  -4   9    9.20    2.20
   0  -4   9    7.20    2.20
   0  -4  -9    9.90    1.90
   0   4   9    8.40    2.30
   0   4   9    9.60    1.30
   0   4   9   14.20    2.30
   0   4  -9   12.00    2.70
   0   4  -9    8.10    2.40
  -1  -4  -9  147.09    7.20
  -1  -4  -9  142.09    7.10
   1  -4   9  130.49    6.70
   1  -4   9  152.48    7.40
  -1  -4  -9  133.59    6.30
   1  -4   9  137.19    6.90
  -1   4  -9  144.49    7.30
   1   4   9  144.59    6.30
  -1   4  -9  147.69    7.30
   1   4   9  153.68    7.30
   2  -4   9   89.39    5.40
  -2  -4  -9   83.69    5.50
  -2  -4  -9   88.79    5.20
   2  -4   9   93.69    5.80
  -2  -4  -9   73.99    5.30
   2  -4   9   79.49    5.30
  -2   4  -9   86.59    5.70
  -2   4  -9   86.49    5.70
   2   4   9   79.69    5.40
   2   4   9   80.39    4.50
   2   4   9   94.19    5.60
   3  -4   9   25.40    3.50
  -3  -4  -9   27.80    3.60
   3  -4   9   27.10    3.70
  -3  -4  -9   32.10    3.80
  -3  -4  -9   21.20    3.30
   3  -4   9   27.60    3.80
  -3   4  -9   31.40    4.00
  -3   4  -9   26.70    3.90
   3   4   9   30.50    4.00
   3   4   9   25.70    3.40
   3   4   9   25.80    3.60
   4  -4   9   49.99    5.00
  -4  -4  -9   51.59    4.90
  -4  -4  -9   51.19    5.20
   4  -4   9   47.20    4.90
  -4  -4  -9   56.09    4.50
   4  -4   9   51.69    5.20
  -4   4  -9   42.60    4.70
   4   4   9   42.70    4.90
  -4   4  -9   49.00    5.00
   4   4   9   55.99    4.80
   4   4   9   48.90    4.90
  -5  -4  -9    3.80    2.00
   5  -4   9    1.60    1.60
   5  -4   9    4.30    2.30
  -5  -4  -9    0.40    2.00
  -5  -4  -9    1.90    2.30
  -5   4  -9    2.00    2.10
  -5   4  -9    2.60    2.30
   5   4   9    0.90    1.90
  -6  -4  -9    4.80    2.20
  -6  -4  -9    5.30    2.30
   6  -4   9    7.00    2.90
  -6  -4  -9    3.20    2.60
  -6   4  -9    6.00    2.50
  -6   4  -9    5.00    2.80
   6   4   9    1.70    2.30
  -7  -4  -9    0.90    1.90
   7  -4   9    1.80    1.90
  -7  -4  -9   -1.20    2.30
  -7  -4  -9   -0.10    2.30
  -7   4  -9    4.80    2.90
  -7   4  -9    1.70    2.10
   7   4   9   -1.40    1.70
  -8  -4  -9    8.20    2.50
   8  -4   9    6.80    3.30
   8  -4   9    5.90    3.00
  -8   4  -9    7.70    2.80
   8   4   9    7.10    2.80
  -9  -5   9   39.70    3.60
  -9  -5   9   39.40    5.20
   9  -5  -9   35.80    4.90
   9  -5  -9   35.50    5.00
  -9   5   9   35.90    4.70
   9   5  -9   33.40    5.00
  -9   5   9   39.10    4.70
   9   5  -9   33.00    5.10
  -9   5   9   42.70    5.30
  -8  -5   9    9.30    3.20
   8  -5  -9    6.60    2.60
  -8  -5   9    6.70    2.00
   8  -5  -9    2.80    2.40
   8   5  -9    3.50    2.30
  -8   5   9   11.80    3.00
  -8   5   9    1.40    2.40
  -8   5   9    6.90    2.70
   8   5  -9    1.60    1.90
  -7  -5   9   41.80    4.00
   7  -5  -9   42.40    5.10
   7  -5  -9   39.60    4.40
  -7  -5   9   49.80    5.50
   7   5  -9   51.09    5.70
  -7   5   9   45.70    5.10
   7   5  -9   39.20    5.00
  -7   5   9   52.39    5.30
  -7   5   9   43.40    4.90
   6  -5  -9   36.90    4.60
  -6  -5   9   33.90    3.80
   6  -5  -9   33.70    4.30
   6  -5  -9   33.80    3.80
  -6  -5   9   31.80    4.40
  -6   5   9   31.60    4.10
   6   5  -9   22.90    3.80
   6   5  -9   31.00    4.50
  -6   5   9   30.50    4.00
  -6   5   9   24.70    3.60
   5  -5  -9   91.99    6.10
  -5  -5   9   84.79    5.80
   5  -5  -9   88.09    5.80
   5  -5  -9   81.89    4.80
  -5  -5   9   70.99    5.10
   5  -5  -9   97.39    6.30
  -5   5   9   85.19    5.50
  -5   5   9   98.79    6.30
  -5   5   9   78.59    5.30
   5   5  -9   96.89    6.60
   4  -5  -9   15.00    2.20
   4  -5  -9   14.30    3.00
   4  -5  -9   15.00    3.20
  -4  -5   9   10.90    2.60
  -4  -5   9   17.10    2.20
   4  -5  -9    8.20    2.60
  -4  -5   9   13.70    3.20
   4   5  -9   12.40    3.20
  -4   5   9   17.60    3.00
  -4   5   9   13.00    3.00
  -4   5   9   12.30    2.30
   4   5  -9   13.00    2.80
  -3  -5   9   -2.30    1.50
   3  -5  -9    0.90    1.50
   3  -5  -9   -0.40    1.80
  -3  -5   9    0.70    1.60
   3  -5  -9    0.10    1.80
  -3   5   9    0.00    1.30
   3   5  -9    2.00    2.20
   3   5  -9    0.20    1.70
  -3   5   9    0.90    1.20
  -3   5   9   -1.70    1.70
  -2  -5   9   80.19    5.80
   2  -5  -9   89.59    6.00
  -2  -5   9   84.29    5.70
   2  -5  -9   85.99    4.30
   2  -5  -9   87.49    5.70
   2   5  -9   89.69    5.80
  -2   5   9   90.99    4.50
  -2   5   9   95.39    5.50
   2   5  -9   88.39    5.80
  -2   5   9   97.49    6.20
   2   5  -9   86.69    5.80
  -1  -5   9    7.30    2.70
  -1  -5   9   11.30    2.40
   1  -5  -9   10.90    2.90
   1  -5  -9    5.50    1.90
   1  -5  -9    9.80    1.90
  -1  -5   9    3.80    2.30
  -1   5   9   11.50    2.20
   1   5  -9    7.70    2.40
   1   5  -9    9.20    2.80
   1   5  -9    5.80    2.30
  -1   5   9    4.90    2.40
  -1   5   9    7.50    2.20
  -1   5   9    7.00    1.50
   0  -5   9   50.49    4.60
   0  -5   9   45.60    4.90
   0  -5   9   42.10    4.50
   0  -5  -9   49.10    4.90
   0  -5  -9   45.60    4.70
   0  -5  -9   40.30    3.70
   0   5   9   40.90    4.10
   0   5   9   44.80    4.70
   0   5  -9   46.70    5.00
   0   5  -9   46.00    4.70
   0   5  -9   57.99    5.30
   0   5   9   45.50    3.80
   1  -5   9   -0.90    1.80
   1  -5   9   -2.00    1.90
   1  -5   9    0.40    1.30
  -1  -5  -9    1.60    2.00
  -1  -5  -9   -2.90    1.60
  -1  -5  -9    1.20    1.50
   1   5   9   -0.80    1.40
  -1   5  -9   -1.60    1.70
  -1   5  -9    1.10    2.00
   1   5   9    0.10    1.60
  -1   5  -9   -3.00    1.70
   1   5   9   -0.20    1.80
  -2  -5  -9   25.80    3.50
   2  -5   9   25.50    3.90
   2  -5   9   17.70    3.40
  -2  -5  -9   30.10    4.10
  -2  -5  -9   27.60    3.80
   2  -5   9   29.60    4.30
   2   5   9   27.60    3.80
   2   5   9   30.50    3.40
  -2   5  -9   26.40    4.00
   2   5   9   27.80    4.00
  -2   5  -9   26.50    4.00
   3  -5   9   81.09    6.00
   3  -5   9   71.79    5.30
  -3  -5  -9   68.89    5.40
  -3  -5  -9   69.69    5.40
   3  -5   9   62.09    5.80
  -3  -5  -9   74.69    5.80
  -3   5  -9   67.19    6.20
   3   5   9   64.89    5.20
  -3   5  -9   64.49    6.00
   3   5   9   72.69    5.80
  -4  -5  -9    2.60    2.30
  -4  -5  -9   -4.50    1.60
  -4  -5  -9   -0.90    1.70
   4  -5   9   -1.30    1.20
   4  -5   9   -2.30    2.00
   4  -5   9   -2.60    1.70
  -4   5  -9   -1.60    2.00
  -4   5  -9    1.20    2.20
   4   5   9   -2.10    1.90
   4   5   9    0.80    2.00
  -5  -5  -9   10.80    3.30
   5  -5   9   11.60    3.30
  -5  -5  -9   13.90    3.30
   5  -5   9    7.00    2.60
  -5  -5  -9   10.00    2.70
   5   5   9   12.80    3.10
  -5   5  -9    8.70    3.20
   5   5   9   10.20    3.30
  -5   5  -9   18.60    3.70
  -6  -5  -9    1.30    2.00
   6  -5   9    0.00    2.60
  -6  -5  -9   -3.50    1.90
  -6  -5  -9    1.10    2.60
  -6   5  -9    1.20    2.50
  -6   5  -9   -6.10    1.90
   6   5   9   -0.20    2.60
   6   5   9    1.60    2.20
   7  -5   9    3.50    2.90
  -7  -5  -9    3.30    2.40
   7   5   9   -3.40    1.60
  -8  -6   9   55.09    5.00
   8  -6  -9   44.30    5.20
   8  -6  -9   44.10    5.70
   8   6  -9   44.20    5.90
  -8   6   9   46.40    5.60
  -7  -6   9    1.10    2.70
   7  -6  -9   -1.00    2.40
   7  -6  -9    0.20    2.00
  -7  -6   9   -0.50    2.00
  -7   6   9    0.20    2.40
  -7   6   9    1.40    2.50
   7   6  -9   -3.30    2.10
  -7   6   9    0.00    2.10
  -6  -6   9   13.90    3.00
   6  -6  -9   23.00    4.20
   6  -6  -9   12.40    3.10
  -6  -6   9   17.60    3.60
  -6   6   9   17.10    3.80
  -6   6   9   15.60    3.30
   6   6  -9    7.20    3.10
  -6   6   9   12.70    3.00
   5  -6  -9   62.89    6.10
  -5  -6   9   55.79    5.40
   5  -6  -9   61.29    6.20
   5  -6  -9   50.99    5.70
  -5  -6   9   54.39    5.70
  -5   6   9   56.09    5.70
  -5   6   9   58.39    5.20
  -5   6   9   59.49    6.10
   5   6  -9   40.70    5.40
  -4  -6   9    0.50    2.00
  -4  -6   9   -3.60    2.10
   4  -6  -9   -2.50    2.00
   4  -6  -9    2.20    2.30
   4  -6  -9    1.90    2.20
  -4   6   9    4.20    2.40
   4   6  -9   -0.80    2.30
  -4   6   9    1.40    1.70
  -4   6   9   -1.20    2.00
  -3  -6   9    0.30    2.10
   3  -6  -9    5.30    2.50
  -3  -6   9    3.60    2.50
   3  -6  -9    4.50    2.50
  -3   6   9   -0.80    1.50
   3   6  -9    2.50    2.10
   3   6  -9    3.50    2.40
  -3   6   9    1.10    2.20
  -3   6   9    1.50    2.30
  -2  -6   9    8.40    3.00
  -2  -6   9    3.30    2.40
   2  -6  -9    3.40    2.60
   2  -6  -9    4.50    2.50
  -2   6   9    5.10    2.60
   2   6  -9    8.20    3.00
   2   6  -9    7.70    2.80
  -2   6   9    7.00    2.60
   2   6  -9    8.40    2.90
   1  -6  -9  320.27   13.20
  -1  -6   9  334.97   13.60
  -1  -6   9  339.07   13.60
   1  -6  -9  318.27   11.50
   1  -6  -9  339.97   13.70
   1   6  -9  279.67   13.00
  -1   6   9  313.37   12.70
   1   6  -9  335.07   13.50
   1   6  -9  335.47   13.20
  -1   6   9  335.87   12.10
  -1   6   9  336.97   13.60
   0  -6   9   41.70    5.10
   0  -6  -9   42.80    4.20
   0  -6  -9   45.00    5.10
   0  -6   9   38.90    5.00
   0  -6  -9   42.20    5.10
   0   6  -9   39.30    5.00
   0   6  -9   41.70    5.10
   0   6  -9   36.50    4.90
   0   6   9   41.80    5.00
   0   6   9   38.50    4.30
   0   6   9   37.70    4.40
  -1  -6  -9   11.60    3.20
  -1  -6  -9   14.60    3.40
  -1  -6  -9   12.40    2.60
   1  -6   9   15.70    3.50
   1  -6   9   18.90    3.80
   1   6   9   18.20    3.40
  -1   6  -9   21.90    4.10
   1   6   9   21.90    3.50
   1   6   9   22.40    4.00
  -1   6  -9   18.70    3.50
  -1   6  -9   22.00    4.10
   2  -6   9   20.00    4.00
  -2  -6  -9   12.20    3.20
  -2  -6  -9   17.00    3.70
   2  -6   9   19.90    3.50
  -2  -6  -9   18.50    3.60
   2  -6   9   16.10    3.50
   2   6   9   12.40    3.10
   2   6   9   20.50    3.90
   2   6   9   15.50    3.40
  -2   6  -9   19.50    3.90
  -2   6  -9   22.20    4.20
  -2   6  -9   24.50    4.20
  -3  -6  -9    6.10    2.70
  -3  -6  -9    6.10    3.00
   3  -6   9    3.70    2.80
   3  -6   9    3.60    2.70
  -3  -6  -9    0.90    2.10
   3  -6   9   11.30    3.30
  -3   6  -9    6.40    3.00
  -3   6  -9    3.60    2.70
   3   6   9    9.20    3.10
  -3   6  -9    2.20    2.70
   4  -6   9    4.50    2.80
   4  -6   9    3.70    2.60
  -4  -6  -9    2.30    2.50
  -4  -6  -9    5.00    2.80
  -4  -6  -9    8.10    3.30
   4  -6   9    5.20    3.00
  -4   6  -9    3.30    2.60
  -4   6  -9    4.20    3.00
  -4   6  -9    0.90    2.40
   4   6   9    5.50    2.80
   4   6   9   -1.60    2.50
  -5  -6  -9    3.40    2.50
   5  -6   9   -1.80    2.40
  -5  -6  -9   -3.30    2.20
   5  -6   9    4.70    3.20
   5   6   9   -0.50    2.50
   5   6   9    1.30    2.40
   5  -7  -9    1.70    2.60
   5  -7  -9    7.70    3.40
   5   7  -9   -0.10    2.90
  -4  -7   9   20.00    4.30
   4  -7  -9   16.50    3.90
  -4  -7   9   18.20    4.90
   4  -7  -9   19.70    4.40
   4  -7  -9   17.30    3.60
  -4   7   9   19.70    4.50
   4   7  -9   15.30    4.20
  -4   7   9    8.90    3.50
  -3  -7   9   20.50    4.10
   3  -7  -9   20.10    4.40
   3  -7  -9   21.50    4.30
  -3  -7   9   30.40    4.90
  -3   7   9   27.30    4.80
   3   7  -9   18.20    4.40
  -3   7   9   21.80    4.10
   2  -7  -9   15.20    3.40
   2  -7  -9   25.00    4.50
  -2  -7   9   19.00    4.20
  -2  -7   9   18.40    4.30
   2   7  -9   24.40    4.40
   2   7  -9   17.40    4.10
   2   7  -9   20.30    3.90
  -2   7   9   20.10    4.20
  -2   7   9   22.10    3.80
   1  -7  -9   -2.60    2.30
   1  -7  -9    1.30    2.60
  -1  -7   9    0.00    2.50
  -1  -7   9   -1.80    2.10
  -1   7   9    2.90    2.60
   1   7  -9   -0.70    2.50
  -1   7   9    1.10    2.50
   1   7  -9    0.40    2.40
   1   7  -9   -1.60    2.30
   0  -7   9   -0.90    2.50
   0  -7  -9    0.40    1.90
   0  -7  -9    3.60    2.70
   0  -7   9   -3.50    2.10
   0   7  -9   -1.50    2.30
   0   7   9    0.60    2.10
   0   7   9   -1.70    2.30
   0   7   9   -1.40    2.10
   0   7  -9   -2.60    2.40
   0   7  -9   -2.10    2.10
  -1  -7  -9   20.90    4.30
   1  -7   9   24.50    4.70
  -1  -7  -9   26.60    4.80
  -1  -7  -9   26.10    3.90
   1  -7   9   24.00    4.70
  -1   7  -9   30.80    4.90
   1   7   9   27.50    4.50
   1   7   9   24.20    4.40
  -1   7  -9   25.20    4.70
  -1   7  -9   21.60    4.60
   1   7   9   29.70    4.40
   2  -7   9   44.20    6.10
  -2  -7  -9   46.70    5.30
   2  -7   9   55.49    6.20
  -2   7  -9   53.19    6.50
  -2   7  -9   56.29    6.30
  -2   7  -9   54.99    6.20
   2   7   9   58.49    6.40
   3  -7   9   32.90    5.60
  -3   7  -9   33.70    5.10
  12   0 -10   -3.90    1.80
  12   0 -10   -0.40    2.50
 -12   0  10   -1.60    1.50
 -12   0  10   -1.40    2.10
 -11   0  10   51.09    5.60
 -11   0  10   46.40    4.90
  11   0 -10   57.29    5.70
  11   0 -10   47.60    5.80
  10   0 -10  181.48    9.00
 -10   0  10  188.08    8.90
  10   0 -10  195.78    9.80
 -10   0  10  202.08    6.50
   9   0 -10   89.29    5.90
  -9   0  10   93.99    4.10
  -9   0  10   93.49    5.60
   9   0 -10   90.99    4.60
   9   0 -10   91.29    5.80
   8   0 -10   49.80    3.30
  -8   0  10   49.80    4.40
  -8   0  10   48.00    2.70
  -8   0  10   47.60    3.00
   8   0 -10   46.60    4.60
   8   0 -10   48.50    4.80
   7   0 -10   99.89    4.70
  -7   0  10  101.39    4.70
   7   0 -10  103.59    5.90
   7   0 -10  109.69    4.70
  -7   0  10  104.09    4.10
   7   0 -10  110.39    5.90
  -7   0  10  102.29    3.90
  -7   0  10  105.59    4.80
  -7   0  10   99.69    5.50
  -6   0  10  345.77   10.30
   6   0 -10  358.26   11.30
  -6   0  10  346.17    9.80
   6   0 -10  361.56   10.40
  -6   0  10  369.26   12.20
  -6   0  10  334.47   11.20
   6   0 -10  343.67   12.30
   6   0 -10  339.37   12.20
   6   0 -10  356.96   11.20
   5   0 -10  130.89    4.80
  -5   0  10  142.89    6.10
  -5   0  10  130.19    5.70
  -5   0  10  131.59    5.70
   5   0 -10  139.69    6.30
  -5   0  10  133.89    4.90
  -5   0  10  136.49    4.10
   5   0 -10  142.59    5.80
  -5   0  10  136.89    4.90
   5   0 -10  139.69    5.60
  -4   0  10  303.97   10.30
  -4   0  10  328.47   10.50
  -4   0  10  309.27    9.40
  -4   0  10  316.17    9.60
  -4   0  10  311.77    8.40
   4   0 -10  306.77   10.60
   4   0 -10  315.27    9.40
   4   0 -10  305.17   10.30
  -4   0  10  299.57   10.30
   3   0 -10   25.10    1.90
   3   0 -10   26.30    2.60
  -3   0  10   26.80    2.40
   3   0 -10   24.10    1.30
  -3   0  10   25.80    2.50
  -3   0  10   24.80    2.70
  -3   0  10   23.20    1.20
  -3   0  10   24.90    1.90
   3   0 -10   19.10    2.30
  -3   0  10   26.20    2.70
  -2   0  10  275.37    9.40
   2   0 -10  266.07    8.60
   2   0 -10  269.87    9.40
  -2   0  10  259.57    8.50
  -2   0  10  265.17    8.70
   2   0 -10  259.07    8.80
   2   0 -10  258.07    7.70
  -2   0  10  267.67    8.80
   1   0 -10  228.28    8.50
   1   0 -10  240.38    7.80
  -1   0  10  217.28    8.40
  -1   0  10  235.48    8.20
   1   0 -10  238.98    8.00
   1   0 -10  225.88    7.20
  -1   0  10  224.18    7.50
   0   0  10   37.40    3.30
   0   0 -10   34.00    2.20
   0   0  10   29.80    2.00
   0   0 -10   34.00    2.30
   0   0  10   36.50    3.30
   0   0 -10   34.90    3.20
  -1   0 -10    6.20    1.10
   1   0  10    5.10    1.60
   1   0  10    6.10    0.90
  -1   0 -10    5.00    1.60
  -1   0 -10    7.90    1.50
  -1   0 -10    4.00    1.30
   1   0  10    4.70    1.60
  -2   0 -10 2549.84   68.29
   2   0  10 2660.33   68.89
   2   0  10 2595.74   68.99
  -2   0 -10 2628.04   68.09
  -2   0 -10 2596.24   68.89
   2   0  10 2573.04   66.29
  -3   0 -10 1059.79   29.40
   3   0  10 1086.89   30.20
   3   0  10 1043.50   30.30
  -3   0 -10 1046.50   30.20
  -3   0 -10 1059.59   30.00
  -4   0 -10  528.45   16.70
  -4   0 -10  512.95   16.50
  -4   0 -10  496.25   15.70
   4   0  10  518.15   16.40
   4   0  10  508.75   16.80
   5   0  10  466.25   15.10
   5   0  10  454.35   15.90
  -5   0 -10  470.45   14.90
   5   0  10  476.75   15.40
  -5   0 -10  478.85   16.00
  -5   0 -10  464.55   15.50
  -6   0 -10    4.00    1.60
  -6   0 -10    3.60    2.10
   6   0  10    0.00    1.70
   6   0  10    2.70    1.70
  -6   0 -10    2.10    1.60
   7   0  10   12.70    3.00
  -7   0 -10    9.70    2.20
  -7   0 -10   13.90    2.60
  -7   0 -10    7.20    2.60
   7   0  10   11.70    2.60
  -8   0 -10   73.09    5.00
   8   0  10   56.59    5.90
  -8   0 -10   63.49    6.30
   8   0  10   69.39    5.10
   9   0  10   22.10    3.70
  -9   0 -10   15.90    3.90
  -9   0 -10   21.80    3.20
   9   0  10   18.60    3.80
  12  -1 -10    2.60    2.60
 -12  -1  10   -2.20    2.20
  12  -1 -10    2.50    2.70
 -12  -1  10    0.70    1.80
 -12   1  10    0.60    2.30
 -12   1  10   -1.80    2.30
  12   1 -10    1.40    2.10
  12   1 -10   -0.40    2.40
  11  -1 -10   66.09    6.20
  11  -1 -10   64.89    6.50
 -11  -1  10   72.59    6.40
  11   1 -10   79.29    6.20
  11   1 -10   63.79    6.20
 -11   1  10   74.89    6.80
 -11   1  10   77.89    5.90
  10  -1 -10    6.50    2.60
  10  -1 -10    5.00    2.50
 -10  -1  10    7.10    2.60
  10   1 -10   13.10    3.00
 -10   1  10   12.80    1.80
  10   1 -10    9.50    3.00
  10   1 -10    9.80    2.50
 -10   1  10    6.60    2.60
 -10   1  10    7.20    2.60
   9  -1 -10    9.50    2.60
  -9  -1  10    8.40    1.90
   9  -1 -10   12.50    2.70
  -9  -1  10    8.40    2.50
  -9  -1  10   10.60    1.50
   9   1 -10   10.90    2.30
  -9   1  10    9.10    2.50
   9   1 -10   14.40    3.30
  -9   1  10   11.90    1.90
   9   1 -10   13.20    2.90
  -9   1  10    9.80    2.80
  -8  -1  10    4.60    1.80
  -8  -1  10    3.30    1.00
  -8  -1  10    2.90    1.40
   8  -1 -10    2.50    2.00
   8  -1 -10    2.50    1.80
  -8  -1  10    4.50    1.20
  -8   1  10    2.50    1.30
   8   1 -10    1.50    1.50
  -8   1  10    4.10    1.90
   8   1 -10    2.60    2.00
   8   1 -10    2.30    2.10
   7  -1 -10   23.50    2.50
  -7  -1  10   18.60    2.20
   7  -1 -10   22.10    3.00
  -7  -1  10   21.00    1.20
  -7  -1  10   23.10    3.00
   7  -1 -10   22.30    1.90
  -7  -1  10   24.30    3.30
  -7  -1  10   21.40    2.30
  -7  -1  10   22.70    1.80
   7  -1 -10   21.10    3.10
   7   1 -10   20.00    3.00
   7   1 -10   21.50    2.70
  -7   1  10   21.20    2.50
   7   1 -10   24.80    2.40
  -7   1  10   17.30    2.60
  -7   1  10   22.90    2.20
  -7   1  10   24.80    3.20
   7   1 -10   25.10    3.30
   6  -1 -10  369.96   12.00
   6  -1 -10  371.96   11.00
  -6  -1  10  363.06   12.60
  -6  -1  10  357.36   11.50
  -6  -1  10  364.76   11.70
  -6  -1  10  365.16   11.70
   6  -1 -10  370.86   12.60
   6  -1 -10  358.96   12.70
   6   1 -10  392.66   13.00
   6   1 -10  367.66   11.70
  -6   1  10  362.06   12.00
  -6   1  10  374.66   11.10
   6   1 -10  364.96   12.20
  -6   1  10  366.26   12.50
  -6   1  10  364.56   12.00
   5  -1 -10    2.40    1.50
  -5  -1  10    1.20    1.10
  -5  -1  10    1.50    1.20
  -5  -1  10    1.00    1.00
   5  -1 -10    1.00    0.40
   5  -1 -10   -0.50    1.00
   5  -1 -10    0.20    1.10
   5  -1 -10    0.30    0.80
  -5  -1  10   -1.40    1.10
  -5   1  10   -0.30    0.90
   5   1 -10    1.10    0.90
   5   1 -10   11.80    2.30
  -5   1  10    2.20    1.30
  -5   1  10    1.70    1.40
  -5   1  10    1.30    0.80
   5   1 -10    2.00    1.30
   5   1 -10   -0.20    1.00
  -4  -1  10   75.79    3.30
  -4  -1  10   78.49    4.20
  -4  -1  10   74.19    3.70
   4  -1 -10   75.69    4.20
   4  -1 -10   78.19    2.90
   4  -1 -10   74.89    4.30
   4  -1 -10   73.49    4.00
  -4  -1  10   76.79    4.20
   4  -1 -10   74.99    3.20
  -4  -1  10   79.69    4.10
  -4   1  10   72.89    4.00
  -4   1  10   79.19    3.30
  -4   1  10   81.99    4.30
  -4   1  10   75.19    4.20
   4   1 -10   72.19    3.70
   4   1 -10   74.89    4.10
   4   1 -10   79.29    4.40
  -3  -1  10   89.19    3.90
   3  -1 -10   88.69    4.60
  -3  -1  10   89.89    4.50
  -3  -1  10   89.69    4.30
   3  -1 -10   88.79    3.60
   3  -1 -10   86.89    4.40
  -3  -1  10   89.79    4.20
  -3  -1  10   75.59    4.30
   3  -1 -10   88.19    3.40
  -3   1  10   93.89    4.70
   3   1 -10   93.79    4.50
  -3   1  10   92.49    4.30
   3   1 -10   81.89    4.40
  -3   1  10   88.59    4.40
  -3   1  10   92.09    4.70
   3   1 -10  103.99    5.40
  -3   1  10   89.59    3.60
  -2  -1  10   78.69    3.70
   2  -1 -10   72.09    3.80
   2  -1 -10   76.49    3.40
  -2  -1  10   74.19    3.80
  -2  -1  10   73.49    4.10
   2  -1 -10   72.89    3.30
   2  -1 -10   79.79    4.40
  -2  -1  10   74.99    3.70
   2   1 -10   76.99    4.20
  -2   1  10   78.09    3.40
   2   1 -10   75.49    2.50
  -2   1  10   72.49    3.70
   2   1 -10   64.49    3.60
  -2   1  10   76.19    4.00
  -2   1  10   77.69    4.30
  -1  -1  10   87.19    4.60
  -1  -1  10   80.89    3.70
   1  -1 -10   84.49    4.00
   1  -1 -10   90.19    3.90
   1  -1 -10   90.69    4.60
  -1  -1  10   86.39    4.30
   1  -1 -10   81.69    3.80
   1  -1 -10   86.89    3.80
  -1  -1  10   81.29    4.10
  -1   1  10   83.49    4.10
   1   1 -10   90.19    4.70
  -1   1  10   88.29    3.80
   1   1 -10   83.29    3.30
  -1   1  10   85.49    3.90
  -1   1  10   78.79    4.20
  -1   1  10   89.29    4.70
   1   1 -10   93.09    4.00
   0  -1 -10  371.46   12.50
   0  -1  10  357.56   10.90
   0  -1  10  378.26   12.10
   0  -1 -10  372.56   11.60
   0  -1  10  380.16   12.20
   0  -1  10  382.66   12.50
   0  -1 -10  382.46   11.20
   0  -1 -10  381.36   11.30
   0   1  10  385.26   11.60
   0   1  10  366.16   12.40
   0   1 -10  365.96   11.10
   0   1 -10  370.76   11.20
   0   1 -10  379.46   12.50
   0   1  10  369.46   12.20
   0   1  10  386.26   12.40
   0   1 -10  371.56   12.20
   0   1  10  365.16   11.10
  -1  -1 -10   66.69    4.10
   1  -1  10   55.89    3.70
   1  -1  10   66.39    3.90
   1  -1  10   63.49    2.70
  -1  -1 -10   66.29    2.90
  -1  -1 -10   65.59    3.00
  -1  -1 -10   61.39    3.60
   1   1  10   66.79    4.10
  -1   1 -10   67.79    4.10
   1   1  10   65.39    3.30
  -1   1 -10   65.79    2.90
  -1   1 -10   67.99    3.90
   1   1  10   61.99    4.00
  -1   1 -10   63.19    3.30
   1   1  10   61.09    2.80
   2  -1  10   21.30    2.70
   2  -1  10   21.30    1.20
   2  -1  10   20.70    1.20
   2  -1  10   20.70    2.80
  -2  -1 -10   22.80    2.80
  -2  -1 -10   20.30    2.50
  -2  -1 -10   22.30    1.50
   2   1  10   25.80    3.00
  -2   1 -10   16.50    2.40
  -2   1 -10   19.40    2.60
   2   1  10   22.60    3.00
   2   1  10   20.80    1.50
  -2   1 -10   15.40    2.10
   2   1  10   20.00    2.00
   3  -1  10   44.50    3.50
  -3  -1 -10   40.30    2.70
   3  -1  10   35.20    3.60
  -3  -1 -10   39.20    3.70
  -3  -1 -10   40.10    3.70
   3   1  10   40.90    2.50
  -3   1 -10   41.00    3.80
   3   1  10   40.30    2.60
  -3   1 -10   45.50    3.50
  -3   1 -10   37.00    3.40
   3   1  10   42.30    3.80
   3   1  10   36.60    3.80
   4  -1  10    3.60    1.90
  -4  -1 -10    3.70    1.80
   4  -1  10   -0.60    1.50
  -4  -1 -10    2.00    1.20
  -4  -1 -10    4.50    1.90
   4   1  10    0.80    1.70
  -4   1 -10    4.00    1.80
  -4   1 -10    3.80    1.70
  -4   1 -10    1.00    1.50
   4   1  10    2.30    1.10
   4   1  10    1.60    1.10
   4   1  10    3.90    1.80
   5  -1  10    0.00    1.60
  -5  -1 -10    1.50    1.80
  -5  -1 -10    0.30    1.00
  -5  -1 -10    0.40    1.40
   5  -1  10    2.60    1.90
   5   1  10   -0.30    1.20
  -5   1 -10    0.10    1.50
   5   1  10   -0.10    1.20
  -5   1 -10    0.20    1.50
  -5   1 -10   -0.50    1.10
   5   1  10    2.40    1.50
   6  -1  10   17.90    3.00
   6  -1  10   16.90    3.00
  -6  -1 -10   14.10    2.10
  -6  -1 -10   26.30    3.70
  -6  -1 -10   23.70    3.10
   6  -1  10   16.80    3.20
  -6   1 -10   21.80    3.10
   6   1  10   22.70    2.80
   6   1  10   18.00    3.20
  -6   1 -10   16.30    2.90
  -6   1 -10   21.90    3.20
  -7  -1 -10   16.30    2.70
   7  -1  10   16.40    3.20
  -7  -1 -10   16.40    3.40
   7  -1  10   17.60    3.50
  -7   1 -10   15.20    2.90
  -7   1 -10   11.40    2.60
  -7   1 -10   17.50    3.40
   7   1  10   14.80    3.20
   7   1  10   15.60    2.70
  -8  -1 -10    0.60    1.80
  -8  -1 -10    0.90    1.60
   8  -1  10   -3.10    1.70
   8  -1  10   -0.50    1.90
  -8   1 -10    3.10    2.50
  -8   1 -10    0.80    1.90
  -8   1 -10    0.00    1.70
   8   1  10   -1.20    1.80
   8   1  10    0.00    1.50
   9  -1  10    9.90    3.00
   9  -1  10    6.10    2.80
  -9  -1 -10    5.30    2.20
  -9  -1 -10    7.00    3.80
  -9   1 -10   12.90    3.70
  -9   1 -10   12.30    2.80
   9   1  10   10.40    3.10
  12  -2 -10   95.69    7.70
  12  -2 -10   77.59    7.40
 -12  -2  10  121.29    7.80
 -12  -2  10  109.29    7.50
 -12   2  10   95.69    7.10
  12   2 -10   99.69    7.70
  12   2 -10  104.19    7.70
 -11  -2  10  135.69    8.00
  11  -2 -10  121.99    7.70
  11  -2 -10  119.09    8.10
  11   2 -10  146.09    8.20
 -11   2  10  116.99    5.50
 -11   2  10  148.29    8.70
  11   2 -10  121.59    7.10
 -11   2  10  126.19    7.70
 -10  -2  10    0.20    1.70
  10  -2 -10    2.60    2.30
  10  -2 -10    0.30    2.10
 -10  -2  10    3.00    2.30
  10   2 -10   -2.20    1.80
 -10   2  10    0.30    1.30
 -10   2  10    5.10    2.50
  10   2 -10   -0.50    1.50
 -10   2  10   -1.00    2.00
  -9  -2  10    0.40    0.90
  -9  -2  10   -0.90    1.70
   9  -2 -10    1.80    2.10
  -9  -2  10    0.50    1.60
   9  -2 -10   -1.90    1.70
  -9   2  10   -0.50    1.30
   9   2 -10   -1.70    1.70
  -9   2  10    0.90    2.10
  -9   2  10    1.90    1.60
   9   2 -10    1.90    1.80
  -8  -2  10  131.69    6.90
   8  -2 -10  130.69    6.80
  -8  -2  10  119.69    5.10
   8  -2 -10  128.19    6.90
  -8  -2  10  133.69    6.30
  -8   2  10  121.99    6.70
  -8   2  10  134.59    7.20
   8   2 -10  110.79    6.60
  -8   2  10  125.09    5.90
   8   2 -10  117.69    6.40
   7  -2 -10  458.55   14.70
   7  -2 -10  440.66   15.40
  -7  -2  10  435.76   15.20
  -7  -2  10  456.05   13.90
  -7  -2  10  442.86   14.50
   7  -2 -10  459.65   15.40
   7   2 -10  436.36   15.40
  -7   2  10  472.55   15.70
  -7   2  10  451.15   14.60
   7   2 -10  475.05   15.50
  -7   2  10  476.25   15.50
  -6  -2  10  134.49    5.80
  -6  -2  10  147.89    6.40
  -6  -2  10  137.09    5.80
   6  -2 -10  138.69    6.50
   6  -2 -10  126.09    6.10
   6  -2 -10  145.39    6.70
   6   2 -10  139.19    6.60
  -6   2  10  145.69    6.70
  -6   2  10  132.59    6.20
   6   2 -10  141.89    5.90
  -6   2  10  128.49    6.10
   6   2 -10  134.29    6.60
  -5  -2  10  476.65   14.60
   5  -2 -10  462.05   14.10
   5  -2 -10  479.25   15.00
   5  -2 -10  453.85   14.50
  -5  -2  10  465.55   14.60
  -5  -2  10  473.15   14.50
   5  -2 -10  452.65   15.10
  -5   2  10  470.95   15.00
   5   2 -10  465.25   14.40
  -5   2  10  468.65   15.00
  -5   2  10  447.56   14.80
   5   2 -10  455.05   15.20
   5   2 -10  481.45   15.40
   4  -2 -10   39.90    2.80
   4  -2 -10   35.50    3.50
   4  -2 -10   38.10    3.50
  -4  -2  10   40.10    3.20
  -4  -2  10   35.60    2.30
   4  -2 -10   35.60    2.60
  -4  -2  10   39.00    3.10
  -4  -2  10   38.50    3.40
   4   2 -10   33.10    3.50
  -4   2  10   35.20    3.40
   4   2 -10   38.50    3.30
  -4   2  10   37.60    3.30
   4   2 -10   30.10    3.10
   3  -2 -10   21.00    2.30
  -3  -2  10   25.10    2.30
   3  -2 -10   29.40    2.10
   3  -2 -10   28.20    1.60
  -3  -2  10   23.90    2.70
   3  -2 -10   32.40    3.20
   3  -2 -10   24.10    2.90
  -3  -2  10   28.40    2.90
  -3  -2  10   32.30    3.10
  -3   2  10   31.10    3.10
   3   2 -10   20.90    2.60
  -3   2  10   23.00    2.60
   3   2 -10   20.60    2.60
  -2  -2  10   12.30    2.10
  -2  -2  10    9.90    1.90
  -2  -2  10   10.00    1.70
   2  -2 -10   13.40    1.80
   2  -2 -10    9.10    2.00
   2  -2 -10   13.50    1.50
   2  -2 -10   11.60    1.90
   2   2 -10   10.40    1.80
   2   2 -10    8.80    1.90
   2   2 -10   11.40    1.00
  -2   2  10   10.00    2.10
  -2   2  10   10.90    1.70
  -1  -2  10  680.33   20.20
   1  -2 -10  680.53   20.50
  -1  -2  10  693.13   19.80
   1  -2 -10  692.43   19.70
  -1  -2  10  686.63   20.40
   1  -2 -10  690.33   19.70
   1   2 -10  690.43   18.40
  -1   2  10  677.03   20.20
  -1   2  10  670.83   19.40
  -1   2  10  656.23   20.40
   1   2 -10  663.53   19.50
   1   2 -10  664.13   20.40
   1   2 -10  663.23   20.30
   0  -2 -10  110.99    4.70
   0  -2 -10   97.39    5.30
   0  -2 -10   92.99    4.80
   0  -2  10  103.59    5.40
   0  -2  10  105.29    5.10
   0  -2  10  102.99    5.10
   0   2 -10  104.99    5.30
   0   2 -10  103.59    4.50
   0   2  10   96.69    4.30
   0   2  10  109.69    4.30
   0   2  10  102.89    5.40
   0   2  10   93.89    5.10
  -1  -2 -10   23.50    2.20
   1  -2  10   17.80    2.60
  -1  -2 -10   11.90    2.00
   1  -2  10   15.30    2.50
  -1  -2 -10   17.50    1.90
  -1  -2 -10   13.80    2.40
   1  -2  10   12.90    2.40
  -1   2 -10   19.90    2.00
  -1   2 -10   21.80    2.80
   1   2  10   17.40    0.80
   1   2  10   17.90    2.60
   1   2  10   17.80    1.90
   1   2  10   18.30    1.70
   1   2  10   15.70    2.50
  -2  -2 -10    8.70    1.40
  -2  -2 -10   10.00    2.10
  -2  -2 -10    9.10    2.10
   2  -2  10    6.60    1.90
   2  -2  10    5.20    1.70
  -2  -2 -10    9.60    1.50
   2  -2  10    9.10    1.10
   2   2  10    8.10    2.10
   2   2  10    9.20    1.40
  -2   2 -10    7.40    2.00
   2   2  10    7.60    1.90
   2   2  10    9.00    1.20
   2   2  10    9.70    1.10
   3  -2  10   24.90    3.30
  -3  -2 -10   22.30    3.10
   3  -2  10   27.10    1.40
  -3  -2 -10   17.40    2.80
   3  -2  10   25.60    3.40
   3  -2  10   22.50    1.30
  -3  -2 -10   24.20    2.00
   3   2  10   23.20    3.20
   3   2  10   24.10    1.80
   3   2  10   19.90    2.90
   3   2  10   25.00    1.80
  -3   2 -10   29.20    3.40
  -3   2 -10   27.60    3.30
   4  -2  10   58.49    4.60
  -4  -2 -10   68.19    4.80
  -4  -2 -10   62.79    4.50
   4  -2  10   57.69    4.40
   4   2  10   65.49    4.60
  -4   2 -10   59.79    4.50
   4   2  10   68.19    4.50
  -4   2 -10   56.69    4.40
   5  -2  10    1.30    2.00
  -5  -2 -10    2.70    1.60
  -5  -2 -10   -0.10    1.40
   5  -2  10    0.20    1.60
  -5   2 -10   -0.60    1.70
  -5   2 -10   -0.20    1.60
   5   2  10    0.10    1.50
   5   2  10   -1.50    1.10
   6  -2  10   30.20    4.10
  -6  -2 -10   22.90    3.20
   6  -2  10   28.20    4.20
  -6  -2 -10   30.70    4.20
   6   2  10   31.20    4.10
  -6   2 -10   30.60    3.90
  -6   2 -10   34.50    4.00
  -7  -2 -10  128.59    7.60
   7  -2  10  125.09    7.50
  -7  -2 -10  134.09    6.80
   7  -2  10  133.19    7.80
  -7   2 -10  127.09    7.00
   7   2  10  138.09    7.60
  -7   2 -10  122.89    7.20
  -8  -2 -10    0.00    1.70
   8  -2  10    1.70    2.30
   8  -2  10    2.20    2.50
  -8  -2 -10    0.50    2.40
  -8   2 -10    3.80    2.30
  -8   2 -10   -2.50    2.20
   8   2  10   -0.50    2.20
  -8   2 -10    1.30    2.30
  -9  -2 -10   19.30    3.10
   9  -2  10   17.40    4.10
   9  -2  10   18.10    3.90
  -9   2 -10   18.20    3.40
  -9   2 -10   33.10    4.70
   9   2  10   18.90    4.00
 -11  -3  10    9.80    3.30
  11  -3 -10    6.50    3.10
  11  -3 -10    2.20    2.40
 -11  -3  10    0.00    2.00
  11   3 -10    5.30    2.90
  11   3 -10    8.00    2.90
 -11   3  10    6.70    2.10
 -11   3  10    1.80    2.80
 -11   3  10    9.60    3.40
  10  -3 -10   14.30    3.40
  10  -3 -10   15.90    3.60
 -10  -3  10   18.60    3.50
 -10  -3  10   14.50    3.00
  10   3 -10   16.80    3.30
 -10   3  10   21.20    3.10
 -10   3  10   23.80    4.00
  10   3 -10   18.50    3.60
 -10   3  10   16.00    3.50
  -9  -3  10  209.78    9.90
  -9  -3  10  221.38    7.80
   9  -3 -10  230.58   10.40
   9  -3 -10  229.18   10.50
  -9  -3  10  228.98    9.80
  -9   3  10  235.68    9.30
   9   3 -10  217.38   10.30
   9   3 -10  232.98   10.50
  -9   3  10  233.08   10.30
  -9   3  10  249.58   11.00
  -8  -3  10   23.30    2.50
  -8  -3  10   21.70    3.40
   8  -3 -10   25.80    3.80
   8  -3 -10   21.60    3.40
  -8   3  10   22.80    3.70
  -8   3  10   23.10    3.60
   8   3 -10   22.20    3.40
  -8   3  10   16.80    2.90
   8   3 -10   20.90    3.50
  -7  -3  10    9.20    1.90
  -7  -3  10    4.10    2.10
   7  -3 -10    6.40    2.50
   7  -3 -10    6.50    2.10
   7  -3 -10    9.10    2.30
   7   3 -10    7.40    2.20
  -7   3  10    7.00    2.10
  -7   3  10    8.20    2.20
   7   3 -10    8.10    2.40
  -7   3  10    4.70    2.20
   6  -3 -10  886.11   26.10
  -6  -3  10  877.21   26.10
  -6  -3  10  854.11   25.20
   6  -3 -10  853.31   26.50
   6  -3 -10  881.91   25.80
   6   3 -10  895.51   26.60
  -6   3  10  887.21   26.10
   6   3 -10  881.71   25.20
   6   3 -10  873.21   26.70
  -6   3  10  884.81   26.40
  -6   3  10  902.81   26.40
   5  -3 -10   -0.40    1.40
   5  -3 -10    0.40    1.20
   5  -3 -10   -0.20    1.20
  -5  -3  10    0.60    1.50
  -5  -3  10    1.20    1.40
  -5  -3  10   -1.80    1.40
   5  -3 -10    1.00    1.30
   5   3 -10   -1.70    1.60
  -5   3  10    1.00    1.60
  -5   3  10   -0.80    1.30
   5   3 -10   -1.20    1.40
  -5   3  10    1.30    1.30
  -4  -3  10   48.50    4.30
  -4  -3  10   49.40    3.80
   4  -3 -10   47.80    4.30
  -4  -3  10   49.10    2.80
  -4  -3  10   49.60    3.70
   4  -3 -10   46.90    3.40
   4  -3 -10   52.19    4.00
   4  -3 -10   48.80    3.00
  -4   3  10   43.60    3.50
   4   3 -10   44.80    4.40
   4   3 -10   44.60    3.50
  -4   3  10   47.60    4.20
  -4   3  10   45.70    4.00
   4   3 -10   49.80    3.80
   3  -3 -10   32.20    1.80
   3  -3 -10   31.00    1.80
   3  -3 -10   34.50    2.30
  -3  -3  10   35.50    3.60
  -3  -3  10   39.30    3.60
   3  -3 -10   35.30    3.30
   3  -3 -10   33.40    3.50
  -3  -3  10   36.40    2.60
   3  -3 -10   38.20    3.80
  -3   3  10   31.80    3.00
   3   3 -10   37.70    3.60
   3   3 -10   34.20    1.70
  -3   3  10   37.40    3.70
   3   3 -10   37.20    3.60
  -3   3  10   33.90    3.40
   3   3 -10   31.30    3.70
   2  -3 -10  172.68    7.80
  -2  -3  10  178.88    7.70
   2  -3 -10  177.18    7.20
   2  -3 -10  178.18    7.40
  -2  -3  10  176.88    7.60
   2  -3 -10  184.98    6.20
  -2  -3  10  180.28    7.00
   2   3 -10  181.48    5.80
  -2   3  10  180.68    7.30
  -2   3  10  185.78    6.90
   2   3 -10  182.78    7.70
   2   3 -10  175.88    7.30
  -2   3  10  187.08    8.00
  -1  -3  10  549.65   17.20
   1  -3 -10  517.65   16.50
   1  -3 -10  547.65   16.80
  -1  -3  10  537.45   16.60
   1  -3 -10  547.95   17.40
  -1  -3  10  546.55   17.30
   1   3 -10  537.85   17.30
  -1   3  10  520.65   16.30
   1   3 -10  534.35   16.50
   1   3 -10  559.54   17.40
   1   3 -10  533.75   15.30
  -1   3  10  539.65   17.30
   0  -3  10    6.60    1.80
   0  -3 -10    3.80    1.40
   0  -3  10    5.90    1.80
   0  -3 -10    4.60    1.70
   0  -3 -10    3.70    1.90
   0  -3  10    3.50    1.90
   0   3 -10    9.40    2.30
   0   3  10    4.20    1.90
   0   3  10    3.40    1.30
   0   3 -10    4.80    1.90
   0   3 -10    7.20    1.50
   0   3  10    6.70    1.20
   1  -3  10  469.85   15.30
  -1  -3 -10  457.25   13.90
   1  -3  10  472.95   15.30
  -1  -3 -10  447.26   14.80
  -1  -3 -10  446.56   15.10
   1  -3  10  446.36   14.80
  -1   3 -10  451.95   15.10
   1   3  10  408.76   13.50
   1   3  10  438.16   12.30
   1   3  10  434.26   15.00
   1   3  10  439.86   15.00
  -1   3 -10  438.76   15.10
   2  -3  10   10.50    2.40
  -2  -3 -10    3.00    1.90
  -2  -3 -10    7.90    2.20
   2  -3  10    3.10    2.00
   2  -3  10    7.90    1.40
   2  -3  10    9.90    2.40
  -2  -3 -10    5.60    1.50
   2   3  10    8.60    1.50
  -2   3 -10    6.70    2.20
   2   3  10    9.10    2.40
  -2   3 -10    9.90    2.50
   2   3  10    4.70    2.00
   2   3  10    5.90    0.60
  -3  -3 -10   26.60    3.50
   3  -3  10   26.00    3.50
   3  -3  10   24.80    3.60
  -3  -3 -10   25.70    3.40
   3   3  10   20.60    3.30
   3   3  10   21.80    2.30
  -3   3 -10   22.70    3.40
  -3   3 -10   23.50    3.40
   3   3  10   24.40    3.30
  -4  -3 -10   11.20    2.60
  -4  -3 -10   11.80    2.80
   4  -3  10   17.20    3.20
   4  -3  10   14.50    2.80
  -4   3 -10   12.40    2.60
  -4   3 -10   18.30    3.20
   4   3  10   13.40    2.70
   4   3  10   16.50    3.10
  -5  -3 -10    4.50    1.90
   5  -3  10    5.70    2.50
  -5  -3 -10    0.40    1.60
   5  -3  10    3.50    2.10
  -5   3 -10    1.30    1.60
   5   3  10    1.00    1.90
   6  -3  10   90.19    6.30
  -6  -3 -10   84.89    6.30
  -6  -3 -10   76.69    5.30
  -6   3 -10   89.19    6.20
   6   3  10   68.79    5.50
   7  -3  10   66.19    6.60
  -7  -3 -10   67.49    5.00
  -7  -3 -10   73.69    6.70
   7  -3  10   68.29    6.50
  -7   3 -10   74.29    6.60
   7   3  10   62.59    5.90
  -7   3 -10   63.89    5.80
   8  -3  10   -2.00    2.00
  -8  -3 -10    0.10    1.70
   8  -3  10    2.80    2.70
  -8  -3 -10    0.60    2.50
  -8   3 -10    2.50    2.30
  -8   3 -10   -1.00    2.20
   8   3  10   -2.10    2.20
  10  -4 -10    1.20    2.40
  10  -4 -10    3.30    2.80
 -10  -4  10    1.50    2.30
 -10   4  10    0.40    2.00
  10   4 -10    2.10    2.60
 -10   4  10    2.00    2.10
 -10   4  10    0.90    2.60
  10   4 -10    0.00    2.30
  -9  -4  10   28.80    4.20
   9  -4 -10   25.30    4.10
   9  -4 -10   11.90    3.10
  -9  -4  10   19.20    2.40
  -9   4  10   23.90    4.20
  -9   4  10   16.40    3.10
  -9   4  10   21.10    3.70
   9   4 -10   21.70    4.10
   9   4 -10   17.90    3.80
   8  -4 -10   15.80    3.00
   8  -4 -10   10.90    3.10
  -8  -4  10   12.40    3.00
  -8  -4  10   10.30    2.10
   8   4 -10    7.70    2.90
  -8   4  10    9.80    2.70
  -8   4  10   12.50    3.00
  -8   4  10   13.80    3.20
   8   4 -10   10.90    3.20
  -7  -4  10  104.29    6.40
  -7  -4  10  102.39    5.40
   7  -4 -10   91.49    5.60
   7  -4 -10   90.89    6.00
   7  -4 -10  100.99    6.20
  -7   4  10  100.29    6.10
  -7   4  10  103.89    6.50
  -7   4  10   93.39    6.20
   7   4 -10   99.19    6.40
   7   4 -10   90.79    6.40
  -6  -4  10   10.80    2.50
   6  -4 -10    7.00    2.20
   6  -4 -10    8.30    2.50
  -6  -4  10   11.90    2.40
   6  -4 -10   10.70    2.80
  -6   4  10   15.20    3.00
   6   4 -10    7.10    2.70
  -6   4  10    9.70    2.60
   6   4 -10   11.40    2.90
  -6   4  10    8.70    2.50
  -5  -4  10   86.79    5.70
  -5  -4  10   82.99    5.00
   5  -4 -10   75.59    5.40
   5  -4 -10   79.79    4.50
   5  -4 -10   73.69    4.90
   5  -4 -10   80.89    5.30
  -5   4  10   87.39    5.30
   5   4 -10   78.49    4.90
   5   4 -10   79.09    5.40
  -5   4  10   79.39    5.40
   5   4 -10   75.19    5.60
  -5   4  10   80.79    5.10
  -4  -4  10   81.69    5.10
   4  -4 -10   82.19    5.30
   4  -4 -10   74.99    5.30
  -4  -4  10   78.79    5.10
   4  -4 -10   81.69    5.00
   4  -4 -10   84.89    4.20
   4   4 -10   79.49    5.00
   4   4 -10   88.09    5.20
   4   4 -10   87.39    5.80
  -4   4  10   84.99    5.30
  -4   4  10   77.39    5.30
  -4   4  10   81.09    4.90
  -3  -4  10    1.60    1.90
   3  -4 -10    0.10    0.80
   3  -4 -10    1.30    1.80
   3  -4 -10    0.20    1.10
  -3  -4  10    0.30    1.60
   3  -4 -10    1.30    1.40
   3  -4 -10   -0.80    1.50
  -3  -4  10    1.50    1.40
   3   4 -10   -2.20    1.70
  -3   4  10    2.60    1.90
   3   4 -10   -0.10    1.50
   3   4 -10   -1.80    0.90
  -3   4  10   -0.80    1.20
  -3   4  10    0.80    1.40
   2  -4 -10   79.79    4.90
   2  -4 -10   71.99    4.80
   2  -4 -10   78.59    5.30
  -2  -4  10   67.59    4.90
  -2  -4  10   66.39    4.70
  -2  -4  10   71.09    4.30
   2  -4 -10   69.99    3.60
   2   4 -10   80.79    5.20
   2   4 -10   75.19    5.40
   2   4 -10   58.99    4.50
  -2   4  10   72.69    4.90
  -2   4  10   74.89    4.00
   2   4 -10   73.79    4.70
  -2   4  10   70.29    4.60
   1  -4 -10   13.60    2.80
   1  -4 -10   13.90    2.70
  -1  -4  10   11.20    2.60
   1  -4 -10   10.30    1.80
   1  -4 -10   11.90    2.40
  -1  -4  10    9.80    2.20
  -1  -4  10   11.10    2.60
   1   4 -10   16.10    2.90
   1   4 -10   10.30    2.80
  -1   4  10   11.90    2.30
  -1   4  10   10.20    1.60
  -1   4  10   14.90    2.90
   1   4 -10   17.90    3.00
   0  -4  10   63.19    4.60
   0  -4  10   75.19    5.20
   0  -4 -10   58.99    4.60
   0  -4 -10   73.19    5.10
   0  -4 -10   69.79    4.20
   0  -4  10   70.29    4.60
   0   4  10   69.59    3.00
   0   4 -10   65.49    4.90
   0   4  10   64.49    4.20
   0   4  10   67.39    4.90
   0   4 -10   66.39    4.80
   1  -4  10   52.99    5.00
   1  -4  10   47.90    4.70
  -1  -4 -10   47.50    4.50
  -1  -4 -10   43.40    4.00
   1  -4  10   37.90    4.10
  -1  -4 -10   47.80    4.70
   1   4  10   46.10    3.90
  -1   4 -10   46.80    4.70
   1   4  10   45.60    4.50
  -1   4 -10   47.10    4.70
  -2  -4 -10   16.70    3.10
  -2  -4 -10   15.50    2.70
   2  -4  10   14.70    3.00
   2  -4  10   17.00    3.30
  -2  -4 -10   21.20    3.20
   2  -4  10   20.00    3.30
  -2   4 -10   18.90    3.30
   2   4  10   21.20    3.30
  -2   4 -10   20.70    3.50
   2   4  10   17.40    2.50
   2   4  10   19.50    3.10
   3  -4  10   12.00    2.90
   3  -4  10   16.10    3.10
  -3  -4 -10   14.70    2.90
   3  -4  10   13.20    2.60
  -3  -4 -10   11.30    2.60
  -3  -4 -10   12.90    2.70
   3   4  10   11.10    2.60
  -3   4 -10   13.30    3.00
   3   4  10   11.90    2.10
   3   4  10   15.40    3.10
  -3   4 -10   12.50    2.90
  -4  -4 -10   27.10    3.70
  -4  -4 -10   20.00    3.60
   4  -4  10   34.80    4.40
  -4  -4 -10   26.10    3.80
   4  -4  10   26.50    3.90
   4   4  10   22.40    3.40
  -4   4 -10   27.10    3.90
   4   4  10   20.40    3.60
  -4   4 -10   17.10    3.20
   5  -4  10   21.00    3.70
  -5  -4 -10   14.90    3.30
  -5  -4 -10   13.50    3.10
  -5  -4 -10   11.90    2.90
   5  -4  10    9.30    3.00
   5   4  10   10.70    3.00
  -5   4 -10   14.30    3.40
  -5   4 -10   13.60    3.10
  -6  -4 -10   30.00    4.30
   6  -4  10   16.70    3.70
  -6  -4 -10   27.80    3.90
  -6  -4 -10   21.80    4.20
  -6   4 -10   29.30    4.20
   6   4  10   23.00    3.90
  -6   4 -10   18.90    3.60
  -7  -4 -10    6.50    3.10
   7  -4  10    0.80    2.60
  -7  -4 -10   -0.10    1.90
  -7  -4 -10   -2.10    2.30
  -7   4 -10    1.70    2.60
   7   4  10   -0.30    2.10
  -9  -5  10    1.00    2.60
   9  -5 -10   -1.20    2.40
   9  -5 -10    5.00    2.60
  -9  -5  10   -0.60    1.50
  -9   5  10    0.90    2.50
   9   5 -10   -0.40    2.40
  -9   5  10   -0.90    2.30
   9   5 -10    1.90    2.60
  -9   5  10    0.10    2.30
  -8  -5  10   23.10    3.20
   8  -5 -10   21.90    3.70
   8  -5 -10   14.50    3.70
  -8  -5  10   28.50    4.50
  -8   5  10   22.20    4.10
   8   5 -10   25.90    4.40
  -8   5  10   23.40    4.10
   8   5 -10   24.20    4.50
  -8   5  10   19.90    3.80
   7  -5 -10    0.40    1.90
  -7  -5  10    2.40    2.40
  -7  -5  10    1.90    1.70
   7  -5 -10    0.80    1.70
  -7   5  10    1.00    1.60
  -7   5  10    0.70    2.00
  -7   5  10   -0.40    1.90
   7   5 -10    0.50    2.20
   7   5 -10    2.10    2.60
   6  -5 -10   17.80    2.90
   6  -5 -10   25.50    4.00
  -6  -5  10   29.20    4.30
   6  -5 -10   25.50    4.10
  -6  -5  10   16.50    2.90
   6   5 -10   16.90    3.80
  -6   5  10   23.80    3.80
  -6   5  10   22.50    3.70
  -6   5  10   15.70    3.10
   6   5 -10   17.50    3.30
  -5  -5  10   13.80    2.90
   5  -5 -10   15.00    3.00
  -5  -5  10   10.00    3.00
   5  -5 -10   16.10    3.30
   5  -5 -10   11.80    3.10
  -5   5  10   14.00    3.30
   5   5 -10   13.70    3.00
  -5   5  10   14.90    2.80
  -5   5  10   12.80    3.00
   5   5 -10   13.10    3.10
   4  -5 -10    9.30    2.90
   4  -5 -10   15.50    3.10
  -4  -5  10   15.60    3.10
   4  -5 -10    8.40    2.60
  -4  -5  10   14.30    3.30
  -4   5  10   12.70    2.80
   4   5 -10   10.00    2.50
   4   5 -10    6.50    2.70
  -4   5  10   15.30    3.20
  -4   5  10   12.80    2.50
   3  -5 -10  223.68    9.90
  -3  -5  10  215.28   10.20
   3  -5 -10  249.18   10.70
  -3  -5  10  231.88   10.00
   3  -5 -10  240.88   10.10
   3   5 -10  215.58    9.70
   3   5 -10  232.28   10.70
  -3   5  10  221.68    8.70
  -3   5  10  238.98   10.50
  -3   5  10  226.98    9.80
  -2  -5  10   30.90    4.00
   2  -5 -10   30.80    2.80
   2  -5 -10   28.10    3.80
   2  -5 -10   29.60    4.10
  -2  -5  10   30.10    4.10
   2  -5 -10   26.90    3.80
   2   5 -10   32.10    4.10
  -2   5  10   28.10    3.60
   2   5 -10   27.10    4.10
   2   5 -10   29.40    3.90
  -2   5  10   25.80    2.70
  -2   5  10   34.70    4.40
  -1  -5  10   45.70    4.40
   1  -5 -10   45.80    3.40
   1  -5 -10   44.90    5.00
   1  -5 -10   41.90    4.60
  -1  -5  10   45.70    4.90
  -1  -5  10   50.59    5.10
   1   5 -10   45.50    4.90
  -1   5  10   45.10    4.40
   1   5 -10   43.90    5.10
   1   5 -10   41.60    4.70
  -1   5  10   46.60    4.90
   0  -5 -10    7.90    2.10
   0  -5  10    6.30    2.20
   0  -5 -10    6.90    2.50
   0  -5  10    4.30    2.50
   0  -5  10    6.20    2.30
   0  -5 -10    2.90    2.30
   0   5 -10    8.00    2.80
   0   5  10    8.40    2.40
   0   5 -10    5.60    2.50
   0   5 -10    4.10    2.00
   0   5  10    7.50    2.10
  -1  -5 -10   17.20    2.80
   1  -5  10   15.40    3.00
   1  -5  10   11.70    2.70
   1  -5  10   19.00    3.60
  -1  -5 -10   18.30    3.40
  -1  -5 -10   20.10    3.50
   1   5  10   16.60    3.30
   1   5  10   11.70    2.50
  -1   5 -10   14.80    3.30
  -1   5 -10   11.90    2.90
  -1   5 -10    9.60    2.60
  -2  -5 -10   32.60    3.90
   2  -5  10   34.30    4.40
  -2  -5 -10   39.20    4.80
   2  -5  10   36.80    4.70
   2  -5  10   34.70    4.40
  -2  -5 -10   39.10    4.60
  -2   5 -10   31.50    4.20
   2   5  10   38.60    4.50
  -2   5 -10   32.10    4.30
   2   5  10   34.50    3.80
  -3  -5 -10   34.00    4.30
  -3  -5 -10   38.90    4.70
  -3  -5 -10   37.30    4.80
   3  -5  10   37.30    4.80
   3  -5  10   35.30    4.60
   3  -5  10   39.10    4.60
   3   5  10   35.70    4.40
   3   5  10   33.00    4.30
  -3   5 -10   37.10    4.70
  -3   5 -10   39.50    5.00
   4  -5  10   35.80    4.80
   4  -5  10   26.20    4.40
  -4  -5 -10   27.30    4.10
  -4  -5 -10   31.10    4.30
   4  -5  10   15.90    3.60
  -4  -5 -10   26.00    4.50
  -4   5 -10   25.80    4.40
  -4   5 -10   25.80    4.20
   4   5  10   22.30    4.00
  -5  -5 -10   -1.20    1.70
  -5  -5 -10   -1.10    2.20
   5  -5  10   -0.30    2.20
  -5  -5 -10   -0.40    2.10
   5  -5  10    3.20    2.50
  -5   5 -10   -1.10    2.20
   5   5  10   -0.20    2.10
  -5   5 -10    0.10    2.50
   6  -5  10   10.60    3.50
  -6  -5 -10    6.60    3.00
   6   5  10    7.80    3.00
  -6   5 -10   10.80    4.10
  -8  -6  10   27.60    3.80
   8  -6 -10   15.80    4.00
   7  -6 -10   22.50    4.50
  -7  -6  10   26.50    3.90
  -7  -6  10   26.00    4.80
  -7   6  10   17.30    3.60
  -7   6  10   20.80    4.10
  -7   6  10   22.10    4.80
   7   6 -10   31.20    5.30
  -6  -6  10    3.60    2.40
   6  -6 -10   -3.60    2.00
   6  -6 -10    1.30    2.30
  -6  -6  10    3.20    2.90
   6   6 -10   -1.80    2.40
  -6   6  10   -0.20    2.40
  -6   6  10    0.30    1.90
  -6   6  10    0.40    2.40
   5  -6 -10   -1.40    2.10
  -5  -6  10    0.20    2.40
  -5  -6  10    0.70    1.90
   5  -6 -10    1.30    2.50
   5  -6 -10    0.70    2.20
  -5   6  10    1.40    1.80
   5   6 -10    1.40    2.50
  -5   6  10    1.70    2.30
  -5   6  10    0.10    2.10
   4  -6 -10   43.30    5.10
  -4  -6  10   38.40    4.80
  -4  -6  10   47.10    5.70
   4  -6 -10   46.40    5.50
   4  -6 -10   45.00    5.30
  -4   6  10   44.30    5.40
   4   6 -10   38.30    5.10
  -4   6  10   44.70    4.30
  -4   6  10   44.90    5.10
   3  -6 -10    2.20    2.40
  -3  -6  10    4.90    2.60
   3  -6 -10    3.70    2.40
  -3  -6  10   10.30    3.20
   3  -6 -10    5.90    2.70
   3   6 -10    4.20    2.30
   3   6 -10    6.20    2.60
  -3   6  10    9.30    3.10
  -3   6  10   10.10    3.00
  -2  -6  10   23.20    4.10
   2  -6 -10   26.70    4.10
   2  -6 -10   24.10    4.20
  -2  -6  10   17.40    3.80
   2   6 -10   22.30    3.90
  -2   6  10   21.90    3.80
   2   6 -10   12.30    3.50
  -2   6  10   21.00    3.70
   2   6 -10   23.70    4.00
  -1  -6  10    4.10    2.60
   1  -6 -10    7.60    3.10
  -1  -6  10    0.00    2.30
   1  -6 -10    1.10    1.70
   1   6 -10    1.00    2.30
  -1   6  10    3.00    2.20
   1   6 -10    1.50    2.40
  -1   6  10   -0.30    2.50
   1   6 -10   -0.20    2.30
   0  -6 -10    1.70    2.50
   0  -6 -10    2.70    2.30
   0  -6  10    1.20    2.50
   0  -6  10    0.80    2.50
   0  -6 -10    7.00    2.30
   0   6  10    1.40    2.30
   0   6 -10    1.90    2.50
   0   6 -10    0.70    1.80
   0   6  10    1.90    2.10
   0   6 -10   -1.60    2.40
  -1  -6 -10   60.99    6.40
   1  -6  10   61.29    5.90
   1  -6  10   62.89    6.30
  -1  -6 -10   60.69    6.30
  -1  -6 -10   66.79    5.20
   1  -6  10   66.89    6.50
  -1   6 -10   63.09    6.40
   1   6  10   70.19    5.90
   1   6  10   60.09    6.10
  -1   6 -10   61.19    6.40
   1   6  10   70.19    5.50
  -1   6 -10   67.49    6.40
   2  -6  10  104.69    7.40
  -2  -6 -10  119.49    7.90
   2  -6  10  115.29    7.30
  -2  -6 -10  118.49    7.70
  -2  -6 -10   99.29    6.50
   2  -6  10  118.69    7.90
  -2   6 -10   98.19    7.40
  -2   6 -10  121.29    8.00
   2   6  10  105.09    7.30
   2   6  10   99.69    6.40
   2   6  10  123.49    7.50
  -2   6 -10   91.69    7.10
  -3  -6 -10   72.59    7.20
   3  -6  10   82.39    7.40
  -3  -6 -10   65.19    6.20
   3  -6  10   79.39    7.30
   3  -6  10   67.79    6.60
  -3  -6 -10   72.99    6.80
  -3   6 -10   78.49    6.50
  -3   6 -10   79.89    7.50
   3   6  10   81.89    6.60
  -3   6 -10   74.39    7.10
   4  -6  10   46.00    5.90
  -4  -6 -10   44.00    6.60
  -4  -6 -10   35.30    4.90
   4  -6  10   42.40    5.60
   4  -6  10   34.30    5.10
  -4  -6 -10   43.60    5.30
  -4   6 -10   43.10    6.60
   4   6  10   49.50    6.10
  -4   6 -10   37.50    5.30
  -4   6 -10   45.50    5.80
   4   6  10   37.30    5.20
   5  -7 -10   70.79    7.40
   5   7 -10   55.39    7.10
   4  -7 -10   43.70    5.60
   4  -7 -10   38.10    5.70
   4  -7 -10   33.70    5.40
   4   7 -10   38.50    5.60
  -4   7  10   46.70    6.70
   3  -7 -10   15.90    4.10
   3  -7 -10   10.90    3.50
   3  -7 -10   18.70    3.60
  -3   7  10    5.70    3.20
   3   7 -10   18.10    4.50
  -3   7  10   16.50    3.80
  -2  -7  10   62.99    7.80
   2  -7 -10   97.59    7.50
   2  -7 -10   94.39    7.30
  -2  -7  10   85.29    8.80
   2   7 -10   89.19    6.70
   2   7 -10   75.49    7.70
  -2   7  10   92.19    6.90
  -2   7  10   85.09    8.00
   2   7 -10   80.29    7.50
  -1  -7  10    0.20    2.70
   1  -7 -10   10.40    3.50
  -1  -7  10    3.90    3.20
   1  -7 -10    3.60    3.00
   1   7 -10    5.70    2.70
  -1   7  10    3.90    2.30
  -1   7  10    7.80    3.30
   1   7 -10    7.10    3.30
   1   7 -10    7.50    3.00
   0  -7 -10   -0.90    2.70
   0  -7  10   -1.20    2.50
   0  -7  10   -0.50    3.00
   0   7  10   -1.00    2.30
   0   7  10   -1.50    2.30
   0   7 -10    0.00    2.60
   0   7 -10    0.50    2.80
   0   7  10    0.60    2.50
   0   7 -10   -0.50    2.50
   1  -7  10   41.90    5.80
   1   7  10   40.80    5.60
  -1   7 -10   50.79    7.10
  -1   7 -10   47.10    6.00
   1   7  10   45.10    5.30
  -1   7 -10   46.00    6.00
   1   7  10   40.20    5.40
   2  -7  10    6.80    3.70
  12   0 -11   -4.10    1.80
 -12   0  11   -1.50    2.20
 -12   0  11   -0.20    2.40
  12   0 -11    1.60    2.50
 -11   0  11    0.20    2.20
  11   0 -11    1.60    2.40
 -11   0  11   -1.10    1.60
  11   0 -11    2.10    2.40
  10   0 -11    0.10    1.90
 -10   0  11    1.60    2.10
 -10   0  11    0.30    1.00
  10   0 -11   -0.10    2.00
  -9   0  11   -1.30    1.00
  -9   0  11   -3.40    1.30
   9   0 -11   -0.10    1.80
   9   0 -11   -0.60    1.60
  -8   0  11   -1.00    1.00
   8   0 -11    0.40    1.60
   8   0 -11   -0.10    1.60
  -8   0  11   -2.10    1.50
   8   0 -11    1.60    1.30
  -8   0  11    0.00    0.80
  -7   0  11    0.70    1.50
   7   0 -11   -0.90    1.10
   7   0 -11    0.70    1.10
   7   0 -11   -2.50    1.20
  -7   0  11    1.60    0.90
   7   0 -11   -1.90    0.90
  -7   0  11   -1.50    1.00
   6   0 -11   -0.20    1.50
   6   0 -11    0.20    1.50
   6   0 -11    1.40    1.20
  -6   0  11    3.40    1.10
  -6   0  11   -0.40    1.10
  -6   0  11    0.30    1.50
   6   0 -11    0.10    0.80
  -6   0  11    0.20    0.50
   6   0 -11    0.50    1.10
  -6   0  11   -0.60    0.70
   5   0 -11   -0.70    1.00
  -5   0  11   -2.20    0.70
  -5   0  11    0.80    1.10
   5   0 -11    0.90    0.80
   5   0 -11   -0.10    1.10
  -5   0  11    0.00    0.30
  -5   0  11   -0.90    1.30
   5   0 -11    0.80    1.40
  -5   0  11   -0.90    0.70
  -4   0  11   -0.90    0.90
   4   0 -11    0.90    1.20
  -4   0  11    0.10    0.80
  -4   0  11   -1.80    0.90
   4   0 -11   -0.20    0.80
  -4   0  11   -2.10    0.90
   4   0 -11   -0.70    1.10
  -4   0  11   -0.40    0.30
   3   0 -11    0.30    1.10
   3   0 -11   -0.70    1.00
  -3   0  11    0.60    1.20
  -3   0  11   -0.40    1.00
   3   0 -11    0.60    0.50
  -3   0  11    0.60    0.90
   3   0 -11    0.20    0.90
  -3   0  11    1.50    1.00
  -2   0  11   -0.10    0.90
  -2   0  11   -0.40    0.90
  -2   0  11   -2.00    1.00
   2   0 -11   -0.60    1.00
   2   0 -11    0.30    0.60
   2   0 -11   -0.10    0.90
   2   0 -11    0.80    1.00
  -1   0  11    1.40    1.20
   1   0 -11    0.90    1.10
  -1   0  11   -0.40    0.80
   1   0 -11    0.80    1.00
  -1   0  11    0.90    1.20
   1   0 -11    0.60    0.80
   0   0  11   -0.60    1.00
   0   0 -11   -0.60    1.30
   0   0  11   -0.90    0.70
   0   0  11   -0.10    1.30
   0   0 -11    0.40    0.80
   0   0 -11    1.00    0.80
  -1   0 -11   -1.00    0.90
   1   0  11    0.40    0.60
  -1   0 -11    1.00    1.00
  -1   0 -11    0.60    0.80
   1   0  11    1.80    1.40
   1   0  11   -0.70    1.10
   2   0  11    0.80    1.40
  -2   0 -11    2.90    1.30
   2   0  11    1.10    1.60
  -2   0 -11    0.90    1.20
  -2   0 -11   -0.50    1.10
   2   0  11    0.50    0.50
  -3   0 -11    1.70    1.50
  -3   0 -11   -1.20    1.30
  -3   0 -11    0.20    1.60
   3   0  11   -0.40    1.50
   3   0  11    1.40    1.60
   4   0  11    1.80    1.60
  -4   0 -11    1.80    1.70
  -4   0 -11    2.50    1.70
   4   0  11    1.40    1.50
  -4   0 -11   -0.10    1.30
  -5   0 -11   -0.30    1.20
   5   0  11   -0.70    1.20
   5   0  11   -2.40    1.50
  -5   0 -11    1.20    1.60
   5   0  11    2.70    1.90
  -5   0 -11    1.60    1.90
   6   0  11    2.80    2.20
  -6   0 -11    0.60    1.30
   6   0  11   -0.30    1.40
  -6   0 -11   -1.40    1.70
  -6   0 -11   -2.30    1.40
  -7   0 -11    1.20    1.70
  -7   0 -11   -2.80    1.70
   7   0  11   -1.00    1.30
  -7   0 -11    1.00    1.50
   7   0  11    0.90    1.90
  -8   0 -11   -1.50    2.20
   8   0  11   -1.10    1.40
   8   0  11    3.60    2.50
  -8   0 -11    0.50    1.90
   9   0  11   -1.60    2.10
   9   0  11    3.20    2.50
  -9   0 -11   -0.50    1.80
  12  -1 -11   49.00    5.80
  12  -1 -11   44.20    5.90
 -12  -1  11   42.20    5.50
 -12  -1  11   44.60    5.80
  12   1 -11   39.50    5.80
 -12   1  11   47.60    5.70
  12   1 -11   40.20    5.30
  11  -1 -11   77.99    7.00
  11  -1 -11   90.49    6.90
 -11  -1  11   82.09    6.00
 -11   1  11   99.39    7.10
  11   1 -11   84.99    6.50
 -11   1  11   82.49    6.40
  11   1 -11   93.99    7.20
  10  -1 -11    4.80    2.50
  10  -1 -11    4.50    2.60
 -10  -1  11    3.00    1.10
 -10  -1  11    1.60    2.20
 -10   1  11    1.10    1.60
 -10   1  11    7.90    1.70
 -10   1  11    4.80    2.70
  10   1 -11    7.10    2.70
  10   1 -11    3.20    2.50
  10   1 -11    5.40    2.00
   9  -1 -11   16.00    3.00
  -9  -1  11   15.30    1.90
  -9  -1  11   17.50    2.40
  -9  -1  11   12.70    2.90
   9  -1 -11   18.80    3.40
   9   1 -11   17.40    2.90
  -9   1  11   14.10    2.30
   9   1 -11   10.80    3.00
  -9   1  11   17.00    3.10
   9   1 -11   12.60    3.00
   8  -1 -11   51.09    5.00
  -8  -1  11   56.39    3.40
  -8  -1  11   50.19    4.80
   8  -1 -11   58.19    5.30
  -8  -1  11   54.69    3.50
   8   1 -11   60.99    5.40
  -8   1  11   51.49    3.60
   8   1 -11   53.59    4.00
  -8   1  11   49.40    4.60
   7  -1 -11   16.40    1.90
   7  -1 -11   11.30    2.00
  -7  -1  11   13.50    2.00
   7  -1 -11   11.90    2.50
  -7  -1  11   14.70    2.10
  -7  -1  11   12.10    2.60
   7  -1 -11   12.90    2.60
   7   1 -11   16.30    3.00
   7   1 -11   16.50    2.50
   7   1 -11   11.30    1.90
  -7   1  11   13.30    2.50
  -7   1  11   15.10    2.30
  -6  -1  11  193.98    7.50
   6  -1 -11  196.48    8.20
   6  -1 -11  188.78    8.20
   6  -1 -11  199.48    6.90
  -6  -1  11  188.48    8.00
  -6  -1  11  198.68    7.60
   6  -1 -11  201.18    7.80
  -6  -1  11  207.38    7.40
  -6   1  11  197.18    7.80
   6   1 -11  190.18    7.50
   6   1 -11  205.08    8.10
   6   1 -11  197.58    8.50
  -6   1  11  201.38    8.30
  -6   1  11  194.98    7.80
  -6   1  11  202.18    6.70
   5  -1 -11  114.09    5.70
  -5  -1  11  119.89    5.10
  -5  -1  11  113.29    5.40
   5  -1 -11  116.79    5.60
   5  -1 -11  122.99    5.70
  -5  -1  11  115.89    4.40
   5  -1 -11  113.79    3.80
  -5  -1  11  116.29    5.60
  -5  -1  11  111.99    5.30
  -5   1  11  118.99    5.10
   5   1 -11  120.59    5.50
  -5   1  11  118.29    5.60
   5   1 -11  123.49    5.70
  -5   1  11  119.39    4.40
   5   1 -11  115.69    5.90
  -5   1  11  105.39    5.60
  -5   1  11  115.79    5.60
  -4  -1  11   81.79    3.70
   4  -1 -11   79.49    3.10
  -4  -1  11   77.49    3.90
   4  -1 -11   68.89    3.20
   4  -1 -11   77.69    4.50
  -4  -1  11   76.39    4.40
  -4  -1  11   83.89    4.40
  -4  -1  11   75.49    4.30
   4  -1 -11   79.99    4.50
  -4   1  11   77.79    4.10
   4   1 -11   78.59    4.50
  -4   1  11   86.59    4.60
  -4   1  11   78.79    3.40
  -4   1  11   69.19    4.00
   4   1 -11   78.59    4.40
  -3  -1  11  165.88    6.00
  -3  -1  11  150.98    6.10
   3  -1 -11  157.98    6.50
   3  -1 -11  156.08    5.40
   3  -1 -11  149.79    5.40
   3  -1 -11  157.68    6.80
  -3  -1  11  164.08    6.30
  -3  -1  11  156.58    6.70
  -3   1  11  154.88    6.30
   3   1 -11  164.18    6.80
  -3   1  11  155.78    5.50
   3   1 -11  155.28    6.50
  -3   1  11  150.18    6.70
  -3   1  11  142.99    6.10
   2  -1 -11  139.09    5.20
   2  -1 -11  138.29    6.30
  -2  -1  11  132.89    6.20
  -2  -1  11  137.89    5.70
   2  -1 -11  132.99    5.10
  -2  -1  11  126.59    5.60
   2  -1 -11  145.09    5.90
  -2  -1  11  141.39    5.60
  -2   1  11  149.79    6.10
   2   1 -11  145.69    5.80
  -2   1  11  137.69    5.20
   2   1 -11  134.49    4.20
   2   1 -11  130.69    6.20
  -2   1  11  134.59    5.60
  -2   1  11  141.59    6.30
   1  -1 -11   18.30    2.20
  -1  -1  11   17.20    1.90
  -1  -1  11   16.10    2.10
  -1  -1  11   17.60    2.50
  -1  -1  11   15.70    2.20
   1  -1 -11   14.40    2.40
   1  -1 -11   16.60    1.90
  -1   1  11   15.00    1.90
   1   1 -11   16.80    1.60
  -1   1  11   16.60    2.30
   1   1 -11   18.70    2.10
   1   1 -11   15.30    2.40
  -1   1  11   14.20    1.80
  -1   1  11   20.70    2.70
   0  -1 -11   16.30    2.00
   0  -1 -11   18.70    2.60
   0  -1 -11   16.60    1.90
   0  -1  11   16.50    2.50
   0  -1  11   20.40    1.90
   0  -1 -11   16.40    1.80
   0  -1  11   15.90    2.30
   0   1  11   19.10    2.60
   0   1 -11   18.70    1.90
   0   1 -11   17.40    2.30
   0   1 -11   17.70    2.00
   0   1 -11   17.90    2.60
   0   1  11   17.40    1.80
   0   1  11   22.40    2.80
  -1  -1 -11   69.59    4.00
  -1  -1 -11   64.59    4.40
  -1  -1 -11   66.19    3.20
   1  -1  11   69.79    4.20
   1  -1  11   70.79    3.00
  -1  -1 -11   67.49    3.10
   1  -1  11   75.69    4.60
  -1   1 -11   65.39    4.00
  -1   1 -11   70.09    4.50
   1   1  11   72.09    3.10
  -1   1 -11   72.29    3.20
   1   1  11   72.69    4.50
  -1   1 -11   68.39    3.60
   1   1  11   73.79    4.60
   1   1  11   74.59    3.70
  -2  -1 -11   41.50    3.90
  -2  -1 -11   45.30    2.80
   2  -1  11   42.20    1.80
   2  -1  11   39.10    3.80
   2  -1  11   43.30    1.80
   2  -1  11   47.60    3.80
  -2  -1 -11   40.00    3.70
  -2   1 -11   45.10    3.50
   2   1  11   37.00    3.80
   2   1  11   44.00    2.10
  -2   1 -11   43.60    3.30
   2   1  11   46.40    2.90
   2   1  11   37.00    3.70
  -2   1 -11   42.20    4.00
   3  -1  11    9.10    2.10
   3  -1  11   12.30    2.50
  -3  -1 -11    7.80    2.10
  -3  -1 -11    6.90    2.10
   3   1  11   10.50    1.70
   3   1  11   10.70    1.90
   3   1  11    8.60    2.10
   3   1  11    6.50    2.00
  -3   1 -11   10.70    2.20
  -3   1 -11    9.60    2.30
  -3   1 -11    7.70    1.90
   4  -1  11    1.20    1.80
  -4  -1 -11    3.00    1.80
   4  -1  11    7.60    2.50
  -4  -1 -11    4.00    1.70
  -4  -1 -11    6.20    1.60
  -4   1 -11    4.00    2.00
  -4   1 -11    3.30    1.80
   4   1  11    8.20    1.70
  -4   1 -11    5.00    2.00
   4   1  11    3.90    1.90
   4   1  11    3.40    1.70
  -5  -1 -11   15.90    3.10
  -5  -1 -11   15.10    2.10
  -5  -1 -11   23.20    3.20
   5  -1  11   18.30    3.00
   5  -1  11   24.30    3.50
   5   1  11   16.60    2.40
  -5   1 -11   21.20    3.20
  -5   1 -11   12.20    2.50
   5   1  11   16.60    3.10
  -5   1 -11   20.80    3.10
   5   1  11   22.20    3.20
   6  -1  11   31.70    4.30
  -6  -1 -11   40.10    4.20
  -6  -1 -11   35.20    4.40
   6  -1  11   30.80    3.90
  -6   1 -11   36.60    3.90
   6   1  11   32.40    4.20
  -6   1 -11   37.30    4.40
   6   1  11   32.90    3.40
  -6   1 -11   33.10    3.90
  -7  -1 -11   15.20    3.50
  -7  -1 -11   12.80    2.80
   7  -1  11   18.60    3.70
   7  -1  11   10.50    2.80
  -7   1 -11   14.70    3.10
   7   1  11   15.90    3.50
  -7   1 -11   14.30    2.90
  -7   1 -11   14.10    3.40
   8  -1  11   -0.80    2.20
  -8  -1 -11   -1.40    1.60
   8  -1  11   -2.20    2.00
  -8  -1 -11   -1.10    2.30
   8   1  11    1.80    2.20
  -8   1 -11    2.00    2.00
  -8   1 -11    0.80    2.40
  -8   1 -11    0.10    1.80
   9  -1  11    4.00    2.60
  -9  -1 -11    0.40    2.10
   9  -1  11    3.10    2.80
  -9   1 -11    8.40    2.60
   9   1  11    4.10    2.70
  12  -2 -11   10.00    3.20
  12  -2 -11    4.70    2.50
  12   2 -11    9.50    3.30
 -11  -2  11   18.60    3.90
  11  -2 -11   23.40    4.40
  11  -2 -11   17.70    4.00
  11   2 -11   23.20    4.30
 -11   2  11   27.00    4.30
 -11   2  11   22.80    2.80
 -11   2  11   22.10    4.10
  11   2 -11   25.90    4.10
  10  -2 -11   -1.50    1.90
  10  -2 -11    3.00    2.20
 -10  -2  11   -1.10    1.50
 -10  -2  11   -0.30    2.10
 -10   2  11   -0.90    2.10
 -10   2  11    0.80    1.50
 -10   2  11   -1.20    2.00
  10   2 -11    2.10    2.00
  10   2 -11   -1.20    2.10
  -9  -2  11    2.80    1.20
  -9  -2  11    2.20    1.50
   9  -2 -11   -0.30    1.80
  -9  -2  11    1.60    2.00
   9  -2 -11    3.20    2.10
  -9   2  11    1.10    2.00
   9   2 -11    0.60    1.80
  -9   2  11   -1.40    1.30
  -9   2  11    0.80    1.50
   9   2 -11    1.00    2.20
   8  -2 -11   30.60    4.10
   8  -2 -11   35.30    4.10
  -8  -2  11   24.90    3.70
  -8  -2  11   30.70    2.80
  -8  -2  11   25.80    3.10
  -8   2  11   32.40    4.00
   8   2 -11   29.80    3.80
  -8   2  11   28.00    3.80
   8   2 -11   22.90    3.40
  -8   2  11   31.40    3.40
  -7  -2  11   42.00    3.20
   7  -2 -11   41.50    3.80
   7  -2 -11   51.99    4.90
  -7  -2  11   42.30    3.80
   7  -2 -11   49.60    4.00
  -7  -2  11   38.40    4.00
   7   2 -11   46.40    4.50
   7   2 -11   39.80    4.40
  -7   2  11   41.40    4.10
  -7   2  11   47.20    3.70
  -7   2  11   45.70    4.40
   6  -2 -11  184.28    7.70
  -6  -2  11  194.08    8.20
   6  -2 -11  184.28    8.20
  -6  -2  11  170.88    7.40
  -6  -2  11  181.98    7.20
   6  -2 -11  171.18    7.60
   6   2 -11  177.68    7.20
  -6   2  11  180.58    8.00
   6   2 -11  179.18    8.00
  -6   2  11  187.58    8.70
   6   2 -11  181.08    8.10
  -6   2  11  188.28    7.90
   5  -2 -11   50.79    4.10
  -5  -2  11   61.29    3.90
   5  -2 -11   54.19    3.60
  -5  -2  11   57.99    3.90
  -5  -2  11   60.99    4.10
   5  -2 -11   61.19    3.50
   5  -2 -11   61.89    4.10
  -5   2  11   66.99    4.40
  -5   2  11   60.79    4.20
   5   2 -11   58.99    4.20
   5   2 -11   57.79    4.10
   5   2 -11   57.19    3.80
   4  -2 -11  283.17    9.40
   4  -2 -11  271.77    9.10
   4  -2 -11  273.07    7.40
  -4  -2  11  273.37    9.90
   4  -2 -11  274.37   10.20
  -4  -2  11  275.97    8.70
  -4  -2  11  270.07    9.90
  -4  -2  11  264.87    9.70
   4  -2 -11  269.47   10.10
   4   2 -11  279.17   10.40
   4   2 -11  267.57   10.00
   4   2 -11  273.77    9.90
  -4   2  11  260.87   10.10
  -4   2  11  260.77    9.80
   3  -2 -11  385.86   12.70
   3  -2 -11  350.96   12.20
  -3  -2  11  361.36   12.30
   3  -2 -11  356.46   10.40
  -3  -2  11  346.07   12.00
   3  -2 -11  359.26   11.40
  -3  -2  11  366.66   11.40
  -3   2  11  369.66   12.00
   3   2 -11  361.96   12.20
  -3   2  11  373.06   12.60
   3   2 -11  363.66   12.40
   2  -2 -11   49.80    3.50
  -2  -2  11   45.80    3.10
  -2  -2  11   52.79    3.70
  -2  -2  11   57.49    4.00
   2  -2 -11   48.80    3.10
   2  -2 -11   53.69    2.80
   2  -2 -11   55.39    4.00
  -2   2  11   53.79    4.00
   2   2 -11   48.50    3.30
  -2   2  11   49.50    3.30
   2   2 -11   49.60    3.80
   2   2 -11   48.20    2.00
   2   2 -11   51.49    2.10
  -1  -2  11   13.20    2.30
   1  -2 -11   15.90    2.00
  -1  -2  11   11.70    2.00
   1  -2 -11   19.50    2.50
   1  -2 -11   11.90    1.90
   1  -2 -11   18.80    2.80
  -1  -2  11   16.50    2.30
   1   2 -11   16.40    1.60
  -1   2  11   15.90    2.60
   1   2 -11   15.20    2.10
  -1   2  11   14.00    2.00
   1   2 -11   15.40    1.50
   1   2 -11   12.60    2.40
  -1   2  11   12.60    1.90
  -1   2  11   12.90    2.40
   0  -2  11   34.50    3.60
   0  -2  11   36.40    3.50
   0  -2 -11   35.00    3.70
   0  -2 -11   41.40    2.90
   0  -2  11   37.70    3.60
   0  -2 -11   34.70    3.20
   0   2  11   40.10    3.90
   0   2  11   43.60    2.70
   0   2 -11   38.00    2.60
   0   2  11   37.40    3.80
   0   2 -11   34.60    3.60
   0   2 -11   32.30    3.50
   0   2  11   36.70    2.60
  -1  -2 -11  103.39    4.50
   1  -2  11  102.89    5.50
  -1  -2 -11  110.89    5.00
  -1  -2 -11  103.59    5.70
   1  -2  11  104.49    5.70
  -1  -2 -11  107.69    5.40
   1  -2  11  104.19    5.70
   1   2  11  105.09    4.30
  -1   2 -11  101.49    5.70
   1   2  11  103.29    5.50
   1   2  11   97.69    4.30
   1   2  11  107.19    5.60
  -1   2 -11  104.59    5.70
  -1   2 -11  109.19    4.50
  -2  -2 -11   31.90    3.50
   2  -2  11   27.30    3.40
  -2  -2 -11   31.00    2.20
   2  -2  11   32.00    2.00
  -2  -2 -11   26.90    3.40
   2  -2  11   26.50    3.50
   2  -2  11   28.20    1.90
  -2  -2 -11   32.60    2.30
   2   2  11   31.00    2.20
   2   2  11   32.20    2.20
  -2   2 -11   28.10    3.40
   2   2  11   24.90    3.30
   2   2  11   26.10    3.40
  -2   2 -11   28.70    3.50
  -3  -2 -11   20.70    3.10
   3  -2  11   25.20    3.50
  -3  -2 -11   20.60    3.10
   3  -2  11   20.40    3.20
  -3   2 -11   21.30    3.20
   3   2  11   21.90    1.90
   3   2  11   30.10    3.60
  -3   2 -11   24.30    3.40
   3   2  11   21.50    3.30
  -4  -2 -11   11.40    2.70
   4  -2  11   13.60    2.70
  -4  -2 -11   14.10    2.60
   4  -2  11    8.50    2.40
  -4   2 -11   14.40    2.80
   4   2  11   14.60    2.80
  -4   2 -11   13.80    2.80
   4   2  11   12.70    2.50
   5  -2  11    5.70    2.00
   5  -2  11    1.90    1.80
  -5  -2 -11    3.10    2.20
  -5  -2 -11    4.90    2.20
  -5   2 -11    3.20    2.10
   5   2  11    4.50    2.30
   5   2  11    2.20    2.10
  -5   2 -11    2.00    1.90
  -6  -2 -11   -2.20    1.60
   6  -2  11   -0.90    1.40
  -6  -2 -11    0.30    1.50
   6   2  11   -1.00    1.70
  -6   2 -11    1.00    1.90
  -6   2 -11    0.80    1.90
   7  -2  11   24.70    4.20
  -7  -2 -11   20.60    3.20
   7  -2  11   20.80    3.80
  -7  -2 -11   22.70    4.10
  -7   2 -11   25.40    3.90
   7   2  11   25.20    4.00
  -7   2 -11   26.70    4.10
  -7   2 -11   14.80    3.30
   8  -2  11    0.70    2.30
  -8  -2 -11   -1.20    1.70
   8  -2  11    2.30    2.80
  -8  -2 -11    2.10    2.10
  -8   2 -11   -1.10    2.00
  -8   2 -11    4.20    2.60
   8   2  11   -1.50    2.00
  -8   2 -11    0.30    1.90
 -11  -3  11   18.80    4.40
  11  -3 -11   10.70    3.50
  11  -3 -11   13.70    3.70
 -11   3  11   11.20    3.10
  11   3 -11   12.50    3.30
  11   3 -11   16.00    3.90
 -11   3  11   11.70    2.70
 -10  -3  11   31.40    4.10
  10  -3 -11   30.10    4.70
  10  -3 -11   30.30    4.50
 -10  -3  11   24.80    4.20
  10   3 -11   35.70    4.60
  10   3 -11   29.30    4.40
 -10   3  11   27.40    4.30
 -10   3  11   26.10    3.50
 -10   3  11   29.00    4.70
   9  -3 -11   13.00    3.20
  -9  -3  11   12.10    3.10
  -9  -3  11   20.70    3.30
   9  -3 -11   20.90    3.70
  -9  -3  11   15.50    2.20
   9   3 -11   13.70    3.30
   9   3 -11   14.40    3.20
  -9   3  11   13.10    2.90
  -9   3  11   14.60    3.30
  -9   3  11   11.60    2.50
  -8  -3  11    4.50    2.20
   8  -3 -11    7.30    2.40
  -8  -3  11   11.90    2.00
   8  -3 -11    9.50    2.90
  -8   3  11   10.30    2.40
   8   3 -11    6.20    2.50
  -8   3  11    5.80    2.50
   8   3 -11   12.30    3.00
  -8   3  11    6.50    2.50
  -7  -3  11    3.00    1.90
   7  -3 -11    2.20    1.80
   7  -3 -11    2.90    1.90
  -7  -3  11    0.20    1.30
   7  -3 -11    1.10    2.00
  -7   3  11    3.10    1.70
  -7   3  11    0.70    1.90
   7   3 -11    0.80    1.80
   7   3 -11    2.50    2.20
  -7   3  11    4.70    2.00
  -6  -3  11   59.69    4.50
  -6  -3  11   55.49    3.90
   6  -3 -11   54.39    5.10
   6  -3 -11   59.59    4.60
   6  -3 -11   56.39    4.00
  -6   3  11   55.79    4.30
  -6   3  11   62.19    4.60
   6   3 -11   59.79    4.40
   6   3 -11   55.29    5.20
  -6   3  11   57.19    4.60
   6   3 -11   56.69    5.10
  -5  -3  11   35.10    3.80
  -5  -3  11   36.90    3.60
   5  -3 -11   36.00    4.10
   5  -3 -11   38.30    4.10
   5  -3 -11   31.80    3.30
   5  -3 -11   38.90    3.10
  -5   3  11   38.20    3.80
  -5   3  11   37.30    3.90
   5   3 -11   28.90    3.20
  -5   3  11   33.70    3.60
   5   3 -11   27.60    3.80
   5   3 -11   35.50    3.90
  -4  -3  11    1.90    1.60
   4  -3 -11    1.40    1.60
   4  -3 -11    2.50    1.60
   4  -3 -11   -0.80    1.50
   4  -3 -11    0.80    1.10
  -4  -3  11    0.00    1.70
  -4  -3  11    1.00    1.20
  -4   3  11    1.50    1.70
  -4   3  11    7.70    2.20
  -4   3  11   -0.60    1.30
   4   3 -11    1.50    1.50
   4   3 -11    2.20    1.80
   3  -3 -11   53.39    4.00
   3  -3 -11   54.39    2.50
   3  -3 -11   57.19    3.80
  -3  -3  11   52.49    4.10
  -3  -3  11   51.49    3.40
  -3  -3  11   55.19    4.00
   3  -3 -11   59.69    2.90
   3  -3 -11   51.99    4.00
   3   3 -11   58.39    4.60
   3   3 -11   58.59    4.10
   3   3 -11   55.79    2.20
  -3   3  11   65.19    4.20
  -3   3  11   53.69    4.30
  -2  -3  11   -2.30    1.30
  -2  -3  11    0.70    1.50
   2  -3 -11    1.80    1.40
   2  -3 -11    0.50    1.30
  -2  -3  11    0.50    1.40
   2  -3 -11   -1.40    1.50
   2  -3 -11   -1.10    0.90
  -2   3  11    0.70    1.30
   2   3 -11   -0.60    0.70
   2   3 -11   -0.30    1.40
  -2   3  11    0.90    1.70
   2   3 -11    1.10    1.30
  -1  -3  11  196.18    8.30
   1  -3 -11  196.98    7.90
  -1  -3  11  192.98    8.30
  -1  -3  11  182.58    7.60
   1  -3 -11  193.58    7.70
   1  -3 -11  183.28    8.30
   1   3 -11  184.28    6.40
  -1   3  11  189.68    8.40
   1   3 -11  180.48    8.20
   1   3 -11  192.18    7.60
  -1   3  11  187.78    7.50
   1   3 -11  185.68    8.10
   0  -3 -11    9.50    2.00
   0  -3 -11    9.20    2.30
   0  -3  11    8.50    2.00
   0  -3  11    9.80    2.30
   0  -3  11    8.60    2.10
   0  -3 -11    8.90    2.30
   0   3  11   10.20    1.80
   0   3  11    8.50    1.40
   0   3 -11    6.60    2.20
   0   3  11   10.40    2.40
   0   3  11    7.50    2.20
   0   3 -11    9.40    2.50
  -1  -3 -11   18.80    2.90
  -1  -3 -11   19.60    2.40
   1  -3  11   19.40    3.00
  -1  -3 -11   12.50    2.70
   1  -3  11   16.40    2.90
   1  -3  11   16.30    2.80
  -1   3 -11   20.20    3.20
   1   3  11   16.10    2.20
   1   3  11   16.00    2.90
   1   3  11   17.80    3.10
  -1   3 -11   17.20    3.00
  -2  -3 -11  493.55   16.40
  -2  -3 -11  492.35   14.90
   2  -3  11  493.45   16.80
  -2  -3 -11  479.75   16.50
   2  -3  11  465.55   16.30
   2  -3  11  467.15   16.40
   2   3  11  511.25   14.80
   2   3  11  497.65   16.60
   2   3  11  455.55   16.30
  -2   3 -11  497.55   16.80
  -2   3 -11  504.25   16.80
  -3  -3 -11   41.80    4.40
   3  -3  11   23.90    3.70
   3  -3  11   32.70    4.10
  -3  -3 -11   33.60    3.90
   3   3  11   34.20    2.90
   3   3  11   40.40    4.40
   3   3  11   37.10    4.00
  -3   3 -11   29.40    3.90
  -3   3 -11   36.30    4.20
   4  -3  11   20.60    3.60
  -4  -3 -11   19.90    3.50
  -4  -3 -11   21.20    3.30
   4  -3  11   20.20    3.50
   4   3  11   16.70    3.30
   4   3  11   24.10    3.50
  -4   3 -11   22.40    3.70
   5  -3  11    3.90    2.40
   5  -3  11    0.40    1.90
  -5  -3 -11    2.60    2.30
  -5  -3 -11    2.60    2.00
  -5   3 -11    2.40    2.20
  -5   3 -11    1.40    2.10
   5   3  11    5.10    2.40
  -6  -3 -11    6.80    2.50
  -6  -3 -11    0.60    2.00
   6  -3  11   -1.60    1.50
   6   3  11    4.30    2.50
  -6   3 -11    2.70    2.60
  -6   3 -11    5.40    2.40
   7  -3  11   50.79    5.90
   7  -3  11   65.09    6.60
  -7  -3 -11   54.19    5.90
  -7  -3 -11   62.59    5.00
   7   3  11   49.70    5.60
  -7   3 -11   54.19    5.60
  -7   3 -11   60.59    6.30
  -8  -3 -11    6.60    2.50
   8  -3  11   15.60    4.10
   8  -3  11   15.50    3.80
   8   3  11   12.80    3.50
  -8   3 -11    6.20    3.20
  10  -4 -11   10.50    3.30
 -10  -4  11    2.60    2.60
 -10  -4  11   10.50    3.90
  10  -4 -11   11.50    3.60
  10   4 -11    6.10    3.00
 -10   4  11    7.50    2.70
 -10   4  11    9.60    3.10
 -10   4  11    8.80    3.30
  10   4 -11   10.30    3.50
  -9  -4  11   49.60    3.60
   9  -4 -11   50.39    5.80
  -9  -4  11   47.60    5.20
   9  -4 -11   47.30    5.30
   9   4 -11   47.80    5.70
  -9   4  11   48.20    5.50
   9   4 -11   39.80    5.10
  -9   4  11   51.69    5.10
  -9   4  11   48.60    5.50
   8  -4 -11   82.89    5.70
  -8  -4  11   85.59    6.20
  -8  -4  11   95.59    5.20
   8  -4 -11   98.79    6.70
   8   4 -11   81.89    6.40
   8   4 -11   85.69    6.40
  -8   4  11   84.89    6.00
  -8   4  11   89.39    6.10
  -8   4  11   89.99    6.50
   7  -4 -11   62.39    5.80
  -7  -4  11   59.19    5.50
   7  -4 -11   72.19    5.00
  -7  -4  11   56.99    4.30
   7  -4 -11   59.49    7.90
   7   4 -11   59.69    5.80
  -7   4  11   62.69    5.00
   7   4 -11   62.79    6.10
  -7   4  11   71.79    5.20
  -7   4  11   58.39    5.50
  -6  -4  11  151.08    7.10
   6  -4 -11  140.79    7.80
   6  -4 -11  146.39    7.80
   6  -4 -11  136.39    6.80
  -6  -4  11  145.29    7.70
  -6   4  11  149.79    7.60
   6   4 -11  154.88    8.30
   6   4 -11  154.48    8.00
  -6   4  11  162.18    8.00
  -6   4  11  157.08    7.90
  -5  -4  11   39.00    4.40
   5  -4 -11   42.40    4.60
   5  -4 -11   38.20    3.50
  -5  -4  11   38.30    4.00
   5  -4 -11   28.40    4.00
   5  -4 -11   38.30    4.00
  -5   4  11   32.30    3.60
  -5   4  11   34.10    4.10
   5   4 -11   38.10    3.90
   5   4 -11   25.40    4.00
   5   4 -11   29.40    4.00
  -5   4  11   35.50    4.10
  -4  -4  11   89.89    5.50
  -4  -4  11  104.89    5.90
   4  -4 -11   96.69    6.00
   4  -4 -11   81.39    4.80
  -4  -4  11   91.99    4.60
   4  -4 -11   81.99    5.60
   4  -4 -11   84.09    5.30
   4   4 -11   90.59    5.70
  -4   4  11   94.39    5.70
  -4   4  11   92.29    5.90
  -4   4  11   92.79    5.10
   4   4 -11   92.69    5.60
   4   4 -11   93.29    6.20
  -3  -4  11   15.00    3.00
   3  -4 -11   15.90    3.10
   3  -4 -11   15.40    2.80
  -3  -4  11   16.20    2.40
   3  -4 -11   15.10    2.90
  -3  -4  11   17.10    3.00
  -3   4  11   16.20    2.80
  -3   4  11   14.70    3.00
   3   4 -11   12.40    2.70
  -3   4  11   11.90    2.10
   3   4 -11   21.40    3.20
   3   4 -11   11.60    2.70
   2  -4 -11   50.99    4.60
   2  -4 -11   60.49    5.40
  -2  -4  11   45.60    4.70
   2  -4 -11   51.39    3.10
  -2  -4  11   46.90    4.60
   2  -4 -11   51.49    4.60
  -2  -4  11   51.19    3.90
  -2   4  11   58.29    5.20
  -2   4  11   47.60    3.30
  -2   4  11   49.99    3.80
   2   4 -11   49.99    5.10
   2   4 -11   50.19    4.80
   2   4 -11   51.49    4.00
   1  -4 -11  136.89    6.70
   1  -4 -11  139.09    7.40
   1  -4 -11  137.79    5.90
   1  -4 -11  148.39    7.20
  -1  -4  11  148.19    7.40
  -1  -4  11  138.79    7.30
  -1  -4  11  141.19    6.70
   1   4 -11  132.89    7.10
  -1   4  11  128.79    6.40
  -1   4  11  136.49    7.30
  -1   4  11  134.29    5.40
   1   4 -11  140.49    7.20
   0  -4  11   24.50    3.50
   0  -4  11   19.20    3.00
   0  -4 -11   21.90    2.70
   0  -4 -11   19.30    2.80
   0  -4  11   20.50    3.20
   0  -4 -11   18.60    3.30
   0  -4 -11   17.10    3.10
   0   4 -11   14.90    2.90
   0   4  11   21.70    3.50
   0   4 -11   22.80    3.40
   0   4  11   22.90    2.90
  -1  -4 -11    0.80    1.50
  -1  -4 -11    3.40    2.10
   1  -4  11    2.50    2.20
   1  -4  11    4.00    2.20
  -1  -4 -11    4.50    1.80
   1  -4  11    4.10    2.00
  -1  -4 -11    4.60    2.20
   1   4  11    2.20    1.50
   1   4  11    3.10    2.00
  -1   4 -11    1.20    2.00
  -1   4 -11    1.00    2.00
  -2  -4 -11  113.79    6.70
  -2  -4 -11  110.79    6.10
   2  -4  11   98.29    6.00
  -2  -4 -11  100.79    6.40
   2  -4  11  117.19    6.90
   2  -4  11  112.99    6.90
   2   4  11  111.39    5.40
  -2   4 -11  109.69    6.80
   2   4  11   97.79    6.10
  -2   4 -11  116.99    6.90
   2   4  11  108.79    6.60
   3  -4  11   -1.20    1.40
  -3  -4 -11   -1.70    1.50
   3  -4  11   -1.20    1.70
   3  -4  11   -3.20    1.70
  -3  -4 -11    3.40    2.30
  -3  -4 -11    2.40    2.10
   3   4  11    2.60    1.50
  -3   4 -11    1.70    2.00
   3   4  11    2.20    2.00
   3   4  11    1.80    2.20
  -3   4 -11   -0.70    2.00
   4  -4  11   71.09    5.60
  -4  -4 -11   48.10    5.10
  -4  -4 -11   52.79    5.50
  -4  -4 -11   61.69    5.60
   4  -4  11   49.80    5.20
  -4   4 -11   54.69    5.50
   4   4  11   49.40    5.20
  -4   4 -11   51.39    5.40
  -5  -4 -11   21.30    4.00
  -5  -4 -11   22.90    3.90
  -5  -4 -11   26.40    3.90
   5  -4  11   24.00    4.00
   5  -4  11   16.90    3.70
   5   4  11   15.90    3.50
  -5   4 -11   19.50    3.80
  -5   4 -11   17.90    3.70
  -6  -4 -11  154.28    8.90
  -6  -4 -11  145.19    7.90
  -6  -4 -11  167.58    9.40
   6  -4  11  137.59    8.60
  -6   4 -11  158.68    9.20
   6   4  11  147.69    8.50
   7  -4  11   33.50    5.00
  -7  -4 -11   40.60    4.70
  -7   4 -11   47.10    5.90
   7   4  11   46.10    5.60
  -9  -5  11   -0.30    1.50
   9  -5 -11   -0.70    2.40
  -9  -5  11   -0.40    2.50
   9  -5 -11    1.10    2.20
   9   5 -11   -1.80    1.60
   9   5 -11   -4.10    2.30
  -9   5  11    0.30    2.50
  -8  -5  11    0.70    1.70
  -8  -5  11   -1.60    2.20
   8  -5 -11    0.70    2.40
   8  -5 -11    1.60    2.20
   8   5 -11   -2.60    2.30
  -8   5  11    0.70    2.30
  -8   5  11    2.40    2.40
   8   5 -11    1.80    2.40
  -8   5  11    0.20    2.30
   7  -5 -11   -0.10    2.30
   7  -5 -11   -1.30    1.80
  -7  -5  11    3.20    1.90
  -7  -5  11    2.40    2.40
   7   5 -11    0.10    2.50
  -7   5  11    1.40    2.40
  -7   5  11   -4.00    1.60
  -7   5  11   -0.50    1.90
   7   5 -11   -0.80    1.60
   6  -5 -11    6.50    2.80
  -6  -5  11    6.20    2.90
  -6  -5  11    3.00    2.00
   6  -5 -11    3.70    2.20
   6  -5 -11   12.00    3.10
   6   5 -11    4.00    2.50
  -6   5  11    7.80    2.70
   6   5 -11    4.60    2.80
  -6   5  11   10.30    2.70
  -6   5  11    5.60    2.30
   5  -5 -11  114.69    7.20
   5  -5 -11  122.99    7.00
  -5  -5  11  121.59    7.00
   5  -5 -11  124.29    7.50
  -5  -5  11  118.19    7.40
   5   5 -11  110.49    6.80
  -5   5  11  128.49    6.70
  -5   5  11  115.29    6.80
   5   5 -11  129.29    7.60
  -5   5  11  124.39    7.50
   4  -5 -11   30.30    4.20
   4  -5 -11   27.20    3.80
   4  -5 -11   30.30    4.30
  -4  -5  11   27.40    4.20
  -4  -5  11   24.50    3.60
  -4   5  11   27.20    4.20
  -4   5  11   20.90    3.00
  -4   5  11   25.20    3.80
   4   5 -11   25.90    3.60
   4   5 -11   29.20    4.40
   3  -5 -11   93.39    6.10
  -3  -5  11   90.89    6.00
   3  -5 -11   94.79    6.10
  -3  -5  11   93.89    6.30
   3  -5 -11   89.69    6.50
   3   5 -11   86.59    6.40
  -3   5  11   78.59    4.80
  -3   5  11   96.79    6.50
   3   5 -11   99.39    6.30
  -3   5  11   81.89    5.50
   2  -5 -11   49.90    5.00
  -2  -5  11   52.09    4.70
   2  -5 -11   62.19    5.90
  -2  -5  11   59.19    5.60
   2  -5 -11   49.20    4.70
  -2  -5  11   48.40    5.30
   2   5 -11   48.50    5.60
  -2   5  11   47.00    4.70
   2   5 -11   49.00    5.20
  -2   5  11   38.20    4.70
   2   5 -11   51.39    5.20
  -1  -5  11  129.19    7.50
   1  -5 -11  123.09    7.10
  -1  -5  11  121.29    6.60
   1  -5 -11  120.29    6.80
   1  -5 -11  136.29    6.00
   1  -5 -11  129.99    7.60
  -1  -5  11  123.19    7.20
   1   5 -11  137.69    7.70
  -1   5  11  124.09    7.40
   1   5 -11  122.59    7.30
   1   5 -11  123.69    7.70
  -1   5  11  128.49    6.90
   0  -5 -11   18.60    3.60
   0  -5  11   11.90    2.80
   0  -5 -11   13.40    2.50
   0  -5  11    9.40    2.90
   0  -5  11   15.70    3.40
   0  -5 -11   11.20    3.10
   0   5 -11   15.00    3.10
   0   5 -11   14.70    3.50
   0   5 -11   12.70    3.20
   0   5  11    9.00    2.40
   0   5  11   11.50    3.10
  -1  -5 -11   11.10    3.10
  -1  -5 -11    4.70    2.20
   1  -5  11    8.30    2.80
   1  -5  11    8.70    3.00
  -1  -5 -11   14.00    3.20
   1  -5  11    9.20    2.80
   1   5  11   12.70    3.10
  -1   5 -11    8.70    2.70
  -1   5 -11    8.50    2.80
   1   5  11    9.20    2.40
   2  -5  11   24.60    4.20
   2  -5  11   21.70    3.70
   2  -5  11   20.10    3.70
  -2  -5 -11   29.80    4.00
  -2  -5 -11   23.00    4.00
  -2  -5 -11   19.90    3.70
   2   5  11   28.30    3.60
   2   5  11   19.20    3.60
  -2   5 -11   28.60    4.30
   2   5  11   21.50    3.90
  -2   5 -11   23.50    4.10
   3  -5  11    5.70    2.80
   3  -5  11    6.10    2.40
  -3  -5 -11    2.60    2.10
   3  -5  11    2.60    2.40
  -3  -5 -11    4.50    2.40
  -3  -5 -11    8.90    3.30
  -3   5 -11    4.40    2.80
   3   5  11    4.60    2.80
   3   5  11    4.50    2.80
  -3   5 -11    8.20    2.90
  -4  -5 -11    0.30    2.10
   4  -5  11    0.30    2.50
  -4  -5 -11   -2.90    1.70
   4  -5  11   -4.80    1.70
  -4  -5 -11   -1.90    2.30
   4   5  11    4.90    2.80
  -4   5 -11    3.10    2.50
  -4   5 -11    0.60    1.80
  -5  -5 -11    6.40    3.00
   5  -5  11   10.00    3.40
  -5  -5 -11    8.00    2.90
  -5  -5 -11    9.60    3.00
   5  -5  11   12.30    3.60
   5   5  11    6.10    2.90
  -5   5 -11   10.50    3.10
  -5   5 -11   18.70    3.90
   6  -5  11    1.30    2.60
   6   5  11    2.00    2.60
  -7  -6  11    3.80    2.40
   7  -6 -11    2.20    2.30
  -7  -6  11    1.80    3.20
   7   6 -11   -0.10    2.80
  -7   6  11    4.50    2.60
   6  -6 -11   64.19    6.60
  -6  -6  11   64.39    6.70
  -6  -6  11   69.99    6.20
   6  -6 -11   70.19    7.00
   6   6 -11   59.99    6.90
  -6   6  11   71.89    6.70
  -6   6  11   71.09    6.30
  -6   6  11   66.09    6.60
   5  -6 -11   22.20    4.10
  -5  -6  11   28.20    4.60
   5  -6 -11   13.50    3.40
  -5  -6  11   19.60    3.70
   5  -6 -11   22.60    4.30
  -5   6  11   19.60    4.00
  -5   6  11   15.10    3.10
   5   6 -11   13.60    3.80
  -5   6  11   21.50    3.90
  -4  -6  11    8.20    3.00
  -4  -6  11   14.00    3.70
   4  -6 -11    7.70    3.10
   4  -6 -11   13.20    3.10
   4  -6 -11    9.10    3.10
  -4   6  11    8.80    3.30
  -4   6  11    8.20    3.00
   4   6 -11   14.50    3.70
  -3  -6  11  128.79    7.90
   3  -6 -11  124.59    7.50
   3  -6 -11  121.79    7.70
   3  -6 -11  135.39    8.40
  -3  -6  11  140.09    8.50
   3   6 -11  131.09    8.50
   3   6 -11  136.69    8.10
  -3   6  11  143.49    8.00
  -3   6  11  140.59    8.60
  -2  -6  11   43.20    5.40
   2  -6 -11   45.90    5.20
  -2  -6  11   47.70    5.50
   2  -6 -11   48.80    5.80
   2  -6 -11   40.90    5.00
  -2   6  11   39.20    4.70
   2   6 -11   37.80    5.00
   2   6 -11   38.90    5.30
  -2   6  11   40.90    5.30
   2   6 -11   55.89    5.90
  -1  -6  11   -1.00    2.20
   1  -6 -11    1.00    2.20
   1  -6 -11    0.80    2.40
  -1  -6  11    2.80    2.60
  -1   6  11    1.00    2.20
   1   6 -11    0.60    2.00
  -1   6  11   -2.20    1.80
   1   6 -11    3.10    2.10
   1   6 -11   -1.30    2.10
   0  -6 -11    7.20    2.90
   0  -6  11    2.30    2.70
   0  -6 -11    2.30    2.50
   0  -6  11    1.70    2.00
   0   6  11    5.00    2.50
   0   6 -11    4.50    2.80
   0   6 -11    0.50    2.50
   0   6  11    1.00    2.50
   0   6 -11    2.20    2.70
   1  -6  11   38.30    4.90
   1  -6  11   44.60    5.50
  -1  -6 -11   39.80    5.40
   1  -6  11   45.80    5.70
  -1  -6 -11   38.10    4.30
  -1  -6 -11   44.70    5.50
   1   6  11   38.80    4.50
  -1   6 -11   36.60    5.20
  -1   6 -11   31.70    5.10
  -1   6 -11   37.20    5.00
   1   6  11   39.70    5.20
  -2  -6 -11   29.00    4.60
  -2  -6 -11   26.00    4.20
   2  -6  11   32.80    5.00
  -2  -6 -11   27.30    4.60
   2  -6  11   25.90    4.40
   2  -6  11   34.70    5.20
   2   6  11   33.80    4.30
  -2   6 -11   34.60    5.30
  -2   6 -11   39.90    5.50
  -2   6 -11   35.80    5.30
   2   6  11   38.90    5.30
   3  -6  11    6.20    3.50
  -3  -6 -11   10.50    3.60
   3  -6  11   11.60    3.60
  -3  -6 -11   12.50    3.40
  -3  -6 -11    5.80    3.50
   3  -6  11    0.70    2.50
  -3   6 -11    6.60    3.20
  -3   6 -11    7.40    2.90
  -3   6 -11   11.20    3.50
   3   6  11    9.10    3.40
  -4  -6 -11    2.10    2.50
   4  -6  11    2.50    2.30
   4  -6  11    3.50    3.40
   4   6  11    2.90    2.80
   3  -7 -11    1.10    2.60
   3  -7 -11   -0.60    2.70
   3   7 -11   -0.40    3.00
  -3   7  11   -1.70    2.80
   2  -7 -11    4.70    2.90
   2  -7 -11    4.30    2.90
   2   7 -11   -0.20    2.90
  -2   7  11    4.20    2.70
  -2   7  11   -1.40    2.30
  -1   7  11    2.70    2.70
   1   7 -11   -1.00    2.40
   1   7 -11   -0.10    2.80
  -1   7  11   -3.40    2.10
   1   7 -11    1.40    2.90
   0   7 -11   31.60    5.20
   0   7 -11   16.50    4.50
   0   7  11   24.00    4.30
   0   7  11   27.20    5.00
  12   0 -12   -1.90    2.40
  12   0 -12    6.20    3.30
  11   0 -12   26.10    4.40
  11   0 -12   25.30    4.30
 -11   0  12   26.80    4.10
 -11   0  12   26.30    4.50
  10   0 -12   14.60    3.50
  10   0 -12   13.90    3.30
 -10   0  12   14.30    2.10
 -10   0  12   15.60    3.30
  -9   0  12   10.00    2.70
   9   0 -12    1.20    1.60
  -9   0  12    3.30    1.40
   9   0 -12    2.90    2.20
  -8   0  12    0.40    1.80
   8   0 -12   -1.20    1.60
   8   0 -12    1.60    1.90
   8   0 -12    0.20    1.30
  -8   0  12    0.30    1.20
  -7   0  12   76.39    5.10
   7   0 -12   80.39    5.20
  -7   0  12   85.79    3.70
  -7   0  12   83.09    4.60
   7   0 -12   84.29    4.40
   7   0 -12   69.39    5.10
   7   0 -12   80.89    4.50
  -6   0  12  274.27    8.70
  -6   0  12  257.07   10.00
   6   0 -12  273.37    9.80
   6   0 -12  248.68   10.30
  -6   0  12  278.97    9.90
  -6   0  12  255.17   10.20
  -6   0  12  268.47    8.50
   6   0 -12  275.07    9.50
  -6   0  12  264.17    7.60
   5   0 -12  108.79    5.90
   5   0 -12  124.29    4.80
  -5   0  12  126.49    5.00
  -5   0  12  122.79    4.80
  -5   0  12  117.49    5.80
  -5   0  12  123.39    5.80
   5   0 -12  120.99    5.90
  -4   0  12   12.00    2.10
  -4   0  12   14.30    2.40
   4   0 -12   12.30    1.70
   4   0 -12   13.90    2.40
   4   0 -12   18.20    2.50
  -4   0  12   13.40    1.90
  -4   0  12   12.10    1.60
  -3   0  12  471.95   14.50
  -3   0  12  466.15   14.60
   3   0 -12  490.65   14.30
  -3   0  12  455.25   15.20
   3   0 -12  470.15   12.90
   3   0 -12  484.25   15.00
   3   0 -12  472.65   15.30
   2   0 -12   38.80    3.60
  -2   0  12   31.90    3.10
  -2   0  12   29.40    3.30
   2   0 -12   33.90    2.00
   2   0 -12   33.60    3.00
  -2   0  12   29.60    2.80
  -1   0  12  833.82   24.50
  -1   0  12  824.32   24.00
   1   0 -12  831.02   22.70
  -1   0  12  817.72   22.90
   1   0 -12  832.02   23.20
   1   0 -12  812.32   24.40
   0   0 -12   17.90    2.60
   0   0  12   15.10    1.70
   0   0  12   12.70    2.30
   0   0 -12   15.00    1.80
   0   0 -12   18.90    2.10
   0   0  12   16.80    2.50
  -1   0 -12   12.20    1.60
  -1   0 -12   10.90    2.30
   1   0  12   11.50    2.30
  -1   0 -12   15.90    2.20
   1   0  12   13.30    2.50
   1   0  12    9.90    1.30
  -2   0 -12   61.69    4.00
  -2   0 -12   56.49    4.40
  -2   0 -12   61.29    3.90
   2   0  12   53.49    2.20
   2   0  12   50.19    4.60
   2   0  12   59.29    4.40
  -3   0 -12   86.39    5.20
  -3   0 -12  101.19    5.20
  -3   0 -12   92.39    5.70
   3   0  12   94.69    5.70
   3   0  12   87.39    5.60
   4   0  12  203.28    9.30
  -4   0 -12  227.68    9.20
  -4   0 -12  207.58    9.10
   4   0  12  209.88    9.10
  -4   0 -12  203.28    8.20
  -5   0 -12   -0.60    1.60
   5   0  12   -2.10    1.80
   5   0  12    1.50    1.70
  -5   0 -12    2.30    1.70
   5   0  12    2.00    1.50
  -5   0 -12    0.00    1.80
  -6   0 -12   17.70    3.50
   6   0  12   23.90    3.80
   6   0  12   23.10    3.40
  -6   0 -12   23.50    3.20
  -6   0 -12   24.50    3.60
  -7   0 -12   39.70    4.50
   7   0  12   31.00    4.10
  -7   0 -12   35.50    4.90
   7   0  12   28.30    4.50
   8   0  12   10.20    2.70
  -8   0 -12    7.20    2.60
  -8   0 -12    6.70    3.10
   8   0  12   10.10    3.20
  12  -1 -12    8.00    3.60
  12  -1 -12   17.90    4.00
  12   1 -12   17.70    4.30
  12   1 -12   18.60    4.00
  11  -1 -12    9.30    2.90
  11  -1 -12    4.20    2.80
 -11  -1  12    5.00    2.70
  11   1 -12    8.60    2.80
 -11   1  12   13.50    3.80
  11   1 -12    8.40    2.90
 -11   1  12    6.00    2.60
 -11   1  12    8.60    3.20
 -10  -1  12   -0.40    1.00
  10  -1 -12    0.80    1.60
 -10  -1  12    1.50    2.20
  10  -1 -12   -1.00    2.00
 -10   1  12    0.90    1.40
  10   1 -12    1.80    2.40
 -10   1  12    1.10    2.10
 -10   1  12    1.30    2.30
  10   1 -12    0.70    2.20
  10   1 -12    0.30    1.70
   9  -1 -12    5.70    2.40
   9  -1 -12    3.30    2.30
  -9  -1  12   -0.50    1.10
  -9  -1  12    3.40    2.30
   9   1 -12   -1.40    1.90
  -9   1  12    2.10    1.40
   9   1 -12    1.30    1.50
  -9   1  12    3.20    2.10
  -8  -1  12   64.69    5.00
  -8  -1  12   65.99    3.90
   8  -1 -12   68.09    5.10
   8  -1 -12   75.69    5.40
  -8  -1  12   63.49    3.90
   8   1 -12   56.49    5.40
  -8   1  12   63.29    4.20
  -8   1  12   69.09    5.10
   8   1 -12   68.29    4.50
   7  -1 -12    5.20    1.80
  -7  -1  12    6.30    1.90
   7  -1 -12    8.90    2.40
  -7  -1  12    3.40    1.50
   7  -1 -12    7.60    2.50
  -7  -1  12    6.30    1.70
   7   1 -12    6.20    1.90
  -7   1  12    4.20    1.60
  -7   1  12    5.20    1.90
   7   1 -12    1.30    1.90
  -7   1  12    5.80    2.10
   6  -1 -12   28.30    2.60
   6  -1 -12   24.20    3.20
   6  -1 -12   20.20    3.10
   6  -1 -12   24.50    3.10
  -6  -1  12   21.70    2.80
  -6  -1  12   24.60    2.60
  -6  -1  12   22.00    2.90
   6   1 -12   28.90    3.00
  -6   1  12   26.20    4.00
  -6   1  12   27.50    2.70
   6   1 -12   24.00    3.00
  -6   1  12   21.90    3.10
   6   1 -12   26.60    3.50
  -6   1  12   21.40    2.90
  -5  -1  12   61.09    4.10
   5  -1 -12   67.79    4.40
  -5  -1  12   67.49    4.30
  -5  -1  12   70.39    4.30
  -5  -1  12   66.39    3.30
  -5  -1  12   63.49    3.70
   5  -1 -12   68.49    4.60
   5  -1 -12   70.89    2.80
  -5   1  12   63.69    3.80
  -5   1  12   66.79    3.10
  -5   1  12   72.09    4.50
   5   1 -12   62.59    4.40
   5   1 -12   74.09    4.40
  -5   1  12   75.29    4.60
   5   1 -12   61.59    4.20
   4  -1 -12  226.98    9.20
   4  -1 -12  256.57    7.70
  -4  -1  12  260.07    8.40
   4  -1 -12  267.17    9.80
  -4  -1  12  246.48    9.20
   4  -1 -12  239.38    7.80
  -4  -1  12  248.78    8.70
  -4  -1  12  239.68    9.30
   4   1 -12  250.87    9.40
  -4   1  12  248.48    7.90
  -4   1  12  233.78    9.30
  -4   1  12  248.98    9.20
  -4   1  12  244.58    8.90
   4   1 -12  256.37    9.50
  -3  -1  12   11.50    2.00
  -3  -1  12   17.70    2.20
   3  -1 -12   13.60    2.30
  -3  -1  12   17.50    2.60
   3  -1 -12   19.30    2.00
  -3  -1  12   15.00    2.10
   3  -1 -12   16.20    1.70
   3  -1 -12   13.80    2.40
  -3   1  12   19.40    2.50
  -3   1  12   14.90    2.50
   3   1 -12   17.90    2.40
  -3   1  12   13.00    2.10
   3   1 -12   15.10    2.40
  -3   1  12   15.80    1.70
   2  -1 -12  363.66   12.70
  -2  -1  12  368.46   12.70
  -2  -1  12  366.06   12.10
  -2  -1  12  382.46   11.80
   2  -1 -12  380.56   11.50
   2  -1 -12  374.66   12.10
  -2  -1  12  360.86   12.00
   2  -1 -12  381.26   11.30
  -2   1  12  367.56   12.30
  -2   1  12  372.86   11.80
  -2   1  12  362.56   11.30
   2   1 -12  360.56   12.70
   2   1 -12  370.46   10.20
   2   1 -12  361.66   11.90
  -2   1  12  366.26   12.80
   1  -1 -12   -0.80    0.90
  -1  -1  12   -0.50    1.00
  -1  -1  12   -0.70    1.40
  -1  -1  12   -0.30    0.90
  -1  -1  12    1.90    1.30
   1  -1 -12    0.70    1.20
   1  -1 -12   -0.30    1.00
   1   1 -12    1.20    0.80
  -1   1  12    0.40    1.40
  -1   1  12    0.30    0.90
   1   1 -12    0.60    1.10
  -1   1  12   -0.60    1.20
   1   1 -12    0.30    1.10
   0  -1  12   14.40    2.40
   0  -1 -12    9.90    2.20
   0  -1 -12   12.60    1.90
   0  -1 -12   13.60    1.90
   0  -1 -12   11.50    1.60
   0  -1  12   10.80    2.20
   0   1  12   12.00    2.40
   0   1  12   16.90    2.50
   0   1 -12   16.80    2.60
   0   1  12   12.70    1.60
   0   1 -12   12.70    1.70
   0   1 -12   15.90    1.90
  -1  -1 -12   13.80    1.80
  -1  -1 -12   19.90    2.80
   1  -1  12   12.30    2.40
   1  -1  12   17.60    2.70
   1  -1  12   16.30    1.50
  -1  -1 -12   15.30    2.30
  -1   1 -12   18.60    1.90
  -1   1 -12   17.10    2.60
  -1   1 -12   16.50    2.70
   1   1  12   14.10    1.60
  -1   1 -12   15.10    2.10
   1   1  12   17.80    2.80
   1   1  12   12.80    2.50
   2  -1  12  366.06   13.00
   2  -1  12  358.66    9.80
  -2  -1 -12  362.06   13.00
   2  -1  12  363.46   12.90
  -2  -1 -12  367.66   12.40
  -2   1 -12  348.57   12.40
  -2   1 -12  354.96   12.00
   2   1  12  359.96   12.90
   2   1  12  362.46   10.30
   2   1  12  343.67   12.70
  -2   1 -12  348.67   12.90
  -3  -1 -12  721.33   22.60
   3  -1  12  725.03   22.60
   3  -1  12  708.93   22.60
  -3  -1 -12  719.83   22.20
  -3   1 -12  761.02   22.10
   3   1  12  733.23   22.50
   3   1  12  701.73   22.70
  -3   1 -12  747.43   22.20
  -3   1 -12  721.83   22.70
   4  -1  12  102.89    6.00
  -4  -1 -12   94.19    5.80
   4  -1  12   95.89    6.10
  -4  -1 -12  111.99    6.20
   4   1  12   94.89    4.70
   4   1  12   98.09    5.80
   4   1  12   90.79    5.90
  -4   1 -12   97.09    5.70
  -4   1 -12   88.39    5.80
  -4   1 -12   91.49    5.50
  -5  -1 -12   -0.30    1.70
   5  -1  12   -1.80    1.10
   5  -1  12   -1.00    1.40
  -5  -1 -12   -0.10    1.60
  -5   1 -12   -1.50    1.40
  -5   1 -12   -1.40    1.60
   5   1  12   -0.60    1.80
   5   1  12   -0.80    1.50
  -5   1 -12    0.80    1.70
   6  -1  12   -2.00    1.40
   6  -1  12   -1.20    1.90
  -6  -1 -12   -3.10    1.60
  -6  -1 -12   -0.80    1.70
   6   1  12    1.30    2.10
  -6   1 -12   -0.40    1.60
  -6   1 -12   -1.00    1.20
  -6   1 -12    0.30    1.70
  -7  -1 -12    2.20    2.40
  -7  -1 -12    1.70    1.80
   7  -1  12   -0.30    2.30
   7  -1  12    1.10    1.80
  -7   1 -12    1.40    2.30
  -7   1 -12   -2.00    1.90
  -7   1 -12   -0.40    1.70
   7   1  12    1.30    2.30
   8  -1  12    1.00    2.60
  -8  -1 -12    4.40    2.30
  -8  -1 -12    3.70    2.80
   8  -1  12    2.50    2.70
  -8   1 -12    2.70    2.20
  -8   1 -12    3.70    2.40
   8   1  12    4.40    2.60
  11  -2 -12   41.80    5.50
  11  -2 -12   33.90    5.10
 -11  -2  12   39.30    5.10
 -11   2  12   39.90    5.20
 -11   2  12   47.50    3.80
 -11   2  12   39.40    5.40
  11   2 -12   35.30    4.70
  11   2 -12   39.20    5.10
  10  -2 -12    3.00    2.60
  10  -2 -12    3.90    2.50
 -10  -2  12   -0.50    2.20
 -10  -2  12    0.10    1.70
  10   2 -12    0.60    2.30
  10   2 -12    3.70    2.40
 -10   2  12    2.20    1.70
 -10   2  12    0.00    1.80
 -10   2  12    1.80    2.30
  -9  -2  12    1.60    1.80
  -9  -2  12    0.60    1.50
   9  -2 -12   -0.40    1.80
   9  -2 -12   -4.10    1.60
  -9  -2  12   -0.30    1.10
   9   2 -12   -0.30    2.00
  -9   2  12   -0.50    1.90
  -9   2  12    0.70    1.60
   9   2 -12   -2.00    1.70
  -9   2  12   -0.20    1.60
   8  -2 -12    0.00    2.00
  -8  -2  12   -2.20    1.40
  -8  -2  12   -0.30    1.10
   8  -2 -12   -1.70    1.50
  -8  -2  12    1.90    1.70
   8   2 -12   -4.00    1.20
  -8   2  12   -1.20    1.40
   8   2 -12   -1.50    1.20
  -8   2  12   -0.40    1.30
  -8   2  12    3.20    2.20
   7  -2 -12   16.40    2.70
  -7  -2  12   13.20    2.80
   7  -2 -12   21.00    3.00
  -7  -2  12   13.40    2.30
  -7  -2  12   15.40    2.60
   7  -2 -12   10.50    2.50
   7   2 -12   10.70    2.80
  -7   2  12   15.80    2.70
   7   2 -12   10.10    2.50
  -7   2  12   14.10    2.90
   6  -2 -12   62.79    4.50
  -6  -2  12   68.49    4.30
   6  -2 -12   61.09    4.80
  -6  -2  12   60.09    4.20
   6  -2 -12   59.89    4.30
  -6  -2  12   69.49    4.60
   6   2 -12   69.39    4.90
  -6   2  12   69.49    4.80
   6   2 -12   72.09    4.40
   6   2 -12   60.29    4.60
  -6   2  12   72.39    4.70
   5  -2 -12  281.17   10.10
  -5  -2  12  284.17   10.20
   5  -2 -12  293.87   10.90
  -5  -2  12  286.27   10.70
   5  -2 -12  282.57   10.90
   5  -2 -12  277.77    9.50
  -5  -2  12  278.97   11.10
  -5  -2  12  283.57   10.40
   5   2 -12  290.77   11.00
   5   2 -12  279.97   10.30
  -5   2  12  288.77   10.80
   5   2 -12  274.77   10.80
  -5   2  12  285.27   10.70
   4  -2 -12   19.50    2.80
   4  -2 -12   22.40    1.60
   4  -2 -12   22.40    2.40
   4  -2 -12   22.40    3.00
  -4  -2  12   19.80    2.80
  -4  -2  12   18.80    2.50
  -4  -2  12   19.90    2.70
  -4  -2  12   20.50    2.20
   4   2 -12   25.40    3.30
   4   2 -12   22.40    3.00
  -4   2  12   26.60    3.30
  -4   2  12   24.50    2.90
   4   2 -12   26.70    3.20
  -3  -2  12   -1.00    1.10
   3  -2 -12    0.00    1.30
   3  -2 -12    0.50    0.80
  -3  -2  12   -1.50    1.10
  -3  -2  12   -3.00    1.00
  -3  -2  12    1.10    1.10
   3  -2 -12    1.90    1.50
   3  -2 -12    0.40    0.90
  -3   2  12    1.20    1.40
   3   2 -12    1.30    1.30
   3   2 -12    2.00    1.50
  -3   2  12    0.20    1.50
  -3   2  12    0.70    1.30
   2  -2 -12   70.29    4.20
  -2  -2  12   80.49    4.80
  -2  -2  12   71.29    4.50
   2  -2 -12   72.39    3.50
   2  -2 -12   65.59    4.70
   2  -2 -12   64.39    3.90
  -2  -2  12   69.69    4.00
   2   2 -12   67.79    4.60
   2   2 -12   69.59    2.60
  -2   2  12   79.39    4.60
   2   2 -12   71.19    2.60
  -2   2  12   62.69    3.90
   2   2 -12   65.39    4.00
  -2   2  12   69.79    4.70
  -1  -2  12   27.40    3.30
   1  -2 -12   32.50    3.10
   1  -2 -12   36.40    3.30
   1  -2 -12   29.70    3.60
  -1  -2  12   40.60    3.60
  -1  -2  12   33.80    3.70
  -1   2  12   31.40    3.60
   1   2 -12   34.10    2.20
  -1   2  12   32.90    2.90
   1   2 -12   38.20    2.20
   1   2 -12   40.90    3.90
  -1   2  12   33.90    3.60
   1   2 -12   33.40    3.00
   0  -2 -12    1.50    1.70
   0  -2  12   -1.20    0.80
   0  -2  12   -1.70    1.20
   0  -2  12    1.30    1.40
   0  -2  12    1.60    1.70
   0  -2 -12   -0.90    0.90
   0  -2 -12    1.00    1.30
   0   2 -12    0.00    1.40
   0   2 -12    1.20    0.90
   0   2  12    0.20    1.40
   0   2 -12   -0.50    1.00
   0   2 -12    1.00    1.00
   0   2  12    0.30    1.50
   0   2  12    0.30    1.10
   0   2  12   -0.40    0.80
   1  -2  12   -1.40    1.00
  -1  -2 -12    0.90    1.10
   1  -2  12    1.10    1.30
  -1  -2 -12   -1.00    1.40
   1  -2  12    0.50    0.80
  -1  -2 -12    0.90    1.70
   1  -2  12    0.30    1.70
   1   2  12    1.10    1.00
  -1   2 -12    2.10    1.10
  -1   2 -12    0.90    1.60
   1   2  12   -0.10    0.90
   1   2  12    1.20    1.70
  -1   2 -12   -0.60    1.50
   1   2  12   -0.40    1.60
   2  -2  12 1139.99   29.50
   2  -2  12 1087.69   32.50
  -2  -2 -12 1130.99   32.30
  -2  -2 -12 1111.79   32.60
   2  -2  12 1108.49   32.70
  -2   2 -12 1160.28   32.70
   2   2  12 1147.39   32.70
  -2   2 -12 1134.49   32.80
   2   2  12 1097.39   30.00
   2   2  12 1077.39   32.50
  -3  -2 -12    4.90    2.10
   3  -2  12    2.60    2.00
  -3  -2 -12   -1.10    1.60
   3  -2  12    3.30    2.10
  -3   2 -12   -0.70    1.60
   3   2  12    0.80    1.70
  -3   2 -12   -2.60    1.60
   3   2  12   -0.20    1.70
   4  -2  12    0.30    2.00
  -4  -2 -12    1.10    1.80
   4  -2  12    8.00    2.40
  -4  -2 -12    6.70    2.40
   4   2  12    5.10    2.30
   4   2  12    3.80    2.10
  -4   2 -12    6.60    2.30
  -4   2 -12    3.60    2.20
   5  -2  12   35.20    4.60
  -5  -2 -12   45.60    5.00
  -5  -2 -12   38.10    4.30
   5  -2  12   44.20    4.90
   5   2  12   45.80    5.00
  -5   2 -12   38.40    4.40
  -5   2 -12   46.40    4.70
  -5   2 -12   40.90    4.60
  -6  -2 -12   90.79    6.10
  -6  -2 -12   80.79    6.30
   6  -2  12   82.89    6.40
  -6   2 -12   83.89    6.00
  -6   2 -12   84.59    6.00
   6   2  12   82.79    6.20
  -6   2 -12   74.59    5.70
   7  -2  12    3.20    2.70
  -7  -2 -12   -0.60    2.30
   7  -2  12    8.40    3.00
  -7  -2 -12    8.00    2.60
  -7   2 -12    6.20    2.70
  -7   2 -12    7.00    3.00
   7   2  12   10.10    3.10
  -7   2 -12    6.10    2.50
   8  -2  12   -5.90    1.90
  -8  -2 -12    0.40    2.00
   8  -2  12    1.30    2.60
  -8   2 -12   -0.40    2.40
   8   2  12   -1.10    2.10
  -8   2 -12    3.10    2.50
  11  -3 -12    2.00    2.80
  11  -3 -12    1.60    2.50
  11   3 -12    7.40    3.00
  11   3 -12    3.60    3.00
 -11   3  12    4.00    2.20
 -10  -3  12  143.09    8.50
  10  -3 -12  137.59    8.60
 -10  -3  12  151.98    8.10
  10  -3 -12  146.59    8.50
  10   3 -12  125.49    8.20
 -10   3  12  150.58    7.40
 -10   3  12  155.78    8.70
  10   3 -12  138.59    8.20
 -10   3  12  169.88    9.40
  -9  -3  12    0.90    2.20
   9  -3 -12    2.20    2.40
  -9  -3  12    3.50    1.50
  -9  -3  12    1.70    1.80
   9  -3 -12    5.70    2.50
  -9   3  12    3.60    2.50
   9   3 -12    3.80    2.30
  -9   3  12    2.70    2.00
  -9   3  12    2.10    1.90
   9   3 -12    2.20    2.40
  -8  -3  12   30.90    3.80
  -8  -3  12   26.40    4.00
  -8  -3  12   19.90    2.70
   8  -3 -12   23.00    3.70
   8  -3 -12   25.60    3.60
   8   3 -12   29.30    4.00
  -8   3  12   26.10    3.60
   8   3 -12   34.10    4.60
  -8   3  12   24.60    3.90
  -8   3  12   30.80    4.20
  -7  -3  12    7.40    2.00
  -7  -3  12    6.80    2.30
   7  -3 -12    4.70    2.20
   7  -3 -12   10.40    2.40
   7  -3 -12    9.20    2.30
  -7   3  12    6.30    2.10
  -7   3  12    4.90    2.20
   7   3 -12    8.70    2.40
  -7   3  12    9.40    2.60
   7   3 -12    7.20    2.80
  -6  -3  12   96.99    5.50
   6  -3 -12   99.19    5.40
   6  -3 -12   95.89    6.10
   6  -3 -12   92.79    5.80
  -6  -3  12  100.59    5.90
  -6   3  12  106.49    6.20
   6   3 -12   86.09    5.60
   6   3 -12   94.09    6.20
  -6   3  12  107.99    6.20
  -6   3  12  103.19    6.10
   5  -3 -12  318.47   11.00
   5  -3 -12  320.67   12.20
   5  -3 -12  318.57   11.20
   5  -3 -12  308.47   12.20
  -5  -3  12  325.17   12.00
  -5  -3  12  312.57   11.70
   5   3 -12  332.97   12.30
   5   3 -12  329.87   11.80
  -5   3  12  336.57   12.40
  -5   3  12  348.77   12.10
   5   3 -12  315.97   12.50
  -5   3  12  320.47   11.90
   4  -3 -12  321.57   10.30
  -4  -3  12  317.07   11.70
   4  -3 -12  301.17   11.50
   4  -3 -12  313.97   11.90
  -4  -3  12  308.67   11.50
   4  -3 -12  313.77   11.00
  -4  -3  12  320.57   10.20
  -4   3  12  320.47   12.00
   4   3 -12  295.27   11.50
  -4   3  12  317.47   11.30
   4   3 -12  320.77   11.60
   4   3 -12  283.47   11.80
  -4   3  12  311.97   11.60
   3  -3 -12  397.76   13.00
   3  -3 -12  389.16   14.00
  -3  -3  12  385.16   13.50
   3  -3 -12  396.26   11.30
   3  -3 -12  381.86   13.40
  -3  -3  12  397.56   12.60
  -3  -3  12  390.66   13.70
  -3   3  12  373.86   13.20
   3   3 -12  397.96   13.70
   3   3 -12  370.36   13.20
   3   3 -12  384.76   14.10
  -3   3  12  383.16   13.90
  -2  -3  12   -1.80    1.50
  -2  -3  12    1.20    1.60
   2  -3 -12   -2.90    1.10
   2  -3 -12   -0.40    1.20
  -2  -3  12   -0.60    1.30
   2  -3 -12    1.20    1.50
  -2   3  12   -1.50    1.40
  -2   3  12   -1.40    1.20
   2   3 -12   -1.50    1.10
  -1  -3  12    0.10    1.40
   1  -3 -12   -0.10    1.60
   1  -3 -12    1.70    1.50
  -1  -3  12    0.30    1.70
   1  -3 -12   -0.40    1.40
  -1  -3  12    0.00    1.60
  -1   3  12    0.00    1.30
   1   3 -12    1.10    1.70
   1   3 -12    3.00    1.40
  -1   3  12    0.70    1.30
  -1   3  12    0.40    1.70
   0  -3 -12    4.90    1.90
   0  -3  12    5.70    2.00
   0  -3  12    8.50    2.20
   0  -3 -12    9.70    2.00
   0  -3 -12    4.10    2.00
   0  -3  12    6.00    2.30
   0   3  12    6.30    2.20
   0   3  12    8.00    1.70
   0   3  12    7.70    2.40
   0   3 -12    3.70    2.10
   1  -3  12   53.19    4.30
   1  -3  12   51.69    4.90
  -1  -3 -12   54.49    3.60
  -1  -3 -12   55.79    5.10
   1  -3  12   48.70    4.70
  -1  -3 -12   55.79    4.40
   1   3  12   58.69    5.20
   1   3  12   58.69    3.60
  -1   3 -12   59.49    5.30
   1   3  12   46.50    4.80
   2  -3  12   48.90    4.80
   2  -3  12   51.19    5.00
  -2  -3 -12   47.90    4.70
  -2  -3 -12   47.50    4.80
   2  -3  12   46.10    4.90
  -2  -3 -12   42.20    3.20
   2   3  12   37.50    4.30
   2   3  12   51.69    3.30
  -2   3 -12   46.70    4.80
   2   3  12   44.10    4.70
   3  -3  12   83.69    5.90
  -3  -3 -12   91.29    5.70
  -3  -3 -12   92.99    5.90
   3  -3  12   78.79    5.70
   3   3  12   87.29    5.80
  -3   3 -12   93.09    6.10
   3   3  12   86.79    4.20
  -3   3 -12   73.09    5.60
   3   3  12   70.09    5.20
  -4  -3 -12   22.80    3.50
   4  -3  12   14.50    3.20
   4  -3  12   20.40    3.60
  -4  -3 -12   18.50    3.30
  -4   3 -12   13.20    3.10
  -4   3 -12   16.50    3.10
   4   3  12   12.30    3.00
   4   3  12   17.00    3.10
   5  -3  12  323.57   12.90
   5  -3  12  296.37   12.90
  -5  -3 -12  300.57   12.20
  -5  -3 -12  299.87   12.90
  -5   3 -12  324.77   13.00
  -5   3 -12  314.87   13.00
   5   3  12  300.57   12.70
  -6  -3 -12  168.28    9.50
   6  -3  12  168.98    9.50
  -6  -3 -12  171.48    8.70
  -6   3 -12  176.18    9.20
   6   3  12  161.58    9.00
  -6   3 -12  168.38    9.20
  -7  -3 -12   -1.60    1.90
  -7  -3 -12    5.90    2.50
   7  -3  12    4.00    3.00
   7  -3  12    1.80    2.60
  -7   3 -12   -0.70    2.60
  -7   3 -12   -1.30    2.30
   7   3  12    4.30    2.70
 -10  -4  12   -2.40    2.20
  10  -4 -12    3.90    2.90
  10  -4 -12    0.80    2.40
  10   4 -12    2.60    2.80
  10   4 -12    2.90    2.70
 -10   4  12    5.20    2.60
  -9  -4  12    1.10    1.50
   9  -4 -12    0.90    2.00
   9  -4 -12    0.30    2.10
  -9  -4  12    1.10    2.30
   9   4 -12   -0.30    2.30
  -9   4  12    3.90    2.80
  -9   4  12    1.10    2.00
  -9   4  12   -3.30    2.10
   9   4 -12    4.00    2.80
   8  -4 -12   67.69    6.50
  -8  -4  12   69.59    4.70
  -8  -4  12   82.39    6.00
   8  -4 -12   87.29    5.90
  -8   4  12   71.79    6.40
  -8   4  12   70.29    5.60
   8   4 -12   71.49    6.70
  -8   4  12   85.09    6.30
   8   4 -12   61.19    6.40
  -7  -4  12    0.40    1.60
   7  -4 -12   -1.90    2.00
   7  -4 -12   -2.60    1.20
  -7  -4  12    1.80    2.10
   7   4 -12   -0.80    2.10
  -7   4  12   -1.30    1.80
  -7   4  12    0.90    1.70
  -7   4  12   -1.10    1.90
   7   4 -12    1.00    2.10
   6  -4 -12   33.50    3.90
  -6  -4  12   33.40    4.40
   6  -4 -12   32.90    4.50
   6  -4 -12   44.30    4.10
  -6  -4  12   34.60    3.80
   6  -4 -12   42.50    4.70
   6   4 -12   38.50    4.90
  -6   4  12   33.40    4.30
  -6   4  12   34.00    4.30
  -6   4  12   33.20    4.10
   6   4 -12   34.20    4.50
  -5  -4  12   -2.50    1.30
   5  -4 -12   -1.40    1.80
   5  -4 -12   -1.50    1.70
  -5  -4  12   -4.70    1.50
   5  -4 -12    0.20    1.50
   5  -4 -12    1.10    1.40
   5   4 -12   -1.70    1.80
   5   4 -12   -1.30    1.60
  -5   4  12    0.70    1.90
  -5   4  12   -2.80    1.70
  -5   4  12   -0.80    1.60
  -4  -4  12   93.69    5.80
   4  -4 -12   94.49    6.00
  -4  -4  12   88.79    4.60
   4  -4 -12   86.09    5.40
   4  -4 -12   99.49    6.30
  -4  -4  12   87.29    5.60
  -4   4  12   87.49    5.70
  -4   4  12   84.69    5.90
  -4   4  12   87.79    5.20
   4   4 -12   82.59    5.60
   4   4 -12   87.69    5.60
   4   4 -12   98.89    6.50
   3  -4 -12   83.89    5.90
  -3  -4  12   81.79    5.40
   3  -4 -12   68.39    5.10
  -3  -4  12   74.09    4.50
   3  -4 -12   74.89    5.00
  -3  -4  12   76.99    5.50
   3   4 -12   67.69    4.90
   3   4 -12   64.39    5.10
   3   4 -12   73.49    5.70
  -3   4  12   72.59    5.10
  -3   4  12   72.89    5.50
  -3   4  12   70.19    4.30
   2  -4 -12   64.59    4.60
  -2  -4  12   55.09    5.00
  -2  -4  12   49.10    4.90
   2  -4 -12   51.69    3.20
   2  -4 -12   44.10    4.40
   2  -4 -12   51.89    5.20
  -2  -4  12   49.60    3.90
   2   4 -12   50.59    5.30
   2   4 -12   53.89    4.20
  -2   4  12   64.49    5.10
  -2   4  12   57.39    4.30
   2   4 -12   54.09    5.10
  -2   4  12   53.49    3.50
   1  -4 -12    5.10    2.40
  -1  -4  12    5.80    2.40
   1  -4 -12    6.70    1.70
  -1  -4  12    8.00    2.30
   1  -4 -12    6.50    2.30
   1  -4 -12    7.30    2.10
  -1  -4  12    5.80    2.00
   1   4 -12    8.60    2.80
   1   4 -12   10.40    2.70
  -1   4  12    9.90    2.20
  -1   4  12    4.70    1.40
  -1   4  12    4.60    2.20
   0  -4 -12   90.09    5.20
   0  -4 -12   86.69    5.70
   0  -4 -12   79.99    5.80
   0  -4  12   87.79    5.50
   0  -4  12   85.69    6.00
   0  -4  12   90.29    5.80
   0  -4 -12   86.39    4.80
   0   4  12   85.19    5.00
   0   4 -12   87.09    6.00
   0   4  12   89.29    6.00
   0   4 -12   81.69    5.90
   1  -4  12   23.50    3.60
   1  -4  12   22.50    3.50
   1  -4  12   25.70    3.90
  -1  -4 -12   24.00    3.70
  -1  -4 -12   27.90    3.30
  -1  -4 -12   20.60    3.50
  -1  -4 -12   17.40    2.70
   1   4  12   14.40    3.20
  -1   4 -12   22.20    3.60
  -1   4 -12   20.20    3.40
   1   4  12   16.80    3.20
   1   4  12   21.30    2.70
   2  -4  12   88.19    5.90
   2  -4  12   82.39    5.80
  -2  -4 -12   89.19    6.20
  -2  -4 -12   84.69    5.70
   2  -4  12   84.59    6.20
  -2  -4 -12   84.69    6.00
  -2  -4 -12   91.89    5.00
  -2   4 -12  100.29    6.60
  -2   4 -12   92.19    6.50
   2   4  12   93.19    6.30
   2   4  12   87.29    4.80
   2   4  12   92.99    6.20
  -3  -4 -12    0.80    2.00
   3  -4  12    1.10    2.00
   3  -4  12    3.40    2.10
   3  -4  12    6.30    2.70
  -3  -4 -12   -0.20    2.00
  -3  -4 -12    1.30    2.00
   3   4  12    0.50    1.50
  -3   4 -12    0.90    2.20
  -3   4 -12    0.60    2.20
   3   4  12    3.00    2.30
  -4  -4 -12   16.00    3.30
   4  -4  12   15.50    3.60
   4  -4  12   12.30    3.30
  -4  -4 -12    9.80    3.20
   4   4  12    9.20    3.10
  -4   4 -12   19.80    3.90
  -4   4 -12   17.10    3.60
   5  -4  12   27.70    4.50
  -5  -4 -12   21.50    3.80
   5  -4  12   24.20    4.00
  -5  -4 -12   25.60    4.40
  -5  -4 -12   21.10    3.80
  -5   4 -12   30.80    4.80
   5   4  12   23.60    4.30
  -6  -4 -12    9.00    3.00
  -6  -4 -12    3.00    2.80
  -6  -4 -12   14.30    4.30
   6  -4  12    5.20    2.60
  -6   4 -12    8.50    3.30
   6   4  12    8.60    3.10
  -9  -5  12    1.50    1.90
   8  -5 -12   12.20    3.70
   8  -5 -12   20.80    3.50
  -8  -5  12   14.60    2.80
  -8  -5  12    6.70    3.00
  -8   5  12   14.50    3.50
   8   5 -12   14.90    3.80
   8   5 -12   12.90    3.70
  -8   5  12   13.50    3.40
  -8   5  12   15.80    3.50
  -7  -5  12   13.90    3.60
  -7  -5  12   13.70    2.90
   7  -5 -12    9.00    3.20
   7   5 -12   11.20    3.50
  -7   5  12   17.40    3.40
   7   5 -12   15.40    3.70
  -7   5  12   20.90    3.90
  -7   5  12   17.40    3.40
   6  -5 -12  104.59    7.10
  -6  -5  12  105.99    7.20
   6  -5 -12  107.49    7.20
  -6  -5  12   97.89    6.40
   6  -5 -12  101.49    6.50
  -6   5  12  100.99    7.00
  -6   5  12  104.79    6.90
   6   5 -12   97.09    6.90
   6   5 -12  103.49    7.10
  -6   5  12   97.09    6.30
   5  -5 -12   26.40    4.20
   5  -5 -12   26.80    4.30
  -5  -5  12   28.60    4.30
   5  -5 -12   23.00    3.60
  -5  -5  12   19.50    3.40
   5   5 -12   24.20    4.30
  -5   5  12   32.60    4.60
   5   5 -12   21.70    3.90
  -5   5  12   24.30    3.80
  -5   5  12   24.10    3.50
   4  -5 -12    1.30    1.90
   4  -5 -12    1.10    1.60
  -4  -5  12   -0.10    1.90
  -4  -5  12    3.40    2.60
   4  -5 -12    3.50    2.40
  -4   5  12    3.20    2.50
  -4   5  12   -0.30    1.30
   4   5 -12    2.30    2.00
  -4   5  12   -2.30    1.80
   4   5 -12    1.60    2.30
   3  -5 -12   67.39    5.20
   3  -5 -12   63.19    6.10
   3  -5 -12   54.99    5.40
  -3  -5  12   59.99    6.00
  -3  -5  12   54.29    5.50
   3   5 -12   66.89    6.00
  -3   5  12   55.09    5.70
   3   5 -12   53.29    5.70
  -3   5  12   47.00    4.90
  -3   5  12   50.59    4.00
   2  -5 -12   31.00    4.40
  -2  -5  12   23.40    4.00
  -2  -5  12   27.20    4.20
   2  -5 -12   30.70    3.90
  -2  -5  12   25.80    3.40
   2  -5 -12   19.60    3.50
   2   5 -12   24.00    4.00
  -2   5  12   23.50    3.60
  -2   5  12   28.80    4.30
   2   5 -12   30.90    4.30
   1  -5 -12   11.90    2.80
  -1  -5  12   11.20    2.80
  -1  -5  12    7.90    2.80
   1  -5 -12   11.50    3.00
   1  -5 -12   11.30    3.10
  -1  -5  12   10.60    2.80
   1   5 -12    3.20    2.20
  -1   5  12   12.90    2.80
   1   5 -12    9.00    2.90
  -1   5  12   13.40    3.40
   1   5 -12   15.10    3.40
   0  -5 -12   -2.10    1.40
   0  -5 -12   -1.50    1.70
   0  -5  12    0.60    1.90
   0  -5  12    3.10    2.40
   0  -5 -12   -1.60    1.50
   0  -5  12    0.80    2.20
   0  -5 -12    0.90    2.20
   0   5 -12    0.50    2.30
   0   5  12    1.40    2.30
   0   5  12    0.50    1.80
   0   5 -12    0.90    2.20
   0   5 -12    2.00    1.90
  -1  -5 -12    2.50    1.80
   1  -5  12    2.40    2.50
   1  -5  12    1.40    2.10
  -1  -5 -12    4.10    2.50
  -1  -5 -12    5.10    2.60
  -1  -5 -12    6.30    2.30
   1  -5  12    2.60    2.20
   1   5  12    2.60    2.00
  -1   5 -12    2.60    2.10
   1   5  12    2.80    2.40
  -1   5 -12    0.80    1.80
  -2  -5 -12  173.38    9.30
  -2  -5 -12  177.18    9.40
   2  -5  12  169.68    9.00
  -2  -5 -12  189.68    8.80
   2  -5  12  175.48    9.40
   2  -5  12  182.38    9.70
  -2  -5 -12  171.68    8.10
   2   5  12  175.58    9.30
   2   5  12  175.78    8.00
  -2   5 -12  182.28    9.70
   2   5  12  167.88    9.00
  -2   5 -12  182.38    9.80
   3  -5  12   30.60    4.50
   3  -5  12   35.30    4.90
  -3  -5 -12   32.40    5.00
  -3  -5 -12   36.60    4.60
   3  -5  12   32.20    4.70
  -3  -5 -12   34.20    4.70
   3   5  12   23.90    4.10
  -3   5 -12   28.20    4.40
  -3   5 -12   43.10    5.40
  -4  -5 -12   11.40    3.20
  -4  -5 -12   12.10    3.70
   4  -5  12    7.70    3.30
  -4  -5 -12   12.90    3.50
   4  -5  12   12.30    3.50
  -4   5 -12   14.30    3.80
  -4   5 -12   13.60    3.80
   4   5  12    8.90    3.30
  -5  -5 -12   21.70    4.20
   5  -5  12   25.00    4.50
   5   5  12   22.80    4.30
  -6  -6  12   41.50    4.90
   6  -6 -12   40.50    5.20
   6  -6 -12   29.20    5.00
  -6  -6  12   36.70    5.50
   6   6 -12   34.70    5.60
  -6   6  12   35.20    4.50
  -5  -6  12   13.60    3.30
   5  -6 -12   13.80    3.60
  -5  -6  12   13.80    4.00
   5  -6 -12    9.20    3.10
   5  -6 -12   19.60    4.30
   5   6 -12   20.90    4.40
  -5   6  12   17.40    3.90
  -5   6  12   14.80    3.90
   4  -6 -12    0.80    2.40
  -4  -6  12    2.70    2.40
  -4  -6  12    0.10    2.80
   4  -6 -12   -3.00    2.00
   4  -6 -12    1.90    1.90
  -4   6  12   -2.10    2.40
  -4   6  12   -1.30    1.60
   4   6 -12   -3.00    2.40
   3  -6 -12   15.20    3.60
   3  -6 -12   13.70    3.20
   3  -6 -12   20.30    4.10
  -3  -6  12   13.10    3.70
  -3  -6  12   10.40    3.40
  -3   6  12   18.80    3.50
  -3   6  12   16.50    3.80
   3   6 -12   13.00    3.80
   2  -6 -12   22.90    3.80
   2  -6 -12   21.90    3.80
  -2  -6  12   18.20    4.10
   2  -6 -12   17.40    4.10
  -2  -6  12   19.60    4.10
  -2   6  12   21.70    4.30
   2   6 -12   23.60    4.20
  -2   6  12   22.10    3.80
   2   6 -12   14.00    3.40
   1  -6 -12   -1.40    2.00
   1  -6 -12    0.10    1.70
  -1  -6  12   -1.20    2.40
  -1  -6  12   -3.10    2.10
   1  -6 -12   -2.00    2.10
   1   6 -12    1.20    2.50
  -1   6  12    1.00    1.90
  -1   6  12   -0.80    2.30
   1   6 -12    4.00    2.90
   1   6 -12   -2.40    2.20
   0  -6  12    6.00    3.10
   0  -6  12    5.10    2.50
   0  -6  12    9.20    3.00
   0  -6 -12    8.60    3.10
   0  -6 -12    9.80    3.30
   0  -6 -12   10.60    3.50
   0   6 -12   11.30    3.40
   0   6  12    5.00    3.10
   0   6 -12    8.60    3.20
   0   6  12    4.30    2.60
   0   6 -12    9.90    3.60
   1  -6  12    0.30    2.30
  -1  -6 -12    2.60    2.50
  -1  -6 -12   -1.00    2.50
   1  -6  12    2.50    2.90
   1  -6  12    3.60    2.50
  -1   6 -12   10.90    3.80
  -1   6 -12    4.20    3.10
   1   6  12    4.70    2.40
  -1   6 -12    1.30    2.10
   1   6  12    1.20    2.70
   2  -6  12    6.30    2.70
  -2  -6 -12   -0.50    2.10
   2  -6  12    4.90    3.00
   2  -6  12    0.70    2.90
  -2  -6 -12    3.00    2.90
   2   6  12    2.40    2.20
   2   6  12   -0.20    2.60
  -2   6 -12    3.50    2.90
  -2   6 -12    1.60    3.10
  -2   6 -12    5.10    3.20
   3  -6  12   36.50    5.60
   3  -6  12   41.90    5.60
  -3  -6 -12   42.90    5.30
  -3   6 -12   48.50    6.20
   3   6  12   36.00    5.20
  11   0 -13    0.00    2.50
 -11   0  13    1.90    2.60
  11   0 -13    2.70    2.80
 -10   0  13   -0.30    1.50
 -10   0  13   -0.10    1.20
  10   0 -13    2.50    2.40
  10   0 -13    0.10    2.20
  -9   0  13    0.20    2.00
  -9   0  13    1.60    1.40
   9   0 -13   -2.70    1.70
   9   0 -13   -3.80    1.50
   8   0 -13   -0.90    1.20
   8   0 -13    1.20    1.50
  -8   0  13   -0.50    1.30
  -8   0  13    1.40    1.90
  -7   0  13    1.60    1.10
  -7   0  13    0.80    1.40
   7   0 -13   -1.10    1.60
  -7   0  13    1.40    1.80
   7   0 -13    1.20    1.40
   6   0 -13   -0.20    1.70
  -6   0  13    0.70    1.60
   6   0 -13    0.20    1.20
  -6   0  13    1.00    1.30
  -6   0  13    1.00    1.00
  -6   0  13   -1.30    1.20
   6   0 -13    0.90    1.40
  -5   0  13   -1.60    1.30
  -5   0  13    0.40    0.90
  -5   0  13   -1.30    1.20
   5   0 -13    0.80    1.50
  -5   0  13    0.80    1.10
   5   0 -13   -0.90    1.00
   5   0 -13    0.80    1.20
   4   0 -13   -0.20    1.30
  -4   0  13    0.20    1.00
  -4   0  13   -1.40    1.20
   4   0 -13   -1.20    1.00
  -4   0  13   -0.40    1.20
   4   0 -13   -0.80    1.30
  -4   0  13   -0.90    1.30
   3   0 -13    0.70    1.30
  -3   0  13   -0.40    1.20
   3   0 -13    0.10    0.60
  -3   0  13    1.50    1.50
  -3   0  13   -0.40    1.30
   3   0 -13    1.90    1.50
   2   0 -13    0.60    0.80
   2   0 -13   -0.80    1.00
  -2   0  13   -0.30    1.50
   2   0 -13    1.40    1.20
  -2   0  13    1.40    1.40
  -2   0  13   -0.20    1.10
  -1   0  13    3.20    1.20
  -1   0  13    4.20    1.80
  -1   0  13    4.60    1.70
   1   0 -13    3.60    1.80
   1   0 -13    0.50    1.00
   1   0 -13    2.00    0.90
   0   0 -13   -1.20    0.80
   0   0  13   -2.00    1.30
   0   0  13    0.30    1.40
   0   0 -13   -2.00    0.90
   0   0 -13   -1.20    1.40
   0   0  13   -0.20    0.90
  -1   0 -13   -0.50    1.10
   1   0  13   -2.60    1.20
   1   0  13    0.30    1.30
  -1   0 -13   -0.40    0.90
   1   0  13   -1.00    0.60
  -1   0 -13   -1.40    1.30
   2   0  13   -1.10    1.80
   2   0  13   -1.70    1.60
  -2   0 -13   -1.70    1.50
  -2   0 -13    0.40    1.50
   3   0  13   -0.50    1.80
  -3   0 -13   -0.70    1.70
   3   0  13    0.60    1.90
  -3   0 -13   -0.40    1.30
  -3   0 -13   -2.40    1.20
   4   0  13    0.80    1.80
   4   0  13   -0.10    1.80
  -4   0 -13    0.90    1.60
  -4   0 -13   -1.70    1.50
  -4   0 -13   -1.90    1.10
   5   0  13    2.00    2.30
   5   0  13    2.00    2.80
   5   0  13   -3.20    1.30
  -5   0 -13    1.10    1.80
  -5   0 -13    1.00    1.90
  -5   0 -13   -0.70    1.50
  -6   0 -13    1.20    2.10
   6   0  13   -2.80    1.40
  -6   0 -13   -1.70    1.80
   6   0  13    0.60    2.20
   7   0  13   -1.20    2.10
  -7   0 -13   -2.00    2.00
  -7   0 -13   -0.50    2.00
   7   0  13   -1.00    2.10
  11  -1 -13   90.59    7.00
  11  -1 -13   96.59    7.30
 -11  -1  13  102.99    7.30
 -11   1  13   94.69    5.10
 -11   1  13   96.59    7.10
  11   1 -13  103.69    7.30
 -11   1  13  101.29    7.60
 -10  -1  13   -1.00    2.00
 -10  -1  13   -0.70    1.10
  10  -1 -13    3.10    2.10
  10  -1 -13   -1.60    1.80
 -10   1  13   -0.30    2.20
 -10   1  13    2.80    2.00
  10   1 -13   -2.70    1.90
 -10   1  13   -0.30    1.40
  -9  -1  13    6.70    2.70
   9  -1 -13   12.60    3.20
  -9  -1  13   10.70    2.10
   9  -1 -13   10.40    2.90
   9   1 -13   12.70    2.90
  -9   1  13   14.10    2.90
  -9   1  13   10.40    2.20
   9   1 -13   10.70    2.50
  -8  -1  13  136.59    6.30
  -8  -1  13  145.69    6.10
  -8  -1  13  133.89    7.10
   8  -1 -13  146.29    7.60
   8  -1 -13  127.19    7.40
   8   1 -13  139.69    6.80
   8   1 -13  121.79    7.10
  -8   1  13  147.39    6.70
  -8   1  13  137.69    7.40
   7  -1 -13    1.60    1.80
  -7  -1  13    3.10    2.00
   7  -1 -13    2.20    1.80
  -7  -1  13    4.30    1.70
   7  -1 -13    1.70    2.00
  -7  -1  13    4.20    1.60
   7   1 -13    1.70    1.70
  -7   1  13    3.10    1.70
   7   1 -13    2.70    2.10
  -7   1  13    5.60    2.20
   6  -1 -13   25.30    3.40
  -6  -1  13   27.80    3.60
   6  -1 -13   27.50    3.30
  -6  -1  13   27.50    2.80
   6  -1 -13   30.50    2.90
  -6  -1  13   24.70    3.00
   6   1 -13   27.50    3.10
   6   1 -13   27.70    3.40
   6   1 -13   28.80    3.80
  -6   1  13   28.60    3.40
  -6   1  13   28.20    2.90
  -6   1  13   24.90    3.40
   5  -1 -13  293.57   11.20
  -5  -1  13  308.27   11.00
  -5  -1  13  306.07    9.70
   5  -1 -13  305.27   11.10
  -5  -1  13  291.97   10.80
  -5  -1  13  303.47   10.20
   5   1 -13  298.17   10.90
  -5   1  13  291.27   10.20
   5   1 -13  290.47   11.10
  -5   1  13  273.47   10.90
   5   1 -13  296.97   11.00
  -5   1  13  303.77   11.00
   4  -1 -13  122.69    4.60
  -4  -1  13  121.29    5.90
  -4  -1  13  126.49    5.40
   4  -1 -13  119.99    6.30
  -4  -1  13  126.89    5.60
  -4  -1  13  121.09    6.10
   4  -1 -13  125.99    6.20
   4  -1 -13  131.89    5.30
   4   1 -13  114.89    6.00
  -4   1  13  123.09    4.70
  -4   1  13  117.79    6.20
  -4   1  13  123.19    6.00
   4   1 -13  116.59    6.10
  -4   1  13  119.29    5.60
   3  -1 -13  320.97   11.00
   3  -1 -13  304.77    9.80
   3  -1 -13  310.67    9.60
  -3  -1  13  304.27   10.40
  -3  -1  13  313.27   10.70
  -3  -1  13  312.17   11.40
   3  -1 -13  315.57   11.60
  -3  -1  13  284.27   10.40
   3   1 -13  324.87   11.50
  -3   1  13  310.27    9.60
  -3   1  13  304.57   10.70
   3   1 -13  311.97   10.90
  -3   1  13  296.17   10.80
  -3   1  13  310.17   11.40
  -2  -1  13   -0.60    1.10
  -2  -1  13   -0.50    1.00
  -2  -1  13    0.50    1.40
   2  -1 -13   -1.30    0.90
   2  -1 -13   -1.40    0.90
  -2  -1  13    0.80    1.30
   2  -1 -13   -1.20    1.10
  -2   1  13    0.60    1.60
   2   1 -13    3.90    1.80
  -2   1  13    0.60    1.10
   2   1 -13    0.40    0.60
  -2   1  13   -0.90    0.90
   2   1 -13   -0.30    1.20
  -2   1  13    0.50    1.30
  -1  -1  13    3.30    1.60
   1  -1 -13    2.00    1.70
  -1  -1  13    5.40    2.00
  -1  -1  13    4.60    1.40
   1  -1 -13    5.70    1.50
   1  -1 -13    4.90    1.60
  -1   1  13    5.60    1.90
   1   1 -13    6.40    1.20
  -1   1  13    5.70    1.50
   1   1 -13    4.70    1.70
   1   1 -13    5.80    1.60
  -1   1  13    6.60    2.10
   0  -1  13   22.80    3.10
   0  -1  13   15.50    2.80
   0  -1 -13   19.80    2.40
   0  -1 -13   24.10    2.50
   0  -1 -13   18.20    3.00
   0  -1  13   18.90    2.00
   0   1 -13   22.20    2.30
   0   1  13   17.50    2.90
   0   1  13   18.70    2.10
   0   1  13   25.60    3.40
   0   1 -13   22.00    3.10
   0   1 -13   24.50    2.50
  -1  -1 -13   29.60    2.50
  -1  -1 -13   22.00    2.80
   1  -1  13   27.20    3.60
   1  -1  13   28.30    3.50
  -1  -1 -13   30.90    3.70
   1  -1  13   23.50    2.00
  -1   1 -13   30.20    3.50
   1   1  13   29.60    3.60
   1   1  13   24.10    3.40
  -1   1 -13   27.50    2.90
   1   1  13   26.70    2.20
  -1   1 -13   23.40    2.60
  -1   1 -13   28.40    3.40
   2  -1  13  357.86   13.20
  -2  -1 -13  364.96   13.30
   2  -1  13  356.06   13.20
  -2  -1 -13  357.56   12.50
   2   1  13  347.37   13.10
  -2   1 -13  339.77   12.00
  -2   1 -13  374.56   12.90
   2   1  13  351.26   13.20
   2   1  13  354.26   10.30
  -2   1 -13  359.46   13.30
  -3  -1 -13    3.00    1.80
   3  -1  13    3.90    2.20
  -3  -1 -13   -1.80    1.60
   3  -1  13    1.00    1.90
  -3   1 -13    0.50    1.60
   3   1  13   -0.70    1.80
   3   1  13    0.80    1.50
  -3   1 -13   -1.40    1.40
  -3   1 -13    0.00    1.80
  -4  -1 -13   50.19    5.00
   4  -1  13   39.80    4.60
  -4  -1 -13   56.59    5.10
   4  -1  13   50.79    4.90
  -4   1 -13   47.30    4.60
   4   1  13   53.19    5.30
  -4   1 -13   51.99    4.80
   4   1  13   47.90    4.80
  -4   1 -13   49.50    5.00
   5  -1  13    4.30    2.40
  -5  -1 -13   -1.20    1.70
   5  -1  13   -0.10    1.70
  -5  -1 -13   -1.20    1.60
  -5   1 -13    0.40    1.80
  -5   1 -13    1.00    1.80
   5   1  13    0.80    1.60
  -5   1 -13   -0.50    1.90
  -6  -1 -13    8.40    2.70
  -6  -1 -13    3.50    2.40
   6  -1  13    8.10    2.50
   6  -1  13    5.30    2.70
  -6   1 -13    5.70    2.60
   6   1  13    8.80    3.00
  -6   1 -13    6.40    2.60
  -6   1 -13    7.90    2.50
   7  -1  13    2.30    2.10
   7  -1  13    6.10    2.90
  -7  -1 -13    6.10    2.50
  -7  -1 -13    5.10    2.50
  -7   1 -13    3.30    2.70
  -7   1 -13    8.30    3.50
  -7   1 -13    5.30    2.70
   7   1  13   -0.50    2.20
  11  -2 -13    0.20    2.40
  11  -2 -13    1.30    2.40
  11   2 -13    0.30    2.20
 -11   2  13    1.70    1.70
 -11   2  13    0.40    2.30
  11   2 -13   -4.30    2.20
  10  -2 -13   24.30    4.30
 -10  -2  13   26.30    4.20
  10  -2 -13   22.70    4.10
 -10  -2  13   25.90    2.70
 -10   2  13   27.40    3.50
 -10   2  13   24.50    3.90
 -10   2  13   13.20    3.70
  10   2 -13   21.50    3.70
  10   2 -13   23.30    4.20
   9  -2 -13   48.90    5.20
  -9  -2  13   48.20    4.40
  -9  -2  13   48.60    3.50
  -9  -2  13   45.90    5.10
   9  -2 -13   53.19    5.70
  -9   2  13   50.79    4.50
   9   2 -13   50.59    5.10
  -9   2  13   50.49    5.20
   9   2 -13   35.50    4.80
  -9   2  13   45.20    5.40
  -8  -2  13   40.80    3.70
   8  -2 -13   35.20    4.30
  -8  -2  13   37.60    3.90
  -8  -2  13   34.50    4.40
   8  -2 -13   36.50    4.50
  -8   2  13   44.20    5.10
   8   2 -13   41.50    4.80
  -8   2  13   39.10    4.50
   8   2 -13   38.50    4.40
  -8   2  13   42.70    4.20
  -7  -2  13   64.99    4.30
   7  -2 -13   59.59    4.60
  -7  -2  13   67.99    5.10
  -7  -2  13   70.99    4.40
   7  -2 -13   57.49    5.50
   7  -2 -13   62.89    5.90
   7   2 -13   54.59    4.60
  -7   2  13   59.49    4.50
  -7   2  13   60.19    4.60
   7   2 -13   57.89    5.50
   6  -2 -13   13.20    2.90
   6  -2 -13   13.70    2.70
  -6  -2  13   13.70    2.50
  -6  -2  13   19.30    2.90
   6  -2 -13   14.30    2.70
  -6  -2  13   19.10    3.10
   6   2 -13   16.50    2.70
  -6   2  13   14.20    2.60
  -6   2  13   15.60    2.80
   6   2 -13   16.20    3.10
   6   2 -13   17.60    3.00
   5  -2 -13   10.50    2.60
  -5  -2  13   11.70    2.40
   5  -2 -13   12.90    2.60
  -5  -2  13    9.00    2.30
  -5  -2  13   10.00    2.20
   5  -2 -13   14.50    2.10
   5   2 -13   11.80    2.70
  -5   2  13    9.50    2.40
   5   2 -13   14.40    2.60
  -5   2  13   11.90    2.60
   5   2 -13    8.20    2.20
  -4  -2  13    0.70    1.20
  -4  -2  13    0.80    1.40
   4  -2 -13    2.30    1.80
  -4  -2  13   -0.60    1.40
   4  -2 -13    1.10    1.60
   4  -2 -13    2.80    1.20
  -4  -2  13   -0.30    1.50
   4   2 -13    2.70    1.80
  -4   2  13    1.00    1.50
  -4   2  13   -0.20    1.60
  -4   2  13    0.80    1.50
   4   2 -13    2.80    1.80
   3  -2 -13    1.00    1.10
  -3  -2  13   -0.70    1.50
   3  -2 -13   -0.30    1.50
  -3  -2  13   -0.70    1.00
   3  -2 -13    0.70    1.50
  -3  -2  13   -0.50    1.30
  -3  -2  13   -0.30    1.40
   3   2 -13   -0.90    1.40
   3   2 -13   -0.60    1.30
  -3   2  13   -2.20    1.30
  -3   2  13    3.90    1.70
  -3   2  13    1.70    1.40
  -2  -2  13   58.69    3.90
   2  -2 -13   50.09    3.40
   2  -2 -13   54.49    4.90
  -2  -2  13   52.59    4.20
  -2  -2  13   47.70    3.40
   2  -2 -13   43.00    3.40
  -2  -2  13   47.90    3.90
   2   2 -13   55.59    3.70
  -2   2  13   48.00    3.50
  -2   2  13   47.40    3.70
   2   2 -13   50.29    4.50
   2   2 -13   52.39    2.20
  -2   2  13   50.99    4.70
  -1  -2  13   72.89    3.90
  -1  -2  13   78.09    4.90
   1  -2 -13   75.19    5.10
  -1  -2  13   63.99    4.30
   1  -2 -13   74.19    4.20
  -1  -2  13   66.29    4.80
   1  -2 -13   67.09    4.10
  -1   2  13   71.69    4.80
  -1   2  13   66.49    3.90
   1   2 -13   67.39    4.60
  -1   2  13   72.19    4.80
   1   2 -13   68.19    4.10
   1   2 -13   69.69    3.20
   0  -2 -13  119.19    5.30
   0  -2 -13  108.79    6.10
   0  -2  13  113.09    4.80
   0  -2  13  106.29    5.90
   0  -2  13  109.39    6.10
   0  -2  13  106.59    6.30
   0  -2 -13  112.79    5.60
   0   2 -13  116.59    4.80
   0   2  13  122.29    6.40
   0   2 -13  115.09    6.40
   0   2 -13  119.79    5.20
   0   2  13  106.69    6.20
   0   2 -13  106.59    6.00
   0   2  13  109.09    5.00
   1  -2  13   16.50    1.90
  -1  -2 -13   17.00    2.70
   1  -2  13   19.60    3.30
  -1  -2 -13   24.40    2.60
   1  -2  13   17.70    3.00
  -1  -2 -13   21.30    3.30
  -1   2 -13   18.90    2.40
  -1   2 -13   22.30    3.30
  -1   2 -13   20.00    2.30
   1   2  13   20.20    3.20
   1   2  13   18.10    2.10
   1   2  13   20.50    3.30
  -1   2 -13   19.60    3.20
  -2  -2 -13    1.40    1.90
   2  -2  13    0.90    2.00
  -2  -2 -13    4.40    2.00
   2  -2  13    4.70    2.30
  -2   2 -13    3.30    1.70
   2   2  13    0.50    1.10
   2   2  13    3.20    2.10
  -2   2 -13   -0.60    1.80
  -2   2 -13    3.80    2.30
   2   2  13    2.90    2.20
   3  -2  13    3.80    2.00
  -3  -2 -13    6.60    2.30
  -3  -2 -13    8.10    2.50
   3  -2  13    8.80    2.60
  -3   2 -13    4.30    2.00
  -3   2 -13    5.00    2.30
  -3   2 -13    3.60    2.20
   3   2  13    5.40    2.20
   3   2  13    8.80    2.70
   4  -2  13   17.10    3.30
  -4  -2 -13   14.20    3.10
  -4  -2 -13   14.40    3.00
   4  -2  13   15.30    3.40
   4   2  13   12.40    3.10
  -4   2 -13   14.80    2.80
  -4   2 -13   17.60    3.30
   4   2  13   17.90    3.30
  -4   2 -13   21.70    3.50
   5  -2  13   13.10    3.10
   5  -2  13    8.40    3.10
  -5  -2 -13   11.60    3.10
  -5  -2 -13   10.30    3.00
  -5   2 -13    6.50    2.60
  -5   2 -13    7.10    2.80
   5   2  13   12.40    3.30
  -5   2 -13   11.20    2.70
  -6  -2 -13    1.60    2.30
  -6  -2 -13    2.40    2.40
   6  -2  13   -2.50    2.30
  -6   2 -13    2.40    2.30
  -6   2 -13   -1.80    1.90
  -6   2 -13    4.40    2.60
   6   2  13    3.10    2.40
   7  -2  13    5.10    3.00
  -7  -2 -13   -0.10    2.00
  -7  -2 -13    4.80    2.90
   7  -2  13    0.60    2.40
  -7   2 -13    3.50    2.70
   7   2  13    2.60    2.40
  -7   2 -13   -1.00    2.20
  -7   2 -13    2.90    2.60
  10  -3 -13    1.70    2.20
  10  -3 -13    6.70    3.10
 -10  -3  13    5.80    2.50
 -10   3  13    7.00    3.10
  10   3 -13   10.80    3.50
 -10   3  13    5.30    2.30
 -10   3  13    7.70    3.30
  10   3 -13    5.80    2.90
   9  -3 -13   33.10    4.30
  -9  -3  13   33.00    4.10
  -9  -3  13   31.50    3.30
  -9  -3  13   32.20    4.60
   9  -3 -13   34.80    4.90
  -9   3  13   33.70    4.10
  -9   3  13   32.70    4.40
   9   3 -13   32.10    4.60
  -9   3  13   34.70    4.80
   9   3 -13   26.70    4.40
  -8  -3  13    1.50    1.70
   8  -3 -13    0.10    2.20
   8  -3 -13   -0.60    1.90
  -8  -3  13    2.30    1.90
  -8  -3  13    1.40    2.20
   8   3 -13   -1.20    1.50
  -8   3  13    0.90    2.20
  -8   3  13    1.40    2.10
  -8   3  13   -0.10    1.70
   8   3 -13    0.50    2.00
  -7  -3  13   55.09    5.00
   7  -3 -13   63.69    6.00
  -7  -3  13   65.09    4.90
   7  -3 -13   59.49    4.50
  -7  -3  13   60.99    4.50
  -7   3  13   57.09    5.20
   7   3 -13   61.49    5.90
  -7   3  13   52.89    5.30
  -7   3  13   64.89    5.80
   7   3 -13   64.29    6.00
   6  -3 -13   17.40    3.10
   6  -3 -13   13.20    2.60
  -6  -3  13   13.60    2.80
   6  -3 -13   14.80    3.20
  -6  -3  13   12.30    2.60
  -6   3  13   12.30    2.90
  -6   3  13   10.50    2.80
   6   3 -13   14.80    3.20
  -6   3  13   13.00    2.80
   6   3 -13    9.80    2.50
   5  -3 -13   23.20    2.90
   5  -3 -13   19.70    3.50
  -5  -3  13   26.30    3.60
   5  -3 -13   25.90    2.90
  -5  -3  13   27.00    3.50
   5  -3 -13   31.40    4.00
  -5   3  13   22.00    3.20
   5   3 -13   26.00    4.00
  -5   3  13   27.10    3.70
   5   3 -13   25.70    3.40
  -5   3  13   22.10    3.40
   5   3 -13   25.70    3.70
   4  -3 -13    5.10    2.20
  -4  -3  13    6.20    2.20
   4  -3 -13    4.40    1.90
  -4  -3  13    6.40    2.20
   4  -3 -13    6.50    2.40
  -4  -3  13    3.90    1.60
  -4   3  13    5.70    2.20
   4   3 -13    4.00    2.00
   4   3 -13    6.20    2.30
  -4   3  13    9.30    2.50
   4   3 -13    4.40    2.30
   3  -3 -13   -0.30    0.90
   3  -3 -13    0.90    1.60
   3  -3 -13   -0.10    1.60
   3  -3 -13    0.90    1.60
  -3  -3  13    2.90    1.50
  -3  -3  13    2.30    1.80
  -3  -3  13   -1.50    1.50
  -3   3  13    0.00    1.80
   3   3 -13    0.90    1.50
   3   3 -13    2.20    1.70
  -3   3  13    0.70    1.60
   2  -3 -13   84.09    5.50
  -2  -3  13   89.09    5.70
  -2  -3  13   91.59    5.70
   2  -3 -13   90.29    5.10
   2  -3 -13   90.79    5.20
  -2  -3  13   91.19    5.00
   2   3 -13   89.99    5.10
  -2   3  13   90.69    5.90
  -2   3  13   82.19    4.90
  -2   3  13   91.49    5.40
   2   3 -13  101.19    6.00
   1  -3 -13   62.29    4.30
  -1  -3  13   59.19    4.30
  -1  -3  13   71.89    5.10
   1  -3 -13   62.29    4.40
  -1  -3  13   48.00    4.80
   1  -3 -13   70.69    5.20
   1   3 -13   52.79    5.00
  -1   3  13   55.49    5.20
  -1   3  13   59.79    4.70
  -1   3  13   60.79    4.00
   1   3 -13   66.19    4.30
   0  -3  13   72.79    5.30
   0  -3  13   74.69    5.30
   0  -3 -13   60.09    4.50
   0  -3 -13   65.39    4.30
   0  -3  13   69.29    4.80
   0  -3 -13   67.29    5.20
   0   3 -13   64.79    4.90
   0   3  13   69.39    4.10
   0   3  13   64.69    5.10
   0   3  13   61.39    5.60
   0   3 -13   73.89    5.40
  -1  -3 -13    1.80    1.90
   1  -3  13    1.50    1.90
  -1  -3 -13    1.30    1.50
  -1  -3 -13    1.40    2.10
   1  -3  13    3.20    2.20
   1  -3  13   -1.80    1.80
   1   3  13   -1.10    1.80
   1   3  13   -0.40    1.30
  -1   3 -13   -1.00    1.90
  -1   3 -13    2.70    2.10
   1   3  13   -0.50    1.90
  -2  -3 -13    7.90    2.50
   2  -3  13    6.60    2.60
  -2  -3 -13    3.00    2.10
   2  -3  13    8.20    2.70
  -2   3 -13   12.10    3.10
  -2   3 -13    9.60    2.50
   2   3  13    8.90    1.70
   2   3  13    7.00    2.60
   2   3  13    8.50    2.70
  -3  -3 -13   30.30    4.10
   3  -3  13   27.60    4.10
   3  -3  13   26.60    4.00
  -3  -3 -13   28.20    4.00
   3   3  13   31.30    4.20
  -3   3 -13   32.70    4.30
   3   3  13   29.20    4.20
  -3   3 -13   33.40    4.40
  -4  -3 -13    0.50    1.70
  -4  -3 -13    4.70    2.30
   4  -3  13   -2.00    2.00
   4  -3  13   -0.10    2.10
   4   3  13    3.30    2.50
  -4   3 -13    1.60    2.40
  -4   3 -13    5.80    2.50
   5  -3  13   49.80    5.80
  -5  -3 -13   52.79    5.40
   5  -3  13   42.60    5.30
  -5  -3 -13   53.59    5.70
  -5   3 -13   36.90    4.90
  -5   3 -13   54.39    5.80
   5   3  13   43.70    5.40
  -6  -3 -13   25.90    4.70
   6  -3  13   32.10    4.80
  -6  -3 -13   42.30    5.00
  -6   3 -13   44.10    5.50
   6   3  13   34.40    5.00
  -6   3 -13   37.40    4.90
  -9  -4  13    4.30    2.70
   9  -4 -13    2.30    2.70
  -9  -4  13    6.90    3.10
   9  -4 -13   -0.20    2.00
  -9  -4  13    3.10    1.80
  -9   4  13    4.70    2.90
   9   4 -13    1.00    2.60
   9   4 -13    4.20    2.70
  -9   4  13    5.30    2.90
  -9   4  13   -0.70    2.10
   8  -4 -13    2.70    2.40
  -8  -4  13    1.90    2.30
   8  -4 -13   -2.20    1.70
  -8  -4  13   -0.50    1.60
  -8   4  13   -0.40    2.20
  -8   4  13   -2.10    2.10
   8   4 -13    5.80    2.80
  -8   4  13   -1.00    2.10
   8   4 -13    1.50    2.60
   7  -4 -13   -0.70    2.10
  -7  -4  13    1.30    2.20
  -7  -4  13    3.50    1.90
   7  -4 -13   -0.50    1.70
  -7   4  13   -2.30    1.60
   7   4 -13   -0.30    1.70
  -7   4  13    5.40    2.40
   7   4 -13   -4.70    1.80
  -7   4  13   -2.00    1.30
   6  -4 -13    4.50    2.20
  -6  -4  13   -0.70    2.10
   6  -4 -13    1.50    2.20
  -6  -4  13    0.00    1.70
   6  -4 -13    4.70    2.30
   6   4 -13   -2.10    1.90
  -6   4  13    0.70    2.20
   6   4 -13    2.90    2.00
  -6   4  13   -2.40    1.50
  -6   4  13   -0.50    2.10
   5  -4 -13   -3.20    1.70
   5  -4 -13    2.10    2.00
   5  -4 -13   -2.90    1.80
  -5  -4  13   -1.30    1.90
  -5  -4  13    1.60    1.80
  -5   4  13   -2.10    1.60
  -5   4  13    1.40    2.00
  -5   4  13   -0.10    1.90
   5   4 -13   -0.10    1.50
   5   4 -13   -3.90    1.50
  -4  -4  13   19.50    3.50
  -4  -4  13   13.50    3.20
  -4  -4  13   15.90    2.90
   4  -4 -13   20.20    3.10
   4  -4 -13   16.80    3.30
   4  -4 -13   19.80    3.60
   4   4 -13   20.80    3.70
  -4   4  13   12.70    2.60
   4   4 -13   13.40    2.90
  -4   4  13   16.20    3.00
  -4   4  13   18.10    3.40
  -3  -4  13  202.38    8.20
   3  -4 -13  224.68   10.10
   3  -4 -13  191.08    9.00
   3  -4 -13  209.68    8.90
  -3  -4  13  202.48    9.50
  -3  -4  13  207.88    9.40
  -3   4  13  198.38    9.70
  -3   4  13  212.58    9.20
   3   4 -13  200.78    9.10
  -3   4  13  211.28    8.30
   3   4 -13  185.28    9.50
  -2  -4  13  149.49    7.10
  -2  -4  13  145.69    8.00
   2  -4 -13  139.29    7.40
   2  -4 -13  165.28    8.50
   2  -4 -13  172.58    7.80
  -2  -4  13  164.98    8.30
   2   4 -13  160.28    7.60
  -2   4  13  151.48    7.20
   2   4 -13  168.68    8.40
   2   4 -13  141.49    8.30
  -2   4  13  139.19    7.80
  -2   4  13  165.58    6.60
  -1  -4  13   26.30    3.80
  -1  -4  13   18.30    3.00
   1  -4 -13   28.00    3.70
   1  -4 -13   21.30    2.70
   1  -4 -13   16.50    3.40
  -1  -4  13   20.00    3.60
   1  -4 -13   20.30    3.30
  -1   4  13   26.70    3.30
   1   4 -13   24.80    3.80
   1   4 -13   22.40    3.80
  -1   4  13   24.00    3.90
   0  -4 -13   61.89    5.90
   0  -4  13   63.19    4.90
   0  -4  13   59.89    5.70
   0  -4 -13   56.99    4.20
   0  -4  13   65.29    6.00
   0  -4 -13   62.59    5.00
   0  -4 -13   63.49    4.40
   0   4 -13   52.89    5.60
   0   4  13   62.79    4.30
   0   4 -13   64.29    5.90
   0   4  13   56.19    5.60
   0   4  13   56.69    5.60
   1  -4  13   37.90    4.70
   1  -4  13   37.00    4.50
  -1  -4 -13   41.40    4.10
   1  -4  13   48.10    5.20
  -1  -4 -13   50.59    5.20
  -1  -4 -13   43.80    4.10
  -1  -4 -13   42.00    4.70
   1   4  13   47.80    4.10
  -1   4 -13   40.90    4.90
  -1   4 -13   56.79    5.60
   1   4  13   44.50    5.10
   1   4  13   42.20    4.90
  -2  -4 -13    5.90    2.50
  -2  -4 -13    5.80    2.70
  -2  -4 -13    8.50    2.10
   2  -4  13    9.90    3.10
   2  -4  13   10.30    2.70
   2  -4  13    6.20    2.60
  -2   4 -13    6.30    2.70
  -2   4 -13    6.50    2.40
   2   4  13    6.10    2.80
   2   4  13    6.00    2.80
  -3  -4 -13    8.40    2.80
   3  -4  13   11.70    3.20
   3  -4  13    4.90    2.30
  -3  -4 -13   12.40    3.30
   3   4  13    8.30    3.00
   3   4  13   12.40    3.10
  -3   4 -13   13.70    3.10
  -4  -4 -13    1.50    2.40
   4  -4  13    1.50    2.50
   4  -4  13   -1.80    2.10
  -4  -4 -13    1.60    2.50
  -4   4 -13   -1.20    2.30
   4   4  13    0.20    2.30
   5  -4  13   88.79    7.00
  -5  -4 -13   87.09    6.60
  -5  -4 -13  107.69    7.50
   5   4  13   80.09    7.40
  -5   4 -13   90.09    7.10
  -5   4 -13   89.39    7.20
  -8  -5  13   15.60    3.10
  -8  -5  13   13.80    3.90
   8  -5 -13   15.60    4.00
   8   5 -13    7.00    3.50
  -8   5  13   13.10    3.30
   8   5 -13   19.60    4.20
  -7  -5  13    1.30    2.10
   7  -5 -13    0.10    2.40
  -7  -5  13   -1.70    2.30
   7   5 -13    1.20    2.00
  -7   5  13    0.10    2.40
   7   5 -13    0.20    2.20
  -7   5  13   -0.10    1.60
  -7   5  13   -2.30    1.80
   6  -5 -13    2.10    2.30
  -6  -5  13    0.20    2.00
   6  -5 -13    5.40    2.40
   6  -5 -13    0.30    2.40
  -6  -5  13    4.00    2.20
   6   5 -13    1.30    2.30
  -6   5  13    2.20    2.40
   6   5 -13    0.00    2.40
  -6   5  13    8.40    2.70
  -6   5  13    6.20    2.70
  -5  -5  13    3.00    2.20
  -5  -5  13    1.20    2.40
   5  -5 -13   -0.20    1.80
   5  -5 -13    1.30    2.20
   5  -5 -13    0.70    2.30
  -5   5  13   -0.40    2.20
   5   5 -13   -0.20    2.20
  -5   5  13    3.40    2.20
  -5   5  13   -1.50    2.00
   5   5 -13   -0.30    2.30
   4  -5 -13    1.50    2.30
  -4  -5  13   10.10    3.10
   4  -5 -13    7.10    2.50
   4  -5 -13   12.50    3.40
  -4  -5  13    4.90    2.60
  -4   5  13    6.30    2.70
  -4   5  13    8.80    2.90
  -4   5  13    6.10    2.10
   4   5 -13    7.20    2.60
   3  -5 -13    7.10    3.00
   3  -5 -13   11.00    3.00
  -3  -5  13    9.50    3.00
  -3  -5  13   11.20    3.40
   3  -5 -13   11.30    3.00
  -3  -5  13   12.10    2.70
   3   5 -13    7.00    3.10
  -3   5  13   10.10    2.80
  -3   5  13   11.60    3.20
   3   5 -13    4.60    2.60
   2  -5 -13    7.90    2.80
  -2  -5  13    3.50    2.40
   2  -5 -13    6.80    2.80
   2  -5 -13    5.80    2.40
  -2  -5  13    7.90    3.10
  -2  -5  13    6.90    2.40
  -2   5  13    6.30    2.50
   2   5 -13    9.80    3.00
  -2   5  13   10.00    3.20
   2   5 -13    5.10    2.90
   1  -5 -13  120.39    7.00
   1  -5 -13  116.89    7.20
  -1  -5  13  124.79    7.80
  -1  -5  13  135.69    8.10
  -1  -5  13  111.89    6.70
   1  -5 -13  137.09    8.20
   1   5 -13  137.79    8.20
  -1   5  13  127.39    7.90
   1   5 -13  118.39    7.70
   1   5 -13  116.59    7.60
  -1   5  13  133.99    7.10
   0  -5  13    4.10    2.70
   0  -5  13    3.50    2.30
   0  -5 -13    3.20    2.00
   0  -5 -13    4.30    2.70
   0  -5 -13    3.20    2.30
   0  -5  13    6.20    2.80
   0   5 -13    8.10    3.00
   0   5 -13    7.70    2.90
   0   5  13    4.60    2.70
   0   5  13    8.50    2.40
   0   5 -13    6.90    3.20
  -1  -5 -13   -0.20    2.30
  -1  -5 -13    1.30    2.30
  -1  -5 -13    1.00    2.00
   1  -5  13    2.00    2.40
   1  -5  13    0.20    2.30
  -1  -5 -13    0.90    2.10
   1  -5  13   -0.70    2.00
   1   5  13   -1.30    1.50
   1   5  13    1.30    1.80
   1   5  13    1.90    2.50
  -1   5 -13    2.20    2.50
  -1   5 -13    5.10    2.70
   2  -5  13    6.60    3.00
  -2  -5 -13   -2.70    1.40
  -2  -5 -13   -1.80    2.30
   2  -5  13    3.90    2.70
   2  -5  13    0.60    2.30
  -2  -5 -13    1.60    2.60
  -2  -5 -13    3.00    2.30
   2   5  13    0.10    2.30
   2   5  13    0.20    1.70
   2   5  13    0.40    2.20
  -2   5 -13   -1.10    1.60
  -2   5 -13    0.00    2.40
  -3  -5 -13    0.00    2.60
  -3  -5 -13    5.90    2.70
   3  -5  13    3.00    2.70
   3  -5  13    6.20    3.00
   3  -5  13    4.60    2.60
  -3  -5 -13    1.00    2.50
  -3   5 -13    5.60    3.00
  -3   5 -13    4.70    3.20
   3   5  13    0.80    2.60
   4  -5  13    1.10    2.70
  -4  -5 -13   -0.20    2.30
   4  -5  13    1.70    2.90
   4   5  13   -0.50    2.60
   6  -6 -13   84.49    6.70
   6  -6 -13   92.69    7.20
   6   6 -13   88.49    8.50
  -5  -6  13   12.60    4.30
   5  -6 -13    5.60    3.20
   5  -6 -13   12.50    3.30
   5  -6 -13   12.70    3.60
   5   6 -13   12.60    3.80
   4  -6 -13   44.30    5.40
  -4  -6  13   38.10    5.10
   4  -6 -13   42.80    5.50
   4  -6 -13   46.30    6.00
  -4  -6  13   47.40    5.90
  -4   6  13   38.30    5.10
  -4   6  13   42.50    5.80
   4   6 -13   37.10    5.70
   3  -6 -13   49.99    5.60
   3  -6 -13   58.39    6.10
  -3  -6  13   55.99    6.40
   3  -6 -13   56.29    6.50
  -3  -6  13   57.79    6.10
  -3   6  13   54.29    5.70
   3   6 -13   57.49    6.70
  -3   6  13   50.59    6.20
   2  -6 -13   39.80    5.20
   2  -6 -13   33.30    4.70
   2  -6 -13   44.40    5.80
  -2  -6  13   35.60    5.20
  -2  -6  13   40.10    5.20
  -2   6  13   34.60    5.20
   2   6 -13   39.40    5.80
  -2   6  13   40.70    5.00
   2   6 -13   40.50    5.40
   1  -6 -13    0.80    2.50
  -1  -6  13    7.30    3.20
   1  -6 -13    6.30    3.20
   1  -6 -13    6.10    3.00
  -1  -6  13    6.20    2.50
  -1  -6  13    8.00    3.00
  -1   6  13    5.30    2.70
   1   6 -13    8.30    3.10
   1   6 -13    5.40    3.50
  -1   6  13    5.70    3.10
   1   6 -13    3.50    2.90
   0  -6  13    1.50    2.70
   0  -6 -13   -0.40    2.50
   0  -6 -13    5.40    3.10
   0  -6  13    0.70    2.10
   0  -6 -13    2.70    2.40
   0  -6  13    1.90    2.60
   0   6  13   -1.00    2.50
   0   6 -13   -0.90    2.60
   0   6 -13    4.10    3.10
   0   6 -13    2.10    2.80
   0   6  13    1.00    2.30
   1  -6  13    2.30    3.00
  -1  -6 -13   -2.50    2.30
  -1  -6 -13   -2.60    1.80
   1  -6  13   -0.80    2.10
   1   6  13   -1.40    1.90
   1   6  13   -1.10    2.70
  -1   6 -13    1.00    2.80
  -1   6 -13   -0.80    2.80
   2  -6  13   57.59    6.30
   2  -6  13   64.49    7.00
  -2  -6 -13   63.29    5.90
   2   6  13   69.89    7.20
  -2   6 -13   46.10    6.40
  11   0 -14   16.30    3.70
 -11   0  14   12.70    4.10
  11   0 -14   20.40    3.90
  10   0 -14   20.90    3.70
 -10   0  14   21.80    3.70
 -10   0  14   27.20    3.10
  -9   0  14   19.70    3.50
   9   0 -14   21.10    3.90
  -9   0  14   16.50    2.70
  -8   0  14   12.30    2.90
   8   0 -14   17.70    3.20
  -8   0  14   27.40    3.30
   8   0 -14   15.90    3.40
   7   0 -14    7.90    2.10
   7   0 -14   10.30    2.70
  -7   0  14    3.80    2.20
  -7   0  14    6.60    2.00
   6   0 -14  134.69    6.40
  -6   0  14  130.49    6.70
  -6   0  14  141.69    5.40
  -6   0  14  148.99    7.00
   6   0 -14  137.69    6.80
   6   0 -14  132.29    7.10
  -5   0  14    3.20    1.90
  -5   0  14    4.70    1.40
  -5   0  14    2.10    1.70
   5   0 -14    0.00    1.60
  -5   0  14    0.40    1.30
   5   0 -14    1.90    1.70
   4   0 -14    6.00    2.00
   4   0 -14    8.10    2.30
  -4   0  14    4.00    1.60
  -4   0  14    1.20    1.60
  -4   0  14    2.80    1.60
   3   0 -14  475.55   13.20
   3   0 -14  469.65   16.00
   3   0 -14  481.65   15.40
  -3   0  14  467.55   15.00
  -3   0  14  473.85   16.10
  -3   0  14  493.15   15.30
  -2   0  14   79.69    4.30
  -2   0  14   98.89    5.70
   2   0 -14   82.59    4.60
  -2   0  14   80.39    4.80
   2   0 -14   95.09    5.50
   2   0 -14   71.99    3.50
  -1   0  14  385.06   11.90
  -1   0  14  366.56   13.00
   1   0 -14  373.46   11.70
  -1   0  14  370.36   13.60
   1   0 -14  382.36   13.70
   1   0 -14  388.36   12.20
   0   0  14   44.70    4.40
   0   0  14   40.40    2.70
   0   0  14   41.60    4.20
   0   0 -14   47.40    3.20
   0   0 -14   41.50    2.90
   0   0 -14   40.40    4.30
  -1   0 -14  167.68    7.10
  -1   0 -14  164.28    8.10
   1   0  14  173.28    8.30
   1   0  14  161.48    5.70
   1   0  14  169.78    8.00
   2   0  14   36.70    4.50
   2   0  14   20.90    3.50
  -2   0 -14   23.50    3.10
  -2   0 -14   21.40    3.50
  -3   0 -14   53.59    4.20
   3   0  14   50.19    5.30
  -3   0 -14   52.49    5.10
   3   0  14   55.89    5.30
   4   0  14    2.10    1.90
  -4   0 -14   -1.20    1.70
  -4   0 -14    2.90    1.90
   4   0  14    0.60    1.90
  -4   0 -14   -1.70    1.70
  -5   0 -14   46.70    5.10
   5   0  14   47.40    4.50
   5   0  14   45.50    5.40
  -5   0 -14   45.40    5.00
  -5   0 -14   43.00    4.80
   6   0  14   70.99    6.80
  -6   0 -14   76.09    6.60
  -6   0 -14   88.59    6.20
  -7   0 -14   -1.00    2.00
   7   0  14   -3.10    2.20
  -7   0 -14   -0.90    2.30
  11  -1 -14   46.40    5.70
  11  -1 -14   45.10    5.90
  11   1 -14   45.90    5.80
 -11   1  14   49.00    3.90
 -10  -1  14   16.00    3.60
 -10  -1  14   11.10    2.20
  10  -1 -14   11.40    3.40
  10  -1 -14   11.80    3.40
 -10   1  14   16.70    3.60
 -10   1  14   14.50    2.60
  10   1 -14   15.20    3.60
   9  -1 -14    0.40    2.10
   9  -1 -14    4.00    2.50
  -9  -1  14    4.60    2.20
  -9  -1  14    1.50    1.60
   9   1 -14   -0.60    2.10
  -9   1  14   -0.20    2.00
   9   1 -14    2.60    1.80
  -9   1  14    1.20    1.60
   8  -1 -14   -1.70    1.90
  -8  -1  14    3.60    2.30
  -8  -1  14    3.10    1.80
   8  -1 -14    2.60    2.20
  -8   1  14    5.60    2.20
   8   1 -14    3.70    2.50
   8   1 -14    1.90    1.90
  -8   1  14    6.30    2.50
  -7  -1  14  171.78    8.30
  -7  -1  14  163.48    6.80
  -7  -1  14  174.78    7.70
   7  -1 -14  158.68    8.10
  -7   1  14  158.28    8.10
   7   1 -14  172.08    7.90
   7   1 -14  165.88    8.40
  -7   1  14  172.08    7.80
  -6  -1  14  249.88   10.20
   6  -1 -14  247.68   10.50
  -6  -1  14  248.88    9.10
   6  -1 -14  249.38    9.00
  -6  -1  14  256.77   10.00
   6  -1 -14  250.77   10.10
  -6   1  14  254.17   10.30
   6   1 -14  247.98   10.00
  -6   1  14  260.77   10.20
  -6   1  14  245.28    9.10
   6   1 -14  267.57   10.70
   6   1 -14  248.88    9.90
  -5  -1  14   12.20    2.00
  -5  -1  14   14.70    2.70
   5  -1 -14    9.30    2.40
  -5  -1  14   14.70    2.30
   5  -1 -14   14.80    2.80
  -5  -1  14   10.50    2.40
   5   1 -14   10.50    2.40
   5   1 -14   10.30    2.40
  -5   1  14   10.00    2.00
  -5   1  14    7.20    2.00
   5   1 -14   16.40    2.80
  -5   1  14   12.30    2.70
  -4  -1  14   -2.00    1.10
   4  -1 -14    0.10    1.50
  -4  -1  14   -0.90    1.40
   4  -1 -14   -0.20    1.50
   4  -1 -14    0.40    0.80
  -4  -1  14   -1.40    1.40
  -4  -1  14   -0.10    1.30
  -4   1  14    1.60    1.60
   4   1 -14   -0.60    1.30
   4   1 -14   -1.90    1.40
  -4   1  14   -0.10    1.50
  -4   1  14    1.90    1.70
  -3  -1  14   18.00    3.00
  -3  -1  14   22.70    2.80
   3  -1 -14   21.40    2.10
  -3  -1  14   24.30    2.80
   3  -1 -14   19.90    2.80
  -3  -1  14   24.10    2.80
   3  -1 -14   19.50    3.20
  -3   1  14   24.60    3.40
   3   1 -14   26.80    3.10
  -3   1  14   16.10    2.50
   3   1 -14   27.80    3.50
  -3   1  14   20.10    2.90
  -2  -1  14    2.90    1.80
  -2  -1  14    7.10    1.90
   2  -1 -14    6.00    2.20
   2  -1 -14    2.80    1.40
  -2  -1  14    5.50    1.60
  -2  -1  14    3.80    1.80
   2  -1 -14    3.00    1.30
   2   1 -14    4.50    0.90
  -2   1  14    4.80    2.10
   2   1 -14    4.80    1.60
  -2   1  14    6.10    1.70
   2   1 -14    6.30    2.20
  -2   1  14    4.40    1.80
   1  -1 -14   29.70    3.70
  -1  -1  14   23.70    3.30
  -1  -1  14   24.30    2.50
   1  -1 -14   31.40    3.10
   1  -1 -14   31.60    2.90
  -1  -1  14   27.30    3.40
   1   1 -14   34.10    3.80
  -1   1  14   29.30    2.70
   1   1 -14   26.00    2.20
   1   1 -14   26.10    2.80
  -1   1  14   26.20    3.40
  -1   1  14   26.20    3.60
   0  -1 -14    3.60    1.60
   0  -1 -14    7.00    1.60
   0  -1 -14    6.80    2.30
   0  -1  14    5.00    2.20
   0  -1  14    4.80    1.70
   0  -1  14    3.60    1.20
   0   1  14   11.60    2.60
   0   1  14    3.80    2.00
   0   1 -14    4.70    1.50
   0   1  14    5.40    1.40
   0   1 -14    3.30    2.00
   0   1 -14    4.30    1.40
   1  -1  14   95.59    6.00
  -1  -1 -14   93.19    6.10
   1  -1  14  105.19    6.30
   1  -1  14  102.69    4.10
  -1  -1 -14   96.99    5.30
   1   1  14   98.39    6.20
  -1   1 -14  100.99    5.10
   1   1  14  101.59    6.10
   1   1  14  102.89    4.20
  -1   1 -14   94.09    6.10
   2  -1  14   44.10    4.80
   2  -1  14   53.99    5.10
  -2  -1 -14   67.69    4.60
  -2  -1 -14   64.59    5.10
  -2   1 -14   56.89    4.20
   2   1  14   55.19    5.30
  -2   1 -14   58.39    5.40
   2   1  14   49.90    5.10
  -2   1 -14   57.89    4.50
   3  -1  14    2.40    2.10
   3  -1  14    6.10    2.20
  -3  -1 -14    3.60    2.00
  -3  -1 -14    0.80    2.00
  -3   1 -14    2.50    1.70
  -3   1 -14    2.70    2.20
   3   1  14    2.20    2.00
  -3   1 -14    5.90    2.30
   3   1  14    3.00    2.20
   4  -1  14   23.70    3.90
   4  -1  14   22.80    3.80
  -4  -1 -14   21.90    3.50
  -4  -1 -14   20.70    3.60
  -4   1 -14   20.40    3.60
   4   1  14   21.10    3.80
  -4   1 -14   24.00    3.40
  -4   1 -14   23.00    3.50
   4   1  14   17.70    3.40
  -5  -1 -14   42.00    4.80
  -5  -1 -14   41.30    4.80
   5  -1  14   28.50    4.40
  -5   1 -14   36.20    4.60
  -5   1 -14   34.70    4.20
   5   1  14   48.10    5.30
  -5   1 -14   49.80    5.20
   6  -1  14   16.60    3.90
  -6  -1 -14   15.40    3.70
  -6  -1 -14   16.80    3.50
   6  -1  14   17.40    3.50
  -6   1 -14   20.30    3.60
  -6   1 -14   19.50    3.60
  -6   1 -14   18.60    3.70
   6   1  14   19.20    4.10
   7  -1  14    7.30    2.80
  -7  -1 -14    6.70    4.50
   7  -1  14    8.40    3.30
  -7  -1 -14    8.20    3.60
   7   1  14    5.80    3.00
  -7   1 -14    6.00    3.00
  11  -2 -14    1.90    2.70
  11  -2 -14   -1.20    2.70
  11   2 -14    2.50    3.00
 -11   2  14    0.70    1.80
  10  -2 -14   24.20    4.40
 -10  -2  14   19.00    2.60
  10  -2 -14   19.00    3.80
 -10  -2  14   18.00    3.50
 -10   2  14   20.90    3.20
  10   2 -14   20.60    3.80
 -10   2  14   25.50    4.40
  10   2 -14   18.80    4.10
 -10   2  14   14.20    3.80
  -9  -2  14   21.30    2.80
   9  -2 -14   19.60    3.70
   9  -2 -14   14.70    3.50
  -9  -2  14   14.90    3.20
  -9   2  14   13.70    3.00
   9   2 -14   17.30    3.70
   9   2 -14   19.70    3.60
  -9   2  14   15.10    3.70
  -9   2  14   22.40    3.30
   8  -2 -14    9.50    2.70
  -8  -2  14    5.90    2.50
  -8  -2  14   11.70    2.60
  -8  -2  14   10.30    2.30
   8  -2 -14   11.50    3.10
  -8   2  14   10.90    2.90
   8   2 -14   11.60    3.10
  -8   2  14   12.90    2.90
   8   2 -14   13.00    2.90
   7  -2 -14  146.19    7.50
  -7  -2  14  167.38    7.50
  -7  -2  14  146.99    7.00
   7  -2 -14  153.38    8.20
  -7  -2  14  160.68    8.20
   7   2 -14  155.38    8.20
  -7   2  14  149.69    7.90
   7   2 -14  159.78    8.00
  -7   2  14  165.48    7.90
   6  -2 -14  278.47   10.70
   6  -2 -14  243.38   10.60
  -6  -2  14  240.48    9.60
  -6  -2  14  252.87   10.40
  -6  -2  14  239.78    9.90
   6   2 -14  253.27   10.60
  -6   2  14  257.07    9.70
  -6   2  14  264.37   10.60
   6   2 -14  245.58   10.60
  -6   2  14  251.97   10.50
  -5  -2  14  511.65   16.80
   5  -2 -14  492.15   15.20
  -5  -2  14  525.15   16.40
   5  -2 -14  492.75   17.10
   5  -2 -14  526.35   17.30
  -5  -2  14  516.05   16.90
  -5   2  14  512.55   16.90
   5   2 -14  468.25   16.80
  -5   2  14  511.85   16.50
   5   2 -14  492.65   16.70
   5   2 -14  506.65   17.40
  -5   2  14  525.35   17.30
  -4  -2  14  103.49    5.60
  -4  -2  14   97.69    6.00
   4  -2 -14  102.39    4.80
  -4  -2  14  105.39    5.00
   4  -2 -14   97.39    5.70
  -4  -2  14  105.19    5.70
   4  -2 -14   97.89    6.00
   4   2 -14   95.69    5.70
  -4   2  14   96.39    5.50
   4   2 -14  104.29    6.00
  -4   2  14   91.19    5.40
  -4   2  14  105.99    6.20
  -3  -2  14    6.40    2.20
  -3  -2  14    1.20    1.60
   3  -2 -14    3.10    2.00
  -3  -2  14    5.80    1.90
  -3  -2  14    2.90    1.50
   3  -2 -14    1.20    1.30
   3  -2 -14    3.00    1.60
   3   2 -14    5.90    1.90
  -3   2  14    3.50    1.90
  -3   2  14    1.80    1.70
  -3   2  14    2.30    1.60
   3   2 -14    0.60    1.70
  -2  -2  14    1.30    1.70
  -2  -2  14    1.20    1.30
  -2  -2  14    0.50    1.40
   2  -2 -14   -0.80    1.70
  -2  -2  14   -0.90    1.60
   2  -2 -14    3.80    1.60
   2  -2 -14    3.00    1.60
   2   2 -14    2.80    2.00
  -2   2  14    2.90    2.00
  -2   2  14    1.10    1.70
  -2   2  14    3.40    1.60
   2   2 -14    4.10    1.80
   1  -2 -14    6.00    2.00
   1  -2 -14    4.40    1.70
  -1  -2  14    2.30    1.80
  -1  -2  14    3.70    1.50
  -1  -2  14    5.00    2.20
  -1  -2  14    5.70    2.00
   1  -2 -14    3.90    1.60
   1   2 -14    4.90    1.10
  -1   2  14    5.10    2.00
  -1   2  14    5.20    2.10
   1   2 -14    4.50    2.10
  -1   2  14    3.30    1.40
   1   2 -14    2.60    1.60
   0  -2  14   60.99    3.50
   0  -2 -14   62.29    3.90
   0  -2 -14   62.89    4.30
   0  -2 -14   58.19    5.30
   0  -2  14   67.09    4.70
   0  -2  14   48.70    4.70
   0  -2  14   68.19    4.90
   0   2  14   53.69    5.20
   0   2  14   63.39    5.00
   0   2 -14   63.49    3.80
   0   2 -14   64.69    3.50
   0   2  14   67.99    3.80
   0   2 -14   67.49    5.10
  -1  -2 -14  231.68    9.50
   1  -2  14  245.08   10.20
  -1  -2 -14  223.38   10.20
   1  -2  14  232.88   10.30
  -1  -2 -14  239.78    9.60
   1   2  14  247.78   10.50
   1   2  14  247.08   10.40
  -1   2 -14  235.18   10.00
  -1   2 -14  224.68    8.70
   1   2  14  236.28    8.20
  -1   2 -14  251.97   10.50
  -2  -2 -14  146.99    7.30
   2  -2  14  127.09    7.50
  -2  -2 -14  146.69    7.80
   2  -2  14  127.19    7.30
   2   2  14  142.79    7.60
  -2   2 -14  135.19    7.60
   2   2  14  139.29    7.60
  -2   2 -14  131.69    6.30
  -2   2 -14  127.29    7.20
   3  -2  14    4.00    2.40
  -3  -2 -14    7.80    2.50
   3  -2  14   10.80    2.70
  -3  -2 -14    2.40    2.00
   3   2  14    8.50    2.80
  -3   2 -14    6.90    2.10
  -3   2 -14    6.10    2.40
   3   2  14    6.40    2.40
  -3   2 -14    6.30    2.50
   4  -2  14    6.90    2.70
  -4  -2 -14    4.90    2.50
  -4  -2 -14    1.70    2.20
   4  -2  14    4.70    2.80
   4   2  14    5.40    2.80
  -4   2 -14    4.70    2.50
  -4   2 -14    0.80    2.10
   4   2  14    6.10    2.30
  -4   2 -14    3.40    2.00
  -5  -2 -14   57.09    5.80
   5  -2  14   51.69    6.00
  -5  -2 -14   68.19    6.20
  -5   2 -14   53.69    5.30
  -5   2 -14   57.09    5.90
   5   2  14   59.19    6.20
  -5   2 -14   64.19    6.00
   6  -2  14   22.60    4.40
  -6  -2 -14   31.20    4.70
  -6  -2 -14   21.00    3.90
  -6   2 -14   23.90    4.00
  -6   2 -14   22.30    4.20
  -6   2 -14   24.20    4.10
   6   2  14   15.80    3.70
  10  -3 -14   99.19    7.00
  10  -3 -14   97.19    7.50
  10   3 -14   95.69    7.40
 -10   3  14   86.39    8.90
  10   3 -14  106.09    7.40
 -10   3  14   87.29    6.20
  -9  -3  14   13.20    3.00
   9  -3 -14    8.00    3.10
   9  -3 -14   15.40    3.50
  -9  -3  14   20.70    4.00
  -9  -3  14   16.20    2.60
   9   3 -14   13.90    3.20
  -9   3  14   15.20    3.70
  -9   3  14   15.60    3.30
   9   3 -14   16.50    3.60
  -9   3  14   16.70    3.70
   8  -3 -14   18.70    3.30
  -8  -3  14   25.50    3.90
   8  -3 -14   16.40    3.60
  -8  -3  14   16.50    3.20
   8   3 -14   16.70    3.50
   8   3 -14   15.30    3.20
  -8   3  14   23.80    4.10
  -8   3  14   20.50    3.70
  -8   3  14   22.80    3.90
   7  -3 -14    1.60    2.20
  -7  -3  14    1.30    1.70
  -7  -3  14   -2.50    1.60
  -7  -3  14   -1.00    1.60
   7  -3 -14    1.10    1.60
  -7   3  14    1.80    1.90
  -7   3  14    2.20    2.10
   7   3 -14   -1.80    1.80
  -7   3  14   -1.20    2.00
   7   3 -14    0.60    2.20
  -6  -3  14   32.00    4.00
   6  -3 -14   28.10    3.90
   6  -3 -14   34.60    4.50
   6  -3 -14   39.70    3.80
  -6  -3  14   20.10    3.50
  -6  -3  14   31.00    3.80
  -6   3  14   30.80    4.10
  -6   3  14   31.20    4.00
  -6   3  14   27.70    3.80
   6   3 -14   29.10    3.90
   6   3 -14   34.00    4.40
   5  -3 -14  122.49    7.00
  -5  -3  14  122.19    6.70
   5  -3 -14  115.19    5.90
   5  -3 -14  112.39    6.80
  -5  -3  14  123.59    6.70
  -5   3  14  127.99    7.30
   5   3 -14  130.29    6.80
   5   3 -14  108.09    6.80
   5   3 -14  109.79    6.70
  -5   3  14  117.59    6.50
   4  -3 -14  255.57    9.50
  -4  -3  14  246.88    9.10
  -4  -3  14  250.57   10.30
  -4  -3  14  251.87   10.50
   4  -3 -14  251.77   10.90
   4  -3 -14  235.48   10.30
  -4   3  14  257.87   10.90
   4   3 -14  241.08   11.00
  -4   3  14  261.77   10.40
   4   3 -14  249.38   10.50
   4   3 -14  260.07   10.50
  -3  -3  14  189.88    7.80
   3  -3 -14  178.28    7.60
   3  -3 -14  167.88    8.10
  -3  -3  14  170.88    8.30
  -3  -3  14  174.78    8.50
   3  -3 -14  182.48    8.80
   3   3 -14  187.28    8.70
  -3   3  14  173.68    7.90
  -3   3  14  184.98    8.50
   3   3 -14  181.18    8.20
  -3   3  14  171.88    8.70
   2  -3 -14   26.20    3.20
   2  -3 -14   27.90    4.00
   2  -3 -14   30.40    3.60
  -2  -3  14   21.90    3.60
  -2  -3  14   29.40    3.50
  -2  -3  14   27.20    3.80
   2   3 -14   21.30    3.60
  -2   3  14   25.10    3.10
   2   3 -14   30.70    3.50
  -2   3  14   24.80    3.70
  -2   3  14   26.40    3.60
   1  -3 -14   54.89    4.20
  -1  -3  14   44.70    4.80
   1  -3 -14   54.29    4.10
  -1  -3  14   50.29    4.70
   1  -3 -14   44.60    4.90
  -1  -3  14   59.19    5.40
  -1   3  14   44.50    4.80
   1   3 -14   54.39    4.00
  -1   3  14   56.39    3.90
  -1   3  14   50.79    5.20
   1   3 -14   50.99    5.10
   0  -3  14   25.30    3.90
   0  -3 -14   22.00    2.90
   0  -3  14   27.60    3.90
   0  -3 -14   27.90    3.60
   0  -3 -14   20.80    3.60
   0  -3  14   28.10    3.80
   0   3 -14   22.50    3.40
   0   3  14   30.30    3.20
   0   3  14   26.00    3.80
   0   3  14   19.40    3.50
   0   3 -14   18.50    3.50
   1  -3  14  247.78   11.00
   1  -3  14  241.78   10.50
   1  -3  14  251.57   10.80
  -1  -3 -14  250.07   11.00
  -1  -3 -14  233.48    9.10
  -1  -3 -14  232.88   10.10
  -1   3 -14  267.37   11.20
   1   3  14  242.88   10.80
  -1   3 -14  244.08   11.00
   1   3  14  246.68    9.00
   1   3  14  251.17   10.90
  -2  -3 -14   12.00    2.90
   2  -3  14   13.90    3.20
  -2  -3 -14   23.60    3.80
   2  -3  14   15.50    3.30
  -2   3 -14   18.10    3.30
  -2   3 -14   24.00    3.90
   2   3  14   17.80    3.40
   2   3  14   21.90    3.80
   3  -3  14   55.99    5.80
  -3  -3 -14   50.09    5.30
   3  -3  14   56.79    5.70
  -3  -3 -14   58.19    5.80
   3   3  14   61.89    5.80
  -3   3 -14   55.19    5.70
  -3   3 -14   59.59    5.90
   3   3  14   60.09    6.00
  -4  -3 -14    2.60    2.20
  -4  -3 -14   -2.00    1.80
   4  -3  14    2.40    2.30
   4  -3  14    2.60    2.60
  -4   3 -14    3.50    2.60
   4   3  14   -0.50    2.20
  -4   3 -14   -3.40    2.00
  -5  -3 -14   98.69    6.80
   5  -3  14   83.19    7.70
  -5  -3 -14   83.09    6.40
  -5   3 -14   89.79    6.30
  -5   3 -14   83.89    6.80
  -5   3 -14   73.29    7.00
   5   3  14   94.59    7.00
   6  -3  14    5.40    3.20
  -6   3 -14    3.70    2.60
  -6   3 -14    2.30    2.90
   6   3  14    3.80    2.90
  -9  -4  14   -1.20    2.30
   9  -4 -14    2.30    2.40
  -9  -4  14    4.20    2.10
   9  -4 -14    3.60    2.90
   9   4 -14    2.50    2.70
  -9   4  14    3.20    2.90
  -9   4  14    3.50    2.80
   9   4 -14    3.40    2.40
  -8  -4  14   13.10    2.80
  -8  -4  14   12.70    3.50
   8  -4 -14   17.00    3.30
   8  -4 -14   15.30    3.70
   8   4 -14   10.10    3.40
  -8   4  14   12.30    3.10
  -8   4  14   14.00    3.40
  -8   4  14   13.80    3.40
   8   4 -14   13.10    3.60
  -7  -4  14    0.70    2.10
   7  -4 -14    4.20    2.60
  -7  -4  14    3.80    2.20
  -7   4  14    1.90    2.00
  -7   4  14    1.30    2.20
  -7   4  14    3.90    2.40
   7   4 -14    3.60    2.70
   7   4 -14    5.40    2.60
   6  -4 -14   82.29    6.20
  -6  -4  14   87.29    6.00
   6  -4 -14   81.99    6.00
   6  -4 -14   87.99    5.50
  -6  -4  14   79.69    6.10
   6   4 -14   97.19    6.90
   6   4 -14   79.79    5.90
  -6   4  14   88.59    6.40
  -6   4  14   79.89    6.10
  -6   4  14  100.79    6.30
   5  -4 -14   35.20    4.70
  -5  -4  14   24.50    3.90
  -5  -4  14   30.10    4.10
   5  -4 -14   40.00    4.90
   5  -4 -14   34.00    3.90
  -5   4  14   27.70    4.20
   5   4 -14   30.70    4.20
   5   4 -14   31.10    4.70
  -5   4  14   37.80    4.10
  -5   4  14   32.80    4.30
  -4  -4  14   45.40    5.00
   4  -4 -14   41.30    4.30
   4  -4 -14   36.10    4.60
  -4  -4  14   42.70    4.80
   4  -4 -14   43.20    5.10
   4   4 -14   37.10    4.50
   4   4 -14   47.40    5.00
  -4   4  14   38.70    4.40
  -4   4  14   44.80    4.20
   4   4 -14   41.70    5.10
  -4   4  14   46.70    5.20
   3  -4 -14   34.90    3.90
  -3  -4  14   39.60    4.60
   3  -4 -14   32.50    4.60
  -3  -4  14   44.20    4.20
   3  -4 -14   38.00    4.40
  -3  -4  14   36.60    4.60
  -3   4  14   31.60    3.80
   3   4 -14   37.10    4.60
  -3   4  14   38.90    4.80
  -3   4  14   33.10    3.50
   3   4 -14   29.40    3.90
   3   4 -14   33.70    4.60
   2  -4 -14   22.00    3.30
   2  -4 -14   25.40    3.90
  -2  -4  14   23.90    3.80
  -2  -4  14   21.50    3.20
   2  -4 -14   26.60    4.00
  -2  -4  14   25.30    3.90
  -2   4  14   28.60    4.30
   2   4 -14   26.00    4.40
   2   4 -14   27.50    3.60
  -2   4  14   25.70    3.50
  -1  -4  14   -0.70    1.50
  -1  -4  14   -0.90    1.90
   1  -4 -14    3.00    1.90
   1  -4 -14   -0.30    1.80
   1  -4 -14   -1.40    1.90
  -1  -4  14    2.20    2.30
  -1   4  14    7.20    2.80
  -1   4  14    0.30    1.60
  -1   4  14    1.90    2.40
   0  -4 -14    1.50    1.70
   0  -4 -14   -0.50    1.80
   0  -4  14   -2.00    1.90
   0  -4  14   -1.50    2.00
   0  -4 -14    0.40    1.70
   0  -4  14    1.10    1.90
   0  -4 -14    1.30    2.20
   0   4 -14    2.10    2.10
   0   4  14   -1.80    1.70
   0   4  14   -1.50    1.30
   0   4  14    1.40    2.30
  -1  -4 -14    1.00    2.20
   1  -4  14    5.10    2.40
   1  -4  14    5.80    2.30
  -1  -4 -14    3.90    1.90
  -1  -4 -14    3.90    2.30
   1  -4  14   -0.80    2.00
  -1  -4 -14    5.30    2.00
   1   4  14    4.50    1.80
  -1   4 -14    1.20    2.20
   1   4  14    1.00    2.10
   1   4  14    2.00    2.40
   2  -4  14   10.20    3.10
   2  -4  14    9.20    3.10
  -2  -4 -14   12.40    3.20
  -2  -4 -14   13.50    3.30
   2  -4  14    7.70    3.00
  -2   4 -14   15.80    3.70
   2   4  14    7.10    3.00
   2   4  14   13.00    3.10
   3  -4  14    2.80    2.50
  -3  -4 -14    1.00    2.30
   3  -4  14    3.90    2.70
  -3  -4 -14    0.50    1.90
   3   4  14    2.60    2.80
  -3   4 -14    2.20    2.80
  -3   4 -14    3.60    2.70
   4  -4  14   13.70    3.80
  -4  -4 -14   23.40    4.30
  -4  -4 -14   20.10    3.80
   4  -4  14   24.70    4.10
  -4   4 -14   18.80    4.10
   4   4  14   21.50    4.30
  -4   4 -14    9.30    3.60
   5  -4  14   12.70    3.80
   5   4  14   14.20    3.80
   7  -5 -14   64.09    6.80
  -7  -5  14   73.39    7.00
  -7  -5  14   70.09    6.10
   7   5 -14   60.29    6.60
   7   5 -14   60.59    6.80
  -7   5  14   67.09    6.30
   6  -5 -14   28.00    4.30
   6  -5 -14   28.40    4.70
  -6  -5  14   26.50    4.20
   6  -5 -14   32.50    6.40
  -6  -5  14   32.00    4.90
  -6   5  14   36.60    5.20
   6   5 -14   22.30    4.30
  -6   5  14   22.60    4.20
  -6   5  14   19.90    3.80
   6   5 -14   27.80    4.80
   5  -5 -14    5.80    2.40
  -5  -5  14    9.90    3.30
   5  -5 -14    4.30    2.90
   5  -5 -14    5.10    2.80
  -5  -5  14    4.80    2.60
  -5   5  14    7.70    2.60
  -5   5  14    4.00    2.60
  -5   5  14    4.80    2.90
   5   5 -14    3.20    2.90
   5   5 -14    5.10    2.30
  -4  -5  14    1.40    2.20
   4  -5 -14    0.30    2.20
  -4  -5  14    2.00    2.00
   4  -5 -14    1.10    2.40
   4  -5 -14    0.90    1.90
   4   5 -14    0.90    2.40
  -4   5  14   -3.50    1.80
  -4   5  14    2.00    2.60
   3  -5 -14   -0.50    2.00
   3  -5 -14    2.30    2.60
  -3  -5  14    0.80    2.30
  -3  -5  14    1.20    1.80
   3  -5 -14    0.00    1.90
  -3  -5  14   -2.30    2.20
  -3   5  14    0.30    2.10
   3   5 -14   -0.90    2.20
  -3   5  14    2.00    2.60
   3   5 -14   -2.40    2.20
  -2  -5  14   32.60    4.80
   2  -5 -14   29.00    4.60
   2  -5 -14   20.50    3.70
   2  -5 -14   22.30    3.80
  -2  -5  14   30.30    3.90
  -2  -5  14   18.10    3.80
   2   5 -14   24.00    4.50
  -2   5  14   24.30    4.40
  -2   5  14   24.90    3.80
   2   5 -14   30.00    4.50
   1  -5 -14    1.90    2.40
  -1  -5  14    5.10    2.80
   1  -5 -14    0.20    2.00
  -1  -5  14    2.60    2.50
   1  -5 -14   -2.10    2.00
  -1  -5  14    2.50    2.40
   1   5 -14    1.60    2.50
  -1   5  14    1.30    2.30
  -1   5  14    0.10    2.00
   1   5 -14    5.60    2.90
   1   5 -14    2.60    2.40
   0  -5  14   13.00    3.30
   0  -5 -14    7.40    2.80
   0  -5  14   13.30    3.50
   0  -5 -14   13.80    3.70
   0  -5  14   13.60    3.40
   0  -5 -14   12.30    3.30
   0   5 -14   15.00    3.70
   0   5  14    9.00    3.30
   0   5  14   13.50    3.50
   0   5  14   13.70    3.10
   0   5 -14   19.20    4.10
   1  -5  14    4.60    2.90
  -1  -5 -14    0.90    2.50
  -1  -5 -14    3.50    3.50
  -1  -5 -14    5.80    2.40
   1  -5  14    5.30    2.80
  -1  -5 -14    3.40    2.60
   1  -5  14    8.30    3.10
   1   5  14    4.80    2.70
   1   5  14    2.50    2.30
  -1   5 -14    2.70    2.90
  -1   5 -14    3.20    2.90
   1   5  14   11.00    3.30
   2  -5  14   38.70    5.10
  -2  -5 -14   43.80    5.70
   2  -5  14   41.60    5.60
  -2  -5 -14   42.80    4.90
   2  -5  14   46.10    5.70
  -2  -5 -14   47.20    5.70
   2   5  14   31.00    5.00
   2   5  14   49.60    6.10
  -2   5 -14   34.60    5.10
  -2   5 -14   53.99    6.20
  -3  -5 -14   20.10    4.40
  -3  -5 -14   26.50    4.30
   3  -5  14   22.80    4.40
   3  -5  14   29.00    5.00
   3   5  14   18.50    4.10
   4  -6 -14    0.50    2.30
   4  -6 -14   -0.10    2.50
   4  -6 -14    3.00    2.90
   4   6 -14   -0.30    2.10
  -4   6  14   -0.60    2.50
   3  -6 -14   66.39    6.60
   3  -6 -14   69.19    6.60
   3  -6 -14   74.59    7.60
   3   6 -14   47.50    6.40
  -3   6  14   73.49    6.70
  -3   6  14   62.39    6.80
   2  -6 -14   43.00    5.30
   2  -6 -14   38.30    5.20
   2  -6 -14   38.60    5.70
   2   6 -14   37.60    5.70
  -2   6  14   43.70    5.10
  -2   6  14   33.40    5.30
   2   6 -14   36.60    5.40
   1  -6 -14   -0.30    2.50
   1  -6 -14    2.30    2.50
   1  -6 -14    0.70    3.00
  -1  -6  14    1.20    2.60
  -1   6  14   -2.00    1.80
   1   6 -14    2.10    3.10
  -1   6  14    2.50    2.90
   1   6 -14   -0.40    2.50
   0  -6 -14   -1.40    2.70
   0  -6  14    6.40    2.90
   0  -6 -14    3.30    2.80
   0   6 -14   -1.00    2.70
   0   6 -14    1.70    3.10
   0   6  14    7.80    2.90
   0   6  14    1.90    2.90
  11   0 -15    7.70    3.20
  10   0 -15   -3.00    2.10
 -10   0  15   -1.10    1.70
 -10   0  15   -1.90    1.40
  -9   0  15   -1.50    1.90
  -9   0  15   -0.30    1.50
   9   0 -15   -1.20    1.90
   8   0 -15   -1.80    1.80
  -8   0  15   -0.10    1.40
  -8   0  15    2.20    1.60
  -7   0  15    2.10    2.00
   7   0 -15   -1.20    1.40
  -7   0  15    2.30    2.00
   7   0 -15    0.90    2.20
  -6   0  15    1.00    1.90
   6   0 -15   -1.70    1.40
   6   0 -15   -0.70    1.50
   6   0 -15    0.00    1.80
  -6   0  15   -0.40    1.60
   5   0 -15   -0.70    1.50
  -5   0  15   -0.30    1.60
  -5   0  15   -1.40    1.30
   5   0 -15    2.70    1.90
  -5   0  15    1.10    1.90
  -4   0  15   -0.20    1.20
  -4   0  15    0.60    1.50
   4   0 -15    0.80    1.70
  -4   0  15    0.10    1.50
   4   0 -15    4.10    1.80
   3   0 -15   -1.70    1.10
   3   0 -15    0.10    1.50
  -3   0  15    0.50    1.30
  -3   0  15    1.10    1.70
  -3   0  15    1.30    1.80
   2   0 -15   -0.50    1.60
   2   0 -15    1.50    1.00
  -2   0  15    0.60    1.60
  -2   0  15   -0.70    1.40
   2   0 -15   -1.70    1.30
  -2   0  15    2.20    1.50
  -1   0  15    1.90    1.70
  -1   0  15    3.40    1.90
  -1   0  15    0.90    1.30
   1   0 -15    0.40    1.60
   1   0 -15    0.10    1.30
   1   0 -15    2.70    1.20
   0   0 -15    1.20    1.80
   0   0  15   -0.20    1.70
   0   0 -15    0.70    1.20
   0   0 -15   -0.90    1.10
   0   0  15   -1.30    1.40
   0   0  15   -0.40    1.00
   1   0  15   -0.50    1.70
  -1   0 -15    0.00    1.30
  -1   0 -15    3.00    2.00
   1   0  15    0.60    1.80
  -2   0 -15    5.30    2.00
   2   0  15   -0.50    1.40
  -2   0 -15   -1.80    1.70
   2   0  15   -1.40    1.70
   3   0  15   -2.50    1.80
  -3   0 -15    1.50    1.70
  -3   0 -15   -4.70    1.40
   3   0  15    0.00    2.00
  -4   0 -15   -1.40    1.80
   4   0  15   -2.60    2.00
  -4   0 -15   -1.30    1.70
   4   0  15    1.00    2.10
   5   0  15   -1.40    1.40
  -5   0 -15   -3.10    1.90
  -5   0 -15    0.60    2.20
   6   0  15    5.20    2.90
  -6   0 -15    0.80    2.40
  -6   0 -15   -0.30    2.30
  11  -1 -15    3.20    2.80
  11  -1 -15   -2.10    2.40
 -11   1  15    1.00    1.70
  11   1 -15   -1.20    2.40
  10  -1 -15   -0.50    2.40
 -10  -1  15   -2.80    2.20
  10  -1 -15   -3.60    1.80
 -10  -1  15   -0.30    1.50
 -10   1  15   -2.50    1.40
  10   1 -15   -4.50    1.70
 -10   1  15    0.50    2.50
  -9  -1  15   -1.70    1.90
   9  -1 -15    1.80    2.50
  -9  -1  15    2.20    1.70
  -9   1  15   -2.60    1.80
   9   1 -15   -1.00    1.40
   9   1 -15   -1.50    1.80
  -9   1  15    1.30    1.70
  -8  -1  15    0.60    1.70
   8  -1 -15    0.30    1.70
  -8  -1  15    3.10    2.30
   8   1 -15   -0.80    1.50
  -8   1  15   -0.40    2.10
   8   1 -15    1.20    2.20
  -8   1  15   -0.80    1.60
   7  -1 -15   90.89    6.30
  -7  -1  15   92.39    5.50
  -7  -1  15   90.59    6.00
  -7   1  15   74.29    5.70
   7   1 -15   91.69    5.60
  -7   1  15   86.99    5.60
   7   1 -15   88.69    6.20
   6  -1 -15   22.50    2.90
   6  -1 -15   30.50    4.20
  -6  -1  15   30.50    3.80
  -6  -1  15   28.70    3.80
   6  -1 -15   34.60    4.00
  -6  -1  15   24.80    2.90
   6   1 -15   23.90    3.70
  -6   1  15   25.80    3.10
   6   1 -15   33.20    4.30
   6   1 -15   20.70    3.20
  -6   1  15   30.40    3.80
  -6   1  15   26.40    3.60
  -5  -1  15   11.40    2.60
  -5  -1  15    9.30    2.00
  -5  -1  15   12.20    2.70
  -5  -1  15    9.50    2.10
   5  -1 -15    7.00    2.50
   5  -1 -15    8.00    2.50
  -5   1  15    5.90    2.40
  -5   1  15    9.90    2.30
  -5   1  15   10.30    2.60
   5   1 -15    9.30    2.40
   5   1 -15    9.90    2.60
  -4  -1  15   19.70    2.60
   4  -1 -15   17.80    2.90
  -4  -1  15   20.50    3.20
  -4  -1  15   20.80    2.70
  -4  -1  15   19.50    2.80
   4  -1 -15   21.90    3.40
  -4   1  15   24.40    3.60
  -4   1  15   17.60    2.80
   4   1 -15   19.90    3.10
   4   1 -15   16.10    3.00
  -4   1  15   20.70    2.90
   3  -1 -15   31.20    4.00
   3  -1 -15   29.70    2.40
  -3  -1  15   25.90    3.00
  -3  -1  15   30.70    3.40
   3  -1 -15   34.00    3.70
  -3  -1  15   30.80    3.50
  -3  -1  15   23.70    3.50
  -3   1  15   26.90    3.70
   3   1 -15   29.00    3.80
   3   1 -15   33.00    3.60
  -3   1  15   30.40    3.50
   2  -1 -15   22.90    2.40
   2  -1 -15   23.40    3.00
  -2  -1  15   18.40    2.80
  -2  -1  15   22.00    2.60
   2  -1 -15   16.80    3.20
  -2  -1  15   26.10    3.70
  -2   1  15   19.10    2.50
  -2   1  15   20.70    3.20
   2   1 -15   18.60    3.20
   2   1 -15   21.20    2.70
  -2   1  15   19.80    3.30
  -1  -1  15    5.80    2.30
   1  -1 -15    2.00    1.60
  -1  -1  15    2.50    1.40
   1  -1 -15    8.20    2.60
  -1  -1  15    1.80    1.70
   1  -1 -15    2.20    1.40
  -1   1  15    1.50    1.80
  -1   1  15    2.70    1.50
   1   1 -15    2.50    1.10
   1   1 -15    1.90    1.40
   1   1 -15    3.00    1.80
  -1   1  15    2.80    2.10
   0  -1  15   21.90    3.30
   0  -1 -15   23.70    2.70
   0  -1  15   23.20    2.30
   0  -1 -15   23.80    3.70
   0  -1 -15   21.30    2.70
   0  -1  15   20.80    3.50
   0   1  15   22.50    3.60
   0   1 -15   21.90    2.60
   0   1  15   22.50    2.40
   0   1  15   14.70    3.10
   0   1 -15   21.70    3.50
   0   1 -15   22.60    2.50
  -1  -1 -15  211.08    8.50
   1  -1  15  208.98    9.70
   1  -1  15  188.78    9.10
  -1  -1 -15  195.78    9.50
   1   1  15  208.78    9.60
  -1   1 -15  191.78    7.90
  -1   1 -15  220.98    9.80
   1   1  15  193.78    9.20
   2  -1  15   52.49    5.40
   2  -1  15   53.09    5.20
  -2  -1 -15   49.80    5.20
  -2  -1 -15   49.00    4.60
  -2   1 -15   45.50    4.20
  -2   1 -15   51.09    5.30
   2   1  15   42.30    4.80
   2   1  15   39.90    4.70
  -3  -1 -15    5.90    2.20
   3  -1  15    2.50    2.30
   3  -1  15    2.20    2.30
  -3  -1 -15    7.50    2.80
  -3   1 -15    1.70    2.20
   3   1  15    7.10    2.60
   3   1  15    3.20    2.00
  -3   1 -15    4.30    2.40
  -3   1 -15    7.60    2.30
   4  -1  15   -1.20    2.20
  -4  -1 -15    0.90    2.10
   4  -1  15   -4.40    1.70
  -4  -1 -15    2.80    2.20
  -4   1 -15    3.80    2.20
  -4   1 -15   -0.60    2.00
  -4   1 -15   -2.30    2.00
   4   1  15    0.50    1.70
   4   1  15    0.30    2.10
   5  -1  15    2.80    2.90
  -5  -1 -15    4.90    2.60
  -5  -1 -15    3.40    2.40
  -5   1 -15    5.80    2.40
  -5   1 -15    5.50    2.70
  -5   1 -15    8.00    2.90
   5   1  15    7.70    3.10
   6  -1  15    9.70    3.40
  -6  -1 -15   11.60    5.20
  -6  -1 -15    9.40    3.20
   6  -1  15    9.10    3.00
   6   1  15   13.10    3.70
  -6   1 -15    7.70    3.00
  10  -2 -15   67.49    7.00
 -10  -2  15   76.79    4.80
  10  -2 -15   80.79    6.50
  10   2 -15   92.69    7.10
  10   2 -15   84.59    6.30
 -10   2  15   85.79    7.80
 -10   2  15   82.99    8.10
 -10   2  15   75.39    5.50
   9  -2 -15   16.30    3.50
  -9  -2  15   11.60    3.40
  -9  -2  15   15.60    2.70
   9  -2 -15   18.80    3.70
   9   2 -15   16.20    3.50
   9   2 -15   17.80    3.80
  -9   2  15   10.30    3.20
  -9   2  15   13.90    3.00
  -9   2  15   12.50    3.70
  -8  -2  15   48.80    5.20
   8  -2 -15   48.10    5.50
   8  -2 -15   49.90    5.20
  -8  -2  15   42.20    4.20
   8   2 -15   37.80    5.00
   8   2 -15   44.60    4.90
  -8   2  15   43.00    4.70
  -8   2  15   41.30    4.70
  -7  -2  15   16.20    2.90
  -7  -2  15   12.80    3.10
   7  -2 -15   12.10    2.90
  -7  -2  15   13.00    2.60
  -7   2  15   11.50    2.50
   7   2 -15   15.60    3.40
  -7   2  15   15.30    3.00
   7   2 -15   17.50    3.30
  -7   2  15   12.70    3.20
  -6  -2  15   11.80    2.40
   6  -2 -15   13.40    2.90
  -6  -2  15   16.80    3.00
  -6  -2  15   11.20    2.80
   6  -2 -15    7.20    2.70
   6   2 -15   12.60    3.00
  -6   2  15    9.60    2.30
   6   2 -15    9.90    2.80
  -6   2  15    7.60    2.50
  -6   2  15    9.60    2.80
  -5  -2  15    3.40    1.80
   5  -2 -15    0.10    1.70
  -5  -2  15    3.00    2.00
   5  -2 -15   -2.00    1.60
  -5  -2  15    0.90    1.40
   5   2 -15    1.10    1.90
   5   2 -15   -1.50    1.60
  -5   2  15    3.10    2.10
  -5   2  15    1.50    1.90
  -5   2  15   -0.80    1.80
   5   2 -15   -0.60    1.90
  -4  -2  15   11.20    2.50
  -4  -2  15    7.20    2.30
  -4  -2  15   11.50    2.30
  -4  -2  15   12.30    2.60
   4  -2 -15    7.70    2.60
   4  -2 -15    9.70    2.50
   4  -2 -15   11.70    2.00
  -4   2  15    6.30    2.50
  -4   2  15    8.70    2.30
   4   2 -15   11.80    2.70
  -4   2  15    9.30    2.40
   4   2 -15   12.50    2.70
  -3  -2  15    7.30    2.20
   3  -2 -15   11.40    2.10
  -3  -2  15   10.40    2.70
   3  -2 -15   10.40    2.60
  -3  -2  15    7.90    2.30
   3  -2 -15    6.60    2.50
  -3  -2  15   10.10    2.30
  -3   2  15    7.20    2.30
   3   2 -15    8.90    2.30
   3   2 -15    7.50    2.40
  -3   2  15    8.70    2.20
  -3   2  15   10.80    2.80
  -2  -2  15   10.30    2.80
  -2  -2  15   14.60    2.80
  -2  -2  15   10.70    2.40
   2  -2 -15   10.20    2.40
   2  -2 -15   10.10    2.10
   2  -2 -15   14.10    3.00
  -2  -2  15   12.80    2.40
   2   2 -15   12.20    2.40
   2   2 -15    8.20    2.30
  -2   2  15   10.20    2.70
  -2   2  15    9.30    2.50
  -2   2  15   12.00    2.30
   1  -2 -15   -0.20    1.60
  -1  -2  15   -1.60    1.40
  -1  -2  15    1.10    1.30
   1  -2 -15    0.90    1.50
  -1  -2  15    3.40    2.10
   1  -2 -15    1.90    1.80
  -1  -2  15   -0.40    1.80
  -1   2  15    0.60    1.90
  -1   2  15   -0.80    1.20
   1   2 -15    3.40    1.60
   1   2 -15    0.70    1.70
  -1   2  15   -0.40    1.60
   0  -2  15   14.30    1.90
   0  -2 -15   13.10    2.40
   0  -2 -15   13.70    3.00
   0  -2 -15   10.80    2.40
   0  -2  15   10.70    2.60
   0  -2  15   11.90    3.00
   0   2  15   12.20    2.90
   0   2 -15   15.20    2.30
   0   2  15    7.50    2.60
   0   2 -15   15.20    2.10
   0   2 -15   11.00    2.90
   0   2  15    9.90    1.90
  -1  -2 -15  128.99    7.50
   1  -2  15  111.19    6.60
  -1  -2 -15  118.79    6.40
   1  -2  15  114.69    7.20
  -1   2 -15  120.99    5.80
  -1   2 -15  123.99    7.40
  -1   2 -15  129.49    7.20
   1   2  15  123.89    7.30
   1   2  15  124.69    7.20
  -2  -2 -15    1.90    2.00
   2  -2  15    5.10    2.20
  -2  -2 -15    2.90    2.40
   2  -2  15    9.20    2.90
   2   2  15    6.10    2.50
  -2   2 -15    3.80    1.90
  -2   2 -15    6.90    2.60
   2   2  15    3.50    1.90
  -2   2 -15    7.20    2.50
   3  -2  15   22.70    3.90
   3  -2  15   24.80    4.10
  -3  -2 -15   32.40    4.50
  -3  -2 -15   24.30    3.80
  -3   2 -15   19.10    3.60
  -3   2 -15   26.60    3.50
  -3   2 -15   27.40    4.30
   3   2  15   29.70    4.50
   3   2  15   24.40    4.00
   4  -2  15   35.70    4.80
  -4  -2 -15   33.60    4.60
   4  -2  15   40.60    5.00
  -4  -2 -15   33.60    4.70
   4   2  15   23.30    4.20
  -4   2 -15   30.90    4.40
  -4   2 -15   38.00    5.00
  -4   2 -15   38.20    4.40
   5  -2  15   57.89    6.50
  -5  -2 -15   67.09    6.50
  -5  -2 -15   64.39    6.30
   5   2  15   65.79    6.70
  -5   2 -15   73.69    6.50
  -5   2 -15   60.29    5.80
  -5   2 -15   49.80    5.90
   6  -2  15   -3.40    2.40
  -6  -2 -15    3.00    2.60
   6   2  15   -1.00    2.40
  -6   2 -15    1.50    2.40
  -6   2 -15    1.50    2.60
  -9  -3  15    0.80    1.90
   9  -3 -15   -0.10    2.20
   9  -3 -15    0.30    2.40
  -9  -3  15    5.70    2.10
  -9   3  15    1.20    2.30
  -9   3  15    0.60    2.40
  -9   3  15    1.40    2.50
   9   3 -15    1.70    2.60
   9   3 -15    0.20    2.20
   8  -3 -15    3.20    2.10
  -8  -3  15    5.60    2.40
  -8  -3  15    3.80    2.30
   8  -3 -15    2.90    2.60
  -8  -3  15    2.90    2.00
  -8   3  15    7.20    2.90
  -8   3  15    0.50    2.30
   8   3 -15    5.40    2.70
   8   3 -15    3.50    2.40
  -8   3  15    2.10    2.40
   7  -3 -15   23.80    4.30
   7  -3 -15   27.60    3.60
  -7  -3  15   25.70    3.70
  -7  -3  15   28.00    4.20
  -7  -3  15   26.50    3.70
  -7   3  15   30.80    4.40
   7   3 -15   27.50    4.40
  -7   3  15   24.50    3.80
   7   3 -15   29.00    4.40
  -7   3  15   25.80    4.00
  -6  -3  15    7.00    2.60
   6  -3 -15    2.10    2.40
  -6  -3  15    8.50    2.60
  -6  -3  15    7.40    2.50
   6  -3 -15   11.20    3.00
  -6   3  15   11.50    3.00
   6   3 -15   11.90    3.10
  -6   3  15   11.10    2.70
  -6   3  15    9.00    2.80
   6   3 -15    5.70    2.60
  -5  -3  15   66.19    5.30
  -5  -3  15   62.89    5.50
   5  -3 -15   63.79    5.90
   5  -3 -15   50.29    5.30
   5  -3 -15   63.29    4.30
  -5  -3  15   65.19    5.00
   5   3 -15   63.79    6.50
  -5   3  15   69.99    5.50
  -5   3  15   66.39    5.60
   5   3 -15   71.29    5.30
   5   3 -15   63.29    6.10
   4  -3 -15   54.49    5.20
  -4  -3  15   52.49    5.20
  -4  -3  15   50.19    4.80
  -4  -3  15   57.79    5.30
   4  -3 -15   57.49    4.00
   4  -3 -15   57.19    5.60
  -4  -3  15   54.69    4.00
   4   3 -15   54.59    5.30
   4   3 -15   60.49    5.40
  -4   3  15   55.39    5.00
  -4   3  15   47.60    5.10
  -4   3  15   53.59    5.10
   4   3 -15   52.99    5.70
  -3  -3  15   14.30    3.10
   3  -3 -15    9.90    2.60
   3  -3 -15   10.90    2.90
  -3  -3  15    9.30    2.40
  -3  -3  15    8.00    2.60
   3  -3 -15   11.70    2.30
  -3  -3  15   13.10    2.60
  -3   3  15    8.60    2.70
  -3   3  15    8.30    2.70
   3   3 -15    9.70    2.70
   3   3 -15   15.40    2.90
  -3   3  15    8.50    2.30
  -2  -3  15   39.30    4.60
  -2  -3  15   50.49    4.60
  -2  -3  15   46.50    4.10
   2  -3 -15   47.70    4.70
   2  -3 -15   41.20    5.00
   2  -3 -15   47.20    4.30
  -2  -3  15   41.90    4.90
   2   3 -15   48.80    4.50
  -2   3  15   39.90    4.90
   2   3 -15   48.50    5.20
  -2   3  15   47.30    5.00
  -2   3  15   45.10    4.20
  -1  -3  15   42.70    4.90
  -1  -3  15   31.70    4.20
   1  -3 -15   36.40    3.90
  -1  -3  15   35.50    3.50
   1  -3 -15   41.40    4.90
  -1  -3  15   35.50    4.10
   1  -3 -15   30.90    3.80
  -1   3  15   37.00    4.70
  -1   3  15   30.30    4.10
  -1   3  15   35.60    3.60
   1   3 -15   35.10    3.70
   1   3 -15   31.60    4.30
   0  -3 -15   17.20    2.80
   0  -3  15   12.10    2.90
   0  -3 -15   10.60    3.00
   0  -3  15   17.60    3.10
   0  -3 -15   15.80    3.20
   0  -3  15   11.30    2.80
   0   3  15   15.70    2.50
   0   3  15   10.60    3.00
   0   3  15   15.00    3.40
   0   3 -15   13.20    3.10
   1  -3  15   -0.20    2.20
  -1  -3 -15   -1.10    1.70
   1  -3  15   -0.70    1.80
  -1  -3 -15    1.00    2.10
  -1   3 -15    2.00    2.30
   1   3  15    0.50    2.00
  -1   3 -15    0.10    2.20
   1   3  15    1.60    2.30
   2  -3  15    0.90    1.80
   2  -3  15    2.50    2.50
  -2  -3 -15    3.50    2.40
  -2  -3 -15    8.40    2.70
  -2   3 -15    1.90    1.80
   2   3  15    0.60    1.80
  -2   3 -15    2.20    2.40
  -2   3 -15   -2.30    2.20
   2   3  15    1.40    2.30
  -3  -3 -15   -1.50    1.40
  -3  -3 -15   -1.40    1.90
   3  -3  15   -0.40    2.20
   3  -3  15   -0.40    2.20
  -3   3 -15   -0.60    1.50
   3   3  15    0.20    2.20
  -3   3 -15   -0.40    2.20
   3   3  15    3.20    2.50
  -3   3 -15    1.80    2.40
  -4  -3 -15   -2.00    2.00
  -4  -3 -15    0.00    2.40
   4  -3  15    0.00    2.30
   4  -3  15   -3.80    2.20
  -4   3 -15   -1.70    2.20
   4   3  15   -2.10    2.00
  -4   3 -15   -0.80    2.00
  -4   3 -15    3.50    2.40
   5  -3  15    0.40    2.70
  -5  -3 -15    2.90    2.80
   5   3  15    6.80    3.10
  -5   3 -15    4.50    3.00
  -5   3 -15    0.40    2.10
  -8  -4  15    3.80    2.90
  -8  -4  15   10.60    3.10
   8  -4 -15   10.30    3.50
  -8  -4  15    5.50    2.30
   8   4 -15    8.60    3.20
   8   4 -15    5.90    3.10
  -8   4  15    6.40    2.80
  -8   4  15    5.60    3.30
  -7  -4  15   26.50    4.30
   7  -4 -15   24.20    4.30
  -7  -4  15   23.90    4.00
  -7  -4  15   25.00    3.80
  -7   4  15   34.20    4.70
   7   4 -15   24.20    4.50
   7   4 -15   24.10    4.20
  -7   4  15   26.10    4.10
  -7   4  15   24.70    4.40
  -6  -4  15    7.30    3.00
   6  -4 -15    4.60    2.70
  -6  -4  15   10.90    2.80
   6  -4 -15    5.30    2.60
   6  -4 -15    4.70    2.30
   6   4 -15    4.50    2.90
  -6   4  15    7.90    2.50
  -6   4  15    9.80    3.20
  -6   4  15    8.50    2.60
   6   4 -15    4.90    2.60
   5  -4 -15   -0.40    2.10
   5  -4 -15    1.50    2.50
   5  -4 -15    1.70    2.00
  -5  -4  15   -0.20    2.20
  -5  -4  15    5.50    2.50
  -5   4  15   -1.20    1.90
  -5   4  15   -1.60    1.60
   5   4 -15   -0.20    2.30
  -5   4  15    3.40    2.30
   5   4 -15    1.30    2.10
   4  -4 -15   36.50    4.80
  -4  -4  15   31.10    4.30
  -4  -4  15   39.10    4.80
   4  -4 -15   40.60    5.10
   4  -4 -15   34.40    4.00
  -4   4  15   35.30    4.20
   4   4 -15   19.40    4.00
   4   4 -15   32.40    4.40
  -4   4  15   29.40    3.60
  -4   4  15   32.40    4.60
   4   4 -15   40.70    4.80
   3  -4 -15    2.20    1.90
   3  -4 -15    0.80    2.20
   3  -4 -15    0.50    2.00
  -3  -4  15   -0.10    2.10
  -3  -4  15   -2.60    1.90
  -3  -4  15    0.10    1.90
   3   4 -15    0.90    2.20
   3   4 -15   -0.30    1.70
   3   4 -15   -0.80    1.50
  -3   4  15   -0.90    1.80
  -3   4  15   -2.80    2.10
  -2  -4  15  154.48    7.60
  -2  -4  15  145.89    8.20
   2  -4 -15  165.28    8.90
   2  -4 -15  137.79    7.50
   2  -4 -15  141.69    7.40
  -2  -4  15  153.28    8.50
   2   4 -15  140.19    7.50
  -2   4  15  139.09    8.40
  -2   4  15  145.09    7.40
  -2   4  15  159.58    8.50
   2   4 -15  135.59    8.20
   1  -4 -15    1.30    1.90
  -1  -4  15    3.10    2.40
  -1  -4  15   -1.90    2.00
  -1  -4  15   -3.00    1.80
   1  -4 -15   -1.90    1.80
   1  -4 -15    2.80    2.40
  -1   4  15    0.20    2.20
  -1   4  15    1.50    2.30
   1   4 -15    3.40    2.40
  -1   4  15   -2.40    1.80
   0  -4 -15   73.29    5.60
   0  -4 -15   58.49    5.20
   0  -4  15   62.59    6.00
   0  -4 -15   61.59    6.20
   0  -4  15   75.79    6.80
   0  -4  15   62.19    6.10
   0  -4 -15   66.49    6.00
   0   4  15   66.09    6.40
   0   4 -15   57.39    6.00
   0   4 -15   74.09    6.80
   0   4  15   56.99    6.10
   0   4  15   69.19    4.90
  -1  -4 -15    0.80    2.30
   1  -4  15    1.30    2.30
   1  -4  15   -0.60    2.10
  -1  -4 -15    2.60    2.20
  -1  -4 -15   -1.70    2.00
   1  -4  15    1.90    2.40
  -1   4 -15    0.00    2.30
   1   4  15   -0.90    1.60
  -1   4 -15   -0.90    1.60
   1   4  15    1.30    2.30
   2  -4  15    4.80    2.90
  -2  -4 -15   14.20    3.50
   2  -4  15    6.20    2.90
  -2  -4 -15    9.60    3.30
   2   4  15    6.60    2.80
  -2   4 -15   10.00    3.00
  -2   4 -15    8.60    3.30
   2   4  15   10.30    3.40
  -3  -4 -15   22.40    4.30
   3  -4  15   22.10    4.40
   3  -4  15   24.80    4.40
  -3  -4 -15   19.70    4.10
   3   4  15   21.20    4.00
  -3   4 -15   20.50    4.20
  -3   4 -15   20.50    4.30
   4  -4  15   94.09    7.40
   4  -4  15  105.49    7.90
  -4  -4 -15  104.39    9.70
   4   4  15   78.79    7.60
   6  -5 -15    4.80    2.50
   6  -5 -15    2.90    2.80
  -6  -5  15    2.10    2.80
  -6  -5  15    3.00    3.00
  -6   5  15    0.10    2.40
   6   5 -15    3.50    3.10
  -6   5  15    6.60    3.10
   6   5 -15    4.40    2.90
   5  -5 -15   16.90    3.60
   5  -5 -15   19.00    4.10
  -5  -5  15   17.20    3.60
   5  -5 -15   11.90    3.50
  -5  -5  15    9.50    3.00
   5   5 -15   18.70    3.60
  -5   5  15   15.30    3.90
   5   5 -15   17.30    4.00
  -5   5  15   17.20    3.50
   4  -5 -15    5.30    2.50
   4  -5 -15    0.80    2.20
  -4  -5  15    2.80    2.70
  -4  -5  15    0.00    2.40
   4  -5 -15    3.40    2.80
  -4   5  15    4.50    2.60
  -4   5  15   -0.80    2.60
   4   5 -15    0.70    2.60
   3  -5 -15    6.70    2.70
  -3  -5  15    3.40    2.30
  -3  -5  15    3.70    2.80
  -3  -5  15    2.10    2.60
   3  -5 -15    3.90    2.80
   3  -5 -15    5.40    2.70
  -3   5  15    4.80    2.50
   3   5 -15    4.80    3.10
  -3   5  15   -2.90    2.30
  -2  -5  15   15.10    3.80
  -2  -5  15    9.70    3.40
   2  -5 -15   10.60    3.50
  -2  -5  15   19.40    3.50
   2  -5 -15   11.20    3.10
   2  -5 -15   13.20    3.30
   2   5 -15    5.20    2.70
  -2   5  15   13.40    3.10
  -2   5  15   16.90    3.90
   1  -5 -15   38.70    4.90
  -1  -5  15   35.20    5.10
   1  -5 -15   36.90    4.70
  -1  -5  15   32.20    5.00
  -1  -5  15   36.80    4.80
   1  -5 -15   41.00    5.60
  -1   5  15   30.30    4.90
  -1   5  15   38.40    5.30
   1   5 -15   30.80    5.30
  -1   5  15   41.00    4.70
   0  -5 -15   12.00    3.20
   0  -5  15   11.90    3.60
   0  -5 -15    8.90    3.30
   0  -5  15   18.70    3.70
   0  -5 -15    8.30    3.40
   0  -5  15   16.20    3.80
   0   5  15    9.60    3.50
   0   5  15   13.90    2.90
   0   5  15   14.90    4.00
   0   5 -15    9.90    3.50
  -1  -5 -15   -1.00    1.70
  -1  -5 -15   -3.20    2.00
   1  -5  15    1.90    3.00
   1  -5  15    2.50    2.60
   1  -5  15   -6.30    2.00
  -1  -5 -15   -4.00    2.00
   1   5  15    0.40    2.60
   1   5  15   -1.30    2.60
  -2  -5 -15   -0.50    2.60
   2  -5  15    5.60    3.20
   2  -5  15    9.70    3.40
   2   5  15    0.40    2.70
 -10   0  16   24.00    3.40
 -10   0  16   28.40    5.00
  10   0 -16   22.50    4.50
  -9   0  16    9.70    2.80
   9   0 -16   13.30    3.20
  -9   0  16    7.20    2.30
   8   0 -16   86.19    6.50
  -8   0  16  104.99    6.20
  -8   0  16   97.89    6.60
   7   0 -16   20.30    3.20
  -7   0  16   22.90    3.70
  -7   0  16   25.70    3.70
   7   0 -16   18.20    3.30
   6   0 -16  349.67   13.60
   6   0 -16  350.16   12.80
  -6   0  16  367.96   13.50
   6   0 -16  357.26   13.70
  -6   0  16  363.86   13.60
  -5   0  16  264.17   10.50
  -5   0  16  273.57   11.10
   5   0 -16  265.67   10.80
   5   0 -16  248.58   10.70
  -5   0  16  251.97    9.60
   4   0 -16   79.99    5.40
   4   0 -16   95.79    6.10
  -4   0  16   94.09    6.00
  -4   0  16   84.79    5.00
  -4   0  16   84.79    5.20
   3   0 -16    7.30    2.10
  -3   0  16    7.90    2.30
  -3   0  16    7.10    2.50
  -3   0  16    6.20    1.90
   3   0 -16    6.10    2.40
   2   0 -16   81.69    5.90
  -2   0  16   79.49    5.20
   2   0 -16   80.99    4.90
  -2   0  16   87.59    4.80
  -2   0  16   80.99    5.80
  -1   0  16  125.29    7.10
   1   0 -16  115.39    5.50
   1   0 -16  109.89    6.80
  -1   0  16  106.89    6.30
   1   0 -16  104.99    5.00
  -1   0  16  115.79    5.30
   0   0  16   48.20    5.10
   0   0  16   55.39    5.50
   0   0 -16   54.39    5.40
   0   0 -16   56.69    3.80
  -1   0 -16  150.68    7.00
  -1   0 -16  158.48    8.50
   1   0  16  161.18    8.60
   1   0  16  154.68    8.20
  -2   0 -16    4.10    2.10
   2   0  16    5.70    2.70
   2   0  16    4.10    2.50
  -2   0 -16    4.70    2.60
   3   0  16  137.09    8.10
  -3   0 -16  143.39    7.40
   3   0  16  125.99    7.90
  -3   0 -16  140.89    8.20
  -4   0 -16  150.38    8.10
   4   0  16  145.39    8.80
  -4   0 -16  156.88    8.80
   5   0  16   34.50    5.20
  -5   0 -16   25.50    4.80
  -5   0 -16   35.60    4.80
  10  -1 -16   -1.10    2.30
 -10  -1  16   -1.30    1.50
 -10   1  16   -0.70    1.70
  10   1 -16   -0.70    2.50
   9  -1 -16   -0.10    2.40
  -9  -1  16    1.40    1.80
  -9  -1  16    1.40    2.50
  -9   1  16   -1.20    1.70
   9   1 -16   -2.70    1.90
  -9   1  16    0.00    2.30
  -8  -1  16    1.20    2.10
  -8  -1  16    0.50    1.90
   8  -1 -16    2.70    2.50
  -8   1  16   -1.20    2.00
   8   1 -16    0.20    1.70
  -8   1  16    3.30    2.10
   8   1 -16   -2.00    1.70
   7  -1 -16   46.10    5.10
  -7  -1  16   49.00    4.80
  -7  -1  16   44.80    4.90
  -7   1  16   39.00    4.50
   7   1 -16   48.80    5.30
  -7   1  16   41.10    4.80
   7   1 -16   46.70    4.70
  -6  -1  16    4.90    2.40
  -6  -1  16   11.00    2.30
  -6  -1  16    4.90    2.40
   6  -1 -16    5.00    2.30
   6  -1 -16   15.10    3.30
  -6   1  16   10.80    2.90
  -6   1  16    6.30    2.50
   6   1 -16    6.80    2.60
   6   1 -16    7.90    2.80
  -6   1  16    8.00    2.30
   5  -1 -16   48.70    4.90
  -5  -1  16   27.90    3.60
  -5  -1  16   36.10    4.30
   5  -1 -16   35.90    4.40
  -5  -1  16   34.90    3.50
  -5  -1  16   36.80    3.60
   5   1 -16   35.40    4.20
  -5   1  16   47.30    4.30
  -5   1  16   36.60    4.40
  -5   1  16   46.80    4.60
   5   1 -16   36.50    4.30
  -4  -1  16   13.00    2.90
  -4  -1  16   12.40    2.40
   4  -1 -16    7.70    2.60
  -4  -1  16   13.50    2.50
  -4  -1  16   10.40    2.30
   4  -1 -16   12.30    2.80
  -4   1  16    2.20    2.00
  -4   1  16    5.70    2.30
   4   1 -16    8.70    2.50
   4   1 -16    8.50    2.60
  -4   1  16    9.90    2.40
  -3  -1  16   62.79    4.50
   3  -1 -16   59.99    4.40
   3  -1 -16   64.19    5.80
  -3  -1  16   59.19    4.20
  -3  -1  16   62.89    5.10
   3   1 -16   51.19    4.10
  -3   1  16   61.49    4.40
  -3   1  16   55.39    4.40
  -3   1  16   68.39    5.90
   3   1 -16   58.89    5.40
  -2  -1  16  358.56   12.10
   2  -1 -16  364.56   12.60
  -2  -1  16  349.37   12.90
  -2  -1  16  359.56   13.80
   2  -1 -16  366.06   14.00
   2  -1 -16  361.06   11.60
   2   1 -16  345.27   12.30
   2   1 -16  367.56   14.00
  -2   1  16  377.26   14.10
  -2   1  16  356.96   12.20
  -2   1  16  365.76   13.30
  -1  -1  16   34.40    4.10
   1  -1 -16   40.90    4.70
  -1  -1  16   39.70    4.60
   1  -1 -16   34.60    3.40
  -1  -1  16   39.90    3.00
   1  -1 -16   41.30    3.80
  -1   1  16   33.70    4.20
  -1   1  16   38.50    4.50
   1   1 -16   34.70    4.50
  -1   1  16   41.60    3.50
   1   1 -16   33.40    3.40
   0  -1 -16   61.29    5.70
   0  -1  16   52.59    5.40
   0  -1  16   57.29    5.40
   0  -1 -16   53.89    3.90
   0   1  16   61.29    5.70
   0   1 -16   50.49    5.30
   0   1  16   56.99    5.40
   1  -1  16   28.50    3.90
  -1  -1 -16   36.00    3.90
  -1  -1 -16   29.60    4.20
   1  -1  16   28.70    4.30
   1   1  16   34.60    4.60
  -1   1 -16   29.70    3.20
  -1   1 -16   39.70    4.80
   1   1  16   34.80    4.30
  -2  -1 -16   62.39    5.30
  -2  -1 -16   62.79    6.00
   2  -1  16   56.19    5.80
   2  -1  16   53.09    5.50
  -2   1 -16   48.70    5.50
   2   1  16   57.69    5.70
  -2   1 -16   54.49    4.20
   2   1  16   51.09    5.60
   3  -1  16    1.30    2.40
   3  -1  16   -0.70    2.30
  -3  -1 -16    3.10    2.20
  -3  -1 -16    0.20    2.20
  -3   1 -16    1.00    2.30
   3   1  16    2.50    2.30
  -3   1 -16    2.90    2.00
   3   1  16   -1.10    2.40
  -4  -1 -16   32.40    4.80
   4  -1  16   35.40    4.90
  -4  -1 -16   32.20    4.40
   4  -1  16   26.00    4.50
   4   1  16   32.20    5.10
  -4   1 -16   27.20    4.50
  -4   1 -16   39.40    4.80
  -4   1 -16   30.80    4.20
  -5  -1 -16   88.49    6.70
   5  -1  16   98.79    7.50
   5   1  16   94.39    7.30
  -5   1 -16   96.99    6.80
  10  -2 -16   -2.00    2.40
  10  -2 -16    0.20    2.40
 -10  -2  16    2.30    1.80
  10   2 -16    2.60    2.90
  10   2 -16    8.30    3.10
 -10   2  16    5.10    2.60
   9  -2 -16   10.10    3.30
  -9  -2  16   13.90    3.60
  -9  -2  16   11.10    2.50
  -9   2  16   13.10    3.60
  -9   2  16    5.80    3.10
   9   2 -16    8.70    3.30
   9   2 -16    7.50    3.10
  -9   2  16    6.30    2.70
   8  -2 -16   12.40    3.50
  -8  -2  16   13.10    2.90
  -8  -2  16   21.10    3.70
  -8   2  16   16.70    3.40
   8   2 -16   18.90    3.80
  -8   2  16   19.80    3.90
   8   2 -16   19.20    4.00
  -7  -2  16   53.79    5.00
   7  -2 -16   53.59    5.70
  -7  -2  16   54.89    4.30
  -7  -2  16   62.49    5.80
  -7   2  16   59.19    5.60
   7   2 -16   60.09    5.70
  -7   2  16   60.39    4.40
   7   2 -16   50.89    5.60
  -7   2  16   47.80    5.10
   6  -2 -16   24.20    3.90
  -6  -2  16   24.90    3.50
   6  -2 -16   20.80    3.80
  -6  -2  16   17.60    3.20
  -6  -2  16   25.10    3.50
  -6   2  16   19.80    3.50
   6   2 -16   19.60    3.70
   6   2 -16   24.30    3.90
  -6   2  16   24.70    3.50
  -6   2  16   15.80    3.30
   5  -2 -16   19.90    3.60
  -5  -2  16   21.50    3.20
  -5  -2  16   21.40    3.60
   5  -2 -16   29.60    4.10
  -5  -2  16   22.50    3.40
  -5   2  16   22.50    3.60
   5   2 -16   22.90    3.70
   5   2 -16   22.70    3.60
   5   2 -16   26.50    4.10
  -5   2  16   22.00    3.30
  -5   2  16   22.90    3.70
  -4  -2  16  160.98    7.50
   4  -2 -16  141.19    7.50
  -4  -2  16  150.58    7.40
  -4  -2  16  145.49    6.80
   4  -2 -16  151.18    8.20
  -4  -2  16  156.78    8.10
   4   2 -16  167.08    8.30
  -4   2  16  145.79    7.30
  -4   2  16  149.09    7.70
   4   2 -16  155.18    7.70
  -4   2  16  165.08    8.50
  -3  -2  16  179.08    8.80
   3  -2 -16  169.98    7.00
  -3  -2  16  166.18    7.70
   3  -2 -16  186.78    9.10
   3  -2 -16  157.68    7.80
  -3  -2  16  176.58    7.60
  -3  -2  16  158.68    8.00
  -3   2  16  162.38    7.60
   3   2 -16  164.38    7.80
  -3   2  16  173.58    8.30
   3   2 -16  166.78    8.60
  -3   2  16  171.28    8.80
  -2  -2  16   53.49    5.00
  -2  -2  16   50.99    4.70
   2  -2 -16   52.49    3.90
   2  -2 -16   56.19    5.60
  -2  -2  16   52.69    4.00
   2  -2 -16   48.00    4.60
  -2  -2  16   52.59    5.20
   2   2 -16   55.29    4.20
  -2   2  16   45.70    4.80
   2   2 -16   50.89    5.30
  -2   2  16   46.60    5.20
  -2   2  16   53.09    4.50
  -1  -2  16   73.89    5.20
   1  -2 -16   69.49    6.30
  -1  -2  16   71.29    5.80
   1  -2 -16   69.99    4.60
  -1  -2  16   78.89    4.40
   1  -2 -16   75.39    4.80
  -1   2  16   68.79    6.20
  -1   2  16   58.19    5.70
   1   2 -16   71.69    5.80
  -1   2  16   78.69    4.60
   1   2 -16   78.69    4.70
   0  -2 -16   13.30    3.40
   0  -2 -16   14.10    2.60
   0  -2  16   13.20    3.20
   0  -2 -16    6.90    2.90
   0  -2  16   10.00    2.70
   0   2  16   14.10    2.50
   0   2 -16    9.90    3.00
   0   2  16   10.70    3.00
   0   2  16    8.10    2.80
   1  -2  16   10.90    3.10
  -1  -2 -16    9.90    2.70
   1  -2  16   19.00    3.80
  -1  -2 -16   12.70    3.10
   1   2  16   17.80    3.30
  -1   2 -16   10.90    2.90
   1   2  16   15.00    3.30
   2  -2  16  106.49    7.10
  -2  -2 -16  109.69    7.20
  -2  -2 -16  113.49    6.70
   2  -2  16  115.19    7.50
  -2   2 -16   96.89    6.00
   2   2  16  106.79    6.90
  -2   2 -16  117.09    7.10
   2   2  16  112.29    7.30
  -2   2 -16  107.19    7.30
   3  -2  16   11.60    3.60
  -3  -2 -16   14.10    3.20
  -3  -2 -16    6.20    2.80
   3  -2  16   10.20    3.30
  -3   2 -16    9.40    3.00
   3   2  16    6.30    2.50
  -3   2 -16   15.30    2.90
   3   2  16   15.70    3.60
  -3   2 -16   18.40    3.90
   4  -2  16   10.20    3.40
  -4  -2 -16   12.30    3.40
   4  -2  16   11.80    3.60
  -4  -2 -16   14.70    3.50
   4   2  16    5.60    3.00
  -4   2 -16   11.80    3.20
  -4   2 -16   10.50    3.40
  -4   2 -16   12.00    3.20
   5  -2  16    2.50    2.40
  -5  -2 -16    5.40    2.80
   5   2  16    0.80    2.50
  -5   2 -16    5.00    2.90
  -5   2 -16    1.70    2.70
   9  -3 -16   25.20    4.70
  -9  -3  16   25.00    3.60
   9  -3 -16   26.70    4.10
   9   3 -16   30.70    4.90
  -9   3  16   23.20    4.50
   9   3 -16   25.00    4.40
  -8  -3  16    0.40    1.70
   8  -3 -16    2.80    2.70
  -8  -3  16    9.40    3.30
  -8  -3  16    3.50    2.00
  -8   3  16    4.20    2.50
   8   3 -16    1.60    2.70
  -8   3  16    3.60    2.60
  -8   3  16    5.00    2.70
   8   3 -16    4.70    2.60
   7  -3 -16   10.80    3.30
  -7  -3  16    2.60    2.30
  -7  -3  16    3.20    2.40
  -7  -3  16    9.00    2.90
   7   3 -16   12.10    3.30
  -7   3  16    3.70    2.60
  -7   3  16    5.50    2.70
  -7   3  16    8.10    2.50
  -7   3  16   10.90    3.10
   7   3 -16   11.00    3.20
  -6  -3  16   12.20    2.90
   6  -3 -16    8.00    2.80
  -6  -3  16   11.70    2.90
   6  -3 -16   10.90    3.30
  -6  -3  16    7.50    2.60
  -6   3  16   15.50    3.20
   6   3 -16    6.20    2.60
  -6   3  16   11.20    3.20
  -6   3  16   10.20    2.80
   6   3 -16    9.80    3.10
  -6   3  16    8.10    2.70
  -5  -3  16   58.19    5.40
   5  -3 -16   60.69    5.80
   5  -3 -16   55.49    5.80
  -5  -3  16   44.00    4.90
  -5  -3  16   52.79    5.40
  -5   3  16   67.89    5.90
  -5   3  16   56.19    5.70
   5   3 -16   58.09    6.10
   5   3 -16   59.29    5.80
  -5   3  16   58.39    5.50
   4  -3 -16    9.20    2.90
  -4  -3  16    7.20    2.40
  -4  -3  16    5.70    2.60
  -4  -3  16    8.00    2.20
  -4  -3  16    6.40    2.60
   4  -3 -16    4.60    2.30
   4  -3 -16    5.40    2.00
   4   3 -16    5.60    2.50
   4   3 -16    2.60    2.30
  -4   3  16    9.30    2.90
  -4   3  16    6.40    2.50
   4   3 -16    7.50    2.80
  -4   3  16    4.10    2.20
  -3  -3  16    9.50    2.50
   3  -3 -16   10.30    3.10
  -3  -3  16    7.40    2.30
  -3  -3  16   15.50    3.40
  -3  -3  16   10.10    2.80
   3  -3 -16    8.30    2.10
   3  -3 -16   10.90    2.80
  -3   3  16    9.10    2.90
  -3   3  16    3.00    2.00
   3   3 -16   12.40    2.80
   3   3 -16   11.50    2.90
  -3   3  16   10.10    3.10
   2  -3 -16    9.50    2.40
   2  -3 -16    3.80    2.10
  -2  -3  16    5.40    2.40
  -2  -3  16    5.50    1.90
   2  -3 -16    8.30    2.90
  -2  -3  16    4.30    2.60
  -2  -3  16    5.80    2.30
  -2   3  16    3.20    2.40
  -2   3  16    8.80    2.80
   2   3 -16    5.10    2.60
   2   3 -16    2.70    1.80
  -2   3  16    8.10    2.30
  -1  -3  16   -1.20    1.90
  -1  -3  16   -0.90    1.70
   1  -3 -16   -2.60    1.30
  -1  -3  16   -2.70    1.80
   1  -3 -16    0.40    1.60
   1  -3 -16   -0.50    1.60
  -1  -3  16   -3.00    1.20
   1   3 -16    0.00    1.60
  -1   3  16   -0.20    2.00
  -1   3  16   -0.40    1.90
  -1   3  16   -0.10    1.70
   1   3 -16    0.70    1.60
   0  -3  16   -2.70    1.80
   0  -3 -16   -0.70    2.00
   0  -3 -16    1.70    2.00
   0  -3  16    1.10    2.20
   0  -3 -16   -0.60    1.60
   0  -3  16   -3.30    1.60
   0   3  16   -1.90    1.90
   0   3 -16    1.30    2.20
   0   3  16   -1.90    1.90
   0   3  16   -1.10    1.50
   1  -3  16   22.50    4.00
  -1  -3 -16   38.90    5.00
   1  -3  16   28.20    4.50
  -1  -3 -16   27.90    4.10
   1   3  16   37.20    4.80
  -1   3 -16   32.00    4.60
  -1   3 -16   35.20    4.90
   1   3  16   32.70    4.70
   2  -3  16    2.40    2.60
  -2  -3 -16    8.80    2.90
  -2  -3 -16   11.00    3.30
   2  -3  16   12.70    3.20
   2   3  16    8.50    3.20
  -2   3 -16    9.30    3.30
  -2   3 -16    3.60    2.80
   2   3  16    7.20    3.00
  -3  -3 -16    6.30    2.80
  -3  -3 -16   10.60    3.30
   3  -3  16    8.70    3.20
   3  -3  16   11.50    3.60
   3   3  16    5.70    3.10
  -3   3 -16    4.00    2.90
  -3   3 -16    1.60    2.60
  -4  -3 -16   10.60    3.50
   4  -3  16    6.60    3.50
   4  -3  16    6.20    3.70
   4   3  16    6.60    2.80
  -4   3 -16    9.90    3.50
  -8  -4  16   -2.00    1.80
   8  -4 -16   -0.70    2.60
  -8   4  16   -2.70    2.10
   8   4 -16   -3.40    2.20
   8   4 -16    4.30    2.90
  -7  -4  16   10.20    3.00
  -7  -4  16    9.40    3.40
   7  -4 -16   16.50    3.90
  -7  -4  16   11.00    3.30
  -7   4  16   14.50    3.70
   7   4 -16   11.00    3.60
  -7   4  16   13.60    3.40
  -7   4  16   19.50    5.90
   7   4 -16    7.40    3.20
  -6  -4  16   19.10    3.70
   6  -4 -16    9.70    3.30
  -6  -4  16   14.60    3.50
  -6  -4  16   11.50    3.20
  -6   4  16    9.90    3.30
  -6   4  16   10.70    3.00
   6   4 -16   13.60    3.40
  -6   4  16   14.90    3.70
   6   4 -16   11.00    3.60
   5  -4 -16   15.20    3.70
  -5  -4  16   16.40    3.60
   5  -4 -16   12.70    3.60
  -5  -4  16   11.50    3.20
  -5   4  16   12.60    2.90
   5   4 -16   12.90    3.60
   5   4 -16   10.90    3.20
  -5   4  16   13.20    3.40
  -5   4  16   15.70    3.50
   4  -4 -16   40.90    5.40
   4  -4 -16   50.39    5.50
   4  -4 -16   46.70    4.70
  -4  -4  16   57.29    5.70
  -4  -4  16   56.09    5.70
  -4   4  16   41.40    4.80
  -4   4  16   47.50    5.70
   4   4 -16   48.10    5.90
  -4   4  16   49.60    5.60
  -4   4  16   47.40    6.80
   4   4 -16   43.80    5.20
   3  -4 -16   54.39    5.10
  -3  -4  16   58.99    5.20
   3  -4 -16   55.69    6.20
  -3  -4  16   52.69    5.80
   3  -4 -16   55.99    5.70
  -3  -4  16   55.49    5.80
  -3   4  16   55.89    6.10
   3   4 -16   40.70    5.60
  -3   4  16   49.50    5.00
  -3   4  16   43.20    5.30
   3   4 -16   48.80    5.60
   3   4 -16   48.10    5.20
  -2  -4  16   32.10    4.80
   2  -4 -16   31.90    4.10
  -2  -4  16   29.30    4.40
   2  -4 -16   27.90    4.10
  -2  -4  16   38.00    4.30
   2  -4 -16   28.40    4.60
  -2   4  16   32.40    4.90
  -2   4  16   20.10    4.00
  -2   4  16   25.00    3.60
   2   4 -16   24.70    3.70
   2   4 -16   25.50    4.40
   1  -4 -16    0.30    2.60
   1  -4 -16   -0.50    2.10
  -1  -4  16    2.90    2.50
   1  -4 -16    1.90    2.20
  -1  -4  16   -0.90    2.20
  -1  -4  16   -1.20    1.90
  -1   4  16    0.50    2.50
   1   4 -16    2.80    2.70
  -1   4  16   -1.10    1.70
  -1   4  16   -1.30    2.30
   0  -4 -16   -0.40    2.10
   0  -4 -16   -1.60    2.30
   0  -4  16    0.50    2.10
   0  -4  16    2.10    2.50
   0  -4 -16    1.70    2.40
   0  -4  16   -1.90    2.30
   0   4  16    7.20    3.20
   0   4  16   -2.40    2.40
   0   4 -16    1.70    2.60
   1  -4  16   19.90    4.20
  -1  -4 -16   21.10    4.20
   1  -4  16   22.10    4.20
  -1  -4 -16   18.10    3.80
   1  -4  16   24.70    4.40
   1   4  16   24.10    4.40
   1   4  16   12.50    3.70
  -1   4 -16   23.10    4.30
  -1   4 -16   20.60    4.20
  -2  -4 -16    1.60    3.20
   2  -4  16    1.20    2.80
  -2  -4 -16    3.70    2.70
   2  -4  16   -1.10    2.30
  -2   4 -16    0.50    2.60
   2   4  16    4.40    3.00
   2   4  16    1.20    2.70
  -2   4 -16    1.10    2.80
   3  -4  16   26.40    4.80
  -3  -4 -16   24.20    4.50
   3  -4  16   30.20    5.10
   3   4  16   33.20    5.10
  -5  -5  16   28.00    4.80
   5  -5 -16   30.20    4.40
   5  -5 -16   32.50    5.00
   5  -5 -16   29.70    5.10
   5   5 -16   29.30    4.70
   5   5 -16   26.50    4.80
  -5   5  16   28.50    4.60
  -4  -5  16   18.10    4.10
   4  -5 -16   18.00    4.10
   4  -5 -16   12.40    3.20
   4  -5 -16   22.00    4.50
  -4   5  16   19.90    3.90
  -4   5  16   20.50    5.00
   4   5 -16   17.10    4.00
  -3  -5  16    4.40    2.80
   3  -5 -16    0.10    2.40
   3  -5 -16   10.20    3.50
   3  -5 -16    3.00    2.20
  -3  -5  16    3.30    2.90
  -3   5  16    1.60    2.70
  -3   5  16    0.60    2.10
   3   5 -16   -1.90    1.70
  -2  -5  16  109.09   10.10
   2  -5 -16  122.99    7.60
  -2  -5  16  118.99    7.10
   2  -5 -16  127.69    8.70
   2  -5 -16  116.09    7.60
  -2  -5  16  126.69    8.40
  -2   5  16  113.39    8.00
  -2   5  16  126.89    7.40
   2   5 -16  116.79    8.20
  -2   5  16  106.39    8.10
   1  -5 -16    0.30    2.10
  -1  -5  16   -2.00    2.30
  -1  -5  16    4.20    3.00
   1  -5 -16    2.90    2.60
   1  -5 -16    2.90    3.10
   1   5 -16   -1.00    2.80
   1   5 -16   -1.70    2.30
  -1   5  16   -1.30    2.60
  -1   5  16    4.20    2.80
  -1   5  16   -1.20    2.00
   0  -5 -16    0.00    2.30
   0  -5  16    1.10    3.30
   0  -5  16    3.20    2.70
   0  -5 -16    1.00    2.50
   0   5 -16    3.50    2.90
   0   5  16    0.80    2.80
   0   5  16    1.40    2.10
 -10   0  17   -0.90    1.80
  10   0 -17   -1.80    2.50
  -9   0  17   -0.20    1.90
  -9   0  17    0.20    2.30
   9   0 -17    3.50    2.80
  -8   0  17   -0.90    1.60
   8   0 -17   -0.30    2.10
  -8   0  17   -0.20    1.80
  -7   0  17    1.60    1.80
   7   0 -17    1.60    2.00
   7   0 -17   -0.90    2.00
  -7   0  17   -2.10    1.90
  -6   0  17    1.50    2.10
   6   0 -17   -1.20    1.60
   6   0 -17    2.00    2.10
  -6   0  17    2.10    2.20
  -5   0  17    0.20    2.00
   5   0 -17   -1.50    1.80
   5   0 -17   -0.70    1.70
  -5   0  17   -0.10    1.50
  -5   0  17   -1.00    1.60
   4   0 -17    1.60    2.00
  -4   0  17    3.40    2.20
   4   0 -17   -0.60    1.60
  -4   0  17   -1.50    1.80
  -4   0  17    2.50    1.70
  -3   0  17   -0.20    1.50
   3   0 -17   -0.20    2.00
  -3   0  17   -1.60    1.90
   3   0 -17    0.50    1.60
  -3   0  17   -1.30    1.80
  -2   0  17    1.50    1.40
   2   0 -17    0.10    1.40
  -2   0  17   -0.40    2.10
  -2   0  17    1.00    1.80
   2   0 -17   -0.20    2.00
   1   0 -17    0.20    1.50
  -1   0  17   -0.90    1.30
   1   0 -17    2.10    2.30
  -1   0  17   -0.80    2.00
  -1   0  17   -1.00    1.70
   0   0  17    2.30    2.20
   0   0  17    0.40    2.00
   0   0 -17   -2.30    1.40
   1   0  17    2.90    2.10
   1   0  17   -1.10    2.10
  -1   0 -17    0.80    2.20
  -1   0 -17    5.00    2.00
  -2   0 -17    0.30    1.70
   2   0  17   -0.50    2.40
   2   0  17   -2.80    2.00
  -2   0 -17   -1.10    2.10
   3   0  17   -0.20    2.40
  -3   0 -17   -1.70    1.70
   3   0  17    2.00    2.60
  -3   0 -17    2.60    2.50
  -4   0 -17    0.40    2.70
   4   0  17   -2.60    2.30
  -4   0 -17   -0.70    2.10
  -9  -1  17    2.00    2.50
  -9  -1  17    3.80    2.20
   9  -1 -17    6.40    2.90
  -9   1  17    4.40    2.40
  -9   1  17    2.00    2.50
   9   1 -17    4.70    2.80
  -8  -1  17   86.39    5.90
   8  -1 -17   84.39    6.60
  -8  -1  17   95.09    6.80
   8   1 -17   98.29    6.90
  -8   1  17   80.29    6.90
   8   1 -17   92.79    6.20
  -8   1  17   72.89    6.00
  -7  -1  17   65.89    6.00
   7  -1 -17   58.99    6.10
  -7  -1  17   69.49    5.50
  -7   1  17   56.09    5.50
  -7   1  17   56.49    5.50
   7   1 -17   60.19    5.90
   7   1 -17   60.29    5.70
   6  -1 -17   92.29    6.50
  -6  -1  17  105.49    6.80
  -6  -1  17  101.19    6.10
   6   1 -17  102.69    6.70
  -6   1  17   91.69    6.00
  -6   1  17  103.79    5.80
   6   1 -17  102.29    6.60
  -6   1  17  107.69    7.00
   5  -1 -17   13.70    3.10
   5  -1 -17    4.80    2.40
  -5  -1  17   11.20    3.00
  -5  -1  17    8.00    2.20
  -5  -1  17    4.90    2.30
  -5  -1  17    7.20    3.30
   5   1 -17    6.80    2.50
   5   1 -17    5.80    2.50
  -5   1  17    5.40    2.30
  -5   1  17    7.50    2.70
  -5   1  17    3.90    2.10
  -4  -1  17   62.39    4.60
  -4  -1  17   52.99    4.70
   4  -1 -17   53.69    5.50
   4  -1 -17   57.49    5.30
  -4  -1  17   46.60    5.10
  -4   1  17   45.20    4.50
  -4   1  17   55.29    5.50
  -4   1  17   44.40    4.50
   4   1 -17   54.99    5.00
   4   1 -17   46.20    5.00
  -3  -1  17    7.80    2.50
  -3  -1  17   11.20    2.90
   3  -1 -17   10.10    3.10
   3  -1 -17   11.90    2.80
  -3  -1  17    7.10    2.10
  -3   1  17    6.40    2.30
  -3   1  17   11.50    2.90
   3   1 -17   11.80    3.00
  -3   1  17    9.70    2.90
   3   1 -17    8.30    2.50
  -2  -1  17   80.59    6.00
   2  -1 -17   78.69    6.00
  -2  -1  17   67.69    4.50
  -2  -1  17   76.49    5.30
   2  -1 -17   65.89    4.80
  -2   1  17   75.69    5.90
  -2   1  17   69.79    4.40
  -2   1  17   74.29    5.40
   2   1 -17   72.69    5.90
   2   1 -17   63.19    4.70
  -1  -1  17   74.29    6.00
   1  -1 -17   79.69    4.70
  -1  -1  17   67.29    5.20
   1  -1 -17   72.69    6.60
   1   1 -17   71.59    4.50
  -1   1  17   59.39    5.70
  -1   1  17   73.89    5.90
  -1   1  17   73.99    4.30
   1   1 -17   60.59    6.00
   0  -1  17    9.30    2.90
   0  -1  17    8.70    2.70
   0  -1 -17    6.90    2.20
   0  -1 -17    5.00    2.60
   0   1  17    6.40    2.60
   0   1  17    7.80    2.90
   0   1 -17    8.80    3.00
   1  -1  17   34.90    4.90
   1  -1  17   36.10    4.80
  -1  -1 -17   37.40    4.00
  -1  -1 -17   21.60    3.90
  -1   1 -17   36.50    4.80
   1   1  17   31.80    4.60
   1   1  17   39.30    5.00
  -2  -1 -17   57.69    5.90
  -2  -1 -17   55.79    5.30
   2  -1  17   54.99    5.90
   2  -1  17   48.90    5.60
   2   1  17   52.19    5.80
  -2   1 -17   44.60    5.50
   2   1  17   59.09    6.20
   3  -1  17    5.40    3.00
   3  -1  17   -1.40    2.20
  -3  -1 -17    3.60    2.60
  -3  -1 -17    4.90    2.70
  -3   1 -17    3.50    2.10
  -3   1 -17    2.50    2.60
   3   1  17    1.60    2.10
   3   1  17    1.90    2.60
   4  -1  17   40.20    5.60
  -4  -1 -17   37.60    4.80
   4   1  17   49.20    6.00
  -4   1 -17   43.40    5.00
   9  -2 -17    9.50    3.40
  -9  -2  17    7.20    2.50
   9   2 -17   10.00    3.00
  -9   2  17    8.30    2.80
   9   2 -17   11.60    3.60
  -8  -2  17    4.50    2.20
  -8  -2  17    3.90    2.40
   8  -2 -17   -0.20    1.70
   8   2 -17    1.30    2.20
  -8   2  17    1.00    2.50
   8   2 -17   -0.90    2.40
  -8   2  17    1.70    2.40
   7  -2 -17    1.00    2.60
  -7  -2  17    2.70    1.90
  -7  -2  17    3.50    2.30
  -7   2  17    0.20    2.00
  -7   2  17   -0.10    2.30
   7   2 -17    0.10    2.10
  -7   2  17    3.50    2.40
   7   2 -17   -0.90    2.30
  -6  -2  17    8.30    2.60
  -6  -2  17    7.90    2.80
  -6  -2  17    4.50    2.40
   6  -2 -17    6.10    2.80
  -6   2  17    5.80    2.70
   6   2 -17    7.70    2.80
  -6   2  17   12.60    2.90
  -6   2  17    6.20    2.60
   6   2 -17    7.40    2.80
   5  -2 -17   24.70    3.80
  -5  -2  17   14.10    3.20
  -5  -2  17   29.30    3.70
  -5  -2  17   25.70    3.70
   5  -2 -17   21.90    3.80
   5   2 -17   22.30    3.70
  -5   2  17   17.30    3.30
  -5   2  17   19.70    3.40
   5   2 -17   20.30    3.90
  -5   2  17   25.40    4.00
  -4  -2  17   50.99    4.80
   4  -2 -17   59.49    5.90
  -4  -2  17   64.99    6.00
   4  -2 -17   57.29    5.40
  -4  -2  17   56.79    4.90
  -4  -2  17   57.29    5.10
  -4   2  17   54.99    5.00
  -4   2  17   55.89    5.30
   4   2 -17   51.19    5.40
   4   2 -17   58.59    5.30
  -4   2  17   54.49    5.80
  -3  -2  17    0.50    2.20
  -3  -2  17   -0.10    1.90
  -3  -2  17    2.50    1.80
   3  -2 -17    2.60    2.50
   3  -2 -17    0.70    1.80
  -3  -2  17    3.00    2.00
  -3   2  17    6.40    2.40
  -3   2  17    1.90    2.30
   3   2 -17    4.70    2.50
   3   2 -17    2.50    2.00
  -3   2  17    4.40    2.00
   2  -2 -17   16.30    3.00
  -2  -2  17   13.50    2.90
  -2  -2  17   14.20    2.50
   2  -2 -17   14.90    3.80
  -2  -2  17   15.60    3.40
   2  -2 -17   12.60    3.40
  -2   2  17   16.60    3.70
  -2   2  17   12.00    3.10
   2   2 -17   16.90    3.00
  -2   2  17   18.40    2.80
   2   2 -17   14.20    3.40
  -1  -2  17    3.00    2.60
  -1  -2  17    5.30    2.30
   1  -2 -17    6.10    2.70
   1  -2 -17    6.90    2.10
   1  -2 -17    7.70    2.30
   1   2 -17    5.00    2.80
   1   2 -17    7.40    2.20
  -1   2  17    7.40    2.40
  -1   2  17    5.80    2.70
  -1   2  17    6.20    1.90
   0  -2 -17    5.50    2.70
   0  -2  17    8.80    3.00
   0  -2  17    6.10    2.40
   0  -2 -17    6.80    2.40
   0   2 -17    4.90    2.60
   0   2  17    6.70    2.80
   0   2  17    7.30    2.90
   1  -2  17    1.40    2.30
  -1  -2 -17    6.40    2.50
  -1  -2 -17    5.80    2.90
   1  -2  17    4.30    2.60
   1   2  17    2.50    2.50
  -1   2 -17    3.90    2.80
   1   2  17    4.70    2.70
   2  -2  17   17.60    3.70
  -2  -2 -17   13.80    3.60
   2  -2  17   16.20    3.70
  -2  -2 -17   13.30    3.00
   2   2  17   12.10    3.30
  -2   2 -17   15.30    3.90
   2   2  17   12.70    3.50
   3  -2  17    4.80    2.40
  -3  -2 -17    8.20    3.30
  -3  -2 -17    6.00    3.10
  -3   2 -17   10.20    3.50
   3   2  17    3.80    2.90
  -3   2 -17   11.90    3.10
   4  -2  17   19.30    4.40
  -4  -2 -17   25.10    4.50
  -4   2 -17   25.20    4.40
   4   2  17   18.40    4.00
   8  -3 -17    5.40    3.10
  -8  -3  17    6.40    2.60
  -8  -3  17    6.60    3.60
  -8   3  17    6.60    2.90
   8   3 -17    7.10    2.80
   8   3 -17    4.10    2.90
  -7  -3  17    2.80    2.20
  -7  -3  17   -0.30    2.20
  -7  -3  17    0.00    2.10
   7  -3 -17    0.60    2.40
  -7   3  17   -2.20    1.90
  -7   3  17   -2.20    2.00
  -7   3  17    0.00    2.20
   7   3 -17   -2.30    1.90
  -7   3  17    3.20    2.20
   7   3 -17    1.60    2.50
  -6  -3  17   25.10    3.90
  -6  -3  17   39.10    4.70
   6  -3 -17   38.40    5.10
  -6  -3  17   34.30    4.40
  -6   3  17   34.10    4.80
  -6   3  17   35.40    4.40
  -6   3  17   24.40    4.20
   6   3 -17   24.20    4.30
   6   3 -17   24.30    4.10
   5  -3 -17    2.80    2.50
  -5  -3  17    0.30    1.80
  -5  -3  17    1.10    2.10
  -5  -3  17    3.10    2.30
   5  -3 -17   -2.40    1.90
   5   3 -17    0.80    2.30
   5   3 -17    3.20    2.50
  -5   3  17   -0.10    2.00
  -5   3  17    0.00    2.30
  -5   3  17    2.80    2.40
  -4  -3  17   -3.10    1.60
   4  -3 -17    0.40    2.30
   4  -3 -17   -1.10    1.90
  -4  -3  17   -0.90    2.10
  -4  -3  17   -0.20    2.10
  -4   3  17    0.60    2.10
   4   3 -17    0.30    2.10
  -4   3  17   -2.90    1.90
   4   3 -17    1.20    2.00
   4   3 -17   -1.50    2.10
  -4   3  17    2.30    2.10
  -3  -3  17   10.00    2.90
  -3  -3  17    7.80    2.70
   3  -3 -17    6.20    2.60
  -3  -3  17    9.60    2.80
  -3  -3  17    9.20    2.50
   3  -3 -17    7.70    3.10
   3   3 -17    7.50    3.10
  -3   3  17    6.30    2.70
  -3   3  17    7.30    2.50
  -3   3  17    7.90    3.10
   3   3 -17    9.80    2.70
  -2  -3  17    5.00    2.60
  -2  -3  17    4.40    2.10
   2  -3 -17   -1.00    1.50
  -2  -3  17    2.30    2.30
  -2  -3  17    2.60    2.40
   2  -3 -17    6.20    2.30
   2  -3 -17   -0.20    1.80
  -2   3  17    1.40    1.80
   2   3 -17    2.90    2.00
   2   3 -17    4.20    2.70
  -2   3  17    2.90    2.60
  -2   3  17    1.20    2.20
  -1  -3  17    5.60    2.90
  -1  -3  17    4.10    2.60
  -1  -3  17    3.30    2.60
   1  -3 -17    5.00    2.80
   1  -3 -17    3.90    2.20
   1  -3 -17    5.20    2.30
  -1   3  17    5.50    2.40
   1   3 -17    6.60    2.90
  -1   3  17    7.70    3.10
   1   3 -17    6.80    2.20
  -1   3  17    4.50    2.10
   0  -3  17    2.00    2.50
   0  -3  17   -2.90    1.80
   0  -3 -17    0.30    2.40
   0  -3 -17   -1.90    1.80
   0   3  17    0.30    2.40
   0   3  17    0.80    2.40
   0   3 -17    0.20    2.40
  -1  -3 -17   10.00    3.30
   1  -3  17   18.20    3.80
  -1  -3 -17   13.80    3.40
   1  -3  17   13.60    3.70
  -1   3 -17   16.10    3.90
   1   3  17   15.50    3.80
   1   3  17   15.00    3.60
   2  -3  17   19.20    4.30
  -2  -3 -17   17.70    3.90
   2  -3  17   15.20    3.70
  -2  -3 -17   18.50    3.70
   2   3  17   17.10    4.00
  -2   3 -17   16.20    3.80
   2   3  17   10.00    3.50
  -2   3 -17   21.90    4.30
   3  -3  17   21.70    4.40
   3  -3  17   15.40    3.90
  -3  -3 -17   14.00    3.70
  -3   3 -17   16.80    4.00
   3   3  17   12.90    3.80
  -6  -4  17    8.10    3.10
  -6  -4  17    6.70    2.90
   6  -4 -17   -1.80    2.20
  -6   4  17    2.60    2.60
  -6   4  17    9.60    3.20
  -6   4  17    1.00    2.50
   6   4 -17    4.90    2.70
   6   4 -17    3.70    2.70
   5  -4 -17   -0.70    2.60
  -5  -4  17   -0.40    2.50
  -5  -4  17   -0.70    2.30
  -5  -4  17   -1.40    1.90
   5  -4 -17   -1.60    1.90
  -5   4  17   -0.90    2.40
   5   4 -17    1.90    2.30
   5   4 -17   -2.70    2.30
  -5   4  17    0.10    2.30
  -5   4  17    6.10    2.70
  -4  -4  17    0.30    2.40
   4  -4 -17   -0.10    2.20
   4  -4 -17   -2.10    2.40
  -4  -4  17    0.50    2.00
  -4  -4  17    1.80    2.40
   4   4 -17   -0.60    2.50
  -4   4  17   -2.20    1.90
   4   4 -17    1.00    2.40
  -4   4  17   -2.40    2.00
  -4   4  17   -0.80    2.30
   3  -4 -17   66.19    6.90
  -3  -4  17   71.09    5.40
   3  -4 -17   58.89    5.90
  -3  -4  17   69.79    5.80
  -3  -4  17   63.39    6.50
  -3  -4  17   65.29    6.40
   3  -4 -17   71.89    5.30
   3   4 -17   64.39    6.50
  -3   4  17   69.79    6.90
   3   4 -17   63.79    6.10
   3   4 -17   69.19    7.00
  -3   4  17   61.69    6.70
  -3   4  17   68.39    6.00
  -2  -4  17    3.80    2.80
   2  -4 -17    5.60    3.00
  -2  -4  17    2.30    2.20
  -2  -4  17    4.90    2.80
   2  -4 -17    0.20    2.10
   2  -4 -17    8.60    3.00
  -2   4  17    4.00    2.80
   2   4 -17    3.80    2.90
  -2   4  17    3.50    2.60
  -2   4  17    1.90    1.90
   1  -4 -17    2.80    2.60
  -1  -4  17   -1.10    2.30
  -1  -4  17   -1.10    2.40
   1  -4 -17    1.80    2.40
   1  -4 -17    0.90    2.20
  -1  -4  17    4.70    2.80
  -1   4  17    0.20    1.90
   1   4 -17   -0.40    2.50
  -1   4  17    0.40    2.30
  -1   4  17    0.80    2.60
   0  -4  17    2.20    2.90
   0  -4  17    3.30    2.90
   0  -4  17    2.30    2.60
   0  -4 -17    1.30    2.40
   0  -4 -17    1.30    2.90
   0   4  17    1.50    2.60
   0   4 -17   -0.70    2.50
   0   4  17   -4.50    2.40
  -1  -4 -17    6.50    3.00
   1  -4  17    8.50    3.50
   1  -4  17   11.40    3.40
  -1   4 -17    9.40    3.70
   1   4  17    8.20    3.50
   1   4  17    7.30    2.80
   9   0 -18    4.50    2.90
  -9   0  18    1.80    2.30
  -8   0  18  128.09    8.00
  -8   0  18  128.29    7.50
   8   0 -18  116.19    7.90
  -7   0  18   26.00    4.10
  -7   0  18   28.10    4.30
   7   0 -18   25.00    4.10
   6   0 -18  163.38    8.60
  -6   0  18  166.58    8.40
   6   0 -18  149.99    7.90
  -6   0  18  151.98    8.60
   5   0 -18    3.90    2.40
   5   0 -18    3.40    2.10
  -5   0  18    2.90    2.30
  -5   0  18    1.90    1.90
  -5   0  18    4.00    2.20
  -4   0  18   -0.90    1.60
   4   0 -18   -1.60    2.00
  -4   0  18   -2.00    2.00
   4   0 -18   -1.10    1.70
  -4   0  18   -0.80    1.60
  -3   0  18   61.19    5.50
  -3   0  18   62.49    4.70
   3   0 -18   62.49    4.80
   3   0 -18   75.39    6.00
  -3   0  18   66.49    6.20
   2   0 -18    7.20    2.80
   2   0 -18    8.50    2.40
  -2   0  18    9.10    2.70
  -2   0  18    7.60    2.10
  -2   0  18    6.10    2.80
  -1   0  18   10.50    3.20
  -1   0  18    8.00    2.70
   1   0 -18    7.60    2.90
   0   0 -18   -1.70    2.10
   0   0  18    0.90    2.40
   0   0  18    2.70    2.30
  -1   0 -18  154.38    9.00
   1   0  18  156.98    8.60
   1   0  18  162.48    9.20
   2   0  18   73.49    7.00
   2   0  18   75.09    7.10
  -2   0 -18   70.89    6.90
   3   0  18    2.30    2.30
   3   0  18    6.60    3.20
  -9  -1  18    6.60    2.70
   9  -1 -18    7.20    3.10
   9   1 -18   10.30    3.60
  -9   1  18    9.60    3.40
   8  -1 -18   -0.40    2.30
  -8  -1  18   -2.20    2.20
  -8  -1  18   -0.80    2.10
   8   1 -18   -0.20    2.50
  -8   1  18    1.30    2.10
   8   1 -18   -1.20    2.10
  -8   1  18    1.30    2.00
  -7  -1  18  110.79    7.10
  -7  -1  18  120.39    7.40
   7  -1 -18  127.39    7.80
   7   1 -18  113.39    7.10
  -7   1  18  137.19    7.80
  -7   1  18  126.89    7.70
   7   1 -18  116.89    7.50
  -6  -1  18    1.70    2.40
   6  -1 -18    5.90    2.80
  -6  -1  18    4.00    2.40
   6   1 -18    2.50    2.40
  -6   1  18    9.00    2.90
  -6   1  18    0.10    2.30
   6   1 -18    4.80    2.50
  -6   1  18    5.00    2.10
  -5  -1  18   11.40    2.70
  -5  -1  18    4.80    2.50
   5  -1 -18    8.90    3.10
   5  -1 -18    5.70    2.70
  -5   1  18    9.20    2.50
  -5   1  18    9.90    2.80
  -5   1  18    6.90    2.60
   5   1 -18   12.40    3.10
   5   1 -18   11.10    3.80
  -4  -1  18   70.89    5.10
   4  -1 -18   65.99    6.30
  -4  -1  18   60.09    4.80
  -4  -1  18   57.39    6.00
   4  -1 -18   56.99    5.40
  -4   1  18   67.69    4.90
  -4   1  18   57.09    5.40
  -4   1  18   65.89    6.30
   4   1 -18   57.99    5.30
   4   1 -18   54.79    5.70
  -3  -1  18    0.40    1.80
  -3  -1  18    2.80    2.40
   3  -1 -18    3.50    2.00
  -3  -1  18    1.60    2.00
   3  -1 -18    5.00    2.60
   3   1 -18    4.00    2.60
   3   1 -18    1.90    1.80
  -3   1  18    2.60    2.20
  -3   1  18    0.80    1.90
  -3   1  18    2.10    2.00
  -2  -1  18    1.90    2.00
  -2  -1  18    7.00    2.80
   2  -1 -18    2.10    2.00
  -2  -1  18    5.10    2.10
   2  -1 -18    0.60    2.30
  -2   1  18    3.60    1.80
  -2   1  18    2.10    2.20
   2   1 -18    1.60    2.40
  -2   1  18   -1.00    2.20
   2   1 -18    5.00    2.10
  -1  -1  18   33.90    4.40
   1  -1 -18   41.20    5.20
  -1  -1  18   28.90    4.60
  -1   1  18   32.80    4.80
  -1   1  18   46.80    5.20
   1   1 -18   39.40    5.10
   0  -1  18   19.20    3.80
   0  -1  18   17.30    3.60
   0  -1 -18   22.00    4.10
   0   1  18   21.90    4.10
   0   1 -18   17.70    3.70
   0   1  18   14.30    3.60
  -1  -1 -18    9.80    3.20
   1  -1  18   10.40    3.20
   1  -1  18    7.80    3.30
   1   1  18    6.60    3.00
   1   1  18    4.90    2.90
  -1   1 -18   14.40    3.70
   2  -1  18   31.20    4.90
   2  -1  18   35.70    5.30
  -2  -1 -18   36.60    4.40
  -2  -1 -18   36.60    5.10
   2   1  18   43.90    5.30
   2   1  18   32.50    5.00
  -2   1 -18   32.60    5.00
   3  -1  18   16.70    4.20
  -3  -1 -18    9.30    3.20
   3  -1  18    6.50    3.20
   3   1  18   10.00    3.50
  -8  -2  18    9.80    3.00
   8  -2 -18   11.30    3.70
  -8  -2  18    6.70    2.80
  -8   2  18   15.20    4.00
   8   2 -18    8.00    3.10
   8   2 -18    5.10    3.10
   7  -2 -18   -4.40    2.10
  -7  -2  18   -3.40    1.80
  -7  -2  18   -1.40    2.10
   7   2 -18   -2.00    1.40
  -7   2  18   -0.40    2.10
   7   2 -18    1.20    2.40
  -7   2  18   -1.90    2.20
   6  -2 -18    0.80    2.30
  -6  -2  18    1.30    2.20
  -6  -2  18    0.00    2.00
  -6   2  18    0.10    2.10
  -6   2  18    0.70    1.70
   6   2 -18   -1.30    2.00
  -6   2  18    2.90    2.50
   6   2 -18   -0.50    2.10
  -5  -2  18    7.20    2.40
  -5  -2  18   -2.40    1.70
  -5  -2  18   -0.10    2.00
   5  -2 -18   -0.30    2.20
   5  -2 -18   -1.30    1.90
   5   2 -18   -1.90    1.70
   5   2 -18   -1.20    2.20
  -5   2  18   -4.00    2.00
  -5   2  18    1.50    2.30
  -5   2  18    2.10    2.20
  -4  -2  18   40.70    4.30
  -4  -2  18   35.90    4.90
  -4  -2  18   42.40    4.60
   4  -2 -18   33.60    4.30
   4  -2 -18   45.40    5.40
  -4  -2  18   43.60    4.50
   4   2 -18   38.40    5.10
  -4   2  18   38.70    4.40
   4   2 -18   38.40    4.70
  -4   2  18   35.60    4.90
  -4   2  18   42.00    4.90
   3  -2 -18   75.59    5.50
  -3  -2  18   97.19    6.90
  -3  -2  18   93.49    5.90
   3  -2 -18   82.99    6.70
  -3  -2  18  103.99    6.40
  -3  -2  18   92.89    5.70
  -3   2  18   82.49    5.50
  -3   2  18   85.19    6.80
   3   2 -18   89.49    6.70
   3   2 -18   92.49    5.80
  -3   2  18   94.09    6.40
   2  -2 -18   53.19    5.80
   2  -2 -18   53.69    4.90
  -2  -2  18   48.90    5.00
  -2  -2  18   47.10    5.60
  -2   2  18   39.00    5.30
  -2   2  18   48.80    5.40
  -2   2  18   54.79    4.70
   2   2 -18   57.09    4.40
   2   2 -18   49.40    5.60
  -1  -2  18   14.50    3.30
   1  -2 -18   10.80    3.00
  -1  -2  18   16.00    3.70
  -1   2  18   16.40    3.80
  -1   2  18    9.50    3.00
   1   2 -18   10.70    3.40
   0  -2  18   44.80    5.60
   0  -2 -18   44.00    5.70
   0  -2 -18   31.90    5.90
   0  -2  18   36.40    4.80
   0   2 -18   39.20    5.20
   0   2  18   34.40    5.00
   0   2  18   52.99    5.80
  -1  -2 -18    0.60    2.50
   1  -2  18   -0.20    2.40
  -1  -2 -18   -0.80    2.10
   1  -2  18    2.80    2.70
  -1   2 -18    6.70    3.20
   1   2  18    2.00    2.80
   1   2  18    0.10    2.40
   2  -2  18   -0.20    2.60
  -2  -2 -18    6.10    2.90
   2  -2  18    2.50    2.70
  -2  -2 -18   -2.50    2.60
  -2   2 -18    7.10    3.10
   2   2  18   -0.70    2.50
   2   2  18    5.40    3.10
  -3  -2 -18   -1.20    2.10
   3  -2  18   -0.90    2.70
   3  -2  18    2.10    2.80
   3   2  18    1.70    2.70
  -7  -3  18   -1.30    2.30
   7  -3 -18    2.30    2.70
  -7   3  18    4.60    2.60
  -7   3  18    3.20    2.80
   7   3 -18    0.10    2.40
   7   3 -18    3.00    2.70
  -7   3  18    2.10    2.70
  -6  -3  18    2.60    2.50
  -6  -3  18    1.60    2.40
   6  -3 -18    1.50    2.50
  -6  -3  18    5.40    2.40
   6   3 -18    5.70    3.00
  -6   3  18    2.70    2.60
   6   3 -18    0.90    2.30
  -6   3  18    6.60    2.90
  -6   3  18    2.50    2.70
  -5  -3  18   76.89    6.40
  -5  -3  18   72.09    5.70
  -5  -3  18   64.89    6.30
   5  -3 -18   64.69    6.40
   5  -3 -18   66.09    6.70
   5   3 -18   53.49    5.80
  -5   3  18   58.99    6.30
  -5   3  18   63.89    6.20
  -5   3  18   64.49    6.10
   5   3 -18   66.29    6.90
  -4  -3  18  111.99    7.60
  -4  -3  18  104.69    6.60
   4  -3 -18  111.69    7.20
  -4  -3  18  128.59    7.60
   4  -3 -18  139.59    8.50
  -4   3  18  124.09    7.20
   4   3 -18  114.79    8.00
  -4   3  18  108.39    7.80
   4   3 -18  116.09    7.30
  -4   3  18  117.99    7.40
  -3  -3  18  198.68    9.70
  -3  -3  18  186.58    8.70
  -3  -3  18  192.48    9.10
  -3  -3  18  178.28    9.90
   3  -3 -18  193.58    9.40
   3  -3 -18  190.48   10.40
   3   3 -18  191.28   10.20
  -3   3  18  188.98    9.80
  -3   3  18  200.18    9.20
  -3   3  18  195.28   10.50
   3   3 -18  187.68    9.20
   2  -3 -18   48.30    5.80
  -2  -3  18   44.20    5.30
  -2  -3  18   48.40    5.80
   2  -3 -18   41.70    4.80
  -2  -3  18   47.90    5.30
   2   3 -18   36.60    5.30
   2   3 -18   44.90    4.80
  -2   3  18   36.20    5.20
  -2   3  18   35.80    4.90
  -2   3  18   42.40    4.40
   1  -3 -18    6.70    2.70
  -1  -3  18   10.10    3.40
   1  -3 -18   10.20    2.80
  -1  -3  18   16.80    3.50
   1   3 -18   11.80    3.30
  -1   3  18    6.30    3.00
  -1   3  18   13.40    3.50
   0  -3  18   19.80    3.90
   0  -3 -18   22.00    4.40
   0  -3 -18   29.20    4.30
   0  -3  18   27.90    4.70
   0   3  18   21.40    4.30
   0   3  18   21.10    4.40
   0   3 -18   22.00    4.50
  -1  -3 -18   -2.00    2.00
   1  -3  18    3.20    2.60
   1  -3  18    0.40    2.40
  -1   3 -18   -2.50    2.30
   1   3  18    0.30    2.60
   1   3  18   -1.20    2.30
   2  -3  18    9.40    3.80
   2   3  18   18.00    5.10
   5  -4 -18   14.80    4.10
   5  -4 -18   14.60    3.80
  -5  -4  18   18.00    3.80
  -5  -4  18   14.90    3.60
  -5   4  18   22.30    4.30
  -5   4  18   16.40    3.60
   5   4 -18   10.20    3.10
   5   4 -18    7.50    3.40
   4  -4 -18    0.90    2.60
  -4  -4  18    0.50    2.50
  -4  -4  18    0.70    2.50
   4  -4 -18   -0.90    2.20
  -4   4  18    1.90    2.30
   4   4 -18    2.70    2.30
  -4   4  18   -1.50    2.30
   4   4 -18   -1.20    2.50
  -3  -4  18   16.40    3.40
  -3  -4  18   25.90    4.50
   3  -4 -18   22.10    4.60
   3  -4 -18   19.30    4.10
  -3   4  18   19.00    4.40
  -3   4  18   27.00    4.60
   3   4 -18   22.70    4.60
   3   4 -18   21.40    3.90
  -3   4  18   26.50    4.00
   2  -4 -18   10.20    3.70
  -2  -4  18    6.30    3.10
   2  -4 -18    4.00    2.50
  -2  -4  18    6.40    2.70
  -2   4  18    1.50    3.00
  -2   4  18    5.50    2.50
   2   4 -18    9.20    3.40
  -2   4  18    7.00    3.20
   1  -4 -18   27.50    5.80
  -1  -4  18   21.00    4.00
  -1  -4  18   19.60    4.30
   1  -4 -18   19.00    3.70
   1  -4 -18   17.60    3.60
   1   4 -18   22.60    4.40
  -1   4  18   21.10    4.50
  -1   4  18   19.20    4.40
  -8   0  19    1.50    2.90
   8   0 -19   -2.40    2.30
  -7   0  19    4.00    2.60
   7   0 -19   -0.40    2.30
  -7   0  19   -1.60    2.20
   6   0 -19    1.70    2.40
  -6   0  19   -1.10    2.10
   6   0 -19   -2.50    2.00
  -6   0  19   -1.20    2.00
  -5   0  19   -2.60    2.10
   5   0 -19    3.20    4.50
   5   0 -19   -1.80    1.70
  -5   0  19    1.30    2.00
  -5   0  19   -0.60    1.60
  -4   0  19   -2.60    1.50
  -4   0  19   -0.60    1.80
  -4   0  19   -0.80    2.10
   4   0 -19    0.70    1.80
   4   0 -19   -1.10    2.20
  -3   0  19    0.50    2.30
   3   0 -19   -1.40    2.20
  -3   0  19   -2.90    1.40
   3   0 -19   -0.80    1.70
  -3   0  19   -1.70    1.70
  -2   0  19    1.40    2.40
   2   0 -19   -0.30    2.30
   2   0 -19    1.20    1.80
  -2   0  19   -0.60    1.90
  -1   0  19   -2.70    1.80
   1   0 -19   -0.10    2.40
  -1   0  19   -1.40    2.30
   0   0 -19    0.60    2.40
   0   0  19    2.00    2.50
   0   0  19   -1.90    2.20
   1   0  19    1.90    2.80
  -1   0 -19    3.50    2.90
   1   0  19    5.00    3.00
   2   0  19    0.00    2.50
   2   0  19    1.10    2.80
   8  -1 -19   59.99    6.50
   8   1 -19   56.89    6.30
  -7  -1  19    4.30    2.60
  -7  -1  19    3.20    2.50
   7  -1 -19    8.10    3.10
  -7   1  19    5.10    2.80
  -7   1  19    0.50    2.50
   7   1 -19    7.00    2.70
   7   1 -19    4.50    2.70
   6  -1 -19   39.00    5.00
  -6  -1  19   42.20    5.10
  -6  -1  19   34.70    4.60
  -6   1  19   30.60    4.70
  -6   1  19   33.30    4.50
   6   1 -19   36.30    4.70
   6   1 -19   34.10    4.70
  -5  -1  19   15.10    3.60
   5  -1 -19   16.00    3.30
  -5  -1  19    9.60    2.90
   5  -1 -19   14.80    3.60
  -5   1  19   16.50    3.70
  -5   1  19   14.50    3.20
  -5   1  19   19.50    3.50
   5   1 -19   12.60    3.10
  -4  -1  19   10.40    2.90
  -4  -1  19   10.10    2.60
   4  -1 -19   13.00    3.20
   4  -1 -19   10.40    3.30
  -4  -1  19    7.50    3.00
  -4   1  19    8.10    3.30
   4   1 -19   17.20    3.40
  -4   1  19   13.80    3.00
   4   1 -19   12.60    3.60
  -4   1  19   12.50    3.20
   3  -1 -19   25.60    4.50
  -3  -1  19   22.30    3.40
  -3  -1  19   26.70    3.90
   3  -1 -19   26.00    3.70
  -3  -1  19   18.70    3.90
  -3   1  19   23.20    4.20
  -3   1  19   19.60    3.20
   3   1 -19   22.10    3.50
   3   1 -19   21.30    4.10
  -3   1  19   15.40    3.40
  -2  -1  19   49.00    5.30
   2  -1 -19   50.69    4.90
   2  -1 -19   50.89    6.10
  -2  -1  19   47.40    5.70
   2   1 -19   52.29    5.80
  -2   1  19   44.70    5.60
  -2   1  19   49.80    5.40
   2   1 -19   46.10    4.70
  -1  -1  19   16.70    3.80
   1  -1 -19   15.30    3.80
  -1  -1  19   18.80    4.10
  -1   1  19   16.60    3.70
   1   1 -19   21.10    4.10
  -1   1  19   13.70    3.70
   0  -1 -19   21.30    4.20
   0  -1  19   22.80    4.40
   0  -1  19   21.70    4.10
   0   1 -19   21.30    4.30
   0   1  19   19.10    4.00
   0   1  19   14.30    3.90
   1  -1  19    4.80    2.90
  -1  -1 -19    4.90    3.00
   1  -1  19    5.80    3.10
   1   1  19    7.10    3.30
   1   1  19    5.60    3.10
  -1   1 -19    9.80    3.50
   2  -1  19   55.79    6.30
   2  -1  19   39.50    5.50
   2   1  19   34.70    5.30
   2   1  19   41.50    5.70
   7  -2 -19   -0.70    2.50
  -7  -2  19    3.70    2.60
  -7   2  19   -0.60    2.40
   7   2 -19   -0.30    2.70
   7   2 -19    2.00    2.40
  -6  -2  19    0.00    2.20
  -6  -2  19    1.90    2.30
   6  -2 -19    7.10    3.00
  -6   2  19    0.50    2.70
   6   2 -19    3.50    2.60
  -6   2  19    2.00    2.40
   6   2 -19    4.50    2.70
  -6   2  19    4.20    2.60
   5  -2 -19   -1.90    2.40
   5  -2 -19    2.00    2.60
  -5  -2  19    1.00    2.10
  -5  -2  19    0.10    1.90
  -5  -2  19    0.80    2.40
  -5   2  19    4.40    2.50
  -5   2  19    3.70    2.40
   5   2 -19    0.20    2.10
   5   2 -19    1.40    2.40
  -5   2  19    0.60    2.30
  -4  -2  19   -0.20    1.80
   4  -2 -19    5.40    2.80
  -4  -2  19    4.30    2.40
  -4  -2  19    0.40    2.20
   4  -2 -19   -3.50    2.10
  -4  -2  19    0.80    1.90
   4   2 -19    3.60    2.40
  -4   2  19    4.70    2.80
  -4   2  19    0.80    2.50
   4   2 -19   -0.30    2.30
  -4   2  19    3.90    2.20
  -3  -2  19  145.99    8.00
  -3  -2  19  161.68    9.30
   3  -2 -19  138.99    7.70
   3  -2 -19  158.68    9.40
   3   2 -19  150.28    7.90
  -3   2  19  155.48    7.90
   3   2 -19  159.08    9.20
  -3   2  19  145.49    8.30
   2  -2 -19    7.10    3.30
   2  -2 -19    9.00    2.70
  -2  -2  19   14.70    3.20
  -2  -2  19   11.90    3.50
  -2   2  19   12.70    3.40
  -2   2  19    9.30    3.50
   2   2 -19    6.50    3.00
   2   2 -19    6.70    2.50
  -1  -2  19   10.10    3.50
  -1  -2  19    2.30    2.40
   1  -2 -19   14.40    3.90
  -1   2  19    6.40    3.30
  -1   2  19    6.30    3.00
   1   2 -19   12.10    3.60
   0  -2  19    9.80    3.30
   0  -2  19    8.70    3.50
   0  -2 -19    9.50    3.50
   0   2  19    8.00    2.90
   0   2  19   11.30    3.50
   0   2 -19    5.30    3.30
   1  -2  19    6.20    3.20
   1  -2  19    2.00    3.00
   1   2  19    3.30    3.00
   1   2  19    0.50    2.60
  -1   2 -19    8.80    3.80
   5  -3 -19    8.60    3.60
   5  -3 -19   12.60    3.50
  -5  -3  19   14.50    3.60
  -5  -3  19    6.20    3.10
   5   3 -19    7.40    3.20
   5   3 -19    5.10    2.60
  -5   3  19   10.30    3.20
  -5   3  19   11.30    3.10
  -4  -3  19    2.10    2.50
  -4  -3  19    5.00    2.50
   4  -3 -19    1.50    2.80
   4  -3 -19    3.50    3.00
  -4   3  19    0.50    2.90
   4   3 -19    4.10    2.70
  -4   3  19    1.40    2.40
  -4   3  19    3.10    2.50
   4   3 -19    5.10    3.00
   3  -3 -19   -2.40    2.40
   3  -3 -19   -1.60    2.70
  -3  -3  19    0.30    2.50
  -3  -3  19    2.00    2.70
  -3   3  19    2.00    2.10
  -3   3  19    1.40    2.80
  -3   3  19    3.30    2.70
   3   3 -19    4.10    3.30
   3   3 -19   -0.50    1.90
  -2  -3  19    2.10    3.20
   2  -3 -19    0.40    1.90
   2  -3 -19    1.40    2.70
  -2  -3  19   -1.60    2.00
   2   3 -19    3.70    2.90
   2   3 -19   -0.10    1.90
  -2   3  19    0.90    2.60
  -2   3  19   -0.70    2.40
  -1  -3  19   17.80    3.80
   1  -3 -19   20.30    4.50
  -1  -3  19   20.30    5.00
  -1   3  19   16.90    4.20
  -1   3  19   12.50    4.00
   1   3 -19   22.20    4.70
   0  -3  19   11.30    3.40
   0   3  19   10.50    3.70
   0   3 -19    9.60    3.60
   0   3  19    8.90    3.40
   6   0 -20   -1.50    1.90
   6   0 -20    1.30    2.40
  -6   0  20    1.80    2.40
  -5   0  20    4.10    3.00
   5   0 -20    5.90    2.70
  -5   0  20    3.30    2.10
  -5   0  20    6.00    2.40
  -4   0  20   19.70    3.50
  -4   0  20   16.90    3.50
   4   0 -20   18.30    3.70
  -4   0  20   16.20    3.80
   4   0 -20   14.20    3.80
  -3   0  20   45.90    5.20
   3   0 -20   39.60    4.60
   3   0 -20   42.50    5.60
  -3   0  20   38.80    5.30
  -2   0  20    4.20    3.00
  -2   0  20    4.60    2.80
   2   0 -20    5.70    3.20
  -1   0  20   13.60    3.70
   1   0 -20   13.50    3.90
  -1   0  20   11.60    3.40
   0   0 -20  266.17   13.00
   0   0  20  284.37   13.20
   0   0  20  255.97   12.30
  -6  -1  20    6.10    2.60
   6  -1 -20    9.20    3.30
   6   1 -20    4.50    2.70
   6   1 -20    4.70    2.90
  -6   1  20    6.60    2.90
   5  -1 -20    3.40    2.30
  -5  -1  20   -2.20    1.80
  -5   1  20    1.10    2.50
   5   1 -20   -2.90    1.70
  -5   1  20   -0.70    2.20
  -4  -1  20   -0.90    2.60
   4  -1 -20    0.10    2.70
  -4  -1  20    0.10    2.00
   4  -1 -20    2.10    2.10
  -4  -1  20    0.30    1.90
   4   1 -20    3.40    2.70
  -4   1  20   -3.60    2.10
   4   1 -20    2.10    2.30
  -4   1  20   -2.00    1.70
  -4   1  20   -3.20    1.70
   3  -1 -20    0.30    2.10
   3  -1 -20   -3.80    2.00
  -3  -1  20    0.50    2.40
  -3  -1  20    0.30    2.50
   3   1 -20   -1.50    1.70
  -3   1  20    0.30    2.70
  -3   1  20    3.10    2.60
   3   1 -20    0.60    2.50
   2  -1 -20    6.10    3.10
  -2  -1  20    7.90    3.40
  -2  -1  20    5.60    2.60
   2   1 -20    0.90    2.80
  -2   1  20    6.10    3.20
  -2   1  20   11.40    3.30
  -1  -1  20   -1.20    2.00
   1  -1 -20   -1.20    2.60
  -1  -1  20    2.50    2.60
  -1   1  20   -0.40    2.20
   1   1 -20   -2.20    2.10
  -1   1  20    2.30    2.90
   0  -1  20   10.50    3.80
   0  -1  20    7.60    3.30
   0   1  20    9.90    3.80
   0   1 -20    1.30    3.00
   0   1  20    6.90    3.20
  -5  -2  20   39.00    4.80
   5  -2 -20   35.20    4.80
  -5   2  20   46.30    5.10
  -5   2  20   47.70    5.30
   5   2 -20   48.20    5.90
   5   2 -20   44.30    5.30
   4  -2 -20   13.70    3.40
   4  -2 -20   11.20    3.70
  -4   2  20   21.00    3.70
  -4   2  20   17.60    3.70
   4   2 -20   15.60    3.40
  -3  -2  20   10.30    3.20
   3  -2 -20    4.30    3.20
   3  -2 -20    7.30    2.70
   3   2 -20    4.70    2.50
   3   2 -20    7.80    3.40
  -3   2  20    7.60    3.00
  -3   2  20   15.10    6.50
  -2  -2  20    4.40    2.60
   2  -2 -20    7.00    3.30
   2   2 -20    7.50    3.50
  -2   2  20    1.10    2.50
  -2   2  20   -1.30    2.60
  -1  -2  20    3.90    2.90
   1  -2 -20    3.00    3.60
   1   2 -20   -0.80    2.60
  -1   2  20   10.40    3.80
  -1   2  20    1.80    2.80
   4   0 -21    2.60    2.90
  -3   0  21    1.20    2.40
   3   0 -21   -3.10    2.50
   3   0 -21   -0.80    1.90
   0   0   0    0.00    0.00

_computing_structure_solution     'SHELXT 2014/5 (Sheldrick, 2014)'
;
_shelx_hkl_checksum              55816
_olex2_submission_special_instructions 'No special instructions were received'
loop_
_space_group_symop_operation_xyz
'x, y, z'
'-x, y+1/2, -z+1/2'
'-x, -y, -z'
'x, -y-1/2, z-1/2'
loop_
_atom_site_label
_atom_site_type_symbol
_atom_site_fract_x
_atom_site_fract_y
_atom_site_fract_z
_atom_site_U_iso_or_equiv
_atom_site_adp_type
_atom_site_occupancy
_atom_site_site_symmetry_order
_atom_site_calc_flag
_atom_site_refinement_flags_posn
O10 O 0.30222(8) 0.73165(13) 0.60946(5) 0.0334(2) Uani 1 1 d .
O12 O 0.51940(8) 0.89518(13) 0.63493(5) 0.0341(2) Uani 1 1 d .
C8 C 0.47465(10) 0.55614(15) 0.55945(6) 0.0229(2) Uani 1 1 d .
H8 H 0.488295 0.462637 0.611247 0.027 Uiso 1 1 calc R
C7 C 0.60745(10) 0.56155(15) 0.52430(6) 0.0230(2) Uani 1 1 d .
H7 H 0.627311 0.709422 0.509624 0.028 Uiso 1 1 calc R
C6 C 0.73803(10) 0.46087(17) 0.57753(6) 0.0252(2) Uani 1 1 d .
C9 C 0.42032(11) 0.76945(16) 0.57762(7) 0.0269(2) Uani 1 1 d .
H9 H 0.389927 0.846551 0.521534 0.032 Uiso 1 1 calc R
C1 C 0.86781(11) 0.53733(19) 0.57380(8) 0.0334(3) Uani 1 1 d .
H1 H 0.873527 0.657503 0.539461 0.040 Uiso 1 1 calc R
C5 C 0.73395(12) 0.28498(19) 0.62883(8) 0.0333(3) Uani 1 1 d .
H5 H 0.646782 0.229582 0.632464 0.040 Uiso 1 1 calc R
C2 C 0.98907(12) 0.4405(2) 0.61956(8) 0.0416(3) Uani 1 1 d .
H2 H 1.076634 0.493831 0.615683 0.050 Uiso 1 1 calc R
C4 C 0.85530(13) 0.1893(2) 0.67476(8) 0.0415(3) Uani 1 1 d .
H4 H 0.850445 0.069211 0.709320 0.050 Uiso 1 1 calc R
C3 C 0.98292(13) 0.2677(2) 0.67047(8) 0.0418(3) Uani 1 1 d .
H3 H 1.065869 0.202922 0.702405 0.050 Uiso 1 1 calc R
C13 C 0.57977(14) 0.8014(2) 0.71682(8) 0.0418(3) Uani 1 1 d .
H13A H 0.639800 0.684395 0.709070 0.063 Uiso 1 1 calc GR
H13B H 0.506033 0.748675 0.742272 0.063 Uiso 1 1 calc GR
H13C H 0.634898 0.906667 0.755317 0.063 Uiso 1 1 calc GR
C11 C 0.21350(14) 0.9100(2) 0.60218(11) 0.0514(4) Uani 1 1 d .
H11A H 0.173375 0.940918 0.540983 0.077 Uiso 1 1 calc GR
H11B H 0.267198 1.031577 0.629775 0.077 Uiso 1 1 calc GR
H11C H 0.138855 0.880352 0.630768 0.077 Uiso 1 1 calc GR
loop_
_atom_site_aniso_label
_atom_site_aniso_U_11
_atom_site_aniso_U_22
_atom_site_aniso_U_33
_atom_site_aniso_U_23
_atom_site_aniso_U_13
_atom_site_aniso_U_12
O10 0.0291(4) 0.0314(4) 0.0426(5) -0.0054(3) 0.0144(3) 0.0017(3)
O12 0.0362(4) 0.0286(4) 0.0367(4) -0.0066(3) 0.0073(3) -0.0057(3)
C8 0.0246(5) 0.0218(5) 0.0232(5) 0.0020(4) 0.0074(4) -0.0004(4)
C7 0.0250(5) 0.0194(4) 0.0258(5) 0.0016(4) 0.0083(4) -0.0023(4)
C6 0.0239(5) 0.0264(5) 0.0253(5) -0.0033(4) 0.0060(4) -0.0019(4)
C9 0.0278(5) 0.0245(5) 0.0288(5) -0.0017(4) 0.0078(4) -0.0005(4)
C1 0.0288(5) 0.0371(6) 0.0353(6) -0.0041(5) 0.0099(4) -0.0073(5)
C5 0.0274(5) 0.0344(6) 0.0373(6) 0.0073(5) 0.0065(4) 0.0006(4)
C2 0.0237(5) 0.0552(8) 0.0453(7) -0.0136(6) 0.0075(5) -0.0052(5)
C4 0.0401(7) 0.0413(7) 0.0397(6) 0.0080(5) 0.0031(5) 0.0083(5)
C3 0.0300(6) 0.0502(8) 0.0398(6) -0.0106(6) -0.0016(5) 0.0107(5)
C13 0.0446(7) 0.0438(7) 0.0333(6) -0.0107(5) 0.0027(5) -0.0014(6)
C11 0.0388(7) 0.0399(7) 0.0782(10) -0.0128(7) 0.0198(7) 0.0091(6)
loop_
_atom_type_symbol
_atom_type_description
_atom_type_scat_dispersion_real
_atom_type_scat_dispersion_imag
_atom_type_scat_source
C C 0.0033 0.0016 'International Tables Vol C Tables 4.2.6.8 and 6.1.1.4'
H H 0.0000 0.0000 'International Tables Vol C Tables 4.2.6.8 and 6.1.1.4'
O O 0.0106 0.0060 'International Tables Vol C Tables 4.2.6.8 and 6.1.1.4'
loop_
_geom_angle_atom_site_label_1
_geom_angle_atom_site_label_2
_geom_angle_atom_site_label_3
_geom_angle
_geom_angle_site_symmetry_1
_geom_angle_site_symmetry_3
C9 O10 C11 112.88(10) . .
C9 O12 C13 115.16(9) . .
C7 C8 H8 110.9 . .
C7 C8 H8 110.9 3_666 .
C7 C8 C7 90.74(7) . 3_666
C9 C8 H8 110.9 . .
C9 C8 C7 115.05(8) . .
C9 C8 C7 116.97(8) . 3_666
C8 C7 C8 89.26(7) . 3_666
C8 C7 H7 109.8 3_666 .
C8 C7 H7 109.8 . .
C6 C7 C8 118.15(8) . 3_666
C6 C7 C8 118.43(8) . .
C6 C7 H7 109.8 . .
C1 C6 C7 120.36(10) . .
C5 C6 C7 121.79(9) . .
C5 C6 C1 117.79(10) . .
O10 C9 O12 111.84(8) . .
O10 C9 C8 106.51(8) . .
O10 C9 H9 108.1 . .
O12 C9 C8 113.92(8) . .
O12 C9 H9 108.1 . .
C8 C9 H9 108.1 . .
C6 C1 H1 119.5 . .
C2 C1 C6 121.02(12) . .
C2 C1 H1 119.5 . .
C6 C5 H5 119.5 . .
C4 C5 C6 121.02(11) . .
C4 C5 H5 119.5 . .
C1 C2 H2 119.8 . .
C3 C2 C1 120.33(11) . .
C3 C2 H2 119.8 . .
C5 C4 H4 119.8 . .
C3 C4 C5 120.36(12) . .
C3 C4 H4 119.8 . .
C2 C3 C4 119.47(11) . .
C2 C3 H3 120.3 . .
C4 C3 H3 120.3 . .
O12 C13 H13A 109.5 . .
O12 C13 H13B 109.5 . .
O12 C13 H13C 109.5 . .
H13A C13 H13B 109.5 . .
H13A C13 H13C 109.5 . .
H13B C13 H13C 109.5 . .
O10 C11 H11A 109.5 . .
O10 C11 H11B 109.5 . .
O10 C11 H11C 109.5 . .
H11A C11 H11B 109.5 . .
H11A C11 H11C 109.5 . .
H11B C11 H11C 109.5 . .
loop_
_geom_bond_atom_site_label_1
_geom_bond_atom_site_label_2
_geom_bond_distance
_geom_bond_site_symmetry_2
O10 C9 1.4093(12) .
O10 C11 1.4234(15) .
O12 C9 1.4152(13) .
O12 C13 1.4278(15) .
C8 H8 1.0000 .
C8 C7 1.5561(13) .
C8 C7 1.5738(14) 3_666
C8 C9 1.5135(14) .
C7 H7 1.0000 .
C7 C6 1.5080(14) .
C6 C1 1.3932(14) .
C6 C5 1.3922(15) .
C9 H9 1.0000 .
C1 H1 0.9500 .
C1 C2 1.3901(17) .
C5 H5 0.9500 .
C5 C4 1.3883(16) .
C2 H2 0.9500 .
C2 C3 1.377(2) .
C4 H4 0.9500 .
C4 C3 1.3799(19) .
C3 H3 0.9500 .
C13 H13A 0.9800 .
C13 H13B 0.9800 .
C13 H13C 0.9800 .
C11 H11A 0.9800 .
C11 H11B 0.9800 .
C11 H11C 0.9800 .
loop_
_geom_torsion_atom_site_label_1
_geom_torsion_atom_site_label_2
_geom_torsion_atom_site_label_3
_geom_torsion_atom_site_label_4
_geom_torsion
_geom_torsion_site_symmetry_1
_geom_torsion_site_symmetry_4
C8 C7 C6 C1 103.95(11) 3_666 .
C8 C7 C6 C1 -150.20(10) . .
C8 C7 C6 C5 32.49(14) . .
C8 C7 C6 C5 -73.36(13) 3_666 .
C7 C8 C7 C8 0.002(1) 3_666 3_666
C7 C8 C7 C6 -121.98(10) 3_666 .
C7 C8 C9 O10 75.93(11) 3_666 .
C7 C8 C9 O10 -179.36(8) . .
C7 C8 C9 O12 -55.58(12) . .
C7 C8 C9 O12 -160.29(8) 3_666 .
C7 C6 C1 C2 -177.16(10) . .
C7 C6 C5 C4 177.43(11) . .
C6 C1 C2 C3 -0.76(18) . .
C6 C5 C4 C3 0.1(2) . .
C9 C8 C7 C8 -120.45(10) . 3_666
C9 C8 C7 C6 117.57(10) . .
C1 C6 C5 C4 0.06(17) . .
C1 C2 C3 C4 0.95(19) . .
C5 C6 C1 C2 0.25(17) . .
C5 C4 C3 C2 -0.6(2) . .
C13 O12 C9 O10 64.67(12) . .
C13 O12 C9 C8 -56.18(12) . .
C11 O10 C9 O12 74.89(12) . .
C11 O10 C9 C8 -160.06(10) . .
