#------------------------------------------------------------------------------
#$Date: 2017-09-15 02:03:37 +0300 (Fri, 15 Sep 2017) $
#$Revision: 200899 $
#$URL: file:///home/coder/svn-repositories/cod/cif/4/12/64/4126407.cif $
#------------------------------------------------------------------------------
#
# This file is available in the Crystallography Open Database (COD),
# http://www.crystallography.net/
#
# All data on this site have been placed in the public domain by the
# contributors.
#
data_4126407
loop_
_publ_author_name
'Park, Sarah S.'
'Tulchinsky, Yuri'
'Dinc\(a, Mircea'
_publ_section_title
;
 Single-Ion Li(+), Na(+), and Mg(2+) Solid Electrolytes Supported by a
 Mesoporous Anionic Cu-Azolate Metal-Organic Framework.
;
_journal_name_full               'Journal of the American Chemical Society'
_journal_paper_doi               10.1021/jacs.7b06197
_journal_year                    2017
_chemical_formula_sum            'C4.5 H1.5 Cl0.75 Cu0.75 N2.25 O1.5'
_chemical_formula_weight         185.32
_space_group_crystal_system      trigonal
_space_group_IT_number           166
_space_group_name_Hall           '-R 3 2"'
_space_group_name_H-M_alt        'R -3 m :H'
_symmetry_space_group_name_Hall  '-R 3 2"'
_symmetry_space_group_name_H-M   'R -3 m :H'
_atom_sites_solution_hydrogens   geom
_atom_sites_solution_primary     direct
_atom_sites_solution_secondary   difmap
_audit_creation_method           SHELXL-2016/6
_cell_angle_alpha                90
_cell_angle_beta                 90
_cell_angle_gamma                120
_cell_formula_units_Z            24
_cell_length_a                   37.820(3)
_cell_length_b                   37.820(3)
_cell_length_c                   8.0074(11)
_cell_measurement_reflns_used    422
_cell_measurement_temperature    100(2)
_cell_measurement_theta_max      33.73
_cell_measurement_theta_min      2.34
_cell_volume                     9918.9(18)
_computing_cell_refinement       'SAINT 7.46A (Bruker-AXS, 2015)'
_computing_data_collection       'APEX2 v2011.4.0 (Bruker-AXS, 2015)'
_computing_data_reduction        'SAINT 7.46A (Bruker-AXS, 2015)'
_computing_molecular_graphics    'Bruker SHELXTL'
_computing_publication_material  'Bruker SHELXTL'
_computing_structure_refinement  'SHELXL-2016/6 (Sheldrick, 2016)'
_computing_structure_solution    'SHELXT-2015 (Sheldrick, 2015)'
_diffrn_ambient_temperature      100(2)
_diffrn_detector_area_resol_mean 8.3
_diffrn_measured_fraction_theta_full 0.999
_diffrn_measured_fraction_theta_max 0.999
_diffrn_measurement_device_type  'Bruker Smart APEX2 CCD'
_diffrn_measurement_method       '\f and \w scans'
_diffrn_radiation_type           CuK\a
_diffrn_radiation_wavelength     1.54178
_diffrn_reflns_av_R_equivalents  0.2131
_diffrn_reflns_av_unetI/netI     0.0821
_diffrn_reflns_Laue_measured_fraction_full 0.999
_diffrn_reflns_Laue_measured_fraction_max 0.999
_diffrn_reflns_limit_h_max       33
_diffrn_reflns_limit_h_min       -33
_diffrn_reflns_limit_k_max       33
_diffrn_reflns_limit_k_min       -30
_diffrn_reflns_limit_l_max       7
_diffrn_reflns_limit_l_min       -7
_diffrn_reflns_number            13530
_diffrn_reflns_point_group_measured_fraction_full 0.999
_diffrn_reflns_point_group_measured_fraction_max 0.999
_diffrn_reflns_theta_full        43.003
_diffrn_reflns_theta_max         43.003
_diffrn_reflns_theta_min         2.336
_diffrn_source
'I\mS micro-focus sealed tube, multilayer optics'
_exptl_absorpt_coefficient_mu    2.428
_exptl_absorpt_correction_T_max  0.7504
_exptl_absorpt_correction_T_min  0.5752
_exptl_absorpt_correction_type   multi-scan
_exptl_absorpt_process_details   'SADABS (Sheldrick, 2009)'
_exptl_crystal_colour            yellow
_exptl_crystal_density_diffrn    0.745
_exptl_crystal_density_method    'not measured'
_exptl_crystal_description       needle
_exptl_crystal_F_000             2178
_exptl_crystal_size_max          0.100
_exptl_crystal_size_mid          0.005
_exptl_crystal_size_min          0.002
_refine_diff_density_max         0.220
_refine_diff_density_min         -0.303
_refine_diff_density_rms         0.044
_refine_ls_extinction_method     none
_refine_ls_goodness_of_fit_ref   0.914
_refine_ls_hydrogen_treatment    constr
_refine_ls_matrix_type           full
_refine_ls_number_parameters     111
_refine_ls_number_reflns         865
_refine_ls_number_restraints     285
_refine_ls_restrained_S_all      0.821
_refine_ls_R_factor_all          0.0734
_refine_ls_R_factor_gt           0.0412
_refine_ls_shift/su_max          0.000
_refine_ls_shift/su_mean         0.000
_refine_ls_structure_factor_coef Fsqd
_refine_ls_weighting_details
'w=1/[\s^2^(Fo^2^)+(0.0523P)^2^] where P=(Fo^2^+2Fc^2^)/3'
_refine_ls_weighting_scheme      calc
_refine_ls_wR_factor_gt          0.0880
_refine_ls_wR_factor_ref         0.0988
_reflns_Friedel_coverage         0.000
_reflns_number_gt                551
_reflns_number_total             865
_reflns_threshold_expression     'I > 2\s(I)'
_cod_data_source_file            ja7b06197_si_004.cif
_cod_data_source_block           MeOH-exchanged-MIT-20
_cod_original_cell_volume        9919(2)
_cod_original_formula_sum        'C4.50 H1.50 Cl0.75 Cu0.75 N2.25 O1.50'
_cod_database_code               4126407
_shelx_shelxl_version_number     2016/6
_shelx_space_group_comment
; 
The symmetry employed for this shelxl refinement is uniquely defined 
by the following loop, which should always be used as a source of 
symmetry information in preference to the above space-group names. 
They are only intended as comments. 
;
_shelx_estimated_absorpt_t_min   0.793
_shelx_estimated_absorpt_t_max   0.995
_shelx_res_file
; 
  
TITL pm_a.res in R-3m 
    cuyel_new_sq.res 
    created by SHELXL-2016/6 at 15:58:21 on 11-Jan-2017 
REM Old TITL pm in R-3m 
  
REM SHELXT solution in R-3m 
REM R1 0.226,  Rweak 0.027,  Alpha 0.058,  Orientation as input 
REM Formula found by SHELXT:  C7 O4 Cl Cu 
  
CELL  1.54178  37.8200  37.8200   8.0074   90.000   90.000  120.000 
ZERR   24.000   0.0029   0.0029   0.0011    0.000    0.000    0.000 
LATT  3 
SYMM -Y, X-Y, Z 
SYMM -X+Y, -X, Z 
SYMM Y, X, -Z 
SYMM X-Y, -Y, -Z 
SYMM -X, -X+Y, -Z 
SFAC C H N O CL CU 
UNIT 108 36 54 36 18 18 
LIST 4 
TEMP -173 
SIZE 0.002 0.005 0.10 
  
OMIT  -1   1   1  ! outlier, Fo > Fc 
  
ACTA 
  
L.S. 10 0   40 
BOND $H 
FMAP 2 
PLAN 20 
  
EQIV $1 1/3+y, -1/3+x, 5/3-z 
EQIV $3 2/3-x+y, 1/3-x, 1/3+z 
  
SIMU 0.02 
RIGU 0.002 
ISOR 0.025 Cl1 O1C 
EADP Cl1 O1C 
BIND Cu1 Cl1 
BIND Cu1_$3 Cl1 
  
EADP O2 Cl2A 
DFIX 31.0 Cu1 O2 
DFIX 41.0 O2 Cl2A 
DFIX 51.0 Cu1 Cl2A 
SUMP 0 0 1 6 1 7 -1 8 
  
REM Fix connectivity at least a little bit.. 
FREE C1A C1A_$1 
FREE C1B C1B_$1 
FREE C3A C3A_$1 
FREE C3B C3B_$1 
SADI C1A C2A C2A C3A C3A C3B_$1 C3B_$1 C2B_$1 C2B_$1 C1B_$1 C1B_$1 C1A = 
     C1B C2B C2B C3B C3B C3A_$1 C3A_$1 C2A_$1 C2A_$1 C1A_$1 C1A_$1 C1B 
  
FLAT N1 > O1A 
ABIN 
WGHT    0.052300 
FVAR       0.03192   0.34779   1.84849   0.50854   2.22504 
CU1   6    0.367225    0.033891    0.833333    10.50000    0.04896    0.04896 = 
         0.04311    0.00014   -0.00014    0.02112 
PART 1 
CL1   5    0.394060    0.000000    1.000000    20.50000    0.06180    0.13493 = 
         0.06154   -0.00018   -0.00009    0.06747 
PART 2 
O1C   4    0.403697    0.000000    1.000000   -20.50000    0.06180    0.13493 = 
         0.06154   -0.00018   -0.00009    0.06747 
PART 0 
PART 1 
O2    4    0.416101    0.082767    0.833333    20.50000    0.09731    0.09731 = 
         0.16430   -0.06076    0.06076   -0.01773 
PART 2 
CL2A  5    0.426057    0.092724    0.833333   -20.50000    0.09731    0.09731 = 
         0.16430   -0.06076    0.06076   -0.01773 
PART 0 
N1    3    0.312934   -0.020400    0.833333    10.50000    0.04488    0.04488 = 
         0.04148    0.00629   -0.00629    0.01851 
PART   1 
N2A   3    0.285375   -0.031377    0.721120    10.50000    0.04144    0.04894 = 
         0.03609   -0.00407   -0.00246    0.02458 
C1A   1    0.251930   -0.066061    0.765689    10.50000    0.03661    0.04646 = 
         0.03681   -0.01121    0.00445    0.03010 
C2A   1    0.213692   -0.091839    0.695778    10.50000    0.03934    0.05626 = 
         0.03796    0.00345   -0.00115    0.02422 
AFIX  43 
H2A   2    0.205655   -0.086109    0.591495    10.50000   -1.20000 
AFIX   0 
C3A   1    0.188101   -0.126422    0.788261    10.50000    0.05533    0.06307 = 
         0.05132    0.00983   -0.01569   -0.00294 
O1A   4    0.148552   -0.148552    0.718311    10.25000    0.05471    0.05471 = 
         0.07351    0.02006   -0.02006   -0.00468 
PART   2 
N2B   3    0.286889   -0.032312    0.698462    10.50000    0.04181    0.05108 = 
         0.04132   -0.00271   -0.00470    0.02414 
C1B   1    0.258947   -0.071205    0.742820    10.50000    0.04033    0.05312 = 
         0.04801   -0.00042   -0.00533    0.02685 
C2B   1    0.222767   -0.097899    0.659960    10.50000    0.04834    0.06123 = 
         0.04751    0.01394   -0.01126    0.01647 
AFIX  43 
H2B   2    0.216575   -0.090194    0.555885    10.50000   -1.20000 
AFIX   0 
C3B   1    0.195939   -0.135463    0.728663    10.50000    0.05714    0.06175 = 
         0.06135    0.02053   -0.02279    0.00570 
O1B   4    0.163505   -0.163505    0.643583    10.25000    0.07699    0.07699 = 
         0.06993    0.03341   -0.03341   -0.01552 
PART   0 
HKLF 4 
  
  
  
  
REM  pm_a.res in R-3m 
REM R1 =  0.0412 for     551 Fo > 4sig(Fo)  and  0.0734 for all     865 data 
REM    111 parameters refined using    285 restraints 
  
END 
  
WGHT      0.0523      0.0000 
  
REM Highest difference peak  0.220,  deepest hole -0.303,  1-sigma level  0.044 
Q1    1   0.4476  0.1169  0.9788  11.00000  0.05    0.22 
Q2    1   0.2332 -0.1046  0.4410  11.00000  0.05    0.20 
Q3    1   0.3765  0.0535  0.6691  11.00000  0.05    0.19 
Q4    1   0.1222 -0.1550  0.8402  11.00000  0.05    0.18 
Q5    1   0.3782 -0.0532  1.0317  11.00000  0.05    0.15 
Q6    1   0.1918 -0.0639  0.5300  11.00000  0.05    0.14 
Q7    1   0.1646 -0.1646  0.4220  10.50000  0.05    0.14 
Q8    1   0.4130 -0.0202  0.8503  11.00000  0.05    0.13 
Q9    1   0.2283 -0.1244  0.7206  11.00000  0.05    0.13 
Q10   1   0.4019  0.0266  1.1707  11.00000  0.05    0.13 
Q11   1   0.2717 -0.0359  0.5663  11.00000  0.05    0.13 
Q12   1   0.3019 -0.0101  0.8381  11.00000  0.05    0.12 
Q13   1   0.3472  0.0011  0.8968  11.00000  0.05    0.12 
Q14   1   0.2709 -0.0301  0.7488  11.00000  0.05    0.12 
Q15   1   0.1736 -0.1237  0.5195  11.00000  0.05    0.12 
Q16   1   0.1892 -0.1892  0.5968  10.50000  0.05    0.12 
Q17   1   0.2942 -0.0430  0.5851  11.00000  0.05    0.12 
Q18   1   0.2610 -0.0993  0.6542  11.00000  0.05    0.11 
Q19   1   0.1949 -0.0698  0.6210  11.00000  0.05    0.11 
Q20   1   0.1430 -0.1430  0.6337  10.50000  0.05    0.11 
;
_shelx_res_checksum              65965
_shelx_hkl_file
; 
   1   1   0  864.58   74.63 
   1  -2   0  955.14   74.70 
   1   1   0  961.80   74.68 
  -2   1   0  855.38   74.67 
   1  -2   0  915.98   74.66 
  -1  -1   0  899.34   74.63 
  -1   2   0  887.62   74.66 
  -1   2   0 1000.00   74.71 
  -1  -1   0  911.54   74.68 
   2  -1   0  888.35   74.68 
   2  -1   0  937.26   74.67 
   0  -3   0  508.61   39.61 
   3   0   0  495.16   39.69 
   3   0   0  464.59   39.65 
  -3   3   0  470.50   39.64 
   0   3   0  510.96   39.61 
   3  -3   0  450.83   39.78 
   0   3   0  486.77   39.59 
   3  -3   0  491.01   39.69 
   2  -4   0    7.19    1.42 
   2   2   0   10.27    1.61 
   2   2   0    8.07    1.01 
   2  -4   0    9.54    1.70 
  -2  -2   0    7.87    1.02 
   4  -2   0    3.69    1.61 
  -2   4   0    8.26    1.94 
   4  -2   0    5.30    1.47 
   4  -5   0   24.37    3.55 
   1   4   0   32.14    3.30 
   1   4   0   30.40    3.50 
  -5   1   0   31.71    3.69 
   1   4   0   32.92    2.73 
   1   4   0   29.22    2.74 
   4  -5   0   28.35    3.48 
   4  -5   0   36.04    3.43 
  -4   5   0   31.68    3.89 
  -1  -4   0   27.13    2.67 
   5  -1   0   37.83    3.33 
   5  -1   0   36.68    3.47 
   5  -1   0   30.72    3.39 
  -4   5   0   30.91    3.36 
   5  -1   0   25.13    3.52 
   4   1   0   30.43    3.29 
   4   1   0   29.23    3.66 
   1  -5   0   27.96    2.94 
   4   1   0   28.93    3.09 
  -5   4   0   29.11    3.86 
   1  -5   0   28.86    2.98 
   5  -4   0   28.52    3.75 
   5  -4   0   34.56    3.32 
   5  -4   0   32.92    3.41 
  -4  -1   0   26.62    3.55 
  -1   5   0   36.51    3.71 
   5  -4   0   24.74    3.39 
  -6   3   0   43.62    4.52 
   3  -6   0   39.81    4.32 
   3   3   0   39.02    3.67 
   3   3   0   45.12    4.14 
   3  -6   0   39.32    3.96 
   3  -6   0   37.43    3.99 
   3   3   0   41.10    4.40 
   3   3   0   35.93    3.49 
   6  -3   0   39.97    3.99 
  -3   6   0   40.12    4.34 
  -3   6   0   34.23    4.25 
   6  -3   0   42.40    4.29 
   6  -3   0   37.44    4.13 
   6  -3   0   41.06    4.26 
  -3  -3   0   36.52    3.49 
  -6   6   0   86.04    8.67 
   0  -6   0   97.25    7.81 
   6   0   0   98.16    8.13 
  -6   6   0   73.53    8.11 
   6   0   0   86.28    8.58 
   6   0   0   97.65    8.24 
   6   0   0  100.10    8.10 
   6   0   0   94.08    8.17 
   6  -6   0  101.61    8.85 
   6  -6   0  100.97    8.51 
   6  -6   0   86.49    8.54 
   0   6   0   94.14    8.43 
  -6   0   0   86.58    8.41 
   2   5   0   19.96    1.75 
   2   5   0   16.49    2.79 
   5  -7   0   16.72    2.93 
   2   5   0   15.46    1.75 
   5  -7   0   18.12    3.63 
   2   5   0   19.15    3.29 
  -7   2   0   18.76    3.70 
   5  -7   0   14.80    3.04 
   7  -2   0   17.99    3.23 
   7  -2   0   15.14    3.29 
  -5   7   0   18.36    3.96 
  -5   7   0   10.81    3.11 
   7  -2   0   18.96    3.16 
   7  -2   0   16.26    3.09 
   5   2   0   12.49    2.94 
   2  -7   0   17.44    2.51 
   5   2   0   20.21    2.39 
  -7   5   0   15.68    4.03 
   2  -7   0   20.61    2.36 
   5   2   0   18.20    3.57 
   2  -7   0   20.00    2.74 
  -2   7   0   20.89    2.95 
   7  -5   0   15.01    3.25 
   7  -5   0   19.67    3.81 
  -2   7   0   19.51    3.67 
   7  -5   0   16.06    2.93 
   7  -5   0   22.01    3.55 
  -8   1   0   44.99    5.23 
   1   7   0   38.01    3.61 
   7  -8   0   40.55    4.90 
   7  -8   0   35.90    5.14 
   1   7   0   41.88    4.73 
   1   7   0   40.12    4.25 
   7  -8   0   34.22    4.54 
  -1  -7   0   36.28    3.40 
   8  -1   0   42.05    4.69 
   8  -1   0   44.18    4.65 
   8  -1   0   43.37    4.49 
  -7   8   0   42.77    4.84 
  -7   8   0   39.25    5.52 
   8  -1   0   40.47    4.65 
   4   4   0   -4.09    2.34 
  -8   4   0   -1.77    3.54 
   4  -8   0    3.60    2.28 
   4   4   0    0.76    1.48 
   4  -8   0    7.47    2.49 
   4   4   0   -0.54    3.07 
   4  -8   0    1.22    2.58 
   4   4   0    0.07    1.28 
   8  -4   0    0.43    3.17 
   8  -4   0    2.10    2.68 
   8  -4   0    3.93    3.47 
  -4   8   0    2.87    3.12 
  -4   8   0    0.98    3.60 
   8  -4   0    1.35    3.14 
   8  -4   0    1.75    3.03 
  -8   7   0   33.52    4.40 
   1  -8   0   38.24    4.17 
   7   1   0   39.90    4.14 
   7   1   0   46.14    4.82 
   7   1   0   38.15    4.60 
  -8   7   0   40.30    5.67 
   7   1   0   43.42    4.37 
   7   1   0   47.85    5.44 
   8  -7   0   35.33    4.91 
   8  -7   0   35.93    4.69 
   8  -7   0   36.65    5.43 
  -7  -1   0   36.39    5.11 
  -1   8   0   43.26    4.58 
   3   6   0    2.42    2.90 
   6  -9   0    1.28    2.77 
   6  -9   0    2.18    3.31 
   3   6   0    2.61    3.21 
   6  -9   0    2.23    3.28 
   3   6   0    1.92    0.92 
  -9   3   0    2.18    3.78 
   9  -3   0    0.43    2.85 
   9  -3   0    1.47    3.46 
   9  -3   0   -2.28    2.81 
   9  -3   0   -0.18    2.54 
  -6   9   0   -3.47    4.07 
  -6   9   0    4.05    3.37 
   9  -3   0    0.57    3.10 
  -9   6   0    2.50    4.20 
   6   3   0   -0.62    2.70 
   3  -9   0    6.38    2.32 
   3  -9   0    0.08    2.11 
   6   3   0   -1.49    2.07 
   6   3   0    1.80    1.87 
   6   3   0    4.65    3.60 
   3  -9   0    0.84    2.47 
   6   3   0    4.20    2.18 
  -3   9   0    1.41    2.41 
  -3   9   0   -1.59    3.85 
   9  -6   0    6.12    3.68 
   9  -6   0    3.23    3.42 
   9  -6   0    2.53    2.84 
   9  -6   0    5.74    3.62 
   9  -6   0   -1.24    3.78 
  -9   9   0   75.40    7.79 
  -9   9   0   91.73    8.64 
   0  -9   0   82.99    7.04 
   9   0   0   80.24    7.77 
   9   0   0   87.18    7.74 
   9   0   0   77.51    8.08 
   9   0   0   86.45    7.91 
   9   0   0   81.32    7.92 
   0   9   0   86.80    7.70 
   9  -9   0   71.36    8.47 
  -9   0   0   84.35    8.43 
   0   9   0   81.57    7.80 
   9  -9   0   78.36    8.08 
   9  -9   0   88.89    8.26 
   8 -10   0    0.09    3.27 
   8 -10   0    0.62    3.47 
   8 -10   0    4.27    3.32 
   2   8   0    3.08    2.56 
 -10   2   0    4.43    4.25 
   2   8   0    2.09    3.20 
   2   8   0    4.14    0.94 
  10  -2   0    1.28    3.46 
  10  -2   0    1.57    2.99 
  10  -2   0    2.79    3.22 
  -8  10   0    0.49    3.59 
  10  -2   0    4.47    3.35 
  10  -2   0    8.65    3.42 
   5   5   0   19.17    2.15 
   5   5   0   14.87    3.13 
   5   5   0   12.83    1.95 
   5 -10   0   21.69    3.43 
   5   5   0   17.59    4.22 
 -10   5   0   17.71    4.81 
   5 -10   0    9.55    3.24 
   5   5   0   11.35    2.15 
   5 -10   0   10.76    3.04 
  10  -5   0   12.41    3.58 
  10  -5   0   10.94    4.04 
  10  -5   0   14.27    3.24 
  -5  10   0   15.49    4.68 
  10  -5   0   16.32    4.43 
  10  -5   0   15.97    4.07 
   8   2   0    2.08    2.48 
   8   2   0    6.84    2.37 
   8   2   0    3.50    2.79 
   8   2   0    5.52    4.05 
 -10   8   0    7.85    4.38 
   8   2   0    0.36    3.38 
   2 -10   0   13.22    2.14 
   2 -10   0    3.86    2.04 
   2 -10   0    5.73    2.18 
   8   2   0    1.11    2.98 
  -2  10   0    3.59    2.04 
  10  -8   0    2.34    4.14 
  -2  10   0    3.11    2.65 
  10  -8   0    8.12    4.01 
  10  -8   0   -2.09    3.76 
  -8  -2   0    9.16    4.00 
  10 -11   0   26.74    4.83 
  10 -11   0   12.68    4.54 
  10 -11   0   26.33    4.18 
 -11   1   0   28.36    5.11 
   1  10   0   29.97    3.68 
   1  10   0   25.04    4.53 
 -10  11   0   27.63    5.61 
  11  -1   0   28.56    4.37 
  11  -1   0   21.59    4.25 
  11  -1   0   22.52    3.99 
  11  -1   0   20.05    4.36 
  11  -1   0   29.18    3.93 
   4   7   0    5.41    3.78 
   4   7   0    3.58    3.06 
   7 -11   0    3.61    2.92 
 -11   4   0    2.35    4.08 
   7 -11   0   -1.22    3.38 
   4   7   0    2.77    0.90 
   7 -11   0    0.07    3.52 
  -7  11   0    9.62    4.68 
  11  -4   0   -0.02    4.25 
  11  -4   0    2.79    3.78 
  11  -4   0    1.38    3.66 
  11  -4   0    2.54    3.63 
  11  -4   0    4.97    3.19 
   7   4   0    7.58    2.11 
   7   4   0    2.86    1.94 
   7   4   0    0.58    2.58 
 -11   7   0   -0.62    4.61 
   7   4   0    1.55    2.29 
   4 -11   0    3.37    2.81 
   7   4   0   -0.13    4.15 
   7   4   0    2.64    1.84 
   4 -11   0    9.13    2.83 
   4 -11   0    5.78    2.42 
   7   4   0    1.53    2.82 
  -4  11   0    3.20    4.28 
  11  -7   0   -1.17    4.09 
  -4  11   0    1.57    2.14 
  11  -7   0   12.24    4.12 
  11  -7   0   -0.08    3.11 
  11  -7   0    3.37    3.44 
  11  -7   0    2.33    4.00 
 -11  10   0   23.16    5.42 
   1 -11   0   23.88    2.88 
  10   1   0   20.32    4.29 
  10   1   0   27.35    3.79 
  10   1   0   28.73    3.55 
  10   1   0   21.14    4.18 
  10   1   0   20.09    4.07 
   1 -11   0   29.75    3.04 
  11 -10   0   20.66    4.36 
 -10  -1   0   28.74    5.12 
  11 -10   0   25.23    4.57 
  -1  11   0   28.11    4.04 
  11 -10   0   23.67    5.15 
   9 -12   0    0.45    3.68 
   3   9   0   -0.63    3.56 
   9 -12   0    1.46    3.35 
   3   9   0    4.51    3.04 
 -12   3   0    0.10    4.10 
   9 -12   0   -0.34    3.35 
   3   9   0   -1.10    1.57 
  12  -3   0    1.30    3.28 
  12  -3   0    3.03    3.53 
  12  -3   0    3.02    3.61 
  12  -3   0    1.75    3.78 
  -9  12   0   -2.82    3.71 
  12  -3   0    1.55    3.51 
   6 -12   0   33.31    4.92 
   6   6   0   47.12    5.06 
 -12   6   0   39.66    6.01 
   6   6   0   35.67    3.63 
   6   6   0   33.15    3.69 
   6   6   0   46.01    5.85 
   6 -12   0   45.15    4.98 
   6   6   0   35.46    3.85 
   6 -12   0   43.00    4.51 
  12  -6   0   42.55    5.53 
  12  -6   0   42.35    5.08 
  12  -6   0   36.00    5.17 
  12  -6   0   33.20    5.03 
  -6  12   0   44.44    6.19 
  12  -6   0   32.21    5.79 
   3 -12   0   -1.88    2.25 
   9   3   0    3.55    2.29 
   9   3   0    1.06    3.10 
   9   3   0    1.19    3.12 
   9   3   0    1.50    2.67 
   3 -12   0    8.23    2.55 
   3 -12   0    2.18    2.17 
 -12   9   0   -1.96    4.49 
   9   3   0    2.71    2.17 
  12  -9   0   -1.95    4.05 
  -3  12   0   -1.77    2.36 
  -9  -3   0    3.60    4.14 
  12  -9   0    1.55    4.26 
  12  -9   0   -2.15    4.12 
  12  -9   0    1.72    3.30 
  12   0   0   17.62    3.90 
 -12  12   0    9.23    4.96 
  12   0   0   12.16    3.34 
  12   0   0   13.83    3.45 
  12   0   0   17.59    3.97 
  12   0   0   12.64    3.86 
  12 -12   0    9.89    4.78 
 -12   0   0   11.66    4.64 
  12 -12   0   16.01    4.14 
   0  12   0   17.02    3.28 
   0  12   0    2.27    2.53 
  12 -12   0   10.27    3.78 
   0  12   0   22.61    4.04 
 -13   2   0   -0.55    4.38 
  11 -13   0    1.92    3.20 
   2  11   0   -1.57    3.33 
   2  11   0   -1.57    2.20 
  11 -13   0    5.09    3.78 
  11 -13   0   -1.39    3.88 
   2  11   0    5.43    3.07 
  13  -2   0   -0.47    3.23 
 -11  13   0    2.03    4.79 
  13  -2   0    0.94    3.75 
  13  -2   0    2.09    3.39 
  13  -2   0  -11.45    3.65 
  13  -2   0   -2.26    3.25 
   5   8   0   16.62    4.47 
 -13   5   0   17.96    4.91 
   5   8   0   15.58    3.27 
   8 -13   0    9.42    3.77 
   8 -13   0    8.94    3.36 
   8 -13   0   12.32    3.99 
  13  -5   0   18.53    4.18 
  13  -5   0   19.11    4.37 
  -8  13   0   17.88    5.28 
  13  -5   0   10.57    3.80 
  13  -5   0   12.23    3.63 
  13  -5   0   12.79    4.49 
   8   5   0   14.95    2.20 
   8   5   0   13.00    2.24 
   5 -13   0   16.64    3.32 
   8   5   0   19.75    3.84 
   5 -13   0   17.36    3.20 
   5 -13   0   14.59    2.81 
   8   5   0   -1.59    2.76 
 -13   8   0    3.84    4.91 
   8   5   0   10.59    2.46 
   8   5   0   15.70    4.86 
  -5  13   0   12.89    2.43 
  13  -8   0   14.73    3.79 
  13  -8   0   10.96    4.65 
  13  -8   0    7.18    4.51 
  13  -8   0   17.55    3.98 
  13  -8   0   10.62    4.05 
  11   2   0    3.31    2.55 
  11   2   0   -4.54    3.28 
  11   2   0    1.52    3.16 
  11   2   0    1.95    2.53 
  11   2   0   -1.49    2.78 
 -13  11   0   -0.47    4.69 
  13 -11   0    3.05    4.38 
  -2  13   0   -3.32    2.66 
 -11  -2   0   -0.08    4.41 
  -2  13   0   -0.89    2.16 
  13 -11   0    2.17    3.85 
  13 -11   0   -1.33    3.60 
   1  13   0   -5.25    2.67 
   1  13   0   -1.20    2.76 
 -14   1   0    3.99    4.48 
  13 -14   0    0.91    3.89 
  13 -14   0    5.63    4.12 
   1  13   0    1.30    3.79 
  13 -14   0    6.46    3.88 
  14  -1   0   -0.99    3.67 
  14  -1   0   -7.05    3.66 
 -13  14   0    2.51    5.12 
  14  -1   0   -3.64    3.11 
  14  -1   0    2.70    3.02 
  14  -1   0    0.15    3.37 
 -14   4   0    3.07    4.51 
   4  10   0   22.89    4.48 
  10 -14   0   12.75    4.09 
  10 -14   0   12.75    4.02 
   4  10   0   17.37    3.26 
  10 -14   0   18.95    3.90 
   4  10   0   14.15    3.20 
  14  -4   0   16.46    4.09 
 -10  14   0   15.59    5.22 
  14  -4   0   12.42    3.97 
  14  -4   0    5.97    4.31 
  14  -4   0   10.95    4.15 
  14  -4   0   22.93    4.13 
 -14   7   0   25.60    4.94 
   7 -14   0   29.74    4.39 
   7   7   0   32.41    5.46 
   7 -14   0   30.20    4.54 
   7   7   0   28.07    3.93 
   7 -14   0   28.78    4.02 
   7   7   0   24.79    4.18 
  14  -7   0   24.75    4.93 
  -7  14   0   29.71    5.73 
  14  -7   0   20.12    4.55 
  14  -7   0   23.51    5.06 
  14  -7   0   31.85    5.99 
  14  -7   0   29.51    5.25 
  10   4   0   16.37    3.74 
  10   4   0   11.42    2.57 
  10   4   0   18.03    3.11 
 -14  10   0   20.27    5.25 
   4 -14   0   15.53    2.92 
  10   4   0   18.19    3.97 
   4 -14   0   20.64    3.33 
  14 -10   0   12.42    4.90 
  14 -10   0   15.32    4.23 
 -10  -4   0   21.66    4.88 
  14 -10   0   21.12    4.81 
  14 -10   0   13.83    4.89 
  -4  14   0   13.64    2.96 
  13   1   0    4.87    2.74 
  13   1   0    4.92    2.68 
  13   1   0   -0.55    3.52 
  13   1   0   -0.67    3.38 
  13   1   0   -2.68    2.95 
 -14  13   0    3.82    4.82 
  14 -13   0   -4.55    3.43 
  -1  14   0    3.33    3.10 
  -1  14   0    4.39    2.53 
 -13  -1   0   -0.52    4.31 
  -1  14   0   -1.18    2.52 
  14 -13   0    4.59    4.25 
  14 -13   0    2.86    4.05 
 -15   3   0   10.11    4.66 
   3  12   0    7.21    3.86 
  12 -15   0    7.88    3.42 
   3  12   0    6.97    3.17 
  12 -15   0    7.50    4.10 
   3  12   0   12.34    3.33 
  12 -15   0    8.78    4.22 
  15  -3   0   12.45    4.60 
 -12  15   0    5.16    5.25 
  15  -3   0    5.02    3.57 
  15  -3   0    5.43    3.60 
  15  -3   0    9.26    3.94 
  15  -3   0    9.26    3.64 
   6   9   0   76.32    7.58 
   9 -15   0   66.80    7.75 
 -15   6   0   66.03    8.31 
   9 -15   0   74.83    7.39 
   6   9   0   84.16    8.27 
   9 -15   0   73.62    7.68 
   6   9   0   68.99    7.04 
  15  -6   0   74.76    7.69 
  -9  15   0   71.00    8.46 
  15  -6   0   65.54    7.93 
  15  -6   0   78.70    7.99 
  15  -6   0   65.61    7.64 
  15  -6   0   74.63    8.73 
   9   6   0   72.74    7.04 
   6 -15   0   67.66    6.74 
   6 -15   0   69.89    7.02 
   9   6   0   63.03    7.13 
   6 -15   0   67.83    7.37 
 -15   9   0   69.14    8.21 
  15  -9   0   67.89    7.68 
  15  -9   0   70.97    7.48 
  15  -9   0   56.78    8.23 
  15  -9   0   64.02    7.05 
  15  -9   0   71.92    7.90 
  12   3   0   10.82    3.46 
  12   3   0    9.78    3.85 
 -15  12   0    5.49    5.27 
  15 -12   0   -1.45    4.18 
  15 -12   0    1.56    3.69 
  15 -12   0   12.64    4.65 
  -3  15   0   10.57    3.14 
  -3  15   0    5.54    2.33 
  15 -12   0    3.90    4.13 
 -12  -3   0    7.46    4.45 
  15   0   0    1.54    2.67 
  15   0   0   -0.31    2.77 
  15   0   0    2.79    3.21 
  15   0   0    2.18    3.84 
 -15  15   0   -4.33    5.36 
  15   0   0    4.75    3.86 
  15 -15   0   -2.44    4.68 
 -15   0   0   -5.07    3.54 
   0  15   0    0.95    2.68 
  15 -15   0   -3.19    3.87 
   0  15   0   -2.44    2.67 
  15 -15   0    1.73    4.11 
 -16   2   0   11.60    4.74 
   2  14   0   13.37    3.21 
  14 -16   0    2.45    4.77 
  14 -16   0    6.47    4.11 
  14 -16   0   10.10    4.15 
   2  14   0    8.91    3.30 
  16  -2   0    8.54    4.15 
 -14  16   0    0.84    5.48 
  16  -2   0    9.17    3.47 
  16  -2   0    9.31    4.00 
  16  -2   0   12.19    3.96 
  16  -2   0    8.89    3.46 
  11 -16   0    3.51    3.57 
   5  11   0   -2.38    3.07 
  11 -16   0    8.93    4.03 
   5  11   0   -0.27    2.99 
  11 -16   0    2.13    3.37 
 -16   5   0    6.00    4.94 
  16  -5   0   -1.65    3.90 
  16  -5   0    4.41    3.83 
 -11  16   0   -0.64    5.22 
  16  -5   0    3.30    3.34 
  16  -5   0    4.75    4.73 
  16  -5   0    3.01    3.39 
   8   8   0    7.48    3.10 
 -16   8   0    5.98    5.10 
   8 -16   0    1.79    3.19 
   8   8   0    1.45    3.45 
   8 -16   0    3.11    2.80 
   8 -16   0    7.87    3.48 
  16  -8   0    4.29    3.38 
  16  -8   0    8.00    3.79 
  16  -8   0    2.23    3.75 
  16  -8   0    4.69    4.68 
  16  -8   0    0.43    4.44 
  -8  16   0    3.56    4.71 
  11   5   0    4.32    3.28 
 -16  11   0   -0.56    4.87 
  11   5   0    2.11    3.55 
 -11  -5   0    2.47    4.39 
  16 -11   0    4.11    4.65 
  16 -11   0   -1.22    4.17 
  16 -11   0    4.06    5.07 
  16 -11   0    8.46    4.69 
  14   2   0    4.13    3.91 
  14   2   0   10.49    3.62 
 -16  14   0    4.03    4.98 
 -14  -2   0    5.64    4.82 
  16 -14   0    6.67    4.45 
  16 -14   0    5.87    4.56 
  16 -14   0   11.81    3.94 
  -2  16   0   12.79    2.70 
   1  16   0    4.19    2.51 
  16 -17   0    0.03    4.19 
 -17   1   0    9.92    4.92 
  16 -17   0    1.69    4.20 
   1  16   0    7.73    3.26 
 -17   1   0    9.32    3.33 
  17  -1   0   10.43    4.32 
 -16  17   0    8.88    5.75 
  17  -1   0   13.74    3.84 
  17  -1   0    6.50    3.16 
 -16  17   0    9.72    2.79 
 -16  17   0   10.54    3.37 
  17  -1   0    8.21    3.40 
 -16  17   0   10.47    3.85 
   4  13   0   70.44    6.69 
 -17   4   0   63.41    8.06 
  13 -17   0   58.63    7.91 
   4  13   0   72.36    7.05 
  13 -17   0   67.27    7.76 
  13 -17   0   62.61    7.03 
  17  -4   0   72.17    7.46 
  17  -4   0   50.50    7.35 
  17  -4   0   59.66    7.16 
  17  -4   0   65.33    7.21 
  17  -4   0   72.42    7.92 
 -13  17   0   62.70    8.44 
  10 -17   0   66.56    7.72 
   7  10   0   67.01    7.05 
  10 -17   0   56.01    7.00 
   7  10   0   68.46    7.14 
  10 -17   0   78.48    7.69 
 -17   7   0   64.55    8.48 
 -10  17   0   75.77    8.57 
  17  -7   0   70.58    7.53 
  17  -7   0   73.61    7.79 
  17  -7   0   65.64    8.36 
  17  -7   0   70.15    7.60 
  17  -7   0   74.80    7.86 
  10   7   0   56.01    6.64 
 -17  10   0   59.79    7.96 
  10   7   0   69.52    6.90 
  17 -10   0   64.51    7.26 
  17 -10   0   65.04    7.86 
 -10  -7   0   70.12    7.84 
  17 -10   0   65.14    8.45 
  17 -10   0   56.42    7.62 
 -17  13   0   59.58    8.18 
  13   4   0   58.34    7.08 
  13   4   0   75.71    7.37 
  17 -13   0   73.82    8.05 
 -13  -4   0   61.15    7.89 
  17 -13   0   63.58    7.60 
  17 -13   0   54.67    7.71 
 -17  16   0    6.44    5.55 
  16   1   0    8.49    3.71 
 -17  16   0    3.39    3.70 
 -17  16   0    8.18    3.31 
  16   1   0    4.63    4.02 
  17 -16   0    5.87    4.39 
  17 -16   0    6.84    4.33 
  17 -16   0    6.23    2.58 
 -16  -1   0    2.33    4.77 
   3  15   0   12.11    3.12 
 -18   3   0    8.07    3.31 
  15 -18   0   -0.88    3.80 
 -18   3   0    3.16    5.01 
  15 -18   0    4.89    4.16 
   3  15   0   16.27    3.64 
  18  -3   0    6.21    4.12 
 -15  18   0    7.38    3.84 
  18  -3   0    9.79    3.78 
 -15  18   0    9.44    2.86 
 -15  18   0   11.72    5.67 
  18  -3   0    7.07    3.57 
  18  -3   0    9.15    3.75 
  18  -3   0    1.80    4.04 
 -15  18   0    5.36    3.58 
   6  12   0   29.90    4.31 
  12 -18   0   32.37    5.45 
  12 -18   0   34.35    4.70 
 -18   6   0   16.59    6.08 
  12 -18   0   26.83    5.05 
   6  12   0   43.15    5.00 
  18  -6   0   21.29    5.36 
 -12  18   0   29.70    6.41 
  18  -6   0   27.78    5.14 
  18  -6   0   25.71    5.04 
  18  -6   0   22.05    4.93 
  18  -6   0   26.67    4.82 
 -18   9   0   27.72    6.26 
   9 -18   0   33.69    4.77 
   9   9   0   39.07    4.63 
   9   9   0   33.66    4.54 
  18  -9   0   15.10    4.87 
  -9  18   0   31.75    6.05 
  18  -9   0   31.75    5.25 
  18  -9   0   16.61    5.22 
  18  -9   0   16.77    4.46 
  18  -9   0   28.00    5.85 
 -18  12   0   27.57    6.10 
  12   6   0   24.85    4.51 
  12   6   0   30.71    4.77 
  18 -12   0   26.59    5.56 
  18 -12   0   20.69    5.17 
  18 -12   0   25.97    5.78 
 -12  -6   0   36.82    5.70 
  15   3   0   14.43    4.38 
 -18  15   0    9.51    3.27 
 -18  15   0    9.70    3.89 
  15   3   0    9.65    4.08 
 -18  15   0   11.85    5.20 
 -15  -3   0    6.88    4.92 
  18 -15   0    1.13    4.48 
  18 -15   0    2.72    4.33 
  18 -15   0    3.30    2.63 
  18 -15   0    7.25    4.76 
  18   0   0    5.59    4.02 
 -18  18   0    4.27    3.88 
 -18  18   0    9.81    2.90 
  18   0   0    6.01    4.35 
 -18  18   0   -1.96    3.81 
 -18  18   0    3.12    5.51 
 -18   0   0    2.79    3.44 
  18 -18   0    8.30    3.05 
   0  18   0    5.79    3.18 
   0  18   0    6.95    2.36 
 -18   0   0    5.53    4.88 
  18 -18   0    5.74    4.51 
  18 -18   0   10.62    4.10 
  17 -19   0    1.50    2.46 
   2  17   0   -3.97    2.85 
 -19   2   0    1.79    3.29 
 -19   2   0   -5.57    4.93 
  17 -19   0   -4.85    4.50 
  17 -19   0   -1.04    3.56 
 -17  19   0    1.48    4.07 
 -17  19   0   -3.33    5.33 
 -17  19   0    0.47    3.73 
  19  -2   0   -0.51    3.85 
  19  -2   0    0.77    4.34 
 -17  19   0   -0.82    2.73 
   5  14   0   22.94    4.07 
  14 -19   0   11.68    4.82 
  14 -19   0    8.42    3.57 
  14 -19   0   10.29    4.71 
 -19   5   0   14.86    3.64 
   5  14   0   21.26    3.80 
 -19   5   0   17.75    5.52 
 -14  19   0   14.46    5.66 
  19  -5   0   15.91    4.40 
  19  -5   0   17.51    4.29 
 -14  19   0   16.58    4.03 
  19  -5   0   11.44    4.46 
 -14  19   0   11.71    3.86 
  19  -5   0   15.24    4.55 
 -14  19   0   18.10    3.15 
   8  11   0   30.35    4.62 
   8  11   0   22.53    4.20 
 -19   8   0   34.52    4.30 
  11 -19   0   22.93    4.85 
 -19   8   0   20.78    6.18 
  11 -19   0   21.82    4.21 
  19  -8   0   23.84    5.31 
 -11  19   0   24.61    6.22 
  19  -8   0   14.50    4.77 
  19  -8   0   28.85    5.20 
  19  -8   0   24.91    5.06 
 -11  19   0   29.63    3.82 
 -11  19   0   27.52    4.12 
 -19  11   0   29.23    4.59 
  11   8   0   22.56    4.37 
 -19  11   0   20.90    6.05 
  11   8   0   29.05    4.44 
  19 -11   0   28.34    3.66 
  -8  19   0   27.74    3.93 
  19 -11   0   27.94    5.30 
 -11  -8   0   32.23    5.89 
  19 -11   0   21.38    5.52 
  -8  19   0   28.33    3.50 
  19 -11   0   21.67    5.49 
  14   5   0   10.66    4.22 
 -19  14   0   23.62    4.61 
 -19  14   0   15.36    5.62 
 -19  14   0   17.66    3.99 
  14   5   0   23.07    4.53 
  -5  19   0   18.26    3.59 
  19 -14   0   15.02    4.39 
  19 -14   0   12.60    5.04 
  19 -14   0   10.22    4.83 
 -14  -5   0    9.40    4.99 
  19 -14   0   22.15    3.23 
 -19  17   0    6.28    5.45 
  17   2   0    1.90    3.59 
  17   2   0   -5.14    3.91 
 -19  17   0   -0.71    2.65 
 -19  17   0   -6.04    3.65 
 -19  17   0   -3.12    3.19 
  -2  19   0    2.45    2.45 
 -17  -2   0    4.33    5.10 
  19 -17   0   -7.66    4.21 
  19 -17   0   -2.32    4.82 
  19 -17   0    8.01    4.82 
  19 -17   0   -0.32    2.90 
 -20   1   0   -7.16    4.62 
  19 -20   0   -3.85    4.11 
 -20   1   0    1.12    3.39 
  19 -20   0    4.23    2.67 
   1  19   0   -0.30    2.82 
  19 -20   0   -4.42    4.65 
 -19  20   0   -5.65    3.93 
 -19  20   0    1.75    4.24 
 -19  20   0    0.54    5.32 
 -19  20   0   -0.52    2.82 
  20  -1   0   -4.15    4.03 
   4  16   0   22.06    4.42 
  16 -20   0   13.42    3.93 
  16 -20   0   14.72    2.78 
 -20   4   0   16.87    3.75 
 -20   4   0   11.29    5.29 
   4  16   0   14.20    3.50 
  16 -20   0    7.27    4.73 
 -16  20   0   14.44    4.01 
  20  -4   0   18.81    2.88 
 -16  20   0   14.32    3.25 
 -16  20   0   14.02    4.11 
  20  -4   0    7.53    3.81 
 -16  20   0    6.61    5.85 
  20  -4   0    7.31    4.42 
  20  -4   0   14.31    4.11 
  20  -4   0   13.46    3.90 
 -20   7   0   65.32    9.13 
   7  13   0   88.99    7.95 
 -20   7   0   71.57    7.59 
  13 -20   0   77.13    8.48 
  13 -20   0   59.73    7.60 
   7  13   0   88.92    7.94 
  20  -7   0   72.39    8.22 
  20  -7   0   73.54    7.15 
 -13  20   0   69.72    7.00 
 -13  20   0   67.37    7.74 
 -13  20   0   75.93    9.28 
 -13  20   0   70.88    8.01 
  20  -7   0   82.62    8.56 
  20  -7   0   79.41    8.00 
 -20  10   0   79.68    9.09 
  10  10   0  105.43    9.19 
  10  10   0   92.09    8.72 
 -20  10   0   96.36   10.16 
 -10  20   0   88.30    7.94 
  20 -10   0   90.22    9.43 
  20 -10   0   83.75    8.09 
 -10  20   0   81.39    8.39 
  20 -10   0   96.29    9.75 
 -10  20   0   71.40    8.38 
  20 -10   0  110.58    9.72 
  13   7   0   80.70    7.38 
 -20  13   0   52.42    8.44 
  13   7   0   78.36    7.84 
 -20  13   0   71.72    7.23 
 -20  13   0   66.07    7.38 
 -13  -7   0   75.06    8.19 
  -7  20   0   67.47    6.25 
  20 -13   0   69.34    8.30 
  20 -13   0   61.26    6.58 
  20 -13   0   48.08    7.93 
  20 -13   0   78.40    8.19 
  -7  20   0   65.55    6.99 
  -7  20   0   62.28    6.77 
 -20  16   0   13.10    5.56 
 -20  16   0   19.23    4.21 
 -20  16   0   15.49    3.06 
 -20  16   0   16.00    4.24 
  16   4   0   17.69    4.28 
  16   4   0   10.78    4.16 
 -16  -4   0   14.00    5.30 
  20 -16   0   14.76    4.44 
  20 -16   0   12.56    4.87 
  20 -16   0   16.03    3.49 
  -4  20   0   19.52    2.64 
  20 -16   0   11.33    5.19 
  -4  20   0   15.81    3.22 
 -20  19   0   -1.24    3.93 
 -20  19   0   -1.45    2.75 
 -20  19   0   -1.60    5.08 
 -20  19   0   -3.00    3.74 
  19   1   0    9.23    4.44 
  20 -19   0    0.27    3.09 
 -19  -1   0    2.93    5.12 
  20 -19   0   -3.43    4.26 
  20 -19   0    3.78    4.96 
 -19  -1   0    3.46    3.45 
  20 -19   0   -1.67    4.55 
  -1  20   0    1.71    2.45 
 -21   3   0    4.40    3.85 
  18 -21   0    0.99    4.67 
  18 -21   0    0.20    2.48 
   3  18   0    4.96    3.41 
  18 -21   0    8.19    4.17 
 -21   3   0   -3.91    4.92 
 -18  21   0   -0.18    4.09 
  21  -3   0    4.48    5.08 
 -18  21   0    8.39    4.00 
 -18  21   0   -1.41    5.27 
 -18  21   0    6.75    2.99 
   6  15   0    5.92    3.28 
  15 -21   0    8.36    4.55 
 -21   6   0   13.41    3.74 
  15 -21   0    7.92    3.78 
   6  15   0    3.39    3.62 
 -21   6   0    7.03    5.52 
 -15  21   0   12.74    3.04 
  21  -6   0    9.19    4.36 
  21  -6   0   10.55    3.98 
 -15  21   0    7.39    3.75 
 -15  21   0    8.17    3.50 
  21  -6   0    7.53    4.02 
 -15  21   0    5.83    5.53 
  21  -6   0    3.39    4.26 
  21  -6   0   12.81    2.83 
   9  12   0   15.75    4.12 
   9  12   0   18.21    3.75 
 -21   9   0   16.98    4.00 
 -21   9   0    1.14    5.57 
  21  -9   0    9.64    4.04 
  21  -9   0   13.12    4.71 
  21  -9   0   10.94    4.04 
  21  -9   0   15.96    3.01 
 -12  21   0   16.18    3.76 
 -12  21   0   17.54    3.07 
 -12  21   0   15.75    3.56 
 -12  21   0   12.92    5.57 
  21  -9   0    8.89    4.62 
  12   9   0   15.94    3.90 
  12   9   0   12.44    3.77 
 -21  12   0   11.73    3.64 
 -21  12   0    9.38    5.42 
 -21  12   0   11.89    3.12 
 -21  12   0   16.31    4.23 
  21 -12   0   14.82    4.83 
  -9  21   0   15.74    3.06 
  -9  21   0   11.77    3.43 
 -12  -9   0   21.92    5.54 
  21 -12   0   14.27    3.36 
  -9  21   0   14.15    3.89 
  21 -12   0   13.91    4.60 
  21 -12   0   10.69    4.87 
 -21  15   0    1.01    5.18 
 -21  15   0   11.63    4.05 
  15   6   0    7.97    3.95 
  15   6   0    3.81    3.74 
 -21  15   0    8.10    3.85 
 -15  -6   0    7.13    5.04 
  21 -15   0    5.27    4.86 
  21 -15   0    8.02    2.91 
  21 -15   0    9.24    4.27 
  21 -15   0    0.92    4.19 
  -6  21   0    7.67    2.33 
  -6  21   0   16.76    3.38 
 -21  18   0    1.73    3.07 
  18   3   0    3.28    3.86 
 -21  18   0   -0.56    3.98 
 -21  18   0   -0.25    3.73 
 -21  18   0   -7.14    5.09 
  21 -18   0    1.32    4.69 
  -3  21   0    2.17    2.65 
  21 -18   0   -0.82    3.93 
 -18  -3   0    1.55    3.80 
 -18  -3   0    2.89    5.66 
  21 -18   0    1.19    4.97 
  21 -18   0    2.07    2.78 
 -21  21   0    4.13    4.23 
 -21  21   0    8.91    4.10 
 -21  21   0    0.60    2.82 
  21   0   0   -0.46    4.37 
 -21  21   0   -6.27    5.38 
  21 -21   0    3.83    2.91 
  21 -21   0   -3.54    4.68 
 -21   0   0   -2.00    5.40 
 -21   0   0   -3.57    3.82 
  21 -21   0    2.52    4.90 
  20 -22   0    0.28    2.93 
  20 -22   0   -5.40    4.55 
 -22   2   0    5.21    3.61 
 -22   2   0   -0.07    5.16 
   2  20   0   -3.03    2.97 
 -20  22   0    6.48    6.30 
 -20  22   0    2.79    3.67 
  22  -2   0    9.46    4.80 
 -20  22   0    2.15    3.35 
 -20  22   0    3.94    4.21 
   5  17   0   -0.03    3.39 
  17 -22   0   -1.07    2.60 
 -22   5   0   -0.52    3.64 
 -22   5   0    5.96    5.38 
  17 -22   0   -1.18    3.59 
  17 -22   0   -2.11    4.52 
  22  -5   0    3.40    4.87 
 -17  22   0    2.74    3.91 
 -17  22   0   -7.62    5.00 
 -17  22   0   -0.72    3.67 
  22  -5   0    0.74    2.39 
 -17  22   0   -0.43    2.77 
  22  -5   0    1.87    3.60 
   8  14   0    6.30    4.10 
 -22   8   0    6.56    3.74 
 -22   8   0    6.54    6.32 
   8  14   0    9.99    3.60 
 -14  22   0   10.38    5.56 
  22  -8   0    7.40    4.10 
 -14  22   0    8.27    3.44 
  22  -8   0    1.19    3.65 
  22  -8   0    7.06    2.60 
  22  -8   0    4.28    4.27 
 -14  22   0    5.48    2.78 
  22  -8   0    6.14    4.42 
 -14  22   0    6.29    3.99 
 -22  11   0   25.29    4.10 
 -22  11   0   23.12    4.59 
  11  11   0   20.38    4.06 
 -22  11   0   17.80    5.92 
  11  11   0   22.24    4.43 
 -11  22   0   23.99    4.17 
 -11  22   0   22.98    3.26 
 -11 -11   0   22.15    5.57 
  22 -11   0   19.97    5.31 
  22 -11   0   22.93    5.35 
  22 -11   0   14.08    3.28 
  22 -11   0   23.54    5.14 
 -11  22   0   11.29    3.75 
 -22  14   0   12.03    3.81 
 -22  14   0    5.19    4.13 
  14   8   0    6.70    3.59 
 -22  14   0   10.80    5.57 
 -22  14   0    5.97    2.79 
  22 -14   0    6.07    4.75 
  -8  22   0    4.37    3.40 
  22 -14   0    8.82    2.95 
  -8  22   0    8.09    2.50 
  22 -14   0    0.91    4.44 
  -8  22   0   11.53    3.62 
  22 -14   0    4.39    4.29 
 -14  -8   0    5.17    4.82 
  17   5   0   -0.52    3.76 
 -22  17   0   -4.10    4.98 
 -22  17   0   -0.73    4.02 
 -22  17   0   -1.88    3.43 
  22 -17   0    1.39    5.38 
 -17  -5   0    8.10    5.73 
  22 -17   0    3.75    4.60 
  22 -17   0    5.20    5.16 
  -5  22   0    4.55    2.83 
  22 -17   0    2.83    2.86 
  -5  22   0    2.53    2.29 
 -22  20   0   -1.55    3.08 
  20   2   0   -2.97    3.84 
 -22  20   0   -0.08    4.10 
 -22  20   0   -2.27    3.95 
 -22  20   0    2.23    5.58 
  -2  22   0   -0.11    2.47 
 -20  -2   0    4.67    3.63 
 -20  -2   0   -5.32    4.78 
  22 -20   0   -5.13    4.69 
  22 -20   0    0.89    4.79 
  22 -20   0    1.17    2.91 
  22 -23   0    0.09    3.18 
  22 -23   0    2.04    4.96 
  22 -23   0    3.95    4.38 
 -23   1   0   -9.21    5.09 
 -23   1   0    4.24    3.92 
 -22  23   0   -1.30    5.53 
 -22  23   0    1.43    4.40 
  23  -1   0    1.04    4.37 
 -22  23   0    0.55    3.30 
 -22  23   0    0.26    4.27 
   4  19   0    2.36    3.28 
 -23   4   0   -3.83    5.28 
  19 -23   0    0.91    2.81 
  19 -23   0   -4.84    4.25 
 -23   4   0   -2.07    3.69 
  23  -4   0    2.06    4.99 
 -19  23   0    0.20    2.90 
 -19  23   0   -1.25    4.15 
 -19  23   0    5.31    4.12 
 -19  23   0    5.10    5.87 
  16 -23   0    4.19    4.40 
   7  16   0    1.93    3.62 
 -23   7   0    1.68    5.49 
 -23   7   0    1.72    4.24 
  23  -7   0   -1.75    4.18 
 -16  23   0    3.56    2.87 
  23  -7   0    3.09    3.85 
  23  -7   0    1.61    2.39 
 -16  23   0    3.18    5.45 
 -16  23   0    2.55    4.09 
 -16  23   0    7.32    4.09 
  23  -7   0    9.39    4.11 
 -23  10   0   29.18    4.90 
 -23  10   0   15.08    6.30 
  10  13   0   36.01    5.41 
 -13  23   0   36.35    4.93 
  23 -10   0   28.51    5.40 
 -13  23   0   31.15    4.37 
  23 -10   0   21.62    5.21 
 -13  23   0   30.62    3.89 
  23 -10   0   21.18    5.56 
  23 -10   0   27.47    5.40 
  23 -10   0   30.34    4.13 
 -23  13   0   27.81    4.13 
 -23  13   0   33.74    4.72 
  13  10   0   28.39    4.76 
 -23  13   0   14.15    6.00 
 -23  13   0   29.36    5.10 
  23 -13   0   25.49    5.10 
 -10  23   0   21.61    4.45 
  23 -13   0   31.83    3.98 
 -10  23   0   34.98    4.23 
 -10  23   0   30.92    3.71 
  23 -13   0   18.29    5.25 
  23 -13   0   12.02    5.34 
 -13 -10   0   32.48    5.99 
 -23  16   0   10.91    3.79 
  16   7   0    9.03    3.84 
 -23  16   0    7.95    5.39 
 -23  16   0   -1.12    4.16 
  -7  23   0    3.76    2.25 
  23 -16   0    1.83    4.81 
  23 -16   0   -4.21    4.74 
  -7  23   0    2.48    3.17 
 -16  -7   0    1.74    5.04 
  23 -16   0   -0.53    2.90 
 -23  19   0   -2.97    5.30 
 -23  19   0    7.19    3.11 
 -23  19   0    0.19    4.08 
  19   4   0    6.39    4.55 
 -23  19   0    1.16    4.12 
  -4  23   0   -1.31    2.60 
  23 -19   0   -1.63    4.89 
  23 -19   0    0.94    2.99 
 -19  -4   0    1.15    3.86 
 -19  -4   0   -4.13    5.43 
  23 -19   0   -0.56    4.83 
 -23  22   0    4.37    3.87 
 -23  22   0    0.19    2.91 
  22   1   0   -4.14    4.25 
 -23  22   0   -1.63    4.48 
 -23  22   0    4.37    5.86 
 -22  -1   0    3.03    3.59 
  23 -22   0    1.95    2.99 
 -22  -1   0   -0.88    5.19 
  23 -22   0    1.17    4.92 
  23 -22   0   -0.37    4.27 
  21 -24   0    3.46    4.87 
  21 -24   0    4.05    3.03 
 -24   3   0   -8.89    5.34 
 -24   3   0    6.15    3.78 
 -21  24   0   -2.62    4.20 
  24  -3   0    6.40    4.83 
 -21  24   0    3.28    5.84 
 -21  24   0    2.62    3.06 
 -21  24   0    3.41    4.34 
  18 -24   0    1.34    4.62 
   6  18   0    6.80    3.67 
 -24   6   0    4.90    3.92 
 -24   6   0   -0.31    5.69 
 -18  24   0    1.26    3.29 
 -18  24   0    6.65    3.73 
  24  -6   0    3.27    4.78 
 -18  24   0   -0.03    4.21 
 -18  24   0    6.19    5.59 
 -24   9   0    1.80    4.11 
   9  15   0    1.59    3.60 
 -24   9   0   -4.06    5.55 
 -15  24   0   10.39    3.91 
  24  -9   0    3.73    2.66 
 -15  24   0    5.71    5.41 
 -15  24   0    6.61    4.02 
 -15  24   0    1.60    3.16 
  24  -9   0    0.77    4.30 
  24  -9   0    3.50    4.07 
 -24  12   0    1.45    4.70 
 -24  12   0   -1.74    3.32 
 -24  12   0    6.94    5.35 
  12  12   0   -0.35    3.45 
  24 -12   0    0.65    4.02 
 -12 -12   0    8.79    4.95 
 -12  24   0    2.47    3.30 
 -12  24   0    2.46    2.97 
 -12  24   0    4.34    3.29 
  24 -12   0    3.53    3.18 
  24 -12   0    3.81    4.66 
  15   9   0    2.39    3.39 
 -24  15   0    3.21    5.57 
 -24  15   0   -3.35    3.66 
 -24  15   0    5.34    4.28 
 -15  -9   0    2.85    4.92 
  24 -15   0    4.84    3.37 
  -9  24   0   -1.55    3.37 
  -9  24   0    8.02    3.62 
  24 -15   0    2.55    4.73 
  -9  24   0    4.76    2.71 
  24 -15   0    2.16    4.30 
  18   6   0    3.67    3.62 
 -24  18   0   -0.91    4.06 
 -24  18   0    8.70    5.53 
 -24  18   0    1.94    4.20 
 -18  -6   0   -0.30    5.13 
  24 -18   0    2.79    3.38 
  -6  24   0   -2.58    2.89 
  24 -18   0    1.35    4.77 
  24 -18   0    2.73    4.42 
  -6  24   0   -2.15    2.39 
  21   3   0    0.76    3.95 
 -24  21   0    4.77    3.17 
 -24  21   0    9.70    4.49 
 -24  21   0   -0.79    4.15 
 -24  21   0   -1.60    5.33 
  24 -21   0    2.17    5.03 
  -3  24   0    3.97    2.68 
  24 -21   0   -0.27    3.00 
  24 -21   0   -1.88    4.71 
 -21  -3   0    5.72    3.72 
 -21  -3   0   -1.42    5.25 
 -24  24   0    9.10    4.18 
  24   0   0    2.92    4.11 
 -24  24   0    3.86    3.51 
 -24  24   0    8.88    6.64 
 -24  24   0    6.58    4.35 
  24 -24   0    7.17    5.15 
  24 -24   0    3.41    3.48 
 -24   0   0    5.27    3.79 
  24 -24   0   10.80    5.28 
 -24   0   0   -5.27    5.42 
  23 -25   0    1.18    4.72 
  23 -25   0    3.63    2.97 
  23 -25   0    6.14    5.25 
 -25   2   0   -4.58    5.50 
 -25   2   0    3.02    3.86 
 -23  25   0   -2.82    5.73 
  25  -2   0    1.10    5.20 
 -23  25   0    3.13    4.51 
 -23  25   0    7.47    3.29 
 -23  25   0    3.61    4.44 
 -25   5   0   -2.55    5.65 
  20 -25   0    2.27    4.66 
   5  20   0    1.39    3.57 
  20 -25   0    5.84    3.08 
 -25   5   0    1.05    4.25 
 -20  25   0   -1.86    3.63 
 -20  25   0    0.97    6.28 
 -20  25   0   -4.87    3.85 
 -20  25   0   -0.38    3.43 
  25  -5   0    3.82    4.50 
 -25   8   0   -3.32    3.97 
 -25   8   0   -4.69    5.48 
   8  17   0    1.52    3.74 
 -17  25   0   -3.63    5.99 
 -17  25   0   -1.09    2.86 
 -17  25   0    7.08    3.68 
  25  -8   0    2.98    2.53 
  25  -8   0   -1.69    4.18 
  25  -8   0    1.37    3.81 
 -17  25   0    4.50    3.72 
 -25  11   0   -1.77    4.74 
 -25  11   0    2.14    3.27 
  11  14   0    2.77    3.64 
 -25  11   0    6.39    5.55 
 -14  25   0    3.76    3.60 
 -11 -14   0    6.71    4.94 
 -14  25   0   -0.59    3.69 
  25 -11   0    0.22    4.42 
  25 -11   0    7.75    3.22 
 -14  25   0    3.21    3.22 
  25 -11   0    5.25    4.64 
 -25  14   0    0.58    3.26 
 -25  14   0    7.55    5.83 
 -25  14   0    4.40    4.49 
 -25  14   0   -1.31    3.72 
  14  11   0    3.35    3.41 
  25 -14   0    5.13    4.67 
  25 -14   0    7.49    3.40 
 -11  25   0    4.79    3.62 
 -14 -11   0    9.19    5.02 
  25 -14   0    8.17    5.04 
 -11  25   0    5.65    3.40 
 -11  25   0    2.94    2.90 
 -25  17   0    0.46    4.85 
 -25  17   0   -3.78    3.83 
 -25  17   0   -2.93    5.09 
  17   8   0    0.39    3.53 
  -8  25   0    2.48    3.14 
  -8  25   0    3.86    2.55 
  25 -17   0   -0.81    3.34 
  25 -17   0   -6.81    4.71 
 -17  -8   0   -4.28    4.76 
  25 -17   0   -0.94    4.69 
 -25  20   0    6.14    5.49 
  20   5   0   -0.64    3.79 
 -25  20   0   -1.23    4.20 
 -25  20   0   -6.70    4.57 
  25 -20   0    5.64    5.55 
  -5  25   0    4.58    2.71 
 -20  -5   0   -0.28    4.01 
  25 -20   0   -3.65    2.96 
 -20  -5   0   -2.11    5.12 
  25 -20   0   -0.65    4.96 
 -25  23   0    0.53    3.30 
 -25  23   0    4.48    4.66 
 -25  23   0    1.88    4.43 
  23   2   0   -4.25    4.32 
 -25  23   0   -0.25    5.68 
 -23  -2   0   -5.37    6.02 
  25 -23   0   -4.93    4.30 
 -23  -2   0    9.57    4.07 
  25 -23   0    0.35    3.03 
  25 -23   0    4.72    5.23 
 -26   1   0    1.23    4.29 
  25 -26   0    1.58    3.43 
 -25  26   0    9.70    4.57 
 -25  26   0    0.95    3.39 
 -25  26   0    2.85    4.13 
 -26   4   0   -1.08    3.85 
 -26   4   0   -9.76    5.69 
  22 -26   0   -0.75    2.99 
  22 -26   0    1.03    4.69 
 -22  26   0    1.18    5.89 
  26  -4   0    7.80    5.46 
 -22  26   0   -0.68    3.15 
 -22  26   0    3.29    4.36 
 -22  26   0    6.37    4.58 
 -26   7   0   -4.27    5.94 
   7  19   0    3.64    3.52 
 -26   7   0   -3.50    3.97 
  26  -7   0   -1.81    4.67 
 -19  26   0    3.67    3.15 
 -19  26   0    3.65    5.67 
 -19  26   0   -0.05    3.77 
 -19  26   0    1.76    4.19 
  10  16   0   -0.05    3.59 
 -26  10   0   -7.39    6.00 
 -26  10   0   -1.67    4.78 
  26 -10   0    2.69    2.71 
 -16  26   0    8.40    3.96 
  26 -10   0    5.56    4.36 
 -16  26   0    5.81    3.79 
 -16  26   0    3.84    2.93 
  26 -10   0   -1.83    4.36 
  13  13   0    7.46    3.84 
 -26  13   0    9.12    3.65 
 -26  13   0   10.31    5.70 
 -26  13   0    9.46    4.67 
  26 -13   0    9.14    3.19 
 -13  26   0    7.29    3.89 
  26 -13   0    6.32    5.01 
 -13 -13   0    3.13    4.91 
 -13  26   0    7.25    3.57 
  26 -13   0    7.07    5.30 
 -13  26   0   10.21    2.93 
  16  10   0    2.26    3.64 
 -26  16   0   -4.27    4.86 
 -26  16   0    0.07    5.41 
 -26  16   0    1.94    3.86 
  26 -16   0    0.01    4.48 
  26 -16   0    1.88    3.08 
 -10  26   0   -5.96    3.24 
 -10  26   0    1.34    2.40 
  26 -16   0    5.11    5.20 
 -16 -10   0    1.88    5.18 
  19   7   0   -2.40    3.40 
 -26  19   0   -2.42    4.30 
 -26  19   0   -1.03    4.16 
 -26  19   0    2.70    5.70 
  -7  26   0   -3.62    2.83 
  26 -19   0    0.29    3.43 
  26 -19   0   -0.98    4.79 
  26 -19   0   -0.12    4.43 
 -19  -7   0    6.40    5.59 
  -7  26   0    2.10    2.55 
 -26  22   0    0.84    4.83 
  22   4   0    3.58    4.21 
 -26  22   0    4.34    3.63 
 -26  22   0   -4.76    5.64 
 -26  22   0   -1.24    4.22 
  26 -22   0    6.70    5.55 
 -22  -4   0   -0.20    3.61 
  26 -22   0    3.05    5.07 
 -22  -4   0    1.26    6.08 
  26 -22   0    0.79    3.52 
 -26  25   0    7.62    4.66 
 -26  25   0    1.57    3.32 
 -26  25   0   -3.09    4.23 
 -25  -1   0    3.89    4.15 
  26 -25   0    0.83    3.49 
 -27   3   0    3.85    4.59 
  24 -27   0    5.32    3.28 
 -24  27   0    5.55    4.61 
 -24  27   0    9.70    4.79 
 -24  27   0    0.03    3.58 
 -27   6   0    4.33    4.60 
 -27   6   0   -5.67    5.96 
 -21  27   0    5.42    4.33 
 -21  27   0    2.63    5.94 
 -21  27   0    8.08    3.60 
 -21  27   0    3.48    3.95 
 -27   9   0    1.26    4.37 
 -27   9   0    1.17    6.70 
   9  18   0    3.94    4.35 
 -18  27   0   -4.41    3.34 
 -18  27   0   11.36    3.92 
  27  -9   0   10.03    4.86 
  27  -9   0    3.63    2.73 
 -18  27   0    6.66    4.13 
 -27  12   0   -6.10    5.79 
 -27  12   0    0.98    3.55 
  12  15   0   -1.90    3.60 
 -27  12   0    0.95    4.93 
 -15  27   0    8.22    3.33 
 -15  27   0    2.30    3.74 
 -15  27   0    5.50    3.92 
 -12 -15   0    0.03    4.95 
  27 -12   0    2.16    2.87 
  27 -12   0    2.19    4.44 
  27 -12   0    3.35    4.39 
 -27  15   0    1.26    4.93 
 -27  15   0    5.19    5.76 
  15  12   0    3.35    4.15 
 -15 -12   0   12.07    5.48 
 -12  27   0    2.59    3.47 
  27 -15   0    1.46    4.98 
  27 -15   0   -0.70    2.97 
 -12  27   0    0.21    3.73 
 -12  27   0    1.59    2.64 
  27 -15   0   -1.18    4.92 
  18   9   0    1.40    3.60 
 -27  18   0    5.50    4.23 
 -27  18   0    0.20    5.17 
 -27  18   0    6.57    4.65 
  -9  27   0   -0.52    3.05 
  27 -18   0   10.97    5.64 
 -18  -9   0   -4.11    4.75 
  27 -18   0    2.91    5.22 
  -9  27   0    1.92    2.67 
  27 -18   0   -4.51    3.07 
 -27  21   0    5.37    4.49 
 -27  21   0    8.08    6.59 
 -27  21   0    2.73    4.49 
  27 -21   0    3.11    6.00 
 -21  -6   0   -0.09    5.13 
  27 -21   0    6.32    3.35 
 -21  -6   0   -1.03    4.04 
  -6  27   0    2.33    2.80 
 -27  24   0    5.62    3.37 
 -27  24   0    5.88    4.61 
 -27  24   0    5.54    4.34 
  27 -24   0   10.57    3.77 
 -24  -3   0    8.23    3.90 
 -27  27   0    9.57    4.70 
 -27  27   0   10.76    4.45 
 -27  27   0   13.05    3.69 
 -27   0   0    8.94    4.30 
  27 -27   0   12.80    3.85 
  26 -28   0   -0.27    3.39 
 -28   2   0   -1.91    4.61 
 -26  28   0    2.34    3.21 
 -26  28   0    8.56    4.37 
 -26  28   0    8.18    4.64 
 -28   5   0    9.03    4.81 
 -23  28   0    2.51    3.23 
 -23  28   0   -3.39    4.38 
 -23  28   0    2.37    4.45 
 -28   8   0    5.98    4.49 
 -20  28   0    5.15    4.20 
 -20  28   0    0.65    3.13 
 -20  28   0   -3.02    4.25 
  11  17   0    4.73    3.99 
 -28  11   0  -10.58    5.46 
 -28  11   0    3.33    4.49 
 -28  11   0    2.77    3.76 
 -17  28   0   -3.84    3.50 
  28 -11   0   -2.35    4.38 
  28 -11   0    1.97    2.81 
 -17  28   0    0.51    2.98 
  28 -11   0    3.78    4.39 
 -17  28   0   -4.21    3.78 
 -11 -17   0    6.03    5.30 
 -28  14   0    3.91    5.96 
 -28  14   0   -1.56    4.43 
 -28  14   0    3.05    3.20 
  14  14   0    2.75    3.81 
  28 -14   0   -1.03    4.58 
 -14  28   0    1.95    3.56 
 -14  28   0   -5.44    3.54 
  28 -14   0    8.16    3.21 
 -14  28   0    3.18    2.76 
 -14 -14   0   -6.90    4.66 
  28 -14   0    4.87    4.84 
  17  11   0    3.29    3.80 
 -28  17   0    1.91    5.07 
 -28  17   0   -2.55    5.42 
  28 -17   0   -3.00    2.96 
  28 -17   0   -1.97    4.97 
 -11  28   0    1.46    2.86 
 -11  28   0    6.97    3.21 
  28 -17   0   -0.98    4.62 
 -17 -11   0   -0.34    5.14 
 -28  20   0   -0.27    4.89 
 -28  20   0    5.79    4.50 
  28 -20   0   -3.75    3.11 
  -8  28   0   -0.40    2.33 
 -20  -8   0    6.29    3.76 
  -8  28   0    1.55    2.85 
 -28  23   0   -4.59    4.94 
 -28  23   0   -2.74    4.49 
  28 -23   0    0.97    3.38 
 -23  -5   0    2.42    3.73 
 -28  26   0    4.62    4.48 
 -28  26   0    1.54    4.72 
 -28  26   0    4.18    3.49 
 -26  -2   0   10.91    4.09 
  28 -26   0    6.15    3.42 
 -29   1   0    2.79    4.48 
  28 -29   0    5.54    3.65 
 -28  29   0   -0.22    3.43 
 -28  29   0    6.70    4.55 
 -28  29   0    2.87    4.28 
 -29   4   0    0.28    4.15 
 -25  29   0    1.51    4.56 
 -25  29   0   -0.67    3.56 
 -25  29   0   -0.59    4.53 
 -29   7   0    5.26    5.03 
 -22  29   0   -5.94    4.09 
 -22  29   0    2.48    3.57 
 -22  29   0   -0.17    4.37 
 -29  10   0    0.18    5.14 
 -29  10   0    1.93    3.54 
 -19  29   0   -0.66    3.73 
  29 -10   0   -2.63    2.96 
 -19  29   0   -7.00    3.34 
 -19  29   0    0.41    3.77 
 -29  13   0   -3.51    3.56 
 -29  13   0   -4.33    5.06 
 -16  29   0   -4.15    3.81 
  29 -13   0    0.33    3.29 
 -16  29   0   -0.54    3.49 
 -16  29   0    6.59    3.35 
 -29  16   0    3.72    4.70 
 -13  29   0   -1.55    3.41 
  29 -16   0   -1.88    3.10 
 -13  29   0   -0.27    2.64 
 -29  19   0    2.81    4.66 
 -29  19   0    0.20    4.18 
 -10  29   0    1.00    3.15 
 -10  29   0    1.91    2.79 
  29 -19   0   -2.42    3.63 
 -29  22   0   -1.38    5.11 
 -29  22   0   -1.70    4.70 
  -7  29   0    1.26    2.97 
 -22  -7   0   -5.91    4.07 
  29 -22   0    4.42    3.85 
 -29  25   0   -2.18    4.87 
 -29  25   0   -4.84    4.68 
 -25  -4   0   -1.90    3.72 
  29 -25   0    2.36    3.44 
 -29  28   0    8.93    4.76 
 -29  28   0    3.12    4.76 
 -29  28   0    2.34    3.25 
 -28  -1   0    7.80    4.46 
  29 -28   0    2.70    3.73 
  27 -30   0   11.83    3.86 
 -30   3   0   16.01    4.61 
 -27  30   0    8.35    4.60 
 -27  30   0    5.17    4.26 
 -27  30   0    6.21    3.34 
 -30   6   0    3.70    4.56 
 -24  30   0    9.27    4.54 
 -24  30   0    7.43    3.45 
 -24  30   0    3.87    4.33 
 -30   9   0   -1.22    4.02 
 -30   9   0    2.00    4.64 
 -21  30   0    4.02    4.27 
 -21  30   0    8.12    4.21 
 -21  30   0    2.50    3.58 
 -30  12   0   -1.57    3.84 
 -30  12   0    9.04    5.22 
 -18  30   0   -3.47    3.60 
  30 -12   0    1.94    3.03 
 -18  30   0   -3.12    3.57 
 -18  30   0   -4.20    3.32 
 -30  15   0   -0.58    5.26 
 -15  30   0    2.29    2.86 
 -15  30   0   -0.41    3.62 
 -15  30   0    2.36    3.97 
  30 -15   0   -3.54    3.13 
 -30  18   0    2.52    4.84 
 -12  30   0   -0.65    3.23 
  30 -18   0   -2.70    3.61 
 -12  30   0    2.48    2.97 
 -30  21   0    4.09    4.47 
 -30  21   0    5.80    4.80 
  -9  30   0    3.92    2.94 
  30 -21   0   -0.02    3.67 
 -21  -9   0   -2.93    3.65 
  -9  30   0    0.36    2.74 
 -30  24   0    5.80    4.89 
 -30  24   0   13.25    5.18 
 -24  -6   0    6.53    4.29 
  30 -24   0    7.55    3.82 
 -30  27   0    3.94    4.79 
 -30  27   0    8.41    4.96 
 -27  -3   0    6.41    4.29 
  30 -27   0   13.08    3.97 
 -31   5   0    6.34    5.14 
 -26  31   0    3.22    4.51 
 -26  31   0    2.39    3.57 
 -26  31   0    6.46    4.43 
 -31   8   0   -0.88    3.88 
 -31   8   0    3.52    5.08 
 -23  31   0    3.17    3.82 
 -23  31   0    2.45    4.14 
 -23  31   0   -1.81    4.18 
 -31  11   0   -0.23    3.81 
 -31  11   0   -5.25    5.10 
 -20  31   0    0.07    4.07 
  31 -11   0    3.19    3.18 
 -20  31   0   -1.03    3.44 
 -20  31   0    3.63    4.13 
 -31  14   0    3.18    4.84 
 -31  14   0    0.63    3.57 
 -17  31   0   -3.99    3.89 
 -17  31   0    0.73    3.63 
 -17  31   0    2.42    3.41 
  31 -14   0    2.77    3.57 
 -31  17   0   -5.57    5.33 
 -14  31   0    0.03    3.37 
  31 -17   0   -1.22    3.17 
 -14  31   0   -0.75    2.75 
 -31  20   0   -5.16    4.65 
 -11  31   0   -4.32    2.66 
 -11  31   0   -1.11    3.15 
  31 -20   0    1.89    3.74 
 -20 -11   0    4.09    4.14 
 -31  23   0    4.87    4.76 
 -31  23   0   -4.24    4.35 
  31 -23   0    0.88    3.38 
  -8  31   0    1.43    3.06 
 -23  -8   0    0.62    4.13 
 -31  26   0    7.02    4.95 
 -31  26   0    3.09    4.34 
 -26  -5   0    7.23    4.35 
  31 -26   0    4.21    3.77 
 -32  10   0   -0.69    4.64 
 -32  10   0   -0.98    3.88 
 -22  32   0    3.72    4.17 
 -22  32   0    2.08    3.63 
 -22  32   0   -0.24    4.11 
 -32  13   0   -5.33    5.22 
 -32  13   0    1.40    3.77 
 -19  32   0    1.74    3.84 
 -19  32   0    1.40    3.54 
  32 -13   0    5.14    3.47 
 -19  32   0    1.01    3.80 
 -32  16   0   -0.20    5.40 
 -16  32   0    1.30    2.89 
  32 -16   0   -2.47    3.39 
 -16  32   0    0.68    3.52 
 -32  19   0    5.09    5.45 
 -13  32   0    0.69    3.22 
 -13  32   0   -2.75    2.90 
  32 -19   0    2.90    3.67 
 -32  22   0   -1.74    4.70 
 -22 -10   0    2.37    4.25 
 -10  32   0   -3.56    2.89 
  32 -22   0    3.83    3.85 
 -33  12   0   -0.11    3.85 
 -33  12   0   -0.20    4.75 
 -21  33   0   -0.69    3.97 
 -21  33   0   -1.33    3.14 
 -21  33   0    2.09    3.82 
 -33  15   0    5.31    5.33 
  33 -15   0    5.89    3.51 
 -18  33   0    1.61    3.66 
 -18  33   0    1.79    3.27 
 -33  18   0    2.89    5.46 
 -15  33   0   -0.90    3.24 
 -15  33   0    3.54    3.05 
  33 -18   0    8.69    3.82 
 -33  21   0    7.31    5.35 
 -12  33   0    1.55    3.04 
 -21 -12   0   -1.80    3.93 
  33 -21   0   -3.03    3.69 
   0   1  -1    7.79    2.34 
   1  -1  -1    8.36    2.48 
  -1   0  -1    7.72    2.18 
   0   1  -1   14.84    2.34 
   0  -1   1   14.97    2.36 
   0  -1   1    9.18    2.25 
  -1   1   1   12.66    2.58 
   1   0   1   12.86    2.38 
   3  -2  -1    3.24    2.03 
   3  -2  -1    3.54    2.59 
  -2  -1  -1    4.30    2.27 
  -1   3  -1    5.13    2.13 
  -1   3  -1    5.71    2.28 
   2   1   1    7.19    1.84 
   1  -3   1    2.77    1.89 
   1  -3   1   -2.37    1.90 
  -3   2   1    4.15    2.57 
   1  -3   1    0.54    1.65 
   2   1   1    4.54    2.07 
   1  -3   1    5.02    1.11 
  -3   2   1   -1.20    2.38 
   2   1   1    0.78    2.52 
   0  -2  -1   30.41    3.53 
  -2   2  -1   35.38    3.48 
  -2   2  -1   28.10    3.53 
   2   0  -1   31.33    3.26 
   2   0  -1   23.14    3.46 
   2  -2   1   28.79    3.52 
   2  -2   1   29.14    3.26 
   0   2   1   25.44    3.46 
  -2   0   1   31.69    3.71 
   0   2   1   32.70    3.68 
   5  -3  -1   33.08    3.98 
  -2   5  -1   31.91    4.04 
   5  -3  -1   33.59    4.39 
  -3  -2  -1   30.21    3.81 
   5  -3  -1   32.09    3.81 
   5  -3  -1   38.07    3.90 
   3   2   1   33.36    3.62 
   2  -5   1   33.50    3.47 
  -5   3   1   28.36    4.37 
   2  -5   1   29.86    2.85 
  -5   3   1   37.39    4.23 
   2  -5   1   34.24    3.79 
   3   2   1   33.31    3.74 
   3   2   1   30.13    3.48 
   3   2   1   35.78    4.44 
  -3   1  -1    3.92    2.32 
   1   2  -1    4.30    2.07 
   2  -3  -1    1.26    2.41 
   2  -3  -1    2.71    1.95 
   1   2  -1    2.77    2.03 
  -2   3   1    0.83    2.24 
   3  -1   1    6.03    2.21 
   3  -1   1    6.04    2.16 
  -2   3   1    4.26    2.48 
  -1  -2   1    4.86    1.87 
  -1  -3  -1   -3.86    2.03 
   4  -1  -1   -0.23    2.55 
   4  -1  -1   -1.70    2.19 
  -3   4  -1   -1.91    2.39 
   4  -1  -1   -0.01    2.09 
   1   3   1   -1.38    1.61 
   3  -4   1    1.95    2.38 
  -4   1   1    5.35    2.18 
   1   3   1    4.19    2.65 
   3  -4   1    0.11    1.85 
  -4   1   1    3.06    2.67 
   1   3   1    0.24    2.15 
   7  -4  -1   67.70    8.25 
   7  -4  -1   80.78    8.68 
   7  -4  -1  104.59    8.60 
  -4  -3  -1   85.61    8.24 
  -3   7  -1   90.75    8.44 
   7  -4  -1   94.32    9.14 
   4   3   1   83.27    8.08 
   3  -7   1   99.72    8.40 
  -7   4   1   95.94    8.75 
   4   3   1   92.96    8.02 
   4   3   1   95.61    8.86 
   3  -7   1   93.73    8.00 
   0   4  -1  204.26   15.90 
   0   4  -1  187.14   15.83 
  -4   0  -1  193.47   16.15 
   4  -4  -1  179.85   16.02 
   0   4  -1  196.97   15.68 
   4  -4  -1  194.31   16.30 
   0   4  -1  168.97   15.73 
  -4   4   1  189.93   16.05 
   4   0   1  191.62   15.77 
   0  -4   1  193.91   15.68 
   4   0   1  190.50   15.88 
   0  -4   1  199.20   15.92 
   4   0   1  174.72   16.13 
   4   0   1  190.71   15.90 
  -4   4   1  186.89   15.99 
   0  -4   1  196.47   15.71 
   3   1  -1   -0.06    2.13 
   3   1  -1   -1.53    2.16 
   3   1  -1    4.08    2.42 
   1  -4  -1    2.24    2.80 
   3   1  -1   -2.88    1.79 
  -4   3  -1   -1.55    2.31 
   3   1  -1   -0.74    1.72 
   4  -3   1    2.44    1.32 
   4  -3   1    1.93    2.27 
  -1   4   1   -3.17    2.53 
   4  -3   1   -0.08    2.08 
  -3  -1   1   -5.11    1.81 
   4  -3   1    1.49    2.46 
  -3  -1   1   -1.40    2.33 
  -1   4   1    2.55    2.03 
  -1   4   1    2.10    2.34 
   6  -2  -1    0.66    2.80 
   6  -2  -1   -0.09    2.80 
   6  -2  -1   -0.41    2.42 
  -2  -4  -1    1.43    2.39 
  -4   6  -1    0.26    2.78 
   6  -2  -1    3.83    2.36 
  -4   6  -1    2.06    2.79 
   6  -2  -1    2.10    3.35 
   4  -6   1    1.29    2.19 
   4  -6   1   -0.21    2.93 
   2   4   1    2.76    2.39 
  -6   2   1   -1.18    2.93 
   2   4   1    0.92    3.28 
   2   4   1    0.18    1.94 
   4  -6   1    2.32    2.95 
  -6   2   1   -3.95    2.81 
  -4   9  -1   14.37    1.69 
  -5  -4  -1   18.25    3.35 
   9  -5  -1   15.29    3.90 
   9  -5  -1   19.00    4.62 
  -4   9  -1   25.66    3.63 
   9  -5  -1   16.44    3.66 
  -4   9  -1   18.08    4.15 
   9  -5  -1   21.97    4.21 
   5   4   1   16.93    3.06 
   5   4   1   20.55    3.49 
   5   4   1   21.47    3.54 
   5   4   1   26.19    4.78 
   4  -9   1   25.90    3.70 
  -9   5   1   21.27    4.69 
   4  -9   1   24.75    3.46 
   5   4   1   16.34    2.87 
   4  -9   1   18.52    2.87 
  -1   6  -1  124.84   10.97 
   6  -5  -1  122.21   10.95 
   6  -5  -1  111.85   11.55 
  -5  -1  -1  114.11   10.89 
  -1   6  -1  128.87   10.38 
   6  -5  -1  132.42   11.18 
   5   1   1  124.67   10.72 
   1  -6   1  135.30   10.52 
   1  -6   1  125.06   10.41 
   5   1   1  101.48   11.21 
   1  -6   1  129.26   10.74 
   5   1   1  128.63   10.67 
  -6   5   1  131.70   11.20 
   5   1   1  120.87   10.80 
  -6   5   1  131.22   10.95 
   5   1   1  123.78   10.67 
   2   3  -1   36.34    3.46 
   2   3  -1   33.70    3.59 
   3  -5  -1   33.71    4.52 
  -5   2  -1   38.09    3.75 
   2   3  -1   28.63    3.54 
   3  -5  -1   33.93    3.76 
   2   3  -1   37.04    3.78 
  -2  -3   1   32.87    3.62 
   5  -2   1   30.34    3.85 
   5  -2   1   26.94    3.89 
  -3   5   1   33.00    4.08 
  -3   5   1   38.55    4.02 
   5  -2   1   32.11    3.55 
   5  -2   1   29.34    3.43 
   5  -2   1   27.41    3.74 
   5   0  -1    2.79    2.96 
   0  -5  -1    5.87    2.64 
  -5   5  -1    0.75    2.86 
   5   0  -1    0.90    2.19 
   5   0  -1    4.46    1.85 
   5   0  -1   -1.88    2.29 
   5   0  -1    2.94    2.85 
  -5   5  -1    5.81    2.49 
   5   0  -1    4.65    2.74 
   5  -5   1    2.87    2.83 
  -5   0   1    3.03    2.80 
   0   5   1    0.97    2.09 
   5  -5   1    2.34    1.24 
   5  -5   1    1.02    2.28 
   0   5   1    2.24    3.00 
  -5   0   1    3.42    2.92 
   5  -5   1    4.45    2.88 
   0   5   1    6.41    2.38 
  -3  -5  -1    4.37    2.46 
   8  -3  -1    2.90    3.00 
  -5   8  -1   -3.91    3.34 
   8  -3  -1   -1.47    3.10 
  -5   8  -1    2.99    3.91 
   8  -3  -1   -1.06    3.67 
   8  -3  -1   -8.90    3.36 
   8  -3  -1    3.42    3.18 
   3   5   1    0.87    2.24 
   5  -8   1    3.27    3.17 
   3   5   1   -4.28    2.28 
   3   5   1    0.38    3.73 
   3   5   1    1.61    2.17 
  -8   3   1    4.91    3.61 
   5  -8   1    5.39    2.44 
   5  -8   1    1.31    3.13 
  -5  11  -1    0.77    0.90 
  11  -6  -1   -6.18    3.76 
  11  -6  -1   -4.73    4.00 
  11  -6  -1    2.85    3.90 
  -5  11  -1    3.29    3.81 
  11  -6  -1   -2.28    4.12 
   5 -11   1    4.78    2.81 
   6   5   1    1.63    2.34 
   5 -11   1    2.19    3.19 
   5 -11   1   -2.40    2.43 
   6   5   1   -0.57    2.28 
   6   5   1   -3.23    3.25 
 -11   6   1    0.12    4.63 
   6   5   1    6.23    3.20 
   6   5   1    1.48    2.79 
  -2   8  -1   -1.23    1.96 
   8  -6  -1    0.61    3.94 
   8  -6  -1    0.44    3.31 
  -6  -2  -1   -1.06    3.00 
  -2   8  -1   -1.32    3.42 
  -2   8  -1   -1.03    1.28 
   8  -6  -1    5.18    3.08 
   6   2   1   -0.24    2.77 
   2  -8   1   -1.55    1.79 
   6   2   1   -1.42    2.46 
  -8   6   1   -4.16    4.07 
   6   2   1   -1.39    3.89 
   6   2   1   -0.43    3.11 
   2  -8   1   -0.22    2.18 
   6   2   1    0.65    2.85 
   6   2   1    2.71    1.87 
   5  -6  -1  126.69   11.79 
   5  -6  -1  136.42   11.52 
   1   5  -1  124.69   11.32 
   5  -6  -1  135.09   11.46 
  -6   1  -1  128.43   11.20 
   1   5  -1  135.12   11.09 
   1   5  -1  131.85   11.00 
   6  -1   1  133.91   11.38 
   6  -1   1  123.12   11.16 
  -1  -5   1  127.49   10.84 
   6  -1   1  123.73   11.27 
   6  -1   1  140.65   11.57 
  -1  -5   1  138.23   11.06 
   6  -1   1  132.85   11.62 
   6  -1   1  130.42   11.07 
  -5   6   1  133.23   11.84 
  -5   6   1  117.54   11.46 
  -5   6   1  129.90   11.36 
   4   2  -1    0.54    2.09 
   2  -6  -1    2.85    2.98 
   4   2  -1    0.92    2.45 
  -6   4  -1    4.21    2.95 
   4   2  -1   -2.47    2.13 
   4   2  -1   -1.24    2.26 
  -6   4  -1   -2.30    2.81 
   4   2  -1    0.09    2.12 
   2  -6  -1   -1.61    1.99 
   6  -4   1    0.16    1.81 
   6  -4   1    1.74    2.75 
  -4  -2   1    1.56    2.56 
  -4  -2   1   -4.11    2.83 
  -2   6   1    2.85    3.26 
  -2   6   1   -2.24    2.75 
   6  -4   1   -2.16    2.12 
   6  -4   1    0.79    2.25 
   6  -4   1    0.85    2.55 
  -2   6   1   -2.13    2.68 
  -1  -6  -1    0.77    2.36 
   7  -1  -1   -1.29    2.61 
  -6   7  -1   -1.87    2.85 
   7  -1  -1    2.92    3.13 
   7  -1  -1   -3.39    2.79 
   7  -1  -1    3.30    3.31 
   7  -1  -1    5.43    2.81 
  -6   7  -1    2.39    3.28 
  -7   1   1   -0.77    2.62 
   1   6   1   -0.88    2.34 
   6  -7   1    0.83    2.33 
   6  -7   1   -2.77    3.23 
   1   6   1    0.96    2.36 
   1   6   1    0.42    3.23 
  -7   1   1    2.17    3.46 
  -6  10  -1   -0.80    3.63 
  10  -4  -1   -3.40    3.13 
  -4  -6  -1    2.69    2.55 
  10  -4  -1    0.85    3.70 
  10  -4  -1    1.90    4.45 
  10  -4  -1    3.26    3.59 
  10  -4  -1    4.10    3.88 
  -6  10  -1    5.28    4.02 
   4   6   1   -0.73    2.19 
   4   6   1    0.83    4.18 
   4   6   1   -2.22    2.20 
   6 -10   1    3.40    2.72 
   6 -10   1    2.26    3.03 
 -10   4   1    4.81    4.34 
   4   6   1   -1.30    2.67 
  13  -7  -1   25.95    4.46 
  13  -7  -1   16.73    5.18 
  13  -7  -1   23.07    4.97 
  -6  13  -1   24.07    4.62 
  13  -7  -1   24.28    4.52 
   7   6   1   22.24    3.98 
   7   6   1   31.51    5.30 
   6 -13   1   25.74    3.57 
   7   6   1   29.07    4.69 
   7   6   1   22.44    3.24 
   6 -13   1   25.25    4.13 
 -13   7   1   27.63    5.61 
  -3  10  -1   24.30    2.80 
  -3  10  -1   35.87    4.85 
  10  -7  -1   26.40    4.50 
  10  -7  -1   18.58    4.87 
  10  -7  -1   22.71    5.29 
  10  -7  -1   32.18    4.72 
  -7  -3  -1   32.05    4.56 
   3 -10   1   29.58    3.36 
   7   3   1   33.95    5.26 
   7   3   1   26.32    4.23 
   7   3   1   28.42    3.69 
   7   3   1   26.94    4.08 
 -10   7   1   33.30    5.56 
   3 -10   1   25.58    3.98 
   7   3   1   31.58    3.21 
   3 -10   1   32.78    3.68 
   7  -7  -1  320.71   28.79 
   0   7  -1  338.18   28.26 
   0   7  -1  349.81   28.09 
   7  -7  -1  333.12   28.47 
   0   7  -1  352.89   28.41 
   7  -7  -1  355.51   28.49 
  -7   0  -1  323.38   28.34 
   7   0   1  350.67   28.35 
  -7   7   1  355.50   28.60 
   7   0   1  337.34   28.32 
   0  -7   1  336.08   27.99 
   7   0   1  365.32   28.32 
   7   0   1  338.73   28.26 
   7   0   1  321.54   28.62 
   0  -7   1  345.88   28.13 
  -7   7   1  341.54   28.40 
  -7   3  -1   82.85    8.07 
   4  -7  -1   86.45    8.38 
   3   4  -1   88.66    7.65 
   4  -7  -1   92.07    7.81 
   3   4  -1   87.00    7.65 
   3   4  -1   88.24    7.59 
  -7   3  -1   76.55    7.59 
   3   4  -1   80.51    7.92 
  -4   7   1   87.15    8.22 
  -4   7   1   97.53    8.78 
  -4   7   1   82.36    7.85 
   7  -3   1   84.57    8.07 
   7  -3   1   86.70    7.88 
   7  -3   1   78.07    8.15 
   7  -3   1   92.32    7.65 
   7  -3   1   79.16    7.63 
   6   1  -1   -1.49    2.26 
   1  -7  -1    0.22    2.78 
   6   1  -1   -1.67    2.94 
   6   1  -1    5.59    2.94 
   6   1  -1   -0.41    3.05 
  -7   6  -1    0.03    2.93 
   6   1  -1   -2.86    1.91 
   6   1  -1   -2.71    2.84 
  -7   6  -1   -2.25    3.53 
  -6  -1   1   -2.04    2.49 
   7  -6   1    2.52    1.67 
  -1   7   1    1.98    2.55 
  -6  -1   1    9.15    3.49 
  -1   7   1    3.89    3.68 
   7  -6   1    5.61    3.09 
  -1   7   1    0.46    2.05 
   7  -6   1   -3.23    2.79 
  -2  -7  -1   22.19    2.95 
   9  -2  -1   17.66    3.53 
   9  -2  -1   20.01    4.24 
   9  -2  -1   22.05    3.70 
  -7   9  -1   20.21    4.39 
  -7   9  -1   14.56    1.64 
   9  -2  -1   20.97    4.15 
   9  -2  -1   19.70    3.75 
  -7   9  -1   20.50    4.21 
  -9   2   1   18.18    4.51 
   2   7   1    2.81    2.68 
   7  -9   1   19.25    3.22 
   2   7   1   26.72    4.43 
   7  -9   1   15.70    4.13 
   2   7   1   21.02    3.64 
  12  -5  -1   13.77    4.41 
  12  -5  -1   24.77    4.89 
  12  -5  -1   16.98    4.14 
  -7  12  -1   12.90    4.24 
  12  -5  -1   18.15    4.30 
  -7  12  -1   22.86    4.83 
  12  -5  -1   15.77    3.99 
   7 -12   1   16.42    4.04 
   5   7   1   25.95    4.36 
   5   7   1   19.09    3.56 
 -12   5   1   13.99    5.17 
   7 -12   1   18.64    3.50 
   5   7   1   21.03    3.01 
   5   7   1   21.38    2.88 
   5   7   1   19.94    3.80 
  -7  15  -1   40.12    5.67 
  15  -8  -1   43.36    6.15 
  15  -8  -1   35.81    6.79 
  15  -8  -1   37.91    5.62 
  15  -8  -1   39.65    5.47 
   7 -15   1   39.27    4.64 
   8   7   1   41.92    5.42 
   7 -15   1   36.54    5.17 
   7 -15   1   43.66    5.24 
 -15   8   1   38.23    6.57 
   8   7   1   36.44    5.94 
   8   7   1   36.33    5.11 
  -4  12  -1   11.79    4.15 
  -4  12  -1   11.05    1.77 
  12  -8  -1    8.42    4.32 
  12  -8  -1   10.67    4.71 
  12  -8  -1    7.87    3.86 
  -8  -4  -1   12.58    4.17 
  12  -8  -1   13.76    4.57 
 -12   8   1   15.65    5.09 
   8   4   1   16.43    4.03 
   8   4   1   20.05    2.97 
   4 -12   1   17.24    3.42 
   8   4   1    9.97    3.42 
   4 -12   1   16.04    2.80 
   8   4   1   16.09    4.06 
   4 -12   1   12.04    2.67 
   9  -8  -1  122.01   10.67 
  -1   9  -1  115.36    9.72 
  -1   9  -1  106.44   10.08 
  -8  -1  -1  109.04   10.42 
   9  -8  -1  130.73   10.85 
   9  -8  -1  114.38   11.39 
  -1   9  -1  118.33   10.53 
   8   1   1  111.35   10.18 
  -9   8   1  125.31   10.66 
   1  -9   1  123.54    9.85 
   8   1   1  107.61   10.22 
   8   1   1  104.51   10.02 
  -9   8   1  113.37   10.30 
   1  -9   1  114.82    9.70 
   8   1   1  113.08   10.20 
   8   1   1  118.11   11.03 
   6  -8  -1    1.80    3.30 
   2   6  -1    0.30    1.54 
   2   6  -1    0.21    2.25 
   2   6  -1   -2.30    2.34 
   2   6  -1    2.60    3.03 
   6  -8  -1   -1.62    2.72 
  -8   2  -1    4.06    3.04 
   6  -8  -1    3.56    3.42 
  -6   8   1   -2.63    3.99 
  -6   8   1   -3.30    3.02 
   8  -2   1    4.89    2.87 
  -2  -6   1    7.16    1.08 
   8  -2   1   -2.75    2.88 
   8  -2   1   -1.93    2.75 
   8  -2   1   -6.68    3.04 
   8  -2   1    2.71    2.73 
  -2  -6   1   -3.23    1.56 
  -8   5  -1   -2.52    2.50 
   5   3  -1   -0.80    2.63 
   3  -8  -1   -0.16    2.22 
   5   3  -1   -1.09    2.33 
   5   3  -1   -2.27    2.53 
  -8   5  -1   -2.41    3.23 
   3  -8  -1    0.42    3.16 
   5   3  -1   -2.26    2.70 
  -3   8   1   -1.79    3.51 
   8  -5   1    3.66    3.36 
  -3   8   1    0.53    2.84 
  -5  -3   1    1.30    2.22 
   8  -5   1   -3.74    2.34 
   8  -5   1    1.68    2.15 
   8  -5   1   -3.05    2.68 
   8  -5   1   -1.65    2.60 
  -3   8   1   -0.38    3.22 
   8   0  -1   31.12    4.63 
   8   0  -1   31.93    3.82 
   0  -8  -1   28.72    3.91 
   8   0  -1   25.70    3.18 
   8   0  -1   30.34    4.50 
   8   0  -1   28.30    4.21 
  -8   8  -1   34.60    4.82 
  -8   8  -1   26.20    4.07 
   8   0  -1   34.55    4.25 
  -8   0   1   28.24    4.19 
   8  -8   1   39.75    4.66 
   0   8   1   31.72    3.93 
   8  -8   1   20.59    4.21 
  -8   0   1   35.01    5.04 
   0   8   1   31.49    4.67 
  -3  -8  -1    9.67    2.58 
  -8  11  -1    7.57    3.68 
  11  -3  -1    7.06    3.87 
  11  -3  -1   10.20    3.61 
  11  -3  -1   17.46    4.19 
  11  -3  -1    6.18    4.45 
  -8  11  -1   11.93    4.41 
  11  -3  -1   12.91    3.57 
   8 -11   1   10.86    3.49 
   3   8   1   10.12    3.30 
   3   8   1   14.40    4.31 
   8 -11   1    8.36    3.37 
   3   8   1   10.28    2.25 
 -11   3   1    8.42    4.46 
   3   8   1    2.95    2.20 
  -8  14  -1    0.33    3.92 
  14  -6  -1    5.48    4.25 
  14  -6  -1    2.76    3.99 
  14  -6  -1    2.89    4.86 
  14  -6  -1   13.37    4.17 
  14  -6  -1    4.58    3.54 
  -8  14  -1    0.54    4.97 
   8 -14   1    2.73    3.51 
   6   8   1   -3.03    3.90 
   6   8   1    0.33    3.08 
   8 -14   1    4.37    3.56 
   6   8   1    5.91    3.15 
   6   8   1    4.11    1.92 
 -14   6   1   -1.67    4.92 
   8 -14   1    2.26    2.94 
  -8  17  -1   17.09    4.52 
  17  -9  -1   10.76    4.18 
  17  -9  -1   11.75    4.84 
  17  -9  -1   18.47    5.35 
  17  -9  -1   10.92    4.63 
   9   8   1   10.26    3.54 
   8 -17   1    8.18    3.68 
 -17   9   1    3.04    5.40 
   9   8   1   11.82    3.66 
   9   8   1   16.55    4.65 
  14  -9  -1    3.28    4.24 
  14  -9  -1    2.98    3.76 
  14  -9  -1    0.37    4.58 
  -5  14  -1    4.24    3.94 
  -9  -5  -1    5.00    4.19 
  14  -9  -1    3.04    4.25 
   9   5   1    4.16    3.41 
   9   5   1    2.87    3.96 
   9   5   1    3.41    2.22 
   5 -14   1    9.42    3.17 
   9   5   1    2.09    3.52 
 -14   9   1   -2.12    4.84 
  -2  11  -1   -1.83    3.75 
  11  -9  -1   -3.17    3.97 
  11  -9  -1    7.49    3.77 
  -2  11  -1    3.36    1.65 
  -9  -2  -1    3.29    3.59 
  11  -9  -1    1.02    4.43 
  -2  11  -1    0.21    2.45 
   9   2   1    2.09    2.11 
   9   2   1    5.94    3.06 
   9   2   1    5.05    3.33 
   2 -11   1    0.40    1.77 
 -11   9   1    7.14    3.05 
   2 -11   1    5.53    1.90 
   2 -11   1  -10.30    2.30 
   9   2   1    2.01    2.62 
   9   2   1    5.88    4.20 
 -11   9   1    5.13    4.79 
   1   8  -1  115.61    9.63 
   8  -9  -1  118.67   10.46 
  -9   1  -1  112.94   10.22 
   8  -9  -1   96.76   10.21 
   1   8  -1  114.00   10.19 
   8  -9  -1  106.97   10.88 
   1   8  -1  110.77   10.07 
  -8   9   1  120.39   10.68 
  -8   9   1  109.05   10.16 
   9  -1   1  120.42   10.08 
   9  -1   1   94.98   10.49 
  -1  -8   1  117.00    9.43 
   9  -1   1  115.13   10.13 
   9  -1   1  112.46   10.12 
  -1  -8   1  109.22    9.21 
   9  -1   1  110.61   10.10 
  -9   4  -1   18.95    3.34 
   4   5  -1   18.04    3.31 
   5  -9  -1   25.93    3.55 
   4   5  -1   17.90    3.09 
   5  -9  -1   17.02    3.85 
  -9   4  -1   21.56    3.99 
   4   5  -1   19.01    2.45 
   4   5  -1   19.95    3.29 
   9  -4   1   17.97    3.65 
   9  -4   1   16.81    3.20 
  -5   9   1   16.40    4.53 
  -4  -5   1   22.65    2.43 
   9  -4   1   15.02    3.59 
   9  -4   1   13.66    3.68 
   9  -4   1   12.38    3.33 
  -5   9   1   22.53    3.60 
   7   2  -1   25.68    3.68 
  -9   7  -1   17.58    4.24 
   2  -9  -1   18.50    2.62 
   7   2  -1   20.90    3.62 
   2  -9  -1   14.00    3.46 
   7   2  -1   23.13    3.53 
   7   2  -1   18.58    2.92 
   7   2  -1   17.68    2.89 
   7   2  -1   15.58    3.42 
  -9   7  -1   16.38    3.33 
  -2   9   1   23.24    3.84 
   9  -7   1   19.64    2.74 
   9  -7   1   18.23    3.95 
  -7  -2   1   18.21    3.36 
   9  -7   1   14.40    2.73 
  -2   9   1   21.40    3.84 
   9  -7   1   22.00    3.84 
  -7  -2   1   24.92    4.36 
  -9  10  -1   -1.32    4.11 
  10  -1  -1    0.77    3.23 
  10  -1  -1    3.31    2.86 
  -9  10  -1   -3.35    3.65 
  -1  -9  -1   -0.24    2.15 
  10  -1  -1    4.45    3.30 
  10  -1  -1   -3.66    3.08 
  10  -1  -1   -3.03    3.85 
   9 -10   1    3.42    3.72 
   1   9   1   -4.60    3.64 
   1   9   1   -0.73    2.96 
   9 -10   1   -0.85    2.93 
 -10   1   1   -4.13    4.30 
   1   9   1    3.05    2.29 
  13  -4  -1   10.79    4.22 
  -9  13  -1   19.73    4.51 
  13  -4  -1   30.64    5.44 
  13  -4  -1   19.68    4.77 
  13  -4  -1   23.19    4.35 
  -4  -9  -1   23.82    3.40 
  -9  13  -1   34.84    5.40 
  13  -4  -1   30.31    4.92 
   4   9   1   23.12    4.33 
   4   9   1   28.89    5.15 
 -13   4   1   22.08    5.17 
   9 -13   1   25.50    4.37 
   4   9   1   26.53    4.08 
   4   9   1   30.50    3.09 
   9 -13   1   23.24    4.16 
  -9  16  -1   19.60    4.85 
  16  -7  -1    4.04    4.69 
  16  -7  -1    8.93    3.89 
  16  -7  -1   17.26    4.73 
  16  -7  -1    7.48    4.34 
  -9  16  -1   19.36    4.99 
   7   9   1   16.58    3.70 
   7   9   1   12.14    3.65 
 -16   7   1    2.29    5.15 
   9 -16   1   20.48    3.73 
   7   9   1   15.53    4.62 
   9 -16   1   15.63    4.05 
   9 -16   1   12.45    4.08 
  19 -10  -1   -2.40    4.10 
  -9  19  -1   -0.77    3.99 
  -9  19  -1   -1.97    2.17 
  -9  19  -1   -3.72    3.45 
  19 -10  -1   -3.43    2.44 
  19 -10  -1   -1.42    4.10 
  19 -10  -1    1.29    4.47 
 -10  -9  -1    3.91    4.44 
 -19  10   1    2.86    5.28 
 -19  10   1    3.26    3.69 
   9 -19   1    1.45    3.51 
  10   9   1    2.34    4.21 
  10   9   1   -2.68    3.55 
  10   9   1    2.81    3.30 
 -19  10   1    3.36    3.08 
  -6  16  -1   19.70    4.64 
  16 -10  -1   14.82    4.35 
 -10  -6  -1   17.02    4.90 
  16 -10  -1   13.99    5.08 
  16 -10  -1   15.37    5.51 
  16 -10  -1   16.59    5.12 
 -16  10   1   22.20    5.58 
   6 -16   1   28.60    4.12 
  10   6   1   17.92    3.99 
  10   6   1   22.85    4.15 
  10   6   1   19.29    5.11 
  13 -10  -1   50.15    7.69 
  13 -10  -1   47.36    6.36 
  13 -10  -1   51.81    6.64 
 -10  -3  -1   62.44    6.68 
  13 -10  -1   55.43    6.77 
  -3  13  -1   59.24    6.62 
   3 -13   1   53.93    5.89 
  10   3   1   66.45    7.17 
 -13  10   1   51.64    7.21 
 -13  10   1   47.38    5.86 
  10   3   1   59.25    6.55 
  10   3   1   58.01    6.13 
  10   3   1   54.93    5.65 
   0  10  -1  204.69   17.81 
 -10   0  -1  212.56   17.90 
   0  10  -1  204.23   17.64 
   0  10  -1  210.72   17.33 
  10 -10  -1  184.01   18.46 
  10 -10  -1  213.74   17.99 
  10 -10  -1  214.89   17.87 
  10   0   1  182.72   18.12 
   0 -10   1  214.53   17.16 
  10   0   1  212.95   17.57 
  10   0   1  209.44   17.84 
 -10  10   1  217.89   18.14 
  10   0   1  211.88   17.64 
  10   0   1  208.64   17.67 
 -10  10   1  190.21   17.62 
   0 -10   1  214.88   17.17 
   7 -10  -1   32.75    4.39 
   3   7  -1   29.86    3.47 
   3   7  -1   36.77    4.55 
   3   7  -1   30.06    3.73 
 -10   3  -1   21.95    4.26 
   7 -10  -1   30.09    3.94 
   7 -10  -1   29.94    4.54 
 -10   3  -1   29.52    3.47 
  -7  10   1   28.69    5.19 
  10  -3   1   26.18    4.23 
  -7  10   1   22.33    3.72 
  10  -3   1   20.61    3.65 
  -3  -7   1   19.12    2.41 
  10  -3   1   22.55    3.63 
  10  -3   1   28.61    4.62 
  10  -3   1   21.80    3.80 
   6   4  -1    0.93    2.82 
 -10   6  -1    1.30    2.67 
 -10   6  -1    4.55    3.78 
   6   4  -1    3.40    2.21 
   4 -10  -1    1.96    2.51 
   4 -10  -1    2.51    3.28 
   6   4  -1    5.03    3.12 
   6   4  -1    4.39    2.71 
  -4  10   1    1.95    4.17 
  10  -6   1    3.42    2.63 
  10  -6   1    1.40    3.53 
  -4  10   1    3.02    2.95 
  10  -6   1   -1.65    2.88 
  -6  -4   1    6.55    2.20 
  10  -6   1    4.53    3.33 
  10  -6   1    1.57    2.70 
   9   1  -1    1.06    3.42 
   9   1  -1   -1.57    1.76 
 -10   9  -1   -0.53    2.95 
   9   1  -1   -2.30    3.02 
   9   1  -1   -3.68    3.09 
   9   1  -1   -3.14    2.45 
 -10   9  -1    0.47    4.51 
   9   1  -1    1.77    3.19 
   1 -10  -1    0.58    2.68 
  -1  10   1   -0.15    2.91 
  10  -9   1    0.27    3.70 
  -1  10   1    3.07    3.41 
  -1  10   1    1.17    2.53 
  -9  -1   1   -3.31    4.25 
  10  -9   1    2.67    3.17 
  12  -2  -1   61.71    6.90 
  12  -2  -1   65.38    6.92 
  12  -2  -1   64.73    6.47 
  12  -2  -1   62.74    6.79 
  12  -2  -1   63.07    7.39 
 -10  12  -1   68.91    7.37 
 -10  12  -1   59.11    6.54 
  -2 -10  -1   56.36    6.10 
  10 -12   1   66.26    6.78 
   2  10   1   60.62    6.49 
   2  10   1   57.60    7.14 
  10 -12   1   57.30    7.08 
   2  10   1   61.30    5.66 
 -12   2   1   57.73    7.36 
  15  -5  -1   83.18    9.55 
  15  -5  -1   82.52    9.09 
  15  -5  -1   84.67    8.73 
  15  -5  -1   75.47    8.49 
 -10  15  -1   80.95    8.86 
  15  -5  -1   93.22    8.71 
 -10  15  -1   68.51    8.95 
   5  10   1   83.85    9.04 
  10 -15   1   75.96    8.95 
  10 -15   1   95.61    8.44 
   5  10   1   91.34    8.37 
 -15   5   1   84.34    9.36 
   5  10   1   85.96    8.30 
  10 -15   1   89.46    8.86 
  18  -8  -1   25.96    5.44 
  18  -8  -1   25.49    5.57 
 -10  18  -1   44.37    6.25 
 -10  18  -1   33.31    5.86 
  18  -8  -1   33.43    5.99 
 -10  18  -1   34.40    4.22 
 -18   8   1   30.41    6.55 
  10 -18   1   31.86    5.34 
   8  10   1   39.73    6.00 
   8  10   1   44.77    5.71 
   8  10   1   44.95    5.23 
  21 -11  -1    1.30    3.87 
  21 -11  -1    1.84    4.62 
 -10  21  -1   -2.58    2.33 
 -10  21  -1   -0.53    3.37 
  21 -11  -1    4.57    2.95 
  21 -11  -1   -1.05    4.18 
 -11 -10  -1    8.37    4.81 
  11  10   1    1.35    4.29 
  11  10   1    4.71    3.60 
  11  10   1    1.31    3.31 
 -21  11   1   -1.39    5.42 
 -21  11   1  -11.11    3.76 
 -21  11   1   -3.79    3.07 
  -7  18  -1   26.01    4.92 
  18 -11  -1   18.19    3.14 
  18 -11  -1    9.98    5.08 
 -11  -7  -1   20.79    5.24 
  18 -11  -1   18.15    4.72 
  18 -11  -1   20.96    4.99 
  11   7   1   21.33    4.15 
  11   7   1   19.80    4.12 
  11   7   1   15.67    5.31 
   7 -18   1   18.75    4.10 
 -18  11   1   11.26    3.98 
 -18  11   1    8.29    5.40 
  15 -11  -1   18.93    5.40 
 -11  -4  -1   11.72    4.30 
  15 -11  -1    9.29    4.09 
  15 -11  -1   13.18    4.79 
  15 -11  -1    4.80    4.07 
  -4  15  -1   12.05    4.24 
  11   4   1   10.96    4.52 
   4 -15   1   21.29    3.45 
 -15  11   1   13.97    5.14 
  11   4   1   16.90    2.65 
  11   4   1    8.02    3.52 
  11   4   1    7.67    3.79 
  12 -11  -1   48.85    6.09 
  12 -11  -1   59.06    6.34 
  -1  12  -1   49.75    5.46 
  -1  12  -1   44.59    4.73 
  -1  12  -1   52.08    6.08 
 -11  -1  -1   50.66    6.15 
  12 -11  -1   49.31    6.86 
 -12  11   1   43.79    5.33 
  11   1   1   47.44    5.22 
  11   1   1   52.59    6.08 
  11   1   1   43.89    6.32 
 -12  11   1   40.97    6.48 
  11   1   1   48.92    5.53 
   1 -12   1   46.62    5.14 
  11   1   1   45.54    5.04 
   9 -11  -1    0.79    3.08 
   9 -11  -1    0.94    3.69 
   2   9  -1    6.88    3.02 
   2   9  -1    3.20    2.33 
 -11   2  -1   -1.04    4.18 
   9 -11  -1    1.37    3.97 
   2   9  -1    6.15    3.49 
  11  -2   1    3.52    3.20 
  11  -2   1   -1.91    2.93 
  11  -2   1    5.09    2.99 
  -9  11   1   -0.81    4.59 
  11  -2   1    1.06    3.16 
  11  -2   1    0.84    3.87 
  -9  11   1    3.65    2.80 
   5   6  -1    1.33    1.34 
   5   6  -1    0.88    2.67 
   5   6  -1    0.95    2.74 
 -11   5  -1   -3.39    2.70 
   6 -11  -1    4.34    3.18 
 -11   5  -1    0.75    3.88 
   6 -11  -1    2.41    3.64 
   5   6  -1   -2.36    2.99 
   6 -11  -1    5.05    3.10 
  11  -5   1    0.89    2.96 
  11  -5   1   -4.91    3.33 
  11  -5   1   -5.08    3.16 
  11  -5   1    1.25    3.15 
  -6  11   1   -2.83    2.75 
  -6  11   1   -7.47    4.29 
  11  -5   1    1.23    2.90 
   8   3  -1    7.95    3.23 
 -11   8  -1   13.78    4.36 
   8   3  -1    9.69    2.28 
   8   3  -1    8.07    3.50 
   8   3  -1    7.23    2.53 
   3 -11  -1   17.73    2.56 
   3 -11  -1   12.95    3.35 
   8   3  -1   15.56    3.10 
   8   3  -1    9.85    2.86 
 -11   8  -1    8.56    2.95 
  11  -8   1    9.28    2.54 
  11  -8   1    9.86    3.70 
  11  -8   1    5.58    3.86 
  -3  11   1    7.60    3.58 
  11  -8   1    7.82    3.84 
  -8  -3   1   15.56    4.30 
  11  -8   1   12.54    2.72 
  11   0  -1   17.37    4.13 
   0 -11  -1   16.09    2.95 
  11   0  -1   20.14    4.13 
 -11  11  -1   16.24    4.86 
 -11  11  -1   10.55    4.00 
  11   0  -1   18.23    3.93 
  11   0  -1   20.75    3.37 
  11   0  -1   16.81    4.04 
   0  11   1   27.97    3.34 
   0  11   1   19.13    4.29 
 -11   0   1   22.36    4.94 
   0  11   1   13.59    3.40 
  11 -11   1   18.47    3.92 
  11 -11   1   19.34    4.39 
  14  -3  -1   34.94    5.22 
  14  -3  -1   29.52    5.30 
  14  -3  -1   30.66    4.74 
 -11  14  -1   31.67    5.78 
  14  -3  -1   30.50    5.39 
 -11  14  -1   36.98    5.38 
  14  -3  -1   31.58    5.28 
   3  11   1   39.88    4.94 
  11 -14   1   26.30    5.28 
   3  11   1   30.37    4.57 
  11 -14   1   35.46    5.48 
  11 -14   1   35.00    5.14 
 -14   3   1   28.59    5.71 
   3  11   1   43.65    5.71 
  17  -6  -1   30.02    6.15 
  17  -6  -1   34.05    5.78 
  17  -6  -1   29.52    5.43 
  17  -6  -1   40.81    5.65 
  17  -6  -1   33.52    5.47 
 -11  17  -1   45.93    6.50 
 -11  17  -1   44.84    5.93 
   6  11   1   48.47    5.74 
 -17   6   1   32.60    6.68 
   6  11   1   41.98    5.62 
  11 -17   1   37.62    5.99 
  11 -17   1   39.85    5.24 
   6  11   1   44.94    6.44 
  11 -17   1   42.68    5.94 
  20  -9  -1   12.91    5.00 
  20  -9  -1    2.10    4.03 
 -11  20  -1    9.61    2.54 
  20  -9  -1    2.88    2.93 
  20  -9  -1    6.91    3.92 
 -11  20  -1   10.89    3.80 
 -20   9   1   -1.75    3.21 
 -20   9   1   10.37    5.77 
   9  11   1   13.55    3.55 
   9  11   1   11.16    3.99 
  11 -20   1    4.63    4.17 
 -20   9   1    5.24    4.27 
   9  11   1   11.80    4.65 
  23 -12  -1  -11.13    4.27 
  23 -12  -1    0.40    3.07 
 -11  23  -1   -0.73    3.68 
  23 -12  -1    0.77    4.32 
  23 -12  -1    2.32    4.49 
 -11  23  -1    1.43    2.51 
 -12 -11  -1    7.15    4.97 
 -23  12   1   -1.88    5.08 
 -23  12   1    0.55    4.15 
  12  11   1    3.53    4.18 
 -23  12   1    1.36    3.16 
  -8  20  -1   -2.52    2.16 
  20 -12  -1   -1.70    4.57 
  20 -12  -1    0.00    2.58 
  20 -12  -1    1.13    3.81 
  20 -12  -1    0.68    3.89 
  -8  20  -1    0.02    3.36 
 -12  -8  -1   -2.36    4.29 
 -20  12   1   -4.20    2.94 
 -20  12   1    2.16    5.32 
  12   8   1    1.75    3.35 
 -20  12   1    0.60    3.72 
  12   8   1   -2.76    3.11 
  12   8   1   -0.65    4.64 
  17 -12  -1   -1.91    4.28 
 -12  -5  -1    4.28    4.31 
  17 -12  -1    0.04    3.94 
  -5  17  -1    0.52    3.78 
  17 -12  -1   -5.30    4.49 
 -17  12   1    2.42    4.95 
  12   5   1    2.36    3.19 
  12   5   1   -0.21    4.45 
  12   5   1   -1.29    3.51 
  14 -12  -1   24.86    5.17 
  -2  14  -1   22.48    3.98 
  14 -12  -1   17.68    4.79 
 -12  -2  -1   21.89    5.02 
  -2  14  -1   25.44    4.73 
  14 -12  -1   16.29    5.31 
 -14  12   1   16.77    5.34 
   2 -14   1   13.58    3.31 
  12   2   1   26.05    3.63 
  12   2   1   25.70    3.98 
  12   2   1   21.74    4.94 
  12   2   1   25.39    4.55 
 -12   1  -1   46.02    6.19 
   1  11  -1   43.41    4.86 
  11 -12  -1   43.66    6.91 
   1  11  -1   53.65    5.95 
   1  11  -1   58.03    5.74 
  11 -12  -1   50.28    6.28 
  11 -12  -1   46.48    6.07 
 -11  12   1   47.35    6.78 
  12  -1   1   52.14    6.01 
 -11  12   1   37.75    5.16 
  12  -1   1   54.90    5.90 
  12  -1   1   61.02    5.60 
  12  -1   1   42.74    6.10 
  12  -1   1   50.59    5.51 
 -12   4  -1   10.72    4.49 
   8 -12  -1    7.08    3.71 
   8 -12  -1   10.57    3.75 
   4   8  -1    8.87    2.92 
   4   8  -1    5.26    3.32 
 -12   4  -1    9.25    2.70 
   4   8  -1   12.09    3.30 
   8 -12  -1   16.91    3.77 
  12  -4   1    8.91    3.36 
  12  -4   1   16.40    3.99 
  -8  12   1   20.90    5.20 
  12  -4   1   14.31    3.32 
  -8  12   1    7.18    2.92 
  12  -4   1   12.19    3.42 
  12  -4   1   12.03    3.93 
 -12   7  -1   19.96    3.23 
   5 -12  -1   14.09    3.78 
   7   5  -1   15.47    3.09 
   7   5  -1   15.21    2.68 
 -12   7  -1   15.69    4.58 
   7   5  -1   15.47    3.57 
   7   5  -1   23.73    3.82 
   5 -12  -1   24.53    3.46 
  12  -7   1   17.84    3.50 
  12  -7   1   25.80    4.44 
  12  -7   1   13.20    3.33 
  -5  12   1   26.83    5.04 
  12  -7   1   20.56    4.16 
  12  -7   1   23.54    3.97 
  -5  12   1   15.00    3.55 
  10   2  -1   59.49    5.92 
  10   2  -1   61.20    6.61 
 -12  10  -1   54.21    7.55 
   2 -12  -1   59.07    6.36 
 -12  10  -1   61.86    6.46 
  10   2  -1   69.75    6.76 
  10   2  -1   56.72    6.52 
  10   2  -1   70.80    6.87 
 -10  -2   1   63.40    7.35 
  12 -10   1   59.44    6.65 
  12 -10   1   61.73    7.11 
  -2  12   1   61.73    7.04 
 -12  13  -1   -2.56    4.35 
  13  -1  -1    1.15    3.50 
 -12  13  -1    1.96    3.24 
  13  -1  -1   -4.07    3.73 
  13  -1  -1    0.69    2.98 
  13  -1  -1   -0.08    3.51 
  13  -1  -1    0.27    3.59 
  12 -13   1    6.18    3.93 
   1  12   1    3.41    3.14 
 -13   1   1    2.84    4.76 
  12 -13   1   -2.94    3.81 
   1  12   1   -0.93    3.57 
  16  -4  -1    3.79    3.92 
  16  -4  -1   -0.54    4.04 
  16  -4  -1    1.85    4.02 
 -12  16  -1    2.05    4.84 
 -12  16  -1    4.57    3.65 
  16  -4  -1    8.10    4.33 
  16  -4  -1    9.54    3.62 
   4  12   1    7.27    3.63 
 -16   4   1    3.39    4.86 
   4  12   1    3.76    3.86 
  12 -16   1    9.05    3.74 
  12 -16   1    3.54    4.33 
  12 -16   1   -0.71    4.43 
   4  12   1    7.54    3.26 
 -12  19  -1   -4.40    4.67 
  19  -7  -1    4.99    4.20 
 -12  19  -1    3.79    2.36 
  19  -7  -1    3.76    2.69 
  19  -7  -1    1.67    3.80 
 -12  19  -1    2.34    4.01 
  19  -7  -1    5.84    3.99 
 -12  19  -1    6.84    3.29 
  19  -7  -1   -3.03    3.43 
 -19   7   1    3.73    3.96 
  12 -19   1    3.71    4.19 
   7  12   1   -0.92    3.38 
   7  12   1    6.83    3.63 
 -19   7   1    1.13    5.42 
   7  12   1    2.59    4.08 
  22 -10  -1   -2.53    4.37 
 -12  22  -1   12.17    3.97 
  22 -10  -1    5.76    3.96 
  22 -10  -1    1.13    2.99 
  22 -10  -1    6.22    4.15 
 -12  22  -1    8.16    2.65 
 -22  10   1   11.43    4.63 
  10  12   1    9.01    4.00 
 -22  10   1   -1.55    5.33 
 -22  10   1    6.06    3.40 
  10  12   1    7.77    4.74 
 -12  25  -1    1.85    3.68 
  25 -13  -1    5.26    4.34 
  25 -13  -1    4.27    4.28 
 -12  25  -1    2.09    2.61 
 -13 -12  -1    4.69    4.72 
  25 -13  -1    7.22    2.96 
 -25  13   1    9.13    4.96 
 -25  13   1   -2.73    5.13 
  13  12   1    5.53    4.15 
 -25  13   1    7.15    3.39 
  22 -13  -1   -0.58    3.07 
  -9  22  -1    5.95    2.39 
  22 -13  -1    5.33    4.07 
  -9  22  -1    5.24    3.25 
  22 -13  -1   -1.55    3.82 
  22 -13  -1    8.92    5.02 
 -13  -9  -1    0.36    4.43 
 -22  13   1    0.90    5.17 
  13   9   1   -1.08    3.30 
 -22  13   1   -3.14    3.16 
 -22  13   1   -1.77    3.88 
  13   9   1    5.28    4.85 
  -6  19  -1    4.25    2.16 
  19 -13  -1    4.77    2.69 
  19 -13  -1   10.80    4.69 
  19 -13  -1   -0.60    4.17 
 -13  -6  -1    2.84    4.52 
  19 -13  -1    1.90    4.76 
 -19  13   1    8.02    5.55 
  13   6   1   13.08    5.07 
  13   6   1    8.34    3.51 
  13   6   1   11.12    3.64 
 -19  13   1    3.15    3.80 
 -19  13   1    2.29    2.89 
  16 -13  -1   37.01    6.37 
 -13  -3  -1   52.03    7.08 
  -3  16  -1   47.54    6.19 
  16 -13  -1   32.73    6.02 
  16 -13  -1   36.82    7.01 
  16 -13  -1   43.98    5.93 
  13   3   1   48.56    6.13 
  13   3   1   48.26    6.80 
 -16  13   1   34.20    6.77 
  13   3   1   47.65    5.06 
  13   3   1   53.91    5.94 
   0  13  -1  134.11   11.94 
  13 -13  -1  128.88   12.39 
  13 -13  -1  124.05   13.16 
   0  13  -1  133.66   11.45 
   0  13  -1  123.89   12.07 
  13 -13  -1  133.26   12.53 
 -13   0  -1  129.18   12.73 
  13   0   1  129.08   12.00 
  13   0   1  134.35   11.95 
  13   0   1  151.11   12.74 
  13   0   1  134.59   12.03 
  13   0   1  129.33   11.80 
 -13  13   1  148.07   12.82 
   3  10  -1   54.84    5.99 
  10 -13  -1   50.28    6.16 
   3  10  -1   55.56    5.53 
   3  10  -1   58.18    5.98 
 -13   3  -1   50.59    6.79 
  10 -13  -1   37.26    6.46 
  10 -13  -1   56.20    6.42 
  13  -3   1   50.37    5.99 
  13  -3   1   45.68    5.72 
  13  -3   1   50.89    6.00 
  13  -3   1   54.35    6.00 
 -10  13   1   58.39    7.28 
  13  -3   1   58.50    6.67 
   6   7  -1   25.94    4.03 
   7 -13  -1   26.46    3.89 
 -13   6  -1   25.43    5.45 
   7 -13  -1   25.10    4.60 
   7 -13  -1   22.46    3.96 
   6   7  -1   23.68    3.69 
   6   7  -1   25.09    3.85 
  13  -6   1   18.12    4.07 
  -7  13   1   20.49    3.55 
  -7  13   1   27.53    5.38 
  13  -6   1   17.73    4.33 
  13  -6   1   20.71    3.64 
  13  -6   1   19.37    3.91 
  13  -6   1   17.19    4.16 
   9   4  -1   27.23    3.68 
   4 -13  -1   25.81    4.15 
 -13   9  -1   22.35    5.05 
   9   4  -1   28.84    4.34 
   9   4  -1   28.04    3.53 
   9   4  -1   27.16    4.14 
 -13   9  -1   19.98    3.78 
  13  -9   1   24.90    4.65 
  -9  -4   1   20.70    5.04 
  13  -9   1   19.22    3.61 
  13  -9   1   29.26    4.71 
  13  -9   1   22.68    4.85 
  -4  13   1   26.05    3.88 
  12   1  -1   -0.94    3.59 
  12   1  -1    7.42    3.29 
 -13  12  -1    0.17    5.07 
 -13  12  -1    3.74    3.34 
  12   1  -1   -1.78    3.24 
  12   1  -1   -2.03    3.13 
  12   1  -1    1.62    2.43 
  -1  13   1   -2.44    3.25 
 -12  -1   1   -0.86    4.49 
  13 -12   1   -3.29    3.85 
  13 -12   1   -0.78    3.95 
  -1  13   1    3.09    2.73 
 -13  15  -1   61.75    7.35 
  15  -2  -1   56.70    7.45 
  15  -2  -1   67.11    7.02 
  15  -2  -1   61.26    7.35 
 -13  15  -1   73.55    8.23 
  15  -2  -1   65.63    7.39 
  15  -2  -1   70.48    8.01 
  13 -15   1   58.95    7.96 
   2  13   1   72.27    6.92 
   2  13   1   67.93    7.58 
  13 -15   1   76.11    7.84 
 -15   2   1   62.37    7.94 
   2  13   1   63.79    6.97 
  13 -15   1   71.83    7.64 
 -13  18  -1   34.95    4.10 
  18  -5  -1   26.30    5.96 
  18  -5  -1   33.80    5.12 
  18  -5  -1   26.59    5.63 
 -13  18  -1   42.48    6.48 
  18  -5  -1   35.28    5.56 
 -13  18  -1   34.63    5.36 
  18  -5  -1   25.21    5.32 
 -13  18  -1   33.81    4.64 
   5  13   1   49.27    5.28 
   5  13   1   37.95    5.64 
 -18   5   1   26.74    6.33 
   5  13   1   43.53    5.39 
  13 -18   1   29.34    5.13 
  13 -18   1   28.22    5.85 
  13 -18   1   41.42    6.14 
 -13  21  -1   -8.17    5.06 
  21  -8  -1    6.08    2.77 
  21  -8  -1    3.35    4.34 
  21  -8  -1    2.68    3.92 
 -13  21  -1    4.26    2.56 
  21  -8  -1    1.16    4.04 
 -13  21  -1   -3.45    3.72 
 -21   8   1   -0.07    3.80 
   8  13   1   -1.88    2.13 
  13 -21   1    5.13    4.39 
   8  13   1    0.30    4.02 
   8  13   1    0.70    3.03 
   8  13   1   -2.27    3.44 
 -21   8   1   11.62    5.94 
  24 -11  -1    8.12    4.46 
 -13  24  -1    6.92    2.80 
  24 -11  -1    8.16    2.93 
 -13  24  -1    8.22    4.00 
  24 -11  -1   -0.46    4.24 
 -11 -13  -1   10.10    5.05 
 -24  11   1    4.21    3.61 
  11  13   1   11.86    4.67 
 -24  11   1   10.40    6.42 
 -24  11   1   20.53    5.03 
 -13  27  -1   15.23    3.41 
  27 -14  -1    9.71    5.07 
 -13  27  -1   12.39    4.17 
  27 -14  -1    4.46    4.77 
  27 -14  -1   12.38    3.74 
 -14 -13  -1   18.27    5.99 
 -27  14   1   14.47    3.88 
 -27  14   1   13.10    6.39 
  14  13   1   18.01    5.12 
 -27  14   1   13.99    5.34 
  24 -14  -1   15.44    3.50 
  24 -14  -1   13.93    5.20 
 -10  24  -1   18.07    3.98 
 -10  24  -1   20.26    3.19 
  24 -14  -1   25.95    5.71 
 -14 -10  -1   17.69    5.48 
 -24  14   1   19.50    4.91 
 -24  14   1   17.20    6.64 
 -24  14   1   24.32    4.25 
  14  10   1   21.62    4.71 
  -7  21  -1    5.35    2.46 
 -14  -7  -1    8.13    5.51 
  21 -14  -1    2.55    2.73 
  -7  21  -1   10.34    3.26 
  21 -14  -1    1.22    3.95 
  21 -14  -1   -0.61    4.55 
  21 -14  -1   -1.44    4.07 
 -21  14   1    4.26    3.94 
 -21  14   1    5.63    5.38 
 -21  14   1    4.12    3.02 
  14   7   1    0.98    3.36 
  14   7   1    1.14    5.45 
  18 -14  -1   14.24    5.07 
  18 -14  -1   16.68    5.26 
 -14  -4  -1   13.18    5.17 
  18 -14  -1   11.61    4.76 
  18 -14  -1   23.17    3.52 
 -18  14   1   17.43    4.14 
  14   4   1   15.79    4.29 
 -18  14   1   14.01    5.44 
  14   4   1   20.84    5.38 
  14   4   1   24.24    4.55 
  15 -14  -1   28.45    5.92 
  15 -14  -1   26.88    5.02 
  -1  15  -1   26.57    4.70 
  -1  15  -1   23.96    4.05 
  15 -14  -1   27.27    5.10 
 -14  -1  -1   13.97    5.47 
 -15  14   1   18.94    5.54 
  14   1   1   21.54    4.44 
  14   1   1   25.67    3.97 
  14   1   1   25.97    4.88 
  14   1   1   28.33    5.54 
  12 -14  -1   20.75    4.46 
  12 -14  -1   27.84    5.71 
   2  12  -1   27.54    4.37 
   2  12  -1   27.77    4.20 
 -14   2  -1   21.98    5.26 
   2  12  -1   22.91    3.18 
  12 -14  -1   23.06    4.77 
  14  -2   1   18.17    3.81 
  14  -2   1   13.05    4.50 
  14  -2   1   15.37    4.05 
  14  -2   1   22.75    4.01 
  14  -2   1   12.38    4.42 
 -12  14   1   24.02    5.71 
   9 -14  -1    6.37    3.95 
 -14   5  -1    7.66    4.81 
   5   9  -1    0.30    3.00 
   9 -14  -1    0.88    3.22 
   5   9  -1    4.34    2.58 
   5   9  -1   -0.42    2.91 
   9 -14  -1   -5.76    3.24 
  14  -5   1   -3.28    3.14 
  -9  14   1   -0.80    4.84 
  14  -5   1    1.88    3.40 
  14  -5   1    3.25    3.62 
  14  -5   1    2.58    3.48 
  14  -5   1   -1.35    3.56 
 -14   8  -1    3.82    4.39 
   8   6  -1    7.50    3.36 
   8   6  -1    1.53    3.11 
   6 -14  -1    3.22    3.30 
   6 -14  -1    4.14    2.85 
  -6  14   1   -5.14    4.40 
  14  -8   1    5.24    3.10 
  14  -8   1    8.15    3.90 
  -6  14   1    2.84    2.87 
  -8  -6   1    4.09    4.44 
  14  -8   1    9.97    3.89 
  14  -8   1    3.35    4.38 
  11   3  -1   29.73    4.51 
 -14  11  -1   29.39    4.38 
  11   3  -1   27.47    4.26 
 -14  11  -1   28.37    5.64 
  11   3  -1   31.06    5.02 
  14 -11   1   25.25    4.69 
  -3  14   1   38.73    4.88 
  14 -11   1   29.03    5.14 
 -11  -3   1   28.41    5.54 
  14 -11   1   32.89    5.45 
  14   0  -1   34.23    5.66 
  14   0  -1   35.56    5.26 
  14   0  -1   39.85    4.55 
  14   0  -1   45.46    5.42 
 -14  14  -1   37.84    6.32 
 -14  14  -1   35.30    4.95 
  14   0  -1   35.48    5.17 
  14 -14   1   32.09    5.75 
  14 -14   1   38.71    6.36 
   0  14   1   36.22    4.86 
   0  14   1   42.44    5.54 
 -14   0   1   39.12    6.35 
  14 -14   1   38.66    6.55 
 -14  17  -1   58.02    6.11 
 -14  17  -1   48.57    5.55 
 -14  17  -1   57.73    7.67 
  17  -3  -1   61.63    6.38 
 -14  17  -1   48.55    6.52 
  17  -3  -1   53.23    6.93 
  17  -3  -1   62.39    6.56 
  17  -3  -1   42.41    6.56 
  17  -3  -1   57.99    7.44 
   3  14   1   57.64    6.73 
   3  14   1   53.28    6.21 
   3  14   1   60.94    6.46 
  14 -17   1   66.85    7.72 
  14 -17   1   46.38    7.53 
  14 -17   1   58.55    6.83 
 -17   3   1   51.72    7.41 
  20  -6  -1   21.15    5.00 
 -14  20  -1   35.05    6.19 
  20  -6  -1   18.74    5.21 
  20  -6  -1   22.36    3.57 
 -14  20  -1   35.19    4.11 
 -14  20  -1   25.94    4.20 
  20  -6  -1   31.30    5.04 
  20  -6  -1   24.21    5.18 
 -14  20  -1   27.72    4.41 
  14 -20   1   34.08    5.87 
   6  14   1   40.08    6.24 
   6  14   1   27.51    3.41 
   6  14   1   38.91    5.66 
 -20   6   1   42.14    4.74 
   6  14   1   34.87    4.70 
  14 -20   1   26.92    4.89 
 -20   6   1   27.35    6.57 
  23  -9  -1    2.35    4.04 
 -14  23  -1    3.58    2.77 
  23  -9  -1   -3.14    3.83 
 -14  23  -1   -4.44    3.88 
  23  -9  -1   -0.92    4.28 
  23  -9  -1    3.69    2.89 
 -23   9   1    1.19    4.55 
 -23   9   1   -3.46    5.48 
  14 -23   1    0.23    4.22 
   9  14   1    4.48    4.49 
   9  14   1   -0.91    3.58 
 -23   9   1    3.28    3.39 
  26 -12  -1    4.57    4.40 
 -14  26  -1   -0.62    3.01 
 -14  26  -1    0.78    3.72 
  26 -12  -1   -3.97    3.06 
 -12 -14  -1    8.89    5.25 
  26 -12  -1   -4.73    3.94 
 -26  12   1    6.22    5.54 
 -26  12   1    4.12    4.45 
 -26  12   1   -1.00    3.93 
  12  14   1    0.16    3.89 
 -14  29  -1   -3.34    3.15 
 -14  29  -1   -4.02    3.57 
  29 -15  -1   -1.40    3.48 
 -29  15   1    1.74    4.74 
 -29  15   1   -2.45    3.92 
  26 -15  -1    1.51    4.82 
 -11  26  -1   -1.68    3.43 
 -15 -11  -1   10.06    5.32 
  26 -15  -1    1.90    4.40 
 -11  26  -1    0.11    2.74 
  26 -15  -1    3.07    3.06 
 -26  15   1   -3.55    6.15 
 -26  15   1   14.20    5.21 
 -26  15   1    3.99    3.75 
  15  11   1    4.97    3.94 
  23 -15  -1   13.16    4.94 
  -8  23  -1    3.05    3.38 
  23 -15  -1   12.32    3.13 
  23 -15  -1    4.36    4.95 
 -15  -8  -1    8.96    5.00 
  -8  23  -1    2.74    2.52 
 -23  15   1    6.61    5.50 
 -23  15   1   11.51    4.41 
  15   8   1    3.40    3.60 
 -23  15   1    4.52    3.17 
  20 -15  -1    1.36    2.66 
  -5  20  -1    5.70    3.46 
  -5  20  -1    0.43    1.94 
  20 -15  -1   -0.80    4.40 
  20 -15  -1    1.87    4.72 
  20 -15  -1   -1.48    4.81 
 -15  -5  -1   -0.01    4.50 
 -20  15   1    1.42    3.09 
 -20  15   1    2.13    4.23 
  15   5   1   -3.11    3.40 
  15   5   1    6.68    5.18 
 -20  15   1    2.84    4.91 
  15   5   1    0.43    3.59 
 -20  15   1    4.15    3.46 
  17 -15  -1    2.33    4.07 
 -15  -2  -1   -0.10    4.35 
  17 -15  -1    2.32    4.42 
  17 -15  -1   -5.12    4.13 
  17 -15  -1   -2.09    2.47 
 -17  15   1   -1.06    3.46 
  15   2   1    1.54    3.21 
  15   2   1    1.05    4.60 
 -17  15   1   -1.24    4.91 
  15   2   1    3.14    4.39 
   1  14  -1   21.37    4.43 
   1  14  -1   27.39    4.31 
  14 -15  -1   21.69    5.38 
 -15   1  -1   19.96    5.09 
  14 -15  -1   20.80    4.72 
  14 -15  -1   21.14    4.35 
  15  -1   1   29.19    5.36 
  15  -1   1   17.53    4.24 
 -14  15   1   25.72    5.85 
  15  -1   1   24.27    4.20 
  15  -1   1   21.72    3.72 
 -14  15   1   19.26    2.94 
  15  -1   1   25.46    5.02 
   4  11  -1    9.47    3.73 
 -15   4  -1   10.63    4.93 
  11 -15  -1   13.66    4.18 
  11 -15  -1   13.02    3.98 
  11 -15  -1   10.32    4.15 
   4  11  -1   11.39    3.69 
   4  11  -1   13.79    2.99 
  15  -4   1    9.18    3.80 
  15  -4   1   10.32    3.84 
  15  -4   1   15.09    4.56 
  15  -4   1   18.49    4.06 
  15  -4   1   15.18    3.64 
 -11  15   1    4.74    5.30 
   8 -15  -1   33.34    5.37 
   8 -15  -1   40.89    4.96 
 -15   7  -1   35.70    6.07 
   7   8  -1   38.31    5.00 
   7   8  -1   40.04    5.02 
  15  -7   1   41.22    5.45 
  15  -7   1   34.33    4.89 
  15  -7   1   34.09    5.32 
  -8  15   1   43.13    6.42 
  15  -7   1   34.90    5.74 
  10   5  -1   78.26    8.04 
   5 -15  -1   90.73    8.47 
 -15  10  -1   76.86    8.86 
  10   5  -1   83.66    8.08 
  15 -10   1   75.84    8.36 
  -5  15   1   80.59    7.84 
  15 -10   1   78.02    7.90 
  15 -10   1   85.36    8.40 
 -10  -5   1   76.27    8.69 
  15 -10   1   83.03    9.10 
  13   2  -1   67.85    6.82 
 -15  13  -1   69.10    8.04 
  13   2  -1   64.67    7.18 
  13   2  -1   71.56    7.14 
  15 -13   1   55.20    8.05 
  15 -13   1   68.02    7.31 
  -2  15   1   63.64    7.34 
 -13  -2   1   62.05    7.96 
  15 -13   1   65.28    7.29 
  15 -13   1   55.28    7.71 
  16  -1  -1    2.95    4.26 
 -15  16  -1    3.48    3.12 
 -15  16  -1    1.11    3.60 
 -15  16  -1    1.25    5.05 
  16  -1  -1    4.35    3.57 
  16  -1  -1   10.07    4.23 
 -16   1   1    5.73    5.04 
  15 -16   1    6.97    5.13 
   1  15   1    0.49    3.39 
   1  15   1    1.22    3.07 
   1  15   1    0.99    3.01 
  15 -16   1    4.50    4.13 
  15 -16   1   -0.22    4.16 
 -15  19  -1    6.45    3.85 
  19  -4  -1   11.01    4.63 
 -15  19  -1   10.88    3.74 
  19  -4  -1   12.74    4.57 
  19  -4  -1   10.26    3.75 
  19  -4  -1   12.69    3.88 
 -15  19  -1    6.00    5.09 
 -15  19  -1    8.81    3.94 
 -15  19  -1    9.73    2.76 
   4  15   1   13.98    4.15 
 -19   4   1   12.58    3.94 
   4  15   1    8.90    2.35 
  15 -19   1   13.56    5.03 
   4  15   1    9.45    3.40 
 -19   4   1   12.50    5.53 
  15 -19   1    2.22    3.84 
   4  15   1    5.89    3.76 
  15 -19   1   10.15    2.78 
 -15  22  -1   19.13    3.17 
  22  -7  -1   10.42    4.29 
 -15  22  -1   22.05    4.30 
  22  -7  -1   13.23    3.05 
  22  -7  -1   10.08    4.72 
 -15  22  -1   10.35    3.54 
 -15  22  -1   15.93    5.50 
  22  -7  -1   16.85    4.32 
   7  15   1   21.11    5.08 
 -22   7   1   21.80    4.37 
   7  15   1   10.78    2.68 
 -22   7   1    7.85    6.00 
   7  15   1   20.89    4.68 
  15 -22   1    9.62    4.83 
  25 -10  -1   -0.36    4.28 
 -15  25  -1   10.94    4.24 
 -15  25  -1   11.82    3.10 
  25 -10  -1    4.11    2.77 
  25 -10  -1    5.68    4.55 
 -25  10   1   -0.41    3.94 
 -25  10   1   18.46    4.59 
  10  15   1   17.06    4.90 
 -25  10   1   -2.61    6.30 
 -15  28  -1    9.88    3.39 
 -15  28  -1   10.79    4.09 
  28 -13  -1    4.21    4.91 
  28 -13  -1   14.57    3.68 
 -13 -15  -1   14.78    5.77 
 -28  13   1    9.35    5.30 
 -28  13   1    7.45    3.87 
  13  15   1   15.08    4.66 
  31 -16  -1    7.61    3.70 
 -15  31  -1    7.65    3.94 
 -15  31  -1    7.84    3.31 
 -31  16   1    6.99    4.10 
 -31  16   1   -3.57    5.44 
 -12  28  -1   13.63    3.22 
 -12  28  -1   14.55    3.92 
  28 -16  -1    8.52    3.44 
 -16 -12  -1   12.47    5.63 
 -28  16   1   10.10    4.02 
 -28  16   1    2.94    5.35 
  16  12   1    8.03    4.28 
  -9  25  -1    4.68    3.54 
  25 -16  -1   11.39    3.64 
 -16  -9  -1    9.12    5.20 
  25 -16  -1    8.15    5.38 
  25 -16  -1    9.14    5.07 
  -9  25  -1    7.07    2.50 
 -25  16   1   12.83    3.74 
  16   9   1    9.82    4.08 
 -25  16   1   17.44    4.75 
 -25  16   1    5.95    5.33 
  22 -16  -1    3.72    4.28 
 -16  -6  -1    4.97    4.78 
  -6  22  -1    3.55    2.37 
  -6  22  -1    2.00    3.29 
  22 -16  -1   -0.72    3.21 
  22 -16  -1   -0.42    4.82 
 -22  16   1    0.32    3.68 
  16   6   1   -1.61    3.23 
 -22  16   1    7.54    2.88 
 -22  16   1    7.70    4.63 
 -22  16   1   -1.32    5.06 
  19 -16  -1   11.36    4.94 
 -16  -3  -1    6.18    4.63 
  19 -16  -1    4.44    2.75 
  19 -16  -1    1.94    3.77 
  19 -16  -1    5.75    4.30 
  16   3   1    3.01    3.52 
 -19  16   1    3.87    3.72 
 -19  16   1    8.30    5.32 
 -19  16   1   -2.05    3.14 
  16   3   1    1.43    3.25 
 -19  16   1    6.42    3.61 
 -19  16   1    4.67    2.64 
 -16   0  -1   16.06    5.34 
  16 -16  -1   26.77    3.63 
  16 -16  -1   20.67    5.41 
   0  16  -1   30.17    4.40 
  16 -16  -1   23.60    4.54 
  16   0   1   26.42    4.21 
  16   0   1   37.95    6.50 
  16   0   1   21.13    4.21 
 -16  16   1   16.86    5.79 
  16   0   1   23.15    4.84 
 -16  16   1   19.38    4.28 
  13 -16  -1   41.27    5.87 
  13 -16  -1   38.29    6.36 
 -16   3  -1   33.64    6.22 
   3  13  -1   59.04    5.93 
   3  13  -1   46.05    4.80 
  13 -16  -1   42.38    5.41 
  16  -3   1   42.49    5.54 
  16  -3   1   42.20    5.69 
  16  -3   1   35.19    5.59 
  16  -3   1   44.99    6.33 
 -13  16   1   37.32    6.93 
  16  -3   1   45.38    5.64 
  10 -16  -1   18.17    3.96 
  10 -16  -1   18.08    4.06 
   6  10  -1   20.56    3.76 
  10 -16  -1   19.72    4.53 
 -16   6  -1   15.50    5.15 
   6  10  -1   22.59    4.10 
  16  -6   1   18.32    4.04 
 -10  16   1   18.33    5.73 
  16  -6   1   14.31    4.05 
  16  -6   1   16.76    3.99 
  16  -6   1   14.18    4.11 
   9   7  -1   11.43    3.82 
   7 -16  -1   11.12    3.66 
 -16   9  -1    5.17    4.71 
   9   7  -1   13.95    3.65 
  -9  -7   1   14.25    4.74 
  16  -9   1    9.53    3.30 
  16  -9   1   10.24    4.15 
  16  -9   1    4.19    4.07 
  16  -9   1   15.27    4.31 
 -16  12  -1    7.46    4.90 
  12   4  -1   10.51    3.48 
  12   4  -1    7.06    2.72 
  12   4  -1    4.03    3.61 
  16 -12   1    8.14    4.96 
 -12  -4   1   10.67    4.86 
  16 -12   1    2.97    4.21 
  16 -12   1    3.63    3.73 
  -4  16   1    9.76    3.20 
  15   1  -1    0.63    3.82 
  15   1  -1    3.98    3.32 
  15   1  -1    2.10    3.91 
 -16  15  -1   -1.98    5.59 
 -16  15  -1    5.58    3.28 
  16 -15   1    5.70    3.82 
  16 -15   1    3.07    5.06 
  -1  16   1    6.11    3.49 
 -15  -1   1    4.95    5.03 
  18  -2  -1   23.57    4.72 
  18  -2  -1   16.08    4.48 
  18  -2  -1   17.93    5.45 
 -16  18  -1   15.48    4.30 
 -16  18  -1   25.43    6.46 
 -16  18  -1   22.76    4.48 
 -16  18  -1   23.47    3.45 
   2  16   1   22.09    4.91 
  16 -18   1   24.46    5.34 
   2  16   1   27.96    4.35 
  16 -18   1   19.73    4.48 
   2  16   1   28.21    4.43 
  16 -18   1   25.25    3.55 
 -18   2   1   16.61    5.67 
 -18   2   1   16.71    4.10 
   2  16   1   26.00    3.25 
 -16  21  -1    4.88    5.14 
  21  -5  -1    0.46    4.33 
 -16  21  -1    4.92    2.73 
  21  -5  -1    5.69    4.03 
 -16  21  -1    1.70    3.84 
 -16  21  -1    7.00    3.31 
   5  16   1    7.68    3.79 
 -21   5   1    3.96    6.21 
   5  16   1    4.28    2.96 
  16 -21   1   -3.31    4.41 
   5  16   1    3.45    4.32 
  16 -21   1    5.00    4.00 
   5  16   1    0.79    2.23 
 -21   5   1   11.31    3.67 
  24  -8  -1    3.27    3.71 
 -16  24  -1    7.53    4.22 
 -16  24  -1   -5.51    3.17 
  24  -8  -1   -1.84    4.01 
  24  -8  -1   -2.19    2.37 
 -24   8   1   -2.96    4.04 
   8  16   1    4.07    4.03 
 -24   8   1   -0.90    6.35 
  16 -24   1   -8.89    4.17 
 -16  27  -1    0.49    2.78 
  27 -11  -1   -0.69    3.04 
  27 -11  -1   -3.22    4.27 
 -16  27  -1   -6.19    3.95 
  27 -11  -1    4.51    4.22 
 -11 -16  -1    9.22    5.59 
 -27  11   1   -0.69    4.92 
 -27  11   1    1.66    3.69 
  11  16   1    1.00    4.33 
 -27  11   1    2.07    5.80 
 -16  30  -1   14.52    3.33 
  30 -14  -1   11.88    3.80 
 -16  30  -1    9.28    4.17 
 -30  14   1   11.07    5.09 
 -30  14   1    8.22    3.96 
 -16  33  -1   -2.84    3.46 
 -16  33  -1    1.54    3.10 
  33 -17  -1    1.08    3.67 
 -33  17   1    1.94    3.84 
 -33  17   1    7.11    4.95 
 -13  30  -1   20.62    4.16 
 -13  30  -1   14.21    3.28 
  30 -17  -1   17.10    3.94 
 -30  17   1   14.18    3.84 
 -30  17   1   15.15    5.81 
 -17 -10  -1   23.27    6.13 
 -10  27  -1   24.21    4.26 
  27 -17  -1    7.10    5.24 
 -10  27  -1   25.44    3.79 
  27 -17  -1   25.73    6.23 
  27 -17  -1   29.10    4.21 
 -27  17   1   26.01    4.30 
 -27  17   1   31.86    5.84 
  17  10   1   20.78    5.30 
 -27  17   1   18.60    6.43 
  -7  24  -1   34.56    3.82 
  24 -17  -1   40.12    4.81 
  24 -17  -1   28.40    5.92 
  24 -17  -1   15.36    5.84 
 -17  -7  -1   25.66    6.34 
 -24  17   1   49.50    5.69 
  17   7   1   32.31    5.29 
 -24  17   1   42.09    4.67 
 -24  17   1   12.72    6.16 
  21 -17  -1   13.64    5.45 
  21 -17  -1   23.36    3.57 
  21 -17  -1   16.08    5.02 
  21 -17  -1   12.63    4.99 
 -17  -4  -1   20.54    5.47 
 -21  17   1   14.14    4.17 
  17   4   1   16.88    4.57 
 -21  17   1   19.23    3.44 
 -21  17   1   16.79    4.43 
 -21  17   1   26.79    6.02 
  18 -17  -1   -0.13    4.90 
  18 -17  -1    2.96    2.99 
  18 -17  -1    7.22    4.73 
  18 -17  -1   -3.86    4.07 
 -17  -1  -1    2.63    4.55 
 -18  17   1    0.05    3.03 
  17   1   1    2.60    3.65 
 -18  17   1    4.60    3.67 
 -18  17   1    4.36    3.54 
 -18  17   1    4.66    2.78 
  17   1   1   10.08    4.72 
 -18  17   1   -1.16    5.14 
  15 -17  -1    0.01    3.88 
 -17   2  -1   -4.95    4.53 
 -17   2  -1   -1.00    3.57 
   2  15  -1   -0.91    3.32 
  15 -17  -1    4.43    4.00 
 -15  17   1    7.03    2.83 
  17  -2   1   -4.62    3.07 
 -15  17   1    7.94    5.48 
  17  -2   1    3.33    3.34 
 -15  17   1    3.43    3.43 
 -15  17   1    2.63    3.43 
  17  -2   1   -5.72    4.16 
  12 -17  -1    0.10    3.56 
  12 -17  -1    0.32    3.76 
   5  12  -1    0.03    2.71 
 -17   5  -1    4.79    4.78 
   5  12  -1    4.75    3.52 
  12 -17  -1    2.36    3.45 
  17  -5   1   -2.07    3.65 
  17  -5   1    3.45    3.60 
 -12  17   1    5.23    4.42 
  17  -5   1    1.03    3.25 
  17  -5   1    2.61    4.14 
   8   9  -1   13.30    3.57 
   8   9  -1   15.81    3.82 
 -17   8  -1    6.75    5.00 
   9 -17  -1   11.73    3.98 
  17  -8   1   10.22    4.63 
  -9  17   1   10.98    5.25 
  17  -8   1    7.09    3.73 
  17  -8   1   14.62    4.30 
  17  -8   1   13.06    3.26 
  11   6  -1   38.69    5.34 
  11   6  -1   32.95    5.11 
 -17  11  -1   42.45    6.48 
 -11  -6   1   41.15    6.03 
  17 -11   1   36.43    5.72 
  17 -11   1   28.67    5.60 
  17 -11   1   27.71    5.50 
 -17  14  -1   52.83    5.81 
  14   3  -1   60.44    6.93 
 -17  14  -1   50.29    7.31 
  14   3  -1   48.74    6.25 
  -3  17   1   56.52    6.51 
  17 -14   1   59.01    7.11 
  17 -14   1   47.74    5.41 
  17 -14   1   48.66    6.84 
 -14  -3   1   50.50    7.39 
  17 -14   1   62.88    7.56 
 -17  17  -1   49.16    8.04 
  17   0  -1   46.31    6.69 
 -17  17  -1   58.10    5.92 
 -17  17  -1   53.37    5.97 
 -17  17  -1   56.41    5.67 
  17   0  -1   51.09    6.36 
  17   0  -1   51.38    6.90 
   0  17   1   53.26    5.41 
  17 -17   1   50.54    6.71 
 -17   0   1   46.19    7.48 
 -17   0   1   57.04    5.88 
   0  17   1   61.60    6.31 
  17 -17   1   41.77    7.02 
  17 -17   1   53.33    5.48 
   0  17   1   59.73    6.84 
 -17  20  -1   44.03    6.12 
 -17  20  -1   43.82    7.46 
 -17  20  -1   45.07    5.87 
  20  -3  -1   45.81    7.01 
 -17  20  -1   55.05    5.58 
  20  -3  -1   44.74    6.38 
  17 -20   1   50.26    6.58 
 -20   3   1   39.42    7.32 
   3  17   1   56.73    6.37 
  17 -20   1   52.95    5.44 
  17 -20   1   38.96    6.79 
 -20   3   1   55.88    6.07 
   3  17   1   63.36    6.56 
   3  17   1   52.82    5.11 
   3  17   1   52.55    6.94 
 -17  23  -1   14.05    4.09 
  23  -6  -1    4.05    4.49 
  23  -6  -1    8.37    4.35 
 -17  23  -1   17.51    4.05 
 -17  23  -1   14.07    3.34 
 -17  23  -1   17.14    5.79 
   6  17   1   18.16    3.06 
 -23   6   1   15.06    6.15 
   6  17   1   21.05    5.02 
  17 -23   1   10.01    4.57 
 -23   6   1   20.01    4.34 
   6  17   1   19.40    4.63 
 -17  26  -1    4.42    3.36 
 -17  26  -1    2.82    4.18 
  26  -9  -1    2.76    4.37 
  26  -9  -1    6.13    4.22 
  26  -9  -1    3.56    2.95 
 -26   9   1    2.41    6.05 
   9  17   1    7.79    4.16 
 -26   9   1    6.78    4.13 
 -26   9   1    7.41    4.47 
 -17  29  -1   -0.39    3.98 
 -17  29  -1   -2.30    3.31 
  29 -12  -1    5.46    3.21 
 -29  12   1    8.51    3.91 
 -29  12   1    0.12    5.27 
 -17  32  -1   -3.37    2.87 
  32 -15  -1    1.93    3.42 
 -17  32  -1   -2.85    3.67 
 -32  15   1    2.28    3.93 
 -32  15   1   -3.02    5.28 
 -14  32  -1   -4.33    3.22 
 -14  32  -1    3.87    3.04 
  32 -18  -1   -2.04    3.70 
 -32  18   1   -5.15    3.30 
 -32  18   1   -9.44    4.67 
  29 -18  -1    4.35    3.35 
 -11  29  -1    4.23    2.86 
 -11  29  -1    0.21    3.27 
 -29  18   1    2.04    4.79 
 -29  18   1    2.34    3.72 
  26 -18  -1    1.29    5.19 
 -18  -8  -1    1.64    4.86 
  -8  26  -1    5.63    2.73 
  26 -18  -1   10.51    5.13 
  26 -18  -1   -0.68    3.45 
 -26  18   1   10.35    3.21 
 -26  18   1    8.74    4.61 
  18   8   1    9.24    4.06 
 -26  18   1    6.06    5.72 
  23 -18  -1   14.81    3.37 
  23 -18  -1    7.34    5.13 
  23 -18  -1    6.82    5.07 
 -18  -5  -1   12.33    5.91 
 -23  18   1   19.48    4.28 
 -23  18   1   16.97    3.40 
  18   5   1   13.51    4.06 
 -23  18   1   12.88    5.78 
 -23  18   1   21.87    5.17 
  20 -18  -1    3.66    4.15 
  20 -18  -1   10.63    5.26 
  20 -18  -1   10.65    5.69 
 -18  -2  -1   20.08    5.46 
  20 -18  -1   22.87    3.61 
 -20  18   1   18.12    3.20 
 -20  18   1   19.24    4.19 
 -20  18   1   17.27    3.21 
 -20  18   1    6.16    4.59 
 -20  18   1    3.77    5.56 
  18   2   1   17.60    4.71 
  17 -18  -1   -2.20    4.48 
 -18   1  -1    4.83    3.31 
  17 -18  -1    2.00    2.54 
  17 -18  -1    4.23    3.54 
   1  17  -1    6.30    3.23 
 -18   1  -1    1.28    4.56 
  18  -1   1   -1.18    3.19 
 -17  18   1    0.51    5.53 
 -17  18   1   -0.72    3.59 
 -17  18   1   -2.89    2.73 
  18  -1   1    3.88    3.41 
 -17  18   1    2.29    2.87 
 -17  18   1   -4.99    3.83 
  18  -1   1    3.28    3.85 
 -18   4  -1   17.59    3.63 
 -18   4  -1   12.41    5.16 
  14 -18  -1   10.58    4.51 
   4  14  -1   32.63    4.83 
  14 -18  -1   19.84    4.00 
  18  -4   1   16.56    4.24 
  18  -4   1   20.52    3.91 
  18  -4   1   17.54    4.19 
 -14  18   1   13.29    3.25 
  18  -4   1   12.16    4.00 
 -14  18   1   11.96    3.82 
 -14  18   1   13.30    3.93 
 -14  18   1   13.52    5.91 
   7  11  -1   27.01    4.27 
  11 -18  -1   20.22    4.39 
  11 -18  -1   17.39    4.09 
 -18   7  -1   14.06    3.99 
 -18   7  -1   17.77    5.54 
  11 -18  -1   19.94    4.25 
   7  11  -1   16.08    3.55 
  18  -7   1   14.90    4.35 
 -11  18   1   21.77    3.35 
 -11  18   1   17.41    4.09 
  18  -7   1   20.29    4.48 
  18  -7   1   10.72    4.75 
 -11  18   1   27.82    3.93 
  18  -7   1   10.35    3.92 
 -11  18   1   25.58    5.84 
  10   8  -1   34.18    5.14 
  10   8  -1   40.47    5.18 
 -18  10  -1   35.33    6.32 
  18 -10   1   33.03    6.08 
  -8  18   1   33.44    4.26 
  18 -10   1   29.69    4.32 
  18 -10   1   32.12    5.55 
  -8  18   1   40.49    4.59 
 -10  -8   1   45.37    6.49 
  18 -10   1   21.90    5.75 
  -8  18   1   38.68    4.83 
 -18  13  -1   28.37    4.55 
  13   5  -1   34.92    5.29 
  13   5  -1   30.27    5.18 
 -18  13  -1   30.49    5.10 
 -18  13  -1   36.90    6.85 
  18 -13   1   37.95    5.91 
 -13  -5   1   30.94    6.04 
  18 -13   1   22.82    5.93 
  18 -13   1   34.11    4.15 
  -5  18   1   38.77    4.31 
  -5  18   1   37.59    4.60 
  18 -13   1   34.74    5.83 
 -18  16  -1   20.29    3.24 
  16   2  -1   19.09    4.21 
 -18  16  -1   16.34    5.56 
  16   2  -1   17.39    4.77 
 -18  16  -1   16.53    4.03 
 -18  16  -1   21.60    3.92 
 -16  -2   1   16.11    5.70 
 -16  -2   1   17.24    3.77 
  -2  18   1   19.15    3.22 
  18 -16   1   15.79    4.50 
  18 -16   1   16.99    5.29 
  18 -16   1   18.02    3.55 
  18 -16   1   21.37    4.96 
 -18  19  -1    6.82    4.02 
 -18  19  -1    8.51    3.23 
 -18  19  -1   11.27    5.51 
  19  -1  -1   14.56    4.00 
  19  -1  -1   12.34    4.56 
 -18  19  -1   19.09    4.18 
 -19   1   1   12.57    3.54 
   1  18   1    8.18    3.15 
 -19   1   1   12.75    5.35 
   1  18   1   15.84    4.29 
   1  18   1    8.63    2.68 
  18 -19   1   14.43    4.67 
  18 -19   1    9.77    3.20 
  18 -19   1    7.80    5.08 
 -18  22  -1    9.70    3.63 
 -18  22  -1    7.59    5.37 
  22  -4  -1   15.00    4.26 
  22  -4  -1   18.66    5.22 
 -18  22  -1    9.98    3.53 
 -18  22  -1    4.54    4.35 
   4  18   1   15.59    4.34 
  18 -22   1   13.29    4.49 
  18 -22   1    3.16    4.80 
   4  18   1   15.64    2.76 
  18 -22   1   15.38    3.29 
   4  18   1   12.97    4.39 
 -22   4   1    4.39    5.53 
 -22   4   1    9.02    3.84 
 -18  25  -1    5.63    4.29 
  25  -7  -1    3.58    4.46 
 -18  25  -1    7.35    3.06 
 -18  25  -1    4.99    3.88 
 -18  25  -1    8.11    5.27 
  25  -7  -1   17.25    4.39 
 -25   7   1   11.04    4.74 
  18 -25   1    2.70    4.80 
   7  18   1    1.31    3.73 
 -25   7   1    4.34    6.87 
  28 -10  -1    7.16    3.19 
 -18  28  -1    1.83    4.02 
 -18  28  -1    6.96    3.47 
  28 -10  -1    1.05    4.16 
 -28  10   1    8.12    4.75 
 -28  10   1    5.36    4.28 
  31 -13  -1    8.28    3.56 
 -18  31  -1    7.01    3.69 
 -18  31  -1   10.01    4.27 
 -31  13   1    4.96    4.23 
 -31  13   1    7.76    5.64 
 -12  31  -1    3.04    2.66 
  31 -19  -1   11.08    3.61 
 -12  31  -1    9.11    3.52 
 -31  19   1    5.43    3.51 
 -31  19   1    5.39    5.06 
  28 -19  -1    3.26    3.56 
  -9  28  -1    5.43    2.71 
 -28  19   1   -0.92    4.63 
 -28  19   1    5.39    3.72 
  25 -19  -1    6.32    3.17 
 -19  -6  -1    5.34    5.20 
  25 -19  -1   -2.73    4.72 
  25 -19  -1   -5.52    4.57 
 -25  19   1    1.73    6.00 
 -25  19   1    5.09    3.12 
  19   6   1    1.11    4.04 
 -25  19   1    3.72    4.53 
 -25  19   1    1.38    3.89 
  22 -19  -1   -1.75    2.82 
 -19  -3  -1    1.48    5.42 
  22 -19  -1    0.17    4.18 
  22 -19  -1    6.00    4.89 
 -22  19   1   -6.22    5.67 
 -22  19   1    8.96    3.88 
 -22  19   1    5.79    4.07 
 -22  19   1   -1.12    2.63 
 -22  19   1   -3.68    3.04 
  19   3   1   -4.59    3.41 
 -19   0  -1    9.39    3.66 
  19 -19  -1   10.79    3.33 
 -19   0  -1    5.80    4.87 
  19 -19  -1   15.55    5.69 
  19 -19  -1   12.68    4.68 
  19 -19  -1   18.60    5.31 
 -19  19   1    7.38    3.09 
 -19  19   1   15.88    3.99 
 -19  19   1   14.81    4.38 
 -19  19   1   10.06    3.01 
 -19  19   1    7.01    6.60 
  19   0   1    5.81    4.20 
  16 -19  -1    5.80    4.01 
   3  16  -1    5.18    3.70 
  16 -19  -1   10.79    4.57 
 -19   3  -1    5.85    3.40 
 -19   3  -1   -3.19    5.17 
  16 -19  -1    4.83    2.79 
 -16  19   1    4.67    3.21 
 -16  19   1    2.30    5.65 
  19  -3   1   10.59    3.73 
  19  -3   1    5.22    3.73 
  19  -3   1    5.80    2.61 
  19  -3   1    3.36    4.00 
 -16  19   1    3.81    2.66 
 -16  19   1    1.34    3.55 
 -16  19   1    1.28    2.83 
 -19   6  -1   -0.17    3.24 
  13 -19  -1    6.02    3.97 
 -19   6  -1    4.76    3.18 
 -19   6  -1    3.50    5.16 
   6  13  -1    5.49    3.07 
   6  13  -1    2.95    3.57 
  13 -19  -1    5.88    3.62 
  19  -6   1    4.02    4.07 
 -13  19   1   13.88    5.63 
  19  -6   1    8.95    2.81 
  19  -6   1    5.96    3.46 
  19  -6   1    4.44    3.52 
  19  -6   1   -2.30    3.56 
 -13  19   1    9.52    2.87 
 -13  19   1    7.67    3.83 
 -13  19   1    4.30    3.44 
 -19   9  -1   -0.91    3.31 
 -19   9  -1    2.49    5.05 
 -19   9  -1    2.44    3.49 
   9  10  -1   -0.02    2.95 
   9  10  -1    4.24    3.12 
  19  -9   1   -1.09    2.52 
  19  -9   1    0.23    3.83 
 -10  19   1   -1.56    3.92 
  19  -9   1   -1.76    3.83 
  19  -9   1   -3.32    3.12 
 -10  19   1    2.87    2.58 
 -10  19   1   -2.33    4.96 
  19  -9   1    0.13    3.86 
 -10  19   1    1.33    2.91 
 -19  12  -1    0.09    3.88 
  12   7  -1    1.77    3.47 
  12   7  -1    1.45    3.31 
 -19  12  -1    9.09    5.18 
 -19  12  -1    0.08    3.55 
  -7  19   1    5.26    3.07 
  19 -12   1    2.88    4.71 
  -7  19   1    1.86    3.34 
  19 -12   1    1.26    3.89 
 -12  -7   1   -2.78    4.33 
  -7  19   1   -2.39    2.36 
  19 -12   1    9.52    4.99 
  19 -12   1    2.32    2.95 
 -19  15  -1    9.63    5.11 
 -19  15  -1   17.60    4.10 
 -19  15  -1   12.55    3.82 
 -19  15  -1   11.48    3.08 
  15   4  -1   10.75    4.11 
  15   4  -1   12.02    4.13 
  19 -15   1   10.36    4.74 
 -15  -4   1    9.67    3.40 
 -15  -4   1    6.39    5.11 
  -4  19   1   15.58    2.80 
  19 -15   1   10.03    2.96 
  19 -15   1   15.14    4.77 
  19 -15   1    9.96    4.66 
  -4  19   1   14.03    2.83 
 -19  18  -1    5.14    3.61 
  18   1  -1    0.74    4.23 
 -19  18  -1    5.90    5.28 
 -19  18  -1   15.42    3.05 
 -19  18  -1   11.84    4.20 
  19 -18   1   14.58    4.87 
  19 -18   1   17.70    3.11 
  -1  19   1   11.56    3.39 
  -1  19   1   11.62    2.90 
 -18  -1   1   15.71    3.35 
  19 -18   1   14.95    4.87 
 -18  -1   1   12.80    5.64 
  19 -18   1   11.30    4.75 
 -19  21  -1    6.55    4.24 
 -19  21  -1   10.43    3.42 
  21  -2  -1   -0.80    4.62 
 -19  21  -1    1.37    5.22 
 -19  21  -1    9.00    3.91 
 -21   2   1    9.80    3.55 
   2  19   1    7.58    4.18 
   2  19   1    7.62    2.61 
 -21   2   1    1.48    5.19 
  19 -21   1    5.85    4.46 
  19 -21   1    6.06    4.44 
  19 -21   1    6.48    3.12 
 -19  24  -1   -1.93    2.94 
 -19  24  -1    3.08    3.77 
  24  -5  -1    0.01    4.54 
 -19  24  -1    1.27    5.35 
 -19  24  -1    8.56    4.06 
   5  19   1    4.44    3.84 
 -24   5   1   -5.69    5.66 
 -24   5   1    1.71    3.82 
  19 -24   1    0.52    4.94 
 -19  27  -1   -6.80    3.30 
  27  -8  -1   -6.45    3.72 
  27  -8  -1   -7.26    4.25 
 -19  27  -1    4.11    4.37 
   8  19   1    3.87    3.68 
 -27   8   1    0.57    4.84 
 -27   8   1   -2.84    3.73 
 -27   8   1   -8.41    6.58 
 -19  30  -1    3.17    4.06 
 -19  30  -1    1.59    3.20 
  30 -11  -1    4.36    3.14 
 -30  11   1    6.14    5.29 
 -30  11   1    3.09    4.27 
  33 -14  -1   -4.04    3.26 
 -19  33  -1   -1.87    3.88 
 -19  33  -1    0.84    3.34 
 -33  14   1    1.54    3.95 
 -33  14   1    1.56    5.38 
  30 -20  -1   17.19    4.17 
 -10  30  -1   15.02    3.22 
 -30  20   1    8.29    5.56 
 -20  -7  -1   19.03    5.92 
  27 -20  -1   14.72    3.73 
  27 -20  -1   16.57    6.55 
  20   7   1    9.63    4.55 
 -27  20   1   15.92    3.94 
 -27  20   1   22.84    5.09 
  24 -20  -1   13.62    3.81 
  24 -20  -1    3.59    5.03 
 -20  -4  -1   14.71    6.35 
  24 -20  -1   20.32    5.62 
  20   4   1   12.40    4.44 
 -24  20   1   12.22    3.38 
 -24  20   1   19.96    4.57 
 -24  20   1   12.52    6.51 
 -24  20   1   16.32    5.13 
  21 -20  -1   -1.41    3.14 
  21 -20  -1    4.23    4.92 
 -20  -1  -1   -4.22    4.67 
 -20  -1  -1    1.67    4.02 
  21 -20  -1    3.82    4.40 
  20   1   1    4.36    4.23 
 -21  20   1    4.28    3.94 
 -21  20   1   -1.63    2.93 
 -21  20   1    2.85    5.74 
 -21  20   1    8.10    2.95 
 -21  20   1    0.33    3.91 
   2  18  -1   19.73    4.12 
 -20   2  -1   10.38    5.24 
  18 -20  -1    2.16    4.28 
 -20   2  -1   15.20    3.92 
  18 -20  -1   21.19    3.45 
  18 -20  -1   18.60    5.11 
  20  -2   1    9.72    4.76 
 -18  20   1   18.13    3.52 
 -18  20   1   16.42    4.12 
 -18  20   1   22.67    6.42 
 -18  20   1   19.71    4.25 
   5  15  -1   -4.14    3.34 
 -20   5  -1    9.64    3.27 
  15 -20  -1    4.10    3.66 
  15 -20  -1    6.13    4.07 
 -20   5  -1    2.04    4.95 
 -20   5  -1    4.34    3.23 
  15 -20  -1   -1.92    2.19 
  20  -5   1    4.68    3.44 
 -15  20   1    1.29    3.71 
 -15  20   1   -2.79    2.80 
 -15  20   1   -0.50    3.54 
 -15  20   1   -2.41    5.45 
  20  -5   1   -1.77    3.40 
  20  -5   1    0.32    4.23 
  20  -5   1    3.97    2.36 
  20  -5   1    1.03    3.65 
   8  12  -1    0.87    3.53 
 -20   8  -1   -0.09    3.64 
   8  12  -1    0.56    3.19 
 -20   8  -1   -6.52    5.05 
 -20   8  -1    2.15    3.29 
  20  -8   1   -1.06    4.25 
 -12  20   1   -0.14    2.63 
 -12  20   1   -0.76    5.42 
  20  -8   1   -0.73    2.82 
 -12  20   1    4.76    3.04 
  20  -8   1   -4.78    4.06 
  20  -8   1   -2.56    3.49 
  20  -8   1   -0.39    3.31 
 -12  20   1   -2.70    3.61 
 -20  11  -1   10.48    3.43 
  11   9  -1    7.05    3.39 
 -20  11  -1   17.02    5.85 
 -20  11  -1   11.71    4.07 
  11   9  -1   12.18    3.68 
  20 -11   1    1.78    4.29 
  -9  20   1    0.83    2.62 
 -11  -9   1   15.96    5.20 
  20 -11   1    2.79    4.50 
  20 -11   1    7.76    3.08 
  20 -11   1    3.18    3.99 
  -9  20   1    5.43    2.96 
  -9  20   1   15.81    3.56 
 -20  14  -1   20.21    5.76 
 -20  14  -1   29.43    3.78 
 -20  14  -1   26.45    4.55 
  14   6  -1   33.08    4.82 
 -20  14  -1   37.09    4.88 
  14   6  -1   28.47    5.10 
  20 -14   1   31.72    5.21 
  20 -14   1   21.14    3.77 
  -6  20   1   32.17    4.39 
  -6  20   1   28.51    3.63 
  -6  20   1   33.84    4.12 
  20 -14   1   24.62    5.63 
  20 -14   1   17.69    5.58 
 -14  -6   1   29.60    6.06 
 -20  17  -1   48.77    5.23 
 -20  17  -1   44.96    5.71 
 -20  17  -1   43.88    5.69 
 -20  17  -1   34.58    7.03 
  17   3  -1   49.19    6.44 
 -17  -3   1   53.80    5.66 
  20 -17   1   57.23    5.47 
 -17  -3   1   43.87    7.35 
  20 -17   1   35.73    6.62 
  -3  20   1   50.91    5.11 
  20 -17   1   50.13    7.01 
  20 -17   1   47.65    7.50 
 -20  20  -1   32.07    4.10 
 -20  20  -1   27.86    5.24 
 -20  20  -1   26.64    4.71 
 -20  20  -1   31.95    6.65 
  20   0  -1   22.45    5.64 
  20 -20   1   31.59    6.28 
 -20   0   1   35.87    4.74 
   0  20   1   30.23    3.79 
 -20   0   1   18.29    5.92 
  20 -20   1   35.20    5.84 
  20 -20   1   31.28    4.14 
  20 -20   1   25.40    6.19 
 -20  23  -1   13.21    3.96 
 -20  23  -1   13.12    4.49 
  23  -3  -1    8.93    4.70 
 -20  23  -1    8.99    6.05 
 -20  23  -1   13.08    3.74 
  20 -23   1   10.03    4.89 
   3  20   1   15.07    2.85 
 -23   3   1   22.25    4.36 
 -23   3   1    4.83    6.41 
  20 -23   1    9.65    3.04 
 -20  26  -1    9.08    4.17 
 -20  26  -1    8.01    5.40 
 -20  26  -1   11.39    4.51 
  26  -6  -1    2.69    4.39 
 -20  26  -1    4.80    3.18 
   6  20   1    9.63    3.89 
 -26   6   1    4.22    4.71 
  20 -26   1    7.19    5.42 
 -26   6   1   -5.33    6.22 
 -20  29  -1   13.58    3.85 
 -20  29  -1    2.52    4.35 
 -29   9   1    0.97    4.21 
 -29   9   1   -3.22    4.57 
 -20  32  -1   -1.09    3.99 
 -20  32  -1    0.10    3.17 
 -32  12   1   -6.13    5.26 
 -32  12   1   -4.16    3.78 
 -21 -11  -1    3.34    4.10 
  32 -21  -1    5.86    3.94 
 -32  21   1    9.41    5.59 
  29 -21  -1   -1.24    3.32 
 -29  21   1    5.01    4.84 
 -21  -5  -1    4.12    5.67 
  26 -21  -1   -4.20    3.41 
 -21  -5  -1    5.81    4.15 
  26 -21  -1    2.10    5.04 
  26 -21  -1   11.38    5.32 
 -26  21   1   -4.83    4.22 
  21   5   1    3.70    3.55 
 -26  21   1    1.25    5.66 
 -26  21   1    0.83    4.35 
  23 -21  -1   -3.00    2.87 
  23 -21  -1    1.97    4.81 
  23 -21  -1   -8.06    5.21 
 -21  -2  -1    1.61    4.96 
 -21  -2  -1    2.38    4.06 
 -23  21   1    3.51    4.51 
 -23  21   1    8.37    3.26 
 -23  21   1    0.85    3.98 
  21   2   1   -2.33    4.33 
 -23  21   1   -1.45    5.87 
 -21   1  -1   -4.20    3.58 
  20 -21  -1    1.13    2.68 
  20 -21  -1    3.13    4.68 
 -21   1  -1   -5.58    4.84 
 -20  21   1    0.69    2.88 
  21  -1   1    0.45    4.18 
 -20  21   1    1.82    5.66 
 -20  21   1   -4.92    3.62 
 -20  21   1   -5.29    3.82 
 -21   4  -1   10.56    5.46 
 -21   4  -1   18.62    3.97 
 -21   4  -1   18.38    3.86 
   4  17  -1   22.24    4.67 
  17 -21  -1   19.66    4.50 
  17 -21  -1   19.02    3.20 
  17 -21  -1   19.18    5.11 
 -17  21   1   14.84    4.18 
 -17  21   1   20.88    4.31 
  21  -4   1   17.43    4.58 
 -17  21   1   21.06    3.58 
  21  -4   1   18.34    3.15 
 -17  21   1   24.75    6.40 
  21  -4   1    9.66    4.57 
 -21   7  -1    0.89    5.44 
   7  14  -1    2.47    3.58 
 -21   7  -1    0.27    3.45 
 -21   7  -1   10.16    3.44 
  14 -21  -1    0.66    3.62 
 -14  21   1   11.94    3.61 
 -14  21   1    6.83    6.27 
  21  -7   1    2.35    3.75 
  21  -7   1   10.03    4.38 
  21  -7   1    6.47    2.64 
 -14  21   1    4.97    3.72 
  21  -7   1    1.68    3.98 
 -14  21   1    5.85    2.85 
  21  -7   1    6.06    3.64 
 -21  10  -1    0.65    3.41 
  10  11  -1   -2.72    2.94 
 -21  10  -1   -3.10    3.67 
  10  11  -1    0.77    3.45 
 -21  10  -1   -2.09    5.65 
 -11  21   1   -0.26    3.51 
 -11  21   1    2.48    2.94 
  21 -10   1    0.02    2.54 
  21 -10   1   -0.93    3.83 
  21 -10   1   -1.33    3.73 
 -10 -11   1    3.70    4.62 
 -11  21   1   -1.78    3.27 
  21 -10   1    0.41    4.01 
  13   8  -1   -0.91    3.39 
 -21  13  -1    6.52    3.84 
 -21  13  -1   -4.43    5.06 
 -21  13  -1    3.10    4.14 
  13   8  -1    2.55    3.38 
  21 -13   1   -2.69    3.72 
  21 -13   1    6.41    2.74 
  -8  21   1   10.77    4.03 
  21 -13   1    5.53    4.38 
  21 -13   1   -0.99    4.81 
  -8  21   1    5.15    2.79 
 -13  -8   1    0.71    4.59 
  -8  21   1   -1.91    2.62 
 -21  16  -1    4.18    2.85 
 -21  16  -1    5.60    5.00 
 -21  16  -1   -0.81    3.87 
 -21  16  -1   -0.49    4.10 
  16   5  -1    0.92    3.87 
 -16  -5   1    1.87    3.07 
  -5  21   1    1.30    2.87 
  21 -16   1    2.28    4.62 
  21 -16   1    2.96    2.76 
  21 -16   1   -2.37    5.00 
  21 -16   1   -5.12    4.12 
 -16  -5   1   -5.08    4.86 
 -21  19  -1    4.86    3.11 
 -21  19  -1    3.15    5.97 
 -21  19  -1    6.82    4.26 
 -21  19  -1    0.56    4.06 
  19   2  -1    3.43    4.83 
  21 -19   1    3.05    5.26 
  -2  21   1    9.33    2.86 
 -19  -2   1   11.74    3.61 
 -19  -2   1    7.84    5.52 
  21 -19   1    6.18    3.34 
  21 -19   1    6.52    5.24 
 -21  22  -1    4.91    3.67 
 -21  22  -1    2.55    3.01 
 -21  22  -1    2.26    4.35 
  22  -1  -1    1.58    4.46 
 -21  22  -1    7.05    5.55 
 -22   1   1   -3.77    5.05 
  21 -22   1    2.68    3.17 
  21 -22   1   -4.49    4.35 
  21 -22   1   -0.69    4.35 
   1  21   1    7.24    2.57 
 -22   1   1   -2.52    3.74 
 -21  25  -1   -3.93    3.93 
  25  -4  -1   -1.03    4.77 
 -21  25  -1   -0.64    3.08 
 -21  25  -1   -5.12    4.28 
 -21  25  -1   11.39    5.77 
  21 -25   1    1.48    2.77 
  21 -25   1   -8.95    4.62 
 -25   4   1   -5.21    6.08 
 -25   4   1    1.19    3.84 
 -21  28  -1   -2.69    4.36 
 -21  28  -1   -1.04    3.11 
 -28   7   1    2.14    4.53 
 -28   7   1   -0.60    3.87 
 -21  31  -1    3.83    3.33 
 -21  31  -1    1.94    4.06 
 -31  10   1   -1.55    3.77 
 -31  10   1    1.55    5.30 
  31 -22  -1  -10.53    3.16 
 -22  -9  -1    6.76    3.98 
 -31  22   1    4.95    5.47 
 -22  -6  -1   -1.81    3.87 
  28 -22  -1    1.07    3.31 
 -28  22   1   -1.40    5.09 
  25 -22  -1    6.49    5.03 
  25 -22  -1    1.85    4.94 
 -22  -3  -1   -1.31    3.70 
 -22  -3  -1   -6.84    4.75 
  25 -22  -1    0.97    3.50 
 -25  22   1   -1.81    4.12 
  22   3   1   -2.98    3.60 
 -25  22   1   -2.09    6.07 
 -25  22   1    5.36    4.14 
 -22   0  -1   -0.21    3.63 
  22 -22  -1    0.53    2.87 
  22 -22  -1    3.14    4.70 
  22 -22  -1   -2.06    5.39 
 -22   0  -1    4.02    5.96 
 -22  22   1    5.04    4.05 
 -22  22   1    0.49    2.92 
 -22  22   1    5.58    5.90 
 -22  22   1    7.42    4.13 
  22   0   1   -2.25    3.75 
 -22   3  -1   -8.25    4.82 
  19 -22  -1    2.10    4.51 
 -22   3  -1    3.02    3.54 
   3  19  -1    3.11    3.34 
  19 -22  -1    3.70    2.60 
  22  -3   1   -1.58    3.89 
 -19  22   1    3.37    3.99 
 -19  22   1   -1.75    2.96 
 -19  22   1   -0.48    3.32 
 -19  22   1    4.31    5.45 
 -22   6  -1   -0.25    5.42 
 -22   6  -1   13.28    3.69 
  16 -22  -1    5.38    3.74 
 -22   6  -1   -3.42    3.36 
  16 -22  -1    0.52    2.66 
  16 -22  -1    5.31    4.13 
   6  16  -1    8.00    3.92 
  22  -6   1    7.63    4.19 
  22  -6   1    2.98    3.94 
  22  -6   1    2.25    2.71 
 -16  22   1    9.61    4.30 
 -16  22   1    9.25    3.20 
  22  -6   1    5.03    3.65 
 -16  22   1    5.09    3.26 
 -16  22   1   -2.34    5.58 
   9  13  -1    4.74    3.02 
 -22   9  -1    8.97    5.39 
 -22   9  -1   -3.73    3.61 
   9  13  -1    3.88    4.09 
 -22   9  -1   -0.92    3.50 
  22  -9   1   -5.41    4.28 
 -13  22   1   -2.96    5.29 
 -13  22   1    0.60    3.62 
  22  -9   1    3.46    2.96 
  22  -9   1    1.93    3.96 
 -13  22   1    1.42    3.50 
 -13  22   1   -2.56    2.72 
  22  -9   1    7.92    4.33 
  12  10  -1    7.47    4.01 
  12  10  -1    3.22    3.19 
 -22  12  -1    3.23    3.82 
 -22  12  -1    1.42    5.71 
 -22  12  -1    7.16    3.97 
 -12 -10   1    5.79    4.76 
 -10  22   1    3.75    2.93 
 -10  22   1    5.80    3.98 
  22 -12   1   -3.75    4.10 
  22 -12   1    4.51    3.02 
  22 -12   1    6.96    4.42 
 -10  22   1    7.32    2.98 
  22 -12   1    1.23    4.68 
  15   7  -1   11.15    3.99 
 -22  15  -1    9.78    4.07 
 -22  15  -1   11.16    3.87 
 -22  15  -1   11.08    5.25 
  22 -15   1   15.17    3.20 
 -15  -7   1   18.98    5.52 
  22 -15   1   12.37    4.93 
  -7  22   1   17.30    3.36 
  22 -15   1   15.14    5.05 
  22 -15   1    0.53    4.86 
  -7  22   1   15.49    3.08 
 -22  18  -1   10.87    3.15 
 -22  18  -1    5.55    3.95 
 -22  18  -1   12.40    5.58 
 -22  18  -1   10.17    4.48 
  18   4  -1   13.56    4.39 
  22 -18   1   10.37    3.48 
 -18  -4   1    7.73    5.56 
  22 -18   1    5.65    4.88 
 -18  -4   1   13.61    3.79 
  22 -18   1    7.87    4.88 
  -4  22   1   16.55    3.18 
 -22  21  -1    9.96    3.06 
 -22  21  -1    3.79    5.52 
  21   1  -1    0.18    4.28 
 -22  21  -1    2.50    4.33 
 -22  21  -1    4.78    4.40 
  -1  22   1    2.92    2.64 
  22 -21   1   -2.19    4.53 
 -21  -1   1    1.51    5.23 
 -21  -1   1   -0.41    3.67 
  22 -21   1    6.27    5.40 
  22 -21   1    2.39    3.39 
 -22  24  -1    5.39    5.68 
 -22  24  -1    1.23    4.39 
 -22  24  -1   -0.18    3.05 
  24  -2  -1    1.72    4.38 
 -22  24  -1    0.52    3.99 
  22 -24   1   -0.30    5.42 
   2  22   1    4.55    2.56 
  22 -24   1   -3.49    4.65 
 -24   2   1   -4.52    5.84 
  22 -24   1    2.76    2.96 
 -24   2   1    6.87    3.77 
 -22  27  -1    0.69    3.98 
 -22  27  -1    0.35    4.46 
 -22  27  -1    8.49    3.38 
 -27   5   1   11.05    4.43 
 -22  30  -1    1.85    4.33 
 -22  30  -1    4.84    3.59 
 -30   8   1    3.12    5.16 
 -30   8   1   -0.70    3.86 
 -23  -7  -1    7.17    4.13 
  30 -23  -1    7.56    3.91 
 -30  23   1   14.06    5.39 
 -23  -4  -1    6.81    4.05 
  27 -23  -1   15.01    3.91 
 -27  23   1    6.36    4.32 
 -27  23   1    7.85    5.02 
  24 -23  -1    6.98    3.18 
 -23  -1  -1    1.26    5.42 
 -23  -1  -1    1.52    3.68 
  24 -23  -1   -1.22    4.85 
  24 -23  -1    9.92    5.24 
 -24  23   1   -7.87    5.68 
  23   1   1    3.83    4.01 
 -24  23   1    4.19    4.18 
 -24  23   1    5.43    4.15 
 -24  23   1    1.62    3.29 
  21 -23  -1    9.36    4.89 
  21 -23  -1    4.31    3.17 
  21 -23  -1    1.72    5.40 
 -23   2  -1    3.39    5.48 
 -23   2  -1    3.08    4.01 
 -21  23   1    0.19    3.77 
 -21  23   1    0.39    5.78 
  23  -2   1    2.08    4.30 
 -21  23   1    0.56    4.48 
 -21  23   1    2.46    3.07 
  18 -23  -1   25.01    3.45 
 -23   5  -1   12.56    6.15 
   5  18  -1   18.01    4.44 
 -23   5  -1   13.35    3.94 
  18 -23  -1   15.64    4.84 
  23  -5   1   18.18    3.14 
 -18  23   1   15.96    3.52 
 -18  23   1   15.95    4.37 
  23  -5   1    9.46    4.74 
 -18  23   1   14.01    3.79 
 -18  23   1    8.82    6.07 
   8  15  -1    8.48    4.06 
 -23   8  -1    4.75    3.65 
 -23   8  -1   10.43    3.77 
 -23   8  -1    2.89    5.46 
  23  -8   1    2.58    4.47 
 -15  23   1    2.62    3.77 
 -15  23   1    3.58    5.81 
 -15  23   1    5.76    3.75 
  23  -8   1    8.88    3.01 
  23  -8   1    0.15    3.79 
 -15  23   1    7.46    3.07 
  23  -8   1    6.09    3.73 
 -23  11  -1    2.35    5.19 
 -23  11  -1   -0.05    4.25 
  11  12  -1    5.47    3.77 
 -23  11  -1    1.50    3.70 
 -12  23   1    2.90    3.03 
  23 -11   1   -1.27    4.38 
 -11 -12   1    1.21    4.90 
  23 -11   1    0.12    2.95 
 -12  23   1    2.18    2.63 
 -12  23   1   -2.63    3.55 
  23 -11   1   -2.37    3.83 
 -23  14  -1    2.49    3.89 
  14   9  -1   -4.26    3.34 
 -23  14  -1    2.62    4.34 
 -23  14  -1    5.67    5.44 
  23 -14   1    2.89    4.83 
  -9  23   1    0.68    3.60 
  23 -14   1    1.87    4.45 
 -14  -9   1    1.54    4.58 
  -9  23   1   -7.10    3.02 
  23 -14   1    0.03    2.77 
  -9  23   1    0.65    2.53 
 -23  17  -1   20.23    4.61 
 -23  17  -1   16.17    5.59 
  17   6  -1   11.63    4.27 
 -23  17  -1   14.46    4.25 
 -23  17  -1   17.58    3.27 
 -17  -6   1   21.14    5.78 
  23 -17   1   15.50    5.18 
  -6  23   1   18.05    3.50 
  23 -17   1   20.85    5.96 
  23 -17   1   17.63    3.72 
 -23  20  -1   10.01    3.08 
 -23  20  -1   18.31    4.76 
 -23  20  -1   10.60    5.82 
  20   3  -1   10.41    4.29 
 -23  20  -1   12.49    4.57 
  -3  23   1   14.32    3.03 
  23 -20   1    6.62    5.72 
  23 -20   1    2.15    5.55 
 -20  -3   1   15.26    3.90 
  23 -20   1   18.63    3.47 
 -20  -3   1    7.78    5.43 
 -23  23  -1    3.24    4.51 
  23   0  -1    0.38    4.40 
 -23  23  -1   -1.25    5.39 
 -23  23  -1    5.74    4.16 
 -23  23  -1   -0.01    2.89 
  23 -23   1   -4.19    4.62 
 -23   0   1    0.86    5.55 
  23 -23   1    4.78    3.38 
  23 -23   1    2.89    5.33 
   0  23   1    2.23    2.50 
 -23   0   1    2.46    3.52 
 -23  26  -1    0.64    3.60 
 -23  26  -1    6.27    4.09 
 -23  26  -1    3.08    4.14 
  23 -26   1    5.10    3.34 
 -26   3   1    1.61    3.94 
 -23  29  -1    6.63    4.76 
 -23  29  -1    4.62    3.68 
 -29   6   1   -6.65    4.72 
 -29   6   1   -1.78    3.94 
 -23  32  -1    5.11    3.75 
 -23  32  -1   -1.12    4.19 
 -32   9   1   -0.44    5.20 
 -32   9   1    1.21    4.33 
  29 -24  -1    5.72    3.86 
 -24  -5  -1    3.80    4.44 
 -29  24   1   -2.02    4.46 
 -29  24   1    3.29    4.43 
 -24  -2  -1   -2.52    4.10 
  26 -24  -1    2.59    3.33 
 -26  24   1    4.52    3.05 
 -26  24   1    1.95    4.24 
 -26  24   1   -1.36    4.24 
 -24   1  -1   -6.18    5.22 
 -24   1  -1    4.31    3.74 
  23 -24  -1    2.86    5.21 
  23 -24  -1    5.35    3.42 
  23 -24  -1    4.61    4.53 
  24  -1   1   -3.80    4.33 
 -23  24   1    0.76    3.46 
 -23  24   1    7.43    4.16 
 -23  24   1    0.97    4.12 
 -23  24   1    3.84    5.97 
   4  20  -1   21.91    4.51 
 -24   4  -1   24.83    4.36 
  20 -24  -1   13.95    4.92 
  20 -24  -1   18.50    3.61 
 -24   4  -1    2.71    6.51 
 -20  24   1   33.16    5.21 
  24  -4   1   10.81    4.87 
 -20  24   1   10.13    4.28 
 -20  24   1   12.30    6.55 
 -20  24   1   24.78    4.10 
   7  17  -1   45.12    6.02 
 -24   7  -1   32.66    5.02 
 -24   7  -1   30.99    7.04 
 -17  24   1   31.70    5.16 
  24  -7   1   33.37    4.12 
 -17  24   1   40.23    4.82 
 -17  24   1   35.67    5.07 
 -17  24   1   33.57    7.24 
  24  -7   1   11.43    5.56 
 -24  10  -1   25.59    6.15 
 -24  10  -1   17.83    4.11 
 -24  10  -1   22.47    4.38 
  10  14  -1   19.66    4.62 
  24 -10   1   21.46    5.35 
 -10 -14   1   10.58    5.81 
  24 -10   1   11.62    5.08 
 -14  24   1   20.39    4.35 
 -14  24   1   23.73    4.25 
 -14  24   1   19.30    3.61 
  24 -10   1   17.69    3.63 
 -24  13  -1   11.95    5.47 
 -24  13  -1    6.66    4.03 
 -24  13  -1    7.63    3.81 
  13  11  -1    0.83    3.43 
 -13 -11   1    4.34    4.78 
  24 -13   1   12.84    3.38 
 -11  24   1   10.00    4.31 
  24 -13   1    4.29    4.85 
 -11  24   1   11.60    3.53 
 -11  24   1    4.32    2.77 
  24 -13   1    2.52    4.33 
 -24  16  -1   -2.99    3.90 
 -24  16  -1    3.19    4.20 
  16   8  -1    1.20    3.35 
 -24  16  -1    2.61    5.63 
  24 -16   1    1.12    2.86 
  -8  24   1    1.39    2.69 
  24 -16   1    5.49    5.17 
  -8  24   1   -7.93    2.94 
 -16  -8   1    0.04    4.75 
  24 -16   1    0.42    4.70 
 -24  19  -1   -3.92    4.23 
  19   5  -1    3.63    3.99 
 -24  19  -1    3.86    5.89 
 -24  19  -1   -0.17    2.93 
 -24  19  -1    6.71    4.10 
  24 -19   1   -1.36    3.34 
  24 -19   1    0.06    4.79 
 -19  -5   1    2.78    4.03 
 -19  -5   1    2.78    5.35 
  -5  24   1    5.09    2.89 
  24 -19   1    4.47    4.73 
 -24  22  -1    3.63    6.26 
 -24  22  -1   11.61    4.54 
 -24  22  -1    4.70    4.57 
 -24  22  -1   -3.11    3.19 
  22   2  -1   -3.56    3.96 
  24 -22   1    1.75    2.99 
  24 -22   1   -7.36    4.92 
 -22  -2   1   -4.00    5.00 
  24 -22   1    3.55    5.01 
  -2  24   1    1.33    2.67 
 -22  -2   1   -2.53    3.63 
 -24  25  -1    1.14    4.04 
 -24  25  -1   -3.66    3.40 
 -24  25  -1   -4.23    3.75 
 -24  25  -1    3.87    5.60 
 -25   1   1   -3.54    4.16 
   1  24   1    1.16    2.60 
  24 -25   1   -1.53    2.98 
 -24  28  -1    2.74    4.71 
 -24  28  -1   -5.85    4.13 
 -24  28  -1    0.92    3.28 
 -28   4   1   -2.71    4.49 
 -24  31  -1    5.52    3.80 
 -24  31  -1    5.77    4.41 
 -31   7   1   -0.68    3.79 
 -31   7   1   -3.53    4.91 
  31 -25  -1   -1.12    3.49 
 -25  -6  -1    9.60    4.25 
 -31  25   1    3.12    4.91 
 -25  -3  -1    4.46    4.33 
  28 -25  -1   -3.09    3.69 
 -28  25   1    6.39    4.71 
 -28  25   1   -0.54    4.20 
  25 -25  -1    1.65    3.18 
 -25   0  -1    9.80    3.95 
 -25  25   1    3.30    3.50 
 -25  25   1    7.07    4.86 
 -25  25   1    4.50    4.47 
  22 -25  -1    9.81    6.42 
  22 -25  -1    7.91    3.39 
  22 -25  -1    3.14    4.60 
 -25   3  -1   -4.49    5.62 
 -25   3  -1    5.62    3.80 
 -22  25   1    9.08    7.02 
 -22  25   1    5.25    4.15 
 -22  25   1   -1.90    3.76 
  25  -3   1   -8.90    4.08 
 -22  25   1   -2.38    3.44 
  19 -25  -1    6.48    3.08 
 -25   6  -1   -8.36    5.28 
 -25   6  -1   -1.07    3.78 
   6  19  -1   -1.17    3.47 
 -19  25   1    2.73    3.70 
 -19  25   1    4.79    4.55 
  25  -6   1    3.97    2.78 
 -19  25   1   -7.77    5.38 
 -19  25   1    4.48    3.12 
  25  -6   1   -4.52    4.60 
 -25   9  -1    2.87    4.41 
 -25   9  -1    7.07    3.81 
   9  16  -1   10.70    4.61 
 -25   9  -1    4.53    6.15 
  25  -9   1    7.95    4.54 
  25  -9   1    7.70    3.23 
 -16  25   1   12.86    3.48 
 -16  25   1   16.14    3.67 
 -16  25   1    8.50    5.63 
  25  -9   1   10.44    4.59 
 -16  25   1    7.80    4.15 
  12  13  -1    8.64    4.30 
 -25  12  -1    1.92    4.57 
 -25  12  -1    7.88    3.98 
 -25  12  -1    3.19    5.21 
  25 -12   1    2.22    2.96 
  25 -12   1    9.40    4.47 
 -13  25   1    5.53    2.99 
 -13  25   1    0.20    3.72 
  25 -12   1    4.62    4.85 
 -12 -13   1    9.25    5.58 
 -13  25   1    7.05    3.55 
 -25  15  -1    9.67    4.35 
 -25  15  -1   -1.13    5.16 
  15  10  -1   -0.43    3.33 
 -25  15  -1   11.38    4.31 
 -10  25   1   11.12    3.79 
 -10  25   1    9.42    3.11 
  25 -15   1    5.62    4.82 
 -10  25   1    9.08    2.97 
  25 -15   1   -1.07    4.24 
 -15 -10   1    9.23    5.26 
  25 -15   1    8.57    3.49 
 -25  18  -1    5.28    5.97 
 -25  18  -1   10.42    4.48 
  18   7  -1    4.33    4.12 
 -25  18  -1   17.91    4.39 
  25 -18   1    6.33    5.77 
  25 -18   1    8.69    3.56 
  -7  25   1    8.32    3.19 
 -18  -7   1    3.92    5.46 
  25 -18   1    2.82    4.74 
 -25  21  -1   -1.22    3.97 
 -25  21  -1    0.33    4.39 
  21   4  -1    4.16    4.29 
 -25  21  -1    3.29    3.20 
 -25  21  -1   -2.61    5.44 
  -4  25   1    0.60    2.67 
  25 -21   1    0.26    3.03 
  25 -21   1   -3.43    5.23 
 -21  -4   1   -5.11    5.79 
 -21  -4   1   -1.52    3.73 
  25 -21   1   -6.89    4.30 
 -25  24  -1    0.97    4.07 
 -25  24  -1   -4.15    2.94 
 -25  24  -1   -2.27    4.65 
 -25  24  -1    0.31    6.17 
 -24  -1   1    0.36    4.02 
  -1  25   1   -2.51    2.66 
  25 -24   1    2.01    3.15 
 -25  27  -1   -2.37    3.10 
 -25  27  -1   -6.41    4.63 
 -25  27  -1   -4.28    4.22 
  25 -27   1    1.25    3.51 
 -27   2   1    6.35    4.64 
 -25  30  -1    2.79    3.37 
 -25  30  -1    0.93    4.74 
 -30   5   1    5.94    4.48 
 -30   5   1   -4.59    4.73 
 -26  -4  -1    1.08    4.27 
  30 -26  -1    5.28    3.86 
 -30  26   1    2.99    4.59 
 -30  26   1    3.98    4.42 
 -26  -1  -1    2.84    4.38 
  27 -26  -1    2.26    3.74 
 -27  26   1    1.96    4.25 
 -27  26   1    0.10    3.45 
 -27  26   1    0.83    4.92 
 -26   2  -1    0.07    3.81 
  24 -26  -1   -0.37    3.48 
 -24  26   1   -1.25    3.16 
 -24  26   1    3.83    4.74 
 -24  26   1    0.94    4.07 
 -26   5  -1    5.26    3.88 
  21 -26  -1    2.54    2.76 
 -26   5  -1    1.56    5.85 
   5  21  -1    0.78    3.74 
  26  -5   1   -5.32    4.18 
 -21  26   1   -3.75    6.54 
 -21  26   1    0.79    3.56 
 -21  26   1    6.26    4.62 
 -21  26   1    0.76    3.87 
 -26   8  -1    7.85    5.93 
 -26   8  -1    4.75    4.01 
   8  18  -1   13.00    4.71 
 -18  26   1    8.71    3.46 
 -18  26   1    5.78    4.08 
  26  -8   1    6.19    4.58 
 -18  26   1    6.99    3.55 
  26  -8   1    7.69    2.87 
 -18  26   1   -0.50    5.64 
 -26  11  -1   -2.09    4.06 
  11  15  -1    1.15    4.16 
 -26  11  -1   -4.28    5.74 
 -26  11  -1    3.03    3.80 
 -15  26   1    3.78    3.00 
 -11 -15   1    7.67    5.69 
  26 -11   1    0.59    3.18 
 -15  26   1    4.02    3.54 
  26 -11   1   -0.16    4.17 
 -15  26   1    0.39    3.75 
  26 -11   1   -8.19    4.47 
 -26  14  -1    7.12    5.67 
 -26  14  -1   -3.51    3.87 
 -26  14  -1    5.03    4.76 
  14  12  -1   -1.06    3.43 
 -12  26   1    2.56    3.79 
 -12  26   1    1.69    3.07 
 -12  26   1    0.72    3.01 
  26 -14   1   -6.13    2.78 
 -14 -12   1    2.31    4.94 
  26 -14   1   -2.15    4.31 
  26 -14   1   -5.66    4.44 
  17   9  -1    7.36    3.87 
 -26  17  -1    2.39    5.30 
 -26  17  -1    3.91    4.23 
 -26  17  -1    4.35    4.25 
  26 -17   1   12.15    5.32 
  -9  26   1    6.08    3.21 
  26 -17   1    7.11    4.82 
 -17  -9   1    9.65    5.58 
  26 -17   1    8.74    3.35 
 -26  20  -1    7.58    4.64 
 -26  20  -1    1.99    4.12 
 -26  20  -1    5.24    5.36 
  20   6  -1   -0.74    3.71 
  -6  26   1   10.69    3.16 
  26 -20   1   -1.38    4.52 
 -20  -6   1    7.19    5.64 
  26 -20   1    2.23    5.52 
  26 -20   1   14.43    3.78 
 -26  23  -1    3.10    4.60 
 -26  23  -1   -0.33    2.87 
 -26  23  -1    8.07    4.48 
 -23  -3   1   -0.83    3.98 
  -3  26   1    2.08    2.83 
  26 -23   1   -0.30    3.54 
 -26  26  -1    2.87    4.35 
 -26  26  -1   -1.17    3.46 
 -26  26  -1    1.48    4.64 
   0  26   1   -0.31    2.81 
 -26   0   1    4.49    4.34 
  26 -26   1   -1.55    3.49 
 -26  29  -1    4.01    4.57 
 -26  29  -1   -3.56    3.48 
 -26  29  -1    9.99    4.22 
 -29   3   1   -0.86    4.61 
  29 -27  -1   -1.85    3.51 
 -27  -2  -1   -4.92    4.23 
 -29  27   1    1.82    4.35 
 -29  27   1    0.28    4.86 
 -27   1  -1   -3.64    3.93 
  26 -27  -1    0.12    3.25 
 -26  27   1   13.74    4.38 
 -26  27   1    7.33    3.37 
 -26  27   1    2.33    4.51 
 -27   4  -1    8.46    4.21 
  23 -27  -1    9.07    3.49 
 -23  27   1    8.72    4.40 
 -23  27   1    7.11    4.20 
 -23  27   1    5.20    3.89 
 -27   7  -1    3.14    6.77 
 -27   7  -1   26.14    5.15 
 -20  27   1   16.81    4.10 
  27  -7   1   15.43    5.56 
 -20  27   1   11.41    4.25 
 -20  27   1   18.79    7.65 
 -20  27   1   22.68    5.04 
  10  17  -1   34.07    5.41 
 -27  10  -1   14.24    5.22 
 -27  10  -1   11.48    6.24 
 -17  27   1   25.29    4.23 
  27 -10   1   11.25    5.44 
 -17  27   1   28.94    5.07 
 -10 -17   1   31.54    6.48 
 -17  27   1   20.99    4.39 
  27 -10   1   28.13    4.15 
 -27  13  -1    3.17    6.13 
 -27  13  -1   11.92    4.51 
 -27  13  -1   16.50    4.28 
  13  14  -1   15.50    4.51 
 -14  27   1    8.62    3.62 
 -13 -14   1    4.13    5.18 
  27 -13   1    4.76    4.64 
  27 -13   1   13.93    3.46 
 -14  27   1   13.57    3.23 
 -14  27   1   17.00    4.64 
  27 -13   1   10.15    4.73 
 -27  16  -1    4.61    5.25 
 -27  16  -1    0.15    4.66 
 -27  16  -1    4.56    4.20 
  16  11  -1    1.22    3.73 
 -11  27   1    3.76    2.70 
  27 -16   1   -4.01    4.12 
  27 -16   1    4.38    5.06 
 -16 -11   1    0.31    5.34 
 -11  27   1    3.63    3.18 
  27 -16   1    3.47    3.12 
 -27  19  -1   -1.54    4.13 
 -27  19  -1    0.01    5.96 
 -27  19  -1    3.74    4.41 
  19   8  -1   -3.88    3.84 
  -8  27   1   -4.73    2.80 
 -19  -8   1   -2.72    5.28 
  27 -19   1    6.06    3.19 
  27 -19   1   -1.58    5.45 
  27 -19   1   -0.10    4.96 
 -27  22  -1    1.65    4.71 
 -27  22  -1    5.02    4.29 
 -27  22  -1   11.04    3.42 
  -5  27   1    2.60    2.90 
  27 -22   1    3.57    3.37 
 -27  25  -1    1.67    4.84 
 -27  25  -1   -1.73    4.41 
 -27  25  -1   -5.79    3.09 
 -25  -2   1   -0.55    4.03 
  -2  27   1    0.14    2.84 
  27 -25   1   -0.04    3.69 
 -27  28  -1   -4.61    4.77 
 -27  28  -1    5.63    4.40 
 -27  28  -1   -0.52    3.03 
  27 -28   1   -2.23    3.52 
 -28   1   1    8.42    4.68 
 -28   0  -1    3.03    4.54 
  28 -28  -1   -0.46    3.50 
 -28  28   1   -1.56    4.38 
 -28  28   1   -0.21    4.50 
 -28  28   1   -3.37    3.44 
 -28   3  -1    0.08    4.54 
  25 -28  -1    3.73    3.57 
 -25  28   1    4.65    3.33 
 -25  28   1    2.46    4.36 
 -25  28   1    6.69    4.21 
 -28   6  -1    6.02    4.53 
 -22  28   1    2.32    4.61 
 -22  28   1    2.68    3.73 
 -22  28   1    9.14    4.13 
 -28   9  -1   -6.46    4.57 
  28  -9   1    5.61    3.11 
 -19  28   1    7.14    3.86 
 -19  28   1    5.27    4.57 
 -19  28   1    5.03    3.56 
 -28  12  -1    2.23    4.45 
 -28  12  -1   17.86    4.62 
 -28  12  -1   10.68    5.90 
  28 -12   1    9.40    4.60 
 -16  28   1    8.66    3.23 
 -16  28   1    4.07    4.02 
  28 -12   1   11.73    4.77 
 -16  28   1    7.41    3.55 
  28 -12   1    8.87    3.58 
 -28  15  -1   11.17    4.27 
 -28  15  -1   10.70    5.05 
 -28  15  -1    4.91    6.19 
 -13  28   1    9.53    3.04 
  28 -15   1    2.50    3.14 
  28 -15   1    4.75    4.44 
 -13  28   1    5.55    3.13 
  28 -15   1    2.37    4.63 
 -13  28   1    1.26    4.26 
 -28  18  -1    3.05    4.42 
 -28  18  -1   -0.14    4.39 
 -10  28   1    1.77    2.98 
  28 -18   1    7.02    3.70 
 -28  21  -1    5.64    4.86 
 -28  21  -1   -0.02    4.37 
  28 -21   1    1.04    3.17 
  -7  28   1   -4.80    2.90 
 -28  24  -1   -3.34    3.14 
 -28  24  -1    1.57    4.63 
 -28  24  -1    0.02    4.61 
  -4  28   1    3.86    2.94 
  28 -24   1   -6.29    3.60 
 -28  27  -1   -8.00    3.22 
 -28  27  -1    7.38    4.36 
 -28  27  -1    0.11    4.82 
  28 -27   1   -3.88    3.49 
 -27  -1   1   -2.30    4.23 
  27 -29  -1   -2.08    3.56 
 -29   2  -1    5.03    4.50 
 -27  29   1    2.79    3.40 
 -27  29   1    0.93    4.17 
 -27  29   1    1.87    4.76 
 -29   5  -1   -3.32    4.62 
 -24  29   1    3.90    3.77 
 -24  29   1    2.89    4.08 
 -24  29   1    5.95    4.70 
 -29   8  -1    1.33    4.66 
 -21  29   1    5.27    4.70 
 -21  29   1    1.38    3.98 
 -21  29   1   -1.74    3.18 
 -29  11  -1    4.71    4.84 
 -18  29   1   -2.89    3.37 
  29 -11   1    0.82    3.27 
 -18  29   1    1.23    3.97 
 -18  29   1    4.98    3.63 
 -29  14  -1   -2.40    4.00 
 -29  14  -1    1.43    4.56 
 -15  29   1    0.24    4.34 
 -15  29   1    5.44    3.05 
  29 -14   1    0.32    3.03 
 -15  29   1   -0.08    3.16 
 -29  17  -1    9.14    4.58 
 -29  17  -1   -4.65    3.95 
 -12  29   1    3.46    3.15 
  29 -17   1   -1.37    3.11 
 -29  20  -1    1.88    4.48 
 -29  20  -1   -4.70    4.65 
  -9  29   1    2.03    3.06 
  29 -20   1    1.04    3.46 
 -29  23  -1   -6.16    4.54 
 -29  23  -1    6.66    5.02 
  29 -23   1    7.78    3.49 
  -6  29   1    5.44    3.05 
 -29  26  -1    2.47    2.94 
 -29  26  -1    3.78    4.40 
 -29  26  -1    1.77    4.93 
  29 -26   1    3.74    3.74 
  -3  29   1    0.66    2.74 
 -30   4  -1    0.17    4.66 
  26 -30  -1    3.60    3.58 
 -26  30   1    4.29    4.78 
 -26  30   1   12.52    4.37 
 -26  30   1    8.70    3.83 
 -30   7  -1    8.01    4.96 
 -23  30   1   12.75    4.17 
 -23  30   1    7.15    3.98 
 -23  30   1   12.27    4.76 
 -30  10  -1   17.82    5.50 
  30 -10   1   21.16    3.88 
 -20  30   1   16.02    4.88 
 -20  30   1   16.74    4.31 
 -20  30   1   18.73    4.26 
 -30  13  -1   23.59    5.56 
 -17  30   1   19.75    4.86 
 -17  30   1   17.78    4.13 
  30 -13   1   22.31    4.19 
 -17  30   1   17.17    3.86 
 -30  16  -1    2.50    5.21 
 -30  16  -1   11.80    4.42 
 -14  30   1    8.37    3.43 
  30 -16   1   14.04    3.94 
 -30  19  -1   -8.42    4.96 
 -30  19  -1    9.83    4.58 
  30 -19   1    1.97    3.33 
 -11  30   1   -2.10    3.04 
 -30  22  -1   -0.77    4.75 
 -30  22  -1    5.66    4.96 
  30 -22   1   -0.58    3.29 
  -8  30   1   -1.38    2.99 
 -30  25  -1    5.79    4.95 
 -30  25  -1    0.56    4.02 
  30 -25   1   -2.16    3.71 
  -5  30   1   -0.26    2.94 
 -31   6  -1    1.97    4.59 
 -25  31   1    5.42    3.39 
 -25  31   1   -6.38    3.80 
 -25  31   1   -1.08    4.63 
 -31   9  -1    9.76    4.78 
 -22  31   1    2.51    3.92 
 -22  31   1   -0.73    4.45 
 -22  31   1    2.44    3.38 
 -31  12  -1    5.29    4.65 
 -19  31   1    4.85    4.61 
 -19  31   1    9.56    3.40 
  31 -12   1   -2.99    3.24 
 -19  31   1    4.47    3.67 
 -31  15  -1   13.01    5.37 
  31 -15   1    4.62    3.57 
 -16  31   1    4.63    3.44 
 -31  18  -1   -5.55    4.46 
 -31  18  -1    3.63    5.09 
  31 -18   1   13.18    3.95 
 -13  31   1   12.11    3.43 
 -31  21  -1    2.55    4.41 
 -31  21  -1   -0.75    4.54 
  31 -21   1   -0.51    3.69 
 -10  31   1    0.68    3.08 
 -31  24  -1   -2.64    4.23 
 -31  24  -1    7.00    4.86 
  31 -24   1    3.77    3.75 
  -7  31   1    1.45    3.03 
 -32  11  -1    5.07    5.26 
 -21  32   1    0.85    4.33 
 -21  32   1   -0.64    3.64 
  32 -11   1    6.96    3.34 
 -32  14  -1    9.31    4.86 
  32 -14   1    6.71    3.58 
 -18  32   1    0.79    3.36 
 -18  32   1    5.08    4.40 
 -32  17  -1    2.04    5.25 
  32 -17   1    1.51    3.66 
 -15  32   1   -5.24    3.09 
 -32  20  -1   -4.38    4.32 
 -32  20  -1    2.97    4.49 
  32 -20   1    4.09    3.66 
 -12  32   1    3.63    3.18 
 -32  23  -1   -1.20    4.86 
 -32  23  -1    7.29    4.96 
  32 -23   1   -2.73    3.71 
  -9  32   1    4.55    2.97 
 -33  16  -1   13.86    4.84 
  33 -16   1    1.45    3.50 
 -17  33   1   -1.50    3.13 
 -33  19  -1    0.69    4.53 
 -33  19  -1    4.37    4.99 
  33 -19   1   -3.65    3.51 
 -14  33   1   -3.11    2.99 
  -1   1  -2    2.97    3.25 
   0  -1  -2   -1.33    3.02 
   1   0  -2    4.53    3.32 
   1  -1   2    1.23    2.43 
  -1   0   2    2.57    3.74 
   0   1   2    2.97    3.80 
   1  -1   2   -1.68    3.63 
   0   2  -2    1.12    3.00 
  -2   0  -2   -3.41    3.11 
   0   2  -2   -5.93    3.36 
   2  -2  -2   -2.78    3.22 
  -2   2   2    3.07    4.14 
   2   0   2   -1.55    3.50 
   2   0   2   -0.81    2.55 
   0  -2   2   -3.31    3.47 
  -2   3  -2    3.64    3.18 
   3  -1  -2    7.33    2.02 
  -1  -2  -2    0.28    3.22 
   3  -1  -2    5.41    3.51 
  -2   3  -2    5.95    3.71 
   1   2   2    2.15    3.95 
  -3   1   2   14.98    2.53 
  -3   1   2    3.81    4.07 
   2  -3   2    7.19    2.82 
   2  -3   2    4.02    3.37 
   4  -3  -2   -3.18    2.29 
  -1   4  -2   -3.53    3.55 
  -1   4  -2   -2.90    2.92 
   4  -3  -2    1.27    3.60 
  -3  -1  -2    1.96    3.36 
   3   1   2   -0.07    2.59 
   3   1   2   -5.91    3.50 
  -4   3   2    1.03    2.78 
  -4   3   2   -0.19    4.01 
   1  -4   2   -1.46    2.14 
   1  -4   2    4.37    3.69 
   1  -3  -2    2.06    3.31 
  -3   2  -2    3.32    3.30 
  -3   2  -2    2.15    3.63 
   2   1  -2    4.10    3.36 
   2   1  -2    1.76    3.14 
  -1   3   2    6.52    3.98 
  -2  -1   2    4.71    3.83 
   3  -2   2    6.10    3.30 
   3  -2   2    6.63    2.64 
   5  -2  -2   14.86    4.52 
  -3   5  -2   22.97    3.86 
  -2  -3  -2   18.42    3.88 
   5  -2  -2    4.67    2.69 
   5  -2  -2   18.51    3.60 
  -3   5  -2   26.08    4.35 
   2   3   2   21.43    3.96 
  -5   2   2   31.97    3.72 
   2   3   2   15.22    2.26 
   3  -5   2   28.24    3.82 
   3  -5   2   19.00    3.41 
  -5   2   2   28.01    4.63 
  -2   6  -2    7.61    3.07 
  -2   6  -2    8.53    3.68 
   6  -4  -2    7.74    4.04 
   6  -4  -2   14.88    3.11 
  -4  -2  -2   14.09    3.53 
  -4  -2  -2    9.58    2.40 
   6  -4  -2    8.89    3.43 
  -6   4   2   11.78    3.56 
   4   2   2    5.91    4.20 
  -6   4   2   13.54    4.19 
   2  -6   2    9.62    3.00 
   4   2   2    7.27    2.07 
   2  -6   2    7.27    2.83 
   4   2   2    5.70    2.80 
   1   3  -2   -2.91    1.55 
   1   3  -2   -0.63    3.12 
   3  -4  -2   -3.39    3.47 
  -4   1  -2   -0.02    3.71 
   1   3  -2    0.74    3.42 
  -1  -3   2   -2.07    3.53 
  -3   4   2    2.38    2.58 
  -1  -3   2   12.90    2.37 
   4  -1   2    1.05    2.93 
  -3   4   2    3.02    4.20 
   4  -1   2   -4.29    3.40 
   0  -4  -2   57.56    6.71 
   4   0  -2   68.17    7.00 
  -4   4  -2   69.47    6.82 
  -4   4  -2   53.90    6.76 
   4   0  -2   58.02    6.34 
   4   0  -2   61.07    5.79 
   0   4   2   71.36    7.11 
  -4   0   2   62.56    5.99 
   4  -4   2   59.31    6.29 
   4  -4   2   63.45    6.37 
  -4   0   2   62.59    7.30 
  -4   7  -2   62.91    6.89 
   7  -3  -2   62.61    6.46 
   7  -3  -2   62.21    6.85 
  -3  -4  -2   66.95    7.03 
   7  -3  -2   63.05    7.19 
   4  -7   2   63.42    6.51 
  -7   3   2   66.40    6.77 
   3   4   2   59.88    7.30 
   3   4   2   61.27    5.99 
   4  -7   2   66.03    6.53 
   3   4   2   60.82    6.58 
  -7   3   2   68.09    7.39 
   4  -7   2   65.44    5.41 
  -5  -3  -2   -2.02    2.41 
   8  -5  -2    3.38    3.82 
  -3   8  -2  -10.53    3.52 
   8  -5  -2    5.41    3.59 
  -5  -3  -2    7.64    3.18 
   8  -5  -2    2.98    3.78 
  -8   5   2    2.64    4.04 
  -8   5   2    3.37    3.78 
   3  -8   2    0.71    2.54 
   5   3   2    3.08    4.05 
   5   3   2   -2.34    2.77 
   3  -8   2   -5.53    2.56 
   5   3   2   -0.31    2.18 
   0   5  -2  110.95    9.57 
   0   5  -2  111.78    9.34 
   5  -5  -2  107.59   10.05 
   5  -5  -2   87.13    9.16 
  -5   0  -2  103.85    9.70 
  -5   0  -2   96.63    8.66 
   0   5  -2   92.77    8.62 
   0  -5   2   86.66    9.46 
  -5   5   2  120.47    9.93 
   0  -5   2   98.16    8.86 
   5   0   2   98.13    9.59 
   5   0   2   95.15    8.58 
  -5   5   2  114.70    9.20 
   5   0   2  103.89    9.29 
  -5   3  -2   26.65    4.26 
   2  -5  -2   18.45    4.08 
   3   2  -2   19.03    2.67 
  -5   3  -2   17.43    3.98 
   3   2  -2   27.45    4.24 
   3   2  -2   22.41    3.95 
  -3  -2   2   18.85    3.28 
   5  -3   2   18.68    3.76 
  -2   5   2   17.81    4.58 
   5  -3   2   10.51    3.35 
  -2   5   2   19.23    3.23 
   6  -1  -2   17.73    2.99 
   6  -1  -2    8.71    3.02 
  -5   6  -2    6.38    2.82 
  -1  -5  -2   11.59    3.34 
  -5   6  -2    9.35    3.98 
   6  -1  -2    2.46    3.60 
   6  -1  -2    9.03    3.42 
   1   5   2    6.02    4.17 
   5  -6   2   12.31    2.98 
   5  -6   2    3.12    2.76 
  -6   1   2   17.19    3.51 
   9  -4  -2    2.97    3.65 
   9  -4  -2    7.15    3.52 
   9  -4  -2    2.95    3.75 
  -5   9  -2    1.23    3.78 
  -4  -5  -2    5.13    3.03 
   9  -4  -2    0.30    2.52 
   4   5   2    4.61    2.51 
   5  -9   2   -7.08    2.37 
   5  -9   2    4.66    2.85 
  -9   4   2    4.84    3.87 
   4   5   2   10.68    2.91 
   4   5   2    2.80    3.36 
  10  -6  -2   11.19    3.82 
  -6  -4  -2    2.75    3.12 
  10  -6  -2    4.33    4.10 
  10  -6  -2    2.73    4.07 
  -4  10  -2    9.56    4.00 
   6   4   2    8.73    2.67 
   6   4   2   11.23    2.99 
   4 -10   2   12.65    2.97 
   6   4   2    9.32    2.12 
   4 -10   2    7.53    2.83 
   6   4   2   12.59    4.51 
 -10   6   2    7.18    4.70 
 -10   6   2    6.71    4.11 
  -1   7  -2   36.10    4.36 
  -6  -1  -2   45.86    5.84 
  -6  -1  -2   41.49    4.78 
  -1   7  -2   44.65    5.17 
  -1   7  -2   51.63    5.68 
   7  -6  -2   48.61    5.50 
   7  -6  -2   51.74    5.40 
   7  -6  -2   38.51    5.92 
  -7   6   2   45.56    5.97 
   6   1   2   45.34    4.60 
  -7   6   2   48.52    5.69 
   1  -7   2   49.32    4.75 
   6   1   2   42.08    5.02 
   6   1   2   45.01    4.91 
   6   1   2   55.48    6.22 
   4  -6  -2    2.56    2.71 
  -6   2  -2   10.74    2.43 
   2   4  -2   10.32    3.01 
   4  -6  -2    8.63    3.88 
  -6   2  -2   12.25    3.72 
   2   4  -2   16.77    3.44 
   2   4  -2    2.18    1.95 
  -4   6   2   10.45    3.35 
  -4   6   2   12.33    4.35 
   6  -2   2    6.13    2.95 
   6  -2   2    8.59    3.55 
   6  -2   2   10.25    2.02 
   5   1  -2    7.62    3.80 
  -6   5  -2   14.68    3.84 
  -6   5  -2    9.00    2.61 
   5   1  -2    7.06    3.37 
   5   1  -2    4.25    2.53 
   1  -6  -2    7.02    3.88 
  -5  -1   2   10.55    3.15 
   6  -5   2    9.36    2.99 
  -1   6   2    7.55    4.09 
   6  -5   2    7.57    1.89 
   6  -5   2   10.14    2.23 
   6  -5   2   13.26    3.37 
   8  -2  -2   60.24    7.21 
  -6   8  -2   54.45    6.46 
   8  -2  -2   57.88    6.21 
  -6   8  -2   68.75    6.87 
   8  -2  -2   71.60    6.84 
  -2  -6  -2   62.99    6.69 
   8  -2  -2   57.96    6.39 
   6  -8   2   65.52    6.08 
   2   6   2   60.23    7.29 
  -8   2   2   69.67    7.03 
   6  -8   2   60.45    6.94 
   6  -8   2   60.83    6.54 
   2   6   2   56.93    5.85 
  11  -5  -2   29.00    6.00 
  11  -5  -2   44.57    6.04 
  -5  -6  -2   41.38    5.35 
  -6  11  -2   42.23    5.91 
  11  -5  -2   46.62    6.01 
   5   6   2   46.89    4.94 
   6 -11   2   39.84    5.55 
   5   6   2   48.80    5.13 
   5   6   2   46.25    6.28 
 -11   5   2   39.35    6.50 
   6 -11   2   49.26    5.07 
  12  -7  -2   -2.23    3.72 
  12  -7  -2   -3.59    3.94 
  -5  12  -2   -6.28    3.85 
  -7  -5  -2    0.43    3.21 
  -7  -5  -2    2.42    3.09 
  12  -7  -2    6.53    4.26 
   7   5   2    0.25    2.79 
   5 -12   2   -3.77    2.38 
 -12   7   2    4.65    3.92 
   7   5   2    0.18    2.82 
   5 -12   2   -2.15    3.01 
 -12   7   2    2.72    4.24 
   7   5   2    1.61    2.73 
   7   5   2    1.71    4.29 
  -7  -2  -2    6.20    3.74 
   9  -7  -2    8.55    3.78 
   9  -7  -2   -1.83    3.97 
  -7  -2  -2    3.13    2.79 
  -2   9  -2    3.68    3.60 
   9  -7  -2    3.90    3.98 
   7   2   2    3.77    2.74 
   7   2   2    5.54    2.34 
  -9   7   2    7.37    4.35 
  -9   7   2   -2.01    3.78 
   7   2   2    3.93    2.76 
   2  -9   2    1.75    2.34 
   7   2   2    6.53    4.17 
   7   2   2    0.18    2.53 
  -7   1  -2   44.85    4.78 
   1   6  -2   59.86    5.72 
   6  -7  -2   42.06    5.46 
   1   6  -2   40.57    4.58 
   6  -7  -2   35.27    5.82 
   1   6  -2   45.87    5.08 
  -6   7   2   47.25    5.60 
   7  -1   2   52.17    5.18 
   7  -1   2   41.13    4.62 
   7  -1   2   53.62    5.36 
  -6   7   2   53.11    6.04 
   7  -1   2   35.03    4.61 
   7  -1   2   44.28    5.79 
  -1  -6   2   41.60    4.46 
   4   3  -2   63.77    6.06 
  -7   4  -2   61.68    6.52 
  -7   4  -2   56.40    5.74 
   3  -7  -2   54.65    6.97 
   4   3  -2   56.61    6.24 
   4   3  -2   57.25    5.72 
  -3   7   2   53.10    6.26 
   7  -4   2   61.38    5.66 
  -4  -3   2   65.42    6.25 
   7  -4   2   60.57    6.70 
   7  -4   2   57.03    6.21 
  -3   7   2   62.76    6.90 
   7  -4   2   61.18    5.50 
   7  -4   2   57.93    6.60 
   0  -7  -2   65.55    6.79 
   7   0  -2   64.44    5.96 
   7   0  -2   43.45    6.49 
  -7   7  -2   52.71    6.12 
  -7   7  -2   59.13    6.56 
   7   0  -2   65.96    6.49 
   7   0  -2   58.16    6.05 
   7  -7   2   66.08    6.21 
   7  -7   2   59.69    6.23 
   7  -7   2   58.82    5.27 
   7  -7   2   61.63    6.60 
  -7   0   2   64.98    6.78 
   0   7   2   59.23    7.14 
  10  -3  -2   78.26    9.61 
  -7  10  -2   97.52    9.12 
  10  -3  -2  102.67    8.93 
  10  -3  -2  100.05    9.30 
  -7  10  -2   90.41    9.13 
  10  -3  -2   88.05    8.36 
  -3  -7  -2   98.41    9.41 
   3   7   2  104.00    8.76 
   7 -10   2  103.30    9.02 
   3   7   2   90.77    8.77 
   7 -10   2   94.47    9.09 
 -10   3   2   95.40    9.83 
   3   7   2   93.67    9.65 
  -7  13  -2   29.10    5.05 
  13  -6  -2   30.82    5.57 
  -6  -7  -2   20.91    4.07 
  13  -6  -2   36.07    5.47 
  13  -6  -2   26.37    4.50 
  13  -6  -2   29.05    5.29 
   6   7   2   23.06    4.26 
   6   7   2   29.24    3.85 
   7 -13   2   30.46    4.80 
   6   7   2   27.53    4.49 
   6   7   2   30.65    5.71 
 -13   6   2   26.16    5.54 
   7 -13   2   28.41    4.07 
  14  -8  -2   14.77    4.61 
  14  -8  -2   21.95    4.21 
  -6  14  -2   33.22    5.05 
  14  -8  -2   15.32    4.97 
  -8  -6  -2   19.88    4.60 
  14  -8  -2   24.63    4.78 
 -14   8   2   12.83    4.43 
 -14   8   2    9.73    5.02 
   8   6   2   23.51    4.20 
   8   6   2   17.95    5.10 
   8   6   2   19.72    3.88 
   6 -14   2   16.24    4.17 
   8   6   2   20.92    3.43 
  -3  11  -2    0.20    4.01 
  11  -8  -2    0.67    4.14 
  -8  -3  -2    2.89    2.81 
  11  -8  -2    4.80    3.67 
  11  -8  -2    3.29    4.21 
   8   3   2    0.28    2.53 
   8   3   2   -0.71    2.87 
 -11   8   2   -3.48    4.00 
   8   3   2    3.93    4.44 
   8   3   2   -3.19    3.02 
 -11   8   2    1.51    3.73 
   3 -11   2   -2.56    2.24 
  -8   0  -2  127.19   11.39 
   0   8  -2  133.91   11.47 
   8  -8  -2  122.52   11.74 
   0   8  -2  135.64   11.73 
   0   8  -2  122.12   11.28 
   8   0   2  152.43   12.19 
   8   0   2  133.71   11.53 
   8   0   2  132.59   11.45 
  -8   8   2  128.52   11.97 
   8   0   2  132.80   11.71 
   0  -8   2  128.99   11.17 
  -8   8   2  130.33   12.00 
   8   0   2  121.87   11.27 
   3   5  -2   -2.52    2.46 
   5  -8  -2   -5.45    3.93 
  -8   3  -2    0.21    2.70 
   3   5  -2    1.16    3.20 
   3   5  -2   -1.08    1.96 
  -8   3  -2    3.74    3.30 
   5  -8  -2   -1.42    2.93 
  -5   8   2   -0.06    3.62 
   8  -3   2   -1.06    2.28 
   8  -3   2   -0.94    2.81 
  -5   8   2    4.28    3.97 
   8  -3   2    0.38    3.43 
   8  -3   2    5.67    2.83 
   8  -3   2    3.21    2.27 
   6   2  -2   61.92    6.22 
   6   2  -2   56.78    6.44 
  -8   6  -2   54.58    6.09 
   2  -8  -2   67.78    6.99 
  -8   6  -2   63.35    6.60 
   6   2  -2   57.42    5.90 
   8  -6   2   61.48    6.35 
   8  -6   2   62.55    6.49 
  -2   8   2   57.37    6.95 
   8  -6   2   58.13    5.88 
  -6  -2   2   72.72    6.63 
   8  -6   2   56.95    6.23 
   8  -6   2   60.53    5.58 
  -8   9  -2    1.39    3.62 
  -1  -8  -2    4.35    2.91 
   9  -1  -2    1.70    2.19 
   9  -1  -2    7.09    3.48 
   9  -1  -2    6.38    3.79 
  -8   9  -2    4.79    3.38 
   9  -1  -2   -1.40    2.91 
   1   8   2    3.09    4.45 
   1   8   2    1.13    2.46 
   8  -9   2    6.24    2.90 
   8  -9   2    9.08    3.84 
  -9   1   2    6.47    3.79 
  -8  12  -2    3.30    4.03 
  -4  -8  -2    0.54    2.83 
  12  -4  -2    0.06    3.48 
  -8  12  -2    1.34    3.67 
  12  -4  -2   -0.82    3.47 
  12  -4  -2    3.48    3.89 
   4   8   2   -0.33    4.02 
   8 -12   2    1.50    2.99 
   4   8   2    1.72    2.45 
   4   8   2   -3.11    2.89 
 -12   4   2   -3.20    4.42 
   8 -12   2    0.12    3.64 
  15  -7  -2    1.61    3.87 
  15  -7  -2   -4.00    4.15 
  15  -7  -2    3.92    4.07 
  15  -7  -2   -2.23    4.58 
  -8  15  -2   -0.63    3.88 
 -15   7   2   -1.71    4.86 
   7   8   2    7.77    4.63 
   8 -15   2   -2.50    3.22 
   7   8   2    4.88    3.11 
   8 -15   2    5.99    3.11 
   7   8   2   -2.23    2.18 
   7   8   2    4.50    3.07 
  16  -9  -2   -2.59    3.99 
  -9  -7  -2    8.30    3.94 
  16  -9  -2   -0.18    3.47 
  16  -9  -2    3.29    3.99 
  -7  16  -2    3.02    4.13 
 -16   9   2   -3.89    4.72 
 -16   9   2    3.54    3.90 
   9   7   2    2.55    2.32 
   9   7   2   -2.03    3.16 
   9   7   2   -2.26    4.39 
   7 -16   2    4.72    3.78 
   9   7   2    3.05    3.33 
 -16   9   2   -0.33    2.83 
  -9  -4  -2    6.00    3.38 
  13  -9  -2    6.47    4.40 
  -4  13  -2   13.63    4.44 
  13  -9  -2    6.40    4.46 
  13  -9  -2    0.55    4.62 
  13  -9  -2   10.88    4.21 
   9   4   2   13.25    4.77 
   9   4   2   13.90    3.22 
 -13   9   2    8.56    5.12 
   4 -13   2    7.18    3.70 
   9   4   2   16.19    3.47 
   9   4   2   10.88    3.05 
 -13   9   2   10.15    3.81 
  10  -9  -2    3.96    4.12 
  10  -9  -2   10.55    4.37 
  -1  10  -2    8.81    2.75 
  -1  10  -2   10.50    4.21 
  -9  -1  -2   11.80    3.42 
  10  -9  -2   11.04    3.81 
   9   1   2   10.57    3.25 
 -10   9   2   11.39    4.13 
   9   1   2   12.42    3.02 
   9   1   2   10.09    2.62 
   9   1   2   12.52    3.15 
   1 -10   2    8.31    2.54 
   9   1   2   11.72    4.51 
 -10   9   2   13.48    3.89 
  -9   2  -2    4.33    2.73 
   2   7  -2    1.56    2.16 
   2   7  -2    3.75    2.37 
   7  -9  -2   -0.57    3.35 
   2   7  -2    1.48    3.41 
   7  -9  -2    4.42    3.83 
   9  -2   2    4.52    2.63 
   9  -2   2    0.59    3.07 
  -7   9   2    3.74    3.85 
   9  -2   2   -1.15    2.70 
  -2  -7   2    0.20    1.80 
  -7   9   2    2.24    3.64 
   9  -2   2    4.78    2.95 
  -2  -7   2    2.15    2.39 
   9  -2   2    4.42    4.20 
   5   4  -2    4.70    2.52 
  -9   5  -2    0.41    3.40 
   4  -9  -2    5.97    3.65 
   5   4  -2    4.29    2.87 
  -9   5  -2    2.71    2.73 
   4  -9  -2    2.41    2.60 
   5   4  -2   -0.38    2.63 
   5   4  -2    5.23    2.98 
   9  -5   2    4.07    3.27 
   9  -5   2    6.29    2.45 
   9  -5   2   -0.09    2.93 
   9  -5   2    4.97    2.24 
   9  -5   2    2.88    3.48 
  -4   9   2    5.56    3.78 
  -4   9   2    8.18    4.00 
   8   1  -2    0.90    2.47 
   8   1  -2   -1.75    3.33 
   8   1  -2    5.04    2.83 
  -9   8  -2    3.42    3.12 
  -9   8  -2   10.75    3.99 
   1  -9  -2    1.62    3.05 
   9  -8   2    0.49    3.35 
  -8  -1   2   10.42    4.29 
  -1   9   2   -3.68    3.71 
   9  -8   2    6.96    2.93 
   9  -8   2   -2.06    3.21 
  -9  11  -2   83.62    7.92 
  -9  11  -2   76.77    7.69 
  11  -2  -2   72.77    8.33 
  -2  -9  -2   76.13    7.95 
  11  -2  -2   82.00    7.72 
  11  -2  -2   76.40    7.97 
   9 -11   2   79.40    7.62 
   2   9   2   81.03    8.84 
   9 -11   2   76.44    8.00 
   2   9   2   69.96    7.38 
 -11   2   2   85.08    8.84 
   2   9   2   76.75    7.40 
  -9  14  -2   34.92    4.96 
  14  -5  -2   23.40    5.27 
  -9  14  -2   22.07    5.18 
  14  -5  -2   34.96    5.15 
  14  -5  -2   23.20    4.79 
  14  -5  -2   16.46    4.53 
   5   9   2   40.16    5.94 
 -14   5   2   21.87    5.75 
   5   9   2   30.09    3.69 
   9 -14   2   31.51    4.83 
   5   9   2   43.88    4.59 
   9 -14   2   20.88    4.47 
  -9  17  -2    4.77    4.23 
  17  -8  -2    1.03    4.01 
  -9  17  -2    3.95    2.21 
  17  -8  -2    4.97    3.61 
  17  -8  -2    6.98    4.43 
  17  -8  -2    2.90    2.53 
   8   9   2    3.88    3.18 
   9 -17   2    0.64    3.30 
 -17   8   2    3.77    3.08 
 -17   8   2    3.38    5.10 
   8   9   2    3.61    4.42 
   8   9   2    4.49    3.29 
  -8  18  -2    5.25    2.52 
  18 -10  -2   -3.13    2.57 
  -8  18  -2    5.89    4.29 
  18 -10  -2    3.17    4.48 
 -10  -8  -2    4.51    4.71 
  18 -10  -2   -3.76    4.06 
  18 -10  -2    4.59    3.70 
  10   8   2    5.71    4.60 
 -18  10   2   -2.46    3.28 
 -18  10   2   -2.87    3.00 
 -18  10   2    1.95    5.48 
 -18  10   2    6.78    4.21 
  10   8   2    0.26    3.37 
   8 -18   2    3.27    3.59 
  10   8   2    5.06    3.51 
  15 -10  -2   -1.05    3.52 
  -5  15  -2    5.80    4.26 
  15 -10  -2   -4.85    3.83 
  15 -10  -2    0.41    4.68 
 -10  -5  -2    3.15    3.66 
  10   5   2    1.73    2.69 
   5 -15   2    4.63    3.41 
  10   5   2   -1.36    2.91 
  10   5   2    3.19    3.11 
  10   5   2    9.06    4.68 
 -15  10   2    2.13    4.69 
 -15  10   2    1.48    3.77 
  12 -10  -2    7.79    3.95 
 -10  -2  -2    6.14    3.57 
  12 -10  -2    3.55    4.22 
  12 -10  -2    9.49    4.42 
  -2  12  -2    1.33    3.93 
  10   2   2    9.44    3.25 
  10   2   2    3.61    3.04 
 -12  10   2    5.60    4.72 
  10   2   2    6.83    4.43 
  10   2   2    6.97    3.07 
 -12  10   2    8.68    3.67 
   1   9  -2    9.24    3.02 
   9 -10  -2    7.81    4.28 
   9 -10  -2    5.59    3.91 
 -10   1  -2    3.54    3.19 
   1   9  -2    8.13    2.09 
   1   9  -2    9.08    3.95 
  10  -1   2   13.28    3.10 
  10  -1   2   21.24    4.85 
  -9  10   2    3.81    3.77 
  -9  10   2    8.22    4.13 
  10  -1   2    5.41    3.33 
  10  -1   2   11.59    2.82 
  10  -1   2   13.62    3.20 
   6 -10  -2    7.23    3.17 
 -10   4  -2    5.97    3.70 
   4   6  -2   12.86    3.49 
   4   6  -2    9.91    2.72 
   4   6  -2    9.52    2.60 
 -10   4  -2    6.53    3.40 
   4   6  -2    8.00    2.47 
   6 -10  -2    6.11    3.75 
  10  -4   2   11.37    2.82 
  -6  10   2    6.30    3.83 
  10  -4   2    7.37    3.24 
  10  -4   2   10.27    3.96 
  10  -4   2   10.13    2.71 
  -4  -6   2    1.92    1.69 
  10  -4   2    8.29    3.43 
  -6  10   2    1.51    4.21 
 -10   7  -2   91.82    8.76 
   3 -10  -2   94.61    9.72 
   7   3  -2  102.29    8.83 
   7   3  -2   93.86    9.25 
 -10   7  -2   94.52    8.92 
   7   3  -2   94.20    8.84 
   7   3  -2   98.58    8.67 
  10  -7   2   97.91    9.21 
  10  -7   2   84.38    8.72 
  10  -7   2   94.66    8.31 
  -7  -3   2  101.02    9.05 
  10  -7   2   88.48    8.57 
  -3  10   2  102.40    9.30 
  10  -7   2   94.08    9.15 
  10   0  -2   79.61    8.17 
 -10  10  -2   88.07    8.17 
   0 -10  -2   82.09    8.33 
  10   0  -2   79.32    8.00 
 -10  10  -2   79.03    8.11 
  10   0  -2   76.34    8.70 
   0  10   2   90.88    8.66 
  10 -10   2   78.85    8.69 
 -10   0   2   80.11    8.58 
  10 -10   2   84.42    8.05 
 -10  13  -2   91.32    9.39 
  13  -3  -2   99.03    9.44 
  13  -3  -2   99.98    9.97 
  -3 -10  -2   88.01    9.31 
  13  -3  -2   98.73   10.44 
 -10  13  -2  103.81    9.74 
   3  10   2   95.94    8.96 
  10 -13   2  108.45    9.65 
  10 -13   2  100.74    9.68 
   3  10   2  101.40   10.05 
   3  10   2   97.35    9.03 
 -13   3   2  104.92   10.44 
  16  -6  -2   -1.65    3.87 
  16  -6  -2    3.93    3.83 
 -10  16  -2    2.35    4.14 
 -10  16  -2    1.18    2.48 
  16  -6  -2    3.73    3.76 
  16  -6  -2    6.40    4.29 
  10 -16   2    1.62    3.77 
 -16   6   2    6.17    5.27 
   6  10   2    3.16    4.35 
   6  10   2    4.96    3.42 
  10 -16   2    4.09    3.33 
   6  10   2    1.17    3.43 
 -16   6   2    4.47    3.00 
 -10  19  -2    1.56    3.25 
  19  -9  -2   -0.81    2.56 
  19  -9  -2   -8.03    3.95 
  19  -9  -2   -1.49    3.89 
  19  -9  -2   -4.53    3.69 
 -10  19  -2   -1.67    4.00 
 -10  19  -2   -1.95    2.32 
  10 -19   2    3.68    3.42 
   9  10   2    0.61    3.12 
   9  10   2   -0.98    4.40 
 -19   9   2    2.65    3.16 
 -19   9   2   -0.20    5.27 
   9  10   2   -2.14    3.05 
 -19   9   2   -0.42    3.40 
  20 -11  -2   -1.43    3.55 
  -9  20  -2    4.02    4.24 
  20 -11  -2    4.10    4.48 
 -11  -9  -2   -0.85    3.90 
  20 -11  -2    6.67    4.22 
  20 -11  -2   -2.92    2.59 
  -9  20  -2    2.09    3.54 
  -9  20  -2    5.10    2.38 
 -20  11   2    7.42    5.05 
  11   9   2   -2.31    3.66 
  11   9   2   -6.58    3.87 
 -20  11   2    3.47    3.23 
   9 -20   2   -3.00    3.52 
 -20  11   2    9.11    4.15 
  17 -11  -2    4.26    2.81 
  17 -11  -2    6.87    4.34 
  17 -11  -2    9.78    4.79 
  -6  17  -2    4.50    4.21 
 -11  -6  -2   13.56    4.28 
  17 -11  -2    3.30    4.37 
 -17  11   2    5.85    3.68 
  11   6   2    9.68    3.19 
 -17  11   2    4.94    4.98 
  11   6   2    7.75    3.26 
 -17  11   2    5.52    3.98 
  11   6   2    2.82    4.75 
   6 -17   2    6.33    3.48 
 -17  11   2    5.81    3.08 
  14 -11  -2   -5.81    3.94 
  14 -11  -2   -1.57    3.72 
  -3  14  -2    7.42    3.95 
  14 -11  -2   -1.34    3.53 
  14 -11  -2    1.18    4.91 
 -11  -3  -2    2.53    4.05 
  11   3   2    0.79    3.23 
  11   3   2    1.14    2.86 
  11   3   2    0.66    4.40 
   3 -14   2   -1.81    3.17 
  11   3   2    0.15    2.86 
 -14  11   2    0.09    3.55 
 -14  11   2    3.62    4.52 
   0  11  -2   23.31    3.60 
  11 -11  -2   19.49    4.62 
  11 -11  -2   17.04    4.80 
 -11   0  -2   19.06    4.10 
   0  11  -2   19.19    4.44 
 -11  11   2   19.57    4.75 
  11   0   2   24.75    4.92 
  11   0   2   13.84    3.26 
 -11  11   2   13.19    2.93 
  11   0   2   19.19    3.41 
  11   0   2    9.90    3.59 
 -11  11   2   17.55    4.10 
  11   0   2   21.07    3.92 
   8 -11  -2    2.05    3.77 
   8 -11  -2    2.91    3.30 
 -11   3  -2   -1.39    3.19 
   3   8  -2   -1.77    2.09 
   3   8  -2    5.23    3.55 
 -11   3  -2   -1.97    2.94 
   3   8  -2   -0.02    2.90 
  11  -3   2    0.62    3.51 
  -8  11   2   -0.27    3.97 
  11  -3   2    2.97    2.73 
  11  -3   2   -0.37    2.82 
  -8  11   2   -3.38    3.88 
  11  -3   2   -4.14    3.01 
  11  -3   2    2.84    2.65 
   6   5  -2   45.58    4.82 
   6   5  -2   36.81    4.51 
   5 -11  -2   39.72    4.61 
 -11   6  -2   40.74    5.05 
   5 -11  -2   34.10    5.48 
   6   5  -2   38.38    4.90 
 -11   6  -2   50.02    5.14 
   6   5  -2   47.81    4.97 
  -6  -5   2   44.13    5.54 
  11  -6   2   39.84    5.53 
  -5  11   2   39.87    5.47 
  11  -6   2   32.93    4.86 
  11  -6   2   32.03    4.30 
  11  -6   2   33.52    5.10 
  11  -6   2   40.37    4.76 
  -5  11   2   45.07    5.51 
   2 -11  -2   82.64    8.34 
   9   2  -2   95.27    8.20 
   9   2  -2   73.91    8.31 
   9   2  -2   78.78    7.56 
   9   2  -2   89.43    8.00 
 -11   9  -2   71.76    8.02 
 -11   9  -2   82.54    8.18 
  -2  11   2   87.45    8.64 
  -9  -2   2   84.18    8.63 
  11  -9   2   86.15    8.15 
  11  -9   2   78.10    8.45 
  11  -9   2   84.67    7.93 
 -11  12  -2    7.95    4.08 
  12  -1  -2    6.83    3.95 
  12  -1  -2    8.67    4.01 
  12  -1  -2   11.21    3.66 
  -1 -11  -2   12.41    3.15 
 -11  12  -2    3.13    3.79 
  11 -12   2   11.05    3.62 
  11 -12   2   11.36    3.91 
   1  11   2    4.23    4.15 
 -12   1   2    6.06    4.43 
 -11  15  -2    7.97    4.34 
 -11  15  -2   12.85    4.25 
  15  -4  -2    8.90    4.12 
  15  -4  -2    4.69    4.30 
  15  -4  -2   11.20    3.98 
  11 -15   2    6.74    3.47 
   4  11   2    8.62    4.59 
   4  11   2    9.76    3.28 
 -15   4   2    9.48    5.22 
  11 -15   2    5.50    3.67 
  18  -7  -2    0.04    4.46 
 -11  18  -2    2.54    3.52 
  18  -7  -2    5.72    2.85 
 -11  18  -2    3.50    4.30 
  18  -7  -2    7.40    3.92 
  18  -7  -2    0.41    4.28 
 -11  18  -2    4.60    2.71 
 -18   7   2   14.36    5.63 
   7  11   2    5.78    3.31 
 -18   7   2    7.73    3.08 
   7  11   2    6.20    4.40 
   7  11   2    3.55    2.57 
   7  11   2    8.56    3.37 
 -18   7   2    6.58    3.28 
  11 -18   2    6.54    3.63 
  21 -10  -2   -0.81    3.04 
 -10 -11  -2    3.94    4.36 
 -11  21  -2    0.36    2.44 
  21 -10  -2    4.44    4.28 
 -11  21  -2    5.11    4.22 
  21 -10  -2    1.00    4.40 
  21 -10  -2   -1.65    3.85 
 -11  21  -2   -2.96    3.29 
 -21  10   2   -3.21    3.39 
  11 -21   2   -0.81    3.86 
  10  11   2   -2.83    3.11 
  10  11   2    2.89    4.19 
 -21  10   2    0.99    4.09 
 -21  10   2   -1.79    5.22 
  22 -12  -2   -0.16    4.45 
 -10  22  -2    0.00    2.28 
 -10  22  -2    0.86    4.04 
  22 -12  -2    2.13    2.87 
  22 -12  -2   10.26    4.78 
 -12 -10  -2    5.75    4.31 
 -10  22  -2   -2.34    3.36 
 -22  12   2    1.01    5.23 
  12  10   2   -2.87    3.92 
 -22  12   2   -2.47    3.34 
 -22  12   2   -5.17    3.66 
  12  10   2   -0.01    3.45 
  19 -12  -2   -4.51    4.20 
  -7  19  -2    0.22    2.07 
  19 -12  -2   -2.52    4.33 
  19 -12  -2    2.38    2.69 
  -7  19  -2   -1.12    3.83 
 -12  -7  -2   -0.88    4.57 
  19 -12  -2   -1.31    3.58 
 -19  12   2   -1.75    3.88 
  12   7   2    0.48    4.31 
   7 -19   2    0.16    3.33 
 -19  12   2    0.82    5.07 
  12   7   2    3.16    3.15 
 -19  12   2    9.88    3.18 
  12   7   2    0.02    3.43 
 -12  -4  -2   22.53    5.21 
  16 -12  -2   24.75    5.63 
  16 -12  -2   17.90    4.40 
  16 -12  -2   19.01    4.82 
  16 -12  -2   18.99    3.36 
  -4  16  -2   11.59    4.71 
   4 -16   2   21.31    4.05 
  12   4   2   26.56    5.68 
 -16  12   2   15.23    5.35 
 -16  12   2   13.28    4.07 
 -16  12   2   20.38    3.47 
  12   4   2   20.32    4.10 
  12   4   2   14.54    3.41 
  12   4   2   22.45    3.98 
  -1  13  -2    0.97    2.73 
  13 -12  -2   -6.58    3.55 
  13 -12  -2   -2.67    4.03 
 -12  -1  -2    2.47    3.92 
  -1  13  -2   -1.57    3.84 
  13 -12  -2    6.33    4.15 
  12   1   2   -6.22    4.02 
  12   1   2    1.57    3.25 
 -13  12   2   -1.91    3.50 
  12   1   2    1.04    3.11 
 -13  12   2    1.47    4.87 
  12   1   2    5.94    2.66 
 -13  12   2   -1.25    2.40 
 -12   2  -2   -3.61    3.43 
   2  10  -2    3.71    3.68 
  10 -12  -2    5.86    3.88 
  10 -12  -2    2.00    4.06 
   2  10  -2    4.99    2.79 
 -10  12   2    8.54    2.77 
 -10  12   2    5.48    4.97 
  12  -2   2    5.97    3.37 
  12  -2   2    2.75    3.87 
 -10  12   2    2.75    3.80 
  12  -2   2    6.06    3.28 
  12  -2   2    4.77    2.99 
  12  -2   2    6.20    3.29 
   5   7  -2   -4.26    3.05 
   5   7  -2   -1.08    2.52 
   5   7  -2   -0.87    2.59 
 -12   5  -2    0.54    3.42 
   7 -12  -2    3.67    2.99 
   7 -12  -2   -6.27    3.83 
 -12   5  -2   -4.24    3.40 
  12  -5   2    0.62    2.91 
  -7  12   2   -0.47    3.43 
  12  -5   2   -5.72    3.32 
  12  -5   2   -3.86    3.31 
  -7  12   2   -0.23    3.98 
  12  -5   2    0.72    2.68 
  12  -5   2    0.66    2.49 
   8   4  -2    2.90    3.22 
 -12   8  -2    4.87    3.52 
   4 -12  -2   -1.55    3.67 
   8   4  -2    1.43    3.20 
   8   4  -2    0.74    2.65 
   8   4  -2   -2.93    2.43 
 -12   8  -2   -1.61    3.60 
  12  -8   2    1.17    3.00 
  -4  12   2    1.28    4.04 
  12  -8   2   -4.80    3.25 
  -8  -4   2   -4.18    3.66 
  12  -8   2   -2.64    3.00 
 -12  11  -2    2.88    3.90 
  11   1  -2   14.61    3.75 
  11   1  -2   17.64    3.96 
  11   1  -2    8.32    3.50 
 -12  11  -2   12.04    4.02 
  11   1  -2   10.01    3.48 
   1 -12  -2   12.07    3.48 
  12 -11   2    8.72    4.14 
 -11  -1   2   12.67    5.15 
  -1  12   2    9.23    4.09 
  12 -11   2    6.99    3.28 
  14  -2  -2   33.65    5.64 
 -12  14  -2   42.62    5.80 
  14  -2  -2   37.23    5.94 
 -12  14  -2   46.21    6.19 
  14  -2  -2   35.09    5.43 
  12 -14   2   46.46    5.79 
   2  12   2   39.14    4.42 
  12 -14   2   37.62    5.61 
   2  12   2   44.91    6.29 
 -14   2   2   37.58    6.71 
   2  12   2   43.41    5.17 
  17  -5  -2   -3.58    3.28 
  17  -5  -2    2.08    3.91 
  17  -5  -2    1.71    4.07 
 -12  17  -2    2.20    3.99 
 -12  17  -2    3.07    2.28 
 -12  17  -2    5.35    3.96 
 -12  17  -2   -6.54    3.31 
  12 -17   2    0.79    3.48 
   5  12   2    3.78    4.36 
  12 -17   2   -0.19    3.51 
   5  12   2    4.64    2.47 
   5  12   2    2.29    3.01 
 -17   5   2    1.30    5.14 
   5  12   2    3.81    3.65 
 -17   5   2    0.88    3.07 
  20  -8  -2   -5.08    3.50 
  20  -8  -2    2.18    2.81 
 -12  20  -2    1.15    4.05 
 -12  20  -2    0.74    3.42 
  20  -8  -2    2.46    4.20 
 -12  20  -2    1.27    2.52 
  20  -8  -2   -1.79    4.63 
 -20   8   2   -4.57    3.62 
   8  12   2   -1.83    4.25 
  12 -20   2   -5.16    3.90 
   8  12   2   -0.91    3.61 
 -20   8   2    4.95    3.98 
 -20   8   2    3.68    6.10 
 -11 -12  -2    0.00    4.88 
 -12  23  -2    0.61    4.17 
  23 -11  -2    0.31    2.86 
  23 -11  -2    0.99    4.49 
 -12  23  -2    2.02    2.52 
 -12  23  -2    6.31    3.80 
  23 -11  -2    4.17    4.38 
 -23  11   2   -1.65    3.59 
 -23  11   2   -5.64    4.92 
 -23  11   2    2.42    4.33 
  11  12   2    6.31    4.11 
  11  12   2    0.49    4.31 
 -11  24  -2   -2.04    2.41 
 -11  24  -2   -4.39    4.03 
  24 -13  -2   -1.03    4.00 
  24 -13  -2    1.59    3.32 
  24 -13  -2   -9.12    4.64 
 -13 -11  -2    0.13    4.28 
 -11  24  -2   -3.78    3.56 
  13  11   2    1.83    3.90 
 -24  13   2    0.36    4.43 
  13  11   2   -0.32    4.65 
 -24  13   2    0.40    3.52 
 -24  13   2   -4.54    5.31 
  -8  21  -2    1.91    2.41 
  21 -13  -2   -1.87    4.39 
 -13  -8  -2    2.40    4.85 
  21 -13  -2   -2.21    2.85 
  21 -13  -2    0.23    4.30 
  21 -13  -2    0.69    4.40 
  -8  21  -2   -3.70    3.87 
  13   8   2    0.13    4.22 
 -21  13   2   -4.98    4.96 
 -21  13   2    2.43    3.26 
  13   8   2    1.67    3.12 
 -21  13   2   -5.93    3.59 
  18 -13  -2    0.05    2.66 
 -13  -5  -2    3.92    4.31 
  18 -13  -2    0.10    4.60 
  -5  18  -2    1.00    1.99 
  18 -13  -2    3.78    4.26 
  -5  18  -2    2.90    4.14 
  18 -13  -2    0.03    3.77 
 -18  13   2   -1.28    3.01 
   5 -18   2    3.04    3.67 
  13   5   2    0.00    4.40 
 -18  13   2    4.51    5.56 
  13   5   2    5.22    3.01 
 -18  13   2   -2.21    3.46 
  13   5   2    3.92    3.20 
  15 -13  -2    4.76    3.69 
  15 -13  -2   -6.98    3.87 
  -2  15  -2   -0.94    3.97 
  15 -13  -2   -1.75    2.48 
 -13  -2  -2   -1.26    4.15 
  15 -13  -2    3.71    4.02 
  13   2   2   -0.28    2.75 
 -15  13   2   -1.15    2.41 
  13   2   2   -1.23    2.77 
  13   2   2   -1.28    4.36 
 -15  13   2   -1.43    4.50 
  13   2   2    1.04    3.11 
   2 -15   2   -6.86    2.66 
 -15  13   2    0.19    2.84 
   1  12  -2    1.49    3.79 
   1  12  -2    1.91    2.80 
  12 -13  -2    9.94    4.39 
 -13   1  -2   -1.13    3.64 
  12 -13  -2    5.22    4.17 
  13  -1   2    2.95    2.77 
 -12  13   2   -0.80    4.92 
 -12  13   2   -1.29    2.68 
  13  -1   2   -1.51    3.46 
 -12  13   2   -0.80    3.31 
  13  -1   2    2.70    3.00 
  13  -1   2    3.48    4.64 
  13  -1   2    4.46    2.82 
   4   9  -2   10.53    4.05 
 -13   4  -2   11.16    3.70 
   4   9  -2   10.38    3.17 
   9 -13  -2    6.62    3.59 
   4   9  -2   12.83    2.74 
 -13   4  -2    6.34    3.44 
   9 -13  -2    6.71    3.92 
  13  -4   2    7.16    4.03 
  -9  13   2   11.34    4.02 
  13  -4   2    9.89    2.94 
  -9  13   2    8.52    2.41 
  13  -4   2   14.57    3.80 
  13  -4   2    8.28    3.20 
  13  -4   2    5.66    3.04 
  -9  13   2   15.13    4.76 
   7   6  -2   24.22    3.94 
   7   6  -2   25.67    4.03 
 -13   7  -2   27.60    4.69 
   6 -13  -2   23.59    4.77 
   6 -13  -2   27.21    3.83 
 -13   7  -2   24.90    4.28 
   7   6  -2   28.49    4.05 
  -6  13   2   32.30    5.00 
  13  -7   2   26.32    4.38 
  13  -7   2   26.02    3.89 
  13  -7   2   24.99    4.13 
  -7  -6   2   26.87    5.06 
  13  -7   2   24.96    4.57 
  -6  13   2   30.25    3.30 
  -6  13   2   24.26    4.96 
 -13  10  -2   96.81    9.43 
 -13  10  -2   94.20    8.99 
  10   3  -2  101.86    9.24 
   3 -13  -2   95.90    9.59 
  10   3  -2  101.31    9.12 
 -10  -3   2   93.20   10.08 
  13 -10   2   84.71    9.15 
  -3  13   2   88.46    9.79 
  13 -10   2  105.92    9.88 
  13 -10   2   95.57    9.11 
  13   0  -2   96.91    8.60 
  13   0  -2   87.43    8.57 
  13   0  -2   80.47    8.65 
 -13  13  -2   79.37    8.97 
 -13  13  -2   82.28    8.98 
  13 -13   2   85.83    8.86 
   0  13   2   90.52    9.41 
 -13   0   2   84.46    9.26 
  13 -13   2   80.88    8.69 
  16  -3  -2   35.85    6.30 
 -13  16  -2   43.59    5.41 
 -13  16  -2   41.74    6.46 
  16  -3  -2   40.03    6.01 
 -13  16  -2   45.49    4.63 
 -13  16  -2   39.82    6.02 
  16  -3  -2   47.96    6.23 
   3  13   2   39.49    4.66 
   3  13   2   47.02    6.56 
  13 -16   2   47.02    5.97 
  13 -16   2   49.35    6.51 
 -16   3   2   33.51    6.50 
   3  13   2   56.49    5.73 
 -13  19  -2    1.16    2.51 
 -13  19  -2    3.14    3.65 
  19  -6  -2    3.37    2.37 
 -13  19  -2    1.47    4.23 
  19  -6  -2    5.20    3.98 
  19  -6  -2    0.71    3.59 
  19  -6  -2   -3.24    3.40 
 -19   6   2   -3.16    3.23 
 -19   6   2    2.28    5.43 
   6  13   2    5.39    4.52 
   6  13   2    2.93    3.65 
   6  13   2    5.91    3.65 
 -19   6   2    3.84    3.72 
  13 -19   2    1.87    4.19 
   6  13   2    2.65    2.53 
  22  -9  -2   -2.92    2.46 
 -13  22  -2   -0.57    3.64 
 -13  22  -2    0.15    2.63 
  22  -9  -2    1.13    3.87 
 -13  22  -2   -5.80    3.87 
  22  -9  -2   -7.37    4.01 
  22  -9  -2    2.91    3.79 
 -22   9   2   -0.66    3.34 
   9  13   2    2.40    3.53 
 -22   9   2    1.55    3.69 
 -22   9   2    7.82    5.79 
  13 -22   2    5.16    4.41 
   9  13   2   -2.38    3.99 
  25 -12  -2    2.70    4.14 
 -12 -13  -2   -2.14    4.16 
 -13  25  -2    4.14    3.77 
  25 -12  -2   -3.20    4.13 
 -13  25  -2   -2.19    2.57 
  25 -12  -2    0.41    3.19 
 -25  12   2   -1.01    4.01 
 -25  12   2   -4.73    4.48 
  12  13   2    1.94    4.41 
 -25  12   2   -3.11    5.24 
  12  13   2   -0.08    3.53 
  26 -14  -2   -1.42    4.62 
  26 -14  -2    2.66    3.06 
  26 -14  -2   -5.23    4.38 
 -14 -12  -2    9.35    5.53 
 -12  26  -2    4.71    3.02 
 -26  14   2    0.74    3.64 
 -26  14   2    4.19    4.15 
  14  12   2   -4.61    5.10 
 -26  14   2    5.21    5.88 
  23 -14  -2    3.90    5.20 
  -9  23  -2   -3.16    4.12 
 -14  -9  -2    5.38    4.67 
  23 -14  -2   -8.31    4.42 
  -9  23  -2    4.87    2.66 
  23 -14  -2    4.70    3.41 
 -23  14   2    2.05    4.35 
 -23  14   2   -6.73    5.08 
  14   9   2    1.17    3.73 
  14   9   2    5.50    4.77 
 -23  14   2    2.56    3.33 
  20 -14  -2    9.33    3.09 
  20 -14  -2   12.47    4.93 
  -6  20  -2    8.52    2.43 
  -6  20  -2   -1.17    4.13 
  20 -14  -2   16.03    5.17 
 -14  -6  -2    8.25    4.45 
  20 -14  -2    7.04    4.00 
  14   6   2    5.87    5.12 
 -20  14   2    3.74    3.80 
  14   6   2    6.83    3.27 
 -20  14   2    3.91    3.14 
 -20  14   2    1.29    4.73 
  17 -14  -2   73.43    8.34 
 -14  -3  -2   82.74    8.47 
  17 -14  -2   72.22    7.19 
  17 -14  -2   74.20    8.13 
  -3  17  -2   76.11    8.02 
  17 -14  -2   85.29    8.91 
 -17  14   2   55.61    6.96 
 -17  14   2   59.47    7.35 
 -17  14   2   54.76    8.58 
  14   3   2   84.19    9.23 
  14   3   2   76.68    7.45 
  14   3   2   78.08    7.43 
  14   3   2   70.05    7.69 
   0  14  -2   21.09    4.78 
  14 -14  -2   13.72    3.18 
  14 -14  -2   18.60    5.05 
   0  14  -2   25.41    3.73 
 -14   0  -2   19.80    4.93 
 -14  14   2   18.57    3.57 
  14   0   2   20.14    5.64 
  14   0   2   26.86    4.16 
 -14  14   2   19.14    3.09 
  14   0   2   20.96    3.85 
  14   0   2   18.51    4.19 
 -14  14   2   20.20    5.34 
  11 -14  -2    6.14    4.14 
  11 -14  -2    3.15    3.77 
   3  11  -2    1.20    2.96 
   3  11  -2    1.09    3.44 
 -14   3  -2    0.97    4.01 
  14  -3   2    5.13    4.22 
 -11  14   2    2.24    2.32 
  14  -3   2    2.19    3.51 
  14  -3   2    0.11    2.85 
  14  -3   2    2.64    3.47 
  14  -3   2   -5.24    2.76 
 -11  14   2    0.44    3.21 
 -11  14   2   -3.25    4.42 
   8 -14  -2   13.67    4.62 
   8 -14  -2   19.38    3.73 
 -14   6  -2   23.57    4.40 
   6   8  -2   20.45    4.28 
   6   8  -2   22.79    3.70 
   6   8  -2   19.81    3.42 
 -14   6  -2   19.97    4.62 
  -8  14   2   22.50    3.05 
  14  -6   2   23.38    3.85 
  -8  14   2   13.18    4.07 
  14  -6   2   13.07    3.92 
  14  -6   2   11.37    3.23 
  14  -6   2   25.36    4.66 
  14  -6   2   20.86    3.46 
  -8  14   2   18.30    4.98 
   9   5  -2   27.44    4.17 
   9   5  -2   25.36    4.33 
 -14   9  -2   22.82    4.03 
   5 -14  -2   30.07    4.72 
 -14   9  -2   25.32    4.98 
  14  -9   2   28.23    5.31 
  -5  14   2   30.93    4.87 
  14  -9   2   25.28    4.55 
  14  -9   2   20.96    4.28 
  -9  -5   2   32.79    5.17 
  12   2  -2   50.01    5.84 
 -14  12  -2   39.35    5.86 
 -14  12  -2   32.45    5.11 
  12   2  -2   25.92    5.07 
 -12  -2   2   40.52    6.32 
  14 -12   2   34.68    5.55 
  14 -12   2   36.94    6.00 
  -2  14   2   48.92    6.15 
  14 -12   2   35.47    5.40 
  15  -1  -2    8.07    4.09 
 -14  15  -2   15.45    3.90 
  15  -1  -2    9.17    4.32 
  15  -1  -2   11.17    3.85 
 -14  15  -2   11.72    2.77 
 -14  15  -2    6.60    3.96 
 -14  15  -2    9.28    4.91 
   1  14   2   12.39    2.52 
  14 -15   2   17.08    4.33 
  14 -15   2   10.63    4.67 
   1  14   2   17.62    4.74 
 -15   1   2    9.68    5.03 
 -14  18  -2    8.03    3.80 
  18  -4  -2    9.19    4.13 
 -14  18  -2    2.67    2.41 
 -14  18  -2    2.79    4.46 
  18  -4  -2    5.98    2.54 
 -14  18  -2    1.81    4.72 
  18  -4  -2    4.06    4.16 
 -18   4   2    4.27    5.36 
   4  14   2    2.83    3.07 
   4  14   2    8.30    2.64 
   4  14   2    6.09    4.36 
   4  14   2    4.38    3.37 
  14 -18   2    6.31    3.82 
 -18   4   2   11.01    3.28 
  14 -18   2    1.26    4.32 
  14 -18   2    4.04    2.75 
 -14  21  -2    0.55    3.60 
  21  -7  -2    1.35    4.18 
  21  -7  -2   -9.72    3.22 
  21  -7  -2    2.63    2.44 
 -14  21  -2   -0.10    2.69 
 -14  21  -2   -0.78    3.99 
  21  -7  -2   -1.95    3.47 
 -21   7   2   -1.37    5.53 
  14 -21   2   -4.80    4.12 
   7  14   2    0.67    2.52 
   7  14   2    3.33    3.87 
 -21   7   2   -0.20    3.46 
   7  14   2    1.76    4.00 
 -21   7   2    2.13    3.99 
  24 -10  -2    1.99    4.62 
  24 -10  -2    8.41    2.86 
 -10 -14  -2   17.33    5.48 
  24 -10  -2    1.94    3.91 
 -14  24  -2    9.18    2.87 
 -14  24  -2   -1.84    4.14 
 -14  24  -2   12.67    3.90 
 -24  10   2    9.65    4.52 
  10  14   2    6.39    4.57 
  10  14   2   10.36    4.00 
  14 -24   2    2.02    4.58 
 -24  10   2    0.07    5.57 
 -24  10   2    3.96    3.83 
 -14  27  -2    6.75    3.30 
 -14  27  -2    5.12    3.92 
  27 -13  -2    5.73    3.54 
 -13 -14  -2    1.17    4.59 
 -27  13   2   10.36    4.89 
 -27  13   2    6.28    3.95 
 -13  28  -2   -5.02    2.80 
  28 -15  -2    4.47    3.27 
 -28  15   2    2.03    4.94 
 -28  15   2    2.36    3.77 
 -15 -10  -2   -0.06    5.20 
  25 -15  -2    0.39    3.16 
 -10  25  -2   -2.51    2.38 
  25 -15  -2   -1.49    5.14 
  25 -15  -2    4.89    4.26 
 -25  15   2   -0.03    4.18 
  15  10   2    2.49    5.45 
 -25  15   2    0.44    5.30 
 -25  15   2   -0.27    3.33 
  15  10   2   -0.03    3.52 
  22 -15  -2    0.26    5.15 
  22 -15  -2   -1.91    4.58 
  -7  22  -2    2.82    4.29 
 -15  -7  -2   -1.72    4.77 
  -7  22  -2    5.42    2.45 
  22 -15  -2   10.32    3.52 
  15   7   2    6.00    4.79 
 -22  15   2   -0.07    3.31 
  15   7   2    1.87    3.21 
 -22  15   2    6.32    5.23 
 -22  15   2    7.07    4.46 
  19 -15  -2    9.44    4.45 
  -4  19  -2   10.92    4.63 
  19 -15  -2   13.74    3.23 
 -15  -4  -2   14.11    4.61 
  19 -15  -2   11.51    5.02 
  19 -15  -2   18.55    4.41 
  15   4   2   10.14    4.78 
 -19  15   2   12.46    3.46 
 -19  15   2   16.16    3.93 
 -19  15   2    9.39    5.11 
  15   4   2    9.39    3.38 
 -15  -1  -2   39.82    6.40 
  16 -15  -2   35.47    4.78 
  16 -15  -2   45.73    6.15 
  16 -15  -2   36.68    5.96 
  16 -15  -2   38.59    6.17 
  -1  16  -2   46.95    5.99 
 -16  15   2   42.30    4.56 
  15   1   2   36.25    6.26 
  15   1   2   37.87    5.17 
 -16  15   2   40.23    5.29 
 -16  15   2   46.13    4.73 
  15   1   2   39.05    5.08 
  15   1   2   40.83    5.59 
 -16  15   2   41.25    6.67 
   2  13  -2   -8.71    3.24 
   2  13  -2   -5.07    3.56 
  13 -15  -2   -5.44    3.73 
 -15   2  -2    1.11    4.35 
  15  -2   2    4.35    3.93 
  15  -2   2    4.11    2.77 
 -13  15   2   -3.26    3.24 
  15  -2   2    1.21    3.17 
 -13  15   2   -1.12    4.78 
 -13  15   2   -4.77    3.63 
 -13  15   2   -2.90    2.63 
  15  -2   2   -1.38    2.89 
  15  -2   2   -1.94    3.40 
  10 -15  -2    2.83    3.62 
   5  10  -2    1.44    3.75 
  10 -15  -2    1.73    3.43 
 -15   5  -2   -0.39    4.30 
   5  10  -2    7.97    3.17 
 -10  15   2    1.02    3.40 
  15  -5   2    4.88    3.04 
  15  -5   2    3.60    2.80 
 -10  15   2   -3.32    4.44 
  15  -5   2    2.44    3.76 
 -10  15   2    3.97    2.21 
  15  -5   2   -0.32    2.80 
  15  -5   2    1.41    3.34 
 -15   8  -2    1.52    4.14 
   8   7  -2    0.63    2.81 
   7 -15  -2    2.49    3.95 
   8   7  -2    2.73    2.82 
   8   7  -2    4.53    2.73 
  -7  15   2    2.38    3.72 
  -7  15   2    2.26    4.26 
  -7  15   2    0.21    2.28 
  15  -8   2    1.97    3.22 
  15  -8   2   -0.71    3.04 
  -8  -7   2    2.31    4.34 
  15  -8   2    2.66    3.62 
 -15  11  -2    9.64    3.20 
  11   4  -2    6.00    3.39 
 -15  11  -2    1.43    4.35 
  11   4  -2    3.82    3.67 
  15 -11   2    7.31    3.38 
  15 -11   2    4.83    3.48 
 -11  -4   2    8.27    4.58 
  -4  15   2    8.42    4.06 
  15 -11   2   13.51    4.72 
  14   1  -2    7.36    4.45 
 -15  14  -2   11.99    3.76 
  14   1  -2    8.17    4.23 
 -15  14  -2    8.68    2.86 
  14   1  -2    7.01    3.34 
 -15  14  -2   12.97    3.88 
 -15  14  -2    8.53    4.26 
  15 -14   2   11.47    4.68 
 -14  -1   2    8.25    4.90 
  15 -14   2    6.31    3.99 
  15 -14   2    4.26    2.74 
  -1  15   2   14.12    2.50 
  15 -14   2   13.18    4.38 
  -1  15   2    9.88    4.61 
 -15  17  -2    7.58    2.48 
  17  -2  -2    2.29    3.93 
 -15  17  -2    3.00    4.35 
 -15  17  -2    4.12    3.82 
 -15  17  -2    7.93    3.70 
  17  -2  -2    3.41    4.30 
  15 -17   2    4.71    2.52 
 -17   2   2    2.72    4.85 
   2  15   2   10.45    2.65 
   2  15   2   10.27    4.16 
  15 -17   2    8.02    4.54 
  15 -17   2   -0.32    3.34 
 -15  20  -2    0.20    2.70 
 -15  20  -2   -0.70    4.11 
  20  -5  -2   -4.20    4.58 
 -15  20  -2   -3.21    3.75 
 -15  20  -2    2.28    4.31 
  20  -5  -2    0.14    2.51 
  20  -5  -2    8.09    4.09 
   5  15   2    7.41    3.56 
  15 -20   2    1.82    4.00 
   5  15   2    4.43    2.47 
 -20   5   2    4.85    4.28 
   5  15   2   -1.00    4.13 
 -20   5   2    4.95    3.48 
 -20   5   2    1.66    5.58 
 -15  23  -2    7.19    4.10 
  23  -8  -2    4.88    4.32 
 -15  23  -2    6.68    3.06 
 -15  23  -2    4.09    4.26 
  23  -8  -2    9.84    4.71 
  23  -8  -2    8.07    3.03 
 -23   8   2   16.20    6.37 
   8  15   2   17.28    4.12 
 -23   8   2   14.72    3.95 
   8  15   2   12.55    5.03 
 -23   8   2   15.15    4.13 
  15 -23   2    4.66    4.72 
  26 -11  -2    7.08    3.38 
 -15  26  -2   10.86    3.48 
 -11 -15  -2   18.91    5.71 
  26 -11  -2    5.08    4.60 
  26 -11  -2   -1.28    4.61 
 -15  26  -2   14.37    4.33 
 -26  11   2   12.53    4.48 
  11  15   2   12.94    4.61 
 -26  11   2   -0.93    5.43 
  11  15   2    4.32    4.66 
 -26  11   2    8.66    4.06 
 -15  29  -2   -0.11    3.96 
 -15  29  -2   -2.85    2.80 
  29 -14  -2    9.08    3.61 
 -29  14   2    2.10    4.20 
 -29  14   2    0.15    4.70 
  30 -16  -2   -1.40    3.43 
 -14  30  -2    5.76    3.11 
 -30  16   2   -6.39    3.71 
 -30  16   2   -0.52    4.86 
 -11  27  -2    0.94    2.85 
  27 -16  -2   -0.74    3.51 
 -27  16   2    1.48    4.40 
 -27  16   2    2.68    3.71 
 -16  -8  -2   -0.96    4.98 
  -8  24  -2    0.90    2.46 
  24 -16  -2    0.52    4.24 
  24 -16  -2   -1.28    4.77 
  24 -16  -2    3.28    3.54 
  16   8   2    5.90    5.19 
 -24  16   2    4.77    3.46 
 -24  16   2   -4.22    5.03 
 -24  16   2    0.35    4.55 
  16   8   2    0.20    3.34 
  21 -16  -2    4.56    5.35 
  -5  21  -2    5.83    4.25 
  21 -16  -2    5.70    4.92 
  21 -16  -2    3.08    3.11 
 -16  -5  -2   12.02    4.69 
  16   5   2    6.49    4.88 
 -21  16   2    2.60    3.17 
  16   5   2    1.05    3.46 
 -21  16   2    2.11    4.93 
 -21  16   2    3.32    3.86 
  18 -16  -2   51.70    5.67 
 -16  -2  -2   59.32    7.11 
  -2  18  -2   64.22    7.17 
  18 -16  -2   41.34    6.80 
  18 -16  -2   43.46    6.67 
  18 -16  -2   32.46    6.84 
  16   2   2   53.93    7.44 
  16   2   2   53.66    6.37 
 -18  16   2   52.11    5.34 
 -18  16   2   51.90    5.46 
 -18  16   2   56.67    5.93 
 -18  16   2   40.03    7.22 
  16   2   2   53.78    6.16 
   1  15  -2   46.24    6.08 
 -16   1  -2   39.52    6.52 
   1  15  -2   49.68    5.57 
  15 -16  -2   41.40    6.12 
  15 -16  -2   40.02    4.75 
  16  -1   2   51.61    5.62 
 -15  16   2   44.17    5.01 
  16  -1   2   38.19    5.26 
 -15  16   2   41.49    4.58 
  16  -1   2   37.14    6.20 
 -15  16   2   31.59    6.71 
 -15  16   2   45.32    5.31 
 -15  16   2   43.87    5.14 
  16  -1   2   56.96    6.18 
   4  12  -2   19.25    3.88 
  12 -16  -2   26.77    4.70 
   4  12  -2   25.55    4.73 
 -16   4  -2   14.37    4.73 
 -12  16   2   21.59    5.47 
  16  -4   2   12.63    3.56 
  16  -4   2   14.53    3.50 
  16  -4   2   13.45    3.84 
 -12  16   2   18.36    3.50 
 -12  16   2   16.56    2.74 
  16  -4   2   16.55    4.29 
 -12  16   2   13.23    3.87 
  16  -4   2   18.06    4.58 
   7   9  -2    2.95    2.95 
   9 -16  -2   -2.53    3.42 
   7   9  -2    2.07    3.00 
 -16   7  -2   -4.50    3.92 
   7   9  -2    2.78    3.16 
  16  -7   2   -3.29    2.69 
  16  -7   2    5.09    3.58 
  -9  16   2   -3.52    3.23 
  16  -7   2    5.36    2.21 
  -9  16   2   -3.82    2.00 
  -9  16   2    6.90    5.33 
  16  -7   2    0.02    4.10 
  -7  -9   2   -0.96    4.24 
  10   6  -2    7.01    3.23 
 -16  10  -2   10.36    4.36 
  10   6  -2    5.32    3.16 
   6 -16  -2    2.28    3.81 
 -16  10  -2    1.67    3.53 
  -6  16   2    5.42    2.74 
  -6  16   2    3.96    3.76 
  16 -10   2    9.90    3.55 
 -10  -6   2    5.47    4.25 
  -6  16   2    5.15    3.76 
  16 -10   2    1.00    2.30 
  16 -10   2    2.87    4.30 
  16 -10   2    1.64    3.09 
 -16  13  -2   40.37    6.35 
  13   3  -2   39.12    5.45 
 -16  13  -2   35.39    5.16 
 -16  13  -2   37.68    4.31 
  13   3  -2   46.15    5.94 
  16 -13   2   34.43    5.60 
  16 -13   2   41.71    4.37 
  -3  16   2   46.97    5.83 
  16 -13   2   32.24    5.68 
  16 -13   2   37.72    5.92 
 -13  -3   2   46.47    6.98 
  -3  16   2   35.97    4.39 
  16   0  -2   15.48    4.35 
 -16  16  -2   17.97    5.32 
 -16  16  -2   11.47    3.96 
 -16  16  -2   20.88    4.20 
 -16  16  -2   13.36    2.83 
  16   0  -2   13.26    4.00 
  16   0  -2   18.50    4.60 
   0  16   2   15.40    2.99 
   0  16   2   16.60    4.85 
  16 -16   2   17.23    4.67 
  16 -16   2   22.86    5.33 
 -16   0   2    4.91    5.05 
  16 -16   2   14.19    3.01 
  19  -3  -2   -1.26    4.23 
 -16  19  -2   -2.91    2.60 
 -16  19  -2    2.94    3.78 
  19  -3  -2    1.83    3.92 
 -16  19  -2    6.68    4.45 
 -16  19  -2    5.57    3.79 
   3  16   2   -1.82    3.82 
  16 -19   2   -1.72    3.88 
  16 -19   2    4.90    2.67 
  16 -19   2    0.70    4.22 
   3  16   2    2.90    2.26 
 -19   3   2   -0.56    5.33 
 -16  22  -2    0.22    4.33 
 -16  22  -2    1.08    3.92 
  22  -6  -2   -1.66    3.36 
 -16  22  -2   -0.07    2.79 
  22  -6  -2    5.94    4.51 
   6  16   2    1.45    2.64 
   6  16   2   -0.03    3.07 
  16 -22   2    4.17    4.72 
 -22   6   2    0.63    3.62 
 -22   6   2   -4.37    5.85 
   6  16   2    3.34    3.96 
 -22   6   2   -1.00    4.03 
 -16  25  -2    7.27    2.95 
  25  -9  -2   -5.20    4.23 
  25  -9  -2    1.36    2.61 
  25  -9  -2    7.42    4.41 
 -16  25  -2    1.64    3.83 
 -25   9   2    1.98    4.05 
 -25   9   2    0.03    3.71 
   9  16   2   -2.79    4.58 
   9  16   2    0.13    3.44 
  16 -25   2   -1.54    4.56 
 -25   9   2   -9.44    5.65 
 -16  28  -2    6.35    3.10 
 -16  28  -2    1.67    3.93 
  28 -12  -2    0.08    3.33 
 -28  12   2    3.38    4.03 
 -28  12   2   -1.39    4.68 
 -16  31  -2    2.54    3.71 
  31 -15  -2    5.60    3.42 
 -16  31  -2   13.31    3.55 
 -31  15   2    0.39    4.23 
 -31  15   2    2.88    5.07 
  32 -17  -2    0.46    3.34 
 -15  32  -2    2.64    3.19 
 -32  17   2   -1.25    4.14 
 -32  17   2    8.58    5.26 
 -12  29  -2    0.63    2.80 
  29 -17  -2    2.16    3.55 
 -29  17   2    2.38    5.19 
 -29  17   2   -6.59    4.05 
  26 -17  -2   -4.59    4.61 
  -9  26  -2    3.56    2.69 
  26 -17  -2   -2.06    4.74 
  26 -17  -2    0.74    3.18 
 -26  17   2   -3.31    5.87 
 -26  17   2    7.42    4.48 
 -26  17   2    2.15    3.45 
  23 -17  -2   24.85    5.51 
  23 -17  -2   18.66    3.84 
  23 -17  -2   14.63    5.38 
 -17  -6  -2   14.24    5.16 
 -23  17   2   18.09    5.97 
  17   6   2   17.66    5.90 
 -23  17   2   19.06    4.50 
 -23  17   2   17.64    4.26 
 -17  -3  -2  112.47   10.91 
  20 -17  -2   75.89   11.25 
  -3  20  -2  110.81   10.98 
  20 -17  -2  121.99   11.57 
  20 -17  -2  106.77    9.74 
 -20  17   2   93.39   11.17 
 -20  17   2  105.97    9.91 
 -20  17   2  104.96    9.49 
  17   3   2  104.74   10.16 
 -20  17   2  116.29   10.42 
  17   3   2  109.72   11.42 
   0  17  -2  270.14   22.72 
  17 -17  -2  258.23   22.34 
  17 -17  -2  254.34   23.37 
 -17   0  -2  297.94   23.41 
   0  17  -2  282.92   23.08 
  17   0   2  228.15   23.32 
 -17  17   2  261.39   22.33 
  17   0   2  272.09   22.92 
  17   0   2  271.07   22.83 
  17   0   2  281.03   22.91 
 -17  17   2  257.62   22.51 
 -17  17   2  263.10   22.48 
 -17  17   2  274.94   22.24 
 -17   3  -2   64.39    7.46 
   3  14  -2   78.59    7.71 
   3  14  -2   73.20    7.34 
  14 -17  -2   83.39    8.30 
  14 -17  -2   57.40    6.58 
 -17   3  -2   76.62    8.62 
 -14  17   2   62.93    6.89 
  17  -3   2   69.46    7.39 
  17  -3   2   65.33    6.63 
 -14  17   2   71.63    6.59 
 -14  17   2   75.76    6.89 
 -14  17   2   79.37    8.65 
  17  -3   2   78.33    7.58 
  17  -3   2   68.17    7.95 
 -14  17   2   65.21    7.31 
  17  -3   2   69.04    7.57 
  11 -17  -2   12.77    3.73 
   6  11  -2    9.86    3.56 
 -17   6  -2    1.77    3.31 
 -17   6  -2   -0.80    4.89 
   6  11  -2   11.82    3.55 
  17  -6   2   10.94    3.61 
  17  -6   2    0.50    3.90 
 -11  17   2   12.28    3.58 
  17  -6   2   -0.87    3.53 
 -11  17   2    7.89    2.26 
 -11  17   2   12.63    2.89 
 -11  17   2   11.86    5.17 
 -11  17   2    7.91    3.96 
  17  -6   2    9.59    2.73 
   9   8  -2   -1.81    3.19 
   9   8  -2   -1.30    3.27 
 -17   9  -2   -1.89    4.16 
   8 -17  -2    5.21    3.88 
 -17   9  -2    3.65    3.14 
  17  -9   2   -1.27    4.43 
  -9  -8   2    8.77    4.33 
  17  -9   2    4.01    2.59 
  17  -9   2    7.31    3.60 
  -8  17   2   -1.81    2.72 
  -8  17   2    4.64    2.04 
  -8  17   2    1.34    3.30 
  17  -9   2    5.67    3.22 
  -8  17   2   -0.48    2.91 
 -17  12  -2    0.90    2.25 
 -17  12  -2   -4.19    3.64 
 -17  12  -2    3.25    4.17 
  12   5  -2   -3.65    3.54 
  12   5  -2   -2.98    3.65 
  -5  17   2   -0.33    2.57 
  17 -12   2    6.38    4.14 
  -5  17   2   -5.22    3.61 
  17 -12   2   -1.22    3.27 
  17 -12   2    4.33    3.46 
  17 -12   2    4.76    2.64 
 -12  -5   2    2.29    4.59 
 -17  15  -2    5.27    3.33 
  15   2  -2    2.52    3.55 
 -17  15  -2    4.06    2.71 
  15   2  -2    6.29    4.00 
 -17  15  -2    2.55    4.30 
  17 -15   2    0.86    4.46 
  17 -15   2    6.55    3.62 
  -2  17   2    1.93    4.09 
  17 -15   2    0.81    3.75 
  -2  17   2    5.45    2.34 
 -15  -2   2   -3.02    4.57 
  17 -15   2    5.65    2.63 
 -17  18  -2   -0.26    4.78 
 -17  18  -2   -2.16    2.49 
  18  -1  -2    3.12    3.61 
  18  -1  -2   -0.01    3.95 
 -17  18  -2    2.52    3.86 
   1  17   2    6.76    2.97 
   1  17   2   -0.40    3.92 
   1  17   2   -1.57    2.43 
  17 -18   2    1.39    4.29 
  17 -18   2    1.93    4.61 
 -18   1   2   -1.78    4.77 
  17 -18   2    1.14    3.01 
  21  -4  -2   10.52    4.10 
 -17  21  -2   12.46    3.26 
 -17  21  -2    8.97    4.88 
  21  -4  -2    9.40    4.87 
 -17  21  -2    9.72    3.79 
   4  17   2   11.97    2.92 
  17 -21   2    7.12    4.97 
   4  17   2   10.26    4.67 
 -21   4   2    8.45    6.11 
  17 -21   2    7.73    2.82 
 -21   4   2   15.70    3.87 
 -17  24  -2   23.20    3.87 
 -17  24  -2   11.70    4.90 
  24  -7  -2   20.71    5.01 
 -17  24  -2   16.06    4.43 
  24  -7  -2    4.75    4.75 
   7  17   2   25.34    5.79 
  17 -24   2   15.49    5.69 
 -24   7   2   11.37    7.18 
   7  17   2   27.45    4.98 
   7  17   2   28.35    3.51 
 -24   7   2   18.65    4.35 
 -24   7   2   23.62    4.83 
 -17  27  -2   19.74    4.11 
 -10 -17  -2   23.24    5.87 
 -17  27  -2   14.70    4.82 
  27 -10  -2   16.94    3.64 
 -27  10   2   20.50    5.28 
  10  17   2   24.36    4.70 
 -27  10   2   20.67    4.58 
  30 -13  -2   17.43    3.87 
 -17  30  -2   20.28    4.72 
 -17  30  -2   20.24    4.14 
 -30  13   2   19.92    5.61 
 -30  13   2   17.29    4.85 
 -13  31  -2   -1.42    2.85 
  31 -18  -2    3.98    3.72 
 -31  18   2    4.50    5.00 
 -31  18   2    5.32    4.26 
 -10  28  -2   -1.92    2.67 
  28 -18  -2    0.58    3.37 
 -28  18   2   -7.13    3.62 
 -28  18   2    0.73    4.55 
  25 -18  -2    7.81    4.78 
  25 -18  -2    0.06    3.11 
  25 -18  -2   -3.75    4.61 
 -25  18   2    5.96    5.70 
 -25  18   2    6.77    3.57 
 -25  18   2   -0.36    4.15 
  22 -18  -2   21.70    3.85 
  22 -18  -2   15.28    5.70 
 -18  -4  -2   20.52    5.88 
  22 -18  -2   16.81    6.08 
 -22  18   2   20.27    3.82 
 -22  18   2   19.33    4.77 
 -22  18   2   22.17    3.38 
  18   4   2   27.40    6.62 
 -22  18   2   17.86    5.93 
 -18  -1  -2   42.69    7.22 
  19 -18  -2   37.87    7.63 
  19 -18  -2   59.98    6.00 
  19 -18  -2   58.67    7.57 
  -1  19  -2   61.22    7.21 
 -19  18   2   67.85    6.22 
 -19  18   2   57.04    5.92 
 -19  18   2   59.37    6.32 
  18   1   2   60.45    8.24 
 -19  18   2   42.39    7.50 
  18   1   2   37.01    6.50 
 -19  18   2   57.42    5.97 
 -18   2  -2   48.74    6.04 
   2  16  -2   70.12    6.84 
  16 -18  -2   64.41    7.32 
 -18   2  -2   51.09    6.96 
   2  16  -2   50.32    6.84 
  16 -18  -2   51.14    5.43 
  18  -2   2   42.75    5.11 
 -16  18   2   55.08    8.34 
 -16  18   2   58.73    5.62 
  18  -2   2   44.33    6.00 
 -16  18   2   49.75    5.18 
  18  -2   2   51.83    7.48 
 -16  18   2   55.11    5.68 
 -16  18   2   56.84    5.97 
  18  -2   2   52.24    6.38 
  18  -2   2   43.26    6.46 
   5  13  -2    8.06    3.82 
 -18   5  -2    7.67    3.10 
 -18   5  -2   -6.02    4.42 
  13 -18  -2    5.53    2.29 
   5  13  -2    4.68    3.67 
  13 -18  -2    1.44    3.79 
 -13  18   2    6.14    3.94 
 -13  18   2    4.67    3.23 
 -13  18   2    3.26    2.84 
  18  -5   2    3.31    3.72 
 -13  18   2    2.79    5.22 
  18  -5   2    1.92    2.20 
  18  -5   2   -0.21    3.47 
  18  -5   2    3.97    3.11 
 -13  18   2   -1.03    2.33 
  18  -5   2    5.23    3.82 
 -18   8  -2    3.36    4.41 
   8  10  -2    5.11    3.16 
   8  10  -2    3.21    3.53 
 -18   8  -2    7.08    3.37 
 -18   8  -2    0.16    3.11 
 -10  18   2    6.80    4.99 
  18  -8   2    2.71    4.43 
 -10  18   2    7.26    3.12 
  18  -8   2    2.88    3.42 
 -10  18   2    3.67    2.98 
  -8 -10   2    2.74    5.04 
  18  -8   2    1.29    3.83 
 -10  18   2    0.11    3.47 
  18  -8   2    3.90    2.65 
  11   7  -2    3.09    3.17 
 -18  11  -2    7.94    2.60 
 -18  11  -2    3.14    3.06 
 -18  11  -2    0.38    4.33 
 -18  11  -2    4.04    3.29 
  11   7  -2    8.84    3.36 
  18 -11   2   14.03    5.12 
  -7  18   2    9.14    3.04 
  18 -11   2    5.23    2.42 
  -7  18   2    3.30    3.40 
  18 -11   2    2.00    3.75 
  -7  18   2    3.18    2.73 
  18 -11   2   11.03    4.15 
 -11  -7   2    5.67    4.55 
  14   4  -2    8.96    3.84 
  14   4  -2    1.13    3.83 
 -18  14  -2    9.85    2.81 
 -18  14  -2    4.39    4.90 
 -18  14  -2    7.39    3.86 
 -18  14  -2    0.45    3.13 
  -4  18   2    3.35    4.20 
  18 -14   2   -0.23    4.04 
  18 -14   2    1.64    4.79 
  18 -14   2    6.97    2.67 
  -4  18   2    6.24    2.65 
  18 -14   2    2.31    3.62 
 -14  -4   2    0.61    4.80 
  17   1  -2    2.32    4.12 
 -18  17  -2    0.24    3.84 
 -18  17  -2    2.04    5.01 
 -18  17  -2    1.32    2.53 
 -17  -1   2   -3.11    5.35 
  -1  18   2    0.29    4.18 
  18 -17   2    2.85    2.69 
  18 -17   2   -0.90    4.26 
  -1  18   2   -3.15    2.21 
  18 -17   2    1.77    4.07 
  18 -17   2    1.57    4.38 
 -18  20  -2    3.15    4.02 
 -18  20  -2    5.37    2.91 
  20  -2  -2    3.77    3.82 
  20  -2  -2    4.55    4.81 
 -18  20  -2    4.15    4.55 
   2  18   2    1.74    2.48 
   2  18   2    2.78    3.82 
 -20   2   2   -4.25    5.18 
  18 -20   2   -0.47    4.19 
  18 -20   2   -2.70    3.92 
  18 -20   2    2.21    3.03 
 -18  23  -2   11.34    4.85 
  23  -5  -2   15.51    4.60 
 -18  23  -2   12.45    3.23 
  23  -5  -2   13.11    5.08 
 -18  23  -2   10.60    4.37 
 -23   5   2   14.42    4.07 
   5  18   2   17.88    3.16 
  18 -23   2   11.73    5.51 
   5  18   2   14.68    4.93 
 -23   5   2   -0.57    6.12 
  26  -8  -2    4.72    4.27 
  26  -8  -2   16.10    5.86 
 -18  26  -2    6.06    4.28 
 -18  26  -2    9.24    3.27 
 -26   8   2   13.68    4.20 
 -26   8   2    8.26    4.72 
   8  18   2   17.97    4.21 
  18 -26   2   -1.31    4.81 
 -26   8   2    7.46    6.44 
   8  18   2   11.80    5.33 
 -18  29  -2    1.91    3.16 
  29 -11  -2    7.25    3.10 
 -18  29  -2    4.90    4.15 
 -29  11   2   11.57    5.22 
 -29  11   2    1.46    4.09 
 -18  32  -2    0.23    3.10 
 -18  32  -2    0.31    3.72 
  32 -14  -2   10.21    3.38 
 -32  14   2    5.34    3.90 
 -32  14   2   -9.56    4.49 
 -11  30  -2   -0.93    2.90 
  30 -19  -2   -0.22    3.67 
 -30  19   2    2.46    3.24 
 -30  19   2    5.13    4.08 
 -30  19   2    3.39    5.28 
  27 -19  -2    4.73    3.83 
 -27  19   2   -8.66    4.69 
 -27  19   2    7.23    3.59 
 -27  19   2   -0.96    3.28 
  24 -19  -2    9.86    5.47 
  24 -19  -2    6.99    5.82 
  24 -19  -2    8.63    3.76 
 -24  19   2    9.15    3.37 
 -24  19   2    3.04    4.01 
 -24  19   2    1.99    6.07 
 -24  19   2    5.29    3.16 
  21 -19  -2   10.52    5.46 
  21 -19  -2   20.95    3.74 
 -19  -2  -2    9.42    4.96 
  21 -19  -2   18.57    5.33 
 -21  19   2   18.46    3.62 
 -21  19   2    5.79    5.30 
  19   2   2   24.24    5.96 
 -21  19   2   18.92    3.08 
 -21  19   2   16.85    4.60 
 -19   1  -2   59.85    7.60 
   1  18  -2   76.25    7.27 
   1  18  -2   50.53    7.11 
  18 -19  -2   54.43    7.53 
  18 -19  -2   55.23    6.12 
 -19   1  -2   58.40    6.45 
  18 -19  -2   55.95    8.15 
 -18  19   2   58.16    6.42 
 -18  19   2   60.35    6.29 
 -18  19   2   51.24    5.69 
  19  -1   2   54.08    7.16 
  19  -1   2   53.19    7.75 
 -18  19   2   59.11    5.97 
 -18  19   2   48.55    8.12 
 -19   4  -2   11.53    3.54 
  15 -19  -2   15.19    3.13 
   4  15  -2   18.46    4.29 
  15 -19  -2    8.42    4.37 
   4  15  -2   18.63    4.43 
 -19   4  -2   11.00    5.05 
  19  -4   2    8.46    3.62 
 -15  19   2    9.10    3.90 
 -15  19   2    7.55    3.42 
  19  -4   2   14.39    4.10 
  19  -4   2   14.56    2.84 
 -15  19   2    9.76    5.55 
 -15  19   2   12.53    3.64 
  19  -4   2    5.46    3.57 
  19  -4   2   12.53    4.75 
   7  12  -2    1.38    3.60 
 -19   7  -2   -2.83    5.10 
   7  12  -2   -1.55    3.22 
 -19   7  -2    0.90    3.15 
  12 -19  -2    1.76    2.18 
 -19   7  -2   -3.61    2.93 
  19  -7   2   -0.64    2.98 
 -12  19   2   -0.95    2.69 
 -12  19   2   -2.68    3.95 
 -12  19   2    1.25    3.00 
  19  -7   2   -1.84    3.74 
  19  -7   2   -3.18    2.28 
 -12  19   2   -0.01    4.87 
  19  -7   2    0.45    3.70 
 -19  10  -2   -1.84    3.32 
 -19  10  -2   -1.64    3.13 
 -19  10  -2   -1.58    4.36 
  10   9  -2   -1.08    3.06 
  10   9  -2   -3.34    3.04 
  19 -10   2   -3.77    4.37 
  19 -10   2   -1.12    2.35 
  -9  19   2    1.94    2.94 
  19 -10   2   -1.65    3.09 
  -9  19   2   -1.59    3.39 
  19 -10   2    0.87    3.43 
  -9  19   2   -0.82    2.41 
 -10  -9   2   -8.40    4.01 
  13   6  -2    0.05    3.15 
  13   6  -2    1.57    3.26 
 -19  13  -2   12.04    4.00 
 -19  13  -2    2.38    2.31 
 -19  13  -2   -3.00    3.10 
 -19  13  -2   -4.14    4.67 
 -13  -6   2    0.35    5.23 
  -6  19   2    3.84    2.41 
  19 -13   2   11.84    4.30 
  19 -13   2    1.29    2.80 
  19 -13   2   -1.84    4.72 
  19 -13   2   -0.97    3.90 
 -19  16  -2    2.84    3.80 
 -19  16  -2   -4.73    4.17 
 -19  16  -2    1.47    3.38 
  16   3  -2    2.19    4.08 
 -19  16  -2    3.23    2.43 
  19 -16   2   -3.18    3.61 
  19 -16   2    0.64    3.03 
  -3  19   2   -0.63    2.32 
 -16  -3   2    0.71    4.85 
  19 -16   2    4.58    4.45 
  19 -16   2    1.67    3.78 
 -19  19  -2    0.36    2.77 
 -19  19  -2    3.88    4.07 
  19   0  -2    3.51    4.35 
  19   0  -2    4.50    3.47 
 -19  19  -2    2.27    5.09 
  19 -19   2    3.59    4.47 
   0  19   2    1.54    2.69 
  19 -19   2    1.40    4.06 
 -19   0   2   -6.17    5.64 
  19 -19   2    2.12    3.14 
   0  19   2    4.17    4.23 
 -19  22  -2    2.55    4.78 
  22  -3  -2    7.31    4.61 
  22  -3  -2    1.64    3.61 
 -19  22  -2    3.35    3.34 
 -19  22  -2    4.37    4.32 
   3  19   2    4.72    4.16 
  19 -22   2    6.37    3.01 
 -22   3   2   -7.75    6.02 
  19 -22   2   -2.44    4.84 
   3  19   2    5.73    2.57 
 -19  25  -2   -0.41    4.19 
 -19  25  -2    0.60    3.30 
  25  -6  -2    4.03    4.69 
  25  -6  -2    5.40    4.12 
 -25   6   2   -0.40    6.05 
 -25   6   2   -5.38    4.19 
   6  19   2    4.02    4.20 
  19 -25   2   -9.12    4.41 
   6  19   2    0.77    2.71 
 -19  28  -2    4.95    3.61 
 -19  28  -2   -0.54    4.35 
 -28   9   2    1.32    4.52 
 -28   9   2   -2.86    4.66 
  31 -12  -2    3.63    3.11 
 -19  31  -2    9.70    4.15 
 -19  31  -2    4.35    3.60 
 -31  12   2   10.12    4.22 
 -31  12   2   11.44    5.23 
  29 -20  -2    3.14    3.78 
 -29  20   2    3.06    3.03 
 -29  20   2   -1.90    4.72 
 -29  20   2    5.04    3.63 
  26 -20  -2    4.94    3.50 
 -26  20   2    3.23    4.32 
 -26  20   2   11.22    3.56 
 -26  20   2    8.28    2.99 
  23 -20  -2   27.25    6.94 
  23 -20  -2   52.87    5.65 
  23 -20  -2   40.59    7.48 
 -23  20   2   48.36    5.29 
 -23  20   2   38.75    4.78 
 -23  20   2   33.09    7.20 
 -23  20   2   53.74    6.19 
  20 -20  -2  128.62   10.80 
 -20   0  -2  127.39   11.37 
  20 -20  -2  103.64   12.40 
  20 -20  -2  121.63   12.44 
  20   0   2  108.50   12.50 
 -20  20   2  114.48   10.70 
 -20  20   2  113.56   12.97 
 -20  20   2  119.70   11.01 
 -20  20   2  125.18   11.17 
  17 -20  -2  116.52   10.04 
   3  17  -2  121.33   10.56 
  17 -20  -2  116.84   11.38 
 -20   3  -2  107.24   10.24 
 -20   3  -2  111.23   11.66 
  20  -3   2   95.23   11.19 
  20  -3   2  109.41    9.71 
  20  -3   2  120.93   10.95 
 -17  20   2  105.38   10.01 
 -17  20   2  115.78   11.72 
 -17  20   2  103.64   10.06 
 -17  20   2  108.61   10.49 
  14 -20  -2    6.70    2.33 
 -20   6  -2    7.57    3.64 
   6  14  -2    8.17    3.67 
 -20   6  -2    2.84    3.70 
 -20   6  -2   10.03    5.50 
  20  -6   2    4.09    3.28 
 -14  20   2   11.78    5.65 
  20  -6   2    8.78    2.85 
 -14  20   2    8.64    3.21 
  20  -6   2    8.61    3.72 
  20  -6   2   -6.45    3.57 
 -14  20   2    5.42    3.81 
 -14  20   2    6.28    3.39 
 -20   9  -2   -2.66    4.31 
 -20   9  -2    7.92    3.80 
 -20   9  -2    1.65    3.45 
   9  11  -2    3.39    3.35 
  20  -9   2    3.57    4.28 
  -9 -11   2    8.22    4.95 
 -11  20   2   -2.94    3.92 
  20  -9   2    7.08    3.90 
  20  -9   2   -0.12    3.54 
  20  -9   2    3.36    2.57 
 -11  20   2   -4.83    2.91 
 -11  20   2   -3.29    2.81 
  12   8  -2    0.89    3.39 
 -20  12  -2   -2.12    5.04 
 -20  12  -2   -0.82    2.14 
 -20  12  -2    1.52    3.57 
  12   8  -2    1.48    3.54 
 -20  12  -2   -1.89    3.80 
  20 -12   2   -2.82    3.72 
 -12  -8   2    7.02    4.71 
  20 -12   2    0.80    2.84 
  -8  20   2    0.71    2.83 
  20 -12   2   -1.71    4.06 
  20 -12   2   -4.82    3.32 
  -8  20   2    2.55    3.57 
 -20  15  -2   -0.52    4.48 
 -20  15  -2    2.86    3.24 
 -20  15  -2    1.01    3.47 
  15   5  -2   -2.64    3.44 
 -20  15  -2    1.03    2.32 
  20 -15   2    8.89    4.48 
  20 -15   2   -2.12    4.24 
  20 -15   2   -0.80    3.02 
 -15  -5   2    4.62    5.46 
  20 -15   2    5.47    4.34 
  -5  20   2    3.84    2.49 
  18   2  -2    2.11    3.87 
 -20  18  -2   -1.46    2.57 
 -20  18  -2    5.84    4.22 
 -20  18  -2   -0.87    5.05 
  20 -18   2    7.99    4.67 
  -2  20   2   -0.28    2.35 
 -18  -2   2   -3.04    4.96 
  20 -18   2   -1.27    2.82 
 -20  21  -2    0.87    3.64 
  21  -1  -2    5.83    4.55 
 -20  21  -2    1.57    2.88 
  20 -21   2    0.68    3.10 
 -21   1   2    1.10    5.17 
  20 -21   2    4.63    4.56 
   1  20   2    8.77    2.81 
  24  -4  -2   -0.70    4.47 
 -20  24  -2    7.87    4.32 
 -20  24  -2   14.31    3.29 
 -24   4   2    4.89    7.04 
 -24   4   2   13.89    4.11 
   4  20   2   13.09    2.97 
   4  20   2   14.84    5.06 
  20 -24   2   -1.55    4.83 
 -20  27  -2   12.18    3.54 
 -20  27  -2   15.68    4.63 
 -27   7   2    7.19    5.20 
 -27   7   2   13.68    4.35 
 -20  30  -2   24.60    4.25 
 -20  30  -2   17.50    4.92 
 -30  10   2   18.64    5.55 
 -30  10   2   23.66    4.82 
  31 -21  -2    1.81    3.65 
 -31  21   2   -4.15    3.44 
 -31  21   2    0.46    5.02 
  28 -21  -2    2.52    3.79 
 -28  21   2    4.68    4.96 
 -28  21   2   -0.43    3.44 
  25 -21  -2    7.13    3.73 
  25 -21  -2   -1.02    4.88 
 -25  21   2   -1.90    4.03 
 -25  21   2   -0.23    3.39 
 -25  21   2    0.72    6.18 
 -21  -1  -2   17.37    4.58 
  22 -21  -2   17.66    3.96 
  22 -21  -2   11.77    5.66 
  22 -21  -2   14.30    5.22 
 -22  21   2   17.09    4.36 
 -22  21   2   14.11    3.63 
 -22  21   2   22.57    4.19 
 -22  21   2    9.33    6.67 
  19 -21  -2   10.54    5.15 
  19 -21  -2   23.34    3.57 
   2  19  -2   22.52    4.57 
  19 -21  -2   22.70    7.08 
 -21   2  -2   21.74    4.14 
 -19  21   2   24.67    4.19 
 -19  21   2   20.97    3.88 
 -19  21   2   18.39    4.48 
 -19  21   2   14.73    6.11 
 -21   5  -2    1.11    3.31 
 -21   5  -2    5.18    3.16 
   5  16  -2   -1.22    3.78 
  16 -21  -2    7.09    2.72 
 -16  21   2   -1.09    3.77 
 -16  21   2    7.97    3.54 
  21  -5   2    6.65    3.86 
  21  -5   2    0.58    2.66 
 -16  21   2    4.03    6.21 
 -16  21   2    3.08    3.12 
 -21   8  -2   -0.23    3.56 
 -21   8  -2   -7.35    3.65 
 -21   8  -2   -4.62    5.33 
   8  13  -2   -1.46    3.39 
 -13  21   2   -2.93    3.49 
 -13  21   2    2.22    3.26 
  21  -8   2   -6.45    3.92 
 -13  21   2   -1.28    2.96 
  -8 -13   2    5.97    4.72 
  21  -8   2    0.48    3.72 
 -13  21   2    4.43    5.26 
  21  -8   2   -3.06    2.36 
 -21  11  -2   -1.47    3.90 
 -21  11  -2    3.57    5.57 
 -21  11  -2    0.27    3.18 
  11  10  -2   -1.54    2.99 
 -10  21   2    1.63    2.96 
  21 -11   2   -5.36    3.78 
 -10  21   2   -0.58    2.50 
 -11 -10   2    3.18    4.96 
 -10  21   2    0.96    4.03 
  21 -11   2    8.55    2.76 
  21 -11   2   -5.65    3.40 
 -21  14  -2    2.58    3.33 
 -21  14  -2    4.74    2.30 
 -21  14  -2   -1.98    3.98 
  14   7  -2    0.91    3.41 
 -21  14  -2    4.43    5.25 
  -7  21   2    1.36    2.80 
  21 -14   2   -1.77    4.04 
  21 -14   2    2.43    2.81 
 -14  -7   2    0.77    4.61 
 -21  17  -2    8.00    4.36 
 -21  17  -2   13.52    2.92 
  17   4  -2   10.21    4.23 
 -21  17  -2   14.44    3.98 
  -4  21   2    8.97    2.72 
 -17  -4   2    9.88    5.45 
  21 -17   2   15.66    3.58 
  21 -17   2    3.21    4.62 
 -21  20  -2    9.14    3.37 
 -21  20  -2   11.49    4.45 
  20   1  -2    5.91    4.37 
  -1  21   2    2.46    2.72 
  21 -20   2    2.96    5.12 
  21 -20   2    8.80    3.02 
 -20  -1   2   -3.27    5.20 
 -21  23  -2    8.87    4.46 
 -21  23  -2    2.27    2.93 
  23  -2  -2   -2.34    4.30 
  21 -23   2   -4.63    4.21 
   2  21   2    1.82    2.61 
  21 -23   2   -1.41    3.04 
 -23   2   2   -3.81    6.34 
 -21  26  -2    5.78    3.62 
 -21  26  -2    2.50    4.29 
 -26   5   2    7.84    3.91 
   5  21   2   -0.44    2.85 
 -21  29  -2    7.81    4.70 
 -21  29  -2    3.12    3.74 
 -29   8   2    4.37    4.59 
 -22  -8  -2   -3.27    4.35 
  30 -22  -2    1.39    3.69 
 -30  22   2    0.70    4.95 
 -30  22   2    0.90    3.93 
 -22  -5  -2   -0.09    4.31 
  27 -22  -2    3.91    3.37 
 -27  22   2   -1.47    4.46 
 -27  22   2   11.59    3.90 
  24 -22  -2   16.81    3.71 
  24 -22  -2   15.85    5.89 
  24 -22  -2    2.05    6.15 
 -22  -2  -2   13.99    4.20 
 -24  22   2   21.30    3.92 
 -24  22   2    2.56    6.08 
 -24  22   2   12.60    4.79 
  21 -22  -2   13.37    5.63 
  21 -22  -2   18.76    3.75 
 -22   1  -2   13.20    4.04 
  21 -22  -2   13.13    5.26 
 -21  22   2   15.73    4.78 
 -21  22   2   21.02    4.22 
 -21  22   2    6.44    3.78 
 -21  22   2    8.17    5.88 
  18 -22  -2   21.24    3.69 
   4  18  -2   25.45    4.92 
 -22   4  -2   24.56    4.34 
 -22   4  -2   28.13    4.35 
 -18  22   2   25.49    4.73 
 -18  22   2   21.77    4.34 
 -18  22   2   24.00    4.08 
  22  -4   2   26.37    3.74 
 -18  22   2   25.08    6.50 
 -22   7  -2    1.80    3.41 
 -22   7  -2    3.22    3.78 
   7  15  -2    6.73    4.13 
  15 -22  -2    5.65    2.46 
 -15  22   2    0.23    5.34 
 -15  22   2    5.37    3.46 
  22  -7   2    4.98    2.66 
 -15  22   2    7.29    3.35 
 -15  22   2    5.24    4.38 
 -22  10  -2   -1.65    3.81 
 -22  10  -2   -3.78    3.27 
  10  12  -2    7.07    3.71 
 -12  22   2   -2.21    3.00 
  22 -10   2   -2.24    2.61 
  22 -10   2   -7.73    4.02 
 -12  22   2    4.13    3.70 
 -10 -12   2    1.94    4.59 
 -12  22   2    1.80    3.25 
 -22  13  -2    3.16    4.09 
 -22  13  -2    1.08    3.50 
  13   9  -2   -0.27    3.71 
  -9  22   2    3.69    3.77 
  -9  22   2   -3.34    2.85 
 -13  -9   2    3.66    5.49 
  22 -13   2    0.50    2.75 
  22 -13   2   -6.83    4.29 
 -22  16  -2   -4.31    4.02 
 -22  16  -2    1.52    3.44 
 -22  16  -2   -0.47    2.43 
  16   6  -2    2.65    3.56 
 -16  -6   2    4.91    4.99 
  -6  22   2    1.88    2.76 
  22 -16   2   -5.38    4.22 
  22 -16   2   -1.10    2.85 
  19   3  -2    5.41    4.56 
 -22  19  -2   -4.38    3.04 
 -22  19  -2   -0.22    4.26 
 -19  -3   2   -4.87    4.90 
  22 -19   2    2.20    4.59 
  -3  22   2    0.95    2.44 
  22 -19   2    7.82    3.05 
 -22  22  -2    2.29    4.35 
  22   0  -2    0.97    4.16 
 -22  22  -2   -3.33    2.79 
  22 -22   2   -3.57    3.14 
   0  22   2    3.71    2.80 
 -22   0   2   -3.41    5.30 
  22 -22   2    3.62    5.29 
 -22  25  -2   -3.91    3.31 
 -22  25  -2    7.21    4.64 
  22 -25   2   -0.39    3.07 
   3  22   2   -2.09    2.72 
 -25   3   2    3.69    3.80 
 -22  28  -2    6.36    3.40 
 -22  28  -2    2.24    4.18 
 -28   6   2    0.71    4.42 
 -22  31  -2   -0.02    4.44 
 -22  31  -2    3.74    3.49 
 -31   9   2    4.12    4.59 
  29 -23  -2    3.48    3.53 
 -23  -6  -2   -1.72    3.94 
 -29  23   2    1.23    5.07 
 -29  23   2    1.00    3.68 
  26 -23  -2   14.94    4.14 
 -23  -3  -2   20.09    4.94 
 -26  23   2   23.64    4.93 
 -26  23   2   13.55    3.95 
 -23   0  -2   49.40    5.86 
  23 -23  -2   45.15    5.50 
  23 -23  -2   43.52    7.64 
  23 -23  -2   25.59    7.18 
 -23  23   2   53.38    5.70 
 -23  23   2   48.99    6.20 
 -23  23   2   50.36    5.91 
 -23  23   2   37.97    8.43 
  20 -23  -2   51.13    5.66 
 -23   3  -2   49.61    5.99 
   3  20  -2   45.67    6.38 
 -23   3  -2   49.60    6.01 
  20 -23  -2   51.16    7.51 
  20 -23  -2   55.16    8.57 
 -20  23   2   45.15    5.67 
 -20  23   2   61.63    6.45 
 -20  23   2   54.56    9.02 
 -20  23   2   51.57    6.07 
 -23   6  -2   20.30    4.56 
  17 -23  -2   23.44    3.46 
 -23   6  -2   13.71    4.26 
   6  17  -2   27.87    4.93 
  23  -6   2   20.15    3.75 
 -17  23   2   26.25    4.61 
 -17  23   2   19.85    4.12 
 -17  23   2   23.59    4.17 
 -17  23   2   32.57    7.27 
 -23   9  -2   -3.20    3.73 
   9  14  -2    2.19    3.87 
 -23   9  -2   -2.31    3.85 
  -9 -14   2   -1.83    5.14 
  23  -9   2    5.48    4.62 
 -14  23   2   -3.34    3.71 
  23  -9   2    1.63    2.68 
 -14  23   2   -3.49    3.05 
 -14  23   2    1.94    3.36 
  12  11  -2    0.88    3.42 
 -23  12  -2    6.77    3.68 
 -23  12  -2    5.01    4.11 
 -11  23   2    4.19    3.96 
  23 -12   2    3.25    2.89 
 -11  23   2    5.45    2.98 
 -12 -11   2    8.40    4.93 
  23 -12   2    1.03    4.09 
 -23  15  -2    7.36    4.34 
 -23  15  -2   16.92    3.95 
  15   8  -2    8.02    3.68 
  -8  23   2    9.52    3.04 
  23 -15   2    2.68    4.49 
  23 -15   2   15.99    3.74 
 -15  -8   2    1.73    5.11 
 -23  18  -2    8.07    3.77 
 -23  18  -2   12.62    4.09 
 -23  18  -2   10.31    3.23 
  18   5  -2    3.24    3.89 
  -5  23   2   16.16    3.17 
  23 -18   2   15.34    3.70 
  23 -18   2   13.41    5.58 
 -18  -5   2    4.86    5.26 
  21   2  -2   -1.10    3.86 
 -23  21  -2   -6.47    3.65 
 -23  21  -2    2.88    2.88 
  23 -21   2   -4.57    4.74 
  -2  23   2    0.48    2.67 
 -21  -2   2   -9.49    5.17 
  23 -21   2    0.29    3.22 
 -23  24  -2    4.95    4.37 
 -23  24  -2    2.99    3.02 
  23 -24   2    1.22    3.38 
   1  23   2    0.28    2.81 
 -23  27  -2    1.80    3.36 
 -23  27  -2    7.90    4.69 
 -27   4   2    9.95    4.66 
   4  23   2    6.14    3.13 
 -23  30  -2   13.99    4.11 
 -23  30  -2   12.12    4.96 
 -30   7   2   15.79    4.53 
 -24  -4  -2    3.86    4.51 
  28 -24  -2   -1.63    3.55 
 -28  24   2    3.74    4.45 
 -28  24   2    0.16    3.52 
 -24  -1  -2    7.52    4.03 
  25 -24  -2   -1.40    3.41 
 -25  24   2    3.95    3.59 
 -25  24   2    8.51    4.83 
 -25  24   2    0.74    3.77 
  22 -24  -2    6.71    6.18 
  22 -24  -2   11.43    3.62 
 -24   2  -2   11.31    4.09 
  22 -24  -2   14.58    5.25 
 -24   2  -2   18.19    4.15 
 -22  24   2   15.60    4.47 
 -22  24   2   18.31    4.08 
 -22  24   2    9.11    6.51 
 -22  24   2   13.18    3.63 
 -24   5  -2    8.27    3.76 
  19 -24  -2    6.84    2.84 
   5  19  -2   12.59    4.04 
 -24   5  -2    9.54    3.76 
  24  -5   2    9.70    2.81 
 -19  24   2   10.08    4.57 
 -19  24   2    4.88    3.54 
 -19  24   2    3.46    3.18 
 -19  24   2   17.55    6.41 
 -24   8  -2    4.40    3.82 
 -24   8  -2   -2.13    3.96 
   8  16  -2   -0.75    3.39 
  -8 -16   2    8.32    5.53 
 -16  24   2   -1.64    3.20 
  24  -8   2    1.18    2.70 
 -16  24   2   -2.41    2.99 
 -16  24   2    1.06    3.93 
 -16  24   2    5.69    5.63 
 -24  11  -2    0.47    3.56 
  11  13  -2    2.07    3.66 
 -24  11  -2    1.89    3.43 
 -13  24   2    5.16    3.09 
 -13  24   2   -1.19    4.17 
 -11 -13   2    3.53    4.79 
  24 -11   2   -8.89    4.22 
  24 -11   2    4.36    2.97 
 -13  24   2    7.26    3.35 
 -24  14  -2    3.31    4.05 
  14  10  -2    8.86    4.22 
 -24  14  -2    2.59    4.20 
  24 -14   2    2.31    4.94 
  24 -14   2    9.36    3.48 
 -10  24   2    6.85    3.06 
 -14 -10   2    8.07    5.40 
 -24  17  -2   28.32    4.53 
 -24  17  -2   24.07    4.61 
  17   7  -2   14.16    4.31 
 -24  17  -2   15.32    3.43 
 -17  -7   2   20.58    6.17 
  24 -17   2    8.04    5.18 
  24 -17   2   18.55    3.66 
  -7  24   2   19.24    3.32 
  20   4  -2   15.13    4.72 
 -24  20  -2   16.25    4.26 
 -24  20  -2   11.01    3.40 
 -24  20  -2   10.24    4.54 
  24 -20   2    3.08    5.39 
  -4  24   2   12.69    3.18 
 -20  -4   2    4.97    5.51 
  24 -20   2   18.85    3.75 
 -24  23  -2    2.10    3.21 
 -24  23  -2    0.73    4.39 
  24 -23   2    5.10    3.09 
  -1  24   2   -2.80    2.83 
 -24  26  -2    3.86    3.64 
 -24  26  -2    4.94    4.53 
  24 -26   2    0.73    3.29 
   2  24   2    4.57    2.87 
 -26   2   2   -1.84    3.96 
 -24  29  -2    3.06    3.67 
 -24  29  -2    4.46    4.54 
 -29   5   2    4.50    4.48 
 -25  -2  -2    2.31    4.33 
  27 -25  -2    5.23    3.32 
 -27  25   2    0.15    4.48 
 -27  25   2    4.22    4.17 
 -25   1  -2    3.78    3.86 
  24 -25  -2   11.63    3.34 
 -24  25   2    1.70    4.30 
 -24  25   2    9.83    3.64 
 -24  25   2    9.83    3.93 
 -25   4  -2    2.12    3.63 
  21 -25  -2    2.35    3.00 
 -25   4  -2    2.70    4.08 
 -21  25   2    6.79    3.76 
 -21  25   2    3.90    6.29 
 -21  25   2    6.80    3.54 
 -21  25   2    4.07    4.51 
 -25   7  -2   -6.12    3.61 
 -25   7  -2    0.04    3.69 
   7  18  -2    1.57    3.91 
  18 -25  -2    1.53    2.59 
 -18  25   2    2.53    5.61 
 -18  25   2    5.19    3.48 
 -18  25   2    4.26    3.52 
 -18  25   2    6.91    4.11 
  25  -7   2    0.63    2.98 
  10  15  -2   -0.04    3.52 
 -25  10  -2   -5.22    3.94 
 -25  10  -2   -1.75    3.72 
 -15  25   2   -4.46    3.04 
 -15  25   2   -0.21    2.87 
 -10 -15   2   12.25    5.14 
 -15  25   2    1.70    4.19 
  25 -10   2   -3.20    3.09 
 -25  13  -2    5.25    3.83 
 -25  13  -2    5.35    4.17 
  13  12  -2   -3.64    3.85 
  25 -13   2   -5.01    3.18 
  25 -13   2   -5.52    4.12 
 -12  25   2   -6.67    3.65 
 -12  25   2   -0.37    2.63 
 -13 -12   2    5.07    5.01 
  16   9  -2    0.46    3.46 
 -25  16  -2    5.24    4.20 
 -25  16  -2    2.20    4.27 
 -16  -9   2    3.47    5.28 
  25 -16   2   -4.10    4.99 
  -9  25   2   -4.61    2.83 
  25 -16   2   -0.06    2.95 
 -25  19  -2   -4.68    2.45 
  19   6  -2    2.34    3.66 
 -25  19  -2   -7.10    4.30 
 -25  19  -2    1.88    4.13 
  -6  25   2    3.10    2.80 
  25 -19   2   -4.72    5.13 
  25 -19   2    7.23    3.40 
 -19  -6   2   -9.34    5.13 
 -25  22  -2   -8.21    4.39 
 -25  22  -2   -2.07    2.71 
  -3  25   2   -2.80    2.83 
  25 -22   2    1.24    3.04 
 -25  25  -2   -0.65    3.45 
 -25  25  -2    3.61    4.70 
   0  25   2   -1.49    2.92 
  25 -25   2    2.11    3.52 
 -25  28  -2   -1.38    4.37 
 -25  28  -2   -2.48    3.48 
   3  25   2    4.70    3.07 
 -28   3   2   -3.89    4.42 
 -26  -3  -2   -0.06    3.74 
  29 -26  -2    1.61    3.39 
 -29  26   2    2.47    5.08 
  26 -26  -2    8.93    3.45 
 -26   0  -2   12.19    4.17 
 -26  26   2    9.93    4.98 
 -26  26   2    9.77    3.94 
 -26   3  -2   21.43    4.45 
  23 -26  -2   11.17    3.53 
 -23  26   2   14.14    4.60 
 -23  26   2   23.80    4.43 
  20 -26  -2    5.38    2.83 
 -26   6  -2   10.81    4.44 
 -26   6  -2    3.07    3.71 
 -20  26   2    9.92    4.20 
 -20  26   2   12.77    3.77 
  26  -6   2   11.40    3.05 
   9  17  -2    1.85    3.68 
 -26   9  -2   -7.09    3.79 
 -26   9  -2    5.54    4.23 
 -17  26   2    5.52    3.91 
 -17  26   2    0.33    3.12 
 -17  26   2    0.51    2.91 
  26  -9   2   -1.63    2.70 
  -9 -17   2    1.20    5.54 
  12  14  -2    2.65    4.23 
 -26  12  -2    1.81    4.03 
 -26  12  -2   -1.17    4.30 
  26 -12   2    2.12    3.28 
  26 -12   2   -4.43    4.57 
 -14  26   2    0.43    3.05 
 -14  26   2   -4.24    4.32 
 -12 -14   2    3.82    5.55 
 -26  15  -2   10.27    4.42 
  15  11  -2   10.52    4.55 
 -26  15  -2   10.04    4.58 
  26 -15   2    0.75    4.53 
 -15 -11   2    4.76    5.40 
 -11  26   2    8.61    3.18 
  26 -15   2   14.97    3.41 
 -26  18  -2    8.36    4.48 
 -26  18  -2   10.86    4.59 
  18   8  -2    4.20    4.22 
  -8  26   2   15.51    3.31 
 -18  -8   2    3.26    6.09 
  26 -18   2   18.58    6.26 
  26 -18   2   12.16    3.35 
 -26  21  -2    3.76    4.64 
 -26  21  -2    4.67    4.18 
 -26  21  -2    3.49    2.76 
  26 -21   2    6.22    3.58 
  -5  26   2    5.60    3.00 
 -26  24  -2   -4.94    4.63 
 -26  24  -2    1.97    3.02 
  -2  26   2    0.51    3.00 
  26 -24   2    3.40    3.54 
 -26  27  -2   -1.12    3.53 
 -26  27  -2    1.25    4.62 
  26 -27   2    1.44    3.36 
   1  26   2    0.10    2.91 
 -27   1   2    6.29    4.57 
 -27  -1  -2   -1.81    3.80 
  28 -27  -2   -1.41    3.41 
 -28  27   2    9.05    4.80 
 -27   2  -2   11.63    4.21 
  25 -27  -2    7.29    3.40 
 -25  27   2    4.12    3.97 
 -25  27   2    4.51    4.33 
 -27   5  -2    7.80    4.55 
  22 -27  -2    4.89    2.86 
 -22  27   2    4.18    3.69 
 -22  27   2    5.94    4.28 
 -27   8  -2    0.10    4.42 
 -27   8  -2    6.75    4.15 
 -19  27   2    6.50    3.43 
 -19  27   2   -2.63    4.27 
  27  -8   2   -1.94    2.97 
 -27  11  -2   -0.50    4.34 
 -27  11  -2   -2.53    4.04 
  27 -11   2    1.47    3.26 
 -16  27   2    0.64    2.77 
 -16  27   2    5.07    4.05 
 -27  14  -2    2.60    4.25 
 -27  14  -2    7.98    4.54 
  14  13  -2   10.87    4.32 
 -14 -13   2    5.93    5.38 
  27 -14   2   -4.41    4.86 
 -13  27   2    1.51    2.70 
 -13  27   2    9.79    4.00 
  27 -14   2    4.61    3.04 
 -27  17  -2   19.25    5.01 
 -27  17  -2   21.78    4.97 
  27 -17   2   27.50    3.97 
 -10  27   2   16.77    3.61 
 -27  20  -2   11.67    4.55 
 -27  20  -2   15.38    4.22 
  27 -20   2    9.32    3.80 
  -7  27   2   13.82    3.36 
 -27  23  -2    1.01    2.93 
 -27  23  -2    5.20    4.92 
  27 -23   2    9.58    3.83 
  -4  27   2    6.24    3.13 
 -27  26  -2   -5.11    4.63 
 -27  26  -2    3.43    3.13 
  -1  27   2    3.00    2.97 
  27 -26   2   -2.46    3.32 
  27 -28  -2    3.63    3.33 
 -28   1  -2   -1.96    4.11 
 -27  28   2   -3.12    3.52 
 -27  28   2   -9.80    4.54 
 -28   4  -2    4.36    4.06 
  24 -28  -2   -4.77    2.86 
 -24  28   2    1.96    3.62 
 -24  28   2    5.80    4.80 
 -28   7  -2   -3.70    3.98 
 -28   7  -2    0.90    3.85 
 -21  28   2    1.82    3.65 
 -21  28   2   -7.54    3.89 
 -28  10  -2   -2.39    3.96 
 -28  10  -2   -7.41    4.37 
  28 -10   2    1.05    3.12 
 -18  28   2    0.16    4.00 
 -18  28   2    2.80    3.23 
 -28  13  -2    0.51    4.13 
 -28  13  -2   -0.62    4.15 
 -15  28   2   -2.99    2.90 
 -15  28   2    1.70    4.02 
  28 -13   2   -1.33    3.12 
 -28  16  -2   -6.38    4.42 
 -28  16  -2   -4.70    4.22 
  28 -16   2    3.22    3.44 
 -12  28   2   -0.63    2.97 
 -28  19  -2    0.82    4.60 
 -28  19  -2    5.79    4.44 
  28 -19   2    0.04    3.14 
  -9  28   2    7.01    2.98 
 -28  22  -2   -0.76    3.11 
 -28  22  -2   -3.54    4.25 
 -28  22  -2    1.06    4.53 
  -6  28   2    5.97    3.10 
  28 -22   2   -1.03    3.18 
 -28  25  -2   -1.37    2.87 
 -28  25  -2    0.88    4.93 
  -3  28   2   -1.27    2.80 
  28 -25   2   -0.54    3.58 
  26 -29  -2    1.75    2.96 
 -29   3  -2    0.11    4.36 
 -26  29   2    5.21    4.73 
 -26  29   2   -2.37    3.56 
 -29   6  -2   -1.95    4.07 
 -23  29   2    6.28    3.52 
 -23  29   2    7.93    4.82 
 -29   9  -2    2.98    4.18 
 -29   9  -2    1.03    4.22 
 -20  29   2    0.91    3.34 
 -20  29   2    1.72    4.53 
  29  -9   2   10.51    3.32 
 -29  12  -2   -7.46    4.07 
 -29  12  -2    1.78    4.10 
 -17  29   2    3.08    3.23 
  29 -12   2   -1.62    2.96 
 -17  29   2   -2.66    3.98 
 -29  15  -2    5.82    4.84 
 -29  15  -2   -0.48    4.27 
  29 -15   2    0.24    3.32 
 -14  29   2   -1.17    3.05 
 -29  18  -2   10.16    4.65 
 -29  18  -2   10.02    4.71 
  29 -18   2    9.23    3.42 
 -11  29   2    5.69    3.16 
 -29  21  -2    7.93    4.12 
 -29  21  -2   -2.58    4.79 
  29 -21   2    3.18    3.64 
  -8  29   2    2.66    2.90 
 -29  24  -2    1.97    3.25 
 -29  24  -2    8.83    4.75 
  -5  29   2   -3.14    2.91 
  29 -24   2   -4.04    3.10 
 -30   8  -2    3.50    4.75 
 -22  30   2    3.90    4.47 
 -22  30   2    1.69    3.35 
 -30  11  -2    7.58    4.25 
 -30  11  -2    2.53    4.29 
 -19  30   2    0.33    3.27 
  30 -11   2    2.18    3.27 
 -19  30   2    3.60    4.44 
 -30  14  -2    8.11    4.47 
 -30  14  -2   10.33    5.08 
  30 -14   2    2.26    3.47 
 -16  30   2    1.72    3.09 
 -30  17  -2    7.85    4.93 
 -30  17  -2    7.67    4.60 
  30 -17   2   21.27    4.04 
 -13  30   2   15.98    3.34 
 -30  20  -2   19.05    5.13 
 -30  20  -2   20.38    5.12 
  30 -20   2   24.03    4.11 
 -10  30   2   18.39    3.68 
 -30  23  -2    5.35    4.38 
 -30  23  -2   11.96    5.04 
  30 -23   2   10.14    3.83 
  -7  30   2   16.87    3.41 
 -31  10  -2    5.78    4.79 
  31 -10   2   -2.59    3.06 
 -21  31   2   -1.38    4.06 
 -21  31   2   -2.43    3.25 
 -31  13  -2   -6.48    4.22 
 -31  13  -2   -2.13    4.23 
 -18  31   2   -0.40    3.96 
 -18  31   2    2.38    3.11 
  31 -13   2    2.42    3.35 
 -31  16  -2    7.12    4.39 
 -31  16  -2   -0.47    4.27 
  31 -16   2    3.07    3.51 
 -15  31   2    2.84    3.07 
 -31  19  -2    0.71    4.67 
 -31  19  -2    3.20    4.52 
 -12  31   2    7.03    3.13 
  31 -19   2   13.35    3.74 
 -31  22  -2   -3.11    4.83 
 -31  22  -2    7.18    4.48 
  31 -22   2   11.99    3.80 
  -9  31   2    6.38    3.12 
 -32  15  -2    1.40    4.74 
 -32  15  -2   12.53    4.37 
  32 -15   2   -1.27    3.37 
 -17  32   2    0.76    3.09 
 -32  18  -2    0.04    4.21 
 -32  18  -2   -1.75    4.78 
  32 -18   2   -2.30    3.04 
 -14  32   2    4.25    3.01 
   0   0  -3   22.96    4.98 
   0   0   3   25.78    5.22 
   2  -1  -3    6.92    3.87 
  -1  -1  -3    8.11    4.31 
  -1   2  -3    6.34    4.20 
  -1   2  -3    6.80    3.82 
   1   1   3   10.50    3.11 
   1  -2   3    7.93    4.32 
  -2   1   3    3.10    4.57 
   1  -2   3    5.60    3.22 
   1   1   3   12.43    4.57 
  -2   1  -3    4.98    3.93 
   1  -2  -3   11.02    4.01 
   1   1  -3    5.50    4.03 
   1   1  -3   11.27    3.82 
  -2   1  -3   -1.66    3.97 
   2  -1   3    9.39    3.00 
  -1   2   3    4.19    4.45 
   2  -1   3    9.53    4.18 
  -1  -1   3   10.15    4.33 
  -2   4  -3   80.14    8.16 
  -2  -2  -3   79.35    8.43 
   4  -2  -3   68.15    8.12 
  -2   4  -3   69.33    7.99 
   2   2   3   66.48    8.26 
   2   2   3   80.88    7.43 
  -4   2   3   79.07    8.42 
   2  -4   3   76.10    7.43 
   2  -4   3   74.97    7.90 
   3  -3  -3  105.69   10.12 
   0   3  -3   87.69    9.79 
  -3   0  -3  107.01   10.11 
   0   3  -3  105.68    9.62 
   0  -3   3  103.12    9.25 
  -3   3   3  104.62   10.10 
   0  -3   3   93.38    9.80 
   3   0   3   84.26    9.81 
   3   0   3  106.59    9.45 
   0  -3  -3   40.53    6.13 
   3   0  -3   49.25    6.13 
  -3   3  -3   56.22    6.40 
  -3   3  -3   57.99    6.62 
   3   0  -3   52.80    6.32 
   3  -3   3   51.45    5.38 
   0   3   3   35.08    4.74 
  -3   0   3   45.02    6.50 
   0   3   3   55.56    6.73 
   3  -3   3   58.34    6.33 
  -3  -3  -3   67.16    7.54 
   6  -3  -3   61.43    7.34 
  -3   6  -3   58.96    6.94 
  -3   6  -3   56.84    7.06 
   3  -6   3   55.63    6.20 
   3   3   3   65.50    7.47 
   3  -6   3   63.38    7.04 
   3   3   3   68.16    6.41 
  -6   3   3   58.44    7.30 
  -6   3   3   53.81    5.88 
  -1   5  -3    5.21    3.72 
   5  -4  -3    8.68    4.36 
  -1   5  -3    7.76    3.95 
  -4  -1  -3   -1.24    3.61 
   4   1   3    1.75    3.21 
  -5   4   3    6.27    2.17 
  -5   4   3    4.80    4.61 
   4   1   3    2.26    4.08 
   1  -5   3    5.76    2.84 
   1  -5   3    2.49    3.72 
  -4   2  -3   82.48    8.09 
   2  -4  -3   62.63    8.04 
  -4   2  -3   61.17    7.98 
   2   2  -3   83.03    7.84 
   2   2  -3   67.08    7.87 
  -2   4   3   76.58    8.42 
   4  -2   3   71.04    7.61 
  -2  -2   3   81.85    8.19 
   4  -2   3   79.54    7.96 
   5  -1  -3   -3.34    3.44 
   5  -1  -3   -3.04    3.56 
  -4   5  -3    2.62    4.21 
  -4   5  -3   -2.68    3.75 
  -1  -4  -3   -1.00    3.53 
   4  -5   3    3.17    3.84 
   4  -5   3   -6.03    3.03 
  -5   1   3   -0.54    3.98 
   1   4   3   -0.23    4.16 
  -4   8  -3    3.21    3.26 
   8  -4  -3    5.26    3.40 
  -4  -4  -3    2.76    3.97 
   8  -4  -3    4.76    3.97 
  -4   8  -3    7.04    3.88 
   4  -8   3    5.02    2.89 
   4  -8   3    7.02    3.06 
  -8   4   3    8.63    2.53 
  -8   4   3   10.17    4.40 
   4   4   3   10.46    3.35 
   4   4   3    9.38    4.42 
  -2   7  -3   49.01    6.36 
   7  -5  -3   40.93    6.56 
  -5  -2  -3   44.12    6.39 
  -2   7  -3   52.62    6.27 
   2  -7   3   58.03    6.38 
   5   2   3   57.29    6.74 
  -7   5   3   47.88    5.10 
   2  -7   3   51.56    5.58 
  -7   5   3   56.66    6.90 
   5   2   3   49.54    5.79 
  -5   1  -3    2.20    3.59 
   4  -5  -3    2.16    3.76 
   1   4  -3    5.36    3.84 
   1   4  -3    0.99    3.62 
  -4   5   3   12.61    4.79 
  -1  -4   3    4.09    2.81 
  -1  -4   3   -0.19    3.77 
   5  -1   3    1.59    2.87 
  -4   5   3    1.53    2.32 
   5  -1   3    4.77    3.96 
  -5   4  -3   -4.44    3.87 
   4   1  -3   -0.53    3.59 
  -5   4  -3    5.01    3.78 
   1  -5  -3    0.84    3.60 
   4   1  -3    0.71    3.38 
   5  -4   3   -4.29    3.29 
  -1   5   3    5.75    2.41 
  -4  -1   3   -1.63    4.14 
  -1   5   3   -6.81    4.15 
   5  -4   3   -4.26    3.18 
  -5   7  -3   57.55    6.86 
  -5   7  -3   53.60    6.72 
   7  -2  -3   55.22    7.17 
   7  -2  -3   64.77    6.69 
  -2  -5  -3   70.97    7.21 
   5  -7   3   51.79    6.09 
  -7   2   3   59.09    7.17 
  -7   2   3   52.21    5.48 
   5  -7   3   54.59    6.16 
   2   5   3   60.58    6.16 
   2   5   3   60.01    7.16 
  -5  10  -3   63.77    7.09 
  10  -5  -3   60.25    7.41 
  10  -5  -3   52.23    6.23 
  10  -5  -3   61.14    7.00 
  -5  -5  -3   62.58    7.02 
   5 -10   3   54.71    6.12 
 -10   5   3   54.84    7.23 
 -10   5   3   55.07    5.85 
   5   5   3   62.84    6.31 
   5   5   3   60.23    7.42 
   9  -6  -3   31.05    4.89 
  -6  -3  -3   25.71    4.97 
  -3   9  -3   30.26    5.20 
   9  -6  -3   25.59    5.71 
   3  -9   3   34.21    4.61 
   3  -9   3   27.56    4.00 
   6   3   3   31.24    5.68 
  -9   6   3   22.92    3.61 
   6   3   3   36.74    4.52 
  -9   6   3   36.83    5.60 
   0   6  -3   40.56    5.72 
  -6   0  -3   46.86    6.23 
   6  -6  -3   44.49    6.57 
   0   6  -3   47.49    5.91 
   0  -6   3   41.94    5.00 
  -6   6   3   53.72    4.79 
   0  -6   3   46.40    6.25 
   6   0   3   44.01    5.26 
  -6   6   3   38.86    6.55 
   6   0   3   51.32    6.22 
  -6   3  -3   70.59    7.47 
   3   3  -3   65.31    7.22 
  -6   3  -3   66.18    7.28 
   3   3  -3   69.59    7.17 
   3  -6  -3   59.07    7.59 
  -3  -3   3   66.21    7.19 
   6  -3   3   61.50    7.35 
   6  -3   3   56.75    6.44 
  -3   6   3   49.02    5.99 
  -3   6   3   65.63    7.58 
  -6   6  -3    7.89    4.06 
   6   0  -3    6.48    4.04 
   0  -6  -3    5.44    3.68 
   6   0  -3    2.87    3.59 
  -6   6  -3    8.87    4.25 
  -6   0   3    9.22    2.41 
   0   6   3   10.01    4.59 
  -6   0   3    5.14    4.13 
   6  -6   3   13.90    3.85 
   6  -6   3   15.57    3.54 
  -3  -6  -3   13.55    4.15 
   9  -3  -3   13.12    4.37 
   9  -3  -3   20.47    3.80 
  -6   9  -3   17.22    4.34 
   3   6   3   16.01    3.32 
   6  -9   3   14.68    3.24 
  -9   3   3   21.95    2.96 
   3   6   3   12.63    4.83 
  -9   3   3   15.75    4.73 
  -6  -6  -3   -1.15    3.47 
  12  -6  -3    2.02    3.53 
  12  -6  -3   -0.37    3.39 
  -6  12  -3    2.16    3.95 
   6 -12   3    6.04    3.56 
   6   6   3    0.88    4.64 
   6 -12   3    6.13    2.85 
 -12   6   3    0.65    2.80 
 -12   6   3   -1.27    4.17 
   6   6   3    4.29    2.89 
  -7  -4  -3   15.78    4.35 
  11  -7  -3   15.02    4.19 
  -4  11  -3   12.78    4.47 
  11  -7  -3   15.34    4.07 
   7   4   3   15.19    4.79 
 -11   7   3   20.42    3.11 
 -11   7   3   17.94    4.68 
   4 -11   3   16.26    3.32 
   7   4   3   22.52    3.85 
   8  -7  -3    0.12    3.74 
  -1   8  -3    1.22    3.06 
  -7  -1  -3    4.98    3.91 
  -1   8  -3   -3.70    3.61 
  -8   7   3    1.84    2.38 
   1  -8   3    0.00    2.71 
   7   1   3    7.27    2.72 
   7   1   3    3.66    3.30 
  -8   7   3   -4.26    4.21 
   1  -8   3   -0.05    3.21 
   7   1   3   -0.10    4.06 
   5  -7  -3   57.39    6.80 
  -7   2  -3   46.89    6.33 
   2   5  -3   48.81    6.15 
  -7   2  -3   45.09    6.41 
   2   5  -3   43.07    6.05 
   7  -2   3   52.91    5.75 
  -5   7   3   54.06    6.97 
   7  -2   3   53.38    6.42 
  -5   7   3   50.25    5.09 
  -2  -5   3   60.02    6.77 
  -2  -5   3   49.61    5.39 
   5   2  -3   56.69    6.81 
   2  -7  -3   56.48    6.95 
  -7   5  -3   59.10    6.88 
   5   2  -3   59.87    6.48 
  -2   7   3   48.38    5.64 
  -5  -2   3   60.66    7.05 
   7  -5   3   55.01    6.06 
   7  -5   3   57.94    6.77 
  -2   7   3   58.86    7.30 
   8  -1  -3    1.79    3.61 
   8  -1  -3   -3.81    3.24 
  -1  -7  -3    5.35    3.97 
  -7   8  -3    4.18    3.90 
   7  -8   3    8.72    3.29 
  -8   1   3    2.97    2.19 
   1   7   3    4.62    4.35 
   7  -8   3   -1.83    3.05 
  -8   1   3    7.39    4.45 
  11  -4  -3   10.08    4.21 
  -4  -7  -3   13.56    3.85 
  11  -4  -3   10.84    3.52 
  -7  11  -3    7.40    4.05 
  11  -4  -3   10.77    3.73 
   4   7   3    7.75    4.67 
   7 -11   3    9.73    3.19 
   7 -11   3   12.68    4.23 
 -11   4   3   16.03    4.64 
   4   7   3    8.92    3.17 
 -11   4   3    7.88    2.66 
  14  -7  -3   15.24    4.19 
  -7  14  -3   15.08    2.66 
  14  -7  -3   13.51    4.15 
  -7  -7  -3    8.55    3.60 
  -7  14  -3   10.74    4.78 
  14  -7  -3    9.14    2.44 
 -14   7   3    8.24    4.39 
   7   7   3   14.15    3.34 
 -14   7   3   13.01    4.69 
   7   7   3   10.46    4.73 
 -14   7   3    7.74    2.96 
   7 -14   3   10.55    3.64 
 -14   7   3   15.36    2.98 
   7   7   3    8.67    3.21 
  13  -8  -3    6.91    3.97 
  -5  13  -3   15.22    4.87 
  -8  -5  -3   14.57    4.17 
  13  -8  -3   13.74    2.81 
  13  -8  -3   15.99    4.16 
 -13   8   3    6.76    4.23 
   8   5   3   12.65    4.84 
   8   5   3   19.51    3.60 
   5 -13   3   13.04    3.85 
   8   5   3   13.17    3.62 
 -13   8   3   12.41    2.88 
 -13   8   3   11.92    4.47 
 -13   8   3   11.52    3.10 
  10  -8  -3   35.91    6.38 
  -2  10  -3   57.74    6.27 
  10  -8  -3   46.22    5.74 
  -8  -2  -3   53.08    6.20 
   8   2   3   43.09    5.20 
   8   2   3   49.76    6.39 
 -10   8   3   36.13    4.57 
   2 -10   3   40.66    5.51 
   8   2   3   40.81    5.38 
 -10   8   3   44.38    6.27 
   1   7  -3    7.88    4.30 
  -8   1  -3   -0.01    3.44 
   1   7  -3    4.76    2.98 
   7  -8  -3    2.08    3.95 
   8  -1   3    1.61    2.43 
   8  -1   3    2.25    2.53 
  -7   8   3    1.37    4.30 
   8  -1   3   -2.85    3.79 
  -1  -7   3    0.52    2.36 
   8  -1   3   -0.77    3.17 
  -7   8   3   -3.13    2.37 
  -1  -7   3    2.79    3.88 
  -8   4  -3    5.67    4.08 
   4   4  -3   10.95    3.54 
   4   4  -3   13.75    3.73 
   4  -8  -3    8.04    3.97 
  -4  -4   3    5.50    4.23 
  -4   8   3    5.40    4.46 
   8  -4   3    8.61    3.51 
   8  -4   3    3.35    3.81 
   8  -4   3    3.84    3.35 
  -4   8   3    8.40    2.58 
   1  -8  -3   -0.58    3.82 
  -8   7  -3    2.59    3.94 
   7   1  -3    3.57    3.69 
   7   1  -3    2.69    3.49 
  -7  -1   3   10.06    4.45 
   8  -7   3   11.20    3.85 
   8  -7   3    1.30    3.22 
  -7  -1   3    1.12    2.11 
   8  -7   3    2.14    3.30 
  -1   8   3    0.49    4.27 
  -8  10  -3   20.35    4.59 
  10  -2  -3   15.81    4.87 
  -2  -8  -3   21.88    4.64 
   8 -10   3   18.20    3.70 
   2   8   3   18.22    3.64 
   2   8   3   26.02    5.42 
   8 -10   3   21.67    4.27 
 -10   2   3   15.68    3.00 
 -10   2   3   19.35    5.03 
  13  -5  -3    7.10    3.44 
  -5  -8  -3    6.55    3.32 
  -8  13  -3    4.51    4.15 
  13  -5  -3   14.28    4.30 
  -8  13  -3   12.06    2.67 
 -13   5   3    4.97    2.80 
 -13   5   3   12.00    4.40 
   8 -13   3   12.29    3.65 
   5   8   3    8.70    5.02 
 -13   5   3    8.11    4.79 
   8 -13   3   10.70    3.28 
   5   8   3   12.44    3.12 
  16  -8  -3   15.20    4.43 
  -8  16  -3   16.78    4.85 
  16  -8  -3   14.18    4.40 
  16  -8  -3   15.97    2.77 
  -8  16  -3   11.58    2.79 
   8 -16   3   21.21    4.15 
 -16   8   3   10.39    4.51 
 -16   8   3   15.05    4.96 
   8   8   3    8.86    3.70 
 -16   8   3   19.96    3.35 
   8   8   3   15.30    4.93 
   8   8   3   17.34    3.34 
  -6  15  -3    1.02    2.14 
  -6  15  -3    5.54    4.35 
  15  -9  -3    3.83    2.56 
  15  -9  -3    1.21    3.58 
  15  -9  -3    7.72    4.44 
 -15   9   3    2.01    2.68 
 -15   9   3    8.23    4.19 
   9   6   3    3.70    4.38 
   9   6   3    2.01    3.14 
   9   6   3    5.33    2.91 
 -15   9   3    4.13    4.18 
 -15   9   3    0.96    2.90 
   6 -15   3    3.84    3.64 
  12  -9  -3    4.82    3.81 
  -3  12  -3    6.53    4.24 
  12  -9  -3    8.90    3.93 
  12  -9  -3    4.76    2.30 
   9   3   3   12.04    4.53 
 -12   9   3   13.04    4.84 
 -12   9   3    7.06    2.96 
   9   3   3    9.18    2.94 
 -12   9   3    7.25    3.02 
   9   3   3    9.97    2.99 
   9  -9  -3   35.16    5.93 
   0   9  -3   41.15    5.70 
   9  -9  -3   39.77    5.52 
   9   0   3   41.16    4.98 
  -9   9   3   37.91    6.06 
  -9   9   3   35.03    4.30 
   9   0   3   38.86    4.79 
   9   0   3   42.30    5.92 
   9   0   3   43.28    4.82 
   0  -9   3   43.27    5.38 
   3   6  -3   30.54    4.45 
   6  -9  -3   30.45    5.53 
   3   6  -3   31.47    5.23 
  -9   3  -3   26.33    5.09 
  -3  -6   3   28.36    3.63 
   9  -3   3   30.21    4.52 
   9  -3   3   31.06    5.04 
  -6   9   3   26.11    5.38 
   9  -3   3   27.48    3.65 
   9  -3   3   29.06    4.42 
  -6   9   3   27.99    3.55 
  -3  -6   3   32.02    5.27 
   3  -9  -3   14.53    4.39 
  -9   6  -3   24.31    4.65 
   6   3  -3   13.84    3.96 
   6   3  -3   11.33    4.10 
   9  -6   3   25.50    4.20 
  -3   9   3   22.00    4.90 
   9  -6   3   21.22    3.73 
  -3   9   3   18.02    3.05 
  -6  -3   3   18.96    2.89 
   9  -6   3   18.63    3.79 
   9   0  -3    5.09    3.84 
   0  -9  -3   -0.59    3.62 
  -9   9  -3   -5.29    3.63 
   9   0  -3    1.95    2.82 
   9  -9   3   -0.09    2.83 
   0   9   3    0.90    4.12 
   9  -9   3   -2.26    3.09 
  12  -3  -3    2.46    3.31 
  12  -3  -3   -0.40    3.60 
  -9  12  -3   -3.74    2.29 
  -3  -9  -3   -4.32    3.39 
  -9  12  -3   -4.22    3.86 
   9 -12   3    1.59    3.00 
   3   9   3    3.83    4.37 
   3   9   3    0.04    2.50 
 -12   3   3    6.01    4.64 
 -12   3   3    4.78    4.67 
   3   9   3    4.55    2.79 
   9 -12   3    4.21    3.43 
  15  -6  -3   -2.88    3.91 
  -9  15  -3   -1.00    4.34 
  -9  15  -3   -0.46    2.35 
  15  -6  -3   -0.20    2.08 
  15  -6  -3    5.63    3.86 
   6   9   3    2.88    4.59 
 -15   6   3    2.77    4.33 
 -15   6   3   -2.83    4.78 
   9 -15   3    0.58    3.71 
 -15   6   3    3.44    2.89 
   6   9   3    3.92    2.80 
  18  -9  -3   14.80    3.00 
  18  -9  -3    9.98    4.04 
  18  -9  -3   20.62    4.94 
  -9  18  -3   13.47    4.86 
  -9  18  -3   11.94    2.82 
 -18   9   3   10.41    5.45 
 -18   9   3    5.73    3.32 
   9 -18   3   10.94    4.23 
   9   9   3   10.12    5.16 
 -18   9   3   16.67    4.61 
  17 -10  -3   45.97    6.66 
  -7  17  -3   60.47    7.18 
  -7  17  -3   48.02    5.04 
  17 -10  -3   58.01    5.29 
  17 -10  -3   42.60    6.55 
  10   7   3   58.80    7.39 
 -17  10   3   35.09    6.91 
 -17  10   3   42.04    6.48 
 -17  10   3   49.84    5.44 
 -17  10   3   49.78    5.25 
   7 -17   3   47.64    6.29 
  14 -10  -3    4.93    4.08 
  -4  14  -3   11.44    4.53 
  14 -10  -3    6.19    2.57 
  14 -10  -3    4.46    3.93 
  -4  14  -3    5.01    2.16 
 -14  10   3    5.04    3.02 
  10   4   3    5.18    4.48 
 -14  10   3    5.67    4.18 
   4 -14   3    8.93    3.53 
 -14  10   3    9.63    4.19 
  10   4   3    5.81    3.04 
 -14  10   3    6.69    3.03 
  10   4   3   13.02    3.51 
  -1  11  -3    1.10    4.06 
  11 -10  -3    0.68    3.85 
  11 -10  -3    0.18    2.07 
  11 -10  -3    3.42    3.78 
 -11  10   3    2.23    4.29 
  10   1   3    4.43    2.88 
   1 -11   3   -6.86    2.48 
  10   1   3   -5.86    3.86 
 -11  10   3    4.31    2.67 
 -11  10   3    0.47    2.68 
  10   1   3   -0.81    2.67 
   2   8  -3   47.90    6.36 
 -10   2  -3   42.50    6.03 
   8 -10  -3   50.36    6.76 
   8 -10  -3   44.68    5.71 
  10  -2   3   48.82    5.57 
  10  -2   3   49.85    6.25 
  -2  -8   3   47.68    6.63 
  -8  10   3   45.26    6.83 
  10  -2   3   42.74    5.40 
  10  -2   3   44.30    5.15 
  -8  10   3   48.77    4.85 
   5   5  -3   57.25    6.44 
 -10   5  -3   56.50    7.12 
   5 -10  -3   66.02    7.45 
   5   5  -3   61.96    6.89 
  10  -5   3   59.67    6.91 
  -5  10   3   61.12    7.71 
  10  -5   3   56.00    6.35 
  10  -5   3   59.37    6.72 
  -5  10   3   54.89    5.88 
   2 -10  -3   24.77    4.55 
 -10   8  -3   17.10    4.31 
   8   2  -3   18.21    3.52 
   8   2  -3   11.37    4.11 
  -8  -2   3   18.80    2.84 
  10  -8   3   18.75    3.64 
  -2  10   3   22.46    5.08 
  10  -8   3   21.98    4.12 
 -10  11  -3    8.56    2.52 
  11  -1  -3    2.21    3.52 
 -10  11  -3    8.25    4.63 
  -1 -10  -3    8.68    3.79 
  11  -1  -3    3.33    3.24 
   1  10   3    7.02    3.04 
   1  10   3    8.31    2.63 
   1  10   3    3.09    4.94 
  10 -11   3    5.54    3.73 
  10 -11   3    5.09    3.30 
  14  -4  -3   10.74    2.53 
  14  -4  -3   10.70    3.95 
 -10  14  -3   11.16    2.76 
 -10  14  -3   13.37    5.02 
  14  -4  -3    9.80    3.65 
   4  10   3   11.93    4.87 
   4  10   3   15.95    3.22 
 -14   4   3   13.29    5.38 
  10 -14   3    8.23    3.23 
 -14   4   3   16.49    5.05 
 -14   4   3    7.57    2.84 
   4  10   3    8.89    2.83 
  10 -14   3    9.62    3.76 
 -10  17  -3   48.76    7.00 
  17  -7  -3   45.30    6.56 
 -10  17  -3   49.01    5.13 
  17  -7  -3   52.62    5.29 
  17  -7  -3   55.54    7.04 
  10 -17   3   61.52    6.78 
   7  10   3   60.83    7.99 
 -17   7   3   38.77    7.06 
 -17   7   3   36.45    7.19 
 -17   7   3   51.49    5.46 
  20 -10  -3   13.29    4.54 
 -10  20  -3   19.36    3.26 
  20 -10  -3   25.41    3.50 
 -10  20  -3   11.22    4.84 
  20 -10  -3   14.60    4.64 
  10  10   3   14.02    5.28 
 -20  10   3   16.11    5.98 
 -20  10   3   17.01    3.77 
 -20  10   3   21.34    5.03 
  10 -20   3   19.97    4.77 
  19 -11  -3    2.20    3.96 
  19 -11  -3    6.94    2.62 
  19 -11  -3   -1.10    4.30 
  -8  19  -3    3.93    2.18 
  -8  19  -3    1.60    4.39 
 -19  11   3    9.77    3.03 
 -19  11   3    5.82    4.74 
   8 -19   3    6.97    3.92 
 -19  11   3    0.17    4.34 
 -19  11   3    8.31    3.42 
  11   8   3    7.49    4.77 
  16 -11  -3    3.61    4.08 
  -5  16  -3    2.99    2.09 
  -5  16  -3   16.34    4.58 
  16 -11  -3   10.44    2.57 
  16 -11  -3   12.07    4.17 
 -16  11   3    6.46    2.99 
 -16  11   3    9.68    2.88 
  11   5   3    8.28    3.03 
   5 -16   3    6.85    3.61 
  11   5   3    8.45    5.03 
 -16  11   3    0.83    4.40 
 -16  11   3    6.64    4.46 
  11   5   3   10.24    3.56 
  13 -11  -3    4.38    2.23 
  13 -11  -3    5.99    3.65 
  13 -11  -3   -2.37    3.64 
  -2  13  -3    4.84    4.19 
 -13  11   3    2.37    4.28 
 -13  11   3    5.28    4.22 
 -13  11   3    2.76    2.59 
  11   2   3    0.95    3.12 
 -13  11   3    6.64    2.75 
 -13  11   3    2.45    2.69 
  11   2   3    9.11    4.98 
  11   2   3    4.53    3.12 
  10 -11  -3   -0.33    3.15 
   1  10  -3    0.96    4.13 
  10 -11  -3    3.06    2.09 
  11  -1   3    5.58    2.94 
 -10  11   3   -2.09    3.93 
 -10  11   3   -0.60    2.45 
  11  -1   3    4.84    4.04 
 -10  11   3   -1.66    2.82 
  11  -1   3    0.50    2.92 
  11  -1   3    0.51    2.82 
   4   7  -3   21.30    4.15 
 -11   4  -3   13.95    4.63 
   7 -11  -3   18.17    4.75 
  11  -4   3   16.43    3.57 
  11  -4   3   15.07    3.58 
  -7  11   3   17.16    3.24 
  11  -4   3   14.51    4.02 
  -7  11   3   16.48    4.70 
   4 -11  -3    7.08    4.31 
 -11   7  -3    1.80    3.91 
   7   4  -3    9.78    3.44 
  -7  -4   3   12.00    2.43 
  -4  11   3    5.79    2.58 
  11  -7   3   11.79    3.61 
  -4  11   3   14.06    5.10 
  11  -7   3   12.19    3.79 
  10   1  -3   10.88    3.93 
 -11  10  -3    8.48    2.54 
 -11  10  -3    7.76    4.00 
   1 -11  -3    9.07    3.84 
  11 -10   3    1.88    3.33 
  -1  11   3    9.62    5.15 
  11 -10   3    3.13    3.26 
 -11  13  -3    1.62    3.39 
 -11  13  -3    7.19    3.76 
 -11  13  -3    3.63    2.52 
  13  -2  -3    6.87    3.90 
 -13   2   3    7.98    4.91 
  11 -13   3    5.75    3.60 
  11 -13   3    8.31    2.18 
   2  11   3    7.44    4.53 
   2  11   3    5.14    2.91 
   2  11   3    6.97    2.29 
  11 -13   3   -0.59    3.16 
 -13   2   3    4.55    3.09 
  16  -5  -3   23.32    3.07 
  16  -5  -3   22.00    4.73 
  16  -5  -3   23.72    4.95 
 -11  16  -3   17.70    3.64 
 -11  16  -3   17.85    4.86 
 -11  16  -3   18.97    3.10 
   5  11   3   19.45    5.20 
 -16   5   3   18.45    5.37 
  11 -16   3   17.47    4.37 
 -16   5   3   19.26    3.62 
   5  11   3   20.23    3.25 
 -16   5   3   14.88    5.89 
  19  -8  -3   12.95    2.70 
 -11  19  -3   11.56    4.63 
 -11  19  -3   19.95    2.85 
  19  -8  -3   16.64    4.88 
  19  -8  -3   11.20    4.72 
  11 -19   3   15.21    4.48 
 -19   8   3    8.78    5.14 
   8  11   3    9.60    4.76 
 -19   8   3    8.07    4.45 
 -19   8   3   14.83    3.67 
  22 -11  -3    1.04    4.35 
  22 -11  -3    5.19    2.60 
 -11  22  -3   11.03    4.88 
 -11  22  -3    8.92    2.68 
  22 -11  -3    4.71    4.69 
 -22  11   3    3.57    3.43 
 -22  11   3   -0.81    4.98 
  11  11   3    4.39    4.60 
  11 -22   3    6.69    4.12 
  -9  21  -3    3.33    4.42 
  21 -12  -3    4.14    4.13 
  21 -12  -3   -0.72    2.88 
  21 -12  -3   -6.73    4.21 
  -9  21  -3    7.97    2.75 
 -21  12   3    1.06    5.39 
  12   9   3    2.31    4.63 
 -21  12   3   -2.09    2.87 
   9 -21   3    6.37    4.07 
 -21  12   3    3.52    3.23 
  18 -12  -3   12.88    4.68 
  18 -12  -3   16.96    4.85 
  -6  18  -3   29.58    5.60 
  18 -12  -3   24.74    3.69 
  -6  18  -3   25.49    3.22 
 -18  12   3   29.31    3.75 
 -18  12   3   21.55    5.20 
   6 -18   3   31.42    4.96 
 -18  12   3   27.13    4.11 
 -18  12   3   12.43    4.83 
  12   6   3   29.93    5.85 
  -3  15  -3    3.32    4.33 
  15 -12  -3   12.89    4.63 
  -3  15  -3   -0.06    1.81 
  15 -12  -3    7.12    4.35 
  15 -12  -3    6.75    2.32 
 -15  12   3   -3.73    3.75 
 -15  12   3    0.24    4.35 
   3 -15   3    0.76    3.49 
  12   3   3   -0.04    2.77 
  12   3   3    3.36    4.32 
  12   3   3    0.14    2.70 
 -15  12   3   -1.11    2.68 
 -15  12   3    5.89    2.66 
 -15  12   3   -1.30    3.18 
   0  12  -3    6.76    4.31 
  12 -12  -3    2.61    3.88 
  12 -12  -3    4.72    2.49 
  12 -12  -3    4.51    3.63 
   0 -12   3   -8.05    3.16 
  12   0   3   10.11    4.30 
 -12  12   3    5.08    2.62 
 -12  12   3    4.07    4.12 
  12   0   3    7.56    2.90 
 -12  12   3    7.78    2.75 
  12   0   3    5.20    2.89 
 -12  12   3   13.57    3.02 
 -12   3  -3    9.28    3.90 
   3   9  -3    8.77    4.04 
   9 -12  -3    4.23    3.41 
   9 -12  -3    8.08    2.20 
  -9  12   3    6.46    2.64 
  12  -3   3    7.57    4.23 
  -9  12   3    7.53    3.25 
  12  -3   3    6.78    3.40 
  -9  12   3    9.68    4.39 
  12  -3   3    6.78    3.32 
   6   6  -3    0.98    3.38 
 -12   6  -3   -1.31    3.64 
  -6  12   3    1.88    4.02 
  12  -6   3   -1.13    3.39 
  12  -6   3    0.08    3.27 
  -6  12   3    1.09    2.50 
  -6  12   3    6.06    3.02 
  12  -6   3   -0.52    3.44 
 -12   9  -3    1.19    2.22 
 -12   9  -3   -1.26    3.50 
   3 -12  -3    1.19    3.77 
  -3  12   3   -0.04    4.22 
  -3  12   3    0.37    2.56 
  12  -9   3   -1.23    1.96 
  12  -9   3    6.19    3.35 
  12  -9   3    4.88    3.45 
  -3  12   3    0.93    2.66 
 -12  12  -3    8.81    2.61 
 -12  12  -3    3.45    4.33 
   0 -12  -3    8.99    3.74 
 -12  12  -3    4.02    2.92 
  12   0  -3    5.68    3.60 
 -12   0   3    9.73    4.51 
   0  12   3    7.46    4.38 
  12 -12   3    4.81    3.35 
  12 -12   3    8.76    2.25 
  12 -12   3    3.32    3.58 
   0  12   3    5.30    2.54 
  15  -3  -3   12.63    4.32 
  15  -3  -3    7.22    2.19 
 -12  15  -3    8.09    2.61 
 -12  15  -3    5.92    3.30 
 -12  15  -3    1.68    4.22 
   3  12   3    5.90    3.09 
  12 -15   3   -0.28    3.98 
  12 -15   3    5.12    2.23 
 -15   3   3    1.96    3.01 
   3  12   3    7.95    4.44 
  12 -15   3    1.60    3.20 
 -15   3   3    2.10    4.78 
   3  12   3    4.89    2.65 
  18  -6  -3    8.84    2.64 
 -12  18  -3   13.41    4.74 
 -12  18  -3    9.46    2.80 
  18  -6  -3   12.82    4.70 
  18  -6  -3   18.23    4.37 
 -12  18  -3   15.61    3.72 
 -18   6   3   10.87    5.06 
   6  12   3   17.06    5.09 
 -18   6   3    1.21    5.62 
 -18   6   3   12.44    3.48 
  12 -18   3   14.48    4.03 
  21  -9  -3    3.21    2.67 
  21  -9  -3   -2.35    3.88 
  21  -9  -3    2.02    3.91 
 -12  21  -3    4.32    4.60 
 -12  21  -3   -5.79    2.30 
 -21   9   3   -4.31    4.76 
  12 -21   3   -0.09    3.86 
 -21   9   3    2.44    4.67 
   9  12   3    5.61    4.62 
 -21   9   3   -3.58    3.38 
  24 -12  -3    5.40    4.45 
 -12  24  -3    1.54    5.26 
  24 -12  -3   -2.73    2.79 
 -12  24  -3    3.45    3.00 
  24 -12  -3    4.06    4.49 
 -24  12   3    7.45    6.15 
  12  12   3    2.12    4.46 
 -24  12   3    1.59    3.66 
  23 -13  -3    8.57    3.20 
  23 -13  -3   -2.30    4.44 
 -10  23  -3    3.31    2.73 
 -10  23  -3    7.97    5.13 
  23 -13  -3    9.51    4.64 
  13  10   3    3.59    4.42 
 -23  13   3    8.59    4.06 
 -23  13   3    0.02    5.48 
 -23  13   3    6.16    3.30 
  -7  20  -3   12.02    2.84 
  -7  20  -3   12.39    4.95 
  20 -13  -3   17.84    3.44 
  20 -13  -3    7.95    5.00 
  20 -13  -3   15.63    5.10 
   7 -20   3   12.50    4.18 
 -20  13   3   12.13    3.77 
 -20  13   3   17.63    3.25 
 -20  13   3   10.05    3.74 
  13   7   3   16.98    5.20 
 -20  13   3    6.98    4.69 
  17 -13  -3   42.57    6.19 
  17 -13  -3   35.40    4.37 
  -4  17  -3   38.84    6.23 
  17 -13  -3   27.84    6.00 
  -4  17  -3   38.54    4.05 
   4 -17   3   39.15    5.49 
 -17  13   3   45.52    5.12 
  13   4   3   35.83    6.38 
 -17  13   3   31.05    5.98 
  13   4   3   41.08    5.02 
 -17  13   3   39.26    4.51 
 -17  13   3   49.63    4.85 
 -17  13   3   27.24    6.03 
  14 -13  -3   -1.24    3.64 
  14 -13  -3    3.98    4.25 
  -1  14  -3    5.07    4.18 
  14 -13  -3    4.31    2.28 
 -14  13   3   -2.22    3.67 
  13   1   3   -0.27    4.07 
  13   1   3    0.61    1.82 
  13   1   3   -2.07    2.77 
 -14  13   3    4.45    4.48 
 -14  13   3   -3.00    2.54 
 -14  13   3    0.33    3.08 
 -14  13   3    3.98    3.02 
  13   1   3   -2.83    2.49 
 -14  13   3    0.37    2.19 
   2  11  -3    8.74    4.12 
  11 -13  -3    3.76    3.78 
  11 -13  -3    1.90    2.41 
 -13   2  -3    0.17    3.92 
  13  -2   3    4.82    3.26 
  13  -2   3    3.10    3.91 
  13  -2   3    2.71    2.26 
  13  -2   3    4.09    2.65 
  13  -2   3    4.42    3.17 
 -11  13   3    7.05    2.63 
 -11  13   3    2.87    3.01 
 -11  13   3    3.18    4.36 
 -11  13   3    5.70    2.19 
   5   8  -3   18.63    4.30 
   8 -13  -3   14.51    3.45 
 -13   5  -3    8.74    3.83 
   8 -13  -3    9.79    2.61 
  -8  13   3   13.74    2.96 
  13  -5   3   16.11    3.91 
  13  -5   3   13.20    2.53 
  -8  13   3   14.85    4.53 
  13  -5   3   17.41    4.46 
  13  -5   3   17.41    3.89 
  -8  13   3   21.63    3.52 
   8   5  -3    9.45    3.37 
 -13   8  -3    9.02    4.23 
 -13   8  -3    5.45    2.40 
  13  -8   3    8.26    3.13 
  -5  13   3    4.03    2.88 
  -5  13   3   12.84    2.62 
  -5  13   3    4.98    4.32 
  -5  13   3   12.72    3.18 
  13  -8   3    7.38    2.19 
  13  -8   3    5.62    3.95 
  11   2  -3    5.00    3.28 
 -13  11  -3    3.10    2.98 
 -13  11  -3    1.29    3.67 
   2 -13  -3    4.32    3.78 
 -13  11  -3    1.93    2.41 
  13 -11   3    7.89    3.11 
  -2  13   3    6.47    4.41 
  -2  13   3    9.58    2.32 
  13 -11   3    3.67    3.69 
  13 -11   3    5.75    2.20 
  14  -1  -3    9.91    3.75 
 -13  14  -3   14.89    4.21 
 -13  14  -3    8.62    3.66 
 -13  14  -3   16.50    2.95 
  13 -14   3   15.84    3.90 
   1  13   3   13.26    2.66 
  13 -14   3   12.23    2.80 
   1  13   3   14.53    4.80 
 -14   1   3   12.08    5.41 
  13 -14   3    9.94    4.00 
 -14   1   3   13.37    3.22 
   1  13   3   12.52    3.23 
 -13  17  -3   50.82    6.04 
  17  -4  -3   58.34    7.34 
  17  -4  -3   58.63    7.07 
  17  -4  -3   52.10    5.53 
 -13  17  -3   65.18    5.73 
 -13  17  -3   52.23    7.24 
  13 -17   3   62.93    5.58 
  13 -17   3   56.37    7.00 
 -17   4   3   52.64    5.93 
   4  13   3   54.47    5.87 
 -17   4   3   46.92    7.63 
   4  13   3   60.85    7.78 
 -13  20  -3   32.42    4.85 
  20  -7  -3   32.32    5.51 
 -13  20  -3   42.27    4.31 
 -13  20  -3   30.51    5.93 
  20  -7  -3   40.81    4.07 
  20  -7  -3   20.96    5.54 
 -20   7   3   21.37    6.26 
   7  13   3   25.77    5.92 
  13 -20   3   28.38    5.47 
 -20   7   3   34.74    4.64 
 -20   7   3   32.56    6.63 
 -13  23  -3    7.83    5.20 
  23 -10  -3   12.59    4.79 
  23 -10  -3    4.87    4.30 
 -13  23  -3   13.85    3.07 
  23 -10  -3   17.79    3.12 
  10  13   3    7.81    4.70 
 -23  10   3    4.56    5.48 
  13 -23   3    8.06    4.48 
 -23  10   3   11.64    3.66 
  26 -13  -3    3.50    2.92 
 -13  26  -3    6.67    2.78 
 -26  13   3    0.90    3.96 
 -11  25  -3   -3.08    2.72 
  25 -14  -3    6.13    4.92 
  25 -14  -3   -1.23    2.66 
 -25  14   3   -1.38    3.76 
 -25  14   3    2.87    5.23 
 -25  14   3   -4.41    3.22 
  22 -14  -3   -0.72    4.51 
  -8  22  -3    2.21    2.58 
  22 -14  -3   -2.22    2.61 
  -8  22  -3    9.90    4.71 
  22 -14  -3   -0.15    4.63 
 -22  14   3   -0.67    4.73 
 -22  14   3    4.05    3.00 
 -22  14   3   -1.10    3.89 
  14   8   3   -2.02    4.18 
 -22  14   3   -3.28    3.53 
  -5  19  -3   -0.84    4.12 
  -5  19  -3    1.44    2.29 
  19 -14  -3   -0.36    4.24 
  19 -14  -3    5.22    4.55 
  19 -14  -3    2.48    2.63 
 -19  14   3   -3.91    4.05 
 -19  14   3   -0.28    3.08 
 -19  14   3    3.12    3.25 
  14   5   3   -1.80    4.25 
   5 -19   3   -0.66    3.32 
 -19  14   3   -1.50    2.62 
  -2  16  -3    0.02    4.02 
  16 -14  -3    6.67    2.45 
  16 -14  -3    8.54    4.14 
  16 -14  -3    5.01    4.54 
  14   2   3    2.77    2.02 
  14   2   3   -0.39    2.84 
 -16  14   3   -0.73    4.54 
 -16  14   3   -2.37    3.06 
 -16  14   3    1.65    3.11 
  14   2   3    4.18    4.33 
 -16  14   3    2.30    2.73 
   2 -16   3    0.78    3.24 
  14   2   3    4.49    3.02 
 -16  14   3   -1.10    2.18 
  13 -14  -3   -0.17    4.06 
  13 -14  -3    3.50    2.22 
   1  13  -3    1.41    4.07 
  13 -14  -3   -1.04    3.30 
 -13  14   3   -1.16    3.36 
  14  -1   3    0.03    1.89 
 -13  14   3    5.40    2.55 
  14  -1   3   -2.45    3.85 
 -13  14   3   -2.95    2.33 
  14  -1   3   -1.49    2.65 
 -13  14   3   -4.99    4.01 
 -13  14   3    0.81    3.02 
 -13  14   3    1.76    4.52 
  14  -1   3    5.89    3.24 
 -14   4  -3    6.29    2.38 
  10 -14  -3    6.99    2.25 
 -14   4  -3    7.61    3.72 
   4  10  -3    7.40    3.96 
  10 -14  -3    9.63    3.51 
 -10  14   3   10.92    2.68 
 -10  14   3    4.08    2.47 
 -10  14   3    8.33    2.51 
 -10  14   3    5.97    4.06 
  14  -4   3    6.09    3.49 
  14  -4   3    5.36    2.23 
  14  -4   3    7.34    3.10 
  14  -4   3   12.62    4.31 
 -10  14   3    7.99    3.14 
 -10  14   3    3.74    3.33 
   7   7  -3   12.60    3.73 
 -14   7  -3    2.89    4.01 
   7 -14  -3   13.03    2.47 
 -14   7  -3   10.48    2.46 
  -7  14   3    7.96    3.07 
  14  -7   3   10.52    3.55 
  14  -7   3    6.69    3.47 
  -7  14   3   17.61    3.06 
  14  -7   3   14.54    2.65 
  -7  14   3    9.87    2.45 
  -7  14   3    8.65    3.18 
  -7  14   3   11.16    4.80 
  -7  14   3   10.63    2.72 
 -14  10  -3   15.29    3.31 
 -14  10  -3   14.88    2.73 
  10   4  -3   11.12    3.43 
 -14  10  -3   14.76    4.39 
  -4  14   3   -0.58    4.20 
  14 -10   3   10.59    2.46 
  -4  14   3   11.45    2.75 
  14 -10   3    7.67    3.29 
  -4  14   3   10.30    3.25 
  14 -10   3   17.07    4.30 
  13   1  -3   15.33    3.78 
 -14  13  -3   12.15    3.98 
 -14  13  -3   13.15    3.85 
 -14  13  -3   17.92    2.99 
  14 -13   3   15.43    4.39 
 -13  -1   3   12.81    4.63 
  -1  14   3   13.35    4.58 
  14 -13   3   22.27    4.17 
 -13  -1   3   10.11    3.00 
  -1  14   3   15.10    2.74 
  14 -13   3   16.62    2.77 
 -14  16  -3    7.72    2.69 
  16  -2  -3    8.74    3.79 
 -14  16  -3    8.59    4.24 
 -14  16  -3    6.86    3.58 
 -16   2   3    5.96    3.09 
   2  14   3    2.26    4.17 
  14 -16   3   11.54    3.96 
 -16   2   3   -0.69    4.78 
  14 -16   3    1.84    3.55 
  14 -16   3    0.07    2.29 
   2  14   3    3.81    2.39 
 -14  19  -3    4.07    2.58 
  19  -5  -3   11.37    4.24 
 -14  19  -3    8.02    4.32 
  19  -5  -3    6.25    4.66 
 -14  19  -3    3.26    3.62 
  19  -5  -3    8.00    2.46 
 -19   5   3    6.76    3.35 
 -19   5   3   -2.54    5.81 
  14 -19   3    6.80    4.32 
   5  14   3   17.14    4.95 
   5  14   3    7.76    2.99 
  22  -8  -3    7.95    2.51 
 -14  22  -3   10.02    2.93 
 -14  22  -3    3.50    4.63 
  22  -8  -3   12.80    4.86 
 -14  22  -3    6.08    3.87 
  22  -8  -3    9.99    4.49 
 -22   8   3   15.85    3.88 
 -22   8   3    9.15    5.61 
 -22   8   3   12.19    4.80 
   8  14   3   14.31    5.13 
  14 -22   3    4.08    4.43 
 -14  25  -3    1.23    3.10 
  25 -11  -3   -1.47    4.46 
  25 -11  -3   -3.44    2.49 
 -25  11   3   -1.89    4.09 
 -25  11   3    1.83    5.68 
 -14  28  -3    2.81    2.87 
  28 -14  -3    0.15    2.97 
 -28  14   3    1.19    3.88 
 -28  14   3    2.68    4.37 
  27 -15  -3   10.00    3.07 
 -12  27  -3    8.66    3.21 
 -27  15   3   10.82    3.98 
 -27  15   3    5.41    4.18 
  24 -15  -3    6.31    4.50 
  24 -15  -3    2.77    3.25 
  -9  24  -3    9.72    2.82 
  24 -15  -3   11.39    4.73 
  15   9   3    7.43    4.77 
 -24  15   3   -0.16    4.01 
 -24  15   3    7.42    4.20 
 -24  15   3    3.02    3.19 
 -24  15   3    5.52    5.19 
  -6  21  -3    3.78    4.38 
  21 -15  -3   -0.12    4.36 
  21 -15  -3    0.25    4.08 
  21 -15  -3   10.95    3.22 
 -21  15   3    0.24    3.64 
 -21  15   3   -3.92    5.15 
  15   6   3    4.28    4.27 
 -21  15   3    3.76    2.96 
 -21  15   3    9.49    3.57 
  -3  18  -3   10.29    4.76 
  18 -15  -3    9.68    4.32 
  18 -15  -3    2.80    4.30 
  18 -15  -3   12.91    2.87 
 -18  15   3    8.22    2.48 
 -18  15   3    7.34    3.35 
  15   3   3   12.61    4.95 
 -18  15   3   11.22    3.46 
 -18  15   3    8.79    2.90 
 -18  15   3   12.02    5.24 
  15 -15  -3   -3.54    4.21 
   0  15  -3   -0.19    4.09 
  15 -15  -3   -3.73    3.95 
  15 -15  -3    1.93    2.31 
  15   0   3    1.41    2.99 
  15   0   3    0.15    4.55 
 -15  15   3    4.91    3.08 
 -15  15   3    0.87    2.38 
 -15  15   3   -1.80    4.80 
  15   0   3    2.24    2.11 
 -15  15   3    1.86    2.90 
  15   0   3    1.05    2.90 
 -15  15   3    0.57    3.25 
  12 -15  -3    1.14    2.20 
 -15   3  -3    0.10    3.04 
 -15   3  -3    3.14    2.20 
   3  12  -3    7.43    4.04 
  12 -15  -3    5.21    3.71 
 -12  15   3    0.40    2.45 
  15  -3   3    2.66    4.23 
  15  -3   3    3.60    3.12 
  15  -3   3    4.66    2.10 
 -12  15   3    7.40    2.47 
 -12  15   3    8.21    2.42 
 -12  15   3   -2.10    3.19 
 -12  15   3    4.04    3.21 
 -12  15   3   -2.25    3.59 
   6   9  -3    4.08    3.67 
   9 -15  -3    3.57    2.06 
 -15   6  -3   -0.09    2.39 
  -9  15   3   -1.41    2.11 
  15  -6   3    4.46    2.97 
  15  -6   3    3.75    3.63 
  -9  15   3    2.24    3.37 
  -9  15   3    3.50    2.53 
  15  -6   3   -1.00    2.08 
  -9  15   3   -0.42    4.18 
  -9  15   3   -1.46    2.51 
  -9  15   3    1.76    3.01 
   6 -15  -3    3.95    2.11 
 -15   9  -3   -1.66    2.57 
 -15   9  -3    0.59    3.47 
 -15   9  -3    5.85    3.76 
  15  -9   3    2.29    3.34 
  -6  15   3    2.25    3.01 
  -6  15   3   -1.27    2.46 
  -6  15   3    5.29    3.09 
  -6  15   3   -2.68    2.11 
  15  -9   3   -0.26    3.28 
  15  -9   3    2.09    2.14 
  -6  15   3   -3.83    3.84 
  12   3  -3    1.99    3.44 
 -15  12  -3   -0.40    3.40 
 -15  12  -3    4.01    2.89 
 -15  12  -3   11.64    3.75 
  -3  15   3    5.33    2.53 
  15 -12   3    6.21    3.64 
  15 -12   3    6.23    3.59 
 -12  -3   3   12.82    4.98 
  15 -12   3    2.49    2.29 
  -3  15   3    1.56    4.08 
 -12  -3   3    2.60    2.99 
 -15  15  -3   24.74    5.17 
 -15  15  -3   32.32    4.12 
  15   0  -3   24.71    4.86 
 -15  15  -3   37.82    4.70 
  15 -15   3   23.21    4.99 
 -15   0   3   33.30    4.19 
 -15   0   3   31.18    5.81 
  15 -15   3   31.60    3.72 
  15 -15   3   31.39    5.09 
   0  15   3   27.35    5.64 
   0  15   3   25.07    3.64 
  18  -3  -3   16.85    4.69 
 -15  18  -3   27.73    3.65 
 -15  18  -3   26.02    5.59 
 -15  18  -3   14.38    3.92 
 -18   3   3   23.11    6.24 
  15 -18   3   25.78    4.88 
  15 -18   3   18.23    4.79 
   3  15   3   30.76    3.79 
  15 -18   3   33.18    3.76 
   3  15   3   25.71    5.56 
 -18   3   3   23.31    4.01 
 -15  21  -3    0.75    4.58 
  21  -6  -3    6.63    3.71 
  21  -6  -3    1.06    2.38 
 -15  21  -3    7.50    3.04 
  21  -6  -3   -0.41    4.10 
 -15  21  -3    8.24    3.91 
 -21   6   3   -2.88    5.92 
  15 -21   3    2.70    3.87 
 -21   6   3    2.46    3.60 
   6  15   3    0.34    4.81 
 -15  24  -3   -0.12    3.13 
 -15  24  -3    2.81    4.07 
  24  -9  -3    1.31    4.17 
  24  -9  -3    0.61    2.47 
  24  -9  -3   -2.39    4.55 
 -15  24  -3   -1.32    4.78 
 -24   9   3    4.40    3.82 
 -24   9   3    0.34    5.84 
  15 -24   3   -7.52    4.12 
   9  15   3    8.28    5.06 
 -15  27  -3   10.01    3.48 
  27 -12  -3    8.63    3.05 
 -27  12   3   14.74    4.13 
  30 -15  -3   15.76    3.43 
 -15  30  -3   12.19    3.30 
 -30  15   3    6.68    4.34 
 -30  15   3   17.73    4.36 
 -13  29  -3    4.11    3.05 
  29 -16  -3    9.24    3.30 
 -29  16   3    5.41    4.22 
 -29  16   3    9.87    3.85 
 -10  26  -3    5.75    2.74 
  26 -16  -3    3.21    3.18 
 -26  16   3    5.37    3.46 
 -26  16   3    4.68    3.94 
 -26  16   3   10.46    4.38 
  23 -16  -3    9.98    5.32 
  23 -16  -3    4.38    5.13 
  23 -16  -3   10.05    3.42 
  -7  23  -3   15.81    5.32 
  16   7   3   10.83    4.78 
 -23  16   3   12.62    3.64 
 -23  16   3    3.79    5.51 
 -23  16   3   16.41    4.10 
 -23  16   3   10.42    4.15 
  20 -16  -3    5.80    4.61 
  20 -16  -3   12.89    5.08 
  20 -16  -3    6.90    2.84 
  -4  20  -3   10.08    4.84 
 -20  16   3   11.97    3.03 
 -20  16   3    7.96    3.46 
 -20  16   3    8.21    3.55 
 -20  16   3    4.30    5.22 
 -20  16   3    9.11    2.78 
  16   4   3    6.68    4.45 
  17 -16  -3   -5.11    4.62 
  17 -16  -3   -0.20    2.43 
  -1  17  -3   -1.92    4.05 
  17 -16  -3   -0.67    3.79 
 -17  16   3    2.83    2.21 
 -17  16   3    4.70    5.29 
  16   1   3   -0.10    4.20 
  16   1   3    2.14    2.83 
 -17  16   3    1.31    2.66 
 -17  16   3   11.12    3.39 
 -17  16   3   -0.54    3.67 
  16   1   3    2.67    1.91 
  14 -16  -3    3.48    3.85 
  14 -16  -3   -6.02    3.82 
  14 -16  -3    4.18    2.33 
   2  14  -3    8.39    4.57 
 -14  16   3    3.74    3.31 
  16  -2   3   -3.28    4.18 
 -14  16   3   -1.21    3.53 
 -14  16   3   -1.03    4.71 
 -14  16   3   -0.90    2.33 
 -14  16   3    3.81    2.52 
 -14  16   3   -3.72    2.89 
  16  -2   3    0.70    2.98 
  16  -2   3    2.69    2.03 
  11 -16  -3   10.06    2.35 
   5  11  -3    7.97    4.36 
 -16   5  -3    7.53    3.18 
 -16   5  -3    7.06    2.23 
  16  -5   3    7.43    3.47 
  16  -5   3    7.85    3.77 
 -11  16   3    7.40    2.80 
 -11  16   3   12.03    3.73 
 -11  16   3    5.14    3.21 
  16  -5   3    5.72    2.23 
 -11  16   3    6.65    2.85 
 -11  16   3    2.30    2.14 
 -11  16   3    7.97    4.38 
   8 -16  -3   18.84    2.64 
 -16   8  -3   15.73    2.89 
 -16   8  -3   14.09    4.00 
  -8  16   3   16.77    2.72 
  -8  16   3   15.36    3.84 
  -8  16   3   20.65    3.18 
  -8  16   3   16.45    3.73 
  -8  16   3   15.05    3.23 
  -8  16   3   20.37    4.89 
  16  -8   3   15.96    2.81 
  16  -8   3   20.96    4.12 
  16  -8   3   14.56    4.52 
 -16  11  -3   24.14    3.77 
 -16  11  -3   23.19    3.26 
  11   5  -3   16.00    3.89 
  -5  16   3   15.46    4.72 
  -5  16   3   21.92    3.03 
  -5  16   3   18.52    3.68 
  16 -11   3   17.62    4.40 
  16 -11   3   14.28    4.18 
  16 -11   3   18.31    3.02 
 -16  14  -3   -0.52    2.89 
 -16  14  -3    3.96    4.14 
 -16  14  -3   -1.91    3.44 
  14   2  -3   -3.73    3.42 
  16 -14   3    3.83    3.59 
  -2  16   3   -0.91    2.58 
  16 -14   3    6.00    3.88 
  -2  16   3    2.34    4.57 
 -14  -2   3   -3.64    4.69 
 -14  -2   3    0.99    2.83 
  16 -14   3    6.27    2.72 
 -16  17  -3   21.55    3.64 
 -16  17  -3   11.02    4.45 
 -16  17  -3   15.42    3.88 
  17  -1  -3   22.00    4.74 
  16 -17   3   18.42    5.13 
  16 -17   3   19.37    3.19 
  16 -17   3   14.66    4.42 
   1  16   3   28.64    5.86 
 -17   1   3   11.04    5.51 
   1  16   3   30.30    3.61 
 -17   1   3   28.86    3.97 
  20  -4  -3   21.36    4.58 
 -16  20  -3   23.35    4.34 
 -16  20  -3   20.74    3.68 
 -16  20  -3   24.03    5.16 
  20  -4  -3   18.37    4.85 
 -20   4   3   17.04    6.91 
  16 -20   3   15.75    3.45 
   4  16   3   28.89    3.66 
  16 -20   3   16.13    4.83 
 -20   4   3   29.88    4.32 
   4  16   3   24.88    5.53 
 -16  23  -3    3.04    3.98 
 -16  23  -3   17.47    3.26 
  23  -7  -3   13.85    5.02 
 -16  23  -3   14.45    4.71 
  23  -7  -3    7.63    4.00 
  16 -23   3    8.27    4.92 
   7  16   3    6.35    4.74 
 -23   7   3   -4.45    5.38 
 -23   7   3   14.33    5.85 
 -23   7   3   11.81    3.92 
 -16  26  -3    7.13    4.11 
  26 -10  -3    4.67    2.62 
 -16  26  -3    6.86    3.38 
 -26  10   3    6.85    4.03 
 -16  29  -3   -2.16    3.21 
  29 -13  -3    3.49    2.89 
 -29  13   3    2.45    4.05 
  28 -17  -3   -6.81    3.01 
 -11  28  -3    2.38    2.86 
 -28  17   3   -1.83    3.66 
 -28  17   3   -1.47    4.38 
 -28  17   3    1.02    3.88 
  25 -17  -3    4.97    3.01 
 -25  17   3    2.90    3.20 
 -25  17   3   10.01    3.61 
 -25  17   3   -1.03    3.72 
  22 -17  -3    7.91    5.17 
  22 -17  -3    8.55    5.06 
  22 -17  -3    8.59    2.92 
  -5  22  -3    2.48    5.28 
 -22  17   3    1.31    4.01 
 -22  17   3    1.83    4.86 
 -22  17   3    6.05    3.44 
 -22  17   3    2.08    3.50 
  17   5   3    2.67    4.45 
  19 -17  -3    5.42    2.59 
  19 -17  -3   -3.33    4.71 
  19 -17  -3   -0.33    4.35 
  -2  19  -3    0.32    4.15 
 -19  17   3   -0.84    5.49 
 -19  17   3    0.09    3.39 
 -19  17   3   -1.98    3.22 
  17   2   3   -0.59    4.38 
 -19  17   3    0.60    2.77 
  16 -17  -3    4.31    4.81 
   1  16  -3    0.32    4.16 
  16 -17  -3   -2.71    3.93 
  16 -17  -3    1.21    2.68 
 -16  17   3   -0.35    3.30 
  17  -1   3    1.53    4.03 
 -16  17   3    6.42    4.73 
  17  -1   3    0.28    2.24 
  17  -1   3    2.50    3.08 
 -16  17   3   -0.05    3.51 
 -16  17   3    0.61    2.76 
   4  13  -3   43.68    5.96 
 -17   4  -3   40.08    4.70 
  13 -17  -3   42.16    5.83 
  13 -17  -3   42.60    4.38 
 -13  17   3   44.89    5.32 
  17  -4   3   40.59    5.39 
 -13  17   3   27.70    4.14 
 -13  17   3   35.79    4.52 
  17  -4   3   41.97    4.42 
 -13  17   3   43.52    5.10 
 -13  17   3   40.45    4.60 
 -17   7  -3   49.51    5.26 
   7  10  -3   50.85    6.39 
  10 -17  -3   49.28    5.06 
  17  -7   3   55.36    6.73 
 -10  17   3   56.76    5.38 
 -10  17   3   54.62    5.35 
  17  -7   3   48.89    5.25 
 -10  17   3   43.91    5.05 
 -10  17   3   49.39    5.66 
  17  -7   3   44.99    6.19 
 -10  17   3   59.46    5.81 
 -17  10  -3   47.55    5.17 
 -17  10  -3   49.66    5.71 
   7 -17  -3   42.69    4.86 
  10   7  -3   44.35    6.08 
  17 -10   3   49.97    5.00 
  17 -10   3   41.81    6.39 
  17 -10   3   55.58    6.28 
  -7  17   3   51.21    5.16 
  -7  17   3   48.36    7.02 
  -7  17   3   50.99    5.43 
 -17  13  -3   54.67    5.92 
 -17  13  -3   60.36    6.66 
  13   4  -3   61.92    6.66 
  -4  17   3   53.32    6.08 
  17 -13   3   80.20    8.05 
  -4  17   3   63.72    7.37 
  17 -13   3   62.98    6.14 
 -13  -4   3   56.81    7.70 
  17 -13   3   57.15    6.94 
  16   1  -3   14.32    4.45 
 -17  16  -3   20.59    4.44 
 -17  16  -3   30.92    3.87 
  17 -16   3   20.30    4.82 
 -16  -1   3    7.26    5.55 
  -1  17   3   19.74    5.45 
  -1  17   3   20.24    3.22 
  17 -16   3   24.22    3.38 
 -16  -1   3   23.15    4.06 
 -17  19  -3   -1.36    3.76 
  19  -2  -3   -5.54    4.10 
 -17  19  -3   -0.19    2.59 
 -17  19  -3    1.05    3.69 
   2  17   3   -3.06    2.64 
 -19   2   3    4.96    3.75 
   2  17   3   -6.10    3.81 
 -19   2   3   -8.35    5.69 
  17 -19   3    1.39    2.74 
  17 -19   3    3.85    4.50 
 -17  22  -3    8.12    3.05 
 -17  22  -3    6.99    4.86 
  22  -5  -3    5.70    4.03 
 -17  22  -3    4.30    4.03 
  22  -5  -3    8.44    4.75 
   5  17   3    4.07    2.60 
   5  17   3    4.92    4.45 
 -22   5   3   -1.10    6.26 
 -22   5   3    5.08    3.76 
  17 -22   3   -0.01    4.01 
 -17  25  -3    8.12    3.18 
 -17  25  -3    4.02    4.21 
 -25   8   3    6.48    4.10 
  28 -11  -3    3.60    2.74 
 -17  28  -3    1.51    3.28 
 -28  11   3   -1.62    3.82 
  30 -18  -3    1.94    3.15 
 -30  18   3   -3.99    4.19 
 -30  18   3   -3.30    4.54 
 -30  18   3    2.99    3.76 
  27 -18  -3    1.49    2.98 
 -27  18   3    5.72    3.56 
 -27  18   3   -1.01    3.74 
 -27  18   3   -1.41    4.34 
  24 -18  -3    8.80    5.42 
  24 -18  -3    0.37    2.82 
 -24  18   3   -3.11    4.19 
 -24  18   3   -0.30    5.08 
 -24  18   3   -0.33    3.44 
 -24  18   3    4.38    3.04 
  21 -18  -3   -4.98    4.45 
  21 -18  -3   -0.85    2.62 
  21 -18  -3    3.25    4.59 
  -3  21  -3   -1.14    4.87 
 -21  18   3   -8.47    5.65 
  18   3   3    4.73    4.43 
 -21  18   3    0.18    2.84 
 -21  18   3    0.90    3.45 
 -21  18   3    3.55    3.52 
  18 -18  -3   -3.03    2.33 
  18 -18  -3    3.45    4.48 
   0  18  -3    3.38    4.26 
  18 -18  -3    1.94    5.14 
 -18  18   3    3.26    2.55 
 -18  18   3    5.90    5.69 
  18   0   3    1.88    2.21 
  18   0   3   -0.51    3.86 
 -18  18   3    2.95    3.32 
 -18  18   3   -0.72    3.43 
  15 -18  -3   12.46    4.48 
  15 -18  -3    5.61    5.68 
  15 -18  -3    6.99    2.84 
 -18   3  -3   11.94    3.37 
   3  15  -3   16.24    4.58 
 -15  18   3    7.13    2.92 
 -15  18   3   15.14    5.18 
 -15  18   3   15.32    3.69 
  18  -3   3    4.82    4.24 
 -15  18   3   11.58    3.75 
  18  -3   3   13.37    2.72 
 -15  18   3    8.24    3.05 
   6  12  -3   28.35    4.99 
 -18   6  -3   24.78    3.88 
  12 -18  -3   18.00    3.32 
  18  -6   3   22.99    3.27 
 -12  18   3   24.57    3.59 
  18  -6   3   14.20    4.55 
  18  -6   3   20.43    4.44 
 -12  18   3   30.91    4.58 
 -12  18   3   32.97    4.09 
 -12  18   3   26.59    3.68 
 -18   9  -3   12.85    3.96 
 -18   9  -3   14.47    2.97 
   9 -18  -3    7.99    2.48 
  18  -9   3   11.91    3.88 
  -9  18   3   16.79    2.79 
  18  -9   3   11.64    3.92 
  -9  18   3    9.82    3.74 
  18  -9   3    7.75    2.59 
  -9  18   3   11.15    3.40 
  -9  18   3   14.66    3.04 
  12   6  -3   17.13    3.93 
 -18  12  -3    9.74    4.05 
 -18  12  -3   18.48    3.23 
  -6  18   3   15.44    3.17 
  18 -12   3   15.66    3.14 
  -6  18   3   11.62    4.64 
  18 -12   3   12.51    4.80 
 -18  15  -3   22.23    3.66 
 -18  15  -3   25.62    4.59 
  15   3  -3   20.21    4.85 
  18 -15   3   32.60    4.01 
  -3  18   3   24.27    5.25 
 -15  -3   3   36.25    4.36 
  18 -15   3   27.39    5.25 
 -15  -3   3   16.89    5.40 
  -3  18   3   28.94    3.58 
 -18  18  -3   22.38    4.27 
 -18  18  -3   22.08    3.57 
  18   0  -3   22.57    4.85 
   0  18   3   29.31    3.82 
 -18   0   3   24.64    4.18 
 -18   0   3   15.20    5.91 
   0  18   3   25.69    5.45 
  18 -18   3   26.06    3.84 
  18 -18   3   24.97    5.63 
 -18  21  -3   -1.00    3.02 
 -18  21  -3    3.68    3.83 
  21  -3  -3    3.40    4.07 
 -21   3   3    9.05    3.78 
   3  18   3    2.34    2.73 
  18 -21   3   -1.46    2.82 
   3  18   3   -8.24    3.83 
  18 -21   3    2.94    4.30 
 -21   3   3  -11.06    5.27 
 -18  24  -3    0.04    4.08 
  24  -6  -3    1.89    3.89 
  24  -6  -3   -0.32    4.58 
 -18  24  -3   -0.89    3.03 
   6  18   3   -1.39    3.94 
 -24   6   3   -9.39    5.43 
 -24   6   3   -0.55    3.87 
 -18  27  -3    2.92    3.01 
 -18  27  -3    2.70    4.32 
 -27   9   3    1.31    4.47 
 -18  30  -3    2.38    3.43 
 -30  12   3    6.17    4.45 
  29 -19  -3   -0.49    3.28 
 -29  19   3    0.33    4.12 
 -29  19   3   -4.88    3.20 
 -29  19   3    1.83    4.57 
  26 -19  -3   -6.01    2.73 
 -26  19   3   -6.52    3.39 
 -26  19   3   -3.53    4.33 
 -26  19   3   -3.96    3.69 
  23 -19  -3    4.67    5.56 
  23 -19  -3   -2.76    2.65 
  23 -19  -3    0.26    4.88 
 -23  19   3    3.09    2.97 
 -23  19   3   -4.89    4.11 
  19   4   3   11.18    5.25 
 -23  19   3    3.92    3.54 
 -23  19   3   -1.45    5.52 
  20 -19  -3   -3.16    2.69 
  20 -19  -3   -2.58    4.33 
  20 -19  -3   -2.71    5.03 
  -1  20  -3   -1.03    4.05 
 -20  19   3   -4.91    3.56 
 -20  19   3   -1.88    2.98 
  19   1   3    1.06    3.98 
 -20  19   3   -0.61    5.65 
 -20  19   3   -0.66    4.01 
  17 -19  -3    3.42    2.73 
  17 -19  -3   -0.73    4.48 
 -19   2  -3    3.31    3.72 
  17 -19  -3    2.56    4.04 
   2  17  -3   -1.48    3.89 
 -17  19   3    1.48    5.57 
 -17  19   3    1.55    3.53 
 -17  19   3   -1.26    2.40 
 -17  19   3    3.91    3.88 
  19  -2   3    1.76    2.09 
  19  -2   3    1.80    4.17 
   5  14  -3    2.00    4.07 
  14 -19  -3    0.03    2.15 
 -19   5  -3   -0.89    2.90 
 -14  19   3   -3.16    2.60 
  19  -5   3   -1.68    2.37 
 -14  19   3    0.28    3.37 
 -14  19   3    2.15    2.42 
 -14  19   3    0.30    3.37 
 -19   8  -3    2.39    3.77 
  11 -19  -3    5.49    2.37 
 -19   8  -3    8.06    2.98 
 -11  19   3   10.56    2.95 
 -11  19   3    3.61    2.72 
  19  -8   3    3.34    3.96 
  19  -8   3    4.74    2.67 
 -11  19   3    6.74    3.47 
 -11  19   3    3.12    3.86 
  11   8  -3   13.82    3.90 
 -19  11  -3    6.45    4.10 
 -19  11  -3   11.39    2.73 
  19 -11   3   12.92    2.81 
  19 -11   3   14.98    4.32 
  -8  19   3   11.02    3.60 
  -8  19   3   10.22    3.08 
 -19  14  -3    8.64    2.78 
  14   5  -3    8.02    3.69 
 -19  14  -3   12.08    3.97 
  19 -14   3    5.44    2.68 
  -5  19   3    9.74    2.84 
  19 -14   3   -0.54    4.37 
 -14  -5   3    3.66    5.21 
  17   2  -3   -1.85    3.33 
 -19  17  -3   -2.14    2.82 
 -19  17  -3    0.08    3.89 
  19 -17   3   -2.26    2.91 
  -2  19   3   -2.60    4.39 
  19 -17   3   -2.79    4.37 
  -2  19   3    0.71    2.79 
 -17  -2   3    0.18    3.23 
 -17  -2   3    2.47    5.56 
 -19  20  -3   -3.32    3.41 
 -19  20  -3    4.59    2.75 
  20  -1  -3    5.58    4.51 
 -20   1   3   -4.51    5.39 
   1  19   3    3.01    2.85 
  19 -20   3    1.82    4.60 
 -20   1   3   -2.31    3.45 
  19 -20   3    3.77    2.71 
   1  19   3    0.17    4.62 
  23  -4  -3   -2.07    4.63 
 -19  23  -3   -1.33    3.22 
 -19  23  -3  -10.01    3.98 
 -23   4   3   -4.26    5.70 
  19 -23   3    5.06    4.67 
 -23   4   3    4.95    4.22 
   4  19   3    1.70    2.91 
   4  19   3    6.44    5.04 
 -19  26  -3    8.41    4.50 
 -19  26  -3    0.92    2.99 
 -26   7   3    1.79    4.47 
 -19  29  -3   -1.78    2.96 
 -19  29  -3   -4.41    4.23 
 -29  10   3    1.07    4.38 
  28 -20  -3    0.09    3.12 
 -28  20   3    5.64    4.68 
 -28  20   3    1.94    4.21 
 -28  20   3    1.83    3.25 
  25 -20  -3    2.54    3.25 
 -25  20   3   -3.12    3.89 
 -25  20   3   -0.98    3.65 
 -25  20   3    2.34    3.38 
  22 -20  -3    2.97    5.50 
  22 -20  -3    2.07    2.95 
  22 -20  -3    2.30    4.77 
  -2  22  -3   -5.88    3.96 
  20   2   3    2.91    4.89 
 -22  20   3   -7.00    5.80 
 -22  20   3    1.64    2.78 
 -22  20   3    0.10    3.35 
 -22  20   3    0.93    3.79 
  19 -20  -3   -2.32    2.40 
  19 -20  -3   -3.72    3.65 
 -20   1  -3    5.47    3.82 
   1  19  -3   -0.58    4.48 
  19 -20  -3   -3.84    5.09 
 -19  20   3   -0.77    5.17 
 -19  20   3   -2.08    3.46 
 -19  20   3    0.79    2.77 
 -19  20   3    2.36    3.99 
  20  -1   3    0.74    4.51 
  20  -1   3   -2.65    2.26 
   4  16  -3    6.95    4.27 
 -20   4  -3    6.75    3.71 
  16 -20  -3    9.77    2.91 
 -16  20   3   12.54    5.50 
 -16  20   3    9.29    3.58 
 -16  20   3   14.91    3.85 
 -16  20   3    8.82    2.86 
 -16  20   3    9.56    3.05 
  20  -4   3   10.00    2.85 
 -20   7  -3    5.82    4.12 
 -20   7  -3   12.72    3.34 
  13 -20  -3   16.72    2.89 
 -13  20   3   17.54    2.85 
  20  -7   3   14.07    2.88 
 -13  20   3   12.67    3.22 
 -13  20   3   21.46    3.85 
 -13  20   3   14.44    3.82 
 -20  10  -3   21.18    3.31 
 -20  10  -3   16.92    4.37 
 -10  20   3   25.65    3.98 
  20 -10   3   24.29    5.35 
 -10  20   3   18.97    4.13 
  20 -10   3   21.76    3.50 
 -10  20   3   14.41    3.43 
  13   7  -3   35.01    5.21 
 -20  13  -3   30.47    4.13 
 -20  13  -3   29.61    4.78 
  20 -13   3   36.90    6.26 
  -7  20   3   34.29    4.00 
  20 -13   3   28.75    4.00 
 -20  16  -3   23.92    3.73 
  16   4  -3   23.61    4.90 
 -20  16  -3   27.73    4.73 
  -4  20   3   25.16    3.41 
 -16  -4   3   22.22    4.20 
 -16  -4   3   12.23    5.39 
  20 -16   3   17.27    5.44 
  20 -16   3   24.96    3.86 
 -20  19  -3    0.97    3.98 
 -20  19  -3   -1.33    2.87 
  19   1  -3    1.75    3.98 
 -19  -1   3   -2.23    3.28 
  -1  20   3    2.51    4.12 
  20 -19   3   -0.37    3.04 
 -19  -1   3   -8.23    5.26 
  20 -19   3   -4.48    4.50 
  -1  20   3    1.58    2.86 
 -20  22  -3    2.55    4.14 
  22  -2  -3    0.68    4.10 
 -20  22  -3    1.36    2.88 
  20 -22   3    3.57    3.23 
 -22   2   3  -12.60    5.33 
 -22   2   3    9.21    3.91 
  20 -22   3    1.94    4.59 
   2  20   3   -1.58    2.79 
   2  20   3   -0.36    4.09 
 -20  25  -3   -0.04    4.32 
 -20  25  -3    6.03    3.50 
 -25   5   3    0.57    3.99 
 -20  28  -3    2.41    3.15 
 -20  28  -3    5.22    4.48 
 -28   8   3    8.25    4.62 
  27 -21  -3   -3.13    3.24 
 -27  21   3   -1.13    4.54 
 -27  21   3   -1.19    3.34 
 -27  21   3   -1.74    4.13 
  24 -21  -3    2.36    3.19 
 -21  -3  -3    4.14    3.86 
 -24  21   3    0.87    3.10 
 -24  21   3    1.77    4.32 
 -24  21   3    2.77    3.43 
  21 -21  -3   -0.13    5.74 
 -21   0  -3    8.93    4.14 
  21 -21  -3    7.49    4.73 
  21 -21  -3    2.12    2.87 
   0  21  -3    6.43    4.57 
 -21  21   3    6.36    6.06 
  21   0   3    0.09    4.44 
 -21  21   3    1.48    2.81 
 -21  21   3    3.64    4.24 
 -21  21   3    1.09    3.37 
   3  18  -3   -2.38    4.35 
  18 -21  -3   -4.29    5.23 
 -21   3  -3    5.81    3.82 
  18 -21  -3   -4.55    2.30 
  21  -3   3    0.88    2.23 
 -18  21   3   -6.75    3.41 
 -18  21   3   -0.49    2.96 
 -18  21   3   -1.13    3.45 
 -18  21   3   -2.78    5.16 
 -18  21   3   -6.77    2.54 
 -21   6  -3    8.48    3.60 
 -21   6  -3    3.45    3.85 
  15 -21  -3    6.53    2.62 
 -15  21   3    7.14    2.63 
 -15  21   3   -1.21    3.93 
 -15  21   3    2.20    2.95 
  21  -6   3    6.94    2.78 
 -15  21   3    7.61    3.89 
  12 -21  -3    0.10    2.17 
 -21   9  -3    3.89    3.07 
 -21   9  -3    1.11    3.94 
  21  -9   3   -0.52    2.44 
  21  -9   3   -1.70    3.89 
 -12  21   3    3.87    2.83 
 -12  21   3    1.56    3.31 
 -12  21   3   -0.75    3.47 
 -21  12  -3    3.38    2.34 
 -21  12  -3    0.97    3.93 
  -9  21   3   -0.60    2.72 
  21 -12   3    2.57    2.70 
  21 -12   3   -8.49    3.57 
 -21  15  -3    8.55    4.22 
  15   6  -3    6.76    3.42 
 -21  15  -3    7.59    2.62 
  21 -15   3    3.33    2.64 
  21 -15   3   -2.15    4.52 
  -6  21   3   -0.26    2.82 
 -21  18  -3    2.54    2.86 
  18   3  -3   -2.87    3.91 
 -21  18  -3    2.03    3.91 
  21 -18   3    2.06    4.36 
 -18  -3   3    1.13    3.37 
  -3  21   3   -0.55    2.74 
 -18  -3   3   -8.88    4.72 
  21 -18   3    2.49    2.80 
 -21  21  -3    2.79    3.23 
  21   0  -3    7.02    4.20 
 -21  21  -3   -1.92    3.81 
 -21   0   3   -0.49    3.65 
  21 -21   3   -4.14    3.01 
   0  21   3   -0.42    2.81 
 -21   0   3   -6.17    5.50 
  21 -21   3   -3.22    5.02 
 -21  24  -3    5.34    4.34 
 -21  24  -3    0.72    3.05 
 -24   3   3    6.48    4.55 
   3  21   3    7.78    3.11 
 -21  27  -3    8.32    3.42 
 -21  27  -3   -2.69    4.30 
 -27   6   3    2.35    4.54 
  29 -22  -3   -0.21    2.85 
 -22  -7  -3   -0.82    4.33 
 -29  22   3    6.62    3.32 
 -29  22   3    3.33    3.91 
 -29  22   3   11.73    4.63 
  26 -22  -3   -3.09    2.96 
 -22  -4  -3    3.65    4.45 
 -26  22   3    9.17    3.93 
 -26  22   3    0.60    2.87 
 -26  22   3   -0.48    4.49 
  23 -22  -3    1.52    2.75 
 -22  -1  -3    4.67    4.25 
 -23  22   3    2.16    2.88 
 -23  22   3   -3.31    3.80 
 -23  22   3    5.58    3.60 
  20 -22  -3   -1.83    4.96 
  20 -22  -3    5.90    2.90 
 -22   2  -3    1.23    3.97 
 -20  22   3    2.57    4.11 
 -20  22   3    3.20    3.94 
  17 -22  -3    3.76    2.63 
  17 -22  -3    4.02    5.66 
 -22   5  -3    1.97    3.96 
 -22   5  -3   -1.66    3.55 
   5  17  -3   -7.34    3.68 
 -17  22   3   -0.13    3.22 
 -17  22   3    8.52    3.74 
  22  -5   3    1.37    2.67 
 -17  22   3    5.14    3.15 
  14 -22  -3   -1.33    2.27 
 -22   8  -3    2.93    3.57 
 -22   8  -3   -5.56    3.68 
 -14  22   3    2.42    3.38 
  22  -8   3   -0.55    2.46 
 -14  22   3    7.02    3.96 
 -14  22   3    3.74    2.92 
 -22  11  -3   12.12    4.04 
  22 -11   3    2.74    4.34 
 -11  22   3    6.74    4.11 
 -11  22   3    4.48    3.44 
  22 -11   3    3.56    2.74 
 -11  22   3    9.83    2.97 
 -22  14  -3   19.71    4.01 
 -22  14  -3    8.73    2.58 
  14   8  -3    1.80    3.35 
  22 -14   3   11.18    5.18 
  22 -14   3    8.64    2.87 
  -8  22   3    6.31    2.65 
  17   5  -3    3.29    3.76 
 -22  17  -3    6.54    4.32 
 -22  17  -3    1.97    2.48 
 -17  -5   3    7.65    3.32 
  22 -17   3    0.37    2.79 
  22 -17   3   10.45    4.80 
  -5  22   3    1.40    2.83 
 -22  20  -3    1.27    4.17 
  20   2  -3   -3.41    3.63 
 -22  20  -3    3.26    3.16 
 -20  -2   3   -6.76    4.84 
  22 -20   3   -6.39    4.60 
 -20  -2   3   -0.81    3.63 
  -2  22   3    4.77    2.57 
  22 -20   3    4.78    3.21 
 -22  23  -3    1.79    4.40 
 -22  23  -3    1.12    3.43 
   1  22   3    1.45    2.82 
  22 -23   3   -1.51    3.09 
 -23   1   3    4.60    4.32 
 -22  26  -3    1.72    4.56 
 -22  26  -3   -4.35    2.98 
 -26   4   3   -2.34    4.14 
 -22  29  -3   -1.77    3.13 
 -22  29  -3    3.42    4.46 
 -29   7   3   -0.30    3.94 
  28 -23  -3    4.47    3.38 
 -23  -5  -3   -1.35    3.91 
 -28  23   3    1.17    4.59 
 -28  23   3   -6.25    3.62 
 -23  -2  -3    5.47    4.04 
  25 -23  -3    2.16    3.22 
 -25  23   3    5.43    4.11 
 -25  23   3    2.31    4.04 
  22 -23  -3    2.01    2.98 
 -23   1  -3    6.92    3.78 
 -22  23   3   -2.20    4.33 
 -22  23   3    6.51    3.74 
  19 -23  -3    5.45    2.75 
  19 -23  -3    4.77    6.05 
 -23   4  -3   -0.91    3.89 
 -23   4  -3   -2.55    3.77 
 -19  23   3    0.53    4.11 
  23  -4   3    4.32    2.49 
 -19  23   3    1.00    3.80 
 -19  23   3    5.85    3.33 
  16 -23  -3   10.51    2.81 
 -23   7  -3   21.07    4.12 
 -23   7  -3   14.94    4.30 
 -16  23   3    9.55    3.31 
 -16  23   3    9.25    3.64 
  23  -7   3   14.18    3.26 
 -16  23   3    5.62    4.17 
 -23  10  -3    7.45    4.17 
 -23  10  -3    7.62    3.40 
  23 -10   3    7.68    3.20 
 -13  23   3    9.28    3.51 
 -13  23   3    8.83    3.07 
 -13  23   3    6.12    3.84 
  23 -10   3    2.37    4.46 
 -23  13  -3   20.84    4.59 
  23 -13   3    5.90    4.96 
  23 -13   3   13.10    3.15 
 -10  23   3   12.66    3.20 
 -23  16  -3    3.50    2.45 
  16   7  -3    4.96    3.54 
 -23  16  -3    3.29    4.31 
  23 -16   3   12.44    5.37 
  23 -16   3   12.65    3.45 
  -7  23   3    6.08    2.93 
  19   4  -3    5.98    4.21 
 -23  19  -3    4.82    4.27 
 -23  19  -3   -1.60    2.93 
  23 -19   3    3.43    5.64 
  23 -19   3   -3.09    3.13 
  -4  23   3   -1.19    2.80 
 -19  -4   3    0.03    3.50 
 -23  22  -3    4.87    3.07 
 -23  22  -3    4.33    4.45 
  -1  23   3    0.09    2.89 
 -22  -1   3    2.27    4.26 
  23 -22   3    0.07    3.27 
 -23  25  -3    4.90    3.44 
 -23  25  -3    8.45    4.76 
   2  23   3    6.94    3.23 
 -25   2   3    5.04    4.21 
  23 -25   3    1.22    3.07 
 -23  28  -3   -3.92    4.37 
 -23  28  -3    4.33    3.49 
 -28   5   3    1.21    4.44 
  27 -24  -3    4.87    3.39 
 -24  -3  -3   -1.41    3.84 
 -27  24   3   -1.74    4.52 
 -27  24   3    7.50    4.30 
  24 -24  -3    4.10    3.24 
 -24   0  -3   14.67    4.11 
 -24  24   3   14.98    4.30 
 -24  24   3    5.86    4.42 
 -24   3  -3    1.52    4.07 
  21 -24  -3    2.06    2.60 
 -24   3  -3    5.39    4.07 
 -21  24   3   -1.45    3.82 
 -21  24   3    6.83    3.23 
 -21  24   3    2.33    3.41 
  18 -24  -3   -2.46    2.49 
 -24   6  -3   -1.77    3.45 
 -24   6  -3   -1.65    3.95 
  24  -6   3    4.46    2.81 
 -18  24   3    3.60    3.13 
 -18  24   3    4.29    3.30 
 -18  24   3   -1.44    4.04 
 -24   9  -3    5.17    4.11 
 -24   9  -3    4.11    3.86 
 -15  24   3    5.59    3.40 
 -15  24   3    5.01    3.82 
  24  -9   3    5.11    3.08 
 -15  24   3    1.79    3.00 
 -24  12  -3    9.83    3.85 
  24 -12   3    7.62    2.86 
 -12  24   3    2.86    2.63 
  24 -12   3    0.44    4.42 
 -24  15  -3    1.27    2.57 
 -24  15  -3    7.05    4.20 
  24 -15   3  -11.31    4.17 
  -9  24   3    1.03    2.85 
  24 -15   3    0.41    3.09 
 -24  18  -3   -1.35    2.88 
 -24  18  -3   -2.06    4.10 
  24 -18   3   -6.07    3.19 
  -6  24   3    2.59    2.83 
 -24  21  -3   -4.62    3.26 
 -24  21  -3    6.32    4.50 
  -3  24   3    5.82    2.76 
 -21  -3   3   14.87    4.01 
  24 -21   3   10.77    3.29 
 -24  24  -3   10.32    3.29 
 -24  24  -3    3.91    4.59 
   0  24   3    6.91    3.14 
 -24   0   3   11.74    4.49 
  24 -24   3    8.83    3.34 
 -24  27  -3    8.50    4.57 
 -24  27  -3   -1.52    3.00 
 -27   3   3    7.29    4.28 
 -25  -1  -3   -2.97    4.04 
  26 -25  -3    1.78    2.84 
 -25  -1  -3    3.14    3.79 
 -26  25   3    1.91    4.65 
 -26  25   3   11.43    4.02 
 -25   2  -3    1.43    3.76 
 -25   2  -3   -2.56    4.06 
  23 -25  -3    4.96    3.07 
 -23  25   3    2.89    3.44 
 -23  25   3    0.21    4.41 
 -25   5  -3   -3.71    3.69 
  20 -25  -3   -1.35    2.60 
 -25   5  -3    1.22    4.14 
 -20  25   3    1.50    3.28 
  25  -5   3   -2.91    2.80 
 -20  25   3    0.86    3.33 
 -20  25   3   -6.59    3.71 
 -25   8  -3    3.20    4.03 
 -25   8  -3   -3.02    3.96 
  17 -25  -3   -0.57    2.30 
 -17  25   3    4.91    3.05 
  25  -8   3    3.33    3.02 
 -17  25   3    1.05    3.36 
 -17  25   3   -0.51    3.68 
 -25  11  -3    1.33    4.05 
 -25  11  -3   -8.27    4.01 
 -14  25   3   -0.52    3.72 
 -14  25   3   -2.07    2.84 
 -14  25   3    3.24    3.72 
  25 -11   3   -6.27    2.98 
 -25  14  -3    0.18    4.20 
  25 -14   3   -2.90    2.76 
  25 -14   3   -1.70    4.58 
 -11  25   3    2.16    2.95 
 -25  17  -3   -1.10    2.63 
 -25  17  -3    2.82    4.38 
  -8  25   3    2.43    2.89 
  25 -17   3    4.48    3.05 
 -25  20  -3    3.64    3.08 
 -25  20  -3    6.84    4.53 
  25 -20   3    0.23    3.42 
 -20  -5   3   -2.69    3.82 
  -5  25   3    1.91    2.76 
 -25  23  -3   -2.07    4.30 
 -25  23  -3    3.11    3.06 
 -23  -2   3    8.17    4.00 
  25 -23   3    5.45    3.47 
  -2  25   3    5.76    3.07 
 -25  26  -3    0.32    3.37 
 -25  26  -3   -5.96    4.27 
  25 -26   3   -4.24    3.04 
   1  25   3   -1.65    3.04 
 -26   1   3    8.56    4.48 
 -26   1  -3    1.98    4.05 
 -26   1  -3    8.14    3.99 
  25 -26  -3   -2.04    2.71 
 -25  26   3    6.28    3.74 
 -25  26   3    0.86    4.53 
 -26   4  -3   -0.17    4.24 
 -26   4  -3    7.71    4.22 
  22 -26  -3   -3.54    2.70 
 -22  26   3    3.10    3.26 
 -22  26   3    0.36    3.96 
 -22  26   3    1.59    3.76 
 -26   7  -3   -1.89    4.00 
  19 -26  -3   -1.80    2.49 
 -26   7  -3   -1.04    4.11 
 -19  26   3    2.30    3.06 
 -19  26   3    1.53    3.37 
 -19  26   3   -1.35    3.74 
  26  -7   3    3.57    3.13 
 -26  10  -3   10.60    4.34 
 -26  10  -3    3.00    4.18 
 -16  26   3    6.99    4.03 
 -16  26   3    4.30    3.09 
  26 -10   3    7.46    3.39 
 -16  26   3   10.18    3.87 
 -26  13  -3    4.66    3.99 
 -26  13  -3    2.27    4.26 
 -13  26   3    5.13    3.08 
  26 -13   3    9.86    3.18 
 -26  16  -3    5.79    4.45 
  26 -16   3    1.45    3.35 
 -10  26   3    3.15    2.95 
 -26  19  -3    7.65    4.47 
 -26  19  -3    0.06    3.02 
  26 -19   3    1.27    3.06 
  -7  26   3    2.58    2.95 
 -26  22  -3   -0.28    4.36 
 -26  22  -3    3.13    3.21 
  26 -22   3   -0.97    2.91 
  -4  26   3   -5.44    2.79 
 -22  -4   3    0.51    4.15 
 -26  25  -3    8.28    4.73 
 -26  25  -3    5.53    3.38 
 -25  -1   3    4.72    4.40 
  26 -25   3    1.25    3.29 
  -1  26   3    1.78    2.95 
 -27   3  -3    3.09    3.90 
  24 -27  -3    3.29    2.96 
 -27   3  -3   -1.29    3.84 
 -24  27   3   15.34    4.70 
 -24  27   3    4.11    3.79 
 -27   6  -3    2.55    4.13 
  21 -27  -3    2.41    2.67 
 -27   6  -3    6.75    4.06 
 -21  27   3   -2.47    3.25 
 -21  27   3   -0.55    3.78 
  27  -6   3   -2.23    2.75 
 -21  27   3    0.44    3.65 
 -27   9  -3   -0.22    4.02 
 -27   9  -3    2.65    3.84 
 -18  27   3    2.23    2.97 
 -18  27   3   -3.87    3.53 
  27  -9   3   -2.61    2.70 
 -18  27   3   -0.88    4.21 
 -27  12  -3    9.18    4.49 
 -27  12  -3   10.89    4.28 
 -15  27   3    9.13    3.29 
  27 -12   3    5.91    3.42 
 -27  15  -3    2.77    4.56 
  27 -15   3    6.41    3.21 
 -12  27   3    6.51    2.89 
 -27  18  -3    2.63    4.56 
  -9  27   3    3.66    3.04 
  27 -18   3    2.86    3.44 
 -27  21  -3   -1.55    4.29 
 -27  21  -3    1.35    2.71 
  27 -21   3   -0.34    2.94 
 -21  -6   3   -6.02    3.95 
  -6  27   3    0.59    2.87 
 -27  24  -3    9.63    3.33 
 -27  24  -3   15.54    4.81 
  27 -24   3    3.05    3.50 
 -24  -3   3    9.58    4.44 
  -3  27   3    9.40    3.13 
 -28   5  -3    2.25    3.94 
 -28   5  -3   -2.81    4.20 
  23 -28  -3    2.54    2.68 
 -23  28   3    3.53    4.23 
 -23  28   3   -2.60    3.42 
 -23  28   3    0.64    3.02 
 -28   8  -3    1.46    4.11 
 -28   8  -3   -3.94    4.03 
 -20  28   3   -4.63    3.52 
 -20  28   3   -4.13    4.12 
  28  -8   3   -1.44    2.77 
 -20  28   3    2.76    3.12 
 -28  11  -3    0.10    4.43 
 -28  11  -3    5.49    4.39 
 -17  28   3   -2.79    2.96 
 -17  28   3   -3.53    4.28 
  28 -11   3    1.73    3.27 
 -28  14  -3    4.16    4.58 
 -28  14  -3    0.67    4.48 
 -14  28   3    2.93    2.85 
  28 -14   3   -3.08    2.91 
 -28  17  -3   -2.83    4.07 
 -11  28   3   -0.03    2.83 
  28 -17   3   -1.77    2.89 
 -28  20  -3   -2.86    4.42 
  -8  28   3    0.92    2.89 
  28 -20   3    4.90    3.37 
 -28  23  -3    1.44    2.96 
 -28  23  -3    7.40    4.70 
  -5  28   3    1.82    2.98 
  28 -23   3    4.19    3.07 
 -23  -5   3    3.40    3.85 
 -29   7  -3    3.54    4.04 
 -29   7  -3   -5.62    4.08 
 -22  29   3    3.49    3.37 
 -22  29   3   -5.21    2.98 
 -22  29   3    3.55    3.90 
 -29  10  -3   -7.41    4.40 
 -29  10  -3    7.20    4.41 
 -19  29   3   -1.48    3.90 
  29 -10   3   -2.68    2.97 
 -19  29   3   -0.75    3.02 
 -29  13  -3   -0.38    4.23 
 -29  13  -3    1.34    4.45 
 -16  29   3    6.22    3.08 
  29 -13   3    2.86    3.31 
 -29  16  -3   12.34    4.55 
  29 -16   3   -0.30    3.21 
 -13  29   3    0.64    2.92 
 -29  19  -3    2.99    4.68 
  29 -19   3   -2.46    3.18 
 -10  29   3   -0.95    2.89 
 -29  22  -3   -2.58    4.62 
  29 -22   3   -4.04    3.05 
  -7  29   3    2.50    2.87 
 -30  12  -3   -5.00    4.15 
 -30  12  -3    1.28    4.54 
 -18  30   3   -0.16    3.06 
  30 -12   3    1.34    2.99 
 -30  15  -3    9.69    4.96 
 -30  15  -3    1.33    4.53 
 -15  30   3    8.63    3.13 
  30 -15   3   10.54    3.13 
 -30  18  -3    0.54    4.49 
  30 -18   3    0.36    3.23 
 -12  30   3    3.67    2.97 
  -1   0  -4    9.35    2.30 
   0   1  -4   10.01    4.77 
   1  -1  -4   17.24    4.71 
   1  -1  -4    7.46    2.25 
  -1   0  -4   15.99    4.90 
   0   1  -4   12.63    2.61 
  -1   1   4    8.86    2.80 
   0  -1   4   10.48    3.50 
   0  -1   4   10.73    2.62 
   1   0   4   13.19    3.67 
   1   0   4   11.53    4.98 
  -1   1   4    8.37    4.90 
  -1   1   4    8.86    3.47 
   0  -1   4   15.75    4.92 
  -1   3  -4    5.11    2.07 
   3  -2  -4    4.96    2.27 
  -1   3  -4    8.33    4.57 
   3  -2  -4    3.31    4.37 
  -2  -1  -4   -1.40    2.12 
  -2  -1  -4   -3.00    4.33 
  -3   2   4    1.96    4.67 
   2   1   4    0.07    3.20 
   2   1   4    1.75    4.54 
   1  -3   4    2.43    4.22 
  -3   2   4    6.75    2.70 
   1  -3   4   -1.20    2.99 
  -3   2   4    3.37    2.30 
  -2   2  -4   26.64    5.50 
   2   0  -4   22.84    5.23 
  -2   2  -4   27.62    3.38 
   0  -2  -4   21.83    3.30 
  -2   0   4   32.43    3.64 
  -2   0   4   32.04    4.63 
  -2   0   4   26.93    5.68 
   0   2   4   28.01    3.59 
   2  -2   4   27.54    5.41 
   0   2   4   33.69    4.58 
   0   2   4   29.60    5.95 
   2  -2   4   30.78    4.43 
  -3  -2  -4    9.11    2.47 
   5  -3  -4   12.08    2.58 
  -2   5  -4   11.85    2.29 
   5  -3  -4   12.63    2.34 
  -2   5  -4   13.37    4.64 
   5  -3  -4    7.02    4.39 
  -5   3   4   13.11    2.99 
   2  -5   4   11.14    3.43 
  -5   3   4   14.79    2.60 
  -5   3   4   19.75    5.25 
   3   2   4   13.62    3.36 
   3   2   4    5.62    4.54 
   3   2   4   14.71    2.89 
   2  -5   4   14.15    4.47 
  -3   1  -4    3.40    4.46 
  -3   1  -4    3.66    2.17 
   1   2  -4    2.84    4.20 
   2  -3  -4    1.49    2.07 
  -2   3   4    1.60    2.55 
  -1  -2   4    3.16    2.34 
  -2   3   4   -0.66    4.41 
  -1  -2   4   -1.37    4.22 
   3  -1   4    6.26    3.26 
   3  -1   4   -0.45    4.43 
  -2   3   4    7.01    2.41 
  -1  -2   4    5.55    3.24 
  -3   4  -4   23.07    5.23 
  -3   4  -4   25.37    3.12 
   4  -1  -4   18.51    4.97 
  -1  -3  -4   20.25    3.10 
   1   3   4   20.68    3.88 
   3  -4   4   26.42    4.09 
   1   3   4   19.66    3.04 
  -4   1   4   21.70    2.98 
   3  -4   4   25.00    4.96 
  -4   1   4   15.41    2.93 
  -4   1   4   15.71    5.10 
   1   3   4   17.89    5.32 
  -4  -3  -4   31.71    3.66 
  -3   7  -4   25.37    5.26 
   7  -4  -4   33.77    3.68 
  -3   7  -4   32.76    3.75 
   7  -4  -4   28.03    5.26 
  -7   4   4   32.22    3.81 
   4   3   4   28.35    6.27 
  -7   4   4   31.01    3.75 
   3  -7   4   30.09    4.56 
   4   3   4   33.88    4.52 
   3  -7   4   33.24    5.66 
  -7   4   4   25.52    6.26 
  -4   0  -4   33.64    4.17 
  -4   0  -4   38.59    6.44 
   4  -4  -4   40.06    4.23 
   0   4  -4   42.61    6.08 
   4   0   4   40.08    5.29 
  -4   4   4   38.36    6.45 
   4   0   4   37.73    4.17 
   0  -4   4   38.29    5.00 
   0  -4   4   46.49    6.28 
  -4   4   4   40.89    4.29 
  -4   4   4   49.48    4.64 
   4   0   4   37.80    6.21 
   3   1  -4   20.74    4.84 
   1  -4  -4   21.48    2.96 
  -4   3  -4   19.72    5.20 
  -4   3  -4   19.88    2.94 
   4  -3   4   29.19    5.13 
  -3  -1   4   17.83    5.23 
  -3  -1   4   18.94    3.67 
  -3  -1   4   19.05    2.87 
  -1   4   4   22.30    3.10 
   4  -3   4   20.63    4.12 
  -1   4   4   17.31    5.85 
  -1   4   4   21.97    3.27 
   6  -2  -4    4.36    2.24 
  -4   6  -4    2.20    4.32 
   6  -2  -4    1.72    3.93 
  -2  -4  -4   -0.14    2.15 
  -4   6  -4    4.10    2.11 
   2   4   4    7.57    2.74 
   4  -6   4    3.17    3.25 
   4  -6   4    6.12    3.81 
  -6   2   4    7.90    4.66 
  -6   2   4    3.11    2.34 
  -6   2   4    8.43    2.47 
   2   4   4    4.32    4.49 
   2   4   4    2.94    2.99 
  -4   9  -4   -0.71    3.95 
   9  -5  -4    4.94    3.67 
   9  -5  -4   -2.71    1.95 
  -4   9  -4   -3.72    2.02 
  -5  -4  -4    3.55    2.19 
   5   4   4   -7.94    4.05 
  -9   5   4    2.83    2.55 
  -9   5   4    1.26    2.35 
  -9   5   4    3.53    4.53 
  -9   5   4    2.98    2.43 
   5   4   4   -1.78    3.07 
   4  -9   4    1.45    2.81 
  -5  -1  -4    9.07    2.36 
  -1   6  -4    8.31    4.24 
  -1   6  -4    7.16    2.28 
   6  -5  -4    9.93    2.19 
  -6   5   4    5.59    2.47 
   5   1   4    6.08    3.05 
   1  -6   4    7.16    3.17 
   1  -6   4   13.26    4.24 
  -6   5   4    7.72    2.72 
  -6   5   4   13.14    4.98 
   5   1   4   12.97    4.70 
  -5   2  -4    8.00    4.75 
  -5   2  -4   14.00    2.69 
   2   3  -4    9.75    4.39 
  -3   5   4    8.28    2.73 
   5  -2   4   13.82    4.97 
  -2  -3   4    9.75    2.24 
   5  -2   4   12.33    3.61 
  -3   5   4   12.46    5.41 
  -2  -3   4    8.84    3.23 
  -3   5   4   10.12    2.57 
  -2  -3   4   12.49    4.71 
   0  -5  -4    9.89    2.35 
  -5   5  -4   11.87    4.67 
   5   0  -4   13.37    4.33 
  -5   5  -4    5.82    2.45 
   0   5   4   10.35    3.59 
   0   5   4   13.74    4.88 
  -5   0   4    4.47    2.28 
   0   5   4    8.15    2.78 
  -5   0   4    3.13    5.02 
   5  -5   4    5.08    3.38 
   5  -5   4   10.02    4.62 
  -5   0   4    4.53    2.36 
  -5   8  -4    0.84    2.12 
   8  -3  -4    2.87    2.21 
  -5   8  -4    0.57    4.06 
  -3  -5  -4    2.70    2.43 
   8  -3  -4   -2.23    3.55 
  -8   3   4    2.11    4.44 
   5  -8   4    3.10    2.68 
  -8   3   4    0.10    2.37 
   3   5   4   -0.35    4.23 
   3   5   4    0.26    3.19 
  -8   3   4    1.94    2.57 
  -8   3   4    3.17    2.37 
   5  -8   4    4.13    3.90 
  -5  11  -4    7.05    4.34 
  11  -6  -4   13.94    2.79 
  -6  -5  -4   12.07    2.58 
  -5  11  -4   13.03    2.55 
   6   5   4   10.93    4.77 
 -11   6   4   17.85    3.07 
 -11   6   4   10.29    3.02 
   6   5   4    7.85    3.49 
 -11   6   4   13.99    2.84 
 -11   6   4   11.49    4.79 
  -2   8  -4   21.73    3.02 
  -6  -2  -4   28.53    3.24 
  -2   8  -4   24.32    5.03 
   8  -6  -4   24.47    3.29 
   6   2   4   21.97    5.43 
  -8   6   4   21.56    3.37 
   2  -8   4   31.53    4.90 
  -8   6   4   22.91    5.46 
  -8   6   4   21.81    3.65 
   6   2   4   33.40    4.36 
  -8   6   4   21.03    3.54 
   2  -8   4   24.99    4.02 
  -6   1  -4    5.89    2.28 
   1   5  -4   15.05    4.22 
  -6   1  -4    6.95    4.67 
   5  -6  -4    7.53    2.37 
  -1  -5   4    5.79    4.22 
   6  -1   4   10.81    3.69 
  -5   6   4   13.20    2.82 
  -5   6   4   12.12    2.59 
  -5   6   4    3.23    2.84 
  -5   6   4   -0.91    4.61 
   6  -1   4    2.82    4.63 
  -1  -5   4    4.90    2.96 
  -6   4  -4    5.58    2.13 
  -6   4  -4    4.05    4.45 
   4   2  -4   -0.02    4.31 
  -2   6   4    4.99    2.49 
  -2   6   4    5.81    2.67 
  -4  -2   4    8.30    3.22 
  -4  -2   4    8.35    4.39 
   6  -4   4    7.51    3.53 
  -4  -2   4    4.14    2.34 
   6  -4   4    1.50    4.36 
  -4  -2   4    1.54    2.45 
  -2   6   4    3.40    4.76 
   7  -1  -4    4.66    3.88 
  -6   7  -4    4.34    2.23 
   7  -1  -4    5.80    1.94 
  -6   7  -4    1.78    4.17 
   1   6   4    2.99    2.51 
  -7   1   4    0.08    2.13 
   1   6   4    1.27    2.95 
   1   6   4   -2.95    4.32 
   6  -7   4   -0.22    3.08 
  -7   1   4    0.47    4.30 
   6  -7   4    9.54    4.13 
  -7   1   4    2.37    2.36 
  -6  10  -4   11.14    4.32 
  -4  -6  -4    9.38    2.68 
  -6  10  -4    9.97    2.50 
  10  -4  -4    9.93    2.55 
 -10   4   4    8.04    5.07 
   4   6   4    9.33    4.96 
   6 -10   4    6.73    3.16 
 -10   4   4   12.55    3.05 
 -10   4   4    6.68    3.05 
   4   6   4   10.47    3.44 
  -6  13  -4    8.07    4.50 
  -7  -6  -4   17.29    2.73 
  -6  13  -4   14.14    2.77 
  13  -7  -4   16.80    2.88 
 -13   7   4   12.62    3.13 
   6 -13   4   14.78    4.47 
   7   6   4   17.24    4.88 
   7   6   4   22.30    3.67 
 -13   7   4    7.37    4.76 
 -13   7   4   17.18    3.25 
  10  -7  -4   49.93    4.72 
  -7  -3  -4   40.52    4.50 
  -3  10  -4   41.99    4.59 
  10  -7  -4   44.44    6.15 
  -3  10  -4   47.15    6.34 
   7   3   4   37.19    5.53 
   7   3   4   38.44    6.50 
 -10   7   4   42.52    4.68 
 -10   7   4   53.92    4.87 
 -10   7   4   44.88    4.90 
 -10   7   4   37.27    6.51 
   0   7  -4   57.25    5.93 
   7  -7  -4   62.87    6.06 
  -7   0  -4   64.15    6.11 
   0   7  -4   59.71    7.50 
  -7   0  -4   60.71    8.14 
   0  -7   4   70.68    7.61 
   7   0   4   66.35    6.94 
  -7   7   4   54.31    6.17 
  -7   7   4   78.44    8.13 
   7   0   4   71.41    8.20 
  -7   7   4   70.64    6.33 
  -7   7   4   55.84    6.31 
  -7   3  -4   25.26    5.48 
   4  -7  -4   31.01    3.43 
  -7   3  -4   27.53    3.48 
   3   4  -4   27.08    5.14 
  -4   7   4   34.27    6.08 
   7  -3   4   27.88    5.51 
  -4   7   4   32.32    3.77 
  -4   7   4   26.91    3.84 
  -4   7   4   33.53    3.86 
  -3  -4   4   28.59    5.55 
   7  -3   4   30.31    4.68 
  -3  -4   4   25.83    4.16 
  -7   6  -4    5.93    2.17 
   6   1  -4    1.80    3.75 
  -7   6  -4    4.93    4.23 
  -6  -1   4    0.72    2.14 
  -6  -1   4    3.13    4.23 
   7  -6   4    8.21    4.14 
  -1   7   4    1.61    4.46 
   7  -6   4    5.93    3.35 
  -1   7   4    2.47    2.46 
  -1   7   4   -2.87    2.58 
  -6  -1   4    4.47    2.31 
   9  -2  -4    1.00    3.76 
  -7   9  -4    7.40    2.41 
  -7   9  -4    8.49    4.34 
   9  -2  -4    7.15    2.19 
  -9   2   4    5.51    2.83 
   7  -9   4   14.72    3.44 
   2   7   4    2.22    3.26 
   2   7   4    6.41    4.68 
  -9   2   4   -0.75    4.33 
  -7  12  -4    1.77    4.15 
  -5  -7  -4    4.44    2.21 
  -7  12  -4   -0.29    2.29 
  12  -5  -4    6.20    2.21 
   7 -12   4    7.13    4.03 
   5   7   4    4.65    4.48 
 -12   5   4    4.93    4.42 
   5   7   4    0.79    2.65 
 -12   5   4    2.58    2.59 
 -12   5   4    4.22    2.74 
  -7  15  -4   -0.80    4.32 
  15  -8  -4    4.99    2.56 
  -7  15  -4    2.53    2.59 
  -8  -7  -4    3.58    2.39 
   8   7   4   -2.92    4.66 
   8   7   4    3.02    2.77 
   7 -15   4    6.81    3.75 
 -15   8   4   -2.48    2.92 
 -15   8   4    1.45    4.36 
 -15   8   4    9.38    3.02 
  12  -8  -4    3.82    2.44 
  -8  -4  -4    1.46    2.19 
  -4  12  -4    5.87    4.12 
  -4  12  -4    1.41    2.17 
 -12   8   4    2.91    4.51 
 -12   8   4    8.84    2.74 
   8   4   4    4.39    4.25 
 -12   8   4    6.74    2.90 
   8   4   4    3.82    3.30 
 -12   8   4    1.61    2.53 
   8   4   4    0.87    2.87 
   9  -8  -4   10.59    2.49 
  -8  -1  -4    9.85    2.65 
  -1   9  -4    9.10    4.55 
  -1   9  -4   16.01    2.59 
   8   1   4   15.67    4.80 
  -9   8   4   17.36    3.25 
   8   1   4   16.29    3.50 
  -9   8   4   13.57    2.77 
   1  -9   4   18.94    4.66 
  -9   8   4   12.29    3.06 
  -9   8   4   11.44    4.87 
   2   6  -4   27.93    5.01 
   6  -8  -4   27.44    3.22 
  -8   2  -4   32.12    5.63 
  -8   2  -4   25.74    3.30 
  -6   8   4   26.56    5.67 
   8  -2   4   23.84    4.36 
  -6   8   4   23.19    3.53 
  -6   8   4   24.67    3.76 
   8  -2   4   23.29    5.41 
  -2  -6   4   24.28    5.13 
  -6   8   4   25.65    3.38 
   8  -2   4   24.86    4.48 
  -8   5  -4    0.68    2.09 
   5   3  -4    0.91    3.60 
  -8   5  -4   -5.03    4.06 
  -5  -3   4    1.91    2.85 
  -3   8   4   -0.17    4.66 
   8  -5   4    0.48    3.97 
  -3   8   4    0.82    2.59 
  -5  -3   4    1.40    4.65 
  -5  -3   4   -0.96    2.32 
  -5  -3   4    1.36    2.20 
   8  -5   4    1.22    2.78 
   8  -5   4    2.73    3.50 
  -3   8   4    1.89    2.67 
  -3   8   4    4.86    2.49 
  -3   8   4    0.05    2.43 
   8   0  -4    0.11    1.75 
  -8   8  -4   -4.28    2.12 
   8   0  -4   -0.99    3.69 
  -8   8  -4   -1.35    3.90 
   0   8   4   -1.07    2.76 
   0   8   4   -1.14    2.37 
   8  -8   4    1.84    3.19 
   0   8   4   -1.01    4.49 
  -8   0   4    1.85    2.27 
  -8   0   4    1.18    4.26 
   8  -8   4   -1.30    3.59 
  -8  11  -4   -4.10    2.27 
  -8  11  -4   -5.25    3.83 
  11  -3  -4    1.63    2.15 
   3   8   4   -7.96    4.24 
 -11   3   4   -0.97    2.48 
 -11   3   4   -2.72    2.58 
 -11   3   4   -4.26    4.24 
   8 -11   4    0.13    2.95 
   3   8   4    5.82    3.10 
   8 -11   4    3.84    3.35 
  -8  14  -4   -1.09    2.36 
  14  -6  -4    3.50    2.38 
  -8  14  -4   -0.76    4.48 
  -6  -8  -4    5.06    2.41 
   6   8   4   -3.47    4.21 
 -14   6   4    0.16    2.72 
   8 -14   4    2.59    3.65 
 -14   6   4   -4.33    2.81 
   6   8   4    0.36    2.64 
 -14   6   4   -2.25    4.03 
  17  -9  -4    4.56    2.38 
  -8  17  -4    5.28    2.47 
  -9  -8  -4    4.58    2.32 
  -8  17  -4    1.45    5.02 
 -17   9   4    5.63    3.21 
 -17   9   4    4.22    3.06 
   9   8   4    5.05    4.58 
 -17   9   4   10.27    4.65 
   8 -17   4    4.22    3.43 
  -9  -5  -4    4.28    2.18 
  -5  14  -4    0.63    2.19 
  14  -9  -4    2.64    2.33 
  -5  14  -4    6.78    4.33 
   9   5   4    2.76    2.78 
 -14   9   4    4.37    2.60 
 -14   9   4    5.14    3.03 
   5 -14   4    4.81    3.50 
 -14   9   4    2.68    4.37 
   9   5   4    2.38    4.36 
 -14   9   4    7.31    2.81 
  -9  -2  -4   28.74    3.26 
  11  -9  -4   19.71    3.09 
  -2  11  -4   27.46    5.28 
  -2  11  -4   25.04    3.22 
   9   2   4   15.28    5.28 
   9   2   4   22.77    4.33 
 -11   9   4   24.44    3.45 
   9   2   4   20.39    3.64 
 -11   9   4   26.85    3.61 
 -11   9   4   17.29    5.22 
 -11   9   4   20.64    3.30 
  -9   1  -4   14.73    4.81 
  -9   1  -4   14.85    2.67 
   1   8  -4   10.05    4.34 
   8  -9  -4   17.13    2.74 
  -8   9   4   11.88    2.96 
  -8   9   4   13.54    3.70 
  -8   9   4    7.24    4.82 
  -1  -8   4    9.78    4.20 
   9  -1   4   14.72    3.54 
   9  -1   4   14.87    3.42 
  -8   9   4   12.40    2.76 
   9  -1   4    9.33    4.38 
   4   5  -4    0.71    3.55 
  -9   4  -4    3.18    2.42 
   5  -9  -4    2.22    1.98 
  -9   4  -4   -1.49    4.30 
  -4  -5   4   -0.14    2.25 
   9  -4   4    3.98    3.34 
  -5   9   4    3.26    2.95 
  -5   9   4    0.71    4.69 
   9  -4   4   -2.32    3.96 
  -5   9   4   -0.95    2.35 
  -5   9   4    5.72    2.74 
   9  -4   4    4.65    3.24 
  -4  -5   4    0.56    3.99 
   7   2  -4   -1.30    3.73 
  -9   7  -4    6.13    2.38 
  -9   7  -4    2.36    4.26 
   9  -7   4    1.22    3.14 
  -2   9   4    2.27    4.62 
  -2   9   4   -0.34    2.79 
  -7  -2   4    1.99    2.08 
  -7  -2   4    4.16    4.48 
   9  -7   4    1.05    2.89 
  -2   9   4   -1.53    2.73 
  -2   9   4    0.99    2.44 
  -9  10  -4    4.52    2.35 
  -9  10  -4    1.44    3.93 
  10  -1  -4    3.61    2.04 
 -10   1   4    0.35    2.50 
   9 -10   4    1.16    3.60 
   9 -10   4    2.17    3.11 
   1   9   4    5.44    5.20 
 -10   1   4   -3.24    4.37 
   1   9   4    0.07    3.12 
  -4  -9  -4    1.17    2.25 
  13  -4  -4    2.65    2.31 
  -9  13  -4    5.52    4.01 
  -9  13  -4    6.54    2.54 
   9 -13   4    9.13    2.36 
   9 -13   4    2.54    3.63 
 -13   4   4    7.26    2.83 
 -13   4   4    2.09    4.28 
   4   9   4    2.30    2.96 
 -13   4   4    9.78    2.90 
   4   9   4   -1.70    4.28 
  -9  16  -4    4.24    2.77 
  16  -7  -4    1.52    2.42 
  -9  16  -4    1.92    4.92 
  -7  -9  -4    3.08    2.32 
   7   9   4    3.38    4.56 
   9 -16   4    4.19    3.70 
 -16   7   4    2.17    4.36 
 -16   7   4    1.80    2.95 
 -16   7   4    0.91    2.83 
  -9  19  -4    2.50    4.60 
  -9  19  -4   -3.41    2.43 
  19 -10  -4    7.06    2.78 
  10   9   4    1.92    4.46 
 -19  10   4    7.08    3.27 
 -19  10   4    4.97    3.65 
   9 -19   4    1.92    3.84 
 -19  10   4   -1.42    4.64 
 -10  -6  -4    1.09    2.05 
  -6  16  -4    1.23    4.45 
  16 -10  -4    3.70    2.63 
  -6  16  -4   -2.74    2.15 
 -16  10   4   -0.84    2.89 
 -16  10   4    0.82    4.31 
   6 -16   4   -1.10    3.49 
 -16  10   4    3.57    2.94 
 -16  10   4    1.51    2.57 
  10   6   4    0.88    4.35 
  -3  13  -4   29.19    3.70 
  -3  13  -4   36.43    6.18 
  13 -10  -4   35.22    3.93 
 -10  -3  -4   34.55    3.81 
  10   3   4   36.50    4.97 
 -13  10   4   36.01    4.16 
 -13  10   4   34.88    4.02 
 -13  10   4   34.04    4.35 
  10   3   4   37.70    5.03 
  10   3   4   31.28    5.88 
 -13  10   4   19.02    5.71 
   0  10  -4   92.01    8.75 
 -10   0  -4   77.38    7.26 
  10 -10  -4   67.72    7.28 
 -10   0  -4   91.64    8.95 
  10   0   4   84.79    9.30 
 -10  10   4   82.18    7.60 
 -10  10   4   83.27    7.64 
 -10  10   4   71.96    9.44 
   0 -10   4   85.63    8.81 
  10   0   4   88.79    8.15 
 -10  10   4   77.85    7.73 
 -10   3  -4   47.45    4.55 
   3   7  -4   33.98    5.89 
   7 -10  -4   46.36    4.63 
 -10   3  -4   33.11    6.18 
  -7  10   4   52.88    5.27 
  10  -3   4   49.98    5.75 
  -7  10   4   43.18    4.63 
  -3  -7   4   43.54    6.60 
  -7  10   4   41.79    4.77 
  -7  10   4   41.65    6.62 
  10  -3   4   43.19    5.34 
  10  -3   4   38.51    6.04 
 -10   6  -4    9.07    2.61 
   4 -10  -4    9.64    2.33 
   6   4  -4   11.63    3.86 
 -10   6  -4   12.23    4.46 
  10  -6   4   11.87    3.46 
  -6  -4   4   10.53    4.68 
  -4  10   4   10.23    3.11 
  -4  10   4    9.46    4.93 
  -4  10   4   11.17    2.94 
  10  -6   4   11.21    3.66 
  -4  10   4    8.39    2.60 
  -4  10   4   15.33    2.79 
   9   1  -4    0.93    1.71 
 -10   9  -4    3.83    2.98 
 -10   9  -4    6.08    4.04 
 -10   9  -4    5.07    2.41 
  -9  -1   4    0.61    4.19 
  10  -9   4    5.02    3.73 
  10  -9   4    2.84    2.88 
  -9  -1   4    5.21    2.39 
  -1  10   4    1.95    2.54 
  -1  10   4    3.28    4.55 
  12  -2  -4   -0.07    1.82 
 -10  12  -4    0.67    4.42 
 -10  12  -4   -0.48    2.37 
   2  10   4    2.19    3.04 
 -12   2   4    3.32    3.00 
  10 -12   4    4.25    3.58 
 -12   2   4    1.17    4.34 
  10 -12   4   -0.19    3.01 
 -12   2   4   -2.63    2.88 
  10 -12   4    0.66    2.05 
   2  10   4   -1.31    4.42 
 -10  15  -4    0.78    2.47 
 -10  15  -4   -0.80    4.14 
  -5 -10  -4    1.07    2.10 
  15  -5  -4    1.30    2.02 
  10 -15   4    2.44    2.38 
 -15   5   4   -1.05    2.84 
  10 -15   4    5.49    3.81 
   5  10   4   -0.86    4.32 
 -15   5   4   -0.98    3.27 
   5  10   4   -1.46    2.82 
 -15   5   4    2.07    4.48 
 -10  18  -4   -4.57    3.97 
  -8 -10  -4    0.67    2.24 
  18  -8  -4    2.99    2.58 
 -10  18  -4    1.84    2.74 
 -18   8   4    0.75    3.27 
   8  10   4   -0.17    4.62 
 -18   8   4    1.65    4.84 
 -18   8   4    0.42    3.07 
  10 -18   4    9.93    4.33 
 -10  21  -4    2.96    2.58 
  21 -11  -4    4.27    2.83 
  11  10   4   -1.62    4.68 
 -21  11   4    0.28    3.32 
  10 -21   4    0.20    3.80 
 -21  11   4    3.08    3.21 
 -21  11   4   10.00    5.31 
  18 -11  -4   -2.45    2.63 
  -7  18  -4    1.49    4.58 
  -7  18  -4    0.73    2.46 
   7 -18   4    4.93    3.74 
  11   7   4    2.39    5.04 
 -18  11   4    0.12    3.32 
 -18  11   4    0.19    2.92 
 -18  11   4    1.88    4.29 
 -18  11   4    5.08    3.13 
  15 -11  -4    4.58    2.43 
  -4  15  -4   -2.95    4.20 
 -11  -4  -4    4.49    2.38 
  -4  15  -4    1.27    2.27 
   4 -15   4    4.69    3.75 
 -15  11   4   -1.05    4.21 
  11   4   4    2.23    4.33 
 -15  11   4    4.80    2.90 
 -15  11   4   -0.64    2.99 
 -15  11   4    4.80    2.76 
 -11  -1  -4   17.37    2.94 
  12 -11  -4    9.82    2.60 
  -1  12  -4   12.49    4.79 
 -12  11   4   16.43    3.10 
 -12  11   4   16.15    3.29 
  11   1   4   14.96    3.83 
 -12  11   4   12.61    5.34 
 -12  11   4   11.16    2.93 
  11   1   4   14.11    5.04 
   9 -11  -4   23.80    3.21 
   2   9  -4   15.65    4.73 
 -11   2  -4   19.70    5.15 
 -11   2  -4   19.13    3.11 
  -9  11   4   20.13    5.40 
  -9  11   4   27.07    3.94 
  -9  11   4   31.91    3.66 
  11  -2   4   27.09    4.38 
  11  -2   4   21.17    4.03 
  -9  11   4   25.18    3.32 
  11  -2   4   23.25    5.21 
  -2  -9   4   27.20    5.18 
 -11   5  -4    7.87    4.36 
   5   6  -4    7.85    3.99 
   6 -11  -4   15.59    2.48 
 -11   5  -4    8.65    2.51 
  11  -5   4    6.12    3.91 
  -5  -6   4   10.65    4.43 
  -6  11   4    5.68    5.33 
  11  -5   4    9.42    3.37 
  -6  11   4   12.96    3.00 
  -6  11   4   14.63    3.07 
  11  -5   4   13.21    3.58 
  -6  11   4   10.58    2.61 
  -6  11   4    9.94    3.58 
 -11   8  -4    4.96    2.67 
 -11   8  -4   -0.97    3.23 
 -11   8  -4    3.03    4.39 
  -3  11   4    1.85    3.00 
  11  -8   4    1.67    2.98 
  -3  11   4    0.60    2.46 
  -8  -3   4    6.77    4.96 
  -3  11   4   -2.68    4.45 
  11  -8   4   -3.89    2.65 
  -3  11   4   -1.49    2.53 
  11   0  -4    3.49    1.75 
 -11  11  -4    2.76    3.30 
 -11  11  -4    1.72    3.97 
 -11  11  -4    0.49    2.44 
 -11   0   4    6.12    2.57 
   0  11   4    2.55    2.85 
  11 -11   4    1.18    2.13 
 -11   0   4    4.94    4.40 
  11 -11   4    5.24    3.34 
   0  11   4    2.50    4.78 
   0  11   4    6.55    2.42 
  11 -11   4   -2.39    2.93 
 -11  14  -4   -1.88    2.46 
 -11  14  -4   -5.62    3.55 
  14  -3  -4   -1.85    2.06 
 -14   3   4    7.47    5.17 
 -14   3   4    1.26    3.11 
  11 -14   4   -0.75    3.19 
 -14   3   4    1.66    2.69 
   3  11   4   -0.20    2.81 
  11 -14   4   -3.02    2.21 
  11 -14   4   -0.94    2.90 
   3  11   4   -2.01    4.30 
 -11  17  -4   12.32    3.09 
  -6 -11  -4   10.99    2.32 
  17  -6  -4    8.04    2.58 
 -11  17  -4   -1.36    4.40 
 -17   6   4    0.59    3.08 
   6  11   4    5.95    4.71 
  11 -17   4    2.50    3.54 
 -17   6   4    4.86    3.44 
 -17   6   4    7.87    4.78 
 -11  20  -4    3.19    2.63 
 -11  20  -4    6.57    4.75 
  20  -9  -4    1.70    2.57 
 -20   9   4   -2.90    4.21 
  11 -20   4   -2.13    3.96 
   9  11   4    2.11    5.01 
 -20   9   4   -1.12    3.48 
 -20   9   4    3.82    3.66 
 -11  23  -4   -2.34    2.47 
  23 -12  -4   -3.54    2.49 
 -23  12   4    0.10    3.29 
 -23  12   4    4.62    3.72 
  -8  20  -4   -0.01    4.63 
  -8  20  -4    2.56    2.51 
  20 -12  -4    3.72    2.62 
   8 -20   4    5.22    3.56 
 -20  12   4    2.77    4.91 
 -20  12   4   -1.43    2.64 
  12   8   4    2.56    4.52 
 -20  12   4    0.95    3.04 
 -20  12   4    1.59    3.34 
  17 -12  -4    0.86    2.45 
  -5  17  -4   -0.77    4.38 
  -5  17  -4   -0.04    2.03 
 -17  12   4    1.57    4.64 
   5 -17   4    1.83    3.52 
 -17  12   4   -2.45    3.13 
  12   5   4    5.82    4.31 
 -17  12   4    0.72    3.24 
 -17  12   4    0.60    2.50 
  14 -12  -4    6.35    2.70 
  -2  14  -4    2.79    4.59 
 -12  -2  -4    7.29    2.49 
 -14  12   4    6.63    2.73 
 -14  12   4    8.56    2.60 
 -14  12   4   -0.05    4.67 
 -14  12   4    3.61    3.13 
  12   2   4    4.29    4.32 
 -12   1  -4   15.21    2.69 
 -12   1  -4   19.37    4.90 
   1  11  -4   10.79    4.69 
  11 -12  -4   20.46    2.87 
 -11  12   4   16.44    3.73 
 -11  12   4   19.28    3.10 
 -11  12   4   11.51    2.87 
  12  -1   4   11.98    3.78 
 -11  12   4    8.86    4.73 
  12  -1   4   14.93    4.91 
 -12   4  -4   -1.22    4.05 
   8 -12  -4    5.22    2.41 
 -12   4  -4    4.97    2.35 
   4   8  -4   -0.18    3.54 
  12  -4   4    5.36    3.14 
  -8  12   4   -0.46    2.93 
  -8  12   4    5.13    2.73 
  12  -4   4    6.51    2.97 
  -8  12   4    3.84    2.72 
  12  -4   4    1.37    3.44 
  -8  12   4    8.64    5.13 
  -4  -8   4    2.95    4.14 
   5 -12  -4    5.79    2.13 
   7   5  -4    5.82    4.00 
 -12   7  -4    1.47    4.52 
 -12   7  -4    3.24    2.45 
  12  -7   4    3.48    3.45 
  -7  -5   4    0.18    4.26 
  -5  12   4    2.46    2.51 
  -5  12   4    5.86    3.43 
  12  -7   4   -1.56    2.85 
  -5  12   4    2.88    5.00 
  -5  12   4    1.32    2.45 
 -12  10  -4   -3.23    2.42 
 -12  10  -4    0.73    3.09 
 -12  10  -4   -0.73    3.74 
 -10  -2   4    0.04    2.34 
  12 -10   4    2.65    3.59 
 -10  -2   4    0.77    4.37 
  -2  12   4    0.59    4.61 
  12 -10   4   -1.47    3.05 
  -2  12   4    0.08    2.59 
  12 -10   4    1.82    2.14 
 -12  13  -4    1.35    3.95 
 -12  13  -4   -1.47    2.45 
 -12  13  -4   -4.49    3.09 
 -13   1   4    0.31    2.86 
   1  12   4    4.77    2.80 
   1  12   4    4.29    3.08 
  12 -13   4    4.32    3.43 
 -13   1   4    2.98    4.47 
 -13   1   4   -2.40    2.94 
  12 -13   4   -2.57    3.01 
   1  12   4    4.13    5.13 
  12 -13   4   -0.46    2.06 
 -12  16  -4    4.45    2.69 
 -12  16  -4    0.43    4.75 
  16  -4  -4    0.64    2.14 
   4  12   4    2.11    4.60 
 -16   4   4   -2.76    2.77 
  12 -16   4    2.51    3.51 
 -16   4   4    5.01    3.32 
 -16   4   4    3.95    4.68 
  12 -16   4   -0.89    2.31 
 -12  19  -4    7.54    2.95 
 -12  19  -4    1.37    4.30 
  19  -7  -4    0.13    2.40 
 -19   7   4    2.52    4.99 
   7  12   4    4.59    4.67 
 -19   7   4   -0.60    3.56 
 -19   7   4   -0.37    3.68 
  12 -19   4    1.35    3.96 
  22 -10  -4    0.40    2.65 
 -12  22  -4   -2.89    2.65 
 -22  10   4   -1.80    4.04 
 -22  10   4   -0.83    5.08 
 -22  10   4   -0.49    3.37 
 -12  25  -4    5.59    3.06 
  25 -13  -4    1.19    2.87 
 -25  13   4    0.49    3.49 
 -25  13   4    1.67    4.12 
  22 -13  -4   -0.13    2.91 
  -9  22  -4    3.25    2.74 
   9 -22   4    5.79    4.61 
 -22  13   4    3.40    3.66 
 -22  13   4    1.16    3.86 
 -22  13   4    5.00    3.23 
  -6  19  -4    2.00    2.27 
  -6  19  -4    5.09    4.61 
  19 -13  -4    5.03    2.93 
  13   6   4    2.41    4.54 
 -19  13   4    8.87    3.84 
 -19  13   4    7.70    3.17 
   6 -19   4    5.39    3.76 
 -19  13   4    2.38    2.93 
  -3  16  -4    6.87    4.67 
  16 -13  -4    4.63    2.55 
 -16  13   4    7.48    3.29 
 -16  13   4    9.76    2.93 
 -16  13   4    4.74    2.90 
 -16  13   4    8.21    4.60 
  13   3   4   -1.16    3.89 
   3 -16   4    5.46    3.65 
 -13   0  -4   31.09    5.86 
   0  13  -4   42.48    6.45 
 -13   0  -4   35.23    4.23 
  13 -13  -4   49.92    4.74 
 -13  13   4   40.80    4.77 
 -13  13   4   31.45    6.18 
 -13  13   4   56.68    5.24 
  13   0   4   37.20    6.24 
 -13  13   4   43.27    4.66 
   3  10  -4   39.86    6.46 
 -13   3  -4   31.14    3.82 
  10 -13  -4   40.85    3.98 
 -13   3  -4   20.92    5.33 
 -10  13   4   34.37    3.95 
 -10  13   4   34.35    4.56 
 -10  13   4   25.04    5.73 
  -3 -10   4   37.16    6.01 
 -10  13   4   37.70    4.22 
  13  -3   4   26.02    5.21 
 -13   6  -4   17.72    2.93 
   7 -13  -4   15.94    2.65 
 -13   6  -4   15.18    4.50 
   6   7  -4   15.43    4.64 
  -7  13   4   11.25    3.51 
  13  -6   4   20.44    4.00 
  -7  13   4   12.13    5.42 
  -7  13   4   15.87    2.98 
  13  -6   4   11.30    3.90 
  -7  13   4   11.15    3.11 
  -6  -7   4    9.97    4.63 
  -7  13   4   17.23    2.97 
 -13   9  -4    4.38    2.56 
 -13   9  -4    0.66    3.33 
 -13   9  -4    9.44    3.99 
  -4  13   4    7.36    2.64 
  -4  13   4    4.18    5.06 
  -4  13   4    2.60    2.58 
  13  -9   4    4.70    2.99 
  -4  13   4    3.43    3.51 
  13  -9   4    3.49    2.26 
  -9  -4   4    7.51    4.59 
  13  -9   4    4.07    3.27 
 -13  12  -4    2.91    3.95 
 -13  12  -4    1.56    3.31 
 -13  12  -4    0.84    2.57 
 -12  -1   4   -0.12    4.52 
  -1  13   4   -4.23    2.78 
 -12  -1   4    0.80    2.55 
  -1  13   4    2.15    4.37 
  13 -12   4    0.62    2.42 
  13 -12   4    1.31    3.80 
  -1  13   4    1.13    2.63 
 -13  15  -4    0.73    2.62 
 -13  15  -4    4.53    4.66 
 -13  15  -4   -1.48    3.28 
 -15   2   4    1.52    2.93 
 -15   2   4    4.16    2.85 
 -15   2   4    5.32    4.80 
  13 -15   4   -0.97    3.65 
   2  13   4    0.87    4.55 
  13 -15   4    1.87    2.19 
   2  13   4    0.22    2.83 
  18  -5  -4   10.33    2.28 
  -5 -13  -4    4.63    2.49 
 -13  18  -4   -1.24    4.11 
 -13  18  -4    6.40    2.81 
   5  13   4    7.49    4.80 
 -18   5   4    7.11    3.54 
  13 -18   4    7.41    4.34 
 -18   5   4    7.66    3.34 
 -18   5   4    1.49    5.46 
 -13  21  -4   -3.43    2.32 
  21  -8  -4    0.00    2.45 
 -21   8   4    3.82    3.64 
 -21   8   4   -5.92    4.74 
  13 -21   4   -1.95    3.82 
   8  13   4   -0.06    5.15 
 -21   8   4    0.41    3.46 
  24 -11  -4    4.64    2.75 
 -13  24  -4   -3.55    2.61 
 -24  11   4   -1.15    4.31 
 -24  11   4    4.05    3.99 
 -13  27  -4    6.83    2.84 
  27 -14  -4    6.80    2.74 
 -27  14   4    7.74    3.98 
 -27  14   4    1.68    3.98 
 -10  24  -4    7.26    2.85 
  24 -14  -4    2.62    3.10 
 -24  14   4   -0.52    3.76 
 -24  14   4    1.92    3.77 
 -24  14   4    7.93    3.34 
  21 -14  -4   -3.29    4.64 
  -7  21  -4    2.42    2.57 
  21 -14  -4    6.57    3.05 
 -21  14   4    3.49    3.05 
 -21  14   4    1.23    3.53 
  14   7   4    4.29    4.84 
 -21  14   4    1.30    3.53 
  18 -14  -4    1.36    2.54 
  -4  18  -4    0.77    4.38 
   4 -18   4    5.70    3.78 
 -18  14   4    5.94    2.91 
 -18  14   4   -0.86    2.76 
 -18  14   4   -1.16    3.29 
  14   4   4    0.73    4.30 
  15 -14  -4    4.69    2.73 
 -14  -1  -4    2.59    2.28 
  -1  15  -4    7.82    5.20 
  14   1   4    5.57    4.20 
 -15  14   4   11.53    3.25 
  14   1   4    2.17    2.32 
 -15  14   4    3.07    4.88 
 -15  14   4    8.13    2.77 
 -15  14   4    8.19    2.77 
  12 -14  -4    9.53    2.54 
 -14   2  -4   11.66    2.61 
 -14   2  -4    0.61    4.67 
   2  12  -4    0.77    4.72 
 -12  14   4   -2.79    4.61 
  14  -2   4    6.06    2.42 
 -12  14   4   11.49    3.60 
  14  -2   4    9.31    4.16 
 -12  14   4    1.70    2.68 
 -12  14   4    8.52    2.57 
   9 -14  -4    2.27    2.14 
 -14   5  -4    7.52    2.69 
 -14   5  -4    0.44    3.98 
   5   9  -4    9.15    4.70 
  -9  14   4    4.33    2.45 
  -5  -9   4    5.53    4.16 
  -9  14   4   -2.01    4.21 
  14  -5   4    3.91    2.18 
  -9  14   4    1.44    3.30 
  -9  14   4    1.56    2.64 
  14  -5   4   -0.41    3.18 
 -14   8  -4    0.04    2.43 
   6 -14  -4    3.60    2.26 
 -14   8  -4   -1.37    3.48 
 -14   8  -4    1.43    4.13 
  -6  14   4    4.12    2.58 
  14  -8   4   -1.37    3.51 
  14  -8   4   -2.08    2.38 
  -8  -6   4    7.64    5.04 
  -6  14   4   -2.34    2.81 
  -6  14   4    1.68    3.17 
  -6  14   4   -6.96    4.66 
 -14  11  -4    1.91    3.75 
 -14  11  -4   -1.65    3.29 
 -14  11  -4   -2.76    2.46 
  14 -11   4   -3.94    2.14 
  14 -11   4    3.40    3.39 
  -3  14   4   -0.96    2.63 
  -3  14   4    0.72    4.52 
 -11  -3   4    3.29    4.79 
 -14  14  -4    6.63    2.75 
 -14  14  -4   -1.67    4.01 
 -14  14  -4    6.74    3.49 
 -14   0   4    8.37    2.93 
 -14   0   4   10.60    5.13 
  14 -14   4    3.21    2.31 
   0  14   4    7.24    4.49 
   0  14   4   -2.22    2.72 
  14 -14   4    0.29    3.46 
 -14  17  -4   14.33    5.23 
 -14  17  -4   15.50    4.26 
 -14  17  -4   19.84    3.45 
 -17   3   4   26.63    4.07 
 -17   3   4   27.53    4.17 
  14 -17   4   25.16    3.31 
  14 -17   4   17.37    4.85 
   3  14   4   17.47    5.62 
 -17   3   4   13.44    5.50 
 -14  20  -4   13.83    4.91 
 -14  20  -4   10.87    3.25 
  20  -6  -4   13.89    2.81 
 -20   6   4   16.56    4.18 
   6  14   4   13.98    5.70 
  14 -20   4   10.79    4.55 
 -20   6   4   13.55    4.10 
 -20   6   4   21.97    6.25 
  23  -9  -4   -2.45    2.38 
 -14  23  -4    5.13    3.03 
 -23   9   4   -0.64    3.80 
 -23   9   4    3.37    3.79 
 -14  26  -4   -3.11    2.90 
  26 -12  -4    0.63    2.69 
 -26  12   4   -0.01    3.97 
 -26  12   4    1.69    4.00 
  26 -15  -4    6.61    3.09 
 -11  26  -4    4.25    2.90 
 -26  15   4    4.17    4.39 
 -26  15   4   11.09    3.29 
 -26  15   4    3.38    3.85 
  23 -15  -4    4.43    2.79 
 -23  15   4   -4.48    3.54 
 -23  15   4    3.48    2.98 
 -23  15   4   -6.02    3.51 
  20 -15  -4    3.34    2.70 
  20 -15  -4    1.45    4.35 
 -20  15   4    0.12    2.81 
  15   5   4    5.95    4.59 
 -20  15   4   -3.67    3.65 
 -20  15   4   -0.24    2.94 
  -2  17  -4    5.01    4.51 
  17 -15  -4    7.14    2.94 
 -17  15   4    8.94    3.44 
 -17  15   4   11.97    2.97 
  15   2   4    6.58    4.49 
  15   2   4    8.66    2.44 
   2 -17   4    4.53    3.67 
 -17  15   4   10.66    2.62 
  14 -15  -4    6.30    2.41 
   1  14  -4    3.16    4.33 
 -15   1  -4    3.00    2.46 
 -14  15   4    1.93    3.44 
  15  -1   4    8.30    2.47 
  15  -1   4    2.82    4.38 
 -14  15   4    3.69    2.66 
 -14  15   4    4.25    4.70 
 -14  15   4    7.88    2.69 
   4  11  -4    2.93    4.04 
 -15   4  -4    0.43    2.22 
  11 -15  -4    3.61    2.26 
 -11  15   4    0.69    3.30 
  15  -4   4    2.25    2.40 
 -11  15   4    3.74    2.43 
  -4 -11   4    3.98    3.85 
 -11  15   4    1.61    2.92 
 -11  15   4    1.99    4.17 
 -15   7  -4   -0.19    4.19 
   8 -15  -4    1.69    2.31 
 -15   7  -4   -0.44    2.70 
  -8  15   4    3.62    2.77 
  -8  15   4   -0.66    2.50 
  -8  15   4    1.75    4.14 
  -8  15   4    1.64    2.73 
  -8  15   4    2.26    3.14 
  15  -7   4    0.12    3.35 
  15  -7   4    3.87    2.50 
  -7  -8   4    2.97    4.46 
 -15  10  -4   -4.89    3.26 
 -15  10  -4    2.37    4.05 
 -15  10  -4    1.00    2.56 
   5 -15  -4    0.26    2.13 
  15 -10   4    1.05    3.52 
  15 -10   4    0.43    2.20 
  -5  15   4    2.54    2.61 
 -10  -5   4    8.88    5.42 
  -5  15   4   -1.90    4.31 
 -15  13  -4    4.21    3.84 
 -15  13  -4    1.35    3.41 
 -15  13  -4    5.20    2.76 
 -13  -2   4    5.94    2.65 
  15 -13   4    3.51    2.36 
  -2  15   4    2.18    4.31 
  -2  15   4   -2.56    2.66 
 -13  -2   4   10.67    5.30 
  15 -13   4    0.47    3.35 
 -15  16  -4   14.04    3.00 
 -15  16  -4    9.23    5.01 
 -15  16  -4    7.10    3.88 
 -16   1   4    7.48    3.09 
  15 -16   4    7.54    2.46 
   1  15   4    2.74    2.97 
 -16   1   4   12.46    3.30 
  15 -16   4    6.06    4.15 
   1  15   4   13.48    5.45 
 -16   1   4   13.64    5.46 
 -15  19  -4    2.86    2.98 
 -15  19  -4    7.27    4.41 
 -15  19  -4    8.99    3.81 
 -19   4   4    7.59    3.78 
 -19   4   4   10.02    3.73 
 -19   4   4    6.18    5.49 
   4  15   4    5.65    4.83 
  15 -19   4    5.67    4.22 
  22  -7  -4    6.81    2.59 
 -15  22  -4    2.49    2.73 
 -22   7   4    2.88    3.99 
 -22   7   4    8.52    4.10 
 -15  25  -4   -0.46    2.93 
  25 -10  -4   -4.56    2.39 
 -25  10   4   -1.86    3.97 
 -25  10   4    6.56    3.76 
  25 -16  -4    0.26    2.97 
 -25  16   4   -2.83    4.24 
 -25  16   4    0.51    3.02 
 -25  16   4   -1.48    3.18 
  22 -16  -4    0.67    2.71 
 -22  16   4    4.05    3.07 
 -22  16   4    1.01    2.97 
 -22  16   4    0.22    3.99 
  -3  19  -4   -1.87    4.50 
  19 -16  -4    2.83    4.31 
  19 -16  -4    0.58    2.53 
  16   3   4    9.12    4.64 
 -19  16   4    2.45    3.36 
 -19  16   4    5.05    3.15 
 -19  16   4    1.72    2.71 
   0  16  -4   26.29    5.82 
  16 -16  -4   24.22    3.43 
  16   0   4   25.26    3.14 
  16   0   4   19.13    5.19 
 -16  16   4   22.08    3.55 
 -16  16   4   20.52    3.26 
 -16  16   4   23.18    4.52 
 -16   3  -4    6.82    2.29 
   3  13  -4    6.14    4.27 
  13 -16  -4    5.42    2.63 
 -13  16   4    5.41    3.49 
 -13  16   4    3.96    2.69 
 -13  16   4   -1.66    3.97 
  16  -3   4    6.83    2.27 
 -13  16   4    5.83    2.76 
 -16   6  -4    3.46    2.67 
   6  10  -4    6.90    4.35 
  10 -16  -4   -4.03    2.28 
  -6 -10   4    1.01    4.16 
  16  -6   4   -1.28    2.09 
 -10  16   4   -3.72    3.86 
  16  -6   4   -3.94    3.24 
 -10  16   4   -0.14    2.66 
 -10  16   4    5.76    3.27 
 -10  16   4   -4.40    2.66 
 -10  16   4    2.56    3.27 
 -10  16   4   -0.96    2.52 
 -16   9  -4    2.94    3.78 
 -16   9  -4    0.05    2.50 
   7 -16  -4    0.05    1.94 
  -9  -7   4   -1.64    4.70 
  -7  16   4    1.79    4.67 
  -7  16   4   -1.78    3.24 
  -7  16   4   -1.16    2.71 
  16  -9   4    0.87    2.52 
  16  -9   4    0.57    3.50 
  -7  16   4   -1.70    2.53 
 -16  12  -4    3.99    2.65 
 -16  12  -4    2.48    3.76 
 -16  12  -4    2.27    3.84 
 -12  -4   4    4.91    4.97 
  -4  16   4    1.08    2.65 
  16 -12   4    4.04    2.61 
  16 -12   4   -3.57    3.43 
  -4  16   4   -1.38    4.22 
 -16  15  -4    1.05    3.77 
 -16  15  -4    8.42    4.15 
 -16  15  -4    8.08    2.94 
  -1  16   4   10.63    5.32 
 -15  -1   4    6.03    5.24 
  16 -15   4    5.99    2.72 
  16 -15   4    5.82    3.66 
  -1  16   4    8.27    2.97 
 -15  -1   4   11.86    3.31 
 -16  18  -4   11.46    4.81 
 -16  18  -4   15.22    3.14 
 -16  18  -4   10.13    3.91 
  16 -18   4    9.72    4.53 
 -18   2   4   17.86    6.29 
 -18   2   4   18.32    3.55 
   2  16   4   18.70    5.83 
   2  16   4   13.39    3.16 
  16 -18   4    9.48    2.68 
 -18   2   4   11.86    3.45 
 -16  21  -4    4.51    2.66 
 -21   5   4    7.10    3.64 
 -21   5   4   -2.62    3.37 
 -16  24  -4   -8.74    2.97 
 -24   8   4    0.67    4.22 
 -24   8   4    0.50    3.63 
 -16  27  -4    0.54    3.17 
  27 -11  -4    0.58    2.43 
 -27  11   4    1.60    3.67 
 -27  11   4    4.01    4.13 
  27 -17  -4    4.43    3.06 
 -27  17   4    3.39    3.10 
 -27  17   4    5.43    4.06 
 -27  17   4    6.21    3.71 
  24 -17  -4    0.98    2.84 
 -24  17   4    0.42    3.14 
 -24  17   4    4.93    3.00 
 -24  17   4    0.97    3.78 
  21 -17  -4   -0.88    2.65 
 -21  17   4    4.43    2.79 
 -21  17   4    2.82    3.39 
 -21  17   4    1.58    2.83 
  18 -17  -4    4.03    2.87 
  -1  18  -4   -5.25    4.77 
 -18  17   4    3.01    3.54 
 -18  17   4    0.65    2.65 
 -18  17   4    2.80    2.55 
  17   1   4   -2.15    3.92 
  17   1   4    1.34    1.99 
   2  15  -4    8.38    4.57 
  15 -17  -4   11.16    2.85 
 -15  17   4    7.40    3.14 
 -15  17   4    8.70    2.75 
  17  -2   4    7.69    2.33 
 -15  17   4    8.17    3.63 
 -17   5  -4   -1.50    2.47 
   5  12  -4    0.50    3.78 
  12 -17  -4   -4.76    2.09 
 -12  17   4   -4.76    2.53 
 -12  17   4   -2.53    2.90 
 -12  17   4   -2.23    2.92 
  17  -5   4   -1.99    2.11 
 -12  17   4   -3.45    3.66 
  -5 -12   4    0.68    3.99 
 -17   8  -4    4.53    2.52 
   9 -17  -4    2.76    2.12 
 -17   8  -4    3.68    3.39 
  -8  -9   4   10.54    5.47 
  -9  17   4    2.40    2.56 
  -9  17   4   -1.49    3.30 
  17  -8   4    2.58    2.61 
  17  -8   4    5.34    3.77 
  -9  17   4    4.29    4.56 
  -9  17   4   10.20    2.72 
   6 -17  -4    4.29    2.30 
 -17  11  -4    5.63    2.73 
 -17  11  -4    7.60    3.42 
  17 -11   4    7.72    4.00 
 -11  -6   4    9.84    5.36 
  -6  17   4    1.32    4.75 
  -6  17   4    8.55    2.89 
  17 -11   4    7.60    2.80 
 -17  14  -4   17.90    4.13 
 -17  14  -4   28.94    3.86 
  17 -14   4   26.44    3.55 
  -3  17   4   18.64    3.50 
 -14  -3   4   28.68    6.54 
  -3  17   4   19.68    5.74 
  17 -14   4   16.31    4.53 
 -17  17  -4   71.10    7.14 
 -17  17  -4   77.04    7.97 
  17 -17   4   64.65    6.94 
   0  17   4   69.10    9.40 
 -17   0   4   80.82    7.70 
   0  17   4   68.59    6.96 
 -17   0   4   65.42    9.51 
 -17   0   4   69.38    7.47 
  17 -17   4   68.34    8.61 
 -17  20  -4   54.99    5.63 
 -17  20  -4   37.93    7.06 
 -20   3   4   55.74    6.31 
 -20   3   4   59.22    6.15 
   3  17   4   56.09    8.47 
  17 -20   4   51.50    5.57 
 -17  23  -4   14.34    3.61 
 -23   6   4   22.10    4.47 
 -23   6   4   17.05    4.61 
 -17  26  -4    9.35    3.10 
 -26   9   4    7.53    3.80 
 -26   9   4    0.68    4.44 
  26 -18  -4    1.16    3.19 
 -26  18   4    0.69    2.99 
 -26  18   4   -5.22    3.46 
 -26  18   4    5.42    3.89 
  23 -18  -4   -3.00    3.07 
 -23  18   4   -4.57    2.53 
 -23  18   4   -0.59    3.23 
 -23  18   4   -1.58    3.56 
  20 -18  -4    7.72    2.79 
 -20  18   4    2.63    3.61 
 -20  18   4    1.54    2.66 
 -20  18   4    4.27    2.87 
  17 -18  -4   -1.98    2.68 
   1  17  -4    1.09    4.94 
  18  -1   4    4.29    2.44 
 -17  18   4    5.26    2.99 
 -17  18   4   -2.06    3.47 
 -17  18   4   -0.01    2.56 
  14 -18  -4   -0.88    2.45 
   4  14  -4    0.56    4.08 
 -14  18   4    0.36    3.30 
 -14  18   4   -1.92    2.91 
 -14  18   4   -0.84    2.55 
  18  -4   4    0.85    2.13 
 -14  18   4    4.14    3.36 
  11 -18  -4    3.83    2.38 
 -18   7  -4    2.70    3.47 
 -18   7  -4    4.65    2.70 
 -11  18   4   -2.95    3.20 
  -7 -11   4    8.64    4.77 
 -11  18   4   -0.70    2.76 
 -11  18   4   -0.53    2.70 
 -11  18   4    6.33    2.45 
  18  -7   4   -1.53    2.19 
 -11  18   4    1.81    3.08 
   8 -18  -4    0.18    1.95 
 -18  10  -4    2.63    3.38 
 -18  10  -4    3.00    2.89 
  -8  18   4    8.24    5.10 
  18 -10   4    3.93    2.34 
 -10  -8   4    4.63    5.30 
  18 -10   4    6.39    3.99 
  -8  18   4    3.76    3.35 
  -8  18   4   -2.12    2.49 
 -18  13  -4    8.97    3.11 
 -18  13  -4   11.23    3.89 
  18 -13   4    1.65    4.08 
  -5  18   4    1.04    4.13 
 -13  -5   4   12.53    6.49 
  18 -13   4    8.08    2.52 
  -5  18   4    2.37    2.49 
 -18  16  -4   12.01    4.04 
 -18  16  -4   18.32    3.25 
  -2  18   4   13.45    3.24 
  -2  18   4    8.37    4.67 
  18 -16   4   13.26    3.16 
 -16  -2   4   16.43    6.17 
 -16  -2   4   17.27    3.58 
  18 -16   4   12.11    4.75 
 -18  19  -4   15.86    4.55 
 -18  19  -4   18.14    3.39 
  18 -19   4   17.38    3.49 
 -19   1   4   18.58    4.02 
   1  18   4   22.79    3.66 
   1  18   4   10.52    5.66 
 -19   1   4   33.28    4.37 
 -18  22  -4    5.36    4.07 
 -18  22  -4    7.22    3.26 
 -22   4   4    1.78    3.58 
 -22   4   4   12.94    4.30 
 -18  25  -4    0.04    3.30 
 -25   7   4    5.70    3.81 
 -25   7   4    0.98    3.92 
  25 -19  -4    5.91    3.23 
 -25  19   4    8.11    4.20 
 -25  19   4    5.41    3.06 
  22 -19  -4    8.64    3.29 
 -22  19   4    8.01    3.84 
 -22  19   4    1.19    3.20 
 -19   0  -4    1.27    3.75 
  19 -19  -4   -0.21    2.55 
  19   0   4   -3.25    2.15 
 -19  19   4   -4.57    3.55 
 -19  19   4    1.88    2.72 
 -19  19   4   -1.31    2.56 
   3  16  -4   -7.27    4.04 
  16 -19  -4    1.87    2.33 
  19  -3   4    0.03    2.13 
 -16  19   4   -1.23    2.63 
 -16  19   4    2.51    2.46 
 -16  19   4    1.54    3.33 
 -16  19   4    0.06    3.44 
 -19   6  -4    5.05    2.68 
  13 -19  -4    2.19    2.43 
 -13  19   4    0.32    3.42 
 -13  19   4   -0.67    3.39 
 -13  19   4    3.66    2.60 
 -13  19   4   -0.61    2.66 
  19  -6   4    2.54    2.49 
 -13  19   4    6.34    2.75 
  10 -19  -4    2.93    2.29 
 -19   9  -4    4.29    2.77 
 -19   9  -4    4.83    4.04 
 -10  19   4    0.07    2.66 
  -9 -10   4    9.75    5.39 
  19  -9   4    4.13    2.41 
  19  -9   4   -1.80    3.57 
 -10  19   4    0.74    2.67 
 -10  19   4    6.34    3.46 
 -19  12  -4    1.13    3.90 
 -19  12  -4   -1.42    2.52 
  -7  19   4   -2.12    2.66 
  19 -12   4    2.48    4.22 
  19 -12   4   -0.58    2.35 
 -19  15  -4    7.80    2.88 
 -19  15  -4    1.69    3.88 
 -15  -4   4   17.66    6.42 
  -4  19   4   12.32    3.08 
  -4  19   4    0.33    4.74 
  19 -15   4    4.82    4.34 
  19 -15   4    7.01    2.95 
 -19  18  -4   16.30    3.40 
 -19  18  -4   20.98    4.44 
  -1  19   4    8.22    4.92 
 -18  -1   4   18.00    3.78 
  -1  19   4   22.11    3.66 
  19 -18   4   24.66    3.64 
 -19  21  -4   11.13    4.39 
 -19  21  -4   13.23    3.13 
  19 -21   4   14.20    3.30 
 -21   2   4    8.85    3.80 
 -21   2   4   19.59    4.34 
 -19  24  -4    6.22    3.35 
 -19  24  -4    0.33    3.98 
 -24   5   4    5.00    4.02 
 -24   5   4   -1.48    3.80 
  24 -20  -4    5.72    3.27 
 -20  -4  -4    1.10    3.70 
 -24  20   4    0.49    3.12 
 -24  20   4    2.76    4.21 
 -20  -1  -4   -3.61    3.86 
  21 -20  -4    4.15    2.77 
 -21  20   4   -5.78    3.57 
 -21  20   4    1.35    2.93 
  18 -20  -4    5.63    2.80 
 -18  20   4   -0.60    3.59 
  20  -2   4   -1.35    2.36 
 -18  20   4    4.93    4.01 
 -18  20   4   -2.04    2.89 
  15 -20  -4    1.08    2.54 
 -15  20   4   -1.10    3.29 
 -15  20   4   -0.83    3.19 
 -15  20   4    3.34    2.88 
  20  -5   4    3.07    2.28 
 -20   8  -4    0.22    4.00 
  12 -20  -4    4.44    2.41 
 -20   8  -4    0.02    2.66 
 -12  20   4   -0.29    3.47 
 -12  20   4    4.23    2.78 
 -12  20   4   -1.77    2.93 
  20  -8   4    4.01    2.63 
  -8 -12   4   10.09    5.57 
   9 -20  -4   -0.88    2.35 
 -20  11  -4   -3.77    3.76 
 -20  11  -4    7.45    2.61 
  20 -11   4   -1.10    3.64 
  20 -11   4    1.66    2.74 
  -9  20   4   -1.96    2.60 
 -20  14  -4   13.81    3.22 
 -20  14  -4   16.48    4.45 
  20 -14   4   13.16    4.85 
  20 -14   4   18.11    3.15 
  -6  20   4   17.62    3.32 
 -20  17  -4   39.39    5.56 
  20 -17   4   60.54    5.76 
  -3  20   4   62.69    5.90 
 -20  20  -4   77.19    6.95 
 -20   0   4   65.10    7.23 
 -20   0   4   63.69    7.30 
  20 -20   4   71.28    7.04 
   0  20   4   60.20    6.78 
 -20  23  -4   21.91    4.19 
 -20  23  -4   18.62    4.92 
 -23   3   4   25.73    4.72 
 -23   3   4   25.34    4.76 
 -20  26  -4    8.64    3.15 
 -26   6   4    2.33    4.11 
 -26   6   4    7.94    4.10 
 -21  -5  -4    2.45    4.08 
  26 -21  -4   -0.42    3.03 
 -26  21   4    0.18    3.02 
 -26  21   4   -0.91    4.10 
  23 -21  -4    4.01    3.14 
 -21  -2  -4   10.13    4.24 
 -23  21   4   -2.80    3.69 
 -23  21   4   -2.39    2.66 
 -21   1  -4    3.35    3.87 
  20 -21  -4    2.80    2.60 
  21  -1   4   -0.59    2.40 
 -20  21   4    5.41    3.57 
 -20  21   4    4.13    2.97 
 -20  21   4    3.55    3.58 
  17 -21  -4    0.30    2.37 
  21  -4   4   -0.76    2.26 
 -17  21   4   -1.21    3.62 
 -17  21   4   -0.40    3.55 
 -17  21   4   -2.72    2.76 
 -21   7  -4   -3.93    4.06 
  14 -21  -4   -2.49    2.35 
  21  -7   4   -1.70    2.64 
 -14  21   4    3.20    2.96 
 -14  21   4    1.11    3.34 
 -14  21   4   -4.71    2.50 
 -14  21   4   -1.99    3.17 
 -21  10  -4    2.04    2.72 
  11 -21  -4    3.25    2.24 
 -21  10  -4   -1.79    3.96 
  21 -10   4    2.52    2.77 
 -11  21   4   -6.79    3.39 
 -11  21   4   -1.09    2.77 
 -21  13  -4    0.48    2.56 
 -21  13  -4    6.17    4.13 
  -8  21   4    0.18    2.83 
  21 -13   4   -1.84    4.21 
  21 -13   4   -0.95    2.45 
 -21  16  -4    3.88    2.65 
 -21  16  -4   -1.64    4.07 
  21 -16   4    0.11    2.82 
  -5  21   4    5.27    2.95 
 -21  19  -4   20.41    4.55 
 -21  19  -4   13.80    3.12 
  21 -19   4   12.61    3.18 
  -2  21   4   13.20    3.41 
 -21  22  -4    5.00    4.37 
 -21  22  -4    4.69    3.33 
  21 -22   4    5.84    3.18 
   1  21   4    8.59    3.21 
 -22   1   4    5.54    3.92 
 -22   1   4    5.62    3.77 
 -21  25  -4    5.10    3.52 
 -21  25  -4   -3.07    4.06 
 -25   4   4    3.69    4.04 
 -25   4   4   -3.45    3.73 
  25 -22  -4    0.04    3.04 
 -22  -3  -4    2.71    4.03 
 -25  22   4   -0.41    2.85 
 -25  22   4   -4.87    3.97 
 -22   0  -4    0.74    3.76 
  22 -22  -4   -1.46    2.89 
 -22  22   4    2.49    4.04 
 -22  22   4   -0.62    2.90 
 -22  22   4   -0.24    3.60 
  19 -22  -4    3.55    2.85 
 -19  22   4   -2.67    3.51 
 -19  22   4    6.93    2.76 
  22  -3   4    8.01    2.74 
 -19  22   4    4.61    3.88 
 -22   6  -4   -1.33    4.05 
  16 -22  -4   -2.31    2.47 
 -16  22   4    1.18    3.59 
 -16  22   4    0.19    3.38 
  22  -6   4    6.30    2.50 
 -16  22   4   -0.42    2.91 
 -22   9  -4    3.83    4.17 
  13 -22  -4   -0.99    2.36 
  -9 -13   4   12.63    6.00 
  22  -9   4    4.45    2.60 
 -13  22   4    3.60    3.05 
 -13  22   4    9.13    3.49 
 -22  12  -4    1.29    4.25 
 -22  12  -4    4.81    2.85 
  22 -12   4    2.48    2.57 
 -10  22   4   -1.23    2.80 
 -22  15  -4    3.19    2.70 
 -22  15  -4    8.90    4.38 
  22 -15   4   10.64    2.90 
  -7  22   4    6.69    3.07 
 -22  18  -4   12.44    2.98 
 -22  18  -4    9.05    4.19 
  22 -18   4    7.88    3.22 
  -4  22   4    8.82    3.11 
 -22  21  -4    9.12    3.04 
 -22  21  -4    1.09    4.25 
 -21  -1   4    8.12    4.05 
  -1  22   4    9.98    3.18 
 -21  -1   4    0.91    3.78 
  22 -21   4    3.70    2.84 
 -22  24  -4    4.74    3.44 
 -22  24  -4    2.68    4.28 
 -24   2   4    3.91    4.22 
 -24   2   4    1.50    3.55 
  24 -23  -4    0.57    2.89 
 -23  -1  -4   -8.63    3.67 
 -24  23   4   -1.55    2.88 
 -24  23   4   -0.94    3.90 
 -24  23   4   -0.66    4.10 
  21 -23  -4   -1.67    2.80 
 -23   2  -4    2.71    3.89 
 -21  23   4    4.45    2.65 
 -21  23   4   -3.92    3.56 
 -21  23   4   -0.87    3.74 
  18 -23  -4    1.90    2.61 
 -23   5  -4    2.91    4.22 
  23  -5   4    1.97    2.56 
 -18  23   4   -2.75    3.43 
 -18  23   4    3.67    3.87 
 -18  23   4   -4.54    2.47 
  15 -23  -4    0.26    2.51 
 -23   8  -4    2.62    3.74 
 -15  23   4    1.78    3.86 
  23  -8   4   -0.68    2.44 
 -15  23   4    3.28    3.07 
 -15  23   4    5.55    3.49 
 -23  11  -4   -0.48    3.67 
  23 -11   4   -1.41    2.53 
 -12  23   4    3.83    2.87 
 -23  14  -4    2.74    4.06 
 -23  14  -4    0.24    2.70 
  23 -14   4    1.47    2.91 
  -9  23   4   -2.45    2.84 
 -23  17  -4   15.63    4.70 
 -23  17  -4    9.05    2.95 
  -6  23   4   19.67    3.54 
  23 -17   4   18.23    3.42 
 -23  20  -4   19.00    3.55 
 -23  20  -4   23.74    4.98 
  23 -20   4   27.74    4.17 
  -3  23   4   20.42    3.83 
 -23  23  -4   10.48    3.32 
 -23  23  -4   11.93    4.45 
   0  23   4   10.14    3.35 
 -23   0   4    9.24    4.35 
 -23   0   4   15.07    4.07 
  23 -23   4    8.88    3.43 
 -24   1  -4   -0.59    3.64 
  23 -24  -4    0.31    2.59 
 -23  24   4    0.58    3.58 
 -23  24   4   -0.45    3.94 
 -24   4  -4    2.48    4.34 
  20 -24  -4    6.51    2.89 
 -20  24   4    4.55    4.06 
 -20  24   4    6.85    4.07 
  24  -4   4    5.34    2.78 
  17 -24  -4    2.47    2.64 
 -24   7  -4   -1.05    4.33 
 -17  24   4    2.64    3.59 
 -17  24   4   -1.96    3.85 
 -17  24   4    1.38    3.05 
  24  -7   4   -1.80    2.73 
 -24  10  -4    7.26    4.43 
 -14  24   4    4.97    3.00 
  24 -10   4    8.50    3.14 
 -14  24   4    4.01    4.05 
 -24  13  -4   -1.54    4.07 
  24 -13   4    1.35    2.76 
 -11  24   4    2.91    2.95 
 -24  16  -4    0.00    2.41 
 -24  16  -4   -1.40    4.23 
  -8  24   4    0.03    2.93 
  24 -16   4    1.82    2.81 
 -24  19  -4    2.02    4.36 
 -24  19  -4    4.49    3.02 
  24 -19   4    3.33    3.23 
  -5  24   4    4.08    3.00 
 -24  22  -4    3.14    4.18 
 -24  22  -4    1.70    2.91 
  24 -22   4    1.92    3.24 
  -2  24   4    0.51    3.18 
  22 -25  -4   -1.37    2.74 
 -25   3  -4   -5.38    4.07 
 -25   3  -4    0.12    3.92 
 -22  25   4    0.14    3.56 
 -22  25   4    2.56    3.96 
  19 -25  -4    7.94    2.68 
 -25   6  -4    8.29    4.39 
 -19  25   4    0.19    3.43 
 -19  25   4    4.15    4.00 
  25  -6   4    5.34    2.98 
  16 -25  -4    1.49    2.30 
 -25   9  -4    3.01    4.27 
  25  -9   4    0.01    2.91 
 -16  25   4   -1.88    2.99 
 -16  25   4   -3.51    3.37 
 -25  12  -4   -2.35    4.37 
  25 -12   4   -0.60    2.65 
 -13  25   4    1.29    2.95 
 -25  15  -4   -1.39    2.53 
 -25  15  -4   -2.37    4.25 
 -10  25   4    1.39    2.95 
  25 -15   4    0.83    3.06 
 -25  18  -4    6.63    4.53 
 -25  18  -4   -3.13    2.73 
  25 -18   4    3.23    3.17 
  -7  25   4    3.62    3.01 
 -25  21  -4    1.02    3.10 
 -25  21  -4   -5.33    4.31 
  25 -21   4    0.83    3.10 
  -4  25   4   -3.17    2.84 
  21 -26  -4    0.51    2.59 
 -26   5  -4    1.66    4.22 
 -21  26   4    2.07    3.71 
 -21  26   4    1.92    4.02 
  26  -5   4   -2.35    2.51 
 -26   8  -4    6.23    4.27 
  18 -26  -4   -4.57    2.26 
 -18  26   4   -2.89    2.99 
 -18  26   4   -1.83    3.85 
  26  -8   4    7.21    2.86 
 -26  11  -4    3.68    4.57 
  26 -11   4    9.34    3.18 
 -15  26   4    3.52    3.20 
 -26  14  -4    0.83    4.49 
  26 -14   4    2.54    2.78 
 -12  26   4    2.66    2.96 
 -26  17  -4    6.85    2.87 
 -26  17  -4   -2.62    4.26 
  -9  26   4   -2.01    2.85 
  26 -17   4    4.64    3.27 
 -26  20  -4    4.67    4.57 
 -26  20  -4    6.63    3.15 
  -6  26   4    9.08    3.05 
  26 -20   4   10.69    3.26 
 -27  10  -4   -0.84    4.35 
  27 -10   4    1.35    2.91 
 -17  27   4    5.92    3.17 
 -27  13  -4   10.56    4.60 
 -14  27   4    3.10    2.98 
  27 -13   4    2.96    3.15 
 -27  16  -4   -0.63    4.37 
  27 -16   4   -3.35    3.01 
 -11  27   4   -0.45    2.89 
   0  -1  -5   11.04    4.96 
   1   0  -5    5.02    2.32 
   1   0  -5    1.25    4.51 
  -1   1  -5    3.79    2.40 
   0  -1  -5    7.53    2.46 
  -1   1  -5    3.14    4.67 
   1  -1   5    8.35    2.57 
   0   1   5    4.35    2.49 
   0   1   5   10.35    4.95 
  -1   0   5   10.76    4.98 
  -1   0   5    6.61    2.62 
   1  -1   5    7.24    4.76 
   0   2  -5   16.55    2.91 
  -2   0  -5   16.04    5.38 
   2  -2  -5   22.90    3.22 
   2  -2  -5   17.14    5.74 
  -2   0  -5   22.27    3.36 
   0   2  -5   16.76    4.99 
   0  -2   5   15.99    5.16 
   0  -2   5   19.94    2.89 
   0  -2   5   23.42    4.24 
  -2   2   5   18.26    3.08 
  -2   2   5   19.55    5.44 
   2   0   5   18.17    5.83 
   2   0   5   16.31    3.23 
   3  -1  -5    3.15    2.18 
  -1  -2  -5   -1.73    4.67 
  -1  -2  -5    0.89    2.36 
  -2   3  -5    0.78    2.24 
  -2   3  -5    1.87    4.51 
   3  -1  -5    0.64    4.15 
   1   2   5    4.17    4.65 
   2  -3   5    3.21    2.29 
   1   2   5    3.79    2.53 
  -3   1   5    2.79    2.66 
  -3   1   5   -0.88    2.26 
  -3   1   5   -2.30    4.91 
   2  -3   5    0.34    4.83 
  -1   4  -5   19.30    5.18 
  -3  -1  -5   20.57    3.44 
  -1   4  -5   24.41    3.16 
   4  -3  -5   22.47    3.15 
   4  -3  -5   21.20    5.18 
  -3  -1  -5   19.52    5.98 
  -4   3   5   18.69    3.10 
  -4   3   5   11.19    5.64 
   1  -4   5   12.75    5.40 
  -4   3   5   22.83    3.24 
   3   1   5   12.44    5.19 
   1  -4   5   12.39    3.81 
   1  -3  -5    0.18    4.49 
  -3   2  -5    8.46    4.78 
   2   1  -5    1.01    2.10 
   2   1  -5    0.71    4.23 
   1  -3  -5   -1.56    2.28 
  -3   2  -5   -0.11    2.34 
  -1   3   5   -1.53    4.73 
   3  -2   5  -10.19    3.93 
  -2  -1   5    2.27    2.40 
   3  -2   5    2.12    2.19 
  -2  -1   5   -0.93    4.50 
  -2  -1   5    9.23    3.32 
  -1   3   5    3.32    2.53 
  -2  -3  -5   18.36    5.51 
   5  -2  -5   22.41    2.90 
  -2  -3  -5   22.24    3.43 
   5  -2  -5   18.78    4.92 
  -3   5  -5   10.39    4.91 
  -3   5  -5   18.96    2.95 
  -5   2   5   22.52    3.36 
  -5   2   5   19.40    3.26 
  -5   2   5   10.76    5.08 
   2   3   5   20.49    3.23 
   3  -5   5   16.81    5.38 
   2   3   5   18.59    5.95 
  -2   6  -5    4.45    4.46 
  -4  -2  -5    0.01    4.67 
   6  -4  -5   -0.26    4.63 
  -2   6  -5   -1.70    2.11 
  -4  -2  -5    6.48    2.57 
   6  -4  -5   -0.51    2.29 
   2  -6   5   -2.04    3.11 
  -6   4   5   -0.46    2.65 
   2  -6   5   -0.28    4.49 
  -6   4   5    2.10    2.73 
  -6   4   5    3.39    4.73 
   4   2   5    0.65    4.52 
   1   3  -5   21.27    5.06 
  -4   1  -5   22.16    3.11 
   3  -4  -5   27.16    3.28 
   3  -4  -5   14.66    5.25 
   1   3  -5   13.89    2.82 
  -4   1  -5    8.37    5.59 
  -3   4   5   20.27    3.31 
   4  -1   5    9.69    5.28 
  -1  -3   5   18.97    3.95 
  -3   4   5    9.70    5.12 
  -1  -3   5   16.72    2.87 
  -1  -3   5   11.70    5.10 
   0  -4  -5   30.97    3.74 
   4   0  -5   24.10    3.42 
   4   0  -5   21.05    5.33 
  -4   4  -5   31.68    3.63 
   0  -4  -5   36.27    6.05 
  -4   4  -5   30.13    6.22 
   0   4   5   29.90    3.88 
  -4   0   5   31.63    3.62 
   0   4   5   20.72    6.23 
  -4   0   5   28.92    5.99 
  -4   0   5   34.05    3.80 
   4  -4   5   26.80    5.54 
   7  -3  -5   25.31    3.56 
  -3  -4  -5   35.03    4.09 
   7  -3  -5   22.60    5.53 
  -4   7  -5   37.61    3.99 
  -4   7  -5   29.90    5.64 
   3   4   5   28.06    5.98 
  -7   3   5   21.05    6.20 
  -7   3   5   34.30    3.85 
  -7   3   5   29.14    3.78 
   8  -5  -5   16.11    4.67 
  -5  -3  -5   14.99    5.33 
  -3   8  -5   20.39    5.62 
   8  -5  -5   23.53    3.06 
  -3   8  -5   23.42    3.27 
  -5  -3  -5   25.67    3.52 
  -8   5   5   13.02    3.16 
  -8   5   5   22.13    3.48 
   5   3   5   11.36    5.65 
  -8   5   5   12.55    5.26 
   0   5  -5   38.39    6.24 
  -5   0  -5   39.70    7.15 
  -5   0  -5   42.28    4.53 
   0   5  -5   36.91    4.17 
   5  -5  -5   39.17    6.77 
   5  -5  -5   42.19    4.51 
  -5   5   5   44.02    6.93 
   5   0   5   31.55    6.37 
  -5   5   5   43.33    4.49 
   0  -5   5   37.25    6.73 
  -5   5   5   42.10    4.54 
   0  -5   5   35.55    5.36 
   2  -5  -5   14.99    5.22 
   3   2  -5   15.32    4.90 
   3   2  -5   20.50    3.03 
  -5   3  -5   28.18    3.26 
  -5   3  -5   22.96    5.60 
   2  -5  -5   23.82    3.13 
  -2   5   5   22.47    3.56 
  -3  -2   5   17.69    5.28 
  -2   5   5   15.83    5.51 
  -3  -2   5   16.04    3.99 
  -3  -2   5   18.17    3.10 
   5  -3   5    9.95    4.69 
   6  -1  -5    6.10    2.35 
  -5   6  -5   -0.42    4.28 
  -5   6  -5    5.78    2.45 
  -1  -5  -5    8.75    2.61 
   6  -1  -5    1.96    3.86 
  -6   1   5    6.02    4.70 
  -6   1   5   13.09    2.90 
   5  -6   5   -1.63    4.32 
  -6   1   5    3.51    2.67 
   1   5   5    7.84    2.73 
   1   5   5   -0.63    4.54 
  -5   9  -5    0.64    4.07 
  -5   9  -5    1.47    2.68 
  -4  -5  -5    0.84    2.41 
  -9   4   5    1.01    2.42 
   4   5   5    0.86    4.77 
  -9   4   5    4.35    4.81 
  -9   4   5    6.45    2.83 
  10  -6  -5   19.15    3.07 
  10  -6  -5   17.26    2.87 
  -6  -4  -5   20.29    3.12 
  -4  10  -5   19.92    3.02 
  -4  10  -5   15.14    5.06 
 -10   6   5    8.60    5.15 
 -10   6   5   21.20    3.70 
 -10   6   5   20.75    3.23 
 -10   6   5   18.35    3.50 
   6   4   5    7.46    5.16 
   7  -6  -5   14.09    5.09 
  -6  -1  -5   12.42    2.99 
  -1   7  -5    8.86    4.70 
  -6  -1  -5    7.50    5.16 
  -1   7  -5   16.32    2.91 
   7  -6  -5   15.28    2.85 
  -7   6   5    6.50    5.10 
  -7   6   5   17.68    2.96 
   1  -7   5   13.94    4.62 
  -7   6   5   16.39    3.04 
   6   1   5   10.24    4.83 
   2   4  -5   -1.27    1.85 
   2   4  -5    7.29    4.23 
   4  -6  -5   -2.48    4.31 
  -6   2  -5    2.94    4.74 
   4  -6  -5    4.35    2.31 
  -6   2  -5    3.08    2.76 
  -4   6   5    4.14    4.69 
  -2  -4   5   -2.23    4.94 
  -2  -4   5   -1.75    2.23 
  -4   6   5    3.09    2.63 
   6  -2   5   -1.51    4.08 
  -4   6   5   -3.17    2.45 
  -6   5  -5    2.90    4.38 
   5   1  -5    3.16    3.95 
   5   1  -5    2.95    1.97 
  -6   5  -5    1.52    2.42 
   1  -6  -5    8.27    2.52 
   6  -5   5    0.32    3.87 
  -1   6   5    5.17    2.76 
  -5  -1   5    5.10    2.56 
  -5  -1   5    7.67    2.56 
  -5  -1   5    6.94    5.22 
  -1   6   5    3.33    4.82 
  -6   8  -5   10.71    2.65 
  -2  -6  -5    9.46    2.64 
  -6   8  -5    9.16    4.47 
  -8   2   5    8.62    2.90 
  -8   2   5    4.59    4.60 
  -8   2   5    8.69    2.90 
   2   6   5    3.52    4.87 
  -6  11  -5    4.31    2.49 
  11  -5  -5    6.67    2.51 
  -5  -6  -5    5.06    2.79 
  -6  11  -5    4.12    4.46 
 -11   5   5    9.12    2.99 
 -11   5   5    4.59    2.65 
 -11   5   5    4.04    4.96 
   6 -11   5   14.82    4.44 
   5   6   5    5.45    5.41 
  12  -7  -5   10.79    2.61 
  -5  12  -5   17.45    3.04 
  -7  -5  -5   12.09    2.82 
  -5  12  -5   18.47    5.00 
   7   5   5    9.60    4.82 
 -12   7   5   16.97    3.10 
 -12   7   5    8.68    3.12 
 -12   7   5    7.29    3.10 
 -12   7   5    8.19    5.59 
  -7  -2  -5    1.88    4.78 
  -2   9  -5    2.97    4.41 
   9  -7  -5    1.01    2.30 
  -2   9  -5   -6.19    2.07 
   9  -7  -5    1.72    2.42 
  -7  -2  -5   -0.87    2.43 
   7   2   5   -0.16    4.26 
  -9   7   5   -6.68    2.49 
  -9   7   5   -3.16    2.45 
  -9   7   5   -6.32    4.85 
  -9   7   5   -0.24    2.76 
   1   6  -5   12.69    4.70 
  -7   1  -5   17.38    5.39 
   6  -7  -5   14.00    2.74 
   1   6  -5   11.02    2.51 
  -7   1  -5   16.00    3.00 
   6  -7  -5    8.53    5.12 
  -1  -6   5   19.14    4.99 
   7  -1   5    9.40    5.22 
   7  -1   5   16.44    3.90 
  -6   7   5    6.77    5.06 
  -6   7   5   11.38    3.27 
  -6   7   5   20.05    3.29 
  -6   7   5   19.01    3.21 
   4   3  -5   26.28    5.51 
  -7   4  -5   27.83    5.93 
   3  -7  -5   29.49    3.62 
  -7   4  -5   35.50    3.73 
  -3   7   5   20.76    3.67 
  -4  -3   5   28.46    3.54 
  -3   7   5   30.69    3.87 
   7  -4   5   26.55    5.81 
  -4  -3   5   25.85    5.86 
  -3   7   5   21.57    5.86 
   7   0  -5   24.36    5.14 
   0  -7  -5   20.87    3.29 
  -7   7  -5   24.85    3.39 
  -7   7  -5   14.30    5.11 
  -7   0   5   23.84    5.59 
  -7   0   5   22.02    3.16 
  -7   0   5   18.98    3.30 
   0   7   5   16.90    6.08 
  -7  10  -5   14.18    4.74 
  -7  10  -5   15.07    2.95 
  -3  -7  -5   10.65    2.80 
 -10   3   5   11.90    2.95 
   7 -10   5   24.67    4.50 
 -10   3   5   21.18    5.60 
 -10   3   5   10.77    3.00 
   3   7   5    9.76    5.25 
  -7  13  -5   12.51    4.81 
  13  -6  -5   12.65    2.58 
  -7  13  -5   12.36    2.86 
  -6  -7  -5   12.55    2.76 
 -13   6   5   13.13    3.36 
 -13   6   5   12.05    3.02 
 -13   6   5    8.75    3.35 
   6   7   5   20.95    5.61 
   7 -13   5   16.55    4.52 
 -13   6   5    8.79    5.18 
  14  -8  -5    3.08    2.25 
  -8  -6  -5   -0.41    2.38 
  -6  14  -5    3.01    2.74 
  -6  14  -5   -6.13    4.09 
   8   6   5   -1.98    4.45 
 -14   8   5    3.06    2.76 
 -14   8   5   -0.43    3.18 
 -14   8   5    2.62    5.28 
   6 -14   5    4.51    3.59 
 -14   8   5    0.08    2.92 
  -3  11  -5   -2.30    2.42 
  11  -8  -5   -8.96    1.98 
  -3  11  -5   -4.65    4.64 
  11  -8  -5   -0.43    1.97 
  -8  -3  -5    4.46    2.50 
  -8  -3  -5    1.73    5.42 
 -11   8   5   -1.26    2.68 
 -11   8   5   -0.86    2.53 
   8   3   5   -3.25    4.10 
 -11   8   5    1.62    4.58 
 -11   8   5   -3.21    2.89 
  -8   0  -5    7.83    2.98 
   8  -8  -5    7.33    2.60 
   0   8  -5    9.06    2.50 
   8  -8  -5    4.80    4.19 
  -8   0  -5    3.68    4.74 
   8  -8  -5    7.74    2.42 
   0   8  -5    4.38    4.58 
  -8   8   5    8.31    3.07 
   8   0   5    6.45    4.73 
   0  -8   5   14.62    4.89 
  -8   8   5    3.79    4.78 
  -8   8   5   10.16    2.98 
  -8   8   5    7.73    3.24 
   3   5  -5   14.38    5.09 
  -8   3  -5   16.81    3.22 
  -8   3  -5   17.53    5.22 
   5  -8  -5   15.16    2.91 
  -3  -5   5   12.09    5.42 
  -5   8   5   17.71    3.30 
  -5   8   5    9.90    3.31 
  -5   8   5   24.13    3.24 
   8  -3   5   10.67    4.52 
  -5   8   5   17.43    6.00 
   8  -3   5   17.56    4.08 
   6   2  -5   -0.57    3.73 
  -8   6  -5    7.43    4.79 
   2  -8  -5   13.46    2.76 
  -8   6  -5    9.04    3.02 
  -2   8   5    9.80    5.65 
  -2   8   5    8.41    2.97 
  -6  -2   5    7.11    2.61 
   8  -6   5   14.33    4.03 
  -6  -2   5    9.19    4.87 
  -8   9  -5    0.93    4.23 
  -8   9  -5    1.90    2.59 
  -1  -8  -5   -0.56    2.31 
  -9   1   5    4.40    4.79 
   1   8   5    2.79    4.85 
   8  -9   5    7.04    3.59 
  -9   1   5    4.27    2.60 
  -9   1   5    2.10    2.39 
  12  -4  -5    4.02    2.36 
  -8  12  -5    3.99    4.43 
  -8  12  -5    1.71    2.52 
  -4  -8  -5    2.87    2.39 
   4   8   5    1.29    4.76 
 -12   4   5   -0.84    2.93 
 -12   4   5    0.39    2.87 
   8 -12   5   -3.21    3.18 
 -12   4   5    4.72    5.32 
  15  -7  -5   14.85    2.66 
  -7  -8  -5   14.63    3.03 
  -8  15  -5    9.57    2.80 
  -8  15  -5   17.04    5.60 
   7   8   5    7.60    5.11 
   8 -15   5    9.59    3.97 
 -15   7   5   -0.52    4.78 
 -15   7   5   10.94    3.14 
 -15   7   5    5.43    3.35 
 -15   7   5   13.10    3.35 
  -9  -7  -5    6.35    2.80 
  -7  16  -5    0.40    2.75 
  16  -9  -5    4.69    2.71 
 -16   9   5    1.08    3.41 
 -16   9   5    4.73    2.78 
 -16   9   5    5.26    4.94 
 -16   9   5    0.46    2.91 
  -4  13  -5    5.43    4.67 
  -9  -4  -5    8.75    2.87 
  13  -9  -5    6.69    2.62 
  -9  -4  -5    9.49    5.04 
  -4  13  -5    6.41    2.69 
 -13   9   5    0.05    2.74 
   9   4   5    6.64    5.27 
 -13   9   5    4.86    3.18 
 -13   9   5    7.54    2.64 
 -13   9   5    0.30    4.60 
  10  -9  -5   -0.46    2.19 
  -9  -1  -5    6.04    2.55 
  -1  10  -5   -3.58    4.09 
  -9  -1  -5    1.39    4.83 
  -1  10  -5    5.78    2.48 
   9   1   5    5.61    4.86 
 -10   9   5    2.92    3.03 
 -10   9   5    7.33    2.94 
 -10   9   5    3.56    4.74 
 -10   9   5    0.39    3.16 
  -9   2  -5    1.17    2.69 
   2   7  -5    1.87    4.72 
  -9   2  -5    0.45    4.74 
   9  -2   5    3.44    4.65 
   9  -2   5    8.90    3.34 
  -2  -7   5    3.11    4.75 
  -7   9   5    2.49    3.10 
  -7   9   5    5.26    3.06 
  -7   9   5   -1.92    2.83 
  -7   9   5   -2.52    5.21 
  -9   5  -5    3.74    4.51 
  -9   5  -5    2.08    2.56 
   5   4  -5    5.42    3.83 
  -5  -4   5    0.96    2.38 
  -4   9   5    0.61    4.83 
  -4   9   5    7.04    3.14 
  -5  -4   5    0.39    4.86 
  -4   9   5   -0.65    2.98 
   9  -5   5    6.65    3.55 
  -9   8  -5    5.01    2.88 
  -9   8  -5    9.29    5.02 
   1  -9  -5   -2.52    2.64 
  -8  -1   5    5.31    2.80 
  -8  -1   5    2.77    2.58 
  -8  -1   5    2.25    4.71 
   9  -8   5    6.25    3.65 
  -1   9   5   -2.05    4.56 
  -9  11  -5    3.78    4.78 
  -2  -9  -5    1.87    2.44 
  -9  11  -5    1.16    2.62 
   9 -11   5   -0.68    3.55 
 -11   2   5    1.28    2.64 
   2   9   5   14.43    5.72 
 -11   2   5    2.72    2.48 
 -11   2   5    5.85    5.01 
  -9  14  -5    2.28    4.93 
  14  -5  -5    4.20    2.39 
  -9  14  -5   -0.29    2.54 
  -5  -9  -5    1.31    2.41 
   5   9   5   -2.23    4.54 
 -14   5   5    3.29    5.42 
   9 -14   5    1.20    2.25 
 -14   5   5    4.21    3.11 
 -14   5   5    4.94    3.16 
 -14   5   5    5.10    3.23 
   9 -14   5    5.32    3.54 
  -9  17  -5   -0.39    2.51 
  17  -8  -5   -0.19    2.16 
  -8  -9  -5   -2.07    2.58 
 -17   8   5   -1.90    2.95 
 -17   8   5   -0.88    3.39 
 -17   8   5    1.83    3.19 
  18 -10  -5   -0.87    2.70 
 -10  -8  -5    5.15    2.61 
  -8  18  -5    7.77    2.87 
 -18  10   5   -0.08    2.80 
 -18  10   5    7.48    3.55 
 -18  10   5    8.12    3.43 
  15 -10  -5   20.92    3.36 
 -10  -5  -5   27.64    3.46 
  -5  15  -5   27.76    3.64 
 -15  10   5   26.68    3.97 
 -15  10   5    9.22    5.84 
  10   5   5   14.22    5.41 
 -15  10   5   29.87    4.12 
 -15  10   5   26.74    3.60 
   5 -15   5   23.02    4.87 
 -10  -2  -5   11.70    2.93 
  -2  12  -5    7.94    2.69 
  -2  12  -5    4.11    4.51 
  12 -10  -5    8.69    2.70 
 -10  -2  -5    5.48    5.12 
  10   2   5   17.76    5.00 
 -12  10   5    8.63    3.01 
 -12  10   5   10.35    2.76 
 -12  10   5    4.83    3.19 
 -12  10   5    2.60    4.69 
 -10   1  -5   -4.03    4.53 
   9 -10  -5    4.22    2.26 
 -10   1  -5    1.41    2.43 
   1   9  -5   -5.45    4.50 
  -9  10   5   -7.20    4.26 
  -9  10   5    2.94    2.70 
  -9  10   5    3.89    2.94 
  10  -1   5   -0.10    3.82 
  -9  10   5    0.89    2.57 
 -10   4  -5    6.55    5.44 
 -10   4  -5   18.56    3.36 
   4   6  -5   19.77    5.15 
  -6  10   5   20.57    3.44 
  -6  10   5    5.52    5.14 
  -4  -6   5   13.03    5.02 
  -6  10   5   23.67    3.56 
  10  -4   5   20.77    4.07 
 -10   7  -5   12.05    3.17 
 -10   7  -5    5.73    4.42 
  10  -7   5   14.21    3.90 
  -7  -3   5   10.20    2.79 
  -7  -3   5   10.23    5.56 
  -3  10   5    2.23    4.77 
  -3  10   5   13.06    3.28 
   0 -10  -5    7.41    2.93 
 -10  10  -5   12.82    4.73 
 -10  10  -5   12.51    2.94 
   0  10   5    9.88    5.43 
 -10   0   5    8.32    2.78 
 -10   0   5    8.30    2.64 
 -10   0   5   13.87    5.29 
  10 -10   5   12.37    3.82 
  13  -3  -5   10.95    2.57 
 -10  13  -5    3.67    4.48 
  -3 -10  -5   12.92    2.70 
 -10  13  -5    9.42    2.88 
 -13   3   5   11.90    3.27 
 -13   3   5   10.41    3.00 
 -13   3   5    7.73    5.74 
   3  10   5    4.64    4.73 
  10 -13   5   12.14    4.34 
  10 -13   5    8.43    2.63 
  16  -6  -5   10.51    2.66 
  -6 -10  -5    8.90    2.89 
 -10  16  -5    8.83    2.85 
 -16   6   5    3.12    3.53 
 -16   6   5    6.11    3.04 
 -16   6   5   11.27    3.25 
  19  -9  -5   -3.66    2.46 
 -10  19  -5   -5.37    2.32 
  -9 -10  -5   -1.16    2.19 
 -19   9   5    6.26    3.46 
 -19   9   5    4.39    3.15 
 -19   9   5    4.56    3.04 
  20 -11  -5    3.80    2.88 
  -9  20  -5    4.55    2.74 
 -20  11   5    8.91    3.59 
 -20  11   5    8.37    3.91 
 -20  11   5    0.30    2.89 
  -6  17  -5   -5.04    2.52 
 -11  -6  -5    2.15    2.55 
  17 -11  -5    1.82    2.75 
 -17  11   5    5.08    3.23 
 -17  11   5    4.46    2.75 
 -17  11   5    1.88    3.20 
  -3  14  -5    7.77    4.97 
 -11  -3  -5    9.09    5.62 
 -11  -3  -5    9.60    2.84 
  14 -11  -5   12.81    2.94 
 -14  11   5   12.07    3.36 
  11   3   5    4.77    4.55 
 -14  11   5    3.69    3.40 
 -14  11   5   13.56    2.89 
 -14  11   5   -3.95    4.90 
  11 -11  -5    2.09    2.22 
   0  11  -5    6.95    4.93 
 -11   0  -5    6.39    4.91 
 -11   0  -5    1.09    2.36 
 -11  11   5   -1.21    2.63 
  11   0   5   -0.70    4.08 
 -11  11   5    1.68    3.04 
 -11  11   5    5.37    2.63 
 -11  11   5   -2.05    4.94 
   8 -11  -5   -3.10    2.12 
 -11   3  -5   -0.53    2.41 
 -11   3  -5    4.77    5.24 
   3   8  -5    0.86    4.46 
  -8  11   5    2.83    2.63 
  -8  11   5   -4.11    3.22 
  11  -3   5   -0.81    4.42 
  -3  -8   5    6.08    4.36 
  -8  11   5   -1.00    2.71 
  -8  11   5    1.30    5.31 
 -11   6  -5    1.65    2.61 
 -11   6  -5    8.64    4.73 
   6   5  -5    0.28    4.34 
  -5  11   5   -0.29    5.19 
  -6  -5   5    6.26    2.58 
  11  -6   5    9.47    3.49 
  -6  -5   5    9.20    5.51 
  -5  11   5    5.03    3.08 
  -5  11   5    6.23    3.17 
 -11   9  -5    4.60    4.74 
 -11   9  -5    1.55    2.65 
  -9  -2   5    9.87    4.91 
  11  -9   5    5.00    3.24 
  -2  11   5   -3.09    5.16 
  -9  -2   5    7.05    2.61 
 -11  12  -5    4.03    2.72 
 -11  12  -5    0.84    4.19 
  -1 -11  -5    4.12    2.44 
  11 -12   5    7.39    3.91 
 -12   1   5    4.61    2.64 
   1  11   5   -1.24    4.64 
 -12   1   5    5.26    5.07 
  11 -12   5    0.62    2.40 
 -12   1   5    4.79    3.07 
  -4 -11  -5    4.13    2.37 
  15  -4  -5    3.58    2.40 
 -11  15  -5   -1.62    2.96 
  11 -15   5    3.44    2.46 
 -15   4   5    5.13    5.12 
   4  11   5   -1.64    5.29 
  11 -15   5    6.19    4.08 
 -15   4   5    8.04    2.99 
 -15   4   5    9.13    3.03 
 -11  18  -5    3.27    2.63 
  -7 -11  -5    2.90    2.51 
  18  -7  -5   -1.33    2.37 
 -18   7   5    5.13    3.71 
 -18   7   5    0.87    3.45 
 -18   7   5    0.44    2.97 
  21 -10  -5   -0.75    2.51 
 -11  21  -5    1.81    2.66 
 -21  10   5    6.59    4.01 
 -21  10   5   -1.90    3.22 
 -21  10   5   -4.25    3.12 
 -10  22  -5    1.63    2.75 
  22 -12  -5    1.65    2.87 
 -22  12   5    0.49    3.91 
 -22  12   5    1.86    2.97 
 -22  12   5    8.86    3.37 
  -7  19  -5    1.85    2.47 
  19 -12  -5    4.30    2.60 
 -19  12   5    2.49    3.08 
 -19  12   5   -0.28    3.29 
 -19  12   5    1.05    3.34 
  16 -12  -5    4.06    2.51 
 -12  -4  -5    0.04    2.57 
 -16  12   5   -3.49    4.37 
 -16  12   5    4.72    3.40 
 -16  12   5    2.81    2.96 
 -16  12   5    4.93    2.94 
 -12  -1  -5    0.91    2.28 
  13 -12  -5    4.34    2.34 
 -12  -1  -5    3.25    4.68 
  -1  13  -5    0.33    4.62 
 -13  12   5    0.36    2.52 
 -13  12   5   -0.12    3.14 
 -13  12   5    0.61    2.65 
  12   1   5   -1.19    4.57 
 -13  12   5   -2.66    4.44 
 -12   2  -5   14.35    2.79 
 -12   2  -5    9.99    4.98 
   2  10  -5    6.68    4.54 
  10 -12  -5   10.63    2.54 
 -10  12   5    5.55    3.22 
 -10  12   5    9.09    2.81 
  12  -2   5    9.46    4.39 
 -10  12   5   10.90    3.67 
 -10  12   5    1.61    5.34 
 -12   5  -5    7.68    4.60 
   5   7  -5   18.70    4.69 
 -12   5  -5    8.50    2.85 
  -7  12   5    3.75    4.94 
  -7  12   5    9.24    3.23 
  -5  -7   5   10.30    4.86 
  12  -5   5   10.10    3.64 
  -7  12   5   10.04    2.92 
 -12   8  -5   -1.47    4.06 
 -12   8  -5   -0.88    2.55 
 -12   8  -5    2.68    3.50 
  -8  -4   5    3.81    2.74 
  -4  12   5   -4.77    4.40 
  -4  12   5    2.24    2.81 
  12  -8   5    5.25    3.65 
  -8  -4   5    3.67    4.68 
 -12  11  -5    0.89    4.62 
 -12  11  -5    9.61    3.19 
  -1  12   5    0.27    5.02 
 -11  -1   5   17.33    5.48 
  12 -11   5    2.71    2.50 
  12 -11   5    0.55    3.69 
 -11  -1   5    1.73    2.69 
 -12  14  -5    5.01    4.44 
  -2 -12  -5    3.61    2.70 
  14  -2  -5    5.65    2.31 
 -12  14  -5   -2.93    2.96 
  12 -14   5   -1.24    2.40 
  12 -14   5    0.31    3.76 
   2  12   5    0.43    5.26 
 -14   2   5   -4.18    2.67 
 -14   2   5   -0.35    4.82 
 -14   2   5   -1.48    3.05 
  -5 -12  -5    0.68    2.55 
  17  -5  -5    0.07    1.99 
 -12  17  -5   -2.09    2.64 
 -17   5   5    2.92    3.15 
 -17   5   5    4.79    3.04 
 -17   5   5    4.70    3.45 
 -12  20  -5    8.45    3.02 
  20  -8  -5    0.81    2.47 
  -8 -12  -5   -0.44    2.50 
 -20   8   5    1.11    3.64 
 -20   8   5   -4.91    3.38 
 -20   8   5    1.72    3.17 
 -12  23  -5    1.53    2.82 
  23 -11  -5   -0.88    2.66 
 -23  11   5    0.95    3.64 
 -23  11   5    4.23    3.34 
 -23  11   5    2.39    3.38 
  -8  21  -5    2.43    2.53 
  21 -13  -5   -1.05    2.53 
 -21  13   5    3.02    3.34 
 -21  13   5   -3.67    3.66 
 -21  13   5    3.54    3.17 
  18 -13  -5    9.82    3.12 
 -18  13   5    7.29    3.66 
 -18  13   5   11.79    3.25 
 -18  13   5    4.90    3.30 
  13   5   5    6.77    2.34 
  15 -13  -5   30.72    3.81 
 -13  -2  -5   26.46    3.62 
 -15  13   5   27.37    3.90 
 -15  13   5   24.30    4.23 
 -15  13   5   25.53    3.64 
  13   2   5   33.56    6.42 
 -15  13   5    9.07    5.96 
  12 -13  -5    0.44    2.16 
 -13   1  -5    3.66    4.68 
   1  12  -5    8.26    4.93 
 -13   1  -5   -1.08    2.59 
 -12  13   5    0.91    2.80 
 -12  13   5   -2.00    4.57 
 -12  13   5   -2.66    2.67 
 -12  13   5    3.67    3.17 
  13  -1   5   -1.20    3.99 
   4   9  -5    5.34    4.78 
 -13   4  -5    6.86    2.94 
 -13   4  -5   -1.93    4.66 
   9 -13  -5    6.18    2.34 
  -9  13   5    5.98    2.88 
  -9  13   5   11.12    3.08 
  -9  13   5    2.22    3.17 
  -4  -9   5   14.19    5.33 
  -9  13   5    1.51    4.60 
 -13   7  -5   17.27    4.12 
 -13   7  -5   13.91    3.07 
 -13   7  -5   14.30    4.86 
  -6  13   5   15.79    3.57 
  -7  -6   5   10.21    5.11 
  13  -7   5    7.82    3.83 
  13  -7   5   14.64    2.75 
  -6  13   5   15.73    3.21 
  -6  13   5    3.88    5.48 
 -13  10  -5    9.59    4.49 
 -13  10  -5    9.95    3.66 
 -13  10  -5    7.93    2.87 
  -3  13   5    6.54    5.22 
  13 -10   5    9.80    2.54 
 -10  -3   5    8.98    2.78 
 -10  -3   5   12.81    5.75 
  13 -10   5    6.51    3.51 
 -13  13  -5   17.29    3.29 
 -13  13  -5   16.37    5.23 
   0 -13  -5   10.67    2.83 
   0  13   5   11.98    5.36 
 -13   0   5   20.80    3.56 
  13 -13   5   10.39    4.08 
 -13   0   5   13.91    5.66 
 -13   0   5   13.56    3.03 
  13 -13   5   13.67    2.75 
  -3 -13  -5   12.59    2.69 
 -13  16  -5    9.25    3.06 
  13 -16   5    7.51    2.71 
 -16   3   5   13.31    3.61 
 -16   3   5    5.04    3.11 
  -6 -13  -5    4.20    2.56 
  19  -6  -5    0.01    2.28 
 -13  19  -5   -0.09    2.61 
 -19   6   5   -2.09    3.44 
 -19   6   5    2.20    3.78 
 -19   6   5    3.67    3.67 
  22  -9  -5    0.22    2.48 
 -13  22  -5    3.34    2.54 
 -22   9   5    5.74    3.73 
 -22   9   5    4.60    3.71 
 -22   9   5    4.95    3.43 
  23 -14  -5   10.96    3.18 
 -23  14   5   11.50    3.18 
 -23  14   5    8.21    3.71 
 -23  14   5    2.79    3.48 
  20 -14  -5   19.29    3.36 
 -20  14   5   18.78    3.78 
 -20  14   5   12.18    3.98 
 -20  14   5   15.52    3.48 
 -14  -3  -5   11.33    2.90 
  17 -14  -5   16.21    3.15 
 -17  14   5   18.73    3.99 
 -17  14   5   17.35    3.13 
 -17  14   5   18.62    3.67 
  14   3   5   13.30    2.80 
  14 -14  -5   37.83    4.51 
 -14   0  -5   45.01    4.73 
 -14  14   5   33.12    4.92 
  14   0   5   37.66    6.53 
 -14  14   5   28.71    6.60 
 -14  14   5   42.45    4.75 
  14   0   5   42.83    4.45 
 -14  14   5   46.44    4.99 
   3  11  -5   17.08    5.18 
 -14   3  -5    1.40    5.16 
  11 -14  -5    9.88    2.61 
 -14   3  -5   10.99    2.87 
 -11  14   5    8.59    4.69 
  14  -3   5   14.06    2.83 
 -11  14   5    6.89    2.84 
 -11  14   5   13.90    3.81 
 -11  14   5   14.20    3.13 
 -14   6  -5    1.90    2.97 
 -14   6  -5    2.91    4.97 
  14  -6   5    2.62    3.61 
  -8  14   5   -4.53    4.78 
  -8  14   5    0.55    2.70 
  -6  -8   5    2.02    4.51 
  -8  14   5    5.17    3.17 
  14  -6   5    3.49    2.26 
 -14   9  -5    2.65    3.58 
 -14   9  -5    1.58    3.03 
 -14   9  -5    3.13    4.20 
  14  -9   5    0.02    2.25 
  -5  14   5   -3.40    4.44 
  -9  -5   5   -0.78    5.07 
  -9  -5   5    1.28    2.77 
  -5  14   5    1.96    2.66 
  14  -9   5    2.04    3.65 
 -14  12  -5    4.81    2.81 
 -14  12  -5    4.62    3.72 
 -14  12  -5    5.20    4.23 
 -12  -2   5    6.49    3.11 
 -12  -2   5   -4.19    4.76 
  14 -12   5   -0.44    3.83 
  14 -12   5    0.01    2.21 
  -2  14   5   -0.48    4.66 
  -1 -14  -5    6.55    2.76 
 -14  15  -5   -0.64    3.08 
  14 -15   5    2.47    2.50 
 -15   1   5    6.96    3.22 
  -4 -14  -5    4.72    2.63 
 -14  18  -5    1.70    3.06 
 -18   4   5   -2.36    3.21 
  21  -7  -5    0.48    2.27 
 -14  21  -5    1.77    2.77 
 -21   7   5    4.90    3.61 
 -21   7   5   -2.99    3.31 
 -21   7   5   -1.03    3.85 
  22 -15  -5   13.96    3.36 
 -22  15   5   13.40    4.07 
 -22  15   5    9.60    3.42 
 -22  15   5   14.98    3.46 
  19 -15  -5    9.19    3.21 
 -19  15   5    7.37    3.09 
 -19  15   5   12.32    3.23 
  15   4   5    6.18    2.43 
 -19  15   5   13.03    3.98 
  16 -15  -5    3.93    2.86 
 -15  -1  -5    1.74    2.56 
  15   1   5    2.77    2.18 
 -16  15   5    9.38    2.71 
 -16  15   5    3.49    3.24 
 -16  15   5    2.07    3.31 
  13 -15  -5   33.97    3.89 
 -15   2  -5   31.70    4.11 
  15  -2   5   33.32    3.81 
 -13  15   5   28.99    3.87 
 -13  15   5   33.54    4.39 
 -13  15   5   33.83    4.46 
 -13  15   5   10.26    5.50 
 -15   5  -5   10.97    5.49 
 -15   5  -5   25.91    3.90 
  10 -15  -5   23.53    3.42 
 -10  15   5   30.86    4.23 
 -10  15   5   19.25    6.08 
 -10  15   5   28.26    3.71 
  -5 -10   5   22.44    6.15 
  15  -5   5   28.12    3.68 
 -10  15   5   28.24    4.15 
 -15   8  -5    7.89    4.72 
 -15   8  -5    8.41    4.10 
 -15   8  -5   16.55    3.35 
  15  -8   5    6.84    3.69 
  15  -8   5   13.18    2.92 
  -7  15   5   12.97    3.04 
  -7  15   5    7.32    4.95 
  -8  -7   5    7.85    5.01 
 -15  11  -5   11.60    4.60 
 -15  11  -5   -8.19    3.49 
 -15  11  -5    6.27    3.16 
  -4  15   5   -2.30    4.61 
 -11  -4   5    6.68    3.07 
  15 -11   5    6.49    2.70 
  15 -11   5    7.59    3.65 
 -11  -4   5   11.26    5.50 
  -4  15   5    0.79    2.80 
 -15  14  -5    5.65    4.12 
 -15  14  -5    2.00    3.23 
  15 -14   5    2.05    2.59 
 -15  17  -5    0.16    2.77 
  -2 -15  -5   -2.19    2.55 
  15 -17   5   -0.55    2.45 
 -17   2   5    3.08    3.34 
 -15  20  -5   -4.49    2.61 
  -5 -15  -5    4.69    2.54 
 -20   5   5   -3.16    3.50 
 -20   5   5    7.34    3.53 
 -15  23  -5   -0.18    2.90 
 -23   8   5    3.96    3.27 
 -23   8   5    2.99    3.62 
 -23   8   5    3.22    3.86 
  21 -16  -5    3.21    3.08 
 -21  16   5    2.71    2.95 
 -21  16   5    2.12    3.15 
 -21  16   5    3.90    4.18 
  18 -16  -5    4.40    2.97 
 -18  16   5    0.91    2.58 
 -18  16   5    0.29    3.78 
 -18  16   5    1.15    2.86 
  16   2   5   -1.80    2.19 
 -16   1  -5    6.85    2.75 
  15 -16  -5    8.00    2.87 
  16  -1   5    5.19    2.54 
 -15  16   5    6.35    3.85 
 -15  16   5   10.11    3.03 
 -15  16   5    2.06    2.85 
 -16   4  -5    0.17    2.74 
  12 -16  -5    0.14    2.56 
 -12  16   5    5.25    3.29 
 -12  16   5    3.70    3.37 
  16  -4   5    4.81    2.61 
 -12  16   5   -0.24    5.03 
 -12  16   5    1.26    2.88 
 -16   7  -5    0.32    3.85 
 -16   7  -5    3.09    3.06 
  -7  -9   5    7.22    5.40 
  -9  16   5    8.87    3.14 
  -9  16   5   -0.43    4.39 
  16  -7   5    9.57    2.72 
  -9  16   5    4.44    3.31 
 -16  10  -5   10.78    4.12 
 -16  10  -5   14.12    3.06 
  -6  16   5   11.24    3.08 
  -6  16   5   -0.36    5.23 
  16 -10   5    8.48    2.88 
  16 -10   5    3.92    3.70 
 -10  -6   5   14.70    5.75 
 -10  -6   5    9.50    3.14 
 -16  13  -5    8.45    3.08 
 -16  13  -5    8.06    3.91 
  16 -13   5    7.63    2.60 
 -16  16  -5    6.14    2.98 
  16 -16   5    9.25    2.55 
 -16   0   5    2.65    3.42 
  -3 -16  -5    4.24    2.40 
 -16  19  -5   -4.74    2.87 
 -19   3   5    6.19    3.38 
  16 -19   5    2.73    2.59 
 -16  22  -5   -0.37    2.88 
 -22   6   5    2.35    3.87 
 -22   6   5    3.89    3.91 
  20 -17  -5    1.70    3.05 
 -20  17   5    1.36    4.10 
 -20  17   5    3.98    2.84 
 -20  17   5    6.06    2.97 
  17 -17  -5    8.83    2.89 
 -17  17   5    4.51    2.79 
 -17  17   5    1.52    2.88 
 -17  17   5    4.21    3.49 
  17   0   5    9.48    2.41 
  14 -17  -5   15.31    3.17 
 -17   3  -5   15.79    3.33 
  17  -3   5   21.71    3.20 
 -14  17   5   17.88    3.42 
 -14  17   5   22.49    4.25 
 -14  17   5    7.88    3.02 
 -17   6  -5   -3.84    3.90 
  11 -17  -5   10.52    2.68 
 -17   6  -5    3.84    2.67 
 -11  17   5    1.94    2.91 
  17  -6   5    5.96    2.47 
 -11  17   5    4.96    3.71 
 -17   9  -5   -0.44    2.95 
 -17   9  -5   -3.87    3.93 
  17  -9   5    0.16    2.36 
  -8  17   5    0.88    2.98 
 -17  12  -5    0.60    2.81 
 -17  12  -5    5.01    3.95 
  17 -12   5    5.35    2.73 
  -5  17   5   -1.76    2.82 
 -17  15  -5    0.75    3.89 
 -17  15  -5    1.77    2.88 
  17 -15   5    0.84    2.68 
 -17  18  -5   -3.78    2.74 
  -1 -17  -5    1.54    2.57 
  17 -18   5    6.41    2.76 
 -18   1   5   -0.04    3.36 
 -17  21  -5    6.61    3.07 
  -4 -17  -5    2.12    2.43 
 -21   4   5    2.43    3.92 
 -21   4   5   10.39    3.91 
  22 -18  -5   -2.51    2.89 
 -22  18   5    0.02    3.18 
 -22  18   5    1.24    2.77 
 -22  18   5   -2.80    3.67 
  19 -18  -5    2.30    2.91 
 -19  18   5   -1.14    2.78 
 -19  18   5   -2.40    2.76 
 -19  18   5    3.26    3.44 
  18   1   5    1.78    2.33 
  16 -18  -5   -0.10    2.76 
 -16  18   5    0.41    3.83 
  18  -2   5    2.34    2.58 
 -16  18   5    2.00    2.84 
 -16  18   5    3.21    2.85 
  13 -18  -5    6.12    2.75 
 -18   5  -5    6.94    3.01 
 -13  18   5    7.39    3.45 
 -13  18   5    7.54    3.07 
  18  -5   5    9.36    2.59 
 -13  18   5    6.64    2.96 
 -18   8  -5   -1.66    3.01 
 -18   8  -5    7.36    4.23 
  18  -8   5    2.62    2.46 
 -10  18   5    2.39    3.54 
 -18  11  -5   -1.61    3.88 
 -18  11  -5    5.66    3.16 
  18 -11   5    1.81    2.68 
  -7  18   5    4.17    2.93 
 -18  14  -5   -0.43    2.87 
 -18  14  -5    0.82    3.90 
  18 -14   5    2.58    2.44 
  -4  18   5    0.28    3.09 
 -18  17  -5    0.96    3.81 
 -18  17  -5    0.93    3.20 
  18 -17   5   -0.86    2.69 
  -2 -18  -5    1.43    2.47 
 -18  20  -5    0.80    2.95 
  18 -20   5    0.73    2.54 
 -20   2   5    8.04    3.67 
  21 -19  -5    4.28    3.04 
 -21  19   5   10.40    3.26 
 -21  19   5    5.73    2.89 
 -21  19   5   10.24    3.81 
  18 -19  -5    7.10    2.94 
 -18  19   5    4.77    3.17 
  19  -1   5    7.78    2.58 
 -18  19   5    3.66    2.74 
 -18  19   5    3.62    3.60 
  15 -19  -5   12.30    2.76 
 -15  19   5    9.08    3.14 
 -15  19   5    9.89    3.99 
 -15  19   5    7.66    3.06 
  19  -4   5   12.97    2.91 
  12 -19  -5    3.10    2.30 
 -19   7  -5    1.71    2.87 
 -19   7  -5    2.76    4.37 
 -12  19   5   -1.75    3.42 
  19  -7   5    7.28    2.79 
 -12  19   5   -1.00    2.82 
 -19  10  -5    3.61    3.08 
 -19  10  -5   -0.48    4.17 
  19 -10   5    3.03    2.72 
  -9  19   5    2.88    2.89 
 -19  13  -5    4.42    4.26 
 -19  13  -5   -0.78    2.79 
  -6  19   5   -1.93    2.93 
  19 -13   5   -3.87    2.61 
 -19  16  -5    0.03    4.06 
 -19  16  -5   -3.28    2.84 
  19 -16   5   -4.14    2.75 
 -19  19  -5   -2.26    3.77 
 -19  19  -5   -3.20    2.95 
  19 -19   5    1.32    2.64 
  20 -20  -5   23.52    3.81 
 -20  20   5   24.31    3.58 
 -20  20   5   20.05    4.63 
  20   0   5   25.80    3.41 
 -20  20   5   20.75    3.89 
  17 -20  -5    5.62    2.59 
 -17  20   5    2.75    3.05 
 -17  20   5    5.75    2.93 
 -17  20   5    6.92    3.62 
  20  -3   5   11.78    2.76 
 -20   6  -5   13.14    3.30 
 -20   6  -5   18.04    4.83 
  14 -20  -5   17.15    2.97 
 -14  20   5   19.11    3.86 
 -14  20   5   14.22    3.41 
  20  -6   5   17.41    3.29 
 -20   9  -5    5.54    4.34 
 -20   9  -5    3.37    2.97 
  20  -9   5    6.87    2.89 
 -20  12  -5    1.82    2.79 
 -20  12  -5   -1.56    4.28 
  20 -12   5    0.01    2.42 
  -8  20   5   -0.90    3.01 
 -20  15  -5    1.89    4.07 
 -20  15  -5   -3.12    2.72 
  20 -15   5   -1.92    2.71 
  -5  20   5    2.28    3.08 
 -20  18  -5    2.58    2.82 
 -20  18  -5    4.73    4.20 
  20 -18   5    4.83    2.83 
 -20  21  -5    2.72    3.08 
  -1 -20  -5   -3.17    2.46 
  20 -21   5    1.07    2.75 
  19 -21  -5    7.82    2.96 
 -19  21   5    1.51    2.79 
  21  -2   5    3.50    2.51 
 -19  21   5    5.08    3.62 
  16 -21  -5   -0.69    2.50 
 -21   5  -5    2.34    4.27 
 -16  21   5   -0.68    3.46 
  21  -5   5   -3.02    2.22 
 -16  21   5   -3.69    2.78 
 -21   8  -5   -3.30    2.46 
  13 -21  -5    2.95    2.48 
 -21   8  -5   -2.70    4.20 
  21  -8   5   -2.60    2.31 
 -13  21   5    1.91    3.56 
 -21  11  -5    0.24    2.94 
 -21  11  -5    2.64    4.35 
  21 -11   5   -1.57    2.74 
 -10  21   5    3.33    2.95 
 -21  14  -5   -0.56    3.00 
 -21  14  -5    1.57    4.18 
  21 -14   5    1.73    2.88 
  -7  21   5    5.74    3.13 
 -21  17  -5    1.71    2.74 
 -21  17  -5    5.93    4.32 
  21 -17   5   -0.63    2.65 
  -4  21   5    4.89    3.10 
 -21  20  -5    1.41    2.65 
 -21  20  -5    1.21    4.09 
  21 -20   5   -4.98    2.69 
 -22   4  -5    2.26    4.17 
  18 -22  -5    0.41    2.32 
 -18  22   5   -2.51    3.64 
  22  -4   5    3.05    2.51 
 -18  22   5    1.49    2.68 
  15 -22  -5   12.12    2.82 
 -22   7  -5   17.66    4.77 
 -15  22   5    7.86    3.80 
  22  -7   5   11.51    2.86 
 -22  10  -5    2.10    2.90 
 -22  10  -5    1.91    4.16 
  22 -10   5    4.82    2.84 
 -22  13  -5   -3.29    2.56 
 -22  13  -5    1.99    4.40 
  -9  22   5    2.63    3.10 
  22 -13   5    1.73    2.56 
 -22  16  -5    0.87    4.32 
 -22  16  -5   -2.74    2.94 
  22 -16   5    0.31    2.91 
  -6  22   5   -2.21    3.04 
  14 -23  -5   11.49    2.68 
 -23   9  -5   15.01    4.80 
  23  -9   5    8.96    3.13 
 -23  12  -5    7.03    4.58 
 -23  12  -5    7.29    3.00 
  23 -12   5    4.91    2.88 
 -11  23   5    2.34    3.11 
 -23  15  -5    2.92    3.00 
 -23  15  -5    6.51    4.22 
  23 -15   5    4.00    3.01 
  -8  23   5   -1.59    3.09 
   0   0  -6   70.48    6.77 
   0   0   6   64.29    6.57 
  -1   2  -6   12.58    2.77 
   2  -1  -6   12.92    3.08 
  -1  -1  -6   11.29    2.89 
  -2   1   6   15.26    3.12 
   1   1   6    5.93    5.07 
   1  -2   6    7.85    5.05 
   1  -2   6   10.07    2.67 
  -2   1   6    6.98    5.75 
   1   1  -6   17.69    3.12 
   1  -2  -6   14.21    2.94 
  -2   1  -6   14.76    3.27 
  -1  -1   6   13.16    3.00 
  -1   2   6   17.25    3.27 
  -1  -1   6    3.45    5.56 
  -1   2   6    4.78    5.07 
   2  -1   6    5.88    5.57 
  -2   4  -6   10.08    2.91 
   4  -2  -6   11.49    2.87 
  -2  -2  -6   10.25    3.13 
   2  -4   6    2.89    4.71 
  -4   2   6    7.73    2.73 
   2   2   6    2.06    5.62 
   0   3  -6   38.87    4.32 
  -3   0  -6   37.46    4.54 
   3  -3  -6   32.74    4.33 
  -3   3   6   43.78    4.53 
   0  -3   6   29.14    6.43 
   3   0   6   18.46    6.01 
   0  -3  -6   39.57    4.49 
  -3   3  -6   45.83    4.64 
   3   0  -6   34.36    4.22 
   0   3   6   26.02    6.76 
  -3   0   6   38.86    4.30 
   0   3   6   47.67    4.52 
   3  -3   6   27.92    6.33 
  -3   0   6   20.68    6.76 
  -3   6  -6   11.59    3.26 
   6  -3  -6   10.65    2.93 
  -3  -3  -6   17.96    3.17 
  -6   3   6   10.78    3.14 
   5  -4  -6    5.08    2.46 
  -1   5  -6    0.64    2.78 
  -4  -1  -6    4.42    2.76 
  -5   4   6    6.30    2.73 
   1  -5   6    0.59    5.06 
  -4   2  -6   13.28    2.88 
   2  -4  -6   10.14    2.76 
   2   2  -6    8.33    2.47 
  -2   4   6    5.99    3.12 
  -2  -2   6    7.36    2.68 
  -2  -2   6    6.60    4.99 
   4  -2   6    6.95    5.31 
  -1  -4  -6    1.63    2.96 
   5  -1  -6    7.77    2.40 
  -4   5  -6    1.65    2.97 
  -5   1   6    3.78    2.80 
  -4   8  -6    1.10    2.53 
  -4  -4  -6    4.42    2.98 
   8  -4  -6   -2.38    2.34 
  -8   4   6    0.26    3.01 
  -8   4   6    0.31    2.52 
  -5  -2  -6    4.85    2.76 
  -2   7  -6    4.19    2.78 
   7  -5  -6    2.54    2.31 
  -7   5   6    3.01    2.97 
   1   4  -6    4.03    2.70 
  -5   1  -6    3.07    2.86 
   4  -5  -6    2.67    2.73 
  -1  -4   6   -7.18    4.58 
   5  -1   6   -3.70    4.23 
  -4   5   6    5.59    2.74 
  -5   4  -6    0.46    2.63 
   4   1  -6    5.96    2.39 
   1  -5  -6    7.98    2.74 
  -4  -1   6    0.25    2.37 
  -5   7  -6    8.19    3.12 
  -2  -5  -6    4.37    3.05 
  -7   2   6    4.22    2.89 
  -7   2   6    3.03    2.85 
  -5  -5  -6    1.91    2.95 
  -5  10  -6    0.41    2.92 
 -10   5   6    3.84    3.09 
 -10   5   6    2.60    2.88 
   9  -6  -6    0.89    2.45 
  -6  -3  -6    5.44    2.73 
  -3   9  -6    0.78    2.80 
  -9   6   6    1.44    2.85 
  -9   6   6    0.62    2.87 
  -6   0  -6    7.30    2.83 
   0   6  -6    9.60    2.69 
   6  -6  -6    8.64    2.63 
  -6   6   6   16.19    3.08 
  -6   3  -6   13.51    3.05 
   3  -6  -6   10.84    2.88 
   3   3  -6   15.11    2.99 
  -3   6   6   10.87    3.12 
   6  -3   6   23.52    4.92 
  -3  -3   6   12.81    2.81 
  -6   6  -6    8.49    2.91 
   0  -6  -6    8.12    2.87 
  -6   0   6    9.15    2.93 
  -6   9  -6    4.25    2.73 
  -3  -6  -6    0.66    2.69 
  -9   3   6    2.13    3.02 
  -9   3   6    6.32    2.98 
  -6  12  -6   -0.29    2.58 
  -6  -6  -6    4.90    2.68 
 -12   6   6   -0.79    2.84 
 -12   6   6    2.24    3.13 
  -4  11  -6    1.50    2.85 
  -7  -4  -6   -0.51    2.66 
 -11   7   6    1.88    2.95 
 -11   7   6    5.95    3.21 
  -1   8  -6   -0.82    2.67 
  -7  -1  -6   -0.27    2.91 
   8  -7  -6    0.70    2.49 
  -8   7   6   -1.62    2.86 
   5  -7  -6    7.87    2.81 
  -7   2  -6    1.79    2.97 
   2   5  -6   -0.06    2.61 
  -5   7   6    3.79    2.77 
   2  -7  -6    3.18    2.56 
  -7   5  -6    0.63    3.10 
  -5  -2   6    4.21    2.55 
  -1  -7  -6   -0.78    2.88 
  -7   8  -6    4.02    2.79 
  -8   1   6   -6.04    2.39 
  -8   1   6    3.17    2.70 
  -4  -7  -6   -1.85    2.94 
  -7  11  -6   -3.76    2.55 
 -11   4   6    1.87    2.97 
 -11   4   6   -4.33    2.57 
  -7  14  -6   14.79    3.24 
  -7  -7  -6    5.98    2.95 
 -14   7   6   -1.17    2.76 
 -14   7   6    2.03    2.95 
  -5  13  -6   -0.21    2.74 
  -8  -5  -6    1.82    2.95 
 -13   8   6    1.61    3.06 
 -13   8   6    5.83    3.21 
  -2  10  -6    1.80    2.75 
  10  -8  -6   -0.18    2.15 
  -8  -2  -6    6.22    3.07 
 -10   8   6    0.99    2.66 
 -10   8   6    2.70    2.95 
   7  -8  -6    0.32    2.60 
  -8   1  -6   -0.93    2.87 
  -7   8   6    1.83    3.02 
  -8   4  -6   -0.47    2.78 
   4  -8  -6   -4.98    2.41 
  -4   8   6    0.22    2.82 
   1  -8  -6    3.98    2.72 
  -8   7  -6   -2.29    3.07 
  -7  -1   6    5.89    2.51 
  -2  -8  -6    1.93    2.86 
  -8  10  -6    3.72    2.82 
 -10   2   6    4.65    2.67 
 -10   2   6    5.41    2.90 
  -5  -8  -6    0.03    2.59 
  -8  13  -6    7.97    3.23 
 -13   5   6    2.42    2.85 
 -13   5   6    0.03    3.05 
  -8  -8  -6   -3.78    2.62 
  -8  16  -6   -3.83    2.45 
 -16   8   6   -0.88    3.27 
 -16   8   6    1.04    3.16 
  -9  -6  -6    9.55    2.98 
  -6  15  -6   11.20    3.06 
 -15   9   6   10.87    3.48 
 -15   9   6    5.23    2.96 
  -9  -3  -6   -0.01    2.56 
  -3  12  -6    3.28    2.73 
 -12   9   6   -1.74    2.94 
 -12   9   6   -3.27    2.80 
  -9   0  -6    2.86    2.61 
   9  -9  -6   -2.04    2.22 
  -9   9   6    4.22    3.06 
   6  -9  -6   -1.66    2.72 
  -9   3  -6    0.41    2.74 
  -6   9   6   -1.50    3.02 
  -9   6  -6    4.21    3.24 
   3  -9  -6    1.86    2.56 
  -6  -3   6    5.64    2.69 
  -9   9  -6    6.68    3.33 
   0  -9  -6    7.91    3.06 
  -9   0   6    4.87    2.97 
  -9  12  -6   -2.02    2.98 
  -3  -9  -6    0.80    2.91 
   9 -12   6    2.05    2.53 
 -12   3   6   -1.74    2.98 
 -12   3   6    1.73    3.03 
  -9  15  -6    1.10    2.68 
  -6  -9  -6    3.33    2.83 
 -15   6   6    3.80    3.32 
 -15   6   6    0.19    3.10 
 -10  -7  -6    7.12    2.87 
  -7  17  -6    9.00    2.97 
 -17  10   6   11.58    3.48 
 -17  10   6    3.50    3.48 
 -17  10   6    5.62    2.90 
 -10  -4  -6   10.27    2.99 
 -14  10   6    3.99    3.51 
 -14  10   6   10.58    3.17 
 -14  10   6    7.19    3.38 
 -10  -1  -6    5.99    2.94 
  11 -10  -6   -2.91    2.11 
 -11  10   6    3.79    3.24 
 -11  10   6    0.48    2.70 
 -11  10   6    2.01    3.60 
 -10   2  -6   -3.62    2.66 
   8 -10  -6    3.36    2.66 
  -8  10   6   -0.17    2.73 
   5 -10  -6    5.92    2.84 
 -10   5  -6    4.08    3.15 
  -5  10   6    6.60    3.35 
   2 -10  -6   -3.01    2.68 
 -10   8  -6    5.95    3.25 
  -8  -2   6    0.46    2.66 
  -1 -10  -6   -1.47    2.48 
 -10  11  -6   -1.09    3.13 
  10 -11   6    0.51    2.52 
 -11   1   6    4.23    3.07 
 -10  14  -6    3.00    3.17 
  -4 -10  -6   -1.83    2.80 
 -14   4   6    6.05    3.29 
 -14   4   6   -2.02    3.12 
  10 -14   6    2.28    2.38 
 -10  17  -6   12.40    3.36 
  -7 -10  -6    5.59    2.68 
 -17   7   6   12.78    3.46 
 -17   7   6    8.89    3.59 
 -11  -5  -6    0.71    2.64 
 -16  11   6   -1.14    3.18 
 -16  11   6    0.37    3.06 
 -16  11   6   -0.39    3.42 
 -11  -2  -6    1.17    2.58 
 -13  11   6    1.75    2.88 
 -13  11   6    4.75    2.93 
 -13  11   6    6.12    3.44 
  10 -11  -6    1.09    2.60 
 -11   1  -6   -3.97    2.61 
 -10  11   6   -0.54    3.13 
 -10  11   6   -0.75    3.03 
   7 -11  -6    1.87    2.51 
 -11   4  -6    5.67    3.33 
  -7  11   6    2.88    3.09 
   4 -11  -6    6.85    2.97 
 -11   7  -6   -3.71    2.78 
 -11  10  -6    1.84    3.23 
   1 -11  -6   -1.98    2.78 
  11 -10   6   -1.34    2.61 
 -10  -1   6   -2.63    2.88 
 -11  13  -6    2.42    3.20 
  -2 -11  -6    0.90    2.88 
 -13   2   6    2.43    3.22 
  11 -13   6   -0.60    2.49 
 -13   2   6    1.14    3.07 
  -5 -11  -6    5.14    2.75 
 -11  16  -6    2.93    2.81 
 -16   5   6    5.24    3.36 
 -16   5   6   -2.07    2.83 
 -12  -3  -6    1.38    2.73 
 -15  12   6    3.39    3.41 
 -15  12   6    8.05    3.08 
 -15  12   6   10.04    3.40 
 -12   0  -6    1.06    2.99 
  12 -12  -6   -1.85    2.44 
 -12  12   6   -2.32    2.88 
 -12  12   6   -0.57    3.03 
 -12  12   6    1.53    3.24 
 -12   3  -6    0.34    2.81 
   9 -12  -6    1.72    2.71 
  -9  12   6   -4.65    2.85 
  -9  12   6   -0.04    3.10 
 -12   6  -6    2.07    2.85 
   6 -12  -6    3.45    2.59 
 -12   9  -6    7.71    3.35 
   3 -12  -6    0.41    2.55 
  -9  -3   6    0.92    2.65 
  12  -9   6    0.62    2.43 
 -12  12  -6   -3.17    3.12 
   0 -12  -6   -1.19    2.77 
  12 -12   6    5.02    2.59 
 -12   0   6   -1.55    2.58 
  -3 -12  -6    0.61    2.75 
 -12  15  -6    2.19    2.84 
 -15   3   6   -4.23    2.94 
  12 -15   6    0.15    2.34 
 -15   3   6    6.55    3.24 
 -13  -4  -6    4.88    2.68 
  17 -13  -6    3.21    2.81 
 -17  13   6    6.83    3.09 
 -17  13   6    8.14    3.74 
  13   4   6    6.84    2.49 
 -17  13   6    8.95    3.11 
  14 -13  -6    1.93    2.46 
 -13  -1  -6    3.72    3.03 
  13   1   6    3.12    2.54 
 -14  13   6    5.49    3.00 
 -14  13   6   -0.35    3.38 
 -14  13   6    9.71    3.15 
  11 -13  -6    0.77    2.51 
 -13   2  -6    4.94    3.12 
 -11  13   6    3.84    3.35 
 -11  13   6    0.75    2.71 
  13  -2   6   -0.78    2.51 
   8 -13  -6    0.60    2.46 
 -13   5  -6   -1.08    4.00 
 -13   5  -6    0.59    3.20 
  -8  13   6   -0.21    3.15 
  13  -5   6   -0.15    2.60 
 -13   8  -6   -0.25    3.28 
   5 -13  -6    2.09    2.93 
  13  -8   6   -4.54    2.32 
 -13  11  -6   -3.33    3.23 
   2 -13  -6   -2.76    2.81 
  13 -11   6    6.63    2.74 
 -11  -2   6   -1.77    2.80 
 -13  14  -6   -0.12    3.16 
  -1 -13  -6    1.06    2.74 
 -14   1   6   -3.14    2.72 
  13 -14   6    4.04    2.53 
 -13  17  -6    5.45    2.92 
  -4 -13  -6    2.57    2.81 
 -17   4   6    8.49    3.39 
 -17   4   6    8.41    3.44 
 -14  -2  -6    2.92    2.83 
 -16  14   6    2.46    2.95 
 -16  14   6    1.65    3.42 
  14   2   6    1.86    2.46 
 -16  14   6    3.16    3.16 
  13 -14  -6    4.27    2.64 
 -14   1  -6    1.58    2.85 
 -13  14   6   -4.20    2.78 
 -13  14   6    1.08    3.42 
  14  -1   6   -1.28    2.54 
 -13  14   6    7.35    3.05 
 -14   4  -6    9.88    3.41 
  10 -14  -6    9.92    3.02 
 -10  14   6    6.23    3.32 
  14  -4   6   11.01    2.92 
 -10  14   6    7.87    3.04 
   7 -14  -6    2.36    2.89 
 -14   7  -6    7.38    4.02 
 -14   7  -6   11.44    3.47 
  14  -7   6    6.23    2.90 
 -14  10  -6    2.74    3.00 
   4 -14  -6    3.69    3.03 
  14 -10   6    4.81    2.49 
 -10  -4   6    7.10    2.94 
 -14  13  -6    3.70    3.35 
   1 -14  -6    2.61    2.61 
 -13  -1   6   -0.81    2.96 
  14 -13   6    2.27    2.60 
  -2 -14  -6   -4.89    2.60 
 -14  16  -6    3.43    3.26 
 -16   2   6    5.39    3.38 
  14 -16   6    0.90    2.51 
  15 -15  -6   10.63    2.67 
 -15   0  -6   12.07    3.26 
  15   0   6    4.72    2.48 
 -15  15   6    9.17    3.11 
 -15  15   6    2.74    3.56 
 -15  15   6   12.99    3.22 
  12 -15  -6    5.68    2.96 
 -15   3  -6    6.22    2.89 
 -12  15   6    5.37    2.87 
 -12  15   6    3.54    3.24 
  15  -3   6    7.64    2.83 
 -15   6  -6    6.01    3.36 
 -15   6  -6    3.29    4.14 
   9 -15  -6    4.49    3.00 
  15  -6   6    5.02    2.81 
 -15   9  -6   -1.93    3.11 
   6 -15  -6    2.92    2.60 
  15  -9   6   -1.75    2.33 
   3 -15  -6    3.23    2.65 
 -15  12  -6   -0.66    2.85 
 -12  -3   6   -0.91    2.76 
  15 -12   6    0.66    2.39 
   0 -15  -6    1.01    2.87 
 -15  15  -6    0.08    3.10 
  15 -15   6    1.94    2.67 
 -15   0   6    1.91    3.10 
  14 -16  -6    0.81    2.37 
 -16   2  -6    1.25    2.61 
  16  -2   6    0.32    2.53 
 -14  16   6   -2.73    2.95 
 -14  16   6    3.31    3.52 
 -16   5  -6   -1.61    4.11 
 -16   5  -6   -1.62    2.98 
  11 -16  -6    1.23    2.77 
 -11  16   6   -3.18    2.91 
  16  -5   6    5.24    2.69 
 -16   8  -6    3.42    3.21 
   8 -16  -6   -2.68    2.50 
 -16   8  -6   -2.90    4.01 
  16  -8   6   -7.28    2.56 
 -16  11  -6   -1.35    3.20 
   5 -16  -6    2.61    2.88 
  16 -11   6    2.92    2.77 
 -16  14  -6   -0.34    3.25 
   2 -16  -6    0.80    2.54 
  16 -14   6    3.45    2.74 
 -14  -2   6   11.01    3.21 
  13 -17  -6    8.10    2.97 
 -17   4  -6   11.74    4.36 
 -17   4  -6    2.76    3.07 
 -13  17   6    8.27    3.45 
  17  -4   6    3.46    2.74 
 -13  17   6    7.62    3.18 
  10 -17  -6   11.98    3.19 
 -17   7  -6    4.07    4.12 
 -17   7  -6   10.63    3.14 
  17  -7   6    9.72    2.98 
   7 -17  -6    4.98    2.79 
 -17  10  -6    3.97    4.22 
 -17  10  -6    4.39    3.27 
  17 -10   6    9.84    2.84 
 -17  13  -6    7.01    3.42 
   4 -17  -6    8.25    2.76 
 -13  -4   6    5.20    3.10 
  17 -13   6    5.01    2.78 
   0   1  -7   -0.73    2.75 
   1  -1  -7    2.08    2.46 
  -1   0  -7    0.06    2.83 
  -1   3  -7    3.98    2.82 
  -2  -1  -7    3.71    2.96 
   3  -2  -7   -2.83    2.28 
  -3   2   7    2.54    2.73 
   0  -2  -7   -1.17    2.68 
   2   0  -7   -1.57    2.60 
  -2   2  -7    1.80    3.02 
   5  -3  -7    0.78    2.59 
  -3  -2  -7    3.95    2.63 
  -2   5  -7    5.92    3.11 
  -5   3   7    6.15    2.78 
  -3   1  -7   -3.33    2.81 
   2  -3  -7    1.22    2.77 
   1   2  -7   -3.26    2.45 
   4  -1  -7    0.91    2.47 
  -1  -3  -7    4.20    2.68 
  -3   4  -7    3.70    3.16 
  -4   1   7    6.62    2.98 
   4  -4  -7    2.77    2.83 
   0   4  -7    4.17    2.96 
  -4   0  -7    3.30    3.10 
  -4   4   7    5.48    2.92 
   3   1  -7    8.19    2.84 
   1  -4  -7    3.66    2.99 
  -4   3  -7    2.99    2.77 
  -3  -1   7    0.15    2.74 
   2   3  -7    4.85    2.78 
   3  -5  -7    5.50    2.81 
  -5   2  -7    4.76    3.16 
   0   0   0    0.00    0.00 
;
_shelx_hkl_checksum              10710
_shelx_fab_file
; 
   -1    2    0    -14.80      0.00 
    0    3    0   -216.41      0.00 
   -2    4    0    -54.64      0.00 
   -1    5    0    193.92      0.00 
   -3    6    0     38.59      0.00 
    0    6    0    -85.70      0.00 
   -2    7    0   -114.27      0.00 
   -4    8    0    -16.85      0.00 
   -1    8    0    -10.19      0.00 
   -3    9    0     50.96      0.00 
    0    9    0     51.12      0.00 
   -5   10    0     27.91      0.00 
   -2   10    0     21.45      0.00 
   -4   11    0    -39.83      0.00 
   -1   11    0    -40.35      0.00 
   -6   12    0    -29.77      0.00 
   -3   12    0    -12.37      0.00 
    0   12    0     -7.13      0.00 
   -5   13    0     17.59      0.00 
   -2   13    0     22.60      0.00 
   -7   14    0     37.27      0.00 
   -4   14    0     21.79      0.00 
   -1   14    0      5.30      0.00 
   -6   15    0    -18.71      0.00 
   -3   15    0      3.53      0.00 
    0   15    0     15.38      0.00 
   -8   16    0     30.04      0.00 
   -5   16    0    -15.61      0.00 
   -2   16    0    -28.41      0.00 
   -7   17    0     -9.33      0.00 
   -4   17    0     17.11      0.00 
   -1   17    0     12.54      0.00 
   -9   18    0     28.57      0.00 
   -6   18    0      1.40      0.00 
   -3   18    0     -6.64      0.00 
    0   18    0      4.44      0.00 
   -8   19    0    -19.64      0.00 
   -5   19    0      4.64      0.00 
   -2   19    0      8.90      0.00 
  -10   20    0    -15.19      0.00 
   -7   20    0     -4.85      0.00 
   -4   20    0    -10.66      0.00 
   -1   20    0    -23.16      0.00 
   -9   21    0      4.95      0.00 
   -6   21    0    -15.54      0.00 
   -3   21    0     -3.70      0.00 
    0   21    0     -4.13      0.00 
  -11   22    0     -8.10      0.00 
   -8   22    0     10.84      0.00 
   -5   22    0     -3.00      0.00 
   -2   22    0     -5.46      0.00 
  -10   23    0     -4.30      0.00 
   -7   23    0     -5.24      0.00 
   -4   23    0     13.95      0.00 
   -1   23    0      5.16      0.00 
  -12   24    0      2.63      0.00 
   -9   24    0     -2.18      0.00 
   -6   24    0     -9.87      0.00 
   -3   24    0      3.96      0.00 
    0   24    0      2.78      0.00 
  -11   25    0     -0.62      0.00 
   -8   25    0    -16.58      0.00 
   -5   25    0     19.92      0.00 
   -2   25    0    -12.54      0.00 
  -13   26    0      8.56      0.00 
  -10   26    0     -5.90      0.00 
   -7   26    0     -0.06      0.00 
   -4   26    0     -3.12      0.00 
   -1   26    0     -0.66      0.00 
  -12   27    0     -8.51      0.00 
   -9   27    0     -2.45      0.00 
   -6   27    0     21.91      0.00 
   -3   27    0     -0.43      0.00 
    0   27    0     -0.14      0.00 
  -14   28    0    -20.34      0.00 
  -11   28    0      6.67      0.00 
   -8   28    0     24.06      0.00 
   -5   28    0      8.19      0.00 
   -2   28    0      0.49      0.00 
  -13   29    0      3.85      0.00 
  -10   29    0      4.08      0.00 
   -7   29    0     12.68      0.00 
   -4   29    0     14.39      0.00 
   -1   29    0     -3.10      0.00 
  -15   30    0     -1.70      0.00 
  -12   30    0     -2.88      0.00 
   -9   30    0     16.75      0.00 
   -6   30    0      4.82      0.00 
   -3   30    0     -3.76      0.00 
  -14   31    0     -3.62      0.00 
  -11   31    0      0.10      0.00 
   -8   31    0      5.85      0.00 
   -5   31    0     -0.88      0.00 
  -16   32    0     15.14      0.00 
  -13   32    0    -18.32      0.00 
  -10   32    0     14.82      0.00 
  -15   33    0     -8.61      0.00 
  -12   33    0     10.00      0.00 
   -1    1    1     -9.61      0.00 
    0    2    1     30.10      0.00 
   -2    3    1   -220.72      0.00 
   -4    4    1    251.35      0.00 
   -1    4    1     84.21      0.00 
   -3    5    1     55.11      0.00 
    0    5    1     58.14      0.00 
   -5    6    1      5.61      0.00 
   -2    6    1    -65.72      0.00 
   -7    7    1    -98.88      0.00 
   -4    7    1    -85.38      0.00 
   -1    7    1    -20.79      0.00 
   -6    8    1    -46.57      0.00 
   -3    8    1     12.52      0.00 
    0    8    1    -11.05      0.00 
   -8    9    1    114.78      0.00 
   -5    9    1     71.52      0.00 
   -2    9    1      2.63      0.00 
  -10   10    1    -52.60      0.00 
   -7   10    1      9.45      0.00 
   -4   10    1     45.00      0.00 
   -1   10    1     -1.02      0.00 
   -9   11    1    -55.82      0.00 
   -6   11    1    -43.07      0.00 
   -3   11    1      1.24      0.00 
    0   11    1     -1.63      0.00 
  -11   12    1     -7.52      0.00 
   -8   12    1     11.29      0.00 
   -5   12    1    -42.20      0.00 
   -2   12    1      6.61      0.00 
  -13   13    1     70.80      0.00 
  -10   13    1     27.32      0.00 
   -7   13    1      2.41      0.00 
   -4   13    1      1.68      0.00 
   -1   13    1     -8.27      0.00 
  -12   14    1     -5.96      0.00 
   -9   14    1     27.23      0.00 
   -6   14    1     20.58      0.00 
   -3   14    1      7.86      0.00 
    0   14    1     -5.08      0.00 
  -14   15    1    -26.04      0.00 
  -11   15    1    -25.28      0.00 
   -8   15    1     -5.22      0.00 
   -5   15    1    -19.73      0.00 
   -2   15    1     16.39      0.00 
  -16   16    1     -8.17      0.00 
  -13   16    1    -13.07      0.00 
  -10   16    1    -38.06      0.00 
   -7   16    1     13.27      0.00 
   -4   16    1     -6.46      0.00 
   -1   16    1     -9.46      0.00 
  -15   17    1     13.11      0.00 
  -12   17    1     35.57      0.00 
   -9   17    1     -0.27      0.00 
   -6   17    1    -23.67      0.00 
   -3   17    1     -5.66      0.00 
    0   17    1     21.17      0.00 
  -17   18    1      5.10      0.00 
  -14   18    1     16.49      0.00 
  -11   18    1      7.80      0.00 
   -8   18    1     16.86      0.00 
   -5   18    1     25.54      0.00 
   -2   18    1    -14.39      0.00 
  -19   19    1     -4.76      0.00 
  -16   19    1     -4.68      0.00 
  -13   19    1      0.11      0.00 
  -10   19    1      6.54      0.00 
   -7   19    1      4.05      0.00 
   -4   19    1      6.15      0.00 
   -1   19    1      1.46      0.00 
  -18   20    1      0.92      0.00 
  -15   20    1    -23.20      0.00 
  -12   20    1      1.69      0.00 
   -9   20    1     -3.77      0.00 
   -6   20    1     -6.21      0.00 
   -3   20    1      6.95      0.00 
    0   20    1    -10.21      0.00 
  -20   21    1     14.98      0.00 
  -17   21    1      4.53      0.00 
  -14   21    1     -7.65      0.00 
  -11   21    1      8.80      0.00 
   -8   21    1    -19.82      0.00 
   -5   21    1     -5.05      0.00 
   -2   21    1      4.63      0.00 
  -22   22    1      1.12      0.00 
  -19   22    1     14.08      0.00 
  -16   22    1      4.14      0.00 
  -13   22    1      5.61      0.00 
  -10   22    1     -3.05      0.00 
   -7   22    1     -0.04      0.00 
   -4   22    1      3.23      0.00 
   -1   22    1      4.80      0.00 
  -21   23    1      0.46      0.00 
  -18   23    1     -6.50      0.00 
  -15   23    1      5.81      0.00 
  -12   23    1      0.84      0.00 
   -9   23    1     11.03      0.00 
   -6   23    1     10.53      0.00 
   -3   23    1    -14.03      0.00 
    0   23    1      8.07      0.00 
  -23   24    1      1.44      0.00 
  -20   24    1     -7.20      0.00 
  -17   24    1      2.76      0.00 
  -14   24    1    -12.48      0.00 
  -11   24    1      4.31      0.00 
   -8   24    1     21.79      0.00 
   -5   24    1      2.03      0.00 
   -2   24    1    -21.34      0.00 
  -25   25    1     18.20      0.00 
  -22   25    1    -15.34      0.00 
  -19   25    1     -6.24      0.00 
  -16   25    1     15.44      0.00 
  -13   25    1     -8.83      0.00 
  -10   25    1     -5.64      0.00 
   -7   25    1      0.13      0.00 
   -4   25    1     -1.82      0.00 
   -1   25    1     -0.21      0.00 
  -24   26    1     14.73      0.00 
  -21   26    1    -11.50      0.00 
  -18   26    1     -9.49      0.00 
  -15   26    1     -5.72      0.00 
  -12   26    1     -0.54      0.00 
   -9   26    1     -0.68      0.00 
   -6   26    1     -4.13      0.00 
   -3   26    1     -7.97      0.00 
    0   26    1      3.29      0.00 
  -26   27    1     -8.43      0.00 
  -23   27    1     -4.58      0.00 
  -20   27    1     -1.53      0.00 
  -17   27    1     -4.13      0.00 
  -14   27    1     -5.31      0.00 
  -11   27    1     -3.87      0.00 
   -8   27    1    -12.89      0.00 
   -5   27    1      6.30      0.00 
   -2   27    1    -12.87      0.00 
  -28   28    1     -8.83      0.00 
  -25   28    1     12.08      0.00 
  -22   28    1    -15.55      0.00 
  -19   28    1    -14.34      0.00 
  -16   28    1     10.22      0.00 
  -13   28    1      3.17      0.00 
  -10   28    1     -2.97      0.00 
   -7   28    1    -10.93      0.00 
   -4   28    1     -1.28      0.00 
   -1   28    1     -2.94      0.00 
  -27   29    1     -7.44      0.00 
  -24   29    1     12.19      0.00 
  -21   29    1     -5.95      0.00 
  -18   29    1     -0.07      0.00 
  -15   29    1    -11.87      0.00 
  -12   29    1      5.30      0.00 
   -9   29    1     -5.62      0.00 
   -6   29    1     -3.76      0.00 
   -3   29    1    -15.63      0.00 
  -26   30    1     -3.33      0.00 
  -23   30    1    -12.21      0.00 
  -20   30    1     -3.30      0.00 
  -17   30    1      2.09      0.00 
  -14   30    1     -9.30      0.00 
  -11   30    1    -11.55      0.00 
   -8   30    1      1.47      0.00 
   -5   30    1     -5.68      0.00 
  -25   31    1      8.46      0.00 
  -22   31    1    -18.08      0.00 
  -19   31    1      0.40      0.00 
  -16   31    1     -7.50      0.00 
  -13   31    1     -1.53      0.00 
  -10   31    1      2.68      0.00 
   -7   31    1    -21.15      0.00 
  -21   32    1     10.49      0.00 
  -18   32    1      1.54      0.00 
  -15   32    1     -2.79      0.00 
  -12   32    1     12.00      0.00 
   -9   32    1    -11.12      0.00 
  -17   33    1      9.01      0.00 
  -14   33    1      5.32      0.00 
    0    1    2     29.79      0.00 
   -2    2    2      1.63      0.00 
   -1    3    2    -13.17      0.00 
   -3    4    2     -0.24      0.00 
    0    4    2     16.22      0.00 
   -5    5    2     52.75      0.00 
   -2    5    2    -48.35      0.00 
   -4    6    2     36.86      0.00 
   -1    6    2     13.33      0.00 
   -6    7    2    -77.73      0.00 
   -3    7    2     19.26      0.00 
    0    7    2      4.60      0.00 
   -8    8    2     78.97      0.00 
   -5    8    2    -23.82      0.00 
   -2    8    2    -20.71      0.00 
   -7    9    2      4.39      0.00 
   -4    9    2     15.89      0.00 
   -1    9    2      3.55      0.00 
   -9   10    2      5.56      0.00 
   -6   10    2     -3.42      0.00 
   -3   10    2      3.85      0.00 
    0   10    2      8.88      0.00 
  -11   11    2    -52.15      0.00 
   -8   11    2     -3.32      0.00 
   -5   11    2     -1.30      0.00 
   -2   11    2      3.44      0.00 
  -10   12    2    -28.60      0.00 
   -7   12    2    -17.92      0.00 
   -4   12    2     20.50      0.00 
   -1   12    2     -5.83      0.00 
  -12   13    2     49.14      0.00 
   -9   13    2     16.11      0.00 
   -6   13    2    -28.11      0.00 
   -3   13    2      1.70      0.00 
    0   13    2      9.18      0.00 
  -14   14    2    -31.90      0.00 
  -11   14    2      9.69      0.00 
   -8   14    2     24.29      0.00 
   -5   14    2      3.11      0.00 
   -2   14    2      1.41      0.00 
  -13   15    2      8.77      0.00 
  -10   15    2    -13.14      0.00 
   -7   15    2     16.86      0.00 
   -4   15    2     -8.14      0.00 
   -1   15    2    -12.00      0.00 
  -15   16    2    -17.01      0.00 
  -12   16    2     -4.83      0.00 
   -9   16    2      9.72      0.00 
   -6   16    2    -15.96      0.00 
   -3   16    2      5.28      0.00 
    0   16    2      2.96      0.00 
  -17   17    2     22.55      0.00 
  -14   17    2     10.94      0.00 
  -11   17    2     -1.07      0.00 
   -8   17    2     -1.93      0.00 
   -5   17    2     -3.53      0.00 
   -2   17    2     -1.97      0.00 
  -16   18    2      2.25      0.00 
  -13   18    2     15.18      0.00 
  -10   18    2     -3.22      0.00 
   -7   18    2      8.66      0.00 
   -4   18    2     -3.65      0.00 
   -1   18    2     17.59      0.00 
  -18   19    2    -18.01      0.00 
  -15   19    2    -14.00      0.00 
  -12   19    2     23.39      0.00 
   -9   19    2     -5.48      0.00 
   -6   19    2      0.26      0.00 
   -3   19    2     -0.71      0.00 
    0   19    2     -0.60      0.00 
  -20   20    2    -10.13      0.00 
  -17   20    2      5.43      0.00 
  -14   20    2     -7.28      0.00 
  -11   20    2      1.98      0.00 
   -8   20    2     -2.71      0.00 
   -5   20    2      3.77      0.00 
   -2   20    2     -7.24      0.00 
  -19   21    2     -6.46      0.00 
  -16   21    2     12.50      0.00 
  -13   21    2      2.37      0.00 
  -10   21    2     -7.26      0.00 
   -7   21    2     -8.54      0.00 
   -4   21    2     12.76      0.00 
   -1   21    2     -2.86      0.00 
  -21   22    2     15.70      0.00 
  -18   22    2      4.00      0.00 
  -15   22    2     -5.47      0.00 
  -12   22    2     13.24      0.00 
   -9   22    2      8.40      0.00 
   -6   22    2     -8.18      0.00 
   -3   22    2     -5.22      0.00 
    0   22    2     30.42      0.00 
  -23   23    2    -12.24      0.00 
  -20   23    2    -10.93      0.00 
  -17   23    2      5.52      0.00 
  -14   23    2     -0.23      0.00 
  -11   23    2      9.57      0.00 
   -8   23    2     -5.63      0.00 
   -5   23    2     -2.62      0.00 
   -2   23    2     20.05      0.00 
  -22   24    2      0.02      0.00 
  -19   24    2     -5.61      0.00 
  -16   24    2      6.22      0.00 
  -13   24    2    -13.03      0.00 
  -10   24    2      0.68      0.00 
   -7   24    2      1.22      0.00 
   -4   24    2      3.47      0.00 
   -1   24    2      9.52      0.00 
  -24   25    2    -12.78      0.00 
  -21   25    2     12.08      0.00 
  -18   25    2     -9.45      0.00 
  -15   25    2     -5.55      0.00 
  -12   25    2     -1.48      0.00 
   -9   25    2    -11.73      0.00 
   -6   25    2     16.92      0.00 
   -3   25    2      5.70      0.00 
    0   25    2    -18.57      0.00 
  -26   26    2      1.48      0.00 
  -23   26    2      5.57      0.00 
  -20   26    2      4.15      0.00 
  -17   26    2     -5.15      0.00 
  -14   26    2     -6.48      0.00 
  -11   26    2     -0.64      0.00 
   -8   26    2     10.32      0.00 
   -5   26    2      3.00      0.00 
   -2   26    2     -7.52      0.00 
  -25   27    2     -3.07      0.00 
  -22   27    2     -8.17      0.00 
  -19   27    2      0.77      0.00 
  -16   27    2     25.94      0.00 
  -13   27    2      8.11      0.00 
  -10   27    2      6.32      0.00 
   -7   27    2    -13.61      0.00 
   -4   27    2      8.77      0.00 
   -1   27    2     10.62      0.00 
  -27   28    2     14.19      0.00 
  -24   28    2    -10.89      0.00 
  -21   28    2     12.31      0.00 
  -18   28    2      6.44      0.00 
  -15   28    2     17.00      0.00 
  -12   28    2     15.12      0.00 
   -9   28    2     -3.56      0.00 
   -6   28    2     -1.04      0.00 
   -3   28    2      9.08      0.00 
  -26   29    2     -9.39      0.00 
  -23   29    2      1.34      0.00 
  -20   29    2     17.69      0.00 
  -17   29    2      8.35      0.00 
  -14   29    2     -1.09      0.00 
  -11   29    2      0.09      0.00 
   -8   29    2      2.31      0.00 
   -5   29    2      5.21      0.00 
  -22   30    2    -11.39      0.00 
  -19   30    2    -17.24      0.00 
  -16   30    2     -7.60      0.00 
  -13   30    2      3.77      0.00 
  -10   30    2      4.14      0.00 
   -7   30    2     -2.49      0.00 
  -21   31    2     -9.90      0.00 
  -18   31    2    -17.24      0.00 
  -15   31    2     -4.78      0.00 
  -12   31    2     -1.06      0.00 
   -9   31    2      4.93      0.00 
  -17   32    2      0.34      0.00 
  -14   32    2      9.71      0.00 
    0    0    3     19.62      0.00 
   -1    2    3     -0.18      0.00 
   -3    3    3     -1.89      0.00 
    0    3    3      2.36      0.00 
   -2    4    3      5.62      0.00 
   -4    5    3     -2.72      0.00 
   -1    5    3      9.07      0.00 
   -6    6    3     15.36      0.00 
   -3    6    3     -6.86      0.00 
    0    6    3     -5.30      0.00 
   -5    7    3     -7.24      0.00 
   -2    7    3    -19.06      0.00 
   -7    8    3    -17.73      0.00 
   -4    8    3     14.79      0.00 
   -1    8    3     11.43      0.00 
   -9    9    3     28.14      0.00 
   -6    9    3    -10.22      0.00 
   -3    9    3      3.78      0.00 
    0    9    3      6.34      0.00 
   -8   10    3     18.58      0.00 
   -5   10    3      8.84      0.00 
   -2   10    3    -13.76      0.00 
  -10   11    3    -10.80      0.00 
   -7   11    3     -1.21      0.00 
   -4   11    3    -11.01      0.00 
   -1   11    3    -14.85      0.00 
  -12   12    3    -16.55      0.00 
   -9   12    3    -19.27      0.00 
   -6   12    3    -12.55      0.00 
   -3   12    3     -1.57      0.00 
    0   12    3     12.39      0.00 
  -11   13    3     10.05      0.00 
   -8   13    3      0.39      0.00 
   -5   13    3      1.84      0.00 
   -2   13    3     -0.65      0.00 
  -13   14    3     -1.92      0.00 
  -10   14    3      5.58      0.00 
   -7   14    3     12.56      0.00 
   -4   14    3      4.24      0.00 
   -1   14    3     -2.71      0.00 
  -15   15    3      9.27      0.00 
  -12   15    3     13.99      0.00 
   -9   15    3     13.97      0.00 
   -6   15    3    -12.40      0.00 
   -3   15    3     -0.33      0.00 
    0   15    3     -1.98      0.00 
  -14   16    3    -11.46      0.00 
  -11   16    3    -15.53      0.00 
   -8   16    3     -6.72      0.00 
   -5   16    3      5.53      0.00 
   -2   16    3      6.22      0.00 
  -16   17    3     22.30      0.00 
  -13   17    3    -13.70      0.00 
  -10   17    3    -16.35      0.00 
   -7   17    3     10.33      0.00 
   -4   17    3      5.03      0.00 
   -1   17    3     -0.12      0.00 
  -18   18    3      0.79      0.00 
  -15   18    3    -15.24      0.00 
  -12   18    3     17.61      0.00 
   -9   18    3      2.96      0.00 
   -6   18    3     -0.66      0.00 
   -3   18    3      2.94      0.00 
    0   18    3      5.34      0.00 
  -17   19    3     10.95      0.00 
  -14   19    3     -2.62      0.00 
  -11   19    3     16.01      0.00 
   -8   19    3      7.37      0.00 
   -5   19    3     -9.74      0.00 
   -2   19    3    -10.69      0.00 
  -19   20    3    -10.24      0.00 
  -16   20    3     13.52      0.00 
  -13   20    3      5.50      0.00 
  -10   20    3    -14.64      0.00 
   -7   20    3      2.05      0.00 
   -4   20    3      0.72      0.00 
   -1   20    3     18.98      0.00 
  -21   21    3     17.98      0.00 
  -18   21    3     -3.53      0.00 
  -15   21    3    -17.07      0.00 
  -12   21    3      3.76      0.00 
   -9   21    3    -13.70      0.00 
   -6   21    3      6.95      0.00 
   -3   21    3    -17.00      0.00 
    0   21    3     23.29      0.00 
  -20   22    3    -12.90      0.00 
  -17   22    3      5.53      0.00 
  -14   22    3    -14.66      0.00 
  -11   22    3     -4.55      0.00 
   -8   22    3     -1.76      0.00 
   -5   22    3      8.60      0.00 
   -2   22    3    -12.68      0.00 
  -22   23    3      7.05      0.00 
  -19   23    3    -23.84      0.00 
  -16   23    3      8.38      0.00 
  -13   23    3      1.59      0.00 
  -10   23    3     -7.55      0.00 
   -7   23    3     -2.26      0.00 
   -4   23    3     -0.48      0.00 
   -1   23    3     -5.10      0.00 
  -24   24    3    -10.49      0.00 
  -21   24    3      4.82      0.00 
  -18   24    3     13.23      0.00 
  -15   24    3     -7.82      0.00 
  -12   24    3     11.97      0.00 
   -9   24    3    -12.83      0.00 
   -6   24    3      2.59      0.00 
   -3   24    3     -3.86      0.00 
    0   24    3      1.56      0.00 
  -23   25    3      5.78      0.00 
  -20   25    3     -1.31      0.00 
  -17   25    3     19.08      0.00 
  -14   25    3     -9.80      0.00 
  -11   25    3    -15.75      0.00 
   -8   25    3     13.91      0.00 
   -5   25    3     -6.04      0.00 
   -2   25    3      1.44      0.00 
  -25   26    3      9.54      0.00 
  -22   26    3      5.64      0.00 
  -19   26    3      0.16      0.00 
  -16   26    3     -4.23      0.00 
  -13   26    3      1.37      0.00 
  -10   26    3      1.41      0.00 
   -7   26    3    -11.94      0.00 
   -4   26    3     -3.90      0.00 
   -1   26    3      9.19      0.00 
  -24   27    3      1.78      0.00 
  -21   27    3     -1.63      0.00 
  -18   27    3     -0.43      0.00 
  -15   27    3     -7.21      0.00 
  -12   27    3      2.89      0.00 
   -9   27    3     10.13      0.00 
   -6   27    3      7.63      0.00 
   -3   27    3     -4.92      0.00 
  -23   28    3      7.85      0.00 
  -20   28    3      5.36      0.00 
  -17   28    3    -13.23      0.00 
  -14   28    3      0.89      0.00 
  -11   28    3     12.86      0.00 
   -8   28    3     14.31      0.00 
   -5   28    3     -7.86      0.00 
  -22   29    3     11.14      0.00 
  -19   29    3     -1.94      0.00 
  -16   29    3      0.99      0.00 
  -13   29    3     -4.24      0.00 
  -10   29    3     15.20      0.00 
   -7   29    3      5.71      0.00 
  -18   30    3    -21.87      0.00 
  -15   30    3      2.72      0.00 
  -12   30    3     -3.04      0.00 
   -1    1    4      8.71      0.00 
    0    2    4     -1.25      0.00 
   -2    3    4    -19.70      0.00 
   -4    4    4     22.53      0.00 
   -1    4    4     12.14      0.00 
   -3    5    4     -2.83      0.00 
    0    5    4      2.96      0.00 
   -5    6    4      4.80      0.00 
   -2    6    4     -5.83      0.00 
   -7    7    4    -12.96      0.00 
   -4    7    4     -8.20      0.00 
   -1    7    4    -10.50      0.00 
   -6    8    4     -3.32      0.00 
   -3    8    4      5.71      0.00 
    0    8    4     18.53      0.00 
   -8    9    4     -1.95      0.00 
   -5    9    4     24.03      0.00 
   -2    9    4     -2.93      0.00 
  -10   10    4     16.46      0.00 
   -7   10    4     -7.20      0.00 
   -4   10    4     -1.29      0.00 
   -1   10    4     10.74      0.00 
   -9   11    4     -4.10      0.00 
   -6   11    4     -2.20      0.00 
   -3   11    4      2.72      0.00 
    0   11    4    -11.76      0.00 
  -11   12    4    -14.54      0.00 
   -8   12    4     -3.07      0.00 
   -5   12    4     -6.35      0.00 
   -2   12    4      2.97      0.00 
  -13   13    4      7.20      0.00 
  -10   13    4     -1.42      0.00 
   -7   13    4      9.55      0.00 
   -4   13    4     12.11      0.00 
   -1   13    4     -0.44      0.00 
  -12   14    4      3.32      0.00 
   -9   14    4      7.65      0.00 
   -6   14    4     -6.75      0.00 
   -3   14    4     -4.97      0.00 
    0   14    4     17.12      0.00 
  -14   15    4      2.74      0.00 
  -11   15    4      4.27      0.00 
   -8   15    4     -0.32      0.00 
   -5   15    4      2.31      0.00 
   -2   15    4     -9.01      0.00 
  -16   16    4     -3.80      0.00 
  -13   16    4    -14.58      0.00 
  -10   16    4    -20.93      0.00 
   -7   16    4     14.73      0.00 
   -4   16    4    -17.06      0.00 
   -1   16    4     -2.53      0.00 
  -15   17    4    -13.81      0.00 
  -12   17    4      5.60      0.00 
   -9   17    4     -1.85      0.00 
   -6   17    4      0.42      0.00 
   -3   17    4     -7.77      0.00 
    0   17    4    -13.27      0.00 
  -17   18    4    -13.11      0.00 
  -14   18    4      8.77      0.00 
  -11   18    4     -6.84      0.00 
   -8   18    4     -5.90      0.00 
   -5   18    4     -3.06      0.00 
   -2   18    4      2.62      0.00 
  -19   19    4      9.62      0.00 
  -16   19    4     10.02      0.00 
  -13   19    4      2.43      0.00 
  -10   19    4    -11.00      0.00 
   -7   19    4      3.57      0.00 
   -4   19    4      8.09      0.00 
   -1   19    4     -1.21      0.00 
  -18   20    4     19.57      0.00 
  -15   20    4    -14.10      0.00 
  -12   20    4     -2.07      0.00 
   -9   20    4     -8.43      0.00 
   -6   20    4      7.07      0.00 
   -3   20    4      6.28      0.00 
    0   20    4     10.07      0.00 
  -20   21    4     14.48      0.00 
  -17   21    4      8.66      0.00 
  -14   21    4    -29.97      0.00 
  -11   21    4     11.96      0.00 
   -8   21    4      5.74      0.00 
   -5   21    4      9.54      0.00 
   -2   21    4    -20.36      0.00 
  -22   22    4     -2.35      0.00 
  -19   22    4    -11.54      0.00 
  -16   22    4     -1.09      0.00 
  -13   22    4      1.69      0.00 
  -10   22    4     12.88      0.00 
   -7   22    4    -12.26      0.00 
   -4   22    4      0.47      0.00 
   -1   22    4      1.51      0.00 
  -21   23    4     -4.93      0.00 
  -18   23    4     -4.64      0.00 
  -15   23    4      1.60      0.00 
  -12   23    4     13.82      0.00 
   -9   23    4     -7.20      0.00 
   -6   23    4     11.72      0.00 
   -3   23    4     -2.13      0.00 
    0   23    4     -2.54      0.00 
  -23   24    4     -7.96      0.00 
  -20   24    4     -5.22      0.00 
  -17   24    4      6.81      0.00 
  -14   24    4      0.23      0.00 
  -11   24    4      5.06      0.00 
   -8   24    4     10.28      0.00 
   -5   24    4     10.25      0.00 
   -2   24    4      3.41      0.00 
  -22   25    4     11.38      0.00 
  -19   25    4     -1.90      0.00 
  -16   25    4      5.39      0.00 
  -13   25    4    -16.98      0.00 
  -10   25    4     20.64      0.00 
   -7   25    4    -13.35      0.00 
   -4   25    4     34.67      0.00 
  -21   26    4      6.54      0.00 
  -18   26    4    -10.55      0.00 
  -15   26    4      2.77      0.00 
  -12   26    4     -2.83      0.00 
   -9   26    4      7.94      0.00 
   -6   26    4     -4.20      0.00 
  -17   27    4      7.60      0.00 
  -14   27    4     -3.83      0.00 
  -11   27    4     -2.65      0.00 
    0    1    5      2.02      0.00 
   -2    2    5     -5.64      0.00 
   -1    3    5      1.50      0.00 
   -3    4    5     -0.45      0.00 
    0    4    5     25.14      0.00 
   -5    5    5     11.87      0.00 
   -2    5    5    -15.01      0.00 
   -4    6    5     -9.64      0.00 
   -1    6    5      2.40      0.00 
   -6    7    5     -9.32      0.00 
   -3    7    5     -2.34      0.00 
    0    7    5     -2.35      0.00 
   -8    8    5      8.76      0.00 
   -5    8    5      3.55      0.00 
   -2    8    5     -5.66      0.00 
   -7    9    5    -20.84      0.00 
   -4    9    5     17.26      0.00 
   -1    9    5     10.98      0.00 
   -9   10    5      0.45      0.00 
   -6   10    5      1.39      0.00 
   -3   10    5     -8.07      0.00 
    0   10    5     -1.56      0.00 
  -11   11    5     11.61      0.00 
   -8   11    5    -16.70      0.00 
   -5   11    5      5.82      0.00 
   -2   11    5     -1.17      0.00 
  -10   12    5     -3.53      0.00 
   -7   12    5     17.71      0.00 
   -4   12    5     -1.70      0.00 
   -1   12    5     -4.29      0.00 
  -12   13    5      0.18      0.00 
   -9   13    5     14.04      0.00 
   -6   13    5     -6.76      0.00 
   -3   13    5      8.87      0.00 
    0   13    5     17.17      0.00 
  -14   14    5      5.62      0.00 
  -11   14    5      2.15      0.00 
   -8   14    5     -8.26      0.00 
   -5   14    5      4.56      0.00 
   -2   14    5    -10.57      0.00 
  -13   15    5     -4.65      0.00 
  -10   15    5     -1.69      0.00 
   -7   15    5      3.30      0.00 
   -4   15    5     -6.50      0.00 
   -1   15    5     -4.07      0.00 
  -15   16    5      5.18      0.00 
  -12   16    5     12.01      0.00 
   -9   16    5      0.32      0.00 
   -6   16    5    -10.56      0.00 
   -3   16    5     -1.85      0.00 
    0   16    5     -1.73      0.00 
  -17   17    5      5.75      0.00 
  -14   17    5     -3.29      0.00 
  -11   17    5      6.08      0.00 
   -8   17    5     12.25      0.00 
   -5   17    5     19.00      0.00 
   -2   17    5     -6.27      0.00 
  -16   18    5     15.21      0.00 
  -13   18    5      4.14      0.00 
  -10   18    5      7.89      0.00 
   -7   18    5    -12.66      0.00 
   -4   18    5     12.74      0.00 
   -1   18    5     11.60      0.00 
  -18   19    5     -8.80      0.00 
  -15   19    5      1.92      0.00 
  -12   19    5      1.59      0.00 
   -9   19    5      5.73      0.00 
   -6   19    5      4.95      0.00 
   -3   19    5      3.95      0.00 
    0   19    5      1.15      0.00 
  -20   20    5     -6.07      0.00 
  -17   20    5      4.34      0.00 
  -14   20    5      1.45      0.00 
  -11   20    5      3.93      0.00 
   -8   20    5      3.49      0.00 
   -5   20    5    -26.08      0.00 
   -2   20    5     17.82      0.00 
  -19   21    5     -3.84      0.00 
  -16   21    5     -2.87      0.00 
  -13   21    5     -3.60      0.00 
  -10   21    5      9.78      0.00 
   -7   21    5     -6.93      0.00 
   -4   21    5      0.22      0.00 
   -1   21    5     18.74      0.00 
  -18   22    5     -5.63      0.00 
  -15   22    5     -1.08      0.00 
  -12   22    5     -7.10      0.00 
   -9   22    5      2.48      0.00 
   -6   22    5     -1.51      0.00 
  -14   23    5     -4.07      0.00 
  -11   23    5    -13.10      0.00 
   -8   23    5     11.12      0.00 
    0    0    6     11.45      0.00 
   -1    2    6      4.86      0.00 
   -3    3    6      4.01      0.00 
    0    3    6      3.50      0.00 
   -2    4    6     -2.06      0.00 
   -4    5    6      2.79      0.00 
   -1    5    6      6.45      0.00 
   -6    6    6     13.29      0.00 
   -3    6    6     -0.13      0.00 
    0    6    6     -9.54      0.00 
   -5    7    6      0.20      0.00 
   -2    7    6     -4.78      0.00 
   -7    8    6     10.86      0.00 
   -4    8    6      6.58      0.00 
   -1    8    6     -1.15      0.00 
   -9    9    6      8.42      0.00 
   -6    9    6    -12.58      0.00 
   -3    9    6      2.56      0.00 
    0    9    6     11.04      0.00 
   -8   10    6      3.04      0.00 
   -5   10    6     -7.62      0.00 
   -2   10    6     -3.77      0.00 
  -10   11    6     -3.09      0.00 
   -7   11    6      8.17      0.00 
   -4   11    6    -19.98      0.00 
   -1   11    6     -2.00      0.00 
  -12   12    6      6.02      0.00 
   -9   12    6     14.49      0.00 
   -6   12    6    -26.07      0.00 
   -3   12    6     10.49      0.00 
    0   12    6      2.15      0.00 
  -11   13    6     -9.13      0.00 
   -8   13    6      6.83      0.00 
   -5   13    6      4.90      0.00 
   -2   13    6      1.66      0.00 
  -13   14    6      1.64      0.00 
  -10   14    6     -9.74      0.00 
   -7   14    6      1.69      0.00 
   -4   14    6      4.43      0.00 
   -1   14    6      7.65      0.00 
  -15   15    6     -1.84      0.00 
  -12   15    6     -3.17      0.00 
   -9   15    6     -1.37      0.00 
   -6   15    6     10.46      0.00 
   -3   15    6    -12.74      0.00 
    0   15    6     -4.38      0.00 
  -14   16    6      6.38      0.00 
  -11   16    6      2.98      0.00 
   -8   16    6      9.84      0.00 
   -5   16    6    -10.96      0.00 
   -2   16    6    -14.63      0.00 
  -13   17    6      5.16      0.00 
  -10   17    6     -1.31      0.00 
   -7   17    6      0.01      0.00 
   -4   17    6      8.09      0.00 
   -1    1    7      3.65      0.00 
    0    2    7    -28.09      0.00 
   -2    3    7     -0.09      0.00 
   -4    4    7      7.60      0.00 
   -1    4    7    -13.63      0.00 
   -3    5    7     10.94      0.00 
   -7   32    0      1.68      0.00 
   -9   33    0      2.75      0.00 
    0   29    1      7.98      0.00 
   -2   30    1     -4.99      0.00 
   -4   31    1      4.40      0.00 
  -24   32    1     -8.96      0.00 
  -23   33    1      1.40      0.00 
  -20   33    1      3.79      0.00 
  -11   33    1     -2.95      0.00 
    0   28    2      5.73      0.00 
   -2   29    2     -3.41      0.00 
  -25   30    2      7.24      0.00 
   -4   30    2      1.36      0.00 
  -24   31    2      3.73      0.00 
   -6   31    2      0.10      0.00 
  -20   32    2     -3.07      0.00 
  -11   32    2     -7.66      0.00 
  -21   30    3      9.17      0.00 
   -9   30    3      2.73      0.00 
  -17   31    3      3.53      0.00 
  -14   31    3     -2.39      0.00 
   -1   25    4      0.04      0.00 
   -3   26    4     -0.85      0.00 
  -20   27    4     -6.66      0.00 
   -8   27    4     -3.67      0.00 
  -16   28    4      7.51      0.00 
  -13   28    4     -1.00      0.00 
  -10   28    4     -5.12      0.00 
   -3   22    5     -0.20      0.00 
  -17   23    5      0.37      0.00 
   -5   23    5     -4.15      0.00 
  -16   24    5      1.45      0.00 
  -13   24    5     -5.60      0.00 
  -10   24    5     -2.33      0.00 
   -7   24    5      1.99      0.00 
  -16   17    6     -4.05      0.00 
   -1   17    6      0.11      0.00 
  -12   18    6      4.76      0.00 
   -9   18    6     -1.20      0.00 
   -6   18    6      1.66      0.00 
  -11   19    6     -2.61      0.00 
   -8   19    6     -0.76      0.00 
    0    5    7      2.20      0.00 
   -5    6    7     -5.59      0.00 
   -2    6    7      3.19      0.00 
   -7    7    7      0.86      0.00 
   -4    7    7     -2.57      0.00 
   -1    7    7      0.56      0.00 
   -6    8    7     -3.21      0.00 
   -3    8    7      0.34      0.00 
    0    0    0      0.00      0.00 
# SQUEEZE RESULTS 
# Note: Data are Listed for all Voids in the P1 Unit Cell 
# i.e. Centre of Gravity, Solvent Accessible Volume, 
# Recovered number of Electrons in the Void and 
# Details about the Squeezed Material 
loop_ 
  _platon_squeeze_void_nr 
  _platon_squeeze_void_average_x 
  _platon_squeeze_void_average_y 
  _platon_squeeze_void_average_z 
  _platon_squeeze_void_volume 
  _platon_squeeze_void_count_electrons 
  _platon_squeeze_void_content 
   1 -0.000 -0.000 -0.011      2239       430 ' ' 
   2  0.333  0.667  0.908      2234       429 ' ' 
   3  0.667  0.333  0.575      2234       428 ' ' 
_platon_squeeze_void_probe_radius                  1.20 
_platon_squeeze_details 
(replace by semicolon in column 1 when used as .sqf) 
TITL cuyel_new R -3 m :h    R = 0.12 
CELL   37.8200   37.8200    8.0074     90.00     90.00    120.00 
SPGR R-3m 
# Solvent Accessible Volume =    6743.9 
# Electrons Found in S.A.V. =    1280.8 
# Note: Atoms in Void as Cxxx and Qxxx all others 
C101 1.001 0.234-0.001 !       2.04 eA-3 
C102 0.561 0.872 0.690 !       1.57 eA-3 
Q103 0.867 0.257 0.563 !       1.24 eA-3 
C104 0.267 0.844 0.562 !       1.18 eA-3 
C105 0.133 0.264 0.181 !       1.16 eA-3 
Q106 0.056 0.256 0.281 !       1.09 eA-3 
C107 0.210 0.961 0.124 !       1.04 eA-3 
Q108 0.295 0.146 0.746 !       0.90 eA-3 
C109 0.016 0.240 0.151 !       0.86 eA-3 
C110 0.040 0.828 0.870 !       0.79 eA-3 
Q111 0.261 0.132 0.003 !       0.77 eA-3 
C112 0.744 0.353 0.685 !       0.73 eA-3 
C113 0.835 0.569 0.180 !       0.71 eA-3 
C114 0.555 0.109 0.929 !       0.68 eA-3 
Q115 0.712 0.711 0.505 !       0.68 eA-3 
C116 0.736 0.217 0.815 !       0.67 eA-3 
C117 0.758 0.202 0.871 !       0.64 eA-3 
Q118 0.670 0.538 0.568 !       0.63 eA-3 
C119 0.738 0.514 0.808 !       0.62 eA-3 
C120 0.844 0.409 0.810 !       0.60 eA-3 
C121 1.000 1.000 0.499 !       0.58 eA-3 
C122 0.780 0.888 0.564 !       0.55 eA-3 
Q123 0.236 0.118 0.094 !       0.54 eA-3 
C124 0.251 0.437 0.648 !       0.53 eA-3 
Q125 0.696 0.897 0.684 !       0.52 eA-3 
C126 0.059 0.117 0.756 !       0.52 eA-3 
Q127 0.180 0.320 0.754 !       0.51 eA-3 
C128 0.726 0.208-0.004 !       0.51 eA-3 
Q129 0.354 0.921 0.095 !       0.51 eA-3 
C130 0.393 0.788 0.093 !       0.50 eA-3 
(replace by semicolon in column 1 when used as .sqf) 
;
_shelx_fab_checksum              40389
loop_
_space_group_symop_operation_xyz
'x, y, z'
'-y, x-y, z'
'-x+y, -x, z'
'y, x, -z'
'x-y, -y, -z'
'-x, -x+y, -z'
'x+2/3, y+1/3, z+1/3'
'-y+2/3, x-y+1/3, z+1/3'
'-x+y+2/3, -x+1/3, z+1/3'
'y+2/3, x+1/3, -z+1/3'
'x-y+2/3, -y+1/3, -z+1/3'
'-x+2/3, -x+y+1/3, -z+1/3'
'x+1/3, y+2/3, z+2/3'
'-y+1/3, x-y+2/3, z+2/3'
'-x+y+1/3, -x+2/3, z+2/3'
'y+1/3, x+2/3, -z+2/3'
'x-y+1/3, -y+2/3, -z+2/3'
'-x+1/3, -x+y+2/3, -z+2/3'
'-x, -y, -z'
'y, -x+y, -z'
'x-y, x, -z'
'-y, -x, z'
'-x+y, y, z'
'x, x-y, z'
'-x+2/3, -y+1/3, -z+1/3'
'y+2/3, -x+y+1/3, -z+1/3'
'x-y+2/3, x+1/3, -z+1/3'
'-y+2/3, -x+1/3, z+1/3'
'-x+y+2/3, y+1/3, z+1/3'
'x+2/3, x-y+1/3, z+1/3'
'-x+1/3, -y+2/3, -z+2/3'
'y+1/3, -x+y+2/3, -z+2/3'
'x-y+1/3, x+2/3, -z+2/3'
'-y+1/3, -x+2/3, z+2/3'
'-x+y+1/3, y+2/3, z+2/3'
'x+1/3, x-y+2/3, z+2/3'
loop_
_atom_site_label
_atom_site_type_symbol
_atom_site_fract_x
_atom_site_fract_y
_atom_site_fract_z
_atom_site_U_iso_or_equiv
_atom_site_adp_type
_atom_site_occupancy
_atom_site_site_symmetry_order
_atom_site_calc_flag
_atom_site_refinement_flags_posn
_atom_site_refinement_flags_adp
_atom_site_refinement_flags_occupancy
_atom_site_disorder_assembly
_atom_site_disorder_group
Cu1 Cu 0.36722(3) 0.03389(3) 0.833333 0.0485(6) Uani 1 2 d DS TU P . .
Cl1 Cl 0.3941(6) 0.000000 1.000000 0.078(4) Uani 0.348(12) 2 d S TU P A 1
O1C O 0.4037(8) 0.000000 1.000000 0.078(4) Uani 0.652(12) 2 d S TU P A 2
O2 O 0.4161(12) 0.0828(12) 0.833333 0.149(3) Uani 0.348(12) 2 d DS TU P A 1
Cl2A Cl 0.42606(19) 0.09272(19) 0.833333 0.149(3) Uani 0.652(12) 2 d DS TU P A
2
N1 N 0.3129(2) -0.0204(2) 0.833333 0.045(2) Uani 1 2 d S TU P A .
N2A N 0.2854(19) -0.0314(18) 0.721(5) 0.041(5) Uani 0.5 1 d . U P A 1
C1A C 0.2519(7) -0.0661(7) 0.766(4) 0.036(5) Uani 0.5 1 d D U P A 1
C2A C 0.2137(7) -0.0918(6) 0.696(3) 0.044(5) Uani 0.5 1 d D U P A 1
H2A H 0.205655 -0.086109 0.591495 0.053 Uiso 0.5 1 calc R U P A 1
C3A C 0.1881(7) -0.1264(6) 0.788(3) 0.071(6) Uani 0.5 1 d D U P A 1
O1A O 0.1486(3) -0.1486(3) 0.718(2) 0.075(5) Uani 0.5 2 d S TU P A 1
N2B N 0.2869(18) -0.0323(18) 0.698(5) 0.044(5) Uani 0.5 1 d . U P A 2
C1B C 0.2589(7) -0.0712(8) 0.743(5) 0.046(5) Uani 0.5 1 d D U P A 2
C2B C 0.2228(7) -0.0979(7) 0.660(4) 0.057(7) Uani 0.5 1 d D U P A 2
H2B H 0.216575 -0.090194 0.555885 0.069 Uiso 0.5 1 calc R U P A 2
C3B C 0.1959(7) -0.1355(6) 0.729(3) 0.071(6) Uani 0.5 1 d D U P A 2
O1B O 0.1635(3) -0.1635(3) 0.644(2) 0.099(6) Uani 0.5 2 d S TU P A 2
loop_
_atom_site_aniso_label
_atom_site_aniso_U_11
_atom_site_aniso_U_22
_atom_site_aniso_U_33
_atom_site_aniso_U_23
_atom_site_aniso_U_13
_atom_site_aniso_U_12
Cu1 0.0490(8) 0.0490(8) 0.0431(9) 0.0001(4) -0.0001(4) 0.0211(9)
Cl1 0.062(8) 0.135(5) 0.062(3) 0.000(3) -0.0001(14) 0.067(2)
O1C 0.062(8) 0.135(5) 0.062(3) 0.000(3) -0.0001(14) 0.067(2)
O2 0.097(4) 0.097(4) 0.164(5) -0.061(2) 0.061(2) -0.018(4)
Cl2A 0.097(4) 0.097(4) 0.164(5) -0.061(2) 0.061(2) -0.018(4)
N1 0.045(3) 0.045(3) 0.041(5) 0.006(2) -0.006(2) 0.019(3)
N2A 0.041(6) 0.049(7) 0.036(9) -0.004(7) -0.002(6) 0.025(5)
C1A 0.037(7) 0.046(7) 0.037(9) -0.011(6) 0.004(6) 0.030(5)
C2A 0.039(8) 0.056(7) 0.038(9) 0.003(6) -0.001(6) 0.024(6)
C3A 0.055(7) 0.063(8) 0.051(11) 0.010(7) -0.016(6) -0.003(7)
O1A 0.055(5) 0.055(5) 0.074(11) 0.020(5) -0.020(5) -0.005(7)
N2B 0.042(7) 0.051(6) 0.041(8) -0.003(7) -0.005(6) 0.024(5)
C1B 0.040(8) 0.053(7) 0.048(9) 0.000(7) -0.005(7) 0.027(6)
C2B 0.048(9) 0.061(7) 0.048(10) 0.014(7) -0.011(7) 0.016(7)
C3B 0.057(8) 0.062(8) 0.061(11) 0.021(7) -0.023(7) 0.006(7)
O1B 0.077(6) 0.077(6) 0.070(11) 0.033(5) -0.033(5) -0.016(8)
loop_
_atom_type_symbol
_atom_type_description
_atom_type_scat_dispersion_real
_atom_type_scat_dispersion_imag
_atom_type_scat_source
C C 0.0181 0.0091 'International Tables Vol C Tables 4.2.6.8 and 6.1.1.4'
H H 0.0000 0.0000 'International Tables Vol C Tables 4.2.6.8 and 6.1.1.4'
N N 0.0311 0.0180 'International Tables Vol C Tables 4.2.6.8 and 6.1.1.4'
O O 0.0492 0.0322 'International Tables Vol C Tables 4.2.6.8 and 6.1.1.4'
Cl Cl 0.3639 0.7018 'International Tables Vol C Tables 4.2.6.8 and 6.1.1.4'
Cu Cu -1.9646 0.5888 'International Tables Vol C Tables 4.2.6.8 and 6.1.1.4'
loop_
_geom_angle_atom_site_label_1
_geom_angle_atom_site_label_2
_geom_angle_atom_site_label_3
_geom_angle
_geom_angle_site_symmetry_1
_geom_angle_site_symmetry_3
O2 Cu1 N2B 94.1(19) . 12_556
O2 Cu1 N2B 94.1(19) . 9
N2B Cu1 N2B 172(4) 12_556 9
O2 Cu1 N2A 91.7(18) . 12_556
N2B Cu1 N2A 4(3) 12_556 12_556
N2B Cu1 N2A 173.2(16) 9 12_556
O2 Cu1 N2A 91.7(18) . 9
N2B Cu1 N2A 173.2(16) 12_556 9
N2B Cu1 N2A 4(3) 9 9
N2A Cu1 N2A 177(4) 12_556 9
O2 Cu1 N1 180(2) . .
N2B Cu1 N1 85.9(19) 12_556 .
N2B Cu1 N1 85.9(19) 9 .
N2A Cu1 N1 88.3(18) 12_556 .
N2A Cu1 N1 88.3(18) 9 .
N2B Cu1 Cl2A 94.1(19) 12_556 .
N2B Cu1 Cl2A 94.1(19) 9 .
N1 Cu1 Cl2A 180.0(5) . .
O2 Cu1 Cl1 93.2(3) . 14_544
N2B Cu1 Cl1 89.6(16) 12_556 14_544
N2B Cu1 Cl1 90.0(16) 9 14_544
N2A Cu1 Cl1 86.2(15) 12_556 14_544
N2A Cu1 Cl1 93.6(15) 9 14_544
N1 Cu1 Cl1 86.8(3) . 14_544
Cl2A Cu1 Cl1 93.2(3) . 14_544
O2 Cu1 Cl1 93.2(3) . .
N2A Cu1 Cl1 93.6(15) 12_556 .
N2A Cu1 Cl1 86.2(15) 9 .
N1 Cu1 Cl1 86.8(3) . .
Cl1 Cu1 Cl1 173.6(6) 14_544 .
Cu1 Cl1 Cu1 92.7(7) . 9
N2A N1 N2A 110(5) 16_546 .
N2A N1 N2B 7(5) 16_546 16_546
N2A N1 N2B 113.4(9) . 16_546
N2A N1 Cu1 125(3) 16_546 .
N2A N1 Cu1 125(3) . .
N2B N1 Cu1 121(2) . .
N2B N1 Cu1 121(2) 16_546 .
N1 N2A C1A 110(3) . .
N1 N2A Cu1 119(4) . 14_544
C1A N2A Cu1 130(3) . 14_544
N2A C1A C2A 136(3) . .
C3A C2A C1A 116(2) . .
C3A C2A H2A 122.1 . .
C1A C2A H2A 122.1 . .
C2A C3A O1A 112.3(17) . .
C3A O1A C3A 111(2) . 22
C1B N2B N1 101(3) . .
N1 N2B Cu1 122(4) . 14_544
N2B C1B C2B 127(3) . .
C3B C2B C1B 120(2) . .
C3B C2B H2B 119.9 . .
C1B C2B H2B 119.9 . .
O1B C3B C2B 121.5(18) . .
C3B O1B C3B 117(2) 22 .
loop_
_geom_bond_atom_site_label_1
_geom_bond_atom_site_label_2
_geom_bond_distance
_geom_bond_site_symmetry_2
Cu1 O2 1.85(5) .
Cu1 N2B 1.91(5) 12_556
Cu1 N2B 1.91(5) 9
Cu1 N2A 2.05(5) 12_556
Cu1 N2A 2.05(5) 9
Cu1 N1 2.053(8) .
Cu1 Cl2A 2.225(8) .
Cu1 Cl1 2.399(15) 14_544
Cu1 Cl1 2.399(15) .
N1 N2A 1.28(5) 16_546
N1 N2A 1.28(5) .
N1 N2B 1.38(5) .
N1 N2B 1.38(5) 16_546
N2A C1A 1.34(5) .
C1A C2A 1.395(10) .
C2A C3A 1.389(10) .
C2A H2A 0.9500 .
C3A O1A 1.41(2) .
N2B C1B 1.36(5) .
C1B C2B 1.397(10) .
C2B C3B 1.382(10) .
C2B H2B 0.9500 .
C3B O1B 1.34(2) .
