#------------------------------------------------------------------------------
#$Date: 2017-06-05 03:23:09 +0300 (Mon, 05 Jun 2017) $
#$Revision: 197427 $
#$URL: file:///home/coder/svn-repositories/cod/cif/4/12/60/4126027.cif $
#------------------------------------------------------------------------------
#
# This file is available in the Crystallography Open Database (COD),
# http://www.crystallography.net/
#
# All data on this site have been placed in the public domain by the
# contributors.
#
data_4126027
loop_
_publ_author_name
'Ji, Pengfei'
'Manna, Kuntal'
'Lin, Zekai'
'Feng, Xuanyu'
'Urban, Ania'
'Song, Yang'
'Lin, Wenbin'
_publ_section_title
;
 Single-Site Cobalt Catalysts at New Zr12(\m3-O)8(\m3-OH)8(\m2-OH)6
 Metal-Organic Framework Nodes for Highly Active Hydrogenation of
 Nitroarenes, Nitriles, and Isocyanides.
;
_journal_issue                   20
_journal_name_full               'Journal of the American Chemical Society'
_journal_page_first              7004
_journal_page_last               7011
_journal_paper_doi               10.1021/jacs.7b02394
_journal_volume                  139
_journal_year                    2017
_chemical_formula_moiety
'C13.22 N1.41 O30.41 Zr6, C O2, C O1.5, 0.5(Cl)'
_chemical_formula_sum            'C15.21 Cl0.5 N1.4 O33.9 Zr6'
_chemical_formula_weight         1309.79
_space_group_crystal_system      monoclinic
_space_group_IT_number           15
_space_group_name_Hall           '-C 2yc'
_space_group_name_H-M_alt        'C 1 2/c 1'
_symmetry_space_group_name_Hall  '-C 2yc'
_symmetry_space_group_name_H-M   'C 1 2/c 1'
_atom_sites_solution_primary     direct
_audit_creation_date             2016-12-15
_audit_creation_method
;
Olex2 1.2
(compiled 2016.09.09 svn.r3337 for OlexSys, GUI svn.r5227)
;
_cell_angle_alpha                90
_cell_angle_beta                 91.1600(10)
_cell_angle_gamma                90
_cell_formula_units_Z            8
_cell_length_a                   11.4489(5)
_cell_length_b                   20.7494(9)
_cell_length_c                   30.7865(14)
_cell_measurement_reflns_used    9876
_cell_measurement_temperature    100(2)
_cell_measurement_theta_max      19.27
_cell_measurement_theta_min      2.24
_cell_volume                     7312.1(6)
_computing_cell_refinement       'SAINT V8.35A (?, 2016)'
_computing_data_reduction        'SAINT V8.35A (?, 2016)'
_computing_molecular_graphics    'Olex2 (Dolomanov et al., 2009)'
_computing_publication_material  'Olex2 (Dolomanov et al., 2009)'
_computing_structure_refinement  'XL (Sheldrick, 2008)'
_computing_structure_solution    'ShelXS (Sheldrick, 2008)'
_diffrn_ambient_temperature      100
_diffrn_measured_fraction_theta_full 0.979
_diffrn_measured_fraction_theta_max 0.767
_diffrn_measurement_device_type  'Bruker APEX-II CCD'
_diffrn_measurement_method       '\f and \w scans'
_diffrn_radiation_wavelength     0.41328
_diffrn_reflns_av_R_equivalents  0.0494
_diffrn_reflns_av_unetI/netI     0.0704
_diffrn_reflns_Laue_measured_fraction_full 0.979
_diffrn_reflns_Laue_measured_fraction_max 0.767
_diffrn_reflns_limit_h_max       11
_diffrn_reflns_limit_h_min       -17
_diffrn_reflns_limit_k_max       28
_diffrn_reflns_limit_k_min       -34
_diffrn_reflns_limit_l_max       46
_diffrn_reflns_limit_l_min       -49
_diffrn_reflns_number            39218
_diffrn_reflns_point_group_measured_fraction_full 0.979
_diffrn_reflns_point_group_measured_fraction_max 0.767
_diffrn_reflns_theta_full        14.357
_diffrn_reflns_theta_max         20.079
_diffrn_reflns_theta_min         1.141
_diffrn_standards_number         0
_exptl_absorpt_coefficient_mu    2.432
_exptl_absorpt_correction_T_max  0.7445
_exptl_absorpt_correction_T_min  0.6299
_exptl_absorpt_correction_type   empirical
_exptl_absorpt_process_details
;
SADABS-2014/5 (Bruker,2014/5) was used for absorption correction.
wR2(int) was 0.0851 before and 0.0580 after correction.
The Ratio of minimum to maximum transmission is 0.8461.
The \l/2 correction factor is 0.00150.
;
_exptl_crystal_colour            'clear colourless'
_exptl_crystal_colour_lustre     clear
_exptl_crystal_colour_primary    colourless
_exptl_crystal_density_diffrn    2.380
_exptl_crystal_description       prism
_exptl_crystal_F_000             4966
_exptl_crystal_size_max          50.0
_exptl_crystal_size_mid          50.0
_exptl_crystal_size_min          50.0
_refine_diff_density_max         2.612
_refine_diff_density_min         -1.480
_refine_diff_density_rms         0.210
_refine_ls_extinction_method     none
_refine_ls_goodness_of_fit_ref   1.046
_refine_ls_hydrogen_treatment    undef
_refine_ls_matrix_type           full
_refine_ls_number_parameters     570
_refine_ls_number_reflns         13490
_refine_ls_number_restraints     455
_refine_ls_restrained_S_all      1.038
_refine_ls_R_factor_all          0.0862
_refine_ls_R_factor_gt           0.0527
_refine_ls_shift/su_max          0.002
_refine_ls_shift/su_mean         0.000
_refine_ls_structure_factor_coef Fsqd
_refine_ls_weighting_details
'w=1/[\s^2^(Fo^2^)+(0.0547P)^2^+72.1059P] where P=(Fo^2^+2Fc^2^)/3'
_refine_ls_weighting_scheme      calc
_refine_ls_wR_factor_gt          0.1295
_refine_ls_wR_factor_ref         0.1428
_reflns_Friedel_coverage         0.000
_reflns_number_gt                9189
_reflns_number_total             13490
_reflns_threshold_expression     'I > 2\s(I)'
_iucr_refine_instructions_details
;
TITL CAM-2_0m_a.res in C2/c
REM Old TITL CAM-2_0m in C2/c
REM SHELXT solution in C2/c
REM R1 0.112, Rweak 0.003, Alpha 0.030, Orientation as input
REM Formula found by SHELXT: C41 O53 Zr12
CELL 0.41328 11.4489 20.7494 30.7865 90 91.16 90
ZERR 8 0.0005 0.0009 0.0014 0 0.001 0
LATT 7
SYMM -X,+Y,0.5-Z
SFAC C Cl N O Zr
DISP C -0.001 0.005 1.09
DISP Cl 0.055 0.053 123.31
DISP N 0.001 0.001 2.27
DISP O 0.002 0.002 4.23
DISP Zr 0.163 1.574 3666.91
UNIT 121.67 4 11.22 271.22 48
DFIX 1.3 C4AA O4AA
SADI C9AA N12 N12 C2
FLAT C11 N12 C2 O25
DELU
SIMU O4AA C4AA O24
RIGU O23 C8 N2 C5AA C5
RIGU O23A C12 O24
RIGU O5AA O6AA C8AA O1 C3 O2
RIGU O4AA C4AA O24
 
L.S. 20
PLAN  10
TEMP -173.15
BOND $H
LIST 6
MORE -1
CONF
fmap 2
acta
OMIT -1 3 3
OMIT -1 1 1
OMIT 1 1 0
OMIT 0 0 2
OMIT -5 1 5
OMIT 4 4 9
OMIT -3 1 4
OMIT 4 2 4
OMIT -1 1 2
OMIT 1 1 2
OMIT 2 4 1
OMIT -3 1 3
OMIT 1 1 1
OMIT -3 1 2
OMIT 1 1 3
OMIT 3 1 4
OMIT 5 3 2
REM <olex2.extras>
REM <HklSrc "%.\\CAM-2_0m_a.hkl">
REM </olex2.extras>
 
WGHT    0.054700   72.105896
FVAR       0.12690   0.40600
ZR1   5    0.596748    0.419036    0.676149    11.00000    0.01326    0.02011 =
         0.01484   -0.00067   -0.00030    0.00036
ZR2   5    0.301173    0.420784    0.714612    11.00000    0.01232    0.01961 =
         0.01592    0.00023   -0.00174    0.00072
ZR3   5    0.443718    0.269370    0.696142    11.00000    0.01343    0.02020 =
         0.01733   -0.00141   -0.00127   -0.00004
ZR4   5    0.215028    0.321854    0.626994    11.00000    0.01659    0.02817 =
         0.02043   -0.00358   -0.00532   -0.00098
ZR5   5    0.362036    0.467748    0.607389    11.00000    0.01989    0.02863 =
         0.01672    0.00229   -0.00303    0.00248
ZR6   5    0.501398    0.320098    0.589483    11.00000    0.02180    0.02722 =
         0.01542   -0.00367   -0.00099    0.00102
O4    4    0.459530    0.369331    0.708588    11.00000    0.01144    0.01714 =
         0.02538   -0.00016    0.00200   -0.00009
O13   4    0.105463    0.412432    0.716300    11.00000    0.01368    0.02891 =
         0.02596    0.00005   -0.00238    0.00134
O11   4    0.754737    0.402848    0.636204    11.00000    0.01993    0.03052 =
         0.02412   -0.00152    0.00512   -0.00216
O14   4    0.052223    0.343027    0.663311    11.00000    0.01649    0.03699 =
         0.03073   -0.00130   -0.00541   -0.00181
O28   4    0.277826    0.378027    0.778014    11.00000    0.01155    0.02611 =
         0.01894    0.00094   -0.00118   -0.00198
O1AA  4    0.434339    0.480141    0.678281    11.00000    0.01253    0.02487 =
         0.01868    0.00071    0.00110    0.00191
O27   4    0.369531    0.477449    0.767234    11.00000    0.01757    0.02043 =
         0.01703    0.00044   -0.00302    0.00055
O0AA  4    0.696954    0.336586    0.581683    11.00000    0.02863    0.04099 =
         0.02298   -0.00447    0.01012    0.00178
O17   4    0.529635    0.186259    0.660921    11.00000    0.02844    0.02326 =
         0.02234   -0.00424   -0.00185    0.00176
O21   4    0.208264    0.254845    0.570815    11.00000    0.03538    0.04575 =
         0.02654   -0.00856   -0.00787   -0.01022
O5    4    0.381865    0.287921    0.633441    11.00000    0.01323    0.02681 =
         0.02091   -0.00390   -0.00238   -0.00131
O6    4    0.509366    0.410787    0.615471    11.00000    0.01815    0.02837 =
         0.01727    0.00019   -0.00130    0.00095
O19   4    0.159128    0.225078    0.651914    11.00000    0.02154    0.03212 =
         0.02920   -0.00593   -0.00448   -0.00670
O8    4    0.330403    0.371433    0.575685    11.00000    0.02639    0.03719 =
         0.01772   -0.00089   -0.00614    0.00054
O29   4    0.404837    0.250946    0.763315    11.00000    0.01495    0.02657 =
         0.01857    0.00098   -0.00197   -0.00340
O20   4    0.312676    0.188972    0.691822    11.00000    0.02205    0.02401 =
         0.02925   -0.00520   -0.00045   -0.00200
O10   4    0.495455    0.545783    0.604313    11.00000    0.03170    0.02908 =
         0.02311    0.00676   -0.00221    0.00085
O15   4    0.273881    0.553065    0.637103    11.00000    0.02794    0.03409 =
         0.03112    0.00769    0.00012    0.00933
O7    4    0.263620    0.412243    0.648176    11.00000    0.01633    0.02652 =
         0.02079    0.00163   -0.00336    0.00003
O9    4    0.648457    0.514975    0.646744    11.00000    0.02437    0.02740 =
         0.02152    0.00319    0.00120   -0.00400
O2AA  4    0.264431    0.316467    0.700011    11.00000    0.01422    0.02385 =
         0.01929   -0.00145   -0.00153   -0.00144
O3    4    0.589870    0.313174    0.657184    11.00000    0.01322    0.02266 =
         0.02151   -0.00100    0.00023    0.00048
O16   4    0.221123    0.519937    0.703312    11.00000    0.01716    0.02573 =
         0.02709    0.00269   -0.00044    0.00658
O18   4    0.578686    0.222703    0.594577    11.00000    0.03170    0.02851 =
         0.02081   -0.00513    0.00235    0.00326
O22   4    0.393966    0.250848    0.547092    11.00000    0.03999    0.04714 =
         0.02942   -0.01652   -0.00914    0.00347
O25   4    0.530520    0.348366    0.523295    11.00000    0.04585    0.07823 =
         0.01899    0.00278    0.00252   -0.00442
O26   4    0.390256    0.489082    0.539265    11.00000    0.05992    0.06502 =
         0.02118    0.00736   -0.00572   -0.01843
C7AA  1    0.771398    0.369331    0.602786    11.00000    0.02819    0.03886 =
         0.03002   -0.00435    0.00804   -0.00100
C6AA  1    0.028770    0.380589    0.693833    11.00000    0.01766    0.03081 =
         0.02911    0.00056   -0.00261    0.00095
O015  4    0.297889    0.419997    0.494053    11.00000    0.08408    0.08561 =
         0.04517   -0.00648   -0.01532   -0.00986
C2AA  1    0.230228    0.561384    0.673510    11.00000    0.02523    0.03159 =
         0.03669    0.00629    0.00063    0.00803
C0AA  1    0.597407    0.550916    0.620149    11.00000    0.02946    0.02960 =
         0.02357    0.00326    0.00252   -0.00039
C1AA  1    0.574291    0.181057    0.623726    11.00000    0.03186    0.02503 =
         0.02657   -0.00723   -0.00297    0.00605
C11   1    0.533366    0.335419    0.483848    11.00000    0.05968    0.16137 =
         0.02558   -0.02157   -0.00409    0.05179
C3AA  1    0.210826    0.184624    0.675895    11.00000    0.02470    0.03007 =
         0.02686   -0.00479   -0.00138   -0.00475
N12   3    0.596530    0.313789    0.459517    11.00000    0.05202    0.21481 =
         0.03558   -0.04411   -0.01145    0.06505
C7    1    0.288212    0.231645    0.548111    11.00000    0.04356    0.04486 =
         0.02533   -0.00747   -0.01000   -0.00468
C10   1    0.351087    0.473389    0.501668    11.00000    0.06638    0.08212 =
         0.03162   -0.00187   -0.01496   -0.00270
O1    4    0.897047    0.264228    0.738436    11.00000    0.02674    0.03106 =
         0.03707   -0.00347    0.00468    0.00195
O2    4    0.786192    0.236296    0.681561    11.00000    0.02765    0.04958 =
         0.04348   -0.00015   -0.00276    0.00711
C3    1    0.880110    0.237151    0.700813    11.00000    0.02393    0.03319 =
         0.03308    0.00360    0.00384    0.00158
C2    1    0.594613    0.302925    0.412839    11.00000    0.06104    0.05301 =
         0.02562   -0.00764    0.00943    0.00646
PART 1
N2    3    0.005482    0.532188    0.577163    21.00000    0.02458    0.06635 =
         0.05592   -0.00460   -0.00566    0.00143
C5    1    0.006083    0.573633    0.536249    21.00000    0.04397    0.06649 =
         0.05381   -0.00657   -0.01229   -0.00769
C8    1    0.094080    0.498300    0.593000    21.00000    0.02349    0.05555 =
         0.05205   -0.00860   -0.00650   -0.00182
O23   4    0.188816    0.492808    0.572541    21.00000    0.02944    0.03086 =
         0.03329    0.00848   -0.01037    0.00441
C5AA  1   -0.110483    0.539536    0.597428    21.00000    0.03418    0.09367 =
         0.10469    0.01015    0.01838    0.00996
C4AA  1    0.067790    0.363908    0.539544    21.00000    0.08900    0.15456 =
         0.03513    0.01123   -0.02551    0.03118
O4AA  4   -0.019742    0.386478    0.517040    21.00000    0.11716    0.28256 =
         0.11477    0.07670   -0.05090    0.03774
O24   4    0.074633    0.354731    0.579352    21.00000    0.01799    0.06636 =
         0.03424   -0.00064   -0.01425    0.00399
PART 0
PART 2
O24A  4    0.097823    0.373294    0.582762   -21.00000    0.02057    0.05232 =
         0.02826    0.00314   -0.01137   -0.00322
O23A  4    0.177862    0.471595    0.576729   -21.00000    0.03173    0.04247 =
         0.02501    0.01072   -0.00625    0.00492
C12   1    0.095780    0.432539    0.571110   -21.00000    0.02606    0.04752 =
         0.04019    0.00854   -0.01087    0.00336
 
PART 0
O5AA  4    0.000000    0.591538    0.750000    10.50000    0.16521    0.07719 =
         0.21030    0.00000    0.07048    0.00000
C8AA  1   -0.017944    0.529990    0.735617    11.00000    0.14653    0.09962 =
         0.15081   -0.00896    0.08754   -0.02686
O6AA  4   -0.093215    0.544382    0.692730    11.00000    0.43481    0.26126 =
         0.30406    0.03859   -0.12237   -0.04533
 
C9AA  1    0.715018    0.350939    0.467618    11.00000    0.10478    0.32661 =
         0.09527   -0.06038   -0.00267   -0.03863
CL1   2    0.500000    0.602063    0.750000    10.50000    0.03513    0.02623 =
         0.07805    0.00000    0.01964    0.00000
HKLF 4
 
REM  CAM-2_0m_a.res in C2/c
REM R1 =  0.0527 for    9189 Fo > 4sig(Fo)  and  0.0862 for all   13490 data
REM    570 parameters refined using    455 restraints
 
END  
     
WGHT      0.0547     72.0961 

REM Highest difference peak  2.612,  deepest hole -1.480,  1-sigma level  0.210
Q1    1   0.5252  0.2910  0.6000  11.00000  0.05    2.61
Q2    1   0.5924  0.2334  0.4812  11.00000  0.05    2.41
Q3    1   0.3911  0.4417  0.6113  11.00000  0.05    2.08
Q4    1   0.2457  0.2955  0.6361  11.00000  0.05    1.85
Q5    1   0.6193  0.3958  0.6904  11.00000  0.05    1.50
Q6    1   0.1536  0.3734  0.5193  11.00000  0.05    1.49
Q7    1   0.4735  0.2479  0.7090  11.00000  0.05    1.25
Q8    1   0.4519  0.2686  0.7194  11.00000  0.05    1.20
Q9    1   0.3249  0.4670  0.6100  11.00000  0.05    1.11
Q10   1   0.7204  0.3660  0.4680  11.00000  0.05    1.10

  REM The information below was added by Olex2.
  REM
  REM R1 = 0.0527 for 9189 Fo > 4sig(Fo) and 0.0862 for all 39821 data
  REM n/a parameters refined using n/a restraints
  REM Highest difference peak 2.61, deepest hole -1.48
  REM Mean Shift 0, Max Shift 0.002.
  
  REM +++ Tabular Listing of Refinement Information +++
  REM R1_all = 0.0862
  REM R1_gt = 0.0527
  REM wR_ref = 0.1428
  REM GOOF = 1.046
  REM Shift_max = 0.002
  REM Shift_mean = 0
  REM Reflections_all = 39821
  REM Reflections_gt = 9189
  REM Parameters = n/a
  REM Hole = -1.48
  REM Peak = 2.61
  REM Flack = n/a
  
  
;
_cod_data_source_file            ja7b02394_si_002.cif
_cod_data_source_block           cam-2_0m_a
_cod_depositor_comments          'Adding full bibliography for 4126027.cif.'
_cod_original_formula_sum        'C15.21 Cl0.50 N1.40 O33.90 Zr6'
_cod_database_code               4126027
_shelxl_version_number           2013-4
_shelx_space_group_comment
;
The symmetry employed for this shelxl refinement is uniquely defined
by the following loop, which should always be used as a source of
symmetry information in preference to the above space-group names.
They are only intended as comments.
;
_olex2_refinement_description
;
1. Restrained distances
 C4AA-O4AA
 1.3 with sigma of 0.02
 C9AA-N12 \\sim N12-C2
 with sigma of 0.02
2. Restrained planarity
 C11, N12, C2, O25
 with sigma of 0.1
3. Rigid bond restraints
 All non-hydrogen atoms
 with sigma for 1-2 distances of 0.01 and sigma for 1-3 distances of 0.01
4. Uiso/Uaniso restraints and constraints
O4AA \\sim C4AA \\sim O24: within 2A with sigma of 0.04 and sigma for terminal
atoms of 0.08
5. Rigid body (RIGU) restrains
 O23, C8, N2, C5AA, C5
 with sigma for 1-2 distances of 0.004 and sigma for 1-3 distances of 0.004
 O23A, C12, O24
 with sigma for 1-2 distances of 0.004 and sigma for 1-3 distances of 0.004
 O5AA, O6AA, C8AA, O1, C3, O2
 with sigma for 1-2 distances of 0.004 and sigma for 1-3 distances of 0.004
 O4AA, C4AA, O24
 with sigma for 1-2 distances of 0.004 and sigma for 1-3 distances of 0.004
6. Others
 Sof(O24A)=Sof(O23A)=Sof(C12)=1-FVAR(1)
 Sof(N2)=Sof(C5)=Sof(C8)=Sof(O23)=Sof(C5AA)=Sof(C4AA)=Sof(O4AA)=Sof(O24)=FVAR(1)
;
_olex2_submission_special_instructions 'No special instructions were received'
loop_
_space_group_symop_operation_xyz
'x, y, z'
'-x, y, -z+1/2'
'x+1/2, y+1/2, z'
'-x+1/2, y+1/2, -z+1/2'
'-x, -y, -z'
'x, -y, z-1/2'
'-x+1/2, -y+1/2, -z'
'x+1/2, -y+1/2, z-1/2'
loop_
_atom_site_label
_atom_site_type_symbol
_atom_site_fract_x
_atom_site_fract_y
_atom_site_fract_z
_atom_site_U_iso_or_equiv
_atom_site_adp_type
_atom_site_occupancy
_atom_site_site_symmetry_order
_atom_site_calc_flag
_atom_site_refinement_flags_posn
_atom_site_refinement_flags_adp
_atom_site_refinement_flags_occupancy
_atom_site_disorder_assembly
_atom_site_disorder_group
Zr1 Zr 0.59675(3) 0.41904(2) 0.67615(2) 0.01608(8) Uani 1 1 d . U . . .
Zr2 Zr 0.30117(3) 0.42078(2) 0.71461(2) 0.01598(8) Uani 1 1 d . U . . .
Zr3 Zr 0.44372(3) 0.26937(2) 0.69614(2) 0.01701(8) Uani 1 1 d . U . . .
Zr4 Zr 0.21503(4) 0.32185(2) 0.62699(2) 0.02181(9) Uani 1 1 d . U . . .
Zr5 Zr 0.36204(4) 0.46775(2) 0.60739(2) 0.02179(9) Uani 1 1 d . U . . .
Zr6 Zr 0.50140(4) 0.32010(2) 0.58948(2) 0.02150(9) Uani 1 1 d . U . . .
O4 O 0.4595(3) 0.36933(16) 0.70859(11) 0.0180(6) Uani 1 1 d . U . . .
O13 O 0.1055(3) 0.41243(18) 0.71630(12) 0.0229(7) Uani 1 1 d . U . . .
O11 O 0.7547(3) 0.40285(19) 0.63620(12) 0.0248(8) Uani 1 1 d . U . . .
O14 O 0.0522(3) 0.3430(2) 0.66331(13) 0.0282(8) Uani 1 1 d . U . . .
O28 O 0.2778(3) 0.37803(17) 0.77801(11) 0.0189(7) Uani 1 1 d . U . . .
O1AA O 0.4343(3) 0.48014(17) 0.67828(11) 0.0187(6) Uani 1 1 d . U . . .
O27 O 0.3695(3) 0.47745(17) 0.76723(11) 0.0184(6) Uani 1 1 d . U . . .
O0AA O 0.6970(4) 0.3366(2) 0.58168(13) 0.0307(9) Uani 1 1 d . U . . .
O17 O 0.5296(3) 0.18626(18) 0.66092(12) 0.0247(7) Uani 1 1 d . U . . .
O21 O 0.2083(4) 0.2548(2) 0.57082(14) 0.0360(9) Uani 1 1 d . U . . .
O5 O 0.3819(3) 0.28792(18) 0.63344(11) 0.0204(7) Uani 1 1 d . U . . .
O6 O 0.5094(3) 0.41079(18) 0.61547(11) 0.0213(7) Uani 1 1 d . U . . .
O19 O 0.1591(3) 0.2251(2) 0.65191(13) 0.0277(8) Uani 1 1 d . U . . .
O8 O 0.3304(3) 0.3714(2) 0.57568(12) 0.0272(8) Uani 1 1 d . U . . .
O29 O 0.4048(3) 0.25095(18) 0.76332(11) 0.0201(7) Uani 1 1 d . U . . .
O20 O 0.3127(3) 0.18897(18) 0.69182(13) 0.0251(8) Uani 1 1 d . U . . .
O10 O 0.4955(4) 0.5458(2) 0.60431(13) 0.0280(8) Uani 1 1 d . U . . .
O15 O 0.2739(4) 0.5531(2) 0.63710(14) 0.0311(8) Uani 1 1 d . U . . .
O7 O 0.2636(3) 0.41224(18) 0.64818(12) 0.0213(7) Uani 1 1 d . U . . .
O9 O 0.6485(3) 0.51498(19) 0.64674(12) 0.0244(7) Uani 1 1 d . U . . .
O2AA O 0.2644(3) 0.31647(17) 0.70001(11) 0.0191(6) Uani 1 1 d . U . . .
O3 O 0.5899(3) 0.31317(17) 0.65718(11) 0.0191(6) Uani 1 1 d . U . . .
O16 O 0.2211(3) 0.51994(18) 0.70331(12) 0.0233(7) Uani 1 1 d . U . . .
O18 O 0.5787(3) 0.22270(19) 0.59458(12) 0.0270(8) Uani 1 1 d . U . . .
O22 O 0.3940(4) 0.2508(2) 0.54709(14) 0.0390(10) Uani 1 1 d . U . . .
O25 O 0.5305(4) 0.3484(3) 0.52330(14) 0.0477(12) Uani 1 1 d . U . . .
O26 O 0.3903(5) 0.4891(3) 0.53926(15) 0.0488(12) Uani 1 1 d . U . . .
C7AA C 0.7714(5) 0.3693(3) 0.6028(2) 0.0323(12) Uani 1 1 d . U . . .
C6AA C 0.0288(4) 0.3806(3) 0.69383(19) 0.0259(11) Uani 1 1 d . U . . .
O015 O 0.2979(6) 0.4200(3) 0.4941(2) 0.0718(19) Uani 1 1 d . U . . .
C2AA C 0.2302(5) 0.5614(3) 0.6735(2) 0.0312(12) Uani 1 1 d . U . . .
C0AA C 0.5974(5) 0.5509(3) 0.62015(18) 0.0275(11) Uani 1 1 d . U . . .
C1AA C 0.5743(5) 0.1811(3) 0.62373(19) 0.0279(11) Uani 1 1 d . U . . .
C11 C 0.5334(8) 0.3354(6) 0.4838(3) 0.082(4) Uani 1 1 d . U . . .
C3AA C 0.2108(5) 0.1846(3) 0.67589(19) 0.0272(11) Uani 1 1 d . U . . .
N12 N 0.5965(7) 0.3138(6) 0.4595(2) 0.101(4) Uani 1 1 d D U . . .
C7 C 0.2882(6) 0.2316(3) 0.5481(2) 0.0381(14) Uani 1 1 d . U . . .
C10 C 0.3511(8) 0.4734(5) 0.5017(3) 0.060(2) Uani 1 1 d . U . . .
O1 O 0.8970(4) 0.2642(2) 0.73844(14) 0.0316(9) Uani 1 1 d . U . . .
O2 O 0.7862(4) 0.2363(2) 0.68156(16) 0.0403(11) Uani 1 1 d . U . . .
C3 C 0.8801(5) 0.2372(3) 0.7008(2) 0.0300(11) Uani 1 1 d . U . . .
C2 C 0.5946(7) 0.3029(4) 0.4128(2) 0.0464(17) Uani 1 1 d D U . . .
N2 N 0.0055(12) 0.5322(8) 0.5772(5) 0.049(4) Uani 0.406(9) 1 d . U . A 1
C5 C 0.0061(17) 0.5736(11) 0.5362(7) 0.055(5) Uani 0.406(9) 1 d . U . A 1
C8 C 0.0941(14) 0.4983(9) 0.5930(6) 0.044(4) Uani 0.406(9) 1 d . U . A 1
O23 O 0.1888(14) 0.4928(7) 0.5725(6) 0.031(3) Uani 0.406(9) 1 d . U . A 1
C5AA C -0.1105(18) 0.5395(14) 0.5974(10) 0.077(7) Uani 0.406(9) 1 d . U . A 1
C4AA C 0.068(2) 0.3639(17) 0.5395(7) 0.093(8) Uani 0.406(9) 1 d D U . A 1
O4AA O -0.020(2) 0.3865(18) 0.5170(9) 0.172(12) Uani 0.406(9) 1 d D U . A 1
O24 O 0.0746(14) 0.3547(9) 0.5794(6) 0.040(3) Uani 0.406(9) 1 d . U . A 1
O24A O 0.0978(9) 0.3733(6) 0.5828(4) 0.034(2) Uani 0.594(9) 1 d . U . A 2
O23A O 0.1779(10) 0.4716(5) 0.5767(4) 0.033(2) Uani 0.594(9) 1 d . U . A 2
C12 C 0.0958(9) 0.4325(6) 0.5711(4) 0.038(2) Uani 0.594(9) 1 d . U . A 2
O5AA O 0.0000 0.5915(7) 0.7500 0.150(6) Uani 1 2 d S TU P . .
C8AA C -0.018(2) 0.5300(7) 0.7356(6) 0.131(6) Uani 1 1 d . U . . .
O6AA O -0.093(3) 0.5444(12) 0.6927(8) 0.335(14) Uani 1 1 d . U . . .
C9AA C 0.7150(14) 0.3509(12) 0.4676(5) 0.176(9) Uani 1 1 d D U . . .
Cl1 Cl 0.5000 0.60206(11) 0.7500 0.0462(6) Uani 1 2 d S TU P . .
loop_
_atom_site_aniso_label
_atom_site_aniso_U_11
_atom_site_aniso_U_22
_atom_site_aniso_U_33
_atom_site_aniso_U_23
_atom_site_aniso_U_13
_atom_site_aniso_U_12
Zr1 0.01326(16) 0.02011(19) 0.01484(18) -0.00067(14) -0.00030(12) 0.00036(13)
Zr2 0.01232(16) 0.01961(18) 0.01592(18) 0.00023(14) -0.00174(12) 0.00072(13)
Zr3 0.01343(17) 0.02020(19) 0.01733(18) -0.00141(14) -0.00127(12) -0.00004(13)
Zr4 0.01659(18) 0.0282(2) 0.0204(2) -0.00358(16) -0.00532(14) -0.00098(15)
Zr5 0.01989(19) 0.0286(2) 0.01672(19) 0.00229(16) -0.00303(14) 0.00248(15)
Zr6 0.0218(2) 0.0272(2) 0.01542(19) -0.00367(15) -0.00099(14) 0.00102(15)
O4 0.0114(14) 0.0171(15) 0.0254(17) -0.0002(13) 0.0020(11) -0.0001(11)
O13 0.0137(15) 0.0289(19) 0.0260(19) 0.0000(15) -0.0024(13) 0.0013(13)
O11 0.0199(17) 0.031(2) 0.0241(19) -0.0015(15) 0.0051(13) -0.0022(14)
O14 0.0165(16) 0.037(2) 0.031(2) -0.0013(17) -0.0054(14) -0.0018(14)
O28 0.0115(14) 0.0261(18) 0.0189(16) 0.0009(13) -0.0012(11) -0.0020(12)
O1AA 0.0125(14) 0.0249(17) 0.0187(16) 0.0007(13) 0.0011(11) 0.0019(12)
O27 0.0176(15) 0.0204(16) 0.0170(16) 0.0004(12) -0.0030(12) 0.0005(12)
O0AA 0.0286(19) 0.041(2) 0.0230(19) -0.0045(17) 0.0101(15) 0.0018(16)
O17 0.0284(19) 0.0233(18) 0.0223(18) -0.0042(14) -0.0019(14) 0.0018(14)
O21 0.035(2) 0.046(2) 0.027(2) -0.0086(18) -0.0079(16) -0.0102(18)
O5 0.0132(14) 0.0268(18) 0.0209(16) -0.0039(14) -0.0024(12) -0.0013(12)
O6 0.0182(15) 0.0284(18) 0.0173(16) 0.0002(13) -0.0013(12) 0.0009(13)
O19 0.0215(17) 0.032(2) 0.029(2) -0.0059(15) -0.0045(14) -0.0067(15)
O8 0.0264(18) 0.037(2) 0.0177(17) -0.0009(15) -0.0061(13) 0.0005(15)
O29 0.0149(15) 0.0266(18) 0.0186(16) 0.0010(13) -0.0020(12) -0.0034(13)
O20 0.0221(17) 0.0240(18) 0.029(2) -0.0052(15) -0.0005(14) -0.0020(14)
O10 0.0317(19) 0.0291(19) 0.0231(19) 0.0068(15) -0.0022(15) 0.0009(15)
O15 0.028(2) 0.034(2) 0.031(2) 0.0077(16) 0.0001(16) 0.0093(16)
O7 0.0163(15) 0.0265(17) 0.0208(17) 0.0016(13) -0.0034(12) 0.0000(13)
O9 0.0244(18) 0.0274(18) 0.0215(19) 0.0032(15) 0.0012(14) -0.0040(14)
O2AA 0.0142(15) 0.0238(17) 0.0193(16) -0.0015(13) -0.0015(12) -0.0014(12)
O3 0.0132(14) 0.0227(17) 0.0215(17) -0.0010(13) 0.0002(12) 0.0005(12)
O16 0.0172(16) 0.0257(18) 0.0271(19) 0.0027(14) -0.0004(13) 0.0066(13)
O18 0.032(2) 0.0285(19) 0.0208(18) -0.0051(15) 0.0023(15) 0.0033(15)
O22 0.040(2) 0.047(3) 0.029(2) -0.0165(19) -0.0091(17) 0.0035(19)
O25 0.046(3) 0.078(4) 0.0190(19) 0.003(2) 0.0025(17) -0.004(2)
O26 0.060(3) 0.065(3) 0.021(2) 0.007(2) -0.0057(19) -0.018(3)
C7AA 0.028(3) 0.039(3) 0.030(3) -0.004(2) 0.008(2) -0.001(2)
C6AA 0.018(2) 0.031(3) 0.029(3) 0.001(2) -0.0026(18) 0.0009(19)
O015 0.084(5) 0.086(5) 0.045(3) -0.006(3) -0.015(3) -0.010(4)
C2AA 0.025(3) 0.032(3) 0.037(3) 0.006(2) 0.001(2) 0.008(2)
C0AA 0.029(3) 0.030(3) 0.024(3) 0.003(2) 0.003(2) 0.000(2)
C1AA 0.032(3) 0.025(3) 0.027(3) -0.007(2) -0.003(2) 0.006(2)
C11 0.060(5) 0.161(11) 0.026(3) -0.022(5) -0.004(3) 0.052(6)
C3AA 0.025(2) 0.030(3) 0.027(3) -0.005(2) -0.001(2) -0.005(2)
N12 0.052(4) 0.215(11) 0.036(4) -0.044(5) -0.011(3) 0.065(5)
C7 0.044(3) 0.045(4) 0.025(3) -0.007(3) -0.010(2) -0.005(3)
C10 0.066(5) 0.082(6) 0.032(4) -0.002(4) -0.015(4) -0.003(4)
O1 0.027(2) 0.031(2) 0.037(2) -0.0035(17) 0.0047(16) 0.0019(16)
O2 0.028(2) 0.050(3) 0.043(3) 0.000(2) -0.0028(18) 0.0071(19)
C3 0.024(2) 0.033(3) 0.033(3) 0.004(2) 0.0038(19) 0.002(2)
C2 0.061(5) 0.053(4) 0.026(3) -0.008(3) 0.009(3) 0.006(4)
N2 0.025(5) 0.066(9) 0.056(8) -0.005(6) -0.006(4) 0.001(5)
C5 0.044(9) 0.066(11) 0.054(8) -0.007(7) -0.012(6) -0.008(7)
C8 0.023(4) 0.056(9) 0.052(8) -0.009(6) -0.007(4) -0.002(5)
O23 0.029(4) 0.031(7) 0.033(6) 0.008(5) -0.010(4) 0.004(4)
C5AA 0.034(6) 0.094(17) 0.105(14) 0.010(12) 0.018(8) 0.010(8)
C4AA 0.089(13) 0.15(2) 0.035(6) 0.011(8) -0.026(6) 0.031(14)
O4AA 0.117(16) 0.28(3) 0.115(14) 0.077(16) -0.051(12) 0.038(17)
O24 0.018(5) 0.066(9) 0.034(5) -0.001(6) -0.014(4) 0.004(5)
O24A 0.021(4) 0.052(5) 0.028(4) 0.003(4) -0.011(3) -0.003(3)
O23A 0.032(3) 0.042(5) 0.025(4) 0.011(4) -0.006(3) 0.005(3)
C12 0.026(4) 0.048(5) 0.040(6) 0.009(4) -0.011(4) 0.003(4)
O5AA 0.165(14) 0.077(7) 0.210(15) 0.000 0.070(11) 0.000
C8AA 0.147(15) 0.100(7) 0.151(16) -0.009(7) 0.088(12) -0.027(8)
O6AA 0.43(3) 0.26(2) 0.304(19) 0.039(14) -0.12(2) -0.05(2)
C9AA 0.105(10) 0.33(3) 0.095(11) -0.060(14) -0.003(8) -0.039(13)
Cl1 0.0351(11) 0.0262(10) 0.0780(19) 0.000 0.0196(11) 0.000
loop_
_atom_type_symbol
_atom_type_description
_atom_type_scat_dispersion_real
_atom_type_scat_dispersion_imag
_atom_type_scat_source
C C -0.0010 0.0050 'International Tables Vol C Tables 4.2.6.8 and 6.1.1.4'
Cl Cl 0.0550 0.0530 'International Tables Vol C Tables 4.2.6.8 and 6.1.1.4'
N N 0.0010 0.0010 'International Tables Vol C Tables 4.2.6.8 and 6.1.1.4'
O O 0.0020 0.0020 'International Tables Vol C Tables 4.2.6.8 and 6.1.1.4'
Zr Zr 0.1630 1.5740 'International Tables Vol C Tables 4.2.6.8 and 6.1.1.4'
loop_
_geom_angle_atom_site_label_1
_geom_angle_atom_site_label_2
_geom_angle_atom_site_label_3
_geom_angle
_geom_angle_site_symmetry_1
_geom_angle_site_symmetry_3
Zr2 Zr1 Zr2 88.962(12) 2_656 .
Zr5 Zr1 Zr2 143.018(15) . 2_656
Zr5 Zr1 Zr2 59.132(11) . .
Zr6 Zr1 Zr2 88.631(12) . .
Zr6 Zr1 Zr2 144.816(16) . 2_656
Zr6 Zr1 Zr5 59.523(12) . .
O4 Zr1 Zr2 31.85(9) . .
O4 Zr1 Zr2 78.06(9) . 2_656
O4 Zr1 Zr5 82.02(9) . .
O4 Zr1 Zr6 81.58(9) . .
O4 Zr1 O11 142.54(14) . .
O4 Zr1 O28 89.42(13) . 2_656
O4 Zr1 O1AA 69.14(13) . .
O4 Zr1 O27 90.85(13) . 2_656
O4 Zr1 O9 143.84(13) . .
O4 Zr1 O3 68.46(13) . .
O11 Zr1 Zr2 163.29(10) . .
O11 Zr1 Zr2 105.62(10) . 2_656
O11 Zr1 Zr5 109.13(10) . .
O11 Zr1 Zr6 74.77(10) . .
O11 Zr1 O1AA 141.17(14) . .
O11 Zr1 O9 72.04(14) . .
O11 Zr1 O3 74.78(13) . .
O28 Zr1 Zr2 35.23(9) 2_656 2_656
O28 Zr1 Zr2 113.81(9) 2_656 .
O28 Zr1 Zr5 171.14(9) 2_656 .
O28 Zr1 Zr6 117.10(9) 2_656 .
O28 Zr1 O11 76.47(14) 2_656 .
O28 Zr1 O1AA 137.61(13) 2_656 .
O28 Zr1 O9 115.42(14) 2_656 .
O28 Zr1 O3 78.87(13) 2_656 .
O1AA Zr1 Zr2 102.91(9) . 2_656
O1AA Zr1 Zr2 37.30(9) . .
O1AA Zr1 Zr5 40.40(9) . .
O1AA Zr1 Zr6 96.13(9) . .
O1AA Zr1 O9 74.94(13) . .
O1AA Zr1 O3 121.80(13) . .
O27 Zr1 Zr2 34.28(9) 2_656 2_656
O27 Zr1 Zr2 83.25(9) 2_656 .
O27 Zr1 Zr5 116.48(9) 2_656 .
O27 Zr1 Zr6 171.80(9) 2_656 .
O27 Zr1 O11 113.38(14) 2_656 .
O27 Zr1 O28 65.66(13) 2_656 2_656
O27 Zr1 O1AA 78.11(13) 2_656 .
O27 Zr1 O9 77.59(14) 2_656 .
O27 Zr1 O3 139.19(13) 2_656 .
O6 Zr1 Zr2 81.96(10) . .
O6 Zr1 Zr2 170.00(10) . 2_656
O6 Zr1 Zr5 31.91(10) . .
O6 Zr1 Zr6 31.48(10) . .
O6 Zr1 O4 91.99(14) . .
O6 Zr1 O11 82.82(14) . .
O6 Zr1 O28 147.30(14) . 2_656
O6 Zr1 O1AA 72.20(13) . .
O6 Zr1 O27 146.91(14) . 2_656
O6 Zr1 O9 80.84(14) . .
O6 Zr1 O3 71.38(13) . .
O9 Zr1 Zr2 106.63(10) . 2_656
O9 Zr1 Zr2 112.08(10) . .
O9 Zr1 Zr5 73.24(10) . .
O9 Zr1 Zr6 106.76(10) . .
O9 Zr1 O3 138.82(13) . .
O3 Zr1 Zr2 105.25(9) . 2_656
O3 Zr1 Zr2 93.79(8) . .
O3 Zr1 Zr5 95.77(9) . .
O3 Zr1 Zr6 39.99(9) . .
Zr1 Zr2 Zr3 89.948(12) 2_656 .
Zr4 Zr2 Zr1 143.669(16) . 2_656
Zr4 Zr2 Zr3 59.263(11) . .
Zr4 Zr2 Zr5 60.033(12) . .
Zr5 Zr2 Zr1 145.612(15) . 2_656
Zr5 Zr2 Zr3 89.685(13) . .
O4 Zr2 Zr1 79.10(10) . 2_656
O4 Zr2 Zr3 31.95(9) . .
O4 Zr2 Zr4 82.28(9) . .
O4 Zr2 Zr5 82.61(10) . .
O4 Zr2 O13 145.00(13) . .
O4 Zr2 O28 89.65(13) . .
O4 Zr2 O1AA 69.24(13) . .
O4 Zr2 O27 92.45(13) . .
O4 Zr2 O2AA 69.75(12) . .
O4 Zr2 O16 141.81(13) . .
O13 Zr2 Zr1 106.70(10) . 2_656
O13 Zr2 Zr3 113.11(10) . .
O13 Zr2 Zr4 73.05(10) . .
O13 Zr2 Zr5 105.00(10) . .
O13 Zr2 O1AA 137.05(13) . .
O13 Zr2 O16 71.03(13) . .
O28 Zr2 Zr1 35.26(9) . 2_656
O28 Zr2 Zr3 81.32(9) . .
O28 Zr2 Zr4 114.50(9) . .
O28 Zr2 Zr5 171.00(10) . .
O28 Zr2 O13 78.84(13) . .
O28 Zr2 O1AA 139.65(12) . .
O28 Zr2 O2AA 76.10(13) . .
O28 Zr2 O16 116.83(14) . .
O1AA Zr2 Zr1 105.16(9) . 2_656
O1AA Zr2 Zr3 94.86(9) . .
O1AA Zr2 Zr4 96.86(9) . .
O1AA Zr2 Zr5 40.69(9) . .
O1AA Zr2 O16 72.96(13) . .
O27 Zr2 Zr1 34.55(9) . 2_656
O27 Zr2 Zr3 116.15(9) . .
O27 Zr2 Zr4 174.69(9) . .
O27 Zr2 Zr5 118.78(10) . .
O27 Zr2 O13 112.00(13) . .
O27 Zr2 O28 65.93(13) . .
O27 Zr2 O1AA 80.55(13) . .
O27 Zr2 O2AA 138.18(13) . .
O27 Zr2 O16 76.04(13) . .
O7 Zr2 Zr1 170.84(10) . 2_656
O7 Zr2 Zr3 81.72(10) . .
O7 Zr2 Zr4 31.80(10) . .
O7 Zr2 Zr5 31.49(10) . .
O7 Zr2 O4 91.78(14) . .
O7 Zr2 O13 80.25(14) . .
O7 Zr2 O28 145.19(14) . .
O7 Zr2 O1AA 71.99(13) . .
O7 Zr2 O27 148.62(14) . .
O7 Zr2 O2AA 71.86(13) . .
O7 Zr2 O16 81.53(14) . .
O2AA Zr2 Zr1 103.71(9) . 2_656
O2AA Zr2 Zr3 37.81(8) . .
O2AA Zr2 Zr4 40.18(9) . .
O2AA Zr2 Zr5 96.81(9) . .
O2AA Zr2 O13 75.41(13) . .
O2AA Zr2 O1AA 123.24(13) . .
O2AA Zr2 O16 140.03(13) . .
O16 Zr2 Zr1 106.19(10) . 2_656
O16 Zr2 Zr3 161.71(10) . .
O16 Zr2 Zr4 107.74(10) . .
O16 Zr2 Zr5 72.16(10) . .
Zr3 Zr3 Zr2 90.554(11) 2_656 .
Zr4 Zr3 Zr2 59.292(11) . .
Zr4 Zr3 Zr3 145.258(17) . 2_656
Zr4 Zr3 Zr6 59.616(12) . .
Zr6 Zr3 Zr2 88.886(13) . .
Zr6 Zr3 Zr3 143.417(17) . 2_656
O4 Zr3 Zr2 31.93(8) . .
O4 Zr3 Zr3 78.57(9) . 2_656
O4 Zr3 Zr4 82.29(9) . .
O4 Zr3 Zr6 81.89(10) . .
O4 Zr3 O17 142.57(14) . .
O4 Zr3 O29 91.07(14) . .
O4 Zr3 O29 90.24(13) . 2_656
O4 Zr3 O20 142.50(13) . .
O4 Zr3 O2AA 69.15(12) . .
O4 Zr3 O3 69.01(13) . .
O17 Zr3 Zr2 160.45(10) . .
O17 Zr3 Zr3 107.14(10) . 2_656
O17 Zr3 Zr4 105.70(10) . .
O17 Zr3 Zr6 71.99(10) . .
O17 Zr3 O2AA 138.57(13) . .
O5 Zr3 Zr2 80.66(10) . .
O5 Zr3 Zr3 169.27(10) . 2_656
O5 Zr3 Zr4 31.16(9) . .
O5 Zr3 Zr6 31.34(9) . .
O5 Zr3 O4 90.74(14) . .
O5 Zr3 O17 80.79(14) . .
O5 Zr3 O29 145.85(13) . 2_656
O5 Zr3 O29 148.17(13) . .
O5 Zr3 O20 82.41(14) . .
O5 Zr3 O2AA 71.26(13) . .
O5 Zr3 O3 71.09(13) . .
O29 Zr3 Zr2 84.26(10) . .
O29 Zr3 Zr2 115.30(10) 2_656 .
O29 Zr3 Zr3 34.83(9) . 2_656
O29 Zr3 Zr3 34.98(9) 2_656 2_656
O29 Zr3 Zr4 118.02(9) . .
O29 Zr3 Zr4 171.51(10) 2_656 .
O29 Zr3 Zr6 172.78(10) . .
O29 Zr3 Zr6 115.46(10) 2_656 .
O29 Zr3 O17 77.89(13) 2_656 .
O29 Zr3 O17 115.00(14) . .
O29 Zr3 O29 65.91(16) 2_656 .
O29 Zr3 O20 76.98(14) . .
O29 Zr3 O20 115.61(14) 2_656 .
O29 Zr3 O2AA 79.77(13) . .
O29 Zr3 O2AA 139.70(13) 2_656 .
O29 Zr3 O3 77.49(13) 2_656 .
O29 Zr3 O3 138.27(12) . .
O20 Zr3 Zr2 110.74(10) . .
O20 Zr3 Zr3 106.63(10) . 2_656
O20 Zr3 Zr4 72.88(10) . .
O20 Zr3 Zr6 107.72(10) . .
O20 Zr3 O17 72.72(14) . .
O20 Zr3 O2AA 73.75(13) . .
O20 Zr3 O3 139.94(13) . .
O2AA Zr3 Zr2 37.23(9) . .
O2AA Zr3 Zr3 105.23(9) . 2_656
O2AA Zr3 Zr4 40.34(9) . .
O2AA Zr3 Zr6 96.12(9) . .
O3 Zr3 Zr2 94.34(9) . .
O3 Zr3 Zr3 103.73(9) . 2_656
O3 Zr3 Zr4 95.97(9) . .
O3 Zr3 Zr6 39.95(9) . .
O3 Zr3 O17 73.78(13) . .
O3 Zr3 O2AA 122.05(13) . .
Zr3 Zr4 Zr2 61.446(11) . .
Zr6 Zr4 Zr2 90.523(13) . .
Zr6 Zr4 Zr3 60.327(12) . .
O14 Zr4 Zr2 74.06(10) . .
O14 Zr4 Zr3 112.11(10) . .
O14 Zr4 Zr6 164.42(10) . .
O14 Zr4 O19 76.05(15) . .
O14 Zr4 O8 138.16(15) . .
O14 Zr4 O2AA 73.33(13) . .
O14 Zr4 O24 71.1(6) . .
O21 Zr4 Zr2 165.65(12) . .
O21 Zr4 Zr3 106.97(12) . .
O21 Zr4 Zr6 75.78(12) . .
O21 Zr4 O14 119.76(15) . .
O21 Zr4 O19 72.58(16) . .
O21 Zr4 O8 76.03(15) . .
O21 Zr4 O2AA 137.07(15) . .
O21 Zr4 O24 70.7(5) . .
O5 Zr4 Zr2 83.07(10) . .
O5 Zr4 Zr3 31.79(10) . .
O5 Zr4 Zr6 31.49(10) . .
O5 Zr4 O14 143.77(14) . .
O5 Zr4 O21 82.96(15) . .
O5 Zr4 O19 86.04(14) . .
O5 Zr4 O8 71.01(14) . .
O5 Zr4 O7 92.13(14) . .
O5 Zr4 O2AA 71.24(13) . .
O5 Zr4 O24 145.0(6) . .
O5 Zr4 O24A 142.7(4) . .
O19 Zr4 Zr2 109.71(10) . .
O19 Zr4 Zr3 74.34(10) . .
O19 Zr4 Zr6 112.25(10) . .
O19 Zr4 O8 143.00(15) . .
O19 Zr4 O2AA 71.96(13) . .
O19 Zr4 O24 106.7(5) . .
O8 Zr4 Zr2 96.24(10) . .
O8 Zr4 Zr3 97.03(9) . .
O8 Zr4 Zr6 39.60(9) . .
O7 Zr4 Zr2 32.33(10) . .
O7 Zr4 Zr3 84.10(10) . .
O7 Zr4 Zr6 82.24(10) . .
O7 Zr4 O14 83.41(14) . .
O7 Zr4 O21 145.35(16) . .
O7 Zr4 O19 141.53(14) . .
O7 Zr4 O8 69.99(14) . .
O7 Zr4 O2AA 71.12(13) . .
O7 Zr4 O24 96.6(5) . .
O7 Zr4 O24A 84.9(3) . .
O2AA Zr4 Zr2 38.92(9) . .
O2AA Zr4 Zr3 39.69(8) . .
O2AA Zr4 Zr6 96.21(8) . .
O2AA Zr4 O8 123.54(12) . .
O24 Zr4 Zr2 120.4(5) . .
O24 Zr4 Zr3 176.8(6) . .
O24 Zr4 Zr6 116.6(5) . .
O24 Zr4 O8 80.3(5) . .
O24 Zr4 O2AA 143.5(6) . .
O24A Zr4 Zr2 110.7(3) . .
O24A Zr4 Zr3 167.2(3) . .
O24A Zr4 Zr6 111.7(3) . .
O24A Zr4 O14 72.9(4) . .
O24A Zr4 O21 78.9(4) . .
O24A Zr4 O19 118.5(3) . .
O24A Zr4 O8 73.0(3) . .
O24A Zr4 O2AA 140.3(4) . .
Zr4 Zr5 Zr2 59.844(12) . .
Zr6 Zr5 Zr2 90.280(14) . .
Zr6 Zr5 Zr4 59.733(13) . .
O1AA Zr5 Zr2 39.41(8) . .
O1AA Zr5 Zr4 95.52(9) . .
O1AA Zr5 Zr6 95.14(9) . .
O6 Zr5 Zr2 84.59(10) . .
O6 Zr5 Zr4 83.09(10) . .
O6 Zr5 Zr6 31.47(10) . .
O6 Zr5 O1AA 71.20(13) . .
O6 Zr5 O8 70.65(14) . .
O6 Zr5 O10 82.10(15) . .
O6 Zr5 O15 140.72(15) . .
O6 Zr5 O26 95.48(19) . .
O6 Zr5 O23 151.6(5) . .
O6 Zr5 O23A 144.0(3) . .
O8 Zr5 Zr2 97.33(10) . .
O8 Zr5 Zr4 40.33(10) . .
O8 Zr5 Zr6 39.18(10) . .
O8 Zr5 O1AA 123.69(13) . .
O8 Zr5 O23 82.4(4) . .
O8 Zr5 O23A 73.4(3) . .
O10 Zr5 Zr2 112.90(10) . .
O10 Zr5 Zr4 164.13(10) . .
O10 Zr5 Zr6 108.29(11) . .
O10 Zr5 O1AA 74.29(13) . .
O10 Zr5 O8 136.97(15) . .
O10 Zr5 O15 76.02(16) . .
O10 Zr5 O23 113.7(4) . .
O10 Zr5 O23A 125.6(3) . .
O15 Zr5 Zr2 74.75(11) . .
O15 Zr5 Zr4 112.84(11) . .
O15 Zr5 Zr6 164.79(11) . .
O15 Zr5 O1AA 71.66(13) . .
O15 Zr5 O8 143.94(15) . .
O15 Zr5 O23 67.7(5) . .
O15 Zr5 O23A 73.9(3) . .
O7 Zr5 Zr2 32.04(10) . .
O7 Zr5 Zr4 31.17(10) . .
O7 Zr5 Zr6 82.14(10) . .
O7 Zr5 O1AA 71.27(13) . .
O7 Zr5 O6 93.56(14) . .
O7 Zr5 O8 71.47(15) . .
O7 Zr5 O10 144.78(14) . .
O7 Zr5 O15 86.35(15) . .
O7 Zr5 O26 142.84(17) . .
O7 Zr5 O23 86.2(4) . .
O7 Zr5 O23A 76.1(3) . .
O26 Zr5 Zr2 174.73(14) . .
O26 Zr5 Zr4 114.91(14) . .
O26 Zr5 Zr6 87.09(16) . .
O26 Zr5 O1AA 145.42(16) . .
O26 Zr5 O8 77.77(18) . .
O26 Zr5 O10 72.29(17) . .
O26 Zr5 O15 108.05(19) . .
O26 Zr5 O23 69.3(5) . .
O26 Zr5 O23A 75.5(3) . .
O23 Zr5 Zr2 108.4(5) . .
O23 Zr5 Zr4 82.2(3) . .
O23 Zr5 Zr6 121.1(4) . .
O23 Zr5 O1AA 134.4(5) . .
O23A Zr5 Zr2 101.4(3) . .
O23A Zr5 Zr4 70.2(3) . .
O23A Zr5 Zr6 112.5(3) . .
O23A Zr5 O1AA 133.4(3) . .
Zr1 Zr6 Zr3 61.916(12) . .
Zr4 Zr6 Zr1 91.263(13) . .
Zr4 Zr6 Zr3 60.057(12) . .
Zr4 Zr6 Zr5 60.398(12) . .
Zr5 Zr6 Zr1 60.412(12) . .
Zr5 Zr6 Zr3 91.149(14) . .
O0AA Zr6 Zr1 72.70(10) . .
O0AA Zr6 Zr3 110.22(10) . .
O0AA Zr6 Zr4 163.97(10) . .
O0AA Zr6 Zr5 109.66(11) . .
O0AA Zr6 O3 71.95(13) . .
O0AA Zr6 O22 123.52(16) . .
O5 Zr6 Zr1 83.73(10) . .
O5 Zr6 Zr3 31.74(9) . .
O5 Zr6 Zr4 31.25(10) . .
O5 Zr6 Zr5 82.47(10) . .
O5 Zr6 O0AA 141.77(14) . .
O5 Zr6 O8 72.02(14) . .
O5 Zr6 O3 70.76(13) . .
O5 Zr6 O18 85.83(15) . .
O5 Zr6 O22 79.27(16) . .
O5 Zr6 O25 146.06(16) . .
O6 Zr6 Zr1 32.55(10) . .
O6 Zr6 Zr3 85.30(10) . .
O6 Zr6 Zr4 84.03(10) . .
O6 Zr6 Zr5 31.89(10) . .
O6 Zr6 O0AA 82.37(15) . .
O6 Zr6 O5 93.80(14) . .
O6 Zr6 O8 70.84(14) . .
O6 Zr6 O3 71.83(13) . .
O6 Zr6 O18 142.98(14) . .
O6 Zr6 O22 145.22(15) . .
O6 Zr6 O25 96.49(19) . .
O8 Zr6 Zr1 96.99(10) . .
O8 Zr6 Zr3 97.93(10) . .
O8 Zr6 Zr4 40.85(10) . .
O8 Zr6 Zr5 38.95(10) . .
O8 Zr6 O0AA 139.20(15) . .
O8 Zr6 O3 124.23(13) . .
O8 Zr6 O22 74.62(16) . .
O3 Zr6 Zr1 39.38(9) . .
O3 Zr6 Zr3 39.22(8) . .
O3 Zr6 Zr4 95.73(8) . .
O3 Zr6 Zr5 96.06(9) . .
O18 Zr6 Zr1 111.20(10) . .
O18 Zr6 Zr3 75.11(10) . .
O18 Zr6 Zr4 111.26(11) . .
O18 Zr6 Zr5 166.26(10) . .
O18 Zr6 O0AA 75.66(16) . .
O18 Zr6 O8 141.98(15) . .
O18 Zr6 O3 73.18(13) . .
O18 Zr6 O22 71.07(16) . .
O22 Zr6 Zr1 162.67(12) . .
O22 Zr6 Zr3 103.63(13) . .
O22 Zr6 Zr4 72.40(12) . .
O22 Zr6 Zr5 113.48(12) . .
O22 Zr6 O3 134.41(16) . .
O25 Zr6 Zr1 120.44(15) . .
O25 Zr6 Zr3 177.47(14) . .
O25 Zr6 Zr4 118.28(14) . .
O25 Zr6 Zr5 89.45(15) . .
O25 Zr6 O0AA 71.85(17) . .
O25 Zr6 O8 81.02(17) . .
O25 Zr6 O3 143.11(16) . .
O25 Zr6 O18 104.29(18) . .
O25 Zr6 O22 73.89(19) . .
Zr2 O4 Zr1 115.83(16) . .
Zr2 O4 Zr3 116.12(15) . .
Zr3 O4 Zr1 116.62(15) . .
C6AA O13 Zr2 134.1(3) . .
C7AA O11 Zr1 132.1(4) . .
C6AA O14 Zr4 133.6(3) . .
Zr2 O28 Zr1 109.51(15) . 2_656
Zr1 O1AA Zr2 105.77(14) . .
Zr1 O1AA Zr5 100.85(13) . .
Zr2 O1AA Zr5 99.90(13) . .
Zr2 O27 Zr1 111.17(16) . 2_656
C7AA O0AA Zr6 132.9(4) . .
C1AA O17 Zr3 133.0(4) . .
C7 O21 Zr4 131.2(4) . .
Zr4 O5 Zr3 117.04(17) . .
Zr4 O5 Zr6 117.26(18) . .
Zr6 O5 Zr3 116.92(15) . .
Zr5 O6 Zr1 115.53(17) . .
Zr6 O6 Zr1 115.96(17) . .
Zr6 O6 Zr5 116.63(16) . .
C3AA O19 Zr4 131.5(3) . .
Zr5 O8 Zr4 100.80(15) . .
Zr5 O8 Zr6 101.87(15) . .
Zr6 O8 Zr4 99.55(15) . .
Zr3 O29 Zr3 110.20(15) 2_656 .
C3AA O20 Zr3 133.5(4) . .
C0AA O10 Zr5 132.5(4) . .
C2AA O15 Zr5 131.9(4) . .
Zr4 O7 Zr2 115.87(17) . .
Zr5 O7 Zr2 116.48(16) . .
Zr5 O7 Zr4 117.69(18) . .
C0AA O9 Zr1 131.7(4) . .
Zr2 O2AA Zr3 104.96(13) . .
Zr2 O2AA Zr4 100.90(14) . .
Zr3 O2AA Zr4 99.96(13) . .
Zr1 O3 Zr6 100.63(13) . .
Zr3 O3 Zr1 105.87(14) . .
Zr3 O3 Zr6 100.83(13) . .
C2AA O16 Zr2 133.4(4) . .
C1AA O18 Zr6 131.5(4) . .
C7 O22 Zr6 133.1(4) . .
C11 O25 Zr6 150.7(8) . .
C10 O26 Zr5 140.1(6) . .
O11 C7AA O0AA 127.4(5) . .
O14 C6AA O13 124.5(5) . .
O15 C2AA O16 126.7(6) . .
O9 C0AA O10 128.5(5) . .
O18 C1AA O17 127.8(5) . .
N12 C11 O25 138.9(9) . .
O19 C3AA O20 127.0(5) . .
C11 N12 C2 135.3(8) . .
C11 N12 C9AA 105.0(11) . .
C2 N12 C9AA 103.2(9) . .
O21 C7 O22 126.5(6) . .
O26 C10 O015 122.9(8) . .
O2 C3 O1 123.7(6) . .
C8 N2 C5 126.1(16) . .
C8 N2 C5AA 125.9(19) . .
C5AA N2 C5 107.9(17) . .
N2 C5 O4AA 171(2) . 5_566
O23 C8 N2 121.5(18) . .
C8 O23 Zr5 121.8(14) . .
O24 C4AA O4AA 128(3) . .
C4AA O4AA C5 124(2) . 5_566
C4AA O24 Zr4 135.8(17) . .
C12 O24A Zr4 130.9(7) . .
C12 O23A Zr5 135.8(8) . .
O23A C12 O24A 125.0(10) . .
C8AA O5AA C8AA 41.5(18) 2_556 .
O5AA C8AA O6AA 99.7(14) . .
C8AA C8AA O5AA 69.2(9) 2_556 .
C8AA C8AA O6AA 166(2) 2_556 .
loop_
_geom_bond_atom_site_label_1
_geom_bond_atom_site_label_2
_geom_bond_distance
_geom_bond_site_symmetry_2
Zr1 Zr2 3.6080(5) .
Zr1 Zr2 3.5382(6) 2_656
Zr1 Zr5 3.5346(6) .
Zr1 Zr6 3.5224(6) .
Zr1 O4 2.143(3) .
Zr1 O11 2.233(4) .
Zr1 O28 2.167(3) 2_656
Zr1 O1AA 2.253(3) .
Zr1 O27 2.152(3) 2_656
Zr1 O6 2.108(3) .
Zr1 O9 2.270(4) .
Zr1 O3 2.274(3) .
Zr2 Zr1 3.5382(6) 2_656
Zr2 Zr3 3.5909(6) .
Zr2 Zr4 3.5150(6) .
Zr2 Zr5 3.5249(6) .
Zr2 O4 2.115(3) .
Zr2 O13 2.249(3) .
Zr2 O28 2.166(3) .
Zr2 O1AA 2.272(3) .
Zr2 O27 2.137(3) .
Zr2 O7 2.089(4) .
Zr2 O2AA 2.249(4) .
Zr2 O16 2.276(4) .
Zr3 Zr3 3.5335(8) 2_656
Zr3 Zr4 3.5139(6) .
Zr3 Zr6 3.5234(6) .
Zr3 O4 2.116(3) .
Zr3 O17 2.272(4) .
Zr3 O5 2.079(4) .
Zr3 O29 2.150(3) 2_656
Zr3 O29 2.158(4) .
Zr3 O20 2.246(4) .
Zr3 O2AA 2.279(3) .
Zr3 O3 2.268(3) .
Zr4 Zr6 3.4982(6) .
Zr4 O14 2.236(4) .
Zr4 O21 2.219(4) .
Zr4 O5 2.042(3) .
Zr4 O19 2.247(4) .
Zr4 O8 2.320(4) .
Zr4 O7 2.059(4) .
Zr4 O2AA 2.310(3) .
Zr4 O24 2.259(16) .
Zr4 O24A 2.173(11) .
Zr5 Zr6 3.5030(6) .
Zr5 O1AA 2.333(3) .
Zr5 O6 2.071(4) .
Zr5 O8 2.250(4) .
Zr5 O10 2.229(4) .
Zr5 O15 2.242(4) .
Zr5 O7 2.057(4) .
Zr5 O26 2.174(5) .
Zr5 O23 2.295(15) .
Zr5 O23A 2.294(11) .
Zr6 O0AA 2.282(4) .
Zr6 O5 2.055(4) .
Zr6 O6 2.046(4) .
Zr6 O8 2.261(4) .
Zr6 O3 2.303(3) .
Zr6 O18 2.210(4) .
Zr6 O22 2.284(4) .
Zr6 O25 2.153(5) .
O13 C6AA 1.289(6) .
O11 C7AA 1.260(7) .
O14 C6AA 1.254(7) .
O28 Zr1 2.167(3) 2_656
O27 Zr1 2.152(3) 2_656
O0AA C7AA 1.260(7) .
O17 C1AA 1.268(7) .
O21 C7 1.259(8) .
O19 C3AA 1.258(7) .
O29 Zr3 2.150(3) 2_656
O20 C3AA 1.259(6) .
O10 C0AA 1.260(7) .
O15 C2AA 1.248(7) .
O9 C0AA 1.244(7) .
O16 C2AA 1.263(7) .
O18 C1AA 1.248(7) .
O22 C7 1.276(8) .
O25 C11 1.245(9) .
O26 C10 1.275(9) .
O015 C10 1.284(11) .
C11 N12 1.143(10) .
N12 C2 1.454(9) .
N12 C9AA 1.576(15) .
O1 C3 1.298(7) .
O2 C3 1.217(7) .
N2 C5 1.53(3) .
N2 C8 1.32(2) .
N2 C5AA 1.49(3) .
C5 O4AA 1.85(3) 5_566
C8 O23 1.27(2) .
C4AA O4AA 1.294(17) .
C4AA O24 1.24(3) .
O4AA C5 1.85(3) 5_566
O24A C12 1.281(17) .
O23A C12 1.250(16) .
O5AA C8AA 1.366(17) 2_556
O5AA C8AA 1.366(17) .
C8AA C8AA 0.97(4) 2_556
C8AA O6AA 1.59(3) .
loop_
_geom_torsion_atom_site_label_1
_geom_torsion_atom_site_label_2
_geom_torsion_atom_site_label_3
_geom_torsion_atom_site_label_4
_geom_torsion
_geom_torsion_site_symmetry_1
_geom_torsion_site_symmetry_4
Zr1 O11 C7AA O0AA 2.9(10) . .
Zr1 O9 C0AA O10 6.2(9) . .
Zr2 O13 C6AA O14 1.0(9) . .
Zr2 O16 C2AA O15 13.3(10) . .
Zr3 O17 C1AA O18 -3.0(9) . .
Zr3 O20 C3AA O19 10.4(9) . .
Zr4 O14 C6AA O13 -9.8(9) . .
Zr4 O21 C7 O22 -14.1(11) . .
Zr4 O19 C3AA O20 -1.3(9) . .
Zr4 O24A C12 O23A 15(2) . .
Zr5 O10 C0AA O9 -8.8(10) . .
Zr5 O15 C2AA O16 -3.2(10) . .
Zr5 O26 C10 O015 -23.0(16) . .
Zr5 O23A C12 O24A -1(2) . .
Zr6 O0AA C7AA O11 1.0(11) . .
Zr6 O18 C1AA O17 -6.1(9) . .
Zr6 O22 C7 O21 11.3(11) . .
Zr6 O25 C11 N12 -84(2) . .
O25 C11 N12 C2 -176.5(13) . .
O25 C11 N12 C9AA -49(3) . .
N2 C8 O23 Zr5 157.3(13) . .
C5 N2 C8 O23 -6(3) . .
C5AA N2 C8 O23 177(2) . .
O4AA C4AA O24 Zr4 -176(3) . .
O24 C4AA O4AA C5 156(3) . 5_566
C8AA O5AA C8AA O6AA 172(4) 2_556 .
loop_
_refln_index_h
_refln_index_k
_refln_index_l
_refln_F_squared_meas
_refln_F_squared_sigma
-4 0 0 586.04 37.1
-4 0 0 649.24 37.2
4 0 0 587.14 37.1
4 0 0 664.93 37.2
6 0 0 607.24 35.3
6 0 0 618.84 35.5
-6 0 0 533.55 35.2
8 0 0 70.59 7
1 -1 0 -3.8 1.3
5 -1 0 20 5.1
5 -1 0 8.7 5.4
-5 1 0 3.7 5.3
-5 1 0 9.5 4.6
7 -1 0 600.54 36.9
-7 1 0 606.54 37
9 -1 0 386.26 25.6
-9 1 0 392.46 25
-9 1 0 413.56 25.7
-11 1 0 130.29 12.1
-11 1 0 104.39 10.6
0 -2 0 505.65 30.7
0 -2 0 541.25 30.8
0 2 0 542.25 30.8
0 2 0 460.95 30.7
-2 2 0 1658.33 97.69
6 -2 0 445.56 26
-6 2 0 362.46 26.2
-6 2 0 400.46 25.8
8 -2 0 932.51 54.39
-8 2 0 863.11 54.39
-10 2 0 1.1 5.8
-10 2 0 2.2 6.5
-12 2 0 -4.6 5.5
-12 2 0 -11.5 6.9
-1 -3 0 230.78 15.6
1 -3 0 214.98 16.3
-1 -3 0 255.97 15.9
1 -3 0 235.98 16.7
1 3 0 224.28 15.5
1 3 0 261.37 15.8
-1 3 0 262.97 16.7
-1 3 0 204.68 16.1
5 -3 0 917.41 55.19
-5 3 0 934.01 55.39
-5 3 0 886.71 54.99
7 -3 0 239.88 17.8
-7 3 0 234.48 18.2
-7 3 0 232.98 17.6
9 -3 0 2.2 7.1
-9 3 0 2.1 6.6
-9 3 0 2.9 5.9
-11 3 0 1156.08 67.59
-11 3 0 1091.59 68.29
-13 3 0 24.8 8.9
-13 3 0 29.3 7.1
0 -4 0 1191.88 73.49
0 -4 0 1281.07 73.69
0 4 0 1187.18 73.59
0 4 0 1272.57 73.69
2 -4 0 173.78 15
2 -4 0 127.79 14.2
-2 -4 0 197.28 12.7
-2 -4 0 147.99 12.3
-2 4 0 188.08 15
-2 4 0 159.18 13.6
2 4 0 109.79 11.4
6 -4 0 111.19 10.6
-6 4 0 98.69 10.1
-6 4 0 81.09 10.5
8 -4 0 4 7.2
-8 4 0 11.7 7.1
10 -4 0 1162.88 73.49
-10 4 0 1251.17 73.79
-10 4 0 1226.68 72.99
-12 4 0 139.09 14.4
-12 4 0 182.48 15.8
-14 4 0 146.69 13.2
-16 4 0 130.39 14
-1 -5 0 1237.08 72.39
1 -5 0 1180.28 72.79
1 -5 0 1152.98 72.59
-1 -5 0 1196.38 72.29
-1 5 0 1280.47 72.99
1 5 0 1232.38 72.49
-1 5 0 1215.58 72.59
1 5 0 1199.68 72.29
-3 -5 0 1690.53 94.09
3 -5 0 1687.13 95.09
3 -5 0 1522.45 94.89
-3 -5 0 1557.24 93.99
-3 5 0 1639.24 95.09
3 5 0 1650.23 94.09
-3 5 0 1470.55 94.69
3 5 0 1522.85 93.79
5 -5 0 2033.7 119.79
5 -5 0 1960.9 119.69
-5 5 0 1998.8 119.59
5 5 0 2128.99 118.39
-5 5 0 1940.91 119.79
7 -5 0 4065.49 241.98
-7 5 0 4155.78 242.08
9 -5 0 487.55 31.3
-9 5 0 440.76 31.3
11 -5 0 274.67 23.2
-11 5 0 308.07 22
-11 5 0 316.67 23.9
-13 5 0 250.17 28.3
-13 5 0 257.77 19.9
-15 5 0 132.59 14.7
-17 5 0 420.56 28.4
0 -6 0 672.93 41.3
0 -6 0 651.73 41.2
0 6 0 666.03 41.4
0 6 0 602.34 40.9
-2 -6 0 13.1 6.5
2 -6 0 20.3 7.8
2 -6 0 19.8 8.8
-2 -6 0 30.2 7.2
-2 6 0 21.9 8.9
-2 6 0 24.1 7.6
2 6 0 23.5 6.9
-4 -6 0 1203.78 74.59
4 -6 0 1215.98 75.79
-4 -6 0 1327.97 74.69
4 -6 0 1354.46 76.09
-4 6 0 1184.18 75.59
4 6 0 1161.58 74.29
-4 6 0 1313.57 76.09
4 6 0 1288.97 74.59
6 -6 0 2321.67 130.79
-6 -6 0 2096.69 129.09
-6 6 0 2268.87 130.69
-6 6 0 2108.49 130.69
8 -6 0 979.5 60.09
-8 6 0 960.6 59.99
10 -6 0 193.78 19.7
-10 6 0 235.98 18.5
-10 6 0 226.48 20
-12 6 0 -2.2 9.7
-12 6 0 -7.4 7.8
-14 6 0 682.73 43.5
-16 6 0 2.5 8.4
1 -7 0 2636.54 150.18
-1 -7 0 2720.73 149.88
-1 -7 0 2229.38 149.59
1 -7 0 2511.85 149.99
1 7 0 2460.55 149.69
-1 7 0 2736.83 150.28
1 7 0 2620.64 149.88
-1 7 0 2364.86 149.79
-3 -7 0 114.19 12.5
-3 -7 0 119.19 12.6
3 -7 0 115.89 12.8
3 -7 0 121.09 12.3
3 7 0 139.99 12.6
-3 7 0 121.89 13.6
3 7 0 119.39 11.4
-3 7 0 122.79 13.4
-5 -7 0 55.99 7.6
5 -7 0 50.49 10.1
-5 -7 0 66.89 7.6
-5 7 0 64.49 9.9
-5 7 0 39 10.2
5 7 0 64.59 6.9
7 -7 0 1651.53 100.59
-7 -7 0 1736.83 98.69
7 7 0 1655.13 98.39
-7 7 0 1594.54 100.69
-7 7 0 1699.23 100.59
9 -7 0 89.09 12.8
-9 7 0 128.19 13.2
11 -7 0 199.58 20.7
-11 7 0 216.18 18.5
-11 7 0 198.68 20.4
-13 7 0 106.39 12.6
-15 7 0 22.9 9.5
0 -8 0 3072.69 171.78
0 -8 0 2775.02 171.48
0 8 0 2940.31 171.78
0 8 0 2825.32 171.48
2 -8 0 270.07 22.6
2 -8 0 293.47 22.7
-2 -8 0 255.17 21.1
-2 -8 0 285.77 21
-2 8 0 299.67 23.5
-2 8 0 278.27 21.3
2 8 0 297.67 20.9
4 -8 0 1892.71 110.89
-4 -8 0 1831.92 109.59
-4 -8 0 1789.82 109.79
4 -8 0 1852.01 110.89
4 8 0 1925.51 109.39
-4 8 0 1781.52 110.89
-4 8 0 1861.41 110.69
6 -8 0 180.08 17.8
-6 -8 0 150.98 13.8
-6 -8 0 155.98 13.7
6 8 0 136.89 12.6
-6 8 0 148.69 15.6
-6 8 0 169.48 16.6
-8 -8 0 258.87 18
8 -8 0 240.28 22.4
-8 8 0 280.87 22.2
10 -8 0 2904.51 173.98
-10 8 0 2943.21 173.08
-10 8 0 2914.51 174.18
-12 8 0 46.1 10.3
-14 8 0 188.08 18.7
-16 8 0 29 10.2
1 -9 0 31.2 9.2
-1 -9 0 18.7 8.6
-1 -9 0 20.7 8.4
1 -9 0 35.4 9.1
1 9 0 37.7 10
-1 9 0 34.3 10.2
-1 9 0 43.8 8.6
1 9 0 28.6 9.3
-3 -9 0 92.09 10.8
3 -9 0 71.59 12.9
3 -9 0 79.99 12.4
-3 -9 0 98.79 10.6
3 9 0 108.79 11.3
-3 9 0 60.29 12.5
3 9 0 111.59 10.3
-3 9 0 89.29 11.4
5 -9 0 73.79 11.3
-5 -9 0 56.59 8.9
-5 -9 0 48.5 8.8
-5 9 0 52.69 10
5 9 0 58.59 7.9
-5 9 0 63.39 11.7
7 -9 0 1077.19 67.79
-7 -9 0 1070.39 65.39
-7 -9 0 1185.28 65.89
-7 9 0 1098.19 67.79
7 9 0 1047 65.09
-7 9 0 1052.99 68.09
9 -9 0 527.35 36.8
-9 9 0 528.95 36.8
-11 9 0 987.4 61.59
-13 9 0 -0.8 9.6
-15 9 0 -3 9.6
0 -10 0 157.88 18.4
0 -10 0 200.28 18.7
0 10 0 190.78 19.8
0 10 0 175.28 18
2 -10 0 23.3 10.1
-2 -10 0 44.9 9.4
2 -10 0 14.5 9.7
-2 -10 0 40.9 9.3
2 10 0 35.6 8.9
-2 10 0 14.3 8.8
-2 10 0 18.2 10.8
4 -10 0 358.86 27.6
-4 -10 0 303.97 24.4
-4 -10 0 383.36 25
4 -10 0 346.07 26.8
-4 10 0 346.27 25.8
-4 10 0 363.96 27.6
4 10 0 315.37 23.5
6 -10 0 17.4 9.7
-6 -10 0 11.6 7.5
-6 -10 0 2.5 7.6
6 10 0 12.5 6.4
-6 10 0 -0.1 10.3
-6 10 0 6.3 8.9
-8 -10 0 66.59 9.7
8 -10 0 81.79 13
-8 -10 0 66.89 9.4
8 10 0 90.49 9.1
-8 10 0 76.59 12.6
-10 10 0 698.43 42.7
-10 10 0 529.85 40
-12 10 0 140.19 15.6
-14 10 0 -7.2 9.8
-1 -11 0 68.39 10.8
1 -11 0 55.99 11.5
-1 -11 0 53.19 10.5
1 -11 0 47.8 11.1
-1 11 0 63.19 10.2
1 11 0 63.89 10.6
-1 11 0 42.5 11.4
3 -11 0 441.86 32.3
3 -11 0 418.96 31.6
-3 -11 0 453.55 30.3
-3 -11 0 442.16 29.9
3 11 0 412.66 28.8
-3 11 0 443.46 30.9
-3 11 0 397.26 32.4
-5 -11 0 12.4 8.4
5 -11 0 3.7 9.9
-5 -11 0 29.8 8.8
-5 11 0 14.5 11
5 11 0 12.6 7
-5 11 0 15.5 9.7
7 -11 0 234.98 24.2
-7 -11 0 243.28 20.6
-7 -11 0 246.48 20.1
7 11 0 279.57 19
-7 11 0 259.57 23.2
9 -11 0 1251.67 79.59
-9 -11 0 1315.67 76.79
-9 -11 0 1255.67 76.29
-9 11 0 1261.57 79.59
-11 11 0 2948.7 175.58
-13 11 0 33.6 11.2
-15 11 0 -9.9 10.4
0 -12 0 5325.87 297.87
0 -12 0 4908.01 297.37
0 12 0 5054.69 297.47
0 12 0 4899.11 297.57
2 -12 0 98.69 13.5
2 -12 0 99.89 13.9
-2 -12 0 121.99 13.8
-2 -12 0 110.69 13.2
2 12 0 124.79 12.4
-2 12 0 94.19 14.6
-2 12 0 89.69 12.8
-4 -12 0 522.45 33.4
-4 -12 0 477.45 32.8
4 -12 0 456.95 34.6
-4 12 0 494.35 34.1
-4 12 0 427.06 35.2
4 12 0 482.65 31.8
6 -12 0 338.87 27.2
-6 -12 0 303.87 23.7
-6 -12 0 334.67 24.3
-6 12 0 280.67 27.7
6 12 0 276.67 22.4
-6 12 0 347.57 26.3
-8 -12 0 212.18 19.6
8 -12 0 253.47 24.4
-8 -12 0 244.68 20.6
-8 12 0 261.37 24.1
8 12 0 245.08 18.8
-10 -12 0 2582.94 155.58
-10 -12 0 2497.85 155.08
-10 12 0 2824.02 157.28
-12 12 0 -17.1 9.9
-14 12 0 -12.1 10.6
-1 -13 0 380.86 30.5
1 -13 0 449.86 31.5
1 -13 0 435.26 31.6
-1 -13 0 426.96 31.3
-1 13 0 387.76 32.1
-1 13 0 413.46 30.6
3 -13 0 196.88 22.5
-3 -13 0 256.37 21.4
-3 -13 0 217.38 20.7
3 -13 0 217.88 23.8
-3 13 0 225.58 21.7
3 13 0 237.88 19.4
-3 13 0 207.08 21
-5 -13 0 90.69 12.6
-5 -13 0 87.09 12.1
5 -13 0 77.69 13.6
-5 13 0 65.99 14.7
5 13 0 92.39 11.2
-5 13 0 86.09 13.8
-7 -13 0 3238.68 190.88
-7 -13 0 3316.37 190.38
7 -13 0 3096.59 192.38
7 13 0 3140.79 189.88
-7 13 0 3298.17 192.68
-9 -13 0 69.99 11.2
-9 -13 0 75.09 10.8
-9 13 0 53.89 12.3
-11 -13 0 50.29 9.5
-11 -13 0 34.5 8.9
-11 13 0 29.8 11.7
-13 13 0 430.66 33.1
0 -14 0 1838.02 115.29
0 -14 0 2031.7 116.09
0 14 0 1847.92 117.49
-2 -14 0 36.2 11.1
2 -14 0 18.6 11.4
-2 -14 0 47.5 12
2 -14 0 39.1 12.5
-2 14 0 29.9 10.7
2 14 0 43.5 9.5
-2 14 0 40.2 13.2
-4 -14 0 659.03 45.2
4 -14 0 668.13 46.4
-4 -14 0 678.23 44.6
4 14 0 703.33 43.7
-4 14 0 625.14 46.9
-4 14 0 724.63 46.1
-6 -14 0 599.74 41.8
6 -14 0 670.03 45.1
-6 -14 0 585.54 42.3
-6 14 0 677.73 44.6
6 14 0 653.13 41.1
-8 -14 0 1307.07 85.69
8 -14 0 1458.45 88.39
-8 -14 0 1354.46 84.99
8 14 0 1499.35 84.79
-10 -14 0 -0.3 8.6
-10 -14 0 5.6 9.5
-10 14 0 -3.1 11
-12 -14 0 13.9 8.8
-12 14 0 -3.9 11.3
-14 14 0 704.53 47.7
1 -15 0 797.92 51.19
-1 -15 0 851.41 51.89
-1 -15 0 746.33 50.79
1 -15 0 799.52 51.59
1 15 0 668.93 49.2
-1 15 0 798.32 51.19
-3 -15 0 202.78 21.7
3 -15 0 186.98 20.5
-3 -15 0 210.88 22.7
3 15 0 213.48 19.8
-3 15 0 243.48 22.5
-5 -15 0 71.99 12.2
-5 -15 0 74.19 13.6
5 -15 0 56.59 14.7
-5 15 0 75.99 14.8
5 15 0 45.9 10.7
7 -15 0 691.33 48.2
-7 -15 0 603.54 45.4
-7 -15 0 638.94 44.8
-7 15 0 772.52 48.3
7 15 0 731.23 44.2
-9 -15 0 210.78 22.2
-9 -15 0 249.18 21.1
-9 15 0 238.28 23.5
-11 -15 0 232.78 20.6
-11 -15 0 233.98 22.5
-11 15 0 278.77 24.9
-13 15 0 94.89 15.7
0 -16 0 29.4 12.3
0 -16 0 2.7 12
0 16 0 -4.4 9.1
2 -16 0 42.5 14
-2 -16 0 48.1 12.4
2 -16 0 30.1 12.6
-2 -16 0 53.09 13.7
2 16 0 29.5 11
-2 16 0 49.99 12.9
4 -16 0 1108.19 73.59
-4 -16 0 1177.78 73.29
-4 -16 0 1149.89 72.39
-4 16 0 1172.28 73.79
4 16 0 1173.18 71.79
-6 -16 0 0.1 10.9
-6 -16 0 -11.5 10.3
6 -16 0 -1.6 12.9
-6 16 0 -8 11.4
6 16 0 -16.2 8.8
-8 -16 0 5.5 10.4
-8 -16 0 12 10.9
-8 16 0 -5.3 11
-10 -16 0 499.55 36.9
-10 16 0 621.64 40.4
-12 -16 0 14 9.7
-12 16 0 34.5 13.2
-14 16 0 15.2 13.2
1 -17 0 9.7 12.5
-1 -17 0 21.4 12.2
1 -17 0 7.1 12.2
-1 -17 0 9.9 11.7
1 17 0 2.3 9.8
-3 -17 0 2369.16 151.38
-3 -17 0 2575.24 152.58
3 -17 0 2482.05 152.58
3 17 0 2567.04 151.18
-3 17 0 2639.24 152.98
-5 -17 0 39.6 13.3
5 -17 0 44.9 13.8
-5 -17 0 29.6 12.3
-5 17 0 57.09 14
5 17 0 17.8 11.2
-7 -17 0 148.89 16.4
-7 17 0 126.29 16.7
-9 -17 0 354.96 26.7
-9 17 0 290.37 28.7
-11 -17 0 37 11.5
-11 17 0 52.99 14
-13 -17 0 41.9 10.9
-13 17 0 72.59 15.2
0 -18 0 1759.02 107.09
0 -18 0 1833.52 107.99
0 18 0 1629.24 105.79
-2 -18 0 178.38 21.3
-2 -18 0 182.98 19.6
2 -18 0 182.78 21.7
2 -18 0 169.88 21.4
2 18 0 202.18 19
-2 18 0 192.98 21.1
-4 -18 0 632.14 47.2
-4 -18 0 671.73 46.1
4 -18 0 608.24 47.6
-4 18 0 696.43 47.6
4 18 0 716.33 45.4
6 -18 0 -24.1 13.9
-6 -18 0 -12.2 11.2
-6 18 0 -7.4 11.3
-8 -18 0 66.39 13.8
-8 18 0 69.79 14.7
-10 -18 0 446.16 30.9
-10 18 0 348.37 33
-12 -18 0 -2.2 10.5
-12 18 0 20.6 13.7
-14 -18 0 9.6 9.9
1 -19 0 1762.32 109.99
1 -19 0 1676.13 108.89
-1 -19 0 1751.12 109.69
-1 -19 0 1861.91 109.09
1 19 0 1796.72 107.99
-1 19 0 1742.23 107.89
-3 -19 0 18.5 13.8
3 -19 0 33.8 14.5
-3 -19 0 44.6 13.5
3 19 0 32.9 12.5
-3 19 0 44.7 12.4
5 -19 0 32.6 16.3
-5 -19 0 15.2 12.6
-5 19 0 24.1 12.4
-7 -19 0 -15.4 11.9
-7 19 0 -26.6 11.4
-9 -19 0 -0.7 11.6
-9 19 0 5.8 12.9
-11 -19 0 48.5 12.5
-11 19 0 25.9 14.2
-13 -19 0 7 10.8
-13 19 0 -19 14.2
0 -20 0 4717.93 299.37
0 -20 0 5018.1 300.57
0 20 0 5403.76 299.17
2 -20 0 17.6 14.2
-2 -20 0 9 13.2
2 20 0 8.1 11.5
-2 20 0 16.3 11.7
4 -20 0 19 15.4
-4 -20 0 17.8 13.3
-4 20 0 28.6 12.6
-6 -20 0 -11.3 12.3
-6 20 0 8.2 12.4
-8 -20 0 61.69 14.5
-8 20 0 46.2 15
-10 -20 0 161.38 18.8
-10 20 0 194.58 21.4
-12 -20 0 105.49 15
-12 20 0 106.29 18.6
1 21 0 50.79 13.9
-3 -21 0 506.95 41.5
3 -21 0 521.05 43.3
-3 21 0 621.44 41.4
5 -21 0 6.7 16.7
-5 -21 0 -7.3 12.8
-5 21 0 7.5 13.1
-7 -21 0 -8.6 12.6
-7 21 0 -26.7 12.5
-9 -21 0 10.2 13
-9 21 0 2.9 14
-11 -21 0 9.6 12.4
-11 21 0 3.7 14.7
0 -22 0 1463.95 92.09
0 22 0 1437.96 91.19
2 -22 0 136.69 21.1
-2 -22 0 169.18 21.2
-2 22 0 176.88 20
4 -22 0 501.05 43.8
-4 -22 0 497.25 41.1
-4 22 0 600.74 41.5
-6 -22 0 5.9 13.7
-6 22 0 -25.5 12.9
-8 -22 0 4.6 13.6
-8 22 0 -6.5 13.7
-10 -22 0 53.29 14.9
-10 22 0 44.1 16.1
-12 22 0 20 15.9
1 -23 0 66.29 17.4
-1 -23 0 46.8 16.7
3 -23 0 85.69 19.4
-5 -23 0 26.8 15.2
-5 23 0 9.3 14.7
-7 -23 0 76.09 16.2
-7 23 0 58.49 16.5
-9 -23 0 65.39 15.3
-9 23 0 44.4 16.3
-11 23 0 253.17 26.9
0 -24 0 -4.8 15
-2 -24 0 186.38 23.4
2 -24 0 201.38 24.6
-4 -24 0 202.08 23
-4 24 0 157.38 22.2
-6 -24 0 21.5 15.1
-6 24 0 0.6 14.5
-8 -24 0 17.8 14.6
-8 24 0 15.1 15
-10 24 0 455.75 39.6
1 -25 0 36.5 17.8
-1 -25 0 22.9 16.8
-3 -25 0 683.73 51.09
3 -25 0 706.73 53.79
-5 -25 0 -22.3 14.8
-5 25 0 -8.3 15
-7 -25 0 691.53 53.59
-7 25 0 853.11 55.59
-9 -25 0 48.1 16.3
-9 25 0 47.1 17.5
-11 25 0 19.9 16.9
0 -26 0 324.77 35.1
2 -26 0 27.9 18.3
-2 -26 0 12.9 16.6
-4 -26 0 110.69 20.4
-6 -26 0 53.99 17.3
-6 26 0 34.7 17.5
-8 -26 0 272.87 31.6
-8 26 0 383.76 34.8
-10 26 0 -17.6 16
-1 -27 0 56.89 19.8
1 -27 0 70.19 21.3
-3 -27 0 3.1 16.6
-5 -27 0 32.8 17.6
-7 27 0 67.49 21
-9 27 0 25 17.6
0 -28 0 16.3 19
-2 -28 0 19 18.1
-4 -28 0 25.1 17.7
-6 -28 0 177.78 24
-10 28 0 175.18 25.4
-1 -29 0 -11.2 18
1 -29 0 0 19.6
-3 -29 0 22.5 18.6
-5 -29 0 6 17.3
0 -30 0 122.59 24.2
-2 -30 0 27.5 19.9
-4 -30 0 20 18.8
-1 -31 0 36.2 19.9
-3 -31 0 -0.1 19.1
-2 -32 0 7.7 20.4
-1 -33 0 -3.4 21.2
8 0 -1 4.7 5.2
-8 0 1 10.3 5.8
-6 0 1 -6.3 4.3
6 0 -1 4.4 4.7
-6 0 1 2.5 5.1
6 0 -1 -2.6 5.2
4 0 -1 4 4.7
-4 0 1 -3 4.5
4 0 -1 -1.6 4.3
-4 0 1 0.6 3.8
2 0 -1 1.3 3.2
-2 0 1 0.9 3.3
-2 0 1 1 3.4
2 0 -1 5.3 3.4
-4 0 -1 1.2 3
4 0 1 -8.4 3.9
4 0 1 -0.6 3.6
6 0 1 1.5 4.5
-11 1 1 190.38 15.2
-11 1 1 184.98 14.2
9 -1 -1 310.87 20.6
-9 1 1 289.27 20.4
7 -1 -1 0 5.4
-7 1 1 -1.5 5.2
-7 1 1 -2 6
5 -1 -1 178.08 14.3
5 -1 -1 202.18 14
-5 1 1 182.78 14.4
-5 1 1 181.68 13.8
3 -1 -1 24.2 5.3
3 -1 -1 20.5 5.1
-3 1 1 26.1 5.2
3 1 -1 19 4.1
-3 1 1 21.8 5
1 1 -1 0.5 0.7
1 -1 1 -0.2 1.3
5 -1 1 15.4 4.9
5 -1 1 18 5.5
-5 1 -1 12.5 4.6
-5 1 -1 10.2 4
7 -1 1 329.07 20.8
-7 1 -1 316.07 20.7
-7 1 -1 309.37 20.3
9 -1 1 142.19 13.8
-9 1 -1 102.99 11.3
-9 1 -1 108.69 10.2
-14 2 1 12.9 6.5
-12 2 1 465.65 30.1
-12 2 1 444.46 28.9
-10 2 1 577.34 36.6
8 -2 -1 325.77 21.9
-8 2 1 310.57 22.3
-8 2 1 313.37 21.7
6 -2 -1 1401.86 82.69
-6 2 1 1406.96 82.89
-6 2 1 1365.36 82.69
4 -2 -1 72.59 7.6
-4 2 1 59.09 7.3
-4 2 1 62.39 8.2
-2 -2 -1 59.69 5
-2 -2 -1 51.39 4.7
2 -2 1 56.79 6.5
2 -2 1 44.3 6.2
2 2 1 51.09 5.9
2 2 1 52.59 4.8
-2 2 -1 40.4 5.7
-2 2 -1 53.09 6.4
4 -2 1 941.31 50.79
4 -2 1 839.42 50.49
-4 2 -1 747.63 50.39
6 -2 1 76.29 7.8
-6 2 -1 70.99 7.5
-6 2 -1 63.79 7.3
8 -2 1 834.62 48.1
-8 2 -1 734.13 47.6
-8 2 -1 804.42 48.1
-10 2 -1 1142.09 66.59
-10 2 -1 1082.79 67.09
-12 2 -1 0.7 7
-12 2 -1 0.4 5.7
-15 3 1 0.7 6.8
-13 3 1 194.78 15.5
-13 3 1 176.48 17.7
-11 3 1 165.48 15.6
-11 3 1 145.79 14
9 -3 -1 1710.93 101.79
-9 3 1 1652.73 101.79
-9 3 1 1754.62 101.89
7 -3 -1 34 7.5
-7 3 1 33.5 8.2
-7 3 1 35.1 7.2
5 -3 -1 56.79 8.5
-5 3 1 68.79 8.1
-5 3 1 57.99 8.8
-1 -3 1 130.29 9.9
-1 -3 1 138.89 10.6
1 -3 -1 119.09 11.4
1 -3 -1 127.39 12
1 3 -1 141.49 9.9
-1 3 1 119.69 11.3
1 3 -1 132.59 10.5
-1 3 1 141.09 11.9
1 -3 1 14.3 5.6
-1 -3 -1 6.7 4.6
-1 -3 -1 13.3 4.4
1 -3 1 5.9 4.9
1 3 1 7.2 4
1 3 1 23.7 5.1
-1 3 -1 7.4 5.1
-1 3 -1 2.1 4.1
7 -3 1 431.26 26.6
-7 3 -1 382.06 25.9
-7 3 -1 402.76 26.5
9 -3 1 855.51 54.19
-9 3 -1 892.91 53.69
-9 3 -1 914.41 54.39
-11 3 -1 240.58 19.1
-11 3 -1 223.68 17.5
-13 3 -1 43.7 9.3
-13 3 -1 39.8 7.7
-15 3 -1 12.8 6.8
-16 4 1 98.09 11
-14 4 1 471.55 30.9
-12 4 1 222.58 17.9
-12 4 1 235.48 20
10 -4 -1 1196.28 72.39
-10 4 1 1186.58 72.69
8 -4 -1 251.07 19.7
-8 4 1 249.08 20.3
-8 4 1 252.37 19.3
6 -4 -1 277.47 19.8
-6 4 1 259.37 20.3
-6 4 1 257.47 19.3
-2 -4 1 5.9 4.2
2 -4 -1 3.1 6.4
2 -4 -1 7.7 7.1
-2 -4 1 15.1 5.5
-2 4 1 -9.2 6
-2 4 1 -1.4 7.2
2 4 -1 3.8 4.5
2 4 -1 -2.5 2.1
0 -4 -1 163.98 13.2
0 -4 -1 165.18 13.7
0 -4 1 152.68 13.3
0 4 1 165.48 13.9
0 4 1 157.28 13.1
0 4 -1 150.88 13
0 4 -1 136.29 12.1
2 4 1 -1.4 0.6
-4 -4 -1 452.05 28.6
4 -4 1 419.06 30.4
-4 -4 -1 512.25 28.7
4 -4 1 495.25 31
-4 4 -1 455.25 30.1
4 4 1 511.35 28.7
4 4 1 447.76 28.4
6 -4 1 513.95 31
-6 4 -1 448.36 30.7
8 -4 1 58.99 9.1
-8 4 -1 56.39 9
-8 4 -1 64.69 8.3
10 -4 1 15.8 8.3
-10 4 -1 12.7 7.2
-10 4 -1 3.6 7.8
-12 4 -1 57.89 10.8
-12 4 -1 65.89 8.8
-14 4 -1 116.09 11.5
-16 4 -1 254.27 19.2
-17 5 1 13.4 9.5
-15 5 1 52.29 9.3
-13 5 1 274.97 21
11 -5 -1 298.37 25
-11 5 1 345.47 23.8
-11 5 1 356.16 25.7
9 -5 -1 117.29 13.1
-9 5 1 110.59 13.8
-9 5 1 140.69 13.4
7 -5 -1 900.91 55.19
-7 5 1 864.01 54.99
-7 5 1 913.91 55.49
5 -5 -1 1373.46 83.69
5 -5 -1 1368.56 83.49
5 5 -1 1323.97 81.99
5 5 -1 1566.44 82.19
-5 5 1 1270.67 83.59
-5 5 1 1435.66 83.49
3 -5 -1 5.6 7.9
3 -5 -1 9.9 7.2
-3 -5 1 10 6.1
-3 5 1 3.4 6.5
3 5 -1 4 4.7
-3 5 1 8.7 8.3
3 5 -1 3.3 4.7
1 -5 1 408.36 28.7
-1 -5 -1 415.36 28.4
1 -5 1 501.55 29.5
-1 -5 -1 493.95 28.6
-1 5 -1 426.76 28.8
1 5 1 382.56 28.2
1 5 1 467.25 28.8
3 -5 1 2768.12 164.48
-3 5 -1 2789.32 164.48
-3 5 -1 2810.92 164.58
-5 -5 -1 1.7 4.4
5 -5 1 9.2 7.1
5 -5 1 6.8 7.9
-5 -5 -1 5.5 4.6
5 5 1 2.1 4.4
5 5 1 2.7 3.6
-5 5 -1 3 6.3
7 -5 1 2069.69 122.89
-7 5 -1 2086.49 122.99
-7 5 -1 2043.2 122.39
9 -5 1 348.57 25.9
-9 5 -1 377.46 24.8
-9 5 -1 360.56 25.8
11 -5 1 177.28 15.8
-11 5 -1 161.28 15.3
-11 5 -1 150.28 17.2
-13 5 -1 -1.3 7.2
-13 5 -1 9.5 10.3
-15 5 -1 233.48 19.2
-17 5 -1 219.08 18
-16 6 1 259.17 20.9
-14 6 1 10.6 8.6
-12 6 1 334.37 27.3
-12 6 1 366.06 25.4
10 -6 -1 8.9 9.3
-10 6 1 9.1 8.9
8 -6 -1 359.66 25.4
-8 6 1 312.57 26
-8 6 1 356.06 25.4
-6 -6 1 286.37 19.7
-6 -6 1 320.47 19.9
6 -6 -1 295.07 22.9
6 6 -1 296.67 19.5
-6 6 1 302.07 23.4
-6 6 1 303.87 22.3
4 -6 -1 15.1 8.2
-4 -6 1 6.6 5.8
-4 -6 1 22.8 5.8
4 -6 -1 15.2 8.4
4 6 -1 12.3 5.2
-4 6 1 12.3 8.5
4 6 -1 21.1 5.9
-4 6 1 12 6.7
2 -6 -1 2384.26 141.79
2 -6 -1 2179.18 141.49
-2 -6 1 2282.37 140.99
-2 -6 1 2624.84 141.29
-2 6 1 2310.57 141.49
-2 6 1 2571.14 141.89
0 -6 1 141.09 14.7
0 -6 1 147.49 14.8
0 -6 -1 154.28 14.8
0 -6 -1 130.89 14.6
0 6 -1 108.49 12.8
0 6 -1 148.69 14.4
0 6 1 128.99 12.3
0 6 1 141.19 15.4
-2 -6 -1 178.38 14.3
-2 -6 -1 149.59 14.3
2 -6 1 153.98 16.3
2 -6 1 162.88 15.8
2 6 1 173.58 14.9
2 6 1 153.68 13.9
-2 6 -1 157.68 14.9
4 -6 1 1851.81 111.09
-4 -6 -1 1906.51 110.09
4 -6 1 1902.51 111.19
-4 -6 -1 1825.62 109.89
-4 6 -1 1972.1 111.29
4 6 1 1760.32 109.69
-4 6 -1 1805.62 110.89
4 6 1 1887.81 109.99
-6 -6 -1 510.25 31
-6 -6 -1 521.15 31.1
6 -6 1 513.25 33.6
6 6 1 489.55 30.8
-6 6 -1 504.45 33.3
8 -6 1 204.18 19.2
-8 6 -1 229.38 18.1
-8 6 -1 245.08 19.3
10 -6 1 52.49 10.9
-10 6 -1 76.09 11.4
-10 6 -1 71.49 9.9
-12 6 -1 0.6 9.2
-12 6 -1 0.7 7.9
-14 6 -1 463.75 31.2
-16 6 -1 49.9 10.3
-15 7 1 190.98 18.5
-13 7 1 16.4 9.2
11 -7 -1 100.79 13.9
-11 7 1 109.49 14.1
9 -7 -1 226.88 20.9
-9 7 1 221.68 21.7
-9 7 1 243.08 20.7
-7 -7 1 1800.62 106.29
-7 -7 1 1806.92 106.09
7 -7 -1 1752.02 108.09
-7 7 1 1757.22 108.19
-7 7 1 1833.62 108.19
7 7 -1 1838.32 105.99
-5 -7 1 599.34 37.5
5 -7 -1 623.04 39.5
-5 -7 1 591.74 37.4
-5 7 1 594.44 39.6
-5 7 1 611.94 38.9
5 7 -1 611.54 37.1
-3 -7 1 5.5 6.6
3 -7 -1 -4.1 8.3
-3 -7 1 -1.1 6.4
3 -7 -1 -4.9 7.8
3 7 -1 -1.4 5.7
-3 7 1 -8.6 9.2
3 7 -1 -0.8 6.4
-3 7 1 -2.8 6.6
1 -7 -1 1895.41 109.59
-1 -7 1 1849.21 109.19
1 -7 -1 1747.43 109.39
-1 -7 1 1909.41 109.29
-1 7 1 1900.81 109.69
-1 7 1 1794.92 109.29
1 7 -1 1773.02 108.69
1 7 -1 1821.02 109.19
1 -7 1 315.67 23.1
1 -7 1 305.07 22.5
-1 -7 -1 317.27 22.3
-1 -7 -1 263.17 22.2
-1 7 -1 309.87 22.3
1 7 1 289.17 21.9
1 7 1 334.07 22.9
3 -7 1 210.98 19.7
-3 -7 -1 239.38 17.9
3 -7 1 217.38 20.6
-3 -7 -1 243.98 17.9
-3 7 -1 247.88 18.8
-3 7 -1 226.98 20.5
3 7 1 261.37 17.8
3 7 1 240.48 18.5
-5 -7 -1 220.78 16.4
5 -7 1 236.58 19.3
-5 -7 -1 199.18 16.3
-5 7 -1 218.58 18.5
5 7 1 248.08 15.7
-7 7 -1 5279.57 310.77
9 -7 1 -3.4 8.9
-9 7 -1 -0.7 7.5
-9 7 -1 7.3 8.5
11 -7 1 6.2 10
-11 7 -1 12.8 10
-11 7 -1 17.5 8.6
-13 7 -1 495.25 33.4
-15 7 -1 22.2 9.3
-16 8 1 32 10.3
-14 8 1 469.55 32.7
-12 8 1 -1.5 8.9
10 -8 -1 179.18 18
-10 8 1 177.88 19.7
8 -8 -1 1003.6 61.39
-8 -8 1 958.9 58.49
-8 -8 1 965.3 58.39
-8 8 1 952.5 60.99
-8 8 1 998.8 61.49
-6 -8 1 37.1 7
6 -8 -1 32.2 10
-6 -8 1 41.4 7.6
-6 8 1 28.3 9
-6 8 1 14.4 10.2
6 8 -1 34.7 6.7
-4 -8 1 8 6.9
4 -8 -1 5.6 9
-4 -8 1 3.7 6.5
4 -8 -1 2.3 8.6
4 8 -1 6.7 5.9
-4 8 1 -7.8 9.7
-4 8 1 1.9 7.6
-2 -8 1 106.39 10.3
-2 -8 1 71.29 9.5
2 -8 -1 46.8 9.9
2 -8 -1 86.89 10.7
2 8 -1 46.4 8.3
2 8 -1 69.19 9.5
-2 8 1 65.19 9.7
-2 8 1 84.79 11.3
0 -8 -1 1299.87 82.79
0 -8 1 1312.47 82.89
0 -8 1 1449.85 82.99
0 -8 -1 1518.35 83.19
0 8 -1 1355.56 82.79
0 8 1 1447.66 83.19
0 8 1 1245.48 82.59
-2 -8 -1 174.48 16.6
2 -8 1 167.78 17.9
2 -8 1 221.08 18.2
-2 -8 -1 183.48 16.3
2 8 1 178.78 17.2
-2 8 -1 169.58 16.5
2 8 1 201.28 16.1
4 -8 1 61.69 11.2
-4 -8 -1 68.49 8.1
-4 -8 -1 46.7 7.9
4 -8 1 33.1 9.4
-4 8 -1 35.4 8.7
4 8 1 38.3 6.7
-6 8 -1 5881.51 345.97
8 -8 1 329.97 26.2
-8 8 -1 367.26 26.2
-8 8 -1 325.37 24.8
10 -8 1 526.35 34.7
-10 8 -1 458.55 33
-10 8 -1 479.55 34.4
-12 8 -1 -9.4 8.5
-14 8 -1 165.18 16
-16 8 -1 18.1 9.9
-15 9 1 28 10.7
-13 9 1 231.98 21.2
9 -9 -1 113.29 15.1
-9 9 1 124.19 15.1
-9 9 1 119.79 15.6
7 -9 -1 6.6 9.9
-7 -9 1 6.2 6.9
-7 -9 1 -0.6 7
-7 9 1 15.1 9.4
-7 9 1 3.9 11
7 9 -1 6.5 6.1
5 -9 -1 1146.59 70.69
-5 -9 1 1123.39 69.19
-5 -9 1 1154.18 69.09
5 9 -1 1150.68 68.59
-5 9 1 1121.59 70.89
-5 9 1 1158.38 70.49
3 -9 -1 3789.52 237.78
-3 -9 1 3921.71 237.08
3 -9 -1 4169.28 238.18
-3 9 1 4118.99 238.08
3 9 -1 4102.19 237.18
-3 9 1 4082.59 237.88
-1 -9 1 0.2 8.3
1 -9 -1 -11.1 8.3
1 -9 -1 -1.5 8.3
-1 -9 1 -4 8
1 9 -1 -2.7 6.5
1 9 -1 12.1 8.1
-1 9 1 -1.5 7.4
-1 9 1 -5.8 8.9
-1 -9 -1 959.9 57.09
-1 -9 -1 905.31 56.99
1 -9 1 940.61 57.39
1 -9 1 974.8 57.19
1 9 1 878.61 56.79
-1 9 -1 913.01 57.09
1 9 1 876.11 57.19
-3 -9 -1 3217.78 184.48
-3 -9 -1 3048.6 184.28
3 -9 1 3214.28 185.38
3 -9 1 3149.08 185.08
-3 9 -1 2955.5 184.88
3 9 1 3161.28 184.28
-5 -9 -1 -5.1 6.8
-5 -9 -1 1.9 7
5 -9 1 -5.6 8.9
-5 9 -1 -0.1 7.8
5 9 1 -6.3 5.8
-7 -9 -1 411.66 27.6
7 -9 1 390.96 30.2
-7 -9 -1 411.96 27.2
7 9 1 431.26 26.7
-7 9 -1 439.36 30.1
9 -9 1 957 61.09
-9 9 -1 999.7 60.09
-9 9 -1 936.31 61.09
-11 9 -1 906.71 57.09
-13 9 -1 3.8 9.6
-15 9 -1 25.7 10
-14 10 1 3.9 10.2
-12 10 1 357.86 27.5
-10 10 1 2672.03 161.48
8 -10 -1 116.29 15.3
-8 -10 1 150.08 12.3
-8 -10 1 136.49 14.1
8 10 -1 109.59 12.6
-8 10 1 115.49 15.7
-8 10 1 125.09 15.7
-6 -10 1 65.69 10.1
6 -10 -1 87.69 12.8
-6 -10 1 76.29 10.3
6 10 -1 102.19 9.7
-6 10 1 69.49 11.9
-6 10 1 48.3 12.7
4 -10 -1 291.87 24.8
-4 -10 1 294.87 21.8
-4 -10 1 270.07 21.7
4 -10 -1 328.97 24.5
-4 10 1 229.48 24.5
-4 10 1 274.27 22.8
4 10 -1 304.57 20.7
0 -10 -1 1194.58 76.49
0 -10 1 1219.58 76.59
0 -10 1 1312.87 76.69
0 -10 -1 1259.87 76.69
0 10 1 1289.57 76.99
0 10 -1 1238.88 76.49
0 10 1 1245.78 76.49
0 10 -1 1273.57 75.89
-2 -10 -1 136.19 15
-2 -10 -1 150.18 15.5
2 -10 1 117.39 14.1
2 -10 1 116.09 13.4
2 10 1 130.29 13.7
-2 10 -1 126.89 13.8
2 10 1 136.29 14.8
4 -10 1 1043.3 63.09
-4 -10 -1 1034.8 61.29
4 -10 1 996.7 62.39
-4 -10 -1 990.2 60.89
-4 10 -1 999.5 61.99
4 10 1 917.31 60.29
-6 -10 -1 52.29 8.7
6 -10 1 36.8 10.6
-6 -10 -1 40.5 8.5
6 10 1 43.1 7.5
-6 10 -1 33.5 10.2
-8 -10 -1 0.4 7
-8 -10 -1 -4.2 6.8
8 -10 1 0.5 9.9
-8 10 -1 -6.3 9.3
-8 10 -1 13.1 8.8
-10 10 -1 5520.95 310.57
-10 10 -1 5013.4 311.97
-12 10 -1 -5.1 9.5
-14 10 -1 36.4 11.1
-15 11 1 -2.2 11
-13 11 1 89.79 13.6
-11 11 1 730.63 47.9
-9 -11 1 121.39 12.6
-9 -11 1 128.59 14
9 -11 -1 121.59 16.3
-9 11 1 123.09 16.2
-7 -11 1 137.49 13.5
-7 -11 1 138.09 13.8
7 -11 -1 149.19 16.7
-7 11 1 139.19 17
7 11 -1 141.39 12.8
-7 11 1 140.29 15.9
5 -11 -1 709.93 46.7
-5 -11 1 696.43 44.9
-5 -11 1 675.93 44.4
-5 11 1 687.03 47.1
-5 11 1 744.03 46.3
5 11 -1 708.23 43.9
-3 -11 1 193.38 17.7
3 -11 -1 174.08 17.6
-3 -11 1 191.48 17.9
3 -11 -1 190.58 18
-3 11 1 171.98 18.1
-3 11 1 177.78 18.6
3 11 -1 159.48 16.3
-1 -11 1 47.3 9.8
1 -11 -1 40.2 10.4
1 -11 -1 34.4 10
-1 -11 1 40.7 9.5
-1 11 1 28.9 8.7
-1 11 1 30.6 10.9
1 11 -1 46.6 10.6
1 11 -1 45.8 8.6
-1 -11 -1 283.97 23.4
-1 -11 -1 295.27 23.6
1 -11 1 310.57 24
1 -11 1 278.07 23.9
-1 11 -1 281.77 23
1 11 1 315.07 23.3
1 11 1 293.27 24.5
-3 -11 -1 607.44 39.8
3 -11 1 596.84 40.7
-3 -11 -1 636.04 39.5
3 -11 1 617.04 41.6
-3 11 -1 575.24 40.1
-5 -11 -1 179.08 18.3
5 -11 1 199.08 20.5
-5 -11 -1 175.98 17.8
5 11 1 228.38 16.6
-5 11 -1 212.28 20.1
-7 -11 -1 415.46 28.8
-7 -11 -1 401.86 28.4
7 -11 1 409.96 31.8
7 11 1 415.66 27.5
-7 11 -1 448.26 31.4
-7 11 -1 432.76 30.2
-9 -11 -1 172.98 17.3
9 -11 1 226.48 22.9
-9 -11 -1 182.38 16.4
-9 11 -1 225.88 20
-9 11 -1 209.38 20.4
-11 11 -1 461.15 33.4
-13 11 -1 43.1 11.4
-15 11 -1 10 10.6
-14 12 1 103.49 15.4
-12 12 1 6.6 10.6
-10 -12 1 158.08 16.5
-10 -12 1 162.58 15.7
-8 -12 1 1809.92 109.99
-8 -12 1 1813.62 109.49
8 -12 -1 1976.7 112.59
-8 12 1 1902.21 112.39
8 12 -1 1844.32 109.39
-8 12 1 1684.73 112.09
6 -12 -1 114.99 16.1
-6 -12 1 143.99 14.2
-6 -12 1 145.19 13.9
6 12 -1 122.39 12.3
-6 12 1 105.49 15.1
-6 12 1 129.59 16.4
-4 -12 1 -3.1 8.6
-4 -12 1 14.8 9.3
4 -12 -1 -11.8 10.2
4 12 -1 14.4 7.8
-4 12 1 -4.2 9
-4 12 1 4.2 12.1
2 -12 -1 629.44 43.5
-2 -12 1 723.83 43.3
-2 -12 1 617.44 42.5
2 -12 -1 706.33 44
2 12 -1 549.74 41.5
-2 12 1 676.23 43.2
-2 12 1 699.13 44.5
0 -12 1 12.5 10.5
0 -12 -1 30.5 9.9
0 -12 -1 36.1 10.7
0 -12 1 19.5 10.4
0 12 1 36.6 11.2
0 12 -1 23.5 9.7
0 12 -1 16.6 8.2
0 12 1 23.2 9.6
2 -12 1 808.92 53.09
-2 -12 -1 799.72 52.59
-2 -12 -1 838.82 52.49
2 -12 1 830.02 53.69
2 12 1 816.92 52.99
-2 12 -1 866.61 52.99
-4 -12 -1 12 8.7
4 -12 1 -5.3 9.8
-4 -12 -1 11.8 8.9
-4 12 -1 11.2 9.7
4 12 1 8.2 7.4
-6 -12 -1 681.33 45.9
6 -12 1 667.73 47.8
-6 -12 -1 739.23 45.6
6 12 1 753.72 44.9
-6 12 -1 730.13 47.8
-8 -12 -1 587.34 38.7
8 -12 1 611.14 42
-8 -12 -1 596.44 38.1
-8 12 -1 580.14 39.8
8 12 1 571.84 37.3
-8 12 -1 613.14 41.7
-10 -12 -1 55.59 9.6
-10 -12 -1 59.09 8.8
-10 12 -1 25.6 11.4
-12 12 -1 60.29 12.5
-14 12 -1 111.49 15.3
-13 13 1 86.79 14.9
-11 -13 1 224.08 19.1
-11 -13 1 220.68 18.3
-11 13 1 201.48 22.1
-9 -13 1 24.2 9.7
-9 -13 1 36.1 9.5
-7 -13 1 119.49 13.6
-7 -13 1 86.39 13.4
7 -13 -1 130.09 16.9
7 13 -1 140.09 14.5
-7 13 1 86.29 16.3
-7 13 1 136.89 16.5
-5 -13 1 75.39 12.5
5 -13 -1 66.29 13.7
-5 -13 1 97.09 12.5
-5 13 1 37.3 14.1
-5 13 1 85.39 13.2
5 13 -1 100.89 11.2
3 -13 -1 80.89 14
3 -13 -1 49 13
-3 -13 1 88.19 12.9
-3 -13 1 88.29 12
-3 13 1 73.19 12.5
-3 13 1 60.99 13.9
3 13 -1 58.49 10.8
-1 -13 1 1952.8 120.89
1 -13 -1 1942.61 121.29
-1 -13 1 2055.19 121.49
1 -13 -1 2125.69 121.69
-1 13 1 2113.89 121.39
-1 13 1 1909.51 121.59
1 13 -1 1981.5 120.29
1 -13 1 -2.1 9.8
-1 -13 -1 -1.9 10.1
1 -13 1 29.1 10.6
-1 -13 -1 20 10.3
-1 13 -1 2.6 9.3
-1 13 -1 16.6 9.3
1 13 1 10.5 11.3
3 -13 1 565.74 39.8
3 -13 1 592.54 39.2
-3 -13 -1 600.54 38.2
-3 -13 -1 507.15 37.4
-3 13 -1 521.85 38.1
5 -13 1 79.09 13.8
-5 -13 -1 65.79 11.7
-5 -13 -1 79.99 11.5
-5 13 -1 67.59 13.1
5 13 1 60.89 9.9
7 -13 1 252.57 25.3
-7 -13 -1 190.08 21.2
-7 -13 -1 216.48 20.5
-7 13 -1 248.48 22.4
7 13 1 262.07 19.4
-7 13 -1 238.98 23.7
-9 -13 -1 19.8 9.4
-9 -13 -1 -8.4 8.6
-9 13 -1 -6.4 10.4
-11 -13 -1 82.59 10.2
-11 -13 -1 95.39 11.1
-11 13 -1 62.89 13
-13 13 -1 432.66 32.9
-14 14 1 47.4 13.7
-12 -14 1 300.77 23.1
-12 14 1 298.67 26.8
-10 -14 1 38.8 10
-10 -14 1 48.4 10.9
8 -14 -1 324.47 28.9
-8 -14 1 301.67 24.2
-8 -14 1 289.17 23.3
8 14 -1 242.58 22.2
6 -14 -1 416.86 33.6
-6 -14 1 409.06 31.2
-6 -14 1 421.36 30.2
6 14 -1 416.26 29.1
-6 14 1 465.05 33.3
-6 14 1 373.06 34.5
4 -14 -1 57.69 13.5
-4 -14 1 81.59 12.3
-4 -14 1 97.99 13.7
4 14 -1 81.29 11.4
-4 14 1 62.09 13.3
-4 14 1 86.49 15.3
-2 -14 1 259.57 22.4
2 -14 -1 249.28 24.1
-2 -14 1 220.78 23.2
2 -14 -1 230.38 24.2
2 14 -1 286.07 21.1
-2 14 1 199.68 21.3
-2 14 1 254.27 23
0 -14 -1 2947.91 185.38
0 -14 -1 3325.57 186.08
0 -14 1 3243.78 186.08
0 -14 1 2987.3 185.38
0 14 1 3203.18 185.98
0 14 -1 2853.21 184.58
0 14 -1 3266.17 187.18
2 -14 1 0.6 11.1
-2 -14 -1 10.8 9.5
-2 -14 -1 20 11
2 -14 1 22.7 11.9
-2 14 -1 15.7 9.3
-2 14 -1 18 10.5
-4 -14 -1 138.69 15.6
4 -14 1 122.29 16.4
-4 -14 -1 159.68 15.5
-4 14 -1 130.99 16.5
4 14 1 163.68 16.4
-6 -14 -1 565.54 34.6
6 -14 1 534.55 37.1
-6 -14 -1 483.25 33.4
-6 14 -1 426.26 34
6 14 1 412.66 32.2
-6 14 -1 484.75 36.2
-8 -14 -1 544.95 39
-8 -14 -1 582.04 38.3
8 -14 1 613.84 42.6
-8 14 -1 538.75 39.8
8 14 1 602.14 37.4
-10 -14 -1 56.19 10.1
-10 -14 -1 82.89 11.9
-10 14 -1 39.4 12.3
-12 14 -1 1.7 11.6
-14 14 -1 33.7 12.7
-13 15 1 221.68 23.9
-11 -15 1 25.9 16.7
-11 -15 1 57.29 10.7
-11 15 1 66.19 13.9
-9 -15 1 466.05 34.8
-9 -15 1 509.35 33.8
-7 -15 1 718.83 46.6
-7 -15 1 739.83 45.8
7 -15 -1 683.53 49.2
-7 15 1 695.63 48.5
-7 15 1 698.63 49.5
7 15 -1 646.74 44.6
-5 -15 1 7.5 9.9
-5 -15 1 -7.7 10.5
5 -15 -1 3 12
-5 15 1 -13.8 10.9
-5 15 1 -22.2 13.1
5 15 -1 4.4 8.6
3 -15 -1 710.73 51.99
-3 -15 1 626.94 44.4
-3 -15 1 731.03 45.9
3 -15 -1 675.13 46.1
-3 15 1 659.33 46.9
3 15 -1 632.14 43.7
-3 15 1 665.43 45.4
-1 -15 1 154.98 17.9
1 -15 -1 115.39 16.3
-1 -15 1 118.19 16
1 -15 -1 157.98 17.4
1 15 -1 143.69 15.2
-1 15 1 150.48 16.6
-1 15 1 144.19 18
1 -15 1 665.53 46.2
-1 -15 -1 632.24 45.7
-1 -15 -1 769.92 46.9
1 -15 1 699.23 46.9
-1 15 -1 623.14 44.8
-1 15 -1 716.93 46.3
3 -15 1 980.1 64.89
-3 -15 -1 1021.5 63.59
-3 -15 -1 974.3 64.19
-3 15 -1 1014.7 63.39
-3 15 -1 994 64.39
3 15 1 1046.4 62.79
5 -15 1 80.79 15
-5 -15 -1 94.39 13.4
-5 -15 -1 71.69 13.7
-5 15 -1 85.99 13.3
-5 15 -1 86.29 14.7
5 15 1 129.29 12.9
7 -15 1 1898.51 112.19
-7 -15 -1 1922.31 109.49
-7 -15 -1 1808.62 110.19
7 15 1 1786.02 108.89
-7 15 -1 1665.63 111.59
-7 15 -1 1807.72 110.39
-9 -15 -1 90.29 13.1
-9 -15 -1 66.99 11.3
-9 15 -1 25.7 12.8
-11 -15 -1 31 11
-11 -15 -1 33.7 9.8
-11 15 -1 17.6 12.5
-13 15 -1 90.89 15.1
-14 16 1 217.18 22.4
-12 -16 1 -7.5 9.8
-12 16 1 -5.6 11.9
-10 -16 1 1433.16 93.49
-10 16 1 1678.63 95.99
-8 -16 1 10 11.3
-8 -16 1 23 11
6 -16 -1 130.49 19.1
-6 -16 1 136.59 16.7
-6 -16 1 138.39 16.3
6 16 -1 182.98 16.1
-6 16 1 122.89 17.6
-6 16 1 113.89 19.3
-4 -16 1 2062.29 128.59
4 -16 -1 2140.39 130.19
-4 -16 1 1969.2 129.39
-4 16 1 2293.87 130.39
-4 16 1 1958.8 130.19
4 16 -1 2388.16 128.59
-2 -16 1 297.87 25.3
-2 -16 1 296.87 26.5
2 -16 -1 325.47 27.6
2 -16 -1 240.28 26.3
2 16 -1 222.88 23.1
-2 16 1 284.27 28.2
-2 16 1 255.97 25.3
0 -16 -1 156.18 18.1
0 -16 1 146.39 17.5
0 -16 1 132.39 18
0 -16 -1 147.59 17.2
0 16 1 117.39 17.4
0 16 -1 164.08 15.8
2 -16 1 83.29 15.8
-2 -16 -1 71.49 13.9
-2 -16 -1 106.09 15.7
2 -16 1 62.89 14.5
-2 16 -1 104.99 13.4
-2 16 -1 94.69 14.6
4 -16 1 40.9 13.3
-4 -16 -1 45.9 12.1
-4 -16 -1 59.69 13.5
-4 16 -1 75.59 13.9
4 16 1 46.6 11.4
-4 16 -1 46.8 12.6
6 -16 1 242.78 27.3
-6 -16 -1 280.37 25.2
-6 -16 -1 245.08 23.7
6 16 1 282.47 22.7
-6 16 -1 297.07 26.9
-6 16 -1 235.28 24.3
-8 -16 -1 39.5 12.2
-8 -16 -1 46.2 11.7
-8 16 -1 29.6 12.6
-10 -16 -1 262.67 21.2
-10 16 -1 191.28 21.3
-12 -16 -1 1.5 9.8
-12 16 -1 19.9 12.7
-14 16 -1 54.09 14.1
-13 -17 1 22.5 10.4
-13 17 1 42.5 14.3
-11 -17 1 370.56 30
-11 17 1 460.85 33.9
-9 -17 1 195.18 20.3
-9 17 1 154.48 18.6
-7 -17 1 12.3 11.2
5 -17 -1 137.09 18.6
-5 -17 1 131.59 16.5
-5 -17 1 172.48 18.9
5 17 -1 117.89 15.4
-5 17 1 156.78 18.6
-5 17 1 151.38 20.2
3 -17 -1 410.06 34.3
-3 -17 1 422.16 33.9
-3 -17 1 439.86 32.8
3 17 -1 386.26 31.6
-3 17 1 441.96 33.6
-3 17 1 417.36 35.4
1 -17 -1 652.03 45.1
-1 -17 1 657.13 44.6
-1 -17 1 631.44 45.5
1 -17 -1 620.74 45.6
1 17 -1 689.93 43.3
-1 17 1 568.54 45.6
1 -17 1 218.78 22
-1 -17 -1 227.98 23.7
1 -17 1 206.18 20.7
-1 -17 -1 217.98 21.6
-1 17 -1 171.88 18.9
-3 -17 -1 75.69 14.7
-3 -17 -1 84.39 13.9
3 -17 1 91.09 15.7
-3 17 -1 76.99 14.7
-3 17 -1 54.49 13
3 17 1 50.29 12.4
-5 -17 -1 52.99 13.4
-5 -17 -1 35.3 13.6
5 -17 1 72.09 15.9
5 17 1 84.79 13.2
-5 17 -1 63.29 13.2
-5 17 -1 84.29 15.6
-7 -17 -1 190.68 18.1
-7 17 -1 165.18 18.8
-9 -17 -1 364.36 27.7
-9 17 -1 334.67 30.1
-11 -17 -1 192.98 18.3
-11 17 -1 227.08 24.6
-13 -17 -1 6.3 9.9
-13 17 -1 12.5 13.2
-14 -18 1 11.7 10.4
-12 -18 1 6.8 11.1
-12 18 1 24.9 13.5
-10 -18 1 43.6 12.3
-10 18 1 73.69 15.5
-8 -18 1 -7.6 11.5
6 -18 -1 -9.3 14.4
-6 -18 1 0.7 11.4
4 -18 -1 1088.89 72.19
-4 -18 1 1072.39 70.39
-4 -18 1 1147.99 71.99
4 18 -1 1053.09 69.79
-4 18 1 1203.08 72.29
-2 -18 1 48.7 13.4
2 -18 -1 18.1 14.4
-2 -18 1 39.6 14.2
2 -18 -1 19.9 14
2 18 -1 29.9 11.8
0 -18 1 1608.04 99.89
0 -18 -1 1585.24 100.79
0 -18 1 1594.34 100.79
0 -18 -1 1622.94 99.79
0 18 -1 1658.83 99.09
-2 -18 -1 279.37 25.9
-2 -18 -1 288.17 27.6
2 -18 1 243.28 27.2
2 -18 1 248.08 27.9
2 18 1 247.58 23.7
-2 18 -1 241.68 24.5
-4 -18 -1 39.2 12.7
-4 -18 -1 28.2 13.9
4 -18 1 48.9 14.5
-4 18 -1 52.69 13.2
4 18 1 26.5 12.1
-4 18 -1 66.29 14.6
6 -18 1 81.69 18.3
-6 -18 -1 77.49 14.2
-6 18 -1 78.39 14.7
-8 -18 -1 418.96 31.8
-8 18 -1 407.96 33.4
-10 -18 -1 468.05 36.4
-10 18 -1 587.14 39.6
-12 -18 -1 2.5 10.9
-12 18 -1 -3.5 13.1
-13 -19 1 25.6 11.6
-13 19 1 12.2 14.7
-11 -19 1 3.4 11.6
-11 19 1 3.4 13.4
-9 -19 1 205.38 22.3
-9 19 1 177.48 20.8
-7 -19 1 -9.6 12.6
-5 -19 1 116.09 16.3
5 -19 -1 93.09 18.4
-3 -19 1 255.77 26.6
-3 -19 1 289.57 28.2
3 -19 -1 244.48 25.4
3 19 -1 276.17 25.6
1 -19 -1 124.19 18.6
-1 -19 1 126.49 18.4
-1 -19 1 92.29 16.7
1 19 -1 139.29 16.5
-1 -19 -1 8.2 13.6
1 -19 1 17.8 14
1 -19 1 13.2 12.9
-1 -19 -1 12.2 12.6
-1 19 -1 6.2 11.6
1 19 1 5.2 11.1
-3 -19 -1 334.17 30.4
-3 -19 -1 384.16 32.3
3 -19 1 338.47 32.6
3 19 1 366.06 29.4
-3 19 -1 350.96 29.7
5 -19 1 70.69 17.5
-5 -19 -1 95.49 15.4
-5 19 -1 73.89 14.1
-7 -19 -1 55.39 14
-7 19 -1 83.69 15.3
-9 -19 -1 17 12.2
-9 19 -1 5 12.7
-11 -19 -1 12.6 11.6
-11 19 -1 0 13.7
-13 -19 -1 -12.7 10.4
-13 19 -1 -18.1 13.9
-12 -20 1 66.19 13.5
-12 20 1 51.09 16
-10 -20 1 27.7 13
-10 20 1 32.9 14.9
-8 -20 1 93.69 16.2
-8 20 1 60.59 15.5
-6 -20 1 40 13.7
-4 -20 1 13.3 12.9
4 -20 -1 -12.6 14
2 -20 -1 27 14.4
-2 -20 1 14.1 14
2 20 -1 1.8 11.7
0 -20 1 1743.23 112.79
0 -20 1 2078.89 114.89
0 -20 -1 2068.59 114.79
0 -20 -1 1774.92 112.99
0 20 1 1654.73 111.69
0 20 -1 1725.03 111.89
2 -20 1 0.6 13.6
-2 -20 -1 12.7 13.1
-2 20 -1 -8.4 11.4
2 20 1 -7.2 11.5
-4 -20 -1 -9.3 12.2
4 -20 1 5.2 14.6
-4 20 -1 1.8 11.9
-6 -20 -1 93.99 15.6
-6 20 -1 50.39 14.7
-8 -20 -1 176.88 18.9
-8 20 -1 139.19 19.7
-10 -20 -1 40.9 13.1
-10 20 -1 6.7 13.6
-12 -20 -1 44.9 13
-12 20 -1 27 15.5
-11 -21 1 46 13.7
-11 21 1 67.99 16.6
-9 -21 1 4.2 12.9
-9 21 1 19.1 14.4
-7 -21 1 29.2 13.9
-7 21 1 32.8 14.7
-5 -21 1 8 13.3
5 -21 -1 -18 15.9
-5 21 1 -10.5 11.7
-3 -21 1 77.39 16.3
3 -21 -1 55.39 16.8
-1 -21 1 2891.71 184.88
1 -21 -1 3154.08 186.68
1 -21 -1 2805.12 185.08
-1 21 1 3165.88 184.68
1 21 -1 3358.76 184.98
1 -21 1 448.36 37.6
1 -21 1 496.85 39.5
-1 -21 -1 472.85 37.3
1 21 1 412.76 35.4
-1 21 -1 440.46 35.9
3 -21 1 243.48 26.1
-3 -21 -1 224.98 24.1
-3 21 -1 265.97 26
5 -21 1 -17.8 17.3
-5 -21 -1 -4.5 13.1
-5 21 -1 -17.5 11.9
-7 -21 -1 94.69 16.4
-7 21 -1 63.49 15.3
-9 -21 -1 61.59 14.6
-9 21 -1 37.9 14.7
-11 -21 -1 34.1 13.4
-11 21 -1 50.89 16.5
-12 22 1 133.09 20.4
-10 -22 1 496.45 40.3
-10 22 1 624.04 43.4
-8 -22 1 119.29 18.7
-8 22 1 166.98 19.9
-6 -22 1 -13.7 13.3
-6 22 1 -10.6 12.7
-4 -22 1 128.39 19.3
4 -22 -1 144.49 22.2
-4 22 1 155.48 19.4
2 -22 -1 131.59 20
-2 -22 1 133.49 20.1
-2 22 1 181.28 19.8
0 -22 1 1635.64 109.99
0 -22 -1 1604.74 109.99
0 22 -1 1856.71 109.79
0 22 1 1987.2 109.99
-2 -22 -1 355.86 32.8
2 -22 1 304.97 34
-2 22 -1 374.76 31.5
4 -22 1 41.2 16.7
-4 -22 -1 23.9 14.8
-4 22 -1 30.1 14.3
-6 -22 -1 65.69 15.7
-6 22 -1 59.39 15.2
-8 -22 -1 35.8 14.7
-8 22 -1 28.7 14.9
-10 -22 -1 420.86 34.4
-10 22 -1 455.85 37.6
-12 22 -1 -11.5 15.2
-11 23 1 15.8 15.9
-9 -23 1 584.94 47.6
-9 23 1 817.12 50.69
-7 -23 1 -0.8 14.1
-7 23 1 10.3 14.3
-5 -23 1 51.19 16.1
-5 23 1 67.89 16.1
-3 -23 1 924.81 66.09
3 -23 -1 1067.39 68.99
-3 23 1 1001.9 66.09
1 -23 -1 29.6 16.1
-1 -23 1 17.9 15.5
-1 -23 -1 -13.8 14
1 -23 1 13.1 15.4
-1 23 -1 8 21.9
-3 -23 -1 943.91 62.49
3 -23 1 860.01 63.89
-3 23 -1 958 62.29
-5 -23 -1 123.69 19.7
-5 23 -1 156.08 20.1
-7 -23 -1 14.5 14.1
-7 23 -1 -9.8 13.9
-9 -23 -1 119.79 17.6
-9 23 -1 102.69 19.3
-11 23 -1 13.2 16.3
-10 24 1 39.5 17.1
-8 -24 1 34.4 15.1
-8 24 1 5.8 14.9
-6 -24 1 5.8 14.7
-6 24 1 0.7 14.6
-4 -24 1 587.74 47.6
-4 24 1 690.33 47.9
2 -24 -1 23.3 16.8
-2 -24 1 0.3 15.4
0 -24 -1 51.59 17.1
0 -24 1 58.69 17.6
-2 -24 -1 2.8 15.3
2 -24 1 24.4 16.8
-4 -24 -1 50.59 16.4
-4 24 -1 -24.1 14.2
-6 -24 -1 5.3 14.5
-6 24 -1 5.8 14.6
-8 -24 -1 42.4 15.8
-8 24 -1 45.4 16.7
-10 24 -1 97.79 20.3
-11 25 1 161.68 22.7
-9 -25 1 15.1 15.1
-9 25 1 16.8 15.7
-7 -25 1 19.7 16
-7 25 1 38.7 16.7
-5 -25 1 6.7 15.6
-5 25 1 1.6 15.4
3 -25 -1 36.8 18.4
-3 -25 1 18 15.7
1 -25 -1 234.68 26.5
-1 -25 1 245.68 26.9
-1 -25 -1 57.19 17.3
1 -25 1 50.39 18.8
3 -25 1 52.19 19.8
-3 -25 -1 45.2 17.1
-5 -25 -1 18.8 15.8
-5 25 -1 29.3 16.3
-7 -25 -1 99.49 18.6
-7 25 -1 105.09 19.6
-9 -25 -1 98.89 18.7
-9 25 -1 143.39 21.2
-11 25 -1 42.2 17.8
-10 26 1 19 17.2
-8 -26 1 90.29 19.2
-8 26 1 117.69 20.3
-6 -26 1 -7.8 15.7
-6 26 1 -25.6 15.6
-4 -26 1 22.9 16.3
2 -26 -1 5.9 18.8
-2 -26 1 15.4 16.8
0 -26 -1 46.8 17.9
0 -26 1 20.6 17.9
-2 -26 -1 51.39 18.6
2 -26 1 50.29 19.9
-4 -26 -1 8.4 16.3
-6 -26 -1 122.79 21.1
-6 26 -1 181.38 23.9
-8 -26 -1 38.7 16.9
-8 26 -1 40.8 17.3
-10 26 -1 27.5 17.8
-9 27 1 3.2 16.7
-7 -27 1 246.28 26.9
-7 27 1 267.97 36
-5 -27 1 50.89 18.3
-3 -27 1 27.1 17.5
-1 -27 1 3.2 17.2
1 -27 -1 0 17.4
1 -27 1 232.78 27.8
-1 -27 -1 208.48 26.5
-3 -27 -1 -8.7 16.4
-5 -27 -1 7 16.8
-7 -27 -1 901.81 64.89
-7 27 -1 1014.2 67.79
-9 27 -1 13 17.4
-10 28 1 150.28 24.6
-6 -28 1 12.8 17.5
-4 -28 1 -0.5 17.1
-2 -28 1 30.1 18.7
0 -28 -1 156.68 25.8
0 -28 1 185.38 25
-2 -28 -1 17.3 18.2
-4 -28 -1 10.8 17.5
-6 -28 -1 147.19 22.3
-10 28 -1 253.67 29.4
-5 -29 1 -17 17.2
-3 -29 1 221.48 27.4
1 -29 -1 3 19.4
-1 -29 1 15.8 18.8
1 -29 1 12.4 19.5
-1 -29 -1 21.6 19.3
-3 -29 -1 43.6 18.8
-5 -29 -1 10.8 17.7
-4 -30 1 5.9 18
-2 -30 1 151.58 25.1
0 -30 1 60.19 21.6
0 -30 -1 62.99 21.7
-2 -30 -1 8 19.1
-4 -30 -1 -28.1 17.4
-3 -31 1 23.5 19.7
-1 -31 1 9.5 19.4
-1 -31 -1 -8.8 18.5
-3 -31 -1 4.7 19.5
-2 -32 1 23.9 20.5
-2 -32 -1 -11 19.3
-1 -33 1 49.4 22.8
-1 -33 -1 40.5 22.6
-2 -34 1 -26.2 28.2
-10 0 2 106.39 9.7
-8 0 2 71.29 7.7
-8 0 2 76.29 8.5
8 0 -2 70.69 7.7
4 0 -2 34.6 5.9
-4 0 2 15.1 5
4 0 -2 46.9 6.2
-4 0 2 35.8 5.7
-2 0 2 180.48 12.1
-2 0 2 171.08 12
2 0 -2 162.28 12.1
0 0 2 1.1 1.4
0 0 -2 0.2 1.5
0 0 -2 1 1.3
0 0 2 0.3 1.3
-2 0 -2 249.78 17.1
-2 0 -2 298.37 17.3
2 0 2 297.67 17.3
2 0 2 272.77 17.1
-4 0 -2 98.09 8
4 0 2 107.59 8.5
4 0 2 105.89 8.8
-4 0 -2 91.59 7.9
-6 0 -2 553.64 33.3
-11 1 2 220.08 17.1
9 -1 -2 405.86 26.2
-9 1 2 374.26 26.1
-9 1 2 420.86 26.6
7 -1 -2 149.79 12.7
-7 -1 2 153.98 12
-7 1 2 161.38 13.5
7 1 -2 137.99 11.5
-7 1 2 140.39 12.3
5 -1 -2 1.8 5.7
-5 -1 2 1.9 4
-5 -1 2 10.1 4.8
5 -1 -2 -0.1 5.3
5 1 -2 1.8 4.8
5 1 -2 3.3 4.5
-5 1 2 -1.8 4.8
-5 1 2 3.7 5.8
3 -1 -2 -2.2 2.5
1 1 -2 0.9 1.7
1 1 2 -0.5 0.5
3 -1 2 16 4.2
3 -1 2 22.2 5
-3 1 -2 19.4 4.1
-3 1 -2 17.4 4.5
5 -1 2 5.5 4.8
5 -1 2 6.1 5.5
-5 1 -2 7.6 4.4
-5 1 -2 7.4 4
-9 1 -2 108.89 9.2
-9 1 -2 117.79 10
-14 2 2 -3.5 7.9
-14 2 2 -7.1 6.3
-12 2 2 60.79 9.5
-12 2 2 61.69 8.2
-10 2 2 2687.33 154.98
-10 2 2 2559.74 154.98
8 -2 -2 207.28 16.5
-8 2 2 203.98 17.3
-8 2 2 201.48 16
6 -2 -2 233.58 17.7
-6 2 2 247.98 18.4
-6 2 2 250.97 17.5
-4 -2 2 549.74 35.6
4 -2 -2 606.24 36.8
-4 -2 2 605.14 35.9
-4 2 2 604.94 37
4 2 -2 590.64 35.8
-4 2 2 554.14 36.6
4 2 -2 663.53 35.8
-2 -2 2 -1 4
-2 -2 2 -1.9 4.4
2 -2 -2 -5.4 5.6
2 -2 -2 6.1 5.7
2 2 -2 -2.4 3.6
-2 2 2 -1 5.4
2 2 -2 -2.4 4.1
-2 2 2 -1.7 6.1
0 -2 -2 0.1 3.6
0 -2 2 7.1 3.6
0 -2 -2 6.6 3.5
0 -2 2 4.2 2.9
0 2 -2 3.8 3.5
0 2 -2 1.1 3.1
0 2 2 4.4 3.7
0 2 2 -4.6 3.4
2 -2 2 899.31 50.39
-2 -2 -2 882.61 49.8
2 -2 2 707.83 49.99
-2 -2 -2 796.82 49.7
2 2 2 954.1 49.8
-2 2 -2 782.62 50.09
-2 2 -2 858.91 50.39
6 -2 2 -0.7 5.5
-6 2 -2 -1.2 5.1
-6 2 -2 -3.4 4.6
8 -2 2 104.09 9.4
-8 2 -2 67.19 8.1
-8 2 -2 96.59 9.1
-10 2 -2 138.79 12.3
-10 2 -2 147.29 13.6
-12 2 -2 271.77 19.6
-12 2 -2 303.77 20.8
-15 3 2 -1.5 6.6
-13 3 2 29.5 7.5
-13 3 2 25.8 9.2
-11 3 2 116.29 12.3
9 -3 -2 396.56 25.8
-9 3 2 340.77 26.2
-9 3 2 369.76 25.5
7 -3 -2 157.28 14.3
-7 3 2 153.48 14.1
-7 3 2 151.08 15.4
5 -3 -2 531.85 31.7
-5 -3 2 516.95 30.2
-5 -3 2 429.56 29.7
-5 3 2 470.85 31.4
-5 3 2 523.65 32
5 3 -2 513.55 30.2
-3 -3 2 46 5.6
-3 -3 2 49.3 6.4
3 -3 -2 41.4 7.7
3 -3 -2 43.2 8.1
3 3 -2 66.79 6.5
3 3 -2 66.29 6.6
-3 3 2 54.79 7.6
-3 3 2 61.99 8.6
-1 -3 2 44.2 5.9
-1 -3 2 49.99 5.4
1 -3 -2 44.9 6.9
1 -3 -2 32.2 6.5
-1 3 2 40.3 6.2
-1 3 2 34.6 6.4
1 3 -2 45.6 5.3
1 3 -2 43.6 5.8
-1 -3 -2 654.23 36.7
1 -3 2 523.85 36.4
-1 -3 -2 596.64 36.5
1 -3 2 647.84 36.9
1 3 2 573.44 36.4
-1 3 -2 576.44 36.5
-1 3 -2 607.34 36.9
1 3 2 646.84 36.6
-3 -3 -2 421.86 27.7
3 -3 2 449.86 29.2
3 -3 2 491.35 29.6
-3 -3 -2 479.15 27.9
-3 3 -2 417.66 28.6
3 3 2 467.95 27.9
-3 3 -2 441.96 29
3 3 2 500.05 28
5 -3 2 185.58 13.6
7 -3 2 333.57 21.4
-7 3 -2 271.97 20.4
-7 3 -2 305.77 21
9 -3 2 132.19 14.1
-9 3 -2 154.38 13
-9 3 -2 132.09 13.6
-11 3 -2 473.75 32.7
-11 3 -2 520.15 31.7
-13 3 -2 71.29 9.2
-13 3 -2 92.99 11.1
-15 3 -2 37.3 7.5
-16 4 2 94.89 10.7
-14 4 2 33.2 8.1
-12 4 2 88.79 12
10 -4 -2 142.09 16.3
-10 4 2 150.28 16.4
-10 4 2 177.78 17.7
8 -4 -2 241.88 18.9
-8 4 2 235.18 18.7
-8 4 2 213.78 19.6
6 -4 -2 225.18 17.4
-6 4 2 218.98 17
-6 4 2 195.78 18.1
4 -4 -2 1700.33 101.49
4 -4 -2 1671.93 101.39
-4 4 2 1608.24 101.49
-4 4 2 1682.53 101.29
4 4 -2 1855.51 100.49
0 -4 2 44 7.2
0 -4 -2 52.29 7.5
0 -4 -2 43.7 7.6
0 -4 2 48.9 6.4
0 4 -2 66.79 6.8
0 4 2 41 7.6
0 4 -2 49 7.3
0 4 2 55.99 7.1
-2 -4 -2 731.03 44
2 -4 2 766.12 44.7
-2 -4 -2 711.43 43.9
-2 4 -2 677.73 44.2
2 4 2 773.92 44.1
-2 4 -2 701.13 44.5
4 -4 2 2505.35 133.69
4 -4 2 2189.78 133.39
-4 4 -2 2081.69 133.29
6 -4 2 -6.4 6.5
-6 4 -2 0 5.5
-6 4 -2 -3.3 5.7
8 -4 2 36.8 8.5
-8 4 -2 45.4 7.4
-8 4 -2 38.1 7.9
10 -4 2 840.22 54.59
-10 4 -2 888.81 53.99
-10 4 -2 926.51 54.89
-12 4 -2 114.69 12.6
-12 4 -2 92.29 10.4
-14 4 -2 128.79 13.7
-15 5 2 10.4 8.3
-13 5 2 68.59 10.2
11 -5 -2 397.36 28.6
-11 5 2 397.96 29
9 -5 -2 708.93 46.7
-9 5 2 726.73 46.7
-9 5 2 767.92 47.2
7 -5 -2 659.23 40.5
-7 5 2 579.34 40.7
-7 5 2 656.33 40.4
5 -5 -2 4.3 7.4
-5 -5 2 5.1 5.5
-5 -5 2 6.9 3.9
5 -5 -2 4.8 7.6
5 5 -2 10.3 4.9
-5 5 2 6.4 8
-5 5 2 4.8 6.4
5 5 -2 10.2 5.1
-3 -5 2 1417.46 89.29
-3 -5 2 1582.54 89.59
3 -5 -2 1663.73 90.69
3 -5 -2 1438.56 90.39
3 5 -2 1398.86 89.39
-3 5 2 1570.84 90.69
-3 5 2 1538.65 90.39
1 -5 -2 384.16 25.6
1 -5 -2 386.56 25.2
-1 -5 2 328.67 23.6
-1 -5 2 352.96 24.6
1 5 -2 383.96 23.9
-1 5 2 373.36 25.6
1 5 -2 355.56 24.5
-1 5 2 383.16 25
3 -5 2 525.65 34.2
-3 -5 -2 547.65 32.9
-3 -5 -2 509.25 32.9
3 -5 2 526.05 34.7
-3 5 -2 555.34 33.9
3 5 2 537.55 33.1
-3 5 -2 490.25 33.4
3 5 2 568.44 32.9
5 -5 2 2776.72 147.59
5 -5 2 2621.24 147.29
-5 5 -2 2107.49 146.59
-5 5 -2 2467.15 147.19
7 -5 2 551.04 33.7
-7 5 -2 516.75 33.5
-7 5 -2 478.85 32.7
9 -5 2 915.31 57.39
-9 5 -2 909.31 57.39
-9 5 -2 959.6 56.69
11 -5 2 600.24 39.6
-11 5 -2 616.14 38.4
-11 5 -2 590.64 39.6
-13 5 -2 215.48 19.5
-13 5 -2 176.88 16.8
-15 5 -2 131.29 13
-17 5 -2 292.87 21.7
-16 6 2 147.19 14.5
-14 6 2 280.27 22.3
-12 6 2 330.27 26.5
10 -6 -2 1483.35 92.79
-10 6 2 1510.25 92.99
-10 6 2 1598.64 93.09
8 -6 -2 318.17 24
-8 6 2 280.27 23.4
-8 6 2 332.87 24.7
6 -6 -2 3779.42 226.28
-6 6 2 3907.01 226.28
-6 6 2 3823.92 226.38
4 -6 -2 1357.46 82.09
4 -6 -2 1406.26 82.39
-4 -6 2 1313.27 80.69
-4 -6 2 1304.57 80.89
4 6 -2 1394.66 80.99
-4 6 2 1400.56 82.49
4 6 -2 1386.46 80.79
-4 6 2 1349.36 81.99
2 -6 -2 885.61 55.29
-2 -6 2 915.01 54.69
-2 -6 2 834.02 53.99
2 -6 -2 939.51 55.69
2 6 -2 848.92 54.19
2 6 -2 948.41 54.69
-2 6 2 843.02 54.99
-2 6 2 930.11 55.79
-2 -6 -2 221.98 17.6
-2 -6 -2 230.38 17.6
2 -6 2 230.18 18.8
2 -6 2 231.48 19.7
-2 6 -2 224.68 18.3
-2 6 -2 225.48 17.6
2 6 2 253.07 17.4
2 6 2 237.78 18.3
4 -6 2 835.92 52.79
4 -6 2 920.41 53.09
-4 -6 -2 860.21 51.49
-4 -6 -2 820.92 51.39
-4 6 -2 816.22 52.49
4 6 2 855.11 51.49
4 6 2 876.91 51.59
8 -6 2 8.5 8.3
-8 6 -2 -2.8 7.3
-8 6 -2 15.8 8.2
10 -6 2 178.68 18.5
-10 6 -2 193.88 16.9
-10 6 -2 185.98 18.3
-12 6 -2 178.78 19.1
-12 6 -2 173.28 16.6
-14 6 -2 236.68 19.8
-16 6 -2 -8.4 8.1
-15 7 2 0.2 8.7
-13 7 2 973.2 60.39
11 -7 -2 21.1 11
-11 7 2 13.9 10.1
9 -7 -2 0.8 9.4
-9 7 2 4.8 10.6
-9 7 2 9.3 9.4
-7 -7 2 151.28 13.5
7 -7 -2 180.28 17.9
7 7 -2 165.98 13.1
-7 7 2 167.98 16.3
-7 7 2 149.49 16.7
-5 -7 2 606.04 36.1
5 -7 -2 598.84 38.1
-5 7 2 568.34 37.5
-5 7 2 489.55 38.3
5 7 -2 610.64 35.8
3 -7 -2 2108.69 121.79
-3 -7 2 2056.09 120.79
-3 -7 2 1961.9 120.39
3 -7 -2 1942.11 121.49
-3 7 2 2142.29 121.89
3 7 -2 1975.2 120.39
-3 7 2 2051.89 121.49
3 7 -2 2085.59 120.79
1 -7 -2 2236.48 130.49
1 -7 -2 2298.27 130.69
-1 -7 2 2202.98 130.19
1 7 -2 1918.01 129.69
-1 7 2 2076.59 130.29
1 7 -2 2279.37 130.19
-1 7 2 2385.06 130.89
-1 -7 -2 889.01 55.79
1 -7 2 940.51 56.19
-1 -7 -2 894.31 55.79
1 -7 2 907.81 56.39
1 7 2 941.11 56.19
-1 7 -2 865.41 55.39
1 7 2 892.61 55.69
-1 7 -2 960.5 55.99
-3 -7 -2 130.79 13.7
3 -7 2 156.08 14.3
-3 -7 -2 142.29 13.6
3 -7 2 154.08 15.8
-3 7 -2 162.78 14.3
-3 7 -2 147.39 14.5
3 7 2 123.19 14.1
3 7 2 149.19 13.3
-5 -7 -2 6.5 5.7
5 -7 2 3.2 7.9
-5 -7 -2 9.1 5.5
-5 7 -2 8.9 7
-5 7 -2 19.4 7.8
-7 -7 -2 2145.49 117.59
7 -7 2 2008.7 119.39
-7 7 -2 1980.7 119.39
-7 7 -2 1829.62 118.59
9 -7 2 0 9
-9 7 -2 9.1 7.9
-9 7 -2 9.8 8.6
11 -7 2 48 11.3
-11 7 -2 43.1 9.3
-11 7 -2 59.49 11.7
-13 7 -2 59.09 10.3
-15 7 -2 219.88 19.5
-16 8 2 -0.7 9.6
-14 8 2 188.78 19.1
10 -8 -2 104.99 14.5
-10 8 2 85.79 14.6
-10 8 2 113.79 14.4
-8 -8 2 119.19 12.1
8 -8 -2 138.49 14.8
-8 -8 2 105.39 12.2
-8 8 2 125.69 15.1
-8 8 2 121.59 14.1
-6 -8 2 591.14 36.8
6 -8 -2 578.54 39
-6 -8 2 602.54 36.6
-6 8 2 585.44 39.5
6 8 -2 575.14 36.3
-6 8 2 574.44 38.6
4 -8 -2 1282.07 76.79
4 -8 -2 1160.78 76.79
-4 -8 2 1291.87 75.49
-4 8 2 1319.57 76.59
4 8 -2 1267.07 75.09
-4 8 2 1216.38 76.99
0 -8 -2 1.1 7.9
0 -8 2 5.2 7.9
0 -8 2 13.3 8.1
0 -8 -2 8.9 8.2
0 8 -2 10 8
0 8 2 3.8 9.2
0 8 2 7.9 7.8
0 8 -2 5.2 6.9
2 -8 2 414.26 28.8
-2 -8 -2 440.66 27.9
2 -8 2 458.35 29.2
-2 -8 -2 403.56 27.9
-2 8 -2 341.97 27.4
-2 8 -2 403.26 28.3
2 8 2 392.46 27.7
2 8 2 448.96 28.4
4 -8 2 35.8 9.4
4 -8 2 61.69 10.7
-4 -8 -2 47.9 7.7
-4 -8 -2 34.5 7.5
-4 8 -2 29.5 7.9
4 8 2 55.19 8.6
-4 8 -2 27.8 8.3
-6 -8 -2 247.08 16.3
6 -8 2 217.68 19.5
-6 -8 -2 238.38 16
-6 8 -2 163.68 17.4
-6 8 -2 198.38 18.4
6 8 2 173.28 15
8 -8 2 907.41 57.79
-8 8 -2 910.61 56.79
-8 8 -2 936.91 57.79
10 -8 2 672.43 45.9
-10 8 -2 719.93 44.7
-10 8 -2 691.53 45.8
-12 8 -2 69.39 11.2
-14 8 -2 7.9 9.1
-16 8 -2 63.29 11.7
-15 9 2 31.5 11.2
-13 9 2 226.08 21
9 -9 -2 261.97 24.6
-9 -9 2 273.47 19.5
-9 -9 2 261.97 19.5
-9 9 2 252.77 23.3
-9 9 2 303.67 24.2
-7 -9 2 9.9 7.2
7 -9 -2 4.5 10
-7 -9 2 6.9 6.9
-7 9 2 2.2 10.7
-7 9 2 -7.9 8.8
7 9 -2 3.8 6.4
-5 -9 2 319.47 22.1
5 -9 -2 299.87 24.7
-5 -9 2 312.47 22.1
5 9 -2 319.07 21.3
-5 9 2 287.57 23.7
-5 9 2 281.07 25.1
3 -9 -2 4484.95 264.37
3 -9 -2 4518.95 264.27
-3 9 2 4389.16 264.07
3 9 -2 4314.57 263.37
-3 9 2 4699.13 264.47
1 -9 -2 338.17 27.1
-1 -9 2 388.96 26.9
1 -9 -2 357.16 27.1
-1 -9 2 375.76 27
1 9 -2 407.86 26.9
1 9 -2 382.16 25.8
-1 9 2 364.16 26.5
-1 9 2 372.16 28.1
-1 -9 -2 4022.1 220.48
1 -9 2 4114.69 220.88
1 -9 2 3544.55 220.28
-1 9 -2 3313.57 219.78
1 9 2 3752.42 220.38
1 9 2 3723.83 220.18
-1 9 -2 3690.43 220.38
3 -9 2 519.55 35.2
3 -9 2 448.96 34.2
-3 -9 -2 479.05 33
-3 -9 -2 522.15 33.2
3 9 2 522.25 33
-3 9 -2 509.15 34
3 9 2 504.05 33.6
-3 9 -2 528.65 33.3
5 -9 2 11.3 9
-5 -9 -2 16.1 7.4
-5 -9 -2 18.9 7.1
-5 9 -2 13.7 7.9
-5 9 -2 26.8 8.6
7 -9 2 58.19 11.5
-7 -9 -2 52.49 7.9
-7 -9 -2 61.49 8.6
-7 9 -2 42.7 10.1
-7 9 -2 23.4 9
7 9 2 40 6.8
9 -9 2 6.3 10.1
-9 9 -2 0.5 8.6
-9 9 -2 14.6 9.5
-11 9 -2 -25.3 8.9
-13 9 -2 8.7 9.8
-15 9 -2 446.16 31.7
-14 10 2 12.5 10.4
-10 -10 2 5.6 7.3
-10 10 2 32.4 12.5
-10 10 2 10.8 14.9
-8 -10 2 9.5 7.6
-8 -10 2 2.4 7.6
8 -10 -2 9.3 11.1
8 10 -2 6 6.8
-8 10 2 -10.9 11.7
-8 10 2 -9.4 9.4
-6 -10 2 128.19 12.3
6 -10 -2 96.29 15.3
-6 -10 2 133.69 12.3
-6 10 2 131.99 15.8
6 10 -2 117.99 11.4
-6 10 2 102.69 13.7
4 -10 -2 10.3 10.2
-4 -10 2 8.7 7.7
-4 -10 2 6.5 8.3
4 -10 -2 10.5 10.2
-4 10 2 9.1 8.6
-4 10 2 8.7 10.4
4 10 -2 8.1 6.6
2 -10 -2 1475.45 81.99
-2 -10 2 1239.98 80.79
2 -10 -2 1253.97 81.49
-2 -10 2 1533.05 81.39
2 10 -2 1282.47 80.89
-2 10 2 1216.18 81.19
-2 10 2 1358.96 81.89
0 -10 2 513.35 33.4
0 -10 -2 501.75 33.2
0 -10 -2 485.15 33.4
0 -10 2 507.45 33.5
0 10 -2 453.55 32.7
0 10 2 479.35 33
0 10 2 503.35 33.8
0 10 -2 443.96 31.9
-2 -10 -2 92.79 11.7
-2 -10 -2 126.69 12.5
2 -10 2 94.99 12.2
2 -10 2 100.49 12.5
-2 10 -2 79.19 10.7
2 10 2 108.49 12.8
-2 10 -2 83.59 11.8
2 10 2 105.29 11.8
4 -10 2 58.19 12.4
-4 -10 -2 47.2 9.3
-4 -10 -2 67.59 10
4 -10 2 65.59 11.4
-4 10 -2 57.69 10.1
4 10 2 66.39 10.5
-4 10 -2 89.89 12.1
6 -10 2 -5.5 9.2
-6 -10 -2 -3.6 7.1
-6 -10 -2 -6 7.1
-6 10 -2 7.9 8.4
6 10 2 -0.1 6
-6 10 -2 11.4 9.2
-8 -10 -2 30.2 7.5
-8 -10 -2 13.5 7.7
8 -10 2 4.3 10.2
-8 10 -2 24.7 9.3
-8 10 -2 13.8 10.1
-10 10 -2 304.57 26.5
-10 10 -2 228.78 22.8
-12 10 -2 17.5 9.9
-14 10 -2 5.7 9.9
-15 11 2 -14.9 11.2
-13 11 2 170.68 17.5
-9 -11 2 8.8 7.9
-9 -11 2 4.1 8.1
9 -11 -2 -3.3 12.3
-9 11 2 3.7 10.7
-9 11 2 11.1 12.8
7 -11 -2 10.9 11.2
-7 -11 2 -0.5 7.9
-7 -11 2 7.6 8
-7 11 2 8.2 12
7 11 -2 -0.8 7
-7 11 2 10.5 10.2
-5 -11 2 20.2 8.4
5 -11 -2 11 10.4
-5 -11 2 12.8 8.5
5 11 -2 14.2 7.1
-5 11 2 11.4 9.1
-5 11 2 5.5 11
3 -11 -2 7876.91 462.85
-1 -11 2 443.16 32.8
-1 -11 2 508.85 33.1
1 -11 -2 434.46 33.4
1 -11 -2 521.35 33.6
1 11 -2 459.85 31.8
-1 11 2 469.55 32.6
-1 11 2 464.75 33.9
1 11 -2 508.75 32.9
-1 -11 -2 216.38 20.8
1 -11 2 216.28 21.3
1 -11 2 239.58 21.5
-1 -11 -2 244.98 21.3
-1 11 -2 247.48 19.9
-1 11 -2 255.27 20.7
1 11 2 248.68 20.9
1 11 2 263.87 22.3
-3 -11 -2 719.03 47.4
3 -11 2 795.22 49.3
3 -11 2 682.03 48.4
-3 -11 -2 798.62 47.8
-3 11 -2 745.73 48.2
3 11 2 780.92 48
-3 11 -2 723.93 47.4
-5 -11 -2 47.4 9.8
5 -11 2 53.39 11.7
-5 -11 -2 52.09 10.1
-5 11 -2 54.49 10.8
5 11 2 62.49 8.7
-5 11 -2 44.6 10.4
7 -11 2 40.8 11.7
-7 -11 -2 56.69 9.2
-7 -11 -2 58.79 10
-7 11 -2 36.3 10.1
-7 11 -2 68.39 12.4
7 11 2 38.3 7.7
-9 -11 -2 612.84 38.6
9 -11 2 606.84 43
-9 -11 -2 692.93 39.4
-9 11 -2 546.85 40.8
-9 11 -2 612.44 42.7
-11 11 -2 -18.6 9.9
-13 11 -2 -1.6 9.9
-15 11 -2 194.38 18.7
-14 12 2 121.99 15.9
-12 12 2 15.2 10.9
-10 -12 2 23.8 9.1
-10 -12 2 19.9 8.9
-10 12 2 12.6 13.9
-8 -12 2 3.4 8.8
-8 -12 2 10 9.4
8 -12 -2 6 12.3
-8 12 2 9.4 10.9
8 12 -2 4.1 7.6
-8 12 2 1.1 12.6
6 -12 -2 14.1 11.5
-6 -12 2 4.5 8.7
-6 -12 2 9.3 9
6 12 -2 3.9 7.5
-6 12 2 18.9 10.3
-6 12 2 18.7 12.2
-4 -12 2 413.66 28.9
4 -12 -2 358.76 30.8
-4 -12 2 400.56 28.5
-4 12 2 385.86 29.6
-4 12 2 417.46 31.9
4 12 -2 395.96 27.4
-2 -12 2 3115.29 173.68
2 -12 -2 2864.91 173.68
2 -12 -2 3068.29 173.98
-2 -12 2 2869.71 173.08
-2 12 2 2660.93 173.68
-2 12 2 2997.8 173.68
2 12 -2 2841.22 172.68
0 -12 2 1292.07 81.59
0 -12 -2 1524.25 82.29
0 -12 2 1477.45 82.29
0 -12 -2 1239.78 81.49
0 12 -2 1292.77 81.49
0 12 2 1294.67 81.49
0 12 2 1332.47 81.99
0 12 -2 1224.88 80.69
2 -12 2 861.21 53.69
-2 -12 -2 830.02 52.79
-2 -12 -2 832.52 52.89
2 -12 2 844.52 53.79
2 12 2 876.01 53.39
-2 12 -2 823.92 53.19
-2 12 -2 749.23 51.99
4 -12 2 303.07 24.6
-4 -12 -2 233.78 22.4
-4 -12 -2 270.87 21.9
-4 12 -2 272.37 22.6
-4 12 -2 291.27 23.7
-6 -12 -2 593.34 36.9
6 -12 2 597.64 39.2
-6 -12 -2 551.04 36.3
-6 12 -2 521.35 37.3
-6 12 -2 552.94 38.6
6 12 2 506.25 35.2
8 -12 2 495.45 37.1
-8 -12 -2 490.85 33.7
-8 -12 -2 499.85 33.2
8 12 2 492.75 32.2
-8 12 -2 504.65 34.9
-8 12 -2 538.75 36.9
-10 -12 -2 865.61 54.19
-10 -12 -2 966.5 54.89
-10 12 -2 827.02 56.79
-12 12 -2 23 11
-14 12 -2 53.49 12.7
-13 13 2 282.97 26
-11 -13 2 -11.9 8.5
-11 -13 2 -2.6 8.3
-9 -13 2 269.07 21.4
-9 -13 2 239.68 20.4
-9 13 2 208.78 22.9
-7 -13 2 0.3 9.4
7 -13 -2 9.1 12.4
-7 -13 2 -12.7 9.6
-7 13 2 15.1 13.1
7 13 -2 -4.5 8.3
-7 13 2 -3.9 10.5
-5 -13 2 1072.99 65.29
-5 -13 2 1036.8 64.79
5 -13 -2 1011.8 66.69
-5 13 2 1038.8 67.39
5 13 -2 1041.3 64.19
-5 13 2 1074.39 66.59
-3 -13 2 473.25 33.6
-3 -13 2 470.55 33.1
3 -13 -2 468.65 34.4
3 -13 -2 479.75 35.3
3 13 -2 446.86 31.8
-3 13 2 489.45 35.5
-3 13 2 454.35 33.8
1 -13 -2 518.75 36.4
-1 -13 2 521.65 36.4
1 -13 -2 526.35 36.6
-1 -13 2 526.05 36.1
-1 13 2 520.95 35.9
-1 13 2 483.25 37
1 13 -2 502.65 34.8
-1 -13 -2 2664.43 159.28
1 -13 2 2927.01 160.08
1 -13 2 2541.95 159.38
-1 -13 -2 2815.82 159.78
-1 13 -2 2695.63 159.58
1 13 2 2702.13 159.68
-1 13 -2 2363.46 158.58
3 -13 2 -3.3 10.2
3 -13 2 -12 11.1
-3 -13 -2 -0.4 9.2
-3 -13 -2 -9 9.2
3 13 2 3 10.5
-3 13 -2 4.2 9
-3 13 -2 1.7 9.6
-5 -13 -2 286.27 23
5 -13 2 270.97 25.6
-5 -13 -2 263.57 23.4
5 13 2 284.37 21.4
-5 13 -2 296.87 23.7
-5 13 -2 274.27 24.7
-7 -13 -2 1498.75 91.49
7 -13 2 1506.85 93.99
-7 -13 -2 1511.75 91.99
-7 13 -2 1616.94 94.19
-7 13 -2 1453.05 92.49
7 13 2 1517.35 90.99
-9 -13 -2 139.39 13.7
-9 -13 -2 105.09 12.3
-9 13 -2 77.69 13.7
-11 -13 -2 132.89 13
-11 -13 -2 117.19 11.6
-11 13 -2 104.49 15.3
-13 13 -2 5.7 11.4
-14 14 2 11.9 12.4
-12 -14 2 15.2 9.3
-12 -14 2 8.7 9.2
-12 14 2 12.3 11.7
-10 -14 2 368.06 26.3
-10 -14 2 345.37 27
-8 -14 2 339.77 28.7
8 -14 -2 411.26 33.3
-8 -14 2 375.96 27.8
8 14 -2 394.56 27.1
-8 14 2 363.86 32.9
-6 -14 2 2507.75 154.28
6 -14 -2 2565.24 155.68
-6 -14 2 2528.85 153.58
-6 14 2 2471.25 155.68
-6 14 2 2729.83 155.88
6 14 -2 2680.33 153.38
-4 -14 2 451.15 31.2
-4 -14 2 396.46 31.6
4 -14 -2 426.86 33.3
-4 14 2 454.55 32.4
-4 14 2 389.66 34.3
4 14 -2 428.66 29.9
2 -14 -2 241.58 22.7
-2 -14 2 210.68 21.8
2 -14 -2 218.08 23.1
-2 -14 2 197.28 21.4
-2 14 2 224.58 21.3
2 14 -2 196.38 19.7
-2 14 2 232.88 24.3
0 -14 2 441.26 33.3
0 -14 -2 491.35 33.9
0 -14 -2 443.06 33.7
0 -14 2 503.05 34.4
0 14 -2 404.56 33.3
0 14 2 469.65 34.7
0 14 -2 426.46 31.8
-2 -14 -2 172.98 17.2
-2 -14 -2 172.28 17.5
2 -14 2 150.38 17
2 -14 2 148.29 17.9
-2 14 -2 167.38 17.4
2 14 2 163.78 18
-2 14 -2 162.48 16.5
-4 -14 -2 303.87 25.1
4 -14 2 309.87 27.7
-4 -14 -2 328.87 26.1
-4 14 -2 294.77 25.2
-4 14 -2 320.97 26.6
-6 -14 -2 1121.19 72.19
6 -14 2 1151.28 74.59
-6 -14 -2 1177.58 72.99
-6 14 -2 1212.08 74.69
6 14 2 1221.48 71.79
-6 14 -2 1163.58 73.09
8 -14 2 152.28 19.5
-8 -14 -2 168.78 18
-8 -14 -2 162.78 16.5
-8 14 -2 164.78 18.1
8 14 2 163.98 16.5
-10 -14 -2 58.39 11.1
-10 -14 -2 55.49 10
-10 14 -2 45.7 12.6
-12 14 -2 5.6 11.5
-14 14 -2 86.79 14.9
-13 15 2 281.77 26.8
-11 -15 2 160.68 15.6
-9 -15 2 40.6 11.7
-9 -15 2 30.2 10.8
-9 15 2 54.49 16.3
-7 -15 2 60.49 13
7 -15 -2 85.39 16.3
-7 -15 2 65.29 12.4
7 15 -2 56.89 11.1
-7 15 2 52.89 14.2
-7 15 2 67.89 16.4
5 -15 -2 -0.5 12.9
-5 -15 2 -4.2 10.7
-5 -15 2 13.8 10.3
-5 15 2 16.5 11.9
5 15 -2 5.1 9.1
-5 15 2 3.9 13.6
-3 -15 2 761.42 50.79
3 -15 -2 810.22 54.59
3 -15 -2 740.03 51.59
-3 -15 2 776.72 50.19
-3 15 2 814.32 51.19
3 15 -2 799.32 49.4
-3 15 2 663.33 51.69
1 -15 -2 692.53 45.9
1 -15 -2 723.13 46.2
-1 -15 2 757.72 46.4
-1 -15 2 615.14 45.3
-1 15 2 666.13 45.2
1 15 -2 587.74 43.8
-1 15 2 681.03 46.8
-1 -15 -2 249.18 25.4
1 -15 2 314.67 26.1
1 -15 2 263.67 25.8
-1 -15 -2 273.57 25.5
1 15 2 235.88 26.2
-1 15 -2 293.57 25.2
-1 15 -2 281.27 23.9
-3 -15 -2 29.8 11.3
-3 -15 -2 26.1 11.1
3 -15 2 14.8 11.9
-3 15 -2 21.5 11.2
-3 15 -2 15.4 10.3
5 -15 2 31.6 12.7
-5 -15 -2 23.5 11.5
-5 -15 -2 30.7 10.7
-5 15 -2 16.1 11.6
-5 15 -2 29.1 11.3
5 15 2 23.7 9.5
7 -15 2 44 14.8
-7 -15 -2 27.3 10.7
-7 -15 -2 52.09 11.8
-7 15 -2 53.09 14
-7 15 -2 22.4 11.4
7 15 2 45.6 10.1
-9 -15 -2 381.86 28.8
-9 -15 -2 410.46 30.3
-9 15 -2 397.36 31.3
-11 -15 -2 23.4 10.6
-11 -15 -2 6.3 9.1
-11 15 -2 26.6 12.6
-13 15 -2 434.76 33.6
-14 16 2 6.8 12.3
-12 -16 2 65.09 11.9
-12 16 2 83.19 15.4
-10 -16 2 481.45 33.8
-8 -16 2 -4.6 10.2
-8 -16 2 0.5 10.8
-8 16 2 -6 14.4
-6 -16 2 9.7 11.6
-6 -16 2 30.1 11.2
6 -16 -2 31.7 14.4
6 16 -2 7.8 9.2
-6 16 2 1.5 14.3
-6 16 2 5.8 12.3
-4 -16 2 51.79 13.1
4 -16 -2 18.6 12.7
-4 -16 2 35.8 12.1
-4 16 2 41.7 14.6
-4 16 2 37.3 12.8
4 16 -2 29.3 10.7
2 -16 -2 919.21 62.39
-2 -16 2 974.9 61.59
2 -16 -2 919.11 62.59
-2 -16 2 993.3 62.49
2 16 -2 1036.4 60.89
-2 16 2 867.21 62.69
-2 16 2 987.8 62.19
0 -16 2 85.99 14.8
0 -16 -2 85.89 14.5
0 -16 2 103.09 15.8
0 -16 -2 121.19 16.3
0 16 -2 67.89 12.7
0 16 2 92.89 16.3
-2 -16 -2 26 12.3
2 -16 2 13.2 12.7
-2 -16 -2 41.3 12.7
2 -16 2 30.8 13.5
-2 16 -2 27.9 12.4
-2 16 -2 42.2 11
2 16 2 40.6 13.9
4 -16 2 68.79 15
-4 -16 -2 67.29 13.2
-4 -16 -2 71.49 14.3
4 16 2 62.09 11.9
-4 16 -2 46.9 12.7
-4 16 -2 103.79 14.6
-6 -16 -2 -2.3 10.8
-6 -16 -2 17.2 10.9
6 -16 2 -11 12.8
6 16 2 -0.1 9.3
-6 16 -2 -11.4 10.5
-6 16 -2 -1.2 11.9
-8 -16 -2 9.9 10.4
-8 -16 -2 4.3 11
-8 16 -2 6.5 11
-10 -16 -2 78.59 12.2
-10 16 -2 64.49 15.4
-12 -16 -2 228.78 21.3
-12 16 -2 337.57 26.7
-14 16 -2 47.7 14.5
-13 -17 2 15.8 10.8
-13 17 2 25.2 13.5
-11 -17 2 201.58 20.7
-11 17 2 202.68 21.6
-9 -17 2 874.41 55.79
-7 -17 2 61.39 13
-7 17 2 65.79 16.9
5 -17 -2 473.95 38.9
-5 -17 2 476.05 37.7
-5 -17 2 466.45 36.1
-5 17 2 574.54 38.9
-5 17 2 420.66 39.6
5 17 -2 563.74 35.8
-3 -17 2 33.6 12.2
-3 -17 2 52.09 14
3 -17 -2 33.4 13.4
-3 17 2 71.09 16.2
3 17 -2 13.4 10.8
-3 17 2 33.9 12.8
-1 -17 2 91.59 14.7
1 -17 -2 64.69 15.1
1 -17 -2 53.49 14.8
-1 -17 2 82.99 15.9
-1 17 2 69.99 16.1
1 17 -2 91.69 13.6
-1 -17 -2 108.79 15.9
-1 -17 -2 82.79 14.8
1 -17 2 112.89 17
1 -17 2 80.49 15.4
-1 17 -2 64.49 12.9
1 17 2 79.99 16
-3 -17 -2 25.3 13
-3 -17 -2 25.7 12.4
3 -17 2 23 13.8
-3 17 -2 21.2 11.6
-3 17 -2 17.4 12.4
-5 -17 -2 1413.86 88.49
-5 -17 -2 1353.86 89.49
5 -17 2 1400.16 90.59
5 17 2 1543.05 88.19
-5 17 -2 1401.06 88.89
-5 17 -2 1510.55 90.69
-7 -17 -2 43.1 11.9
-7 17 -2 46.1 13.3
-9 -17 -2 3.8 10.5
-9 17 -2 -11.5 12.5
-11 -17 -2 471.35 36.5
-11 17 -2 642.34 40.7
-13 -17 -2 0.5 9.3
-13 17 -2 -18.1 12.2
-12 -18 2 87.39 14.2
-12 18 2 122.99 17.7
-10 -18 2 1009.9 63.79
-8 -18 2 10.8 11.9
-6 -18 2 12 12
6 -18 -2 -7.6 14.4
-6 18 2 -0.2 15.5
-4 -18 2 924.71 61.59
-4 -18 2 918.01 63.19
4 -18 -2 1020.9 63.99
-4 18 2 896.71 64.09
4 18 -2 956.1 61.09
-4 18 2 1019.2 63.59
-2 -18 2 41.9 13.8
2 -18 -2 12.6 13.2
-2 -18 2 42.1 13.1
2 -18 -2 32.3 14.5
-2 18 2 34.5 15.7
2 18 -2 19.6 11.7
0 -18 -2 463.55 34.1
0 -18 2 368.16 33.6
0 -18 2 429.36 33
0 -18 -2 411.06 32.8
0 18 2 409.46 34.1
0 18 -2 291.57 30.2
2 -18 2 246.58 25.1
-2 -18 -2 261.37 26.7
-2 -18 -2 258.37 25.3
2 -18 2 223.78 23.4
-2 18 -2 260.47 24.2
-4 -18 -2 443.16 36.4
-4 -18 -2 433.36 34.3
4 -18 2 474.35 37.5
4 18 2 443.26 33.7
-4 18 -2 442.46 34.4
-4 18 -2 501.45 36.6
-6 -18 -2 27.9 12.3
6 -18 2 38.7 15.5
-6 18 -2 12.5 12.3
-8 -18 -2 173.68 17.8
-8 18 -2 144.49 18.9
-10 -18 -2 270.47 24.4
-10 18 -2 283.97 28
-12 -18 -2 51.59 12
-12 18 -2 66.49 15.4
-13 -19 2 880.21 62.89
-13 19 2 1181.78 67.09
-11 -19 2 20 11.7
-11 19 2 22 14.3
-9 -19 2 1.7 12.1
-7 -19 2 132.59 17.7
-5 -19 2 -3.3 11.9
5 -19 -2 2.6 14.8
-5 19 2 -8.2 15.5
-3 -19 2 751.72 51.09
3 -19 -2 647.24 50.59
-3 -19 2 724.33 49.5
-3 19 2 688.73 51.69
3 19 -2 779.52 48.8
-1 -19 2 1204.38 82.69
1 -19 -2 1298.47 82.09
1 -19 -2 1465.95 83.69
-1 -19 2 1233.18 81.59
1 19 -2 1361.56 80.99
-1 19 2 1186.28 82.49
-1 -19 -2 15.5 13.6
1 -19 2 29.6 15.3
-1 -19 -2 29.4 13.6
1 -19 2 12.8 13.5
-1 19 -2 48.1 12.9
3 -19 2 -1.3 13.2
-3 -19 -2 0.4 13.2
-3 -19 -2 5.2 12.2
3 19 2 2 11.3
-3 19 -2 -16.1 10.9
5 -19 2 30.2 15.5
-5 -19 -2 44.1 13.7
-5 19 -2 42.1 12.8
-7 -19 -2 1924.51 117.99
-7 19 -2 1961.8 118.89
-9 -19 -2 78.19 14.2
-9 19 -2 80.09 16.5
-11 -19 -2 -14.5 11.2
-11 19 -2 -14.5 13.2
-13 -19 -2 99.39 13.7
-13 19 -2 116.49 18.7
-12 -20 2 300.67 27.6
-12 20 2 374.16 31.9
-10 -20 2 5.1 12.2
-10 20 2 -0.6 13.4
-8 -20 2 -31.1 11.9
-6 -20 2 180.28 20
-4 -20 2 8.6 12.7
4 -20 -2 -6 14.1
-4 20 2 -12.9 15.4
2 -20 -2 63.29 16
-2 -20 2 49.99 15.1
-2 20 2 22.3 16.2
2 20 -2 51.69 14
0 -20 -2 696.93 47.5
0 -20 2 621.54 45.8
0 -20 -2 649.54 45.4
0 -20 2 607.74 47.6
0 20 -2 565.84 44.4
2 -20 2 36.7 15.5
-2 -20 -2 11.8 13.9
-2 20 -2 46 13.1
2 20 2 45.5 12.8
4 -20 2 26.8 15.2
-4 -20 -2 44.4 14.4
-4 20 -2 19.4 12.3
-6 -20 -2 154.38 18.6
-6 20 -2 144.19 18.2
-8 -20 -2 1304.17 87.89
-8 20 -2 1553.54 89.89
-10 -20 -2 44.6 13.5
-10 20 -2 43.3 15.2
-12 -20 -2 20.5 11.8
-12 20 -2 4.2 14.6
-11 -21 2 80.79 15.7
-11 21 2 136.49 19.2
-9 -21 2 29.8 13.9
-9 21 2 78.39 16.8
-7 -21 2 4.6 13.3
5 -21 -2 9.7 16.8
-5 -21 2 25.4 13.7
3 -21 -2 125.99 20.4
-3 -21 2 161.88 19.9
-1 -21 2 47.8 15.6
1 21 -2 45.5 13.8
1 -21 2 19.5 14.6
1 -21 2 25.7 16.3
-1 -21 -2 25.1 14.4
1 21 2 28 13.1
-1 21 -2 27.3 14.1
3 -21 2 32.8 15.6
-3 -21 -2 32.6 14.3
-3 21 -2 25.4 13.1
-5 -21 -2 94.19 16.9
-5 21 -2 82.19 15.8
-7 -21 -2 29.1 13.5
-7 21 -2 52.89 14.6
-9 -21 -2 28.1 13.5
-9 21 -2 7.1 13.8
-11 -21 -2 36.7 13.4
-11 21 -2 22.5 15.1
-12 22 2 80.29 18
-10 -22 2 167.68 20.5
-10 22 2 278.17 27.9
-8 -22 2 3.1 13.8
-8 22 2 13.6 14.1
-6 -22 2 2.1 13.9
-4 -22 2 5.5 14.5
4 -22 -2 14.6 16
2 -22 -2 24 15.5
-2 -22 2 11.4 15
0 -22 -2 58.09 16.1
0 -22 2 37.4 15.7
0 22 -2 21.5 14.7
0 22 2 20.7 13.5
2 -22 2 69.59 17.6
-2 -22 -2 64.19 16.8
-2 22 -2 100.29 16.8
4 -22 2 133.39 21.2
-4 -22 -2 106.59 18.2
-4 22 -2 120.69 18
-6 -22 -2 177.98 20.8
-6 22 -2 140.89 20.3
-8 -22 -2 403.06 32.5
-8 22 -2 348.67 33.6
-10 -22 -2 11.9 13.4
-10 22 -2 8.2 14.6
-12 22 -2 -10.7 15.2
-11 23 2 22.8 16.2
-9 -23 2 31.1 14.8
-9 23 2 36 15.3
-7 -23 2 7.3 14.1
-7 23 2 8.6 14.4
-5 -23 2 -1.6 14
3 -23 -2 582.44 46.4
-3 -23 2 562.74 44.2
1 -23 -2 20 15.4
-1 -23 2 17.5 14.9
-1 -23 -2 66.79 17.4
1 -23 2 64.59 17.7
3 -23 2 48.4 18.4
-3 -23 -2 59.79 16.1
-3 23 -2 17.8 15.5
-5 -23 -2 10.6 14.6
-5 23 -2 25.7 15.1
-7 -23 -2 187.08 21.6
-7 23 -2 154.68 20.9
-9 -23 -2 12.9 14
-9 23 -2 14.8 15.8
-11 23 -2 -10.1 15.3
-10 24 2 376.26 35.6
-8 -24 2 21.3 15.3
-8 24 2 26.9 15.8
-6 -24 2 -9.4 14.6
-6 24 2 10.2 14.5
-4 -24 2 335.87 33.6
-4 24 2 357.26 33
2 -24 -2 167.88 23.2
-2 -24 2 159.58 21.8
0 -24 -2 -9.7 15.5
0 -24 2 21.7 16
2 -24 2 26 17.2
-2 -24 -2 -4.6 15.2
-4 -24 -2 170.28 21.2
-4 24 -2 117.59 19.8
-6 -24 -2 -5.4 14.5
-6 24 -2 -11.5 14.6
-8 -24 -2 25.6 15
-8 24 -2 1.8 15.2
-10 24 -2 111.39 20.3
-11 25 2 24 16.7
-9 -25 2 242.18 24.9
-9 25 2 227.28 25.7
-7 -25 2 -15.6 14.7
-7 25 2 7.7 15.2
-5 -25 2 -26.4 14.7
-5 25 2 -8.9 15
-3 -25 2 65.89 18.6
3 -25 -2 112.49 21.1
1 -25 -2 0.3 16.5
-1 -25 2 2.7 15.9
1 -25 2 169.28 23.8
-1 -25 -2 147.19 22.1
3 -25 2 6 18.4
-3 -25 -2 17.4 15.6
-5 -25 -2 232.58 26.6
-5 25 -2 334.57 32.3
-7 -25 -2 377.96 34
-7 25 -2 358.26 35.7
-9 -25 -2 15.8 15.7
-9 25 -2 2.1 15.8
-11 25 -2 118.59 20.6
-10 26 2 94.69 20
-8 -26 2 72.49 18.5
-8 26 2 70.49 18.7
-6 -26 2 56.59 18
-6 26 2 101.49 19.7
-4 -26 2 58.89 17.6
2 -26 -2 39 19.3
-2 -26 2 22.8 17.3
0 -26 -2 403.76 38.4
0 -26 2 397.06 38.5
-2 -26 -2 21.4 16.8
2 -26 2 12.1 18.5
-4 -26 -2 110.59 20.2
-6 -26 -2 217.58 26.4
-6 26 -2 295.77 31.9
-8 -26 -2 127.99 21
-8 26 -2 186.98 24
-10 26 -2 10.9 16.8
-9 27 2 75.39 19.6
-7 -27 2 33.6 17.5
-5 -27 2 10 16.8
-3 -27 2 62.49 18.6
1 -27 -2 52.29 19.9
-1 -27 2 35.6 18.7
1 -27 2 55.99 20
-1 -27 -2 29 17.8
-3 -27 -2 -0.9 16.7
-5 -27 -2 -22.4 16
-7 -27 -2 169.88 22.9
-7 27 -2 157.18 24
-9 27 -2 8.9 17
-10 28 2 43.6 19.9
-6 -28 2 172.98 24.4
-4 -28 2 22.4 18
-2 -28 2 57.09 19.2
0 -28 2 139.19 23.6
0 -28 -2 102.99 22.4
-2 -28 -2 69.79 20.4
-4 -28 -2 13.6 17.8
-6 -28 -2 367.56 36.6
-10 28 -2 47.5 19
-5 -29 2 21.2 18.5
1 -29 -2 26.3 20.1
-1 -29 2 -7.8 18.3
1 -29 2 166.08 26.7
-1 -29 -2 177.98 26.2
-3 -29 -2 24.3 18.5
-5 -29 -2 85.09 20.6
-4 -30 2 157.78 24.7
-2 -30 2 711.83 55.59
0 -30 -2 57.09 21.6
0 -30 2 23.3 20.7
-2 -30 -2 -8.4 18.8
-4 -30 -2 -21 17.7
-3 -31 2 869.91 63.89
-1 -31 2 2.2 19.1
-1 -31 -2 -20.4 18.9
-3 -31 -2 25.9 19.6
-2 -32 2 61.49 21.9
-2 -32 -2 10.7 20.4
-1 -33 2 24.5 24
-1 -33 -2 197.08 29.4
-12 0 3 7.2 6.3
-10 0 3 -3.4 5.9
-10 0 3 -2.5 7.1
8 0 -3 6.5 5.9
-8 0 3 3.5 5.5
-8 0 3 9.5 6.6
-6 0 3 -7.7 4.9
6 0 -3 -9.2 5.4
6 0 -3 -8.1 6
-6 0 3 -2.1 5.8
4 0 -3 -2.3 5.2
-4 0 3 -3.1 5.6
-4 0 3 0.8 4.9
4 0 -3 -2.4 5.8
-2 0 3 -5.8 4.7
2 0 -3 1.3 3.1
-2 0 3 1.3 4.8
2 0 -3 7.6 4.9
0 0 3 0.8 3.1
0 0 -3 4.2 3.5
0 0 -3 2 3
0 0 3 -0.7 3
-2 0 -3 0.2 3.9
-2 0 -3 -2.5 4.2
2 0 3 -2.8 3.4
2 0 3 -1.8 4.2
4 0 3 -6.6 3.5
-4 0 -3 -4.9 3.7
4 0 3 -6 4.2
-4 0 -3 -8.2 3.8
6 0 3 13.1 4.9
-6 0 -3 8.3 4.1
-13 1 3 1818.12 108.09
-13 1 3 1837.92 108.59
-11 1 3 749.42 44.9
-11 1 3 700.93 45.1
9 -1 -3 139.29 13.3
-9 -1 3 115.19 12.7
-9 1 3 156.48 13
-9 1 3 140.99 13
-7 -1 3 920.81 52.99
7 -1 -3 912.81 53.39
-7 -1 3 817.12 52.59
7 1 -3 873.91 52.79
-7 1 3 834.02 53.19
-7 1 3 938.61 53.69
5 -1 -3 877.61 50.69
-5 -1 3 831.42 50.19
-5 -1 3 790.12 49.9
5 -1 -3 825.02 50.59
5 1 -3 922.61 50.19
5 1 -3 850.01 50.09
-5 1 3 791.92 50.69
-5 1 3 787.12 50.29
3 -1 -3 0.5 1.6
1 -1 -3 469.25 26.5
-1 -1 3 467.75 26.3
1 -1 -3 395.36 26.3
-1 -1 3 382.96 26.1
-1 1 3 396.16 26.4
1 1 -3 443.86 26.3
1 1 -3 401.36 26.1
-1 1 3 485.75 26.5
1 1 3 49.2 4.9
3 -1 3 1366.96 76.49
-3 -1 -3 1165.38 75.99
-3 1 -3 1261.17 76.29
3 1 3 1377.26 76.09
5 -1 3 520.05 31.1
-5 1 -3 465.95 30.7
-5 1 -3 531.05 30.9
-9 1 -3 291.47 19
-9 1 -3 281.27 19.5
-14 2 3 1179.48 71.79
-14 2 3 1190.48 71.09
-12 2 3 630.74 40.1
10 -2 -3 22.8 8
-10 2 3 23.4 8.7
-10 2 3 24.1 8.3
8 -2 -3 11.3 7.2
-8 2 3 27.3 8.3
-8 2 3 20.7 6.8
6 -2 -3 282.07 19.7
-6 -2 3 291.27 17.8
-6 -2 3 255.37 18.4
6 2 -3 286.97 18.1
6 2 -3 284.77 18.3
-6 2 3 266.77 20.2
-6 2 3 252.67 19.2
4 -2 -3 1765.52 107.09
-4 2 3 1803.02 107.09
-4 2 3 1864.51 107.29
-2 -2 3 873.01 54.19
2 -2 -3 997.9 54.99
-2 -2 3 939.21 54.39
2 -2 -3 882.51 54.89
2 2 -3 880.51 54.29
-2 2 3 977.2 54.99
-2 2 3 841.02 54.79
0 -2 3 1164.68 73.39
0 -2 3 1319.27 73.59
0 -2 -3 1281.97 73.59
0 -2 -3 1228.78 73.59
0 2 -3 1231.38 73.59
0 2 3 1369.06 73.69
0 2 3 1195.38 73.49
0 2 -3 1174.88 73.39
-2 -2 -3 2 4.2
2 -2 3 2.9 4.6
-2 -2 -3 -2.7 4.7
2 -2 3 -3.4 5.6
2 2 3 4.1 4.5
-2 2 -3 -4.4 5.2
2 2 3 -7.5 4.2
-2 2 -3 -1.7 4.8
4 -2 3 291.77 18.1
4 -2 3 275.17 19.1
-4 2 -3 279.57 18.4
-4 2 -3 265.07 18.7
-6 2 -3 2027.2 119.59
-10 2 -3 12.8 6.8
-10 2 -3 11 6.1
-12 2 -3 4.7 5.8
-12 2 -3 2.8 7
-15 3 3 6.5 6.9
-13 3 3 272.17 21.7
-11 3 3 1301.77 75.79
-11 3 3 1192.88 75.79
9 -3 -3 767.62 45.9
-9 3 3 695.93 45.7
-9 3 3 730.43 46.4
7 -3 -3 14.7 7.1
-7 3 3 6.3 6.8
-7 3 3 5.2 8
5 -3 -3 106.79 10.5
-5 -3 3 91.99 10
5 -3 -3 115.39 10.1
-5 -3 3 73.69 8.2
-5 3 3 104.69 10.4
5 3 -3 99.49 9.7
5 3 -3 93.49 9.4
-5 3 3 97.39 10
3 -3 -3 1797.12 108.19
-3 3 3 1674.73 108.09
-3 3 3 2013.4 108.49
1 -3 -3 240.78 17.1
-1 -3 3 223.58 15.6
1 -3 -3 224.48 17
-1 -3 3 239.18 16.4
1 3 -3 220.08 15.7
-1 3 3 216.48 16.8
-1 3 3 241.78 17.4
1 3 -3 230.38 16.2
-1 -3 -3 304.67 20.2
1 -3 3 317.17 20
1 -3 3 313.67 20.9
-1 -3 -3 293.57 20.4
1 3 3 305.37 20.4
-1 3 -3 300.77 20.8
1 3 3 305.07 20.3
-1 3 -3 313.47 20.2
-3 -3 -3 207.98 12.8
3 -3 3 141.59 13.4
3 -3 3 188.08 14.7
-3 -3 -3 157.58 12.5
-3 3 -3 173.68 14.1
3 3 3 218.48 13
-3 3 -3 156.78 13.6
3 3 3 176.08 12.7
5 -3 3 2032.6 115.79
-5 3 -3 2179.48 115.89
-5 3 -3 1667.63 115.29
7 -3 3 1366.66 77.99
-7 3 -3 1271.07 77.49
-7 3 -3 1270.67 77.89
9 -3 3 231.38 18.3
-9 3 -3 233.28 17.1
-9 3 -3 231.88 17.9
-11 3 -3 70.79 9.1
-11 3 -3 65.09 9.9
-13 3 -3 -3.6 7.9
-13 3 -3 -5.2 6.4
-16 4 3 247.28 19.4
-14 4 3 5.9 7.7
-12 4 3 176.28 17.3
-10 4 3 4178.58 246.08
-10 4 3 4169.78 246.08
8 -4 -3 78.09 10.3
-8 4 3 66.79 10.9
-8 4 3 70.59 10.2
6 -4 -3 2606.44 153.98
-6 4 3 2622.84 153.98
-6 4 3 2582.34 154.08
4 -4 -3 332.87 22.1
-4 -4 3 282.67 19.1
-4 -4 3 301.07 19.9
4 -4 -3 320.57 21.8
4 4 -3 314.57 19.9
-4 4 3 309.47 22.1
-4 4 3 281.37 21
4 4 -3 277.37 19.7
2 -4 -3 875.61 52.89
2 -4 -3 867.51 52.99
-2 -4 3 947.21 52.19
-2 -4 3 806.82 51.69
-2 4 3 907.61 53.09
-2 4 3 814.02 52.59
2 4 -3 824.32 52.09
2 4 -3 880.81 51.89
0 -4 -3 2572.94 151.48
-2 -4 -3 3.7 5.4
2 -4 3 0 5.4
2 -4 3 -6.4 6.7
-2 -4 -3 1.9 5.7
-2 4 -3 7.8 6.4
2 4 3 0.7 1.9
-2 4 -3 4.2 5.7
2 4 3 11.3 5.9
6 -4 3 -6.5 6.4
-6 4 -3 4.7 5.7
-6 4 -3 9.5 6.3
8 -4 3 12 7.6
-8 4 -3 13.9 6.9
-8 4 -3 7.2 6.3
10 -4 3 1509.85 96.09
-10 4 -3 1642.64 96.39
-10 4 -3 1663.23 95.59
-12 4 -3 102.79 12.4
-12 4 -3 99.59 10.7
-14 4 -3 543.75 34.7
-16 4 -3 170.68 15.3
-15 5 3 20.1 8.8
11 -5 -3 85.49 12.6
-11 5 3 77.29 12.6
-11 5 3 77.39 11.7
9 -5 -3 -4.6 8.8
-9 5 3 -13.5 7.7
-9 5 3 -16.7 9.5
-7 -5 3 194.78 15.1
-7 -5 3 199.18 13.3
7 -5 -3 216.08 18
-7 5 3 170.08 18.5
7 5 -3 201.58 14.6
-7 5 3 193.28 17
-5 -5 3 601.44 35.4
-5 -5 3 535.95 35.9
5 -5 -3 617.64 37.7
5 -5 -3 583.34 37.9
-5 5 3 585.04 37.3
-5 5 3 599.84 37.9
5 5 -3 587.54 35.8
5 5 -3 582.84 35.9
-3 5 3 3686.83 206.08
-3 5 3 3306.87 205.68
-1 -5 3 4.9 5.3
1 -5 -3 1 7.5
1 -5 -3 -3.5 7.2
-1 -5 3 9.7 7.1
1 5 -3 0 6.7
-1 5 3 10 8.2
-1 5 3 4.1 6.8
1 5 -3 8.2 5.8
-1 -5 -3 1878.31 113.19
1 -5 3 1996 113.49
1 -5 3 1903.51 113.09
-1 -5 -3 1910.81 113.19
-1 5 -3 1908.31 113.09
1 5 3 1947.61 113.29
-1 5 -3 1938.51 113.39
1 5 3 1816.82 113.09
-3 -5 -3 48.5 6.9
3 -5 3 58.89 8.7
-3 -5 -3 42.9 6.6
3 5 3 66.09 6.9
-3 5 -3 37.1 7
-3 5 -3 44.6 7.8
3 5 3 54.89 7.1
5 -5 3 2602.74 158.58
5 -5 3 2845.12 158.68
-5 5 -3 2747.82 158.58
-5 5 -3 2540.55 158.08
7 -5 3 938.71 53.19
-7 5 -3 841.22 52.89
-7 5 -3 803.22 52.29
9 -5 3 183.18 17.5
-9 5 -3 182.18 17.1
-9 5 -3 204.98 16.4
11 -5 3 1983.7 119.99
-11 5 -3 1985.4 118.09
-11 5 -3 1996 118.99
-13 5 -3 176.68 14.7
-13 5 -3 146.09 16.5
-15 5 -3 309.47 22.7
-17 5 -3 25.8 8.7
-16 6 3 -2 8.4
-14 6 3 420.36 29.4
-12 6 3 22.7 11.4
-12 6 3 19.1 9.9
10 -6 -3 25.4 10.2
-10 6 3 28.4 11.6
-10 6 3 22.7 10
-8 -6 3 97.49 9.1
8 -6 -3 65.99 11.3
-8 6 3 82.39 12.5
-8 6 3 80.89 11.4
-6 -6 3 565.94 35.6
-6 -6 3 559.24 34.9
6 -6 -3 635.34 37.9
6 6 -3 545.05 35.3
-6 6 3 523.15 37.8
-6 6 3 640.04 37.6
4 -6 -3 379.76 24.7
-4 -6 3 301.57 21.3
4 -6 -3 347.67 24.3
-4 -6 3 322.67 22.4
-4 6 3 331.07 25
4 6 -3 303.47 21.8
-4 6 3 328.27 23.5
4 6 -3 365.86 22
2 -6 -3 1530.65 87.19
-2 -6 3 1455.55 86.49
-2 -6 3 1344.67 85.99
2 -6 -3 1498.85 87.29
2 6 -3 1314.07 86.09
-2 6 3 1424.06 86.89
-2 6 3 1652.93 87.59
2 6 -3 1416.86 86.49
0 -6 -3 28.3 8.3
0 -6 3 33.4 8.5
0 -6 -3 23.2 7.8
0 -6 3 7.6 6.3
0 6 3 31.7 9.3
0 6 -3 24.1 6.7
0 6 3 35 8
0 6 -3 36.1 8.2
-2 -6 -3 104.09 12
2 -6 3 97.79 11.4
-2 -6 -3 91.59 10.3
2 6 3 131.79 13.2
-2 6 -3 76.89 10.1
-2 6 -3 115.39 11.3
2 6 3 95.49 10.1
-4 -6 -3 183.48 13.3
4 -6 3 138.69 15.7
-4 -6 -3 182.08 13.3
4 -6 3 144.39 16.6
4 6 3 163.58 13.4
-4 6 -3 119.49 12.7
4 6 3 192.88 14
-4 6 -3 127.89 14.4
6 -6 3 551.04 35.2
-6 -6 -3 562.44 32.7
-6 6 -3 492.55 34.7
-6 6 -3 524.85 34.2
8 -6 3 1662.13 98.39
-8 6 -3 1615.64 97.69
-8 6 -3 1628.14 98.39
10 -6 3 4.1 8.7
-10 6 -3 -2.1 8.5
-10 6 -3 9.6 7.9
-12 6 -3 427.36 31
-12 6 -3 425.66 29
-14 6 -3 27.9 9.2
-16 6 -3 14.2 8.5
-15 7 3 36 10.7
-11 7 3 121.19 15.1
-11 7 3 108.39 15.2
9 -7 -3 4.6 9.7
-9 7 3 9.8 10.6
-9 7 3 -4.3 8.5
7 -7 -3 2671.83 163.18
-7 7 3 2779.22 163.38
-7 7 3 2756.62 163.18
7 7 -3 2771.12 161.38
5 -7 -3 222.48 19.5
-5 -7 3 200.68 15.4
-5 -7 3 243.88 16.8
-5 7 3 219.28 20.2
-5 7 3 209.98 18.3
5 7 -3 215.58 16.1
-3 -7 3 845.12 54.39
3 -7 -3 866.21 55.59
3 -7 -3 882.71 55.49
-3 -7 3 942.31 53.99
3 7 -3 920.71 54.49
-3 7 3 894.51 55.19
3 7 -3 891.51 54.09
-3 7 3 896.61 55.89
1 -7 -3 136.49 12.6
1 -7 -3 107.69 12
-1 -7 3 119.99 11.8
-1 -7 3 110.19 11.8
-1 7 3 102.09 12.8
1 7 -3 131.99 13
-1 7 3 132.79 14.2
1 7 -3 128.09 14.2
3 -7 3 -4.2 8.7
-3 -7 -3 -1.3 6.6
-3 -7 -3 3.4 6.3
3 -7 3 -7.5 7.4
3 7 3 5.7 6.3
-3 7 -3 1.2 7.1
3 7 3 6.7 7.5
-3 7 -3 -1.4 6.9
-5 -7 -3 115.29 10.1
-5 -7 -3 97.49 11.2
5 -7 3 102.49 12.1
-5 7 -3 98.49 11.6
-5 7 -3 101.79 11.1
5 7 3 123.59 10.2
-7 -7 -3 56.79 7.2
7 -7 3 59.69 10.9
-7 7 -3 48.8 10.1
7 7 3 77.39 6.6
-7 7 -3 60.69 9.5
9 -7 3 78.19 11.4
-9 7 -3 47.1 9.4
-9 7 -3 57.79 10.5
11 -7 3 271.67 23.7
-11 7 -3 277.37 21.7
-11 7 -3 283.07 23.5
-13 7 -3 24.2 9.1
-15 7 -3 1059.49 65.19
-16 8 3 -13.6 9.6
-14 8 3 20 10.3
-12 8 3 675.03 46
10 -8 -3 1.2 10.6
-10 8 3 17.8 12
-10 8 3 7.8 9.8
8 -8 -3 90.29 13.8
-8 -8 3 110.99 10.7
-8 8 3 91.29 14.5
8 8 -3 118.09 10.3
-8 8 3 124.09 14.1
6 -8 -3 2011.5 114.09
-6 -8 3 1825.42 111.89
-6 -8 3 1846.72 112.19
-6 8 3 1935.31 114.29
6 8 -3 1902.21 112.09
-6 8 3 1861.01 113.79
4 -8 -3 872.21 53.89
-4 -8 3 829.72 52.39
-4 -8 3 793.92 51.79
4 -8 -3 870.61 54.09
-4 8 3 950.8 54.59
-4 8 3 860.01 53.59
4 8 -3 847.22 52.19
2 -8 -3 633.74 40.4
-2 -8 3 617.04 38.6
2 -8 -3 645.04 40.6
-2 -8 3 641.94 39.5
-2 8 3 615.24 39.8
2 8 -3 605.84 39.4
-2 8 3 663.83 41
2 8 -3 561.84 38.7
-2 -8 -3 37 8
-2 -8 -3 42.7 8.9
2 -8 3 45 9.9
2 -8 3 30.7 9.5
-2 8 -3 33.9 8.2
2 8 3 39.7 8.4
-2 8 -3 40.7 8.8
2 8 3 42.5 9.2
-4 -8 -3 10.2 6.4
4 -8 3 23.8 9.2
-4 -8 -3 17.1 7.4
4 -8 3 7.5 9.2
-4 8 -3 21 7.8
-4 8 -3 15.9 8
4 8 3 13.9 7.5
-6 -8 -3 1465.65 79.19
-6 -8 -3 1375.56 78.79
6 -8 3 1345.87 80.79
-6 8 -3 1268.17 80.49
-6 8 -3 1147.69 79.69
8 -8 3 311.47 25.7
-8 8 -3 324.37 24.2
-8 8 -3 345.57 25.3
10 -8 3 108.39 14.2
-10 8 -3 92.09 12.2
-10 8 -3 105.19 14
-12 8 -3 4.6 8.8
-14 8 -3 1053.99 65.09
-16 8 -3 8.9 9.7
-15 9 3 71.89 12.7
-11 9 3 29.3 13.1
-9 -9 3 107.99 10.8
-9 -9 3 93.99 10.1
9 -9 -3 93.79 14.6
-9 9 3 93.99 14.2
-9 9 3 85.69 14.7
7 -9 -3 14.5 10.3
-7 -9 3 14.9 7.5
-7 9 3 -4 11
-7 9 3 6.9 9
7 9 -3 22.5 6.9
5 -9 -3 183.98 17.2
-5 -9 3 167.78 16.1
-5 9 3 168.88 17.8
5 9 -3 181.98 15.1
-5 9 3 181.38 16.6
-1 -9 3 -0.8 8.5
1 -9 -3 4 8.8
1 -9 -3 7.6 8.4
-1 9 3 3.2 7.3
1 9 -3 -0.1 8.2
-1 9 3 3.1 9.6
1 9 -3 10.3 7.4
1 -9 3 1039.8 64.29
-1 -9 -3 1016.4 63.89
1 -9 3 1175.18 64.69
-1 -9 -3 1118.29 64.19
-1 9 -3 1021.4 63.99
1 9 3 1043.7 64.39
1 9 3 977.2 63.79
-1 9 -3 957 63.49
-3 -9 -3 100.79 11.1
3 -9 3 100.99 13.2
3 -9 3 72.09 12.2
-3 -9 -3 126.39 12
3 9 3 111.89 11.2
-3 9 -3 63.69 10.6
-3 9 -3 100.09 11.5
3 9 3 128.29 12.4
-5 -9 -3 16.8 7.3
5 -9 3 15.9 9.5
-5 -9 -3 24.8 7.4
-5 9 -3 20.5 8.7
-5 9 -3 -2.2 7.6
5 9 3 18.6 8
-7 -9 -3 559.74 34.5
-7 -9 -3 572.44 34.1
7 -9 3 546.65 37.2
7 9 3 521.35 33.5
-7 9 -3 562.64 36.9
-7 9 -3 480.55 35.6
9 -9 3 190.08 17.2
-9 9 -3 139.09 14.9
-9 9 -3 141.99 16.3
-11 9 -3 761.32 48.8
-13 9 -3 -11.7 8.9
-15 9 -3 26.2 10.7
-14 10 3 211.78 21.2
-10 -10 3 -5.2 7.2
-10 -10 3 -5.8 7.7
-10 10 3 2 12.8
8 -10 -3 52.49 13.4
-8 -10 3 72.69 10.1
-8 -10 3 78.89 10.3
-8 10 3 55.89 13.7
-8 10 3 86.79 13.7
8 10 -3 86.59 9.7
-6 -10 3 -8.1 7.5
-6 -10 3 3.5 7.5
6 -10 -3 -9.3 9.5
-6 10 3 -1.5 9
6 10 -3 -1.1 6.8
-6 10 3 6.9 11.2
0 -10 3 268.17 20.3
0 -10 3 208.68 20
0 -10 -3 208.88 20
0 -10 -3 251.67 19.9
0 10 -3 171.58 18.2
0 10 -3 199.68 19.3
0 10 3 200.48 19.1
0 10 3 237.48 21.3
2 -10 3 123.89 14.3
-2 -10 -3 122.69 12.8
2 -10 3 135.19 14
-2 -10 -3 109.69 12.4
-2 10 -3 115.59 13.1
-2 10 -3 117.29 12.3
2 10 3 129.59 13.4
2 10 3 107.19 12.5
4 -10 3 408.16 28.8
-4 -10 -3 352.36 26.6
4 -10 3 404.36 33.7
-4 -10 -3 351.46 26.9
-4 10 -3 414.26 27.3
4 10 3 350.46 27.3
-4 10 -3 422.66 28.2
6 -10 3 9.9 9.7
-6 -10 -3 2.7 7.3
-6 -10 -3 7.3 7.3
-6 10 -3 -2 8
-6 10 -3 17.7 9.5
-8 -10 -3 311.97 21.6
8 -10 3 290.47 25.9
-8 -10 -3 299.77 22.1
-8 10 -3 320.67 25.4
-8 10 -3 306.77 24
-10 10 -3 3.7 16.9
-10 10 -3 -5.2 9.7
-12 10 -3 553.94 37.6
-14 10 -3 78.59 12.6
-15 11 3 39.7 12.2
-11 -11 3 -1.8 7.3
-11 11 3 11.3 13.8
-9 -11 3 -6.6 8.1
9 -11 -3 2.4 12.4
-9 -11 3 2.1 8.3
-9 11 3 -11.6 12.9
-9 11 3 -16.5 10.6
-7 -11 3 309.57 24.4
7 -11 -3 421.76 28.9
-7 -11 3 301.47 24.6
7 11 -3 381.36 24
-7 11 3 279.17 28.9
-7 11 3 327.17 27.1
5 -11 -3 292.47 24.4
-5 -11 3 265.17 21.5
-5 -11 3 257.87 21
5 11 -3 259.47 20
-5 11 3 247.78 22.8
-5 11 3 254.17 25.2
3 -11 -3 2045.1 121.09
3 -11 -3 1981.9 120.89
-3 -11 3 2033.6 120.39
-3 -11 3 1918.31 119.79
-3 11 3 2025.8 121.29
-3 11 3 2139.29 120.89
3 11 -3 1900.91 119.39
-1 -11 3 161.88 17.7
1 -11 -3 197.78 18.7
-1 -11 3 139.59 14.8
1 -11 -3 159.78 16.7
-1 11 3 147.99 16.5
1 11 -3 143.69 14.9
-1 11 3 187.68 20.1
1 11 -3 142.49 15.7
1 -11 3 418.76 30.6
-1 -11 -3 432.56 30.2
1 -11 3 455.85 31
-1 -11 -3 437.76 30.3
-1 11 -3 370.26 29
1 11 3 410.96 29.7
-1 11 -3 419.66 29.8
1 11 3 443.26 31
3 -11 3 21.5 10
-3 -11 -3 27.3 9.3
-3 -11 -3 17.4 8.6
3 -11 3 21.7 11
3 11 3 24.2 9.8
-3 11 -3 5.2 8.2
-3 11 -3 12.7 9
5 -11 3 160.98 16.3
-5 -11 -3 180.58 15.4
-5 -11 -3 165.38 14.9
-5 11 -3 108.79 14.4
5 11 3 165.38 15.1
-5 11 -3 144.99 15.7
-7 -11 -3 579.14 37.2
7 -11 3 529.35 39.6
-7 -11 -3 592.74 36.6
7 11 3 564.54 35.9
-7 11 -3 557.64 39.2
-7 11 -3 572.14 38.2
-9 -11 -3 39.1 8.9
9 -11 3 38.7 12.8
-9 -11 -3 36.3 7.8
-9 11 -3 22 10.6
-9 11 -3 34.5 12.2
-11 11 -3 11 10.6
-13 11 -3 41.1 11.2
-15 11 -3 228.68 22
-14 12 3 89.69 14.5
-10 -12 3 36.5 9.4
-10 -12 3 25.9 9
-10 12 3 10.7 14.2
-8 -12 3 17.9 9.1
-8 -12 3 14.6 9.4
8 -12 -3 36.5 13.3
8 12 -3 26.5 8.5
-8 12 3 14.6 10.9
-8 12 3 4.1 13.4
-6 -12 3 1890.01 106.79
-6 -12 3 1686.23 106.99
6 -12 -3 1846.12 108.89
6 12 -3 1824.92 106.49
-6 12 3 1602.94 108.49
-6 12 3 1819.92 108.59
4 -12 -3 900.51 59.89
-4 -12 3 1026 58.99
-4 -12 3 944.91 58.39
4 12 -3 881.81 57.49
-4 12 3 935.51 60.59
-4 12 3 918.71 59.39
-2 -12 3 936.91 55.69
-2 -12 3 810.12 54.99
2 -12 -3 954.4 56.29
2 -12 -3 835.62 55.79
-2 12 3 867.31 56.39
-2 12 3 838.82 55.29
0 -12 3 4932.81 284.07
0 -12 -3 4603.04 283.67
0 -12 -3 4998.2 284.07
0 -12 3 4578.34 283.57
0 12 -3 4974.4 283.87
0 12 3 4900.41 283.77
0 12 -3 4733.13 283.17
0 12 3 4759.72 283.87
-2 -12 -3 -4.2 9.3
2 -12 3 -11.4 9.2
-2 -12 -3 -5.4 8.5
2 -12 3 5.6 10.1
-2 12 -3 1.6 8.6
-2 12 -3 -0.7 8.1
2 12 3 -2.5 9.8
-4 -12 -3 361.46 28.2
-4 -12 -3 357.36 27.8
4 -12 3 396.66 29.9
-4 12 -3 425.56 29.2
4 12 3 402.36 28.7
-4 12 -3 366.26 28.1
6 -12 3 113.39 15.2
-6 -12 -3 106.99 12.5
-6 -12 -3 111.59 12
-6 12 -3 81.39 13.8
-6 12 -3 79.39 12.5
6 12 3 97.89 10.8
-8 -12 -3 107.89 12.1
8 -12 3 103.39 15.7
-8 -12 -3 97.39 12.7
8 12 3 129.59 11.3
-8 12 -3 97.79 15.4
-8 12 -3 101.09 13.9
-10 -12 -3 240.98 17.9
-10 -12 -3 237.38 19.2
-10 12 -3 194.88 21.9
-12 12 -3 4.7 10.3
-14 12 -3 809.12 52.49
-13 13 3 661.43 45.3
-11 -13 3 80.39 11.3
-11 -13 3 72.89 10.7
-11 13 3 40.5 15.5
-9 -13 3 52.59 10.2
-9 -13 3 61.49 11.3
-9 13 3 27.8 14.9
-7 -13 3 689.23 45.1
-7 -13 3 641.94 45.6
7 -13 -3 779.62 48.9
-7 13 3 751.52 48
-7 13 3 635.04 48.5
7 13 -3 720.53 44.6
5 -13 -3 9.8 11.8
-5 -13 3 13.8 9.7
-5 -13 3 3.9 9.5
-5 13 3 7.6 13.1
5 13 -3 12 8.1
-5 13 3 23.6 10.7
-3 -13 3 3271.37 182.58
3 -13 -3 3019.5 182.88
-3 -13 3 3028.3 181.78
3 -13 -3 3194.68 183.18
-3 13 3 2935.21 182.58
3 13 -3 2755.22 181.28
-3 13 3 3260.77 183.28
1 -13 -3 124.69 15.6
-1 -13 3 107.89 14.8
1 -13 -3 116.69 15.6
-1 -13 3 122.39 14.4
-1 13 3 106.89 15.2
-1 13 3 140.99 15.1
1 13 -3 136.29 13.7
1 -13 3 1700.03 101.39
-1 -13 -3 1633.14 101.39
1 -13 3 1677.13 101.69
-1 -13 -3 1681.23 101.19
-1 13 -3 1702.23 100.69
1 13 3 1573.14 101.29
-1 13 -3 1677.73 101.19
3 -13 3 20.8 11.9
3 -13 3 26.8 11.4
-3 -13 -3 42.1 10.6
-3 -13 -3 38.9 10.9
-3 13 -3 37.5 10.7
-3 13 -3 37.5 9.8
3 13 3 26.9 11
-5 -13 -3 35.5 9.6
-5 -13 -3 27.5 9.9
5 -13 3 18 11.4
-5 13 -3 19.6 11.2
-5 13 -3 13.3 9.8
-7 -13 -3 1441.96 84.59
7 -13 3 1390.56 87.19
-7 -13 -3 1363.76 85.09
-7 13 -3 1418.56 87.09
7 13 3 1457.15 84.19
-7 13 -3 1298.57 85.59
-9 -13 -3 70.09 10.6
-9 -13 -3 70.19 11.5
-9 13 -3 72.79 12.9
-11 -13 -3 137.79 15.5
-11 -13 -3 141.39 12.8
-11 13 -3 163.28 17.2
-13 13 -3 27.5 12.2
-14 14 3 319.87 28.2
-12 -14 3 359.46 27.1
-12 -14 3 397.86 27.7
-10 -14 3 3.6 9.4
-10 -14 3 4.2 9.7
-10 14 3 2.3 14.4
-8 -14 3 6.8 10
-8 -14 3 14.9 10.4
8 -14 -3 15.9 13.9
8 14 -3 12.3 9.2
-8 14 3 16.7 14.1
-6 -14 3 495.95 33.1
6 -14 -3 418.66 35.6
-6 -14 3 489.25 32.4
-6 14 3 445.36 34.6
-6 14 3 501.05 36.9
6 14 -3 375.26 30.8
-4 -14 3 337.27 25.9
-4 -14 3 290.47 24.9
4 -14 -3 299.87 27.7
-4 14 3 292.27 26
-4 14 3 324.57 28.7
4 14 -3 271.27 23.2
2 -14 -3 66.99 13.4
2 -14 -3 89.19 14.1
-2 -14 3 77.39 13.3
-2 -14 3 68.59 13.4
-2 14 3 71.29 14.7
-2 14 3 73.19 12.8
2 14 -3 97.09 11.8
0 -14 3 245.38 23.5
0 -14 -3 221.58 23.1
0 -14 3 202.28 23.3
0 -14 -3 230.78 23.2
0 14 3 272.17 24.8
0 14 -3 218.78 23
-2 -14 -3 -7.8 10
2 -14 3 7.6 11.2
-2 -14 -3 -2.1 10.8
2 -14 3 16.8 11.1
-2 14 -3 -2.8 9.4
-2 14 -3 -12.6 9
2 14 3 -8.5 11.1
-4 -14 -3 22.7 10.1
4 -14 3 7.3 11
-4 -14 -3 14 10.5
-4 14 -3 18.8 9.6
4 14 3 2.6 11
-4 14 -3 29.6 11.4
-6 -14 -3 1028.4 63.19
6 -14 3 1006.4 65.59
-6 -14 -3 1076.39 63.89
-6 14 -3 1080.99 65.59
6 14 3 960.8 62.29
-6 14 -3 944.41 63.79
8 -14 3 978.8 63.99
-8 -14 -3 919.41 61.19
-8 -14 -3 944.41 60.39
-8 14 -3 1047.1 62.19
8 14 3 978.9 59.79
-10 -14 -3 52.49 10.9
-10 -14 -3 51.29 9.9
-10 14 -3 44.5 12.5
-12 14 -3 241.88 23.8
-14 14 -3 167.98 18.3
-13 15 3 173.38 19.4
-11 -15 3 90.89 12.9
-9 -15 3 42.6 11.3
-9 -15 3 39.7 11.9
-9 15 3 48.4 16.7
7 -15 -3 1062.49 68.69
-7 -15 3 1034.7 66.09
-7 -15 3 994.5 65.19
-7 15 3 1031.6 68.79
7 15 -3 1068.39 64.99
-7 15 3 1087.29 68.19
5 -15 -3 203.38 21.8
-5 -15 3 275.97 23.4
-5 -15 3 243.58 22.4
5 15 -3 214.08 20.1
-5 15 3 211.18 24
-5 15 3 219.28 22.8
-3 -15 3 99.19 15.4
-3 -15 3 147.49 15.6
3 -15 -3 80.29 16.1
3 -15 -3 137.59 16.9
-3 15 3 95.49 16.8
3 15 -3 171.28 17.2
-3 15 3 143.99 16.1
-1 -15 3 259.17 24.2
1 -15 -3 238.08 24.7
1 -15 -3 224.88 24
-1 -15 3 213.58 23.4
1 15 -3 249.97 21.6
-1 15 3 229.98 22.8
-1 15 3 228.28 25.1
1 -15 3 520.95 37.1
1 -15 3 514.15 37.1
-1 -15 -3 504.95 36.6
-1 -15 -3 507.85 37.1
-1 15 -3 416.76 35.1
-1 15 -3 571.74 36.9
1 15 3 506.65 37.6
-3 -15 -3 187.58 17.8
3 -15 3 151.78 18
-3 -15 -3 163.38 17.4
-3 15 -3 146.89 16.3
-3 15 -3 131.89 17.4
3 15 3 153.18 18.2
-5 -15 -3 297.17 23.9
-5 -15 -3 267.97 25
5 -15 3 237.38 26.4
-5 15 -3 248.08 24.3
-5 15 -3 304.17 26.3
7 -15 3 67.49 15.4
-7 -15 -3 72.79 12.8
-7 -15 -3 64.89 11.9
-7 15 -3 54.29 14
-7 15 -3 27.4 12.3
7 15 3 48.3 10.5
-9 -15 -3 55.49 11.4
-9 -15 -3 61.99 12.7
-9 15 -3 70.09 13.7
-11 -15 -3 482.35 34.5
-11 -15 -3 481.25 36
-11 15 -3 648.54 38.7
-13 15 -3 71.19 14.4
-14 16 3 23.8 13.4
-12 -16 3 17.2 10.6
-10 -16 3 1349.66 80.99
-10 16 3 1288.67 85.19
-8 -16 3 -0.6 11.1
-8 -16 3 -5.2 10.3
-8 16 3 1.6 14.8
6 -16 -3 1256.67 80.89
-6 -16 3 1227.58 78.09
-6 -16 3 1218.08 78.99
6 16 -3 1367.16 77.89
-6 16 3 1317.67 80.59
-6 16 3 1182.58 80.99
4 -16 -3 762.42 53.29
-4 -16 3 752.92 51.49
-4 -16 3 875.31 52.69
4 16 -3 700.93 50.39
-4 16 3 827.82 54.39
-4 16 3 802.52 52.89
2 -16 -3 796.62 52.89
2 -16 -3 827.72 53.39
-2 -16 3 764.32 51.69
-2 -16 3 793.32 52.29
2 16 -3 688.53 50.19
-2 16 3 830.72 52.19
-2 16 3 790.72 53.59
0 -16 3 651.43 43.9
0 -16 3 618.64 44.5
0 -16 -3 679.03 44.7
0 -16 -3 644.64 44.3
0 16 -3 611.04 42.4
0 16 3 579.44 44.7
-2 -16 -3 -8.8 11.1
2 -16 3 -7.8 12.4
2 -16 3 -8.2 11.9
-2 -16 -3 -3.4 11.4
-2 16 -3 7 10.4
2 16 3 -6.7 12
-2 16 -3 2.4 10.4
-4 -16 -3 2815.12 170.18
-4 -16 -3 2753.62 169.18
4 -16 3 2743.43 170.48
-4 16 -3 2917.21 170.78
-4 16 -3 2954.4 169.68
-6 -16 -3 -7.1 10.1
-6 -16 -3 10.6 11.2
6 -16 3 -16.9 13
-6 16 -3 -0.9 11.1
6 16 3 -2.8 9
-6 16 -3 -15.5 11.1
-8 -16 -3 62.89 13.3
-8 -16 -3 44.7 11.9
-8 16 -3 75.59 14.2
-10 -16 -3 163.08 18.6
-10 16 -3 183.38 19.8
-12 -16 -3 1.7 9
-12 16 -3 5 11.9
-14 16 -3 244.88 26.7
-13 -17 3 149.29 15.9
-13 17 3 175.88 20.4
-11 -17 3 48.8 12.2
-9 -17 3 33.3 11.6
-9 17 3 -5.9 16.1
-7 -17 3 21 11.6
-7 17 3 10.7 15.7
-5 -17 3 21.2 12.7
5 -17 -3 12.8 14.3
-5 -17 3 22.5 11.5
5 17 -3 8.4 10.1
-5 17 3 10.8 15
-5 17 3 19.8 12.8
3 -17 -3 3285.27 196.48
-3 -17 3 3315.67 196.18
-3 -17 3 3169.58 195.18
3 17 -3 3431.96 194.98
-3 17 3 3079.79 196.48
-3 17 3 3362.66 196.48
-1 -17 3 34 13.3
1 -17 -3 25.5 13.5
-1 -17 3 24.8 12.6
1 -17 -3 2.1 12.8
-1 17 3 19.9 13.6
1 17 -3 1.2 10.1
-1 -17 -3 52.99 13.7
-1 -17 -3 60.59 14.6
1 -17 3 49.8 14.3
1 -17 3 59.49 14.9
1 17 3 99.39 15.7
-1 17 -3 44.7 12.2
-3 -17 -3 65.09 13.6
3 -17 3 50.29 15
-3 -17 -3 71.89 14.6
3 17 3 67.89 15
-3 17 -3 65.49 13.4
-3 17 -3 96.29 16.2
-5 -17 -3 154.98 18.9
5 -17 3 163.38 20.7
-5 -17 -3 154.78 17.9
5 17 3 191.68 19.3
-5 17 -3 196.88 20.7
-5 17 -3 147.79 17.7
-7 -17 -3 599.44 42.2
-7 17 -3 644.14 43.9
-9 -17 -3 51.29 12.1
-9 17 -3 38.6 13.8
-11 -17 -3 41 11.5
-11 17 -3 20.2 13.3
-13 17 -3 6.6 13.1
-14 -18 3 181.88 17.3
-12 -18 3 216.18 22.4
-12 18 3 268.57 26.7
-10 -18 3 740.13 48.8
-8 -18 3 -0.2 11.6
-8 18 3 -0.2 15.7
6 -18 -3 12.7 15.1
-6 -18 3 5.9 11.7
-6 18 3 6 15
-4 -18 3 0.2 13
4 -18 -3 25.3 14.3
-4 -18 3 23.1 12.4
4 18 -3 22.9 11.6
-4 18 3 62.99 14.4
-4 18 3 31.1 15.9
2 -18 -3 -1.1 12.5
-2 -18 3 -3.4 13.1
2 -18 -3 10 13.4
-2 -18 3 23.1 12.7
-2 18 3 14.7 14.9
2 18 -3 13.7 10.6
0 -18 -3 -2.7 12.4
0 -18 -3 8.7 12.8
0 -18 3 3.2 13.7
0 -18 3 -17.2 12.5
0 18 3 4.7 13.5
0 18 -3 -22.6 10.6
-2 -18 -3 -1.4 12.5
2 -18 3 15.4 13.7
2 -18 3 -1.3 12.8
-2 -18 -3 -5 12.2
-2 18 -3 1.1 11.1
2 18 3 -0.1 13.9
4 -18 3 1136.89 73.39
-4 -18 -3 1097.29 71.29
-4 -18 -3 1203.18 72.99
-4 18 -3 1017.6 71.19
-4 18 -3 1194.88 73.09
-6 -18 -3 388.86 32.4
6 -18 3 435.76 37.2
-6 18 -3 453.75 34.1
-8 -18 -3 613.14 44.4
-8 18 -3 709.23 46.4
-10 -18 -3 63.99 12.9
-10 18 -3 31.8 14.9
-12 -18 -3 8.6 10.6
-12 18 -3 2.2 13.1
-13 -19 3 51.39 12.7
-13 19 3 96.19 17.2
-11 -19 3 264.97 24.7
-9 -19 3 78.09 14.4
-7 -19 3 0.4 12.4
-7 19 3 0.7 16.2
5 -19 -3 112.19 19.8
-5 -19 3 100.19 16.3
-5 19 3 114.19 20.1
3 -19 -3 35.1 15
-3 -19 3 55.69 15.5
-3 -19 3 51.39 13.8
3 19 -3 73.19 13.4
-3 19 3 30.1 16
1 -19 -3 111.59 17.5
-1 -19 3 113.89 16.7
1 -19 -3 109.69 17.9
-1 -19 3 141.79 19.4
1 19 -3 94.79 15.3
-1 19 3 75.69 18.3
-1 -19 -3 4 12.7
-1 -19 -3 26.4 14.3
1 -19 3 1.4 14.8
1 -19 3 24.8 14
1 19 3 -5.3 14.2
-1 19 -3 21.4 12.2
3 -19 3 516.85 41.9
-3 -19 -3 612.34 45.3
-3 -19 -3 529.25 39.9
-3 19 -3 535.25 39.7
-5 -19 -3 198.18 20.8
5 -19 3 215.78 24.2
-5 19 -3 208.78 21.5
-7 -19 -3 250.77 25.9
-7 19 -3 296.97 27.7
-9 -19 -3 6 11.5
-9 19 -3 0.6 13.1
-11 -19 -3 189.68 22.1
-11 19 -3 267.87 26.3
-13 -19 -3 10.2 10.9
-13 19 -3 -2.6 14.1
-12 -20 3 241.78 24.4
-12 20 3 248.48 25.2
-10 -20 3 18.2 12.7
-8 -20 3 -22.5 12.2
-6 -20 3 8.4 12.7
-6 20 3 -28.7 16
4 -20 -3 1.8 14.2
-4 -20 3 -1.1 12.6
-4 20 3 -9.8 15
-2 -20 3 31.7 14
2 -20 -3 17.1 14.2
-2 20 3 11.3 15.5
2 20 -3 4.3 11.8
0 -20 3 18.8 16.3
0 -20 -3 16.8 14.1
0 -20 -3 22 13.9
0 -20 3 3.6 14.2
0 20 -3 -16.7 13.1
0 20 3 43.8 16.5
2 -20 3 14.6 14.1
-2 -20 -3 -1.3 12.9
-2 20 -3 -2.6 11.8
4 -20 3 6.8 15
-4 -20 -3 -0.2 12.6
-4 20 -3 8.9 12.2
-4 20 -3 -0.8 20.4
-6 -20 -3 693.13 47.9
-6 20 -3 692.13 48.4
-8 -20 -3 1067.39 69.19
-8 20 -3 1107.99 70.69
-10 -20 -3 -3.7 12
-10 20 -3 14 13.7
-12 -20 -3 36.9 12.1
-12 20 -3 37.6 15.5
-11 -21 3 27.5 13.2
-11 21 3 35.6 15.6
-9 -21 3 10.6 13
-7 -21 3 245.08 26.4
-5 -21 3 217.88 22.3
5 -21 -3 215.58 25.7
-5 21 3 165.48 25.1
-3 -21 3 740.63 51.49
3 -21 -3 772.72 53.69
-3 21 3 704.03 54.49
1 -21 -3 114.69 19
-1 -21 3 105.09 17.8
1 -21 -3 151.88 26.1
1 21 -3 64.19 16.3
-1 21 3 152.78 20.9
1 -21 3 599.94 46.7
1 -21 3 606.04 48.5
-1 -21 -3 681.23 46.5
-1 21 -3 639.64 45.4
-3 -21 -3 67.29 15.6
3 -21 3 54.09 17.1
-3 21 -3 51.49 14.4
-5 -21 -3 -11.2 12.8
-5 21 -3 -2.7 12.6
-7 -21 -3 2059.59 128.69
-7 21 -3 2182.28 129.89
-9 -21 -3 60.19 14.6
-9 21 -3 6.9 14.2
-11 -21 -3 27.3 13.6
-11 21 -3 53.29 16.2
-12 22 3 32.9 15.8
-10 -22 3 227.18 25.9
-10 22 3 262.97 28.7
-8 -22 3 7.9 13.8
-6 -22 3 -0.5 13.8
-4 -22 3 114.39 17.8
4 -22 -3 77.69 19.2
-4 22 3 109.49 21.2
2 -22 -3 151.98 21.1
-2 -22 3 108.69 18.4
-2 22 3 111.09 21.5
0 -22 3 25.7 15
0 -22 -3 29.1 14.6
0 22 -3 11.2 14.6
-2 -22 -3 -4 14.1
2 -22 3 16 15.7
-2 22 -3 -3.9 13
4 -22 3 745.43 54.59
-4 -22 -3 721.93 51.39
-4 22 -3 740.23 51.69
-6 -22 -3 12.8 13.8
-6 22 -3 -4 13.3
-8 -22 -3 457.65 36.4
-8 22 -3 462.55 37.7
-10 -22 -3 142.59 17.7
-10 22 -3 94.39 18.6
-12 22 -3 -29.9 14.3
-11 23 3 614.54 46.7
-9 -23 3 296.17 30.4
-9 23 3 362.86 32.4
-7 -23 3 6.7 14.2
-5 -23 3 -5.4 14.5
-3 -23 3 40.1 15.9
3 -23 -3 46.4 18.3
-1 -23 3 2.4 14.5
1 -23 -3 2.1 15
-1 -23 -3 49.2 16.4
1 -23 3 36.4 16.4
3 -23 3 485.05 43
-3 -23 -3 447.46 39.7
-3 23 -3 552.44 40.3
-5 -23 -3 561.64 44.9
-5 23 -3 675.13 46.6
-7 -23 -3 36.8 15
-7 23 -3 70.19 16.4
-9 -23 -3 42.3 14.9
-9 23 -3 26.5 16.1
-11 23 -3 185.68 23.4
-10 24 3 557.54 44
-8 -24 3 4.2 14.7
-8 24 3 19.2 15
-6 -24 3 124.59 19.7
-4 -24 3 111.19 19.8
2 -24 -3 36.8 17.6
-2 -24 3 23.8 15.9
0 -24 3 180.38 22.6
0 -24 -3 162.68 22.5
-2 -24 -3 -11.3 14.3
2 -24 3 21.2 17
-4 -24 -3 1040.9 69.19
-6 -24 -3 -3.9 14.5
-6 24 -3 18.6 15.8
-8 -24 -3 -5.6 13.9
-8 24 -3 -12.7 14.7
-10 24 -3 204.48 25.4
-11 25 3 19.1 16.8
-9 -25 3 38.2 16.4
-9 25 3 39.1 16.9
-7 -25 3 9.1 15.6
-7 25 3 -4.8 15.3
-5 -25 3 5.5 16
-3 -25 3 210.08 24.3
3 -25 -3 194.98 25.5
1 -25 -3 17 17
-1 -25 3 -12.1 15.6
-1 -25 -3 28.3 16.2
1 -25 3 54.39 18.4
-3 -25 -3 15.7 15.7
3 -25 3 -28.2 22.6
-5 -25 -3 15.7 16.5
-5 25 -3 22.2 15.7
-7 -25 -3 147.09 21
-7 25 -3 140.59 20.9
-9 -25 -3 68.09 19
-9 25 -3 36.9 17.6
-11 25 -3 83.39 19.2
-10 26 3 56.49 19
-8 -26 3 57.19 17.9
-8 26 3 114.69 20.1
-6 -26 3 256.57 28.1
-6 26 3 342.57 32.6
-4 -26 3 14.2 16.8
2 -26 -3 4.6 17.6
-2 -26 3 -18.7 15.4
0 -26 3 405.76 40.1
0 -26 -3 463.15 40.2
2 -26 3 74.49 21.4
-2 -26 -3 86.39 20
-4 -26 -3 192.08 24.7
-6 -26 -3 22.5 16.2
-6 26 -3 6 16.5
-8 -26 -3 71.69 18.1
-8 26 -3 128.49 21.6
-10 26 -3 41.8 17.4
-9 27 3 -9.9 16.8
-7 -27 3 370.96 35.6
-5 -27 3 119.29 21.5
-3 -27 3 27.8 17.3
1 -27 -3 177.58 24.5
-1 -27 3 137.99 23.2
-1 -27 -3 318.97 36.4
1 -27 3 401.06 38.7
-3 -27 -3 35.9 17.5
-5 -27 -3 -10.3 16.8
-7 -27 -3 71.79 18.4
-7 27 -3 51.89 19.4
-9 27 -3 13.8 17.1
-10 28 3 9.9 17.6
-6 -28 3 125.69 21.9
-4 -28 3 72.29 20
-2 -28 3 130.49 22.2
0 -28 -3 233.68 28.4
0 -28 3 239.88 29
-2 -28 -3 -11.6 17.1
-4 -28 -3 64.99 19.7
-6 -28 -3 97.19 20.5
-10 28 -3 22.5 18.5
-5 -29 3 -14.6 17.4
-3 -29 3 1469.85 95.69
1 -29 -3 -5.9 19
-1 -29 3 -14.7 17.8
1 -29 3 45 26.5
-1 -29 -3 87.49 21.6
-3 -29 -3 16.5 18.5
-5 -29 -3 50.29 19.4
-4 -30 3 149.69 24.3
-2 -30 3 152.78 25
0 -30 3 17.9 19.9
0 -30 -3 13 20
-2 -30 -3 13.9 19.4
-4 -30 -3 -35.1 17.3
-1 -31 3 36.5 20.9
-1 -31 -3 10.5 19.9
-3 -31 -3 -8.5 18.5
-2 -32 3 145.29 25.9
-2 -32 -3 0.7 20.3
-1 -33 -3 8 21.1
-2 -34 3 14.3 31.7
-12 0 4 331.47 22.7
-12 0 4 328.47 23.3
-10 0 4 201.38 15.3
-10 0 4 162.48 16.3
-8 0 4 627.84 41.7
8 0 -4 718.63 42
-8 0 4 699.83 42.2
4 0 -4 186.98 14.3
4 0 -4 183.98 14.3
-4 0 4 199.88 14.5
-4 0 4 143.09 13.6
2 0 -4 28.4 6.5
-2 0 4 29.1 6.7
-2 0 4 30.5 5.9
2 0 -4 35.2 6.4
-2 0 -4 1551.84 91.19
2 0 4 1542.85 91.19
-4 0 -4 1.7 4.2
4 0 4 7.4 4.2
4 0 4 7.1 4.9
-4 0 -4 7.5 4.6
-13 1 4 898.81 54.99
-11 1 4 67.29 9.5
-11 1 4 54.09 9.9
-9 -1 4 29.4 6.5
9 -1 -4 29.7 7.7
-9 -1 4 24.8 7.2
-9 1 4 28.1 8.2
9 1 -4 28.9 8.7
-9 1 4 29.6 7.4
-7 -1 4 159.68 13.7
-7 -1 4 160.78 12.5
7 -1 -4 144.49 14.1
7 1 -4 161.28 13.3
-7 1 4 151.98 14.7
-7 1 4 152.78 13.5
3 1 -4 -0.8 1.8
1 -1 -4 1288.47 75.89
-1 -1 4 1357.46 75.89
-1 -1 4 1225.08 75.69
1 -1 -4 1210.28 75.79
-1 1 4 1438.96 75.99
1 1 -4 1214.48 75.69
-1 1 4 1225.38 75.79
-1 -1 -4 591.64 33.1
-1 -1 -4 503.45 32.9
1 -1 4 553.04 33.1
1 -1 4 526.35 33
1 1 4 531.75 32.9
-1 1 -4 510.35 33
1 1 4 555.54 33.1
-1 1 -4 574.14 33.1
3 -1 4 70.89 6.4
5 -1 4 57.19 6.1
5 -1 4 55.99 6.8
-5 1 -4 51.19 6.3
5 1 4 41.5 5.7
-5 1 -4 43.6 6
-9 1 -4 0.5 5.5
-9 1 -4 9.6 5.2
-14 2 4 158.68 16.2
-14 2 4 156.38 14.4
-12 2 4 162.08 16.3
-12 2 4 162.88 17.2
10 -2 -4 507.35 34.1
-10 2 4 514.95 34.7
-10 2 4 546.95 34.1
8 -2 -4 301.37 21.1
-8 -2 4 294.27 20
-8 -2 4 275.17 19.2
-8 2 4 326.27 22.1
8 2 -4 298.67 19.8
-8 2 4 262.67 20.7
-6 -2 4 247.18 16.3
-6 -2 4 253.67 17.2
6 -2 -4 209.88 18.2
6 2 -4 250.97 16.8
-6 2 4 224.18 18.8
-6 2 4 239.08 17.7
4 -2 -4 238.08 17.8
-4 -2 4 228.18 16.6
4 -2 -4 238.78 17.7
-4 -2 4 218.08 15.8
-4 2 4 219.88 17.1
4 2 -4 214.68 16.4
4 2 -4 251.27 16.7
-4 2 4 240.88 18
0 -2 -4 33.6 6
0 -2 -4 33 5.7
0 -2 4 19.4 5.6
0 -2 4 26.8 5
0 2 -4 30.6 5.6
0 2 -4 21.7 5.2
0 2 4 31.5 5.6
0 2 4 37 6.3
2 -2 4 576.24 38.7
2 -2 4 694.43 39.2
-2 -2 -4 577.34 38.5
-2 -2 -4 662.43 38.6
-2 2 -4 612.14 38.7
-2 2 -4 637.54 39
2 2 4 683.03 38.7
4 -2 4 1.6 2.6
6 -2 4 96.69 9
-6 2 -4 87.39 8.7
-6 2 -4 77.89 8.2
8 -2 4 186.28 15.3
-8 2 -4 181.48 14.7
-8 2 -4 189.88 14.3
-10 2 -4 1148.59 68.29
-10 2 -4 1122.59 67.79
-12 2 -4 444.26 28.7
-12 2 -4 425.06 27.7
-15 3 4 17.7 7.7
-13 3 4 6.8 8.8
-11 3 4 1291.77 73.79
-11 3 4 1123.89 73.59
9 -3 -4 622.24 41.1
-9 3 4 620.54 40.9
-9 3 4 700.43 41.9
7 -3 -4 306.87 21.4
-7 -3 4 289.47 19.6
-7 -3 4 273.77 18.6
7 3 -4 271.97 19.2
-7 3 4 318.87 21
-7 3 4 280.97 21.9
5 -3 -4 363.86 24.9
5 -3 -4 358.96 25.1
-5 -3 4 374.76 23.7
-5 -3 4 341.07 22.9
-5 3 4 365.16 24.5
-5 3 4 397.76 25.4
5 3 -4 363.86 23.4
5 3 -4 353.36 23.5
3 -3 -4 112.19 10.8
-3 -3 4 98.79 9.4
3 -3 -4 83.89 9.8
-3 -3 4 77.19 8.1
3 3 -4 90.09 9
-3 3 4 93.59 9.5
-3 3 4 104.09 10.7
-1 -3 4 730.13 44.9
-1 -3 4 802.82 45.4
1 -3 -4 707.23 45.6
1 -3 -4 749.62 45.8
-1 3 4 721.73 45.7
1 3 -4 731.43 45.1
-1 3 4 786.32 45.8
1 3 -4 731.23 45.3
1 -3 4 217.78 16.1
1 -3 4 209.98 15.5
-1 -3 -4 198.88 15.7
-1 -3 -4 219.48 15.7
-1 3 -4 198.38 15.5
1 3 4 235.98 15.9
-1 3 -4 197.48 16.1
1 3 4 182.28 15.5
3 -3 4 2090.49 124.59
-3 -3 -4 2093.49 123.99
3 -3 4 1939.21 124.29
3 3 4 2275.47 124.09
-3 3 -4 2152.38 124.59
5 -3 4 76.09 8.7
-5 3 -4 59.99 7.6
-5 3 -4 70.59 8.1
7 -3 4 1530.55 87.89
-7 3 -4 1515.45 87.89
-7 3 -4 1378.36 87.39
9 -3 4 216.58 18.1
-9 3 -4 233.58 17.6
-9 3 -4 231.18 17.3
-11 3 -4 1590.04 93.49
-11 3 -4 1532.75 92.79
-13 3 -4 126.09 12.9
-13 3 -4 123.69 11.3
-16 4 4 222.18 18.3
-12 4 4 -1.2 8.8
-12 4 4 3.3 10.3
10 -4 -4 47.3 10.5
-10 4 4 36.3 9.9
-10 4 4 77.69 12.4
-8 -4 4 96.39 9.3
8 -4 -4 112.09 12
-8 4 4 90.49 11.3
8 4 -4 109.39 9.1
-8 4 4 92.29 12.4
6 -4 -4 24.7 8
-6 -4 4 12.1 4.9
-6 -4 4 37.7 6.9
-6 4 4 30 8.8
6 4 -4 25.5 6.4
-6 4 4 30.9 7.5
4 -4 -4 2361.06 133.19
-4 -4 4 2171.68 132.29
4 -4 -4 2178.88 133.09
-4 4 4 2378.46 133.39
4 4 -4 2169.88 132.29
-4 4 4 2215.58 132.99
-2 -4 4 334.87 23.9
-2 -4 4 402.06 24.8
2 -4 -4 392.56 25.9
2 -4 -4 379.16 26
-2 4 4 450.55 26.4
2 4 -4 371.16 24.7
2 4 -4 346.47 24.3
-2 4 4 353.06 25.3
0 -4 -4 85.89 9.6
0 -4 4 89.49 9.6
0 -4 4 68.59 8.5
0 -4 -4 93.79 9.4
0 4 -4 66.09 8.7
0 4 -4 93.69 9.6
0 4 4 87.19 9.3
0 4 4 98.09 9.9
2 -4 4 341.37 24
-2 -4 -4 374.06 22.9
-2 -4 -4 378.76 23
2 -4 4 308.57 22.9
2 4 4 337.27 22.5
2 4 4 379.16 23.2
-2 4 -4 350.76 23.5
-2 4 -4 289.37 22.9
-4 -4 -4 866.81 54.49
-4 -4 -4 943.01 54.59
4 -4 4 929.61 55.79
4 -4 4 905.61 55.19
4 4 4 945.91 54.59
-4 4 -4 929.11 55.59
-4 4 -4 810.22 55.09
4 4 4 991.2 54.69
6 -4 4 2831.22 159.48
-6 4 -4 2684.83 159.38
-6 4 -4 2583.84 158.98
8 -4 4 6.9 7.4
-8 4 -4 1.3 6.8
-8 4 -4 13.3 6.5
10 -4 4 346.87 26.2
-10 4 -4 364.86 26.2
-10 4 -4 402.36 25.5
-12 4 -4 191.68 16.1
-12 4 -4 186.98 18
-14 4 -4 16.7 7.7
-15 5 4 270.47 21.3
-13 5 4 51.39 12.3
11 -5 -4 399.06 30.3
-11 5 4 443.36 31
-11 5 4 410.36 29.9
9 -5 -4 -10 8.7
-9 5 4 -3.9 10.1
-9 5 4 3.3 8.3
7 -5 -4 2172.58 130.79
-7 5 4 2162.48 130.99
-7 5 4 2255.47 130.89
5 -5 -4 330.67 23.6
5 -5 -4 315.17 23.9
-5 -5 4 308.67 20.8
-5 -5 4 327.87 21.8
-5 5 4 307.97 24.2
5 5 -4 323.07 21.6
5 5 -4 349.57 21.7
-5 5 4 326.87 22.9
-3 -5 4 1219.18 71.89
3 -5 -4 1183.48 72.79
-3 -5 4 1109.59 71.49
3 -5 -4 1322.37 72.99
3 5 -4 1211.08 71.69
-3 5 4 1149.89 72.39
-3 5 4 1215.38 72.89
3 5 -4 1228.08 71.89
-1 -5 4 494.05 32.6
1 -5 -4 525.25 34
1 -5 -4 549.74 34.2
-1 -5 4 539.35 33.6
-1 5 4 487.35 33.6
1 5 -4 509.65 33.5
-1 5 4 587.14 34.5
1 5 -4 516.35 33
-1 -5 -4 -0.2 6.5
1 -5 4 4.9 6.1
1 -5 4 7.3 7.3
-1 -5 -4 10.8 7.2
1 5 4 2.1 7.4
-1 5 -4 0.9 6.2
1 5 4 18 6.9
-1 5 -4 -2.2 7
3 -5 4 293.57 21.3
-3 -5 -4 334.07 19.8
-3 -5 -4 254.77 19.6
3 -5 4 262.17 20
3 5 4 333.27 20.2
-3 5 -4 290.37 20.7
3 5 4 292.67 19.1
-3 5 -4 244.98 20.1
5 -5 4 2840.12 163.98
5 -5 4 2809.62 163.58
-5 5 -4 2613.94 163.08
-5 5 -4 2812.72 163.58
7 -5 4 248.98 20.3
-7 5 -4 273.37 19.2
-7 5 -4 256.07 19.8
9 -5 4 -10.2 7.9
-9 5 -4 -7.7 7.5
-9 5 -4 0.3 6.8
11 -5 4 24.1 12.8
-11 5 -4 21 9.2
-11 5 -4 14.5 7.6
-13 5 -4 44.2 12.9
-13 5 -4 30.1 8.5
-15 5 -4 188.48 16.9
-17 5 -4 142.09 13.4
-16 6 4 127.79 13.7
-12 6 4 1162.38 72.49
10 -6 -4 918.51 57.59
-10 6 4 904.31 57.99
-10 6 4 905.21 57.59
-8 -6 4 2.1 4.3
-8 -6 4 4.4 6.8
8 -6 -4 -6.7 8.6
-8 6 4 1.5 9.8
-8 6 4 2.3 8.5
8 6 -4 16.8 6.5
6 -6 -4 3530.35 210.38
-6 6 4 3542.65 210.48
-6 6 4 3614.64 210.48
-4 -6 4 19.3 7.1
4 -6 -4 16.9 9.4
4 -6 -4 22.3 8.4
-4 -6 4 31.5 5.5
-4 6 4 23.6 9.6
-4 6 4 31.4 7.8
4 6 -4 30.7 6.7
-2 -6 4 16.6 5.6
2 -6 -4 20.2 8.5
2 -6 -4 15.4 8
-2 -6 4 17.7 7.5
-2 6 4 30.6 7.5
2 6 -4 10.5 6.6
-2 6 4 20.3 8.7
2 6 -4 33.5 7.5
-2 -6 -4 284.47 20.9
-2 -6 -4 298.97 21.1
2 -6 4 274.97 22
2 -6 4 312.37 21.1
2 6 4 292.07 21
-2 6 -4 303.47 21.5
-2 6 -4 293.97 21.3
2 6 4 285.97 21.4
4 -6 4 1218.28 74.29
-4 -6 -4 1322.67 73.29
-4 -6 -4 1190.58 73.09
4 6 4 1247.48 73.19
-4 6 -4 1046.2 73.49
-4 6 -4 1228.08 74.09
4 6 4 1331.77 73.29
-6 -6 -4 726.73 42.2
-6 -6 -4 651.63 42
6 -6 4 711.33 44.3
-6 6 -4 655.63 43.9
6 6 4 732.63 42.2
8 -6 4 552.34 35.3
-8 6 -4 552.34 35
-8 6 -4 481.85 34.1
10 -6 4 387.26 29.7
-10 6 -4 438.86 28.3
-10 6 -4 415.16 29.4
-12 6 -4 12.5 9.6
-12 6 -4 -7.7 8
-14 6 -4 2643.94 156.58
-16 6 -4 32.1 9.2
-15 7 4 26.9 10.4
-13 7 4 928.51 59.89
-11 7 4 8.2 10.2
-11 7 4 15.1 11.9
-9 -7 4 145.29 11.9
-9 -7 4 139.49 14.1
9 -7 -4 169.18 16.6
-9 7 4 165.28 17.1
-9 7 4 180.68 16.6
7 -7 -4 301.27 24.8
-7 -7 4 328.27 20.6
-7 -7 4 302.27 21.7
-7 7 4 298.27 24.1
7 7 -4 311.37 21.4
-7 7 4 340.27 25.8
-5 -7 4 631.74 38.9
-5 -7 4 630.94 39.5
5 -7 -4 646.84 41.3
-5 7 4 642.94 40.9
5 7 -4 628.24 39.2
-5 7 4 627.64 41.6
3 -7 -4 1700.93 102.59
-3 -7 4 1671.43 101.29
-3 -7 4 1667.73 101.69
3 -7 -4 1776.02 102.69
-3 7 4 1767.12 102.39
3 7 -4 1668.83 101.39
-3 7 4 1741.03 102.79
3 7 -4 1677.33 101.59
1 -7 -4 0.1 8
-1 -7 4 0.6 8
1 -7 -4 9.9 7.6
-1 -7 4 8.2 5.9
1 7 -4 -1.3 6.4
1 7 -4 -0.7 7.5
-1 7 4 5.8 8.7
-1 7 4 -11 6.9
-1 -7 -4 2729.73 157.28
1 -7 4 2807.12 157.58
1 -7 4 2614.44 156.98
-1 -7 -4 2672.23 157.28
1 7 4 2591.74 157.18
-1 7 -4 2517.55 157.08
-1 7 -4 2635.74 157.38
1 7 4 2722.93 157.48
-3 -7 -4 253.37 19.4
3 -7 4 262.27 21.1
-3 -7 -4 255.87 19.3
-3 7 -4 301.37 20.4
3 7 4 238.78 19.2
-3 7 -4 246.08 19.7
3 7 4 277.47 19.9
-5 -7 -4 259.67 18.6
5 -7 4 270.07 21.1
-5 -7 -4 257.87 18.6
-5 7 -4 270.47 20.5
5 7 4 258.47 19.1
-5 7 -4 264.67 19.7
7 -7 4 1287.27 76.49
-7 7 -4 1230.68 75.49
-7 7 -4 1233.78 76.29
9 -7 4 167.08 17.2
-9 7 -4 191.68 18.5
-9 7 -4 216.88 17.6
11 -7 4 -0.4 11.7
-11 7 -4 5.2 9.6
-11 7 -4 0.8 8
-13 7 -4 413.26 29.1
-15 7 -4 609.64 39.7
-16 8 4 258.17 23.4
-12 8 4 26.7 13.2
10 -8 -4 122.79 15.8
-10 8 4 85.89 15
-10 8 4 147.69 15.8
8 -8 -4 182.68 19.6
-8 -8 4 158.18 15.4
-8 -8 4 151.68 13
-8 8 4 171.68 16.8
8 8 -4 167.78 14.5
-8 8 4 214.48 18.7
-6 -8 4 140.49 13
-6 -8 4 146.09 15
6 -8 -4 167.28 16.1
-6 8 4 166.98 16.4
-6 8 4 182.58 16.2
6 8 -4 169.28 14.3
2 -8 -4 1635.34 96.29
-2 -8 4 1615.24 95.19
2 -8 -4 1587.04 96.29
-2 -8 4 1611.04 95.69
2 8 -4 1584.24 95.59
-2 8 4 1654.03 96.49
2 8 -4 1551.34 95.19
-2 8 4 1550.24 95.99
2 -8 4 36.3 7.6
2 -8 4 8.4 9
-2 -8 -4 18.2 8.6
-2 -8 -4 40.6 8.4
2 8 4 37.4 9
-2 8 -4 25.8 7.8
-2 8 -4 18.5 7.9
2 8 4 29.5 8.1
-4 -8 -4 994.8 60.29
4 -8 4 981 61.89
-4 -8 -4 996.8 60.39
4 -8 4 999.5 61.49
-4 8 -4 1055.19 61.49
4 8 4 954.1 60.49
-4 8 -4 974.6 60.69
-6 -8 -4 38.8 7.1
6 -8 4 18.1 9.4
-6 -8 -4 28.4 6.8
-6 8 -4 20.7 8.9
6 8 4 11.9 7
-6 8 -4 13.5 7.9
8 -8 4 549.05 39.8
-8 8 -4 644.84 38.9
-8 8 -4 594.14 39.7
10 -8 4 482.15 35.6
-10 8 -4 498.05 35.2
-10 8 -4 526.75 34
-12 8 -4 37.8 9.8
-14 8 -4 167.38 18.5
-16 8 -4 7.7 9.6
-15 9 4 8.5 10.4
-11 9 4 -4.8 12.5
-9 -9 4 -5 7.6
9 -9 -4 9.2 11
-9 9 4 -5 11.7
-9 9 4 8 10.1
-7 -9 4 735.83 46.2
-7 -9 4 720.63 46.8
7 -9 -4 740.03 49.5
7 9 -4 782.92 46.6
-7 9 4 743.23 49.99
-7 9 4 826.72 49.3
-5 -9 4 138.29 14.4
-5 -9 4 114.89 12.1
5 -9 -4 119.59 14.7
-5 9 4 158.58 14.5
5 9 -4 135.69 12.1
-5 9 4 118.09 14.9
-3 -9 4 3017.1 193.58
3 -9 -4 3362.96 194.58
-3 -9 4 3264.27 193.38
3 -9 -4 3361.86 194.48
3 9 -4 3234.98 193.68
-3 9 4 3320.37 194.68
3 9 -4 3212.18 193.38
-3 9 4 3498.45 194.58
1 -9 -4 111.99 11.8
-1 -9 4 98.19 11.6
-1 -9 4 57.39 9
1 -9 -4 90.89 11.9
1 9 -4 78.99 9.6
-1 9 4 117.59 13.2
1 9 -4 87.09 11.4
-1 9 4 92.39 11
1 -9 4 337.57 24.2
-1 -9 -4 303.17 23.4
-1 -9 -4 302.27 23
1 -9 4 318.57 22.1
1 9 4 279.77 23.9
1 9 4 292.77 23.3
-1 9 -4 325.57 23.4
-1 9 -4 254.47 22.3
3 -9 4 -0.1 9.6
-3 -9 -4 1.5 7.4
-3 -9 -4 2.8 7.7
3 -9 4 7.2 8.8
3 9 4 13.4 9.1
3 9 4 6.3 9
-3 9 -4 -4.1 7.7
-3 9 -4 10.2 7.3
-5 -9 -4 773.62 48.5
5 -9 4 815.22 50.19
-5 -9 -4 786.32 48.3
-5 9 -4 763.12 49
-5 9 -4 841.32 49.9
5 9 4 707.73 48.4
-7 -9 -4 323.57 22.7
-7 -9 -4 335.77 22.2
7 -9 4 331.77 26
-7 9 -4 345.87 25.5
-7 9 -4 278.87 23.9
9 -9 4 12.6 10.9
-9 9 -4 9 9
-9 9 -4 7.9 9.6
-11 9 -4 340.07 25.9
-13 9 -4 313.67 24.8
-15 9 -4 152.28 16.1
-12 10 4 31.2 14.2
-10 -10 4 4.7 7.3
-10 -10 4 3 8.2
-10 10 4 2.2 12.5
-8 -10 4 49.7 9.8
8 -10 -4 68.99 13.5
8 10 -4 71.09 9.7
-8 10 4 57.59 12.4
-8 10 4 48.4 13.5
-6 -10 4 99.29 9.9
-6 -10 4 113.99 11.9
6 -10 -4 91.29 14.1
-6 10 4 92.29 12.8
-6 10 4 115.19 15.5
6 10 -4 93.89 10.8
-4 -10 4 595.14 41.5
-4 -10 4 612.44 42.5
4 -10 -4 787.52 44.8
4 -10 -4 671.73 44.2
4 10 -4 597.34 41.9
-4 10 4 798.12 45.4
-4 10 4 679.93 43.8
2 -10 -4 641.84 41.4
-2 -10 4 574.04 39.1
-2 -10 4 611.94 40.4
2 -10 -4 689.13 41.2
-2 10 4 621.54 40.7
2 10 -4 542.25 39.3
-2 10 4 704.13 42
2 10 -4 611.54 40.2
0 -10 -4 56.89 10.5
0 -10 -4 62.59 10.7
0 -10 4 62.49 10.9
0 10 -4 76.59 10.6
0 10 4 43 11
0 10 4 72.79 10.7
0 10 -4 60.89 9.7
-2 -10 -4 16.1 8.9
2 -10 4 17.2 9.7
2 -10 4 20.9 9.5
-2 -10 -4 9 8.1
-2 10 -4 17.5 7.8
2 10 4 3.7 8.3
2 10 4 13.6 9.6
-2 10 -4 3.3 8.7
4 -10 4 252.67 21.8
-4 -10 -4 217.68 19.5
-4 -10 -4 201.88 19.4
-4 10 -4 196.58 19.6
-4 10 -4 285.07 20.8
4 10 4 244.78 20.3
-6 -10 -4 215.38 18.7
-6 -10 -4 226.48 18.3
6 -10 4 236.48 21.8
6 10 4 201.58 19
-6 10 -4 240.68 21
-6 10 -4 249.08 19.8
-8 -10 -4 69.99 9.7
-8 -10 -4 67.99 8.8
8 -10 4 49.2 12.3
-8 10 -4 57.89 10.8
-8 10 -4 59.99 12.1
-10 10 -4 12 9.9
-12 10 -4 8.9 9.5
-14 10 -4 68.29 12.6
-15 11 4 236.98 23.1
-11 -11 4 97.39 10.8
-11 -11 4 85.69 10.8
-11 11 4 62.29 16.3
-9 -11 4 186.58 19
-9 -11 4 225.18 19.5
9 -11 -4 257.17 23.9
-9 11 4 238.48 23
-9 11 4 273.07 23.5
7 -11 -4 45.6 13.1
-7 -11 4 64.19 10.6
-7 11 4 58.09 13.9
7 11 -4 88.59 10.4
-7 11 4 80.79 13.1
-5 -11 4 70.49 10.9
5 -11 -4 63.59 13.5
-5 11 4 48.1 11
5 11 -4 66.69 9.7
-5 11 4 64.49 13.9
3 -11 -4 8236.68 491.45
-3 11 4 8049.4 491.45
-3 11 4 8829.52 491.95
1 -11 -4 13.6 9.4
-1 -11 4 13.8 9.7
1 -11 -4 23 9.4
1 11 -4 30.6 9.5
-1 11 4 16.5 10.9
1 11 -4 14.8 8.1
-1 11 4 23.5 9
1 -11 4 28.8 9.8
1 -11 4 58.09 10.5
-1 -11 -4 36.8 9.8
-1 -11 -4 24.4 9.6
1 11 4 27.9 11.1
-1 11 -4 35.3 9.5
-1 11 -4 16.8 8.2
1 11 4 38.1 9.9
-3 -11 -4 73.69 10.9
-3 -11 -4 54.79 10.5
3 -11 4 75.39 13
3 -11 4 60.29 12
3 11 4 56.59 11.5
-3 11 -4 72.89 10.6
-3 11 -4 61.79 10.7
-5 -11 -4 1879.51 115.89
5 -11 4 1941.21 117.29
-5 -11 -4 2064.09 116.39
5 11 4 1965.9 116.19
-5 11 -4 1776.22 116.29
-5 11 -4 2030.1 117.49
7 -11 4 536.65 40.1
-7 -11 -4 537.05 37.4
-7 -11 -4 601.44 37
7 11 4 602.74 36.2
-7 11 -4 627.04 40
-7 11 -4 536.35 38.4
9 -11 4 -8.7 11.1
-9 -11 -4 4 8.2
-9 -11 -4 5.8 7.2
-9 11 -4 -1.3 10.5
-9 11 -4 -0.6 9.3
-11 11 -4 696.43 45.9
-13 11 -4 44 11.2
-15 11 -4 15.5 10.7
-12 12 4 258.27 25.2
-10 -12 4 20.9 9.1
-10 -12 4 1 8.8
-10 12 4 -17.8 13.5
8 -12 -4 134.79 19.1
-8 -12 4 166.98 15.7
-8 -12 4 164.08 15.1
8 12 -4 137.59 15.9
-8 12 4 154.18 18.3
-8 12 4 183.78 19.7
-6 -12 4 1356.96 80.09
6 -12 -4 1261.07 82.19
-6 -12 4 1292.07 80.49
6 12 -4 1304.67 79.59
-6 12 4 1322.27 82.59
-6 12 4 1363.86 81.99
4 -12 -4 5740.13 341.37
4 12 -4 5695.03 340.07
-4 12 4 5772.82 341.37
-4 12 4 5949.4 341.77
-2 -12 4 67.79 11.9
2 -12 -4 82.49 13
2 -12 -4 81.59 13.2
-2 12 4 92.39 14.4
2 12 -4 84.89 11.1
-2 12 4 72.69 12.1
0 -12 4 234.98 21.4
0 -12 -4 212.38 21.4
0 -12 4 196.98 21.3
0 -12 -4 283.97 21.4
0 12 4 250.77 22.9
0 12 4 223.28 21
0 12 -4 159.48 19.1
0 12 -4 205.48 20.9
2 -12 4 -3.5 9.5
-2 -12 -4 -6.9 8.9
-2 -12 -4 -6.2 8.6
2 -12 4 -1.8 10.1
-2 12 -4 -4.6 8.6
2 12 4 -17.4 9.5
-2 12 -4 10.7 8.7
4 -12 4 155.48 17.1
-4 -12 -4 139.99 14.2
-4 -12 -4 124.29 14.6
4 12 4 164.88 15.3
-4 12 -4 114.39 14.2
-4 12 -4 140.89 15.4
-6 -12 -4 388.46 29.9
6 -12 4 391.56 32.3
-6 -12 -4 418.26 29.4
-6 12 -4 475.25 32.2
-6 12 -4 434.96 30.7
6 12 4 424.16 30
8 -12 4 206.08 20.4
-8 -12 -4 191.78 18.6
-8 -12 -4 215.38 17.6
-8 12 -4 176.88 18
8 12 4 182.08 16.2
-8 12 -4 191.48 20.5
-10 -12 -4 124.19 11.4
-10 -12 -4 113.59 12.3
-10 12 -4 95.89 14.2
-12 12 -4 13.2 10.6
-14 12 -4 158.48 17
-11 -13 4 22.4 9.5
-11 -13 4 30.6 9.8
-11 13 4 17.2 14.6
-9 -13 4 95.09 12.8
-9 -13 4 93.59 12.7
-9 13 4 83.49 17.2
-7 -13 4 1880.81 108.99
-7 -13 4 1770.02 109.39
7 -13 -4 1846.82 111.49
7 13 -4 1801.62 108.59
-7 13 4 1827.62 111.09
-7 13 4 1752.02 111.29
5 -13 -4 334.17 27.7
-5 -13 4 286.67 24.5
-5 -13 4 299.27 25.2
-5 13 4 309.97 26.4
-5 13 4 333.47 29.3
5 13 -4 297.87 23.4
3 -13 -4 202.08 20.2
-3 -13 4 182.18 19.1
3 -13 -4 221.78 22.8
-3 -13 4 198.28 20.6
-3 13 4 187.58 20.1
-3 13 4 227.98 21.2
3 13 -4 202.98 18.6
-1 -13 4 2105.39 128.99
-1 -13 4 2178.68 129.59
1 -13 -4 2108.29 129.39
1 -13 -4 2271.57 129.79
-1 13 4 2058.89 129.09
-1 13 4 2207.28 129.89
1 13 -4 2111.99 128.39
1 -13 4 67.39 12.4
1 -13 4 70.99 13
-1 -13 -4 65.89 12.4
-1 -13 -4 62.99 12.4
-1 13 -4 70.89 11.3
1 13 4 62.39 13.7
-1 13 -4 73.89 12.2
3 -13 4 13.5 11.7
-3 -13 -4 25.1 10
-3 -13 -4 6.2 9.7
3 -13 4 13.6 11
-3 13 -4 14.7 9.8
3 13 4 7.6 10.7
-3 13 -4 26.8 10.4
-5 -13 -4 -2.2 9.2
-5 -13 -4 4.9 9.2
5 -13 4 -9.3 10.9
5 13 4 -20.4 9.7
-5 13 -4 13.9 10.5
-5 13 -4 -14.5 9.4
-7 -13 -4 427.86 30.3
-7 -13 -4 412.76 29.4
7 -13 4 443.36 33.6
-7 13 -4 395.36 30.8
7 13 4 389.26 28.1
-7 13 -4 424.96 32.4
-9 -13 -4 30.5 9.8
-9 -13 -4 21 9.1
-9 13 -4 6.3 10.2
-11 -13 -4 -3.3 7.2
-11 13 -4 -4.7 10.7
-13 13 -4 685.03 46
-14 14 4 71.09 14.9
-12 -14 4 286.67 30.6
-12 -14 4 321.27 23.7
-12 14 4 265.57 27.9
-10 -14 4 146.29 16
-10 -14 4 159.78 15.2
-10 14 4 125.29 20.1
-8 -14 4 109.19 14.2
8 -14 -4 84.99 17.7
-8 -14 4 118.29 13.9
8 14 -4 127.09 13.5
-8 14 4 97.39 17.7
6 -14 -4 783.32 54.29
-6 -14 4 786.22 52.19
-6 -14 4 760.72 51.29
-6 14 4 774.72 54.59
6 14 -4 804.32 50.89
-6 14 4 906.91 54.19
-4 -14 4 129.29 14.9
4 -14 -4 136.89 17.1
-4 -14 4 132.89 16.2
-4 14 4 111.59 17.2
4 14 -4 135.79 13.9
-4 14 4 132.09 16
2 -14 -4 132.29 16.1
-2 -14 4 139.09 15.7
-2 -14 4 115.49 15.1
2 -14 -4 128.69 16.9
-2 14 4 74.19 15.7
2 14 -4 110.29 13.4
-2 14 4 139.29 15.3
0 -14 -4 2434.66 142.29
0 -14 4 2299.07 141.99
0 -14 -4 2417.66 142.49
0 -14 4 2283.47 142.39
0 14 -4 2580.14 143.49
0 14 4 2310.07 142.39
0 14 -4 2242.38 141.19
-2 -14 -4 567.54 41.5
2 -14 4 654.13 42.8
2 -14 4 656.53 42.4
-2 -14 -4 619.74 42
-2 14 -4 593.24 41
2 14 4 532.45 42
-2 14 -4 658.03 42.1
-4 -14 -4 931.21 58.09
-4 -14 -4 861.51 58.29
4 -14 4 885.61 59.69
-4 14 -4 943.61 59.49
-4 14 -4 953.4 58.39
4 14 4 920.41 58.79
6 -14 4 47.6 14.6
-6 -14 -4 69.99 12.4
-6 -14 -4 60.19 11.3
-6 14 -4 71.19 13.9
-6 14 -4 54.29 12.1
8 -14 4 15.6 15.6
-8 -14 -4 11.5 10.6
-8 -14 -4 24.6 10.3
-8 14 -4 0.4 10.8
8 14 4 20.3 9.2
-10 -14 -4 25.6 9.1
-10 -14 -4 16.5 10.5
-10 14 -4 17.9 11
-12 14 -4 85.99 14.3
-14 14 -4 1260.37 78.69
-13 -15 4 30.2 10.3
-11 -15 4 21.7 10.6
-11 15 4 21 16.3
-9 -15 4 120.49 15.4
-9 -15 4 135.99 14.8
-9 15 4 94.39 19.3
7 -15 -4 231.18 23.6
-7 -15 4 169.18 19.3
-7 -15 4 211.38 21.1
-7 15 4 238.08 24.5
-7 15 4 172.48 21.8
7 15 -4 226.18 20.2
-5 -15 4 564.44 37.6
-5 -15 4 567.94 38.5
5 -15 -4 442.06 39.7
5 15 -4 536.55 36.5
-5 15 4 554.34 39.4
-5 15 4 547.25 40.9
3 -15 -4 999.7 65.19
-3 -15 4 1022 63.79
3 -15 -4 997.7 66.99
-3 -15 4 1034.3 64.59
3 15 -4 1015.1 62.99
-3 15 4 1050.99 64.79
-3 15 4 917.21 65.29
1 -15 -4 2.4 11.1
1 -15 -4 9.5 11.7
-1 -15 4 6.6 11.3
-1 -15 4 2.2 11.1
1 15 -4 9.1 9.1
-1 15 4 10.5 12.5
-1 15 4 8.3 12.4
-1 -15 -4 209.48 20.3
1 -15 4 195.98 19.6
-1 -15 -4 168.08 19.1
1 -15 4 183.08 20.3
-1 15 -4 214.28 21.5
-1 15 -4 188.98 18.7
1 15 4 186.08 19.8
-3 -15 -4 68.49 13.1
-3 -15 -4 58.39 12.8
3 -15 4 50.29 13.5
3 15 4 74.69 14.1
-3 15 -4 83.09 14.1
-3 15 -4 63.49 12.2
-5 -15 -4 441.66 34.5
5 -15 4 477.65 36.7
-5 -15 -4 482.85 33.8
-5 15 -4 489.05 34.3
5 15 4 460.55 34.8
-5 15 -4 473.05 35.8
7 -15 4 456.25 37.7
-7 -15 -4 473.95 33.6
-7 -15 -4 491.05 34.8
7 15 4 513.65 32.7
-7 15 -4 486.85 37.1
-7 15 -4 419.16 34.8
-9 -15 -4 53.19 11.2
-9 -15 -4 43.9 12
-9 15 -4 64.99 13.4
-11 -15 -4 95.69 11.8
-11 -15 -4 77.89 13.4
-11 15 -4 103.99 15.1
-13 15 -4 -4.3 11.5
-14 16 4 10.4 13.3
-12 -16 4 1.9 10.3
-10 -16 4 188.68 18.4
-10 16 4 200.98 24.2
-8 -16 4 54.29 12.1
-8 16 4 18.7 16
-6 -16 4 273.37 24.8
6 -16 -4 271.57 29.2
-6 -16 4 301.07 26.1
6 16 -4 247.28 23.5
-6 16 4 307.37 30.3
-6 16 4 269.87 27.2
4 -16 -4 1153.48 72.49
-4 -16 4 1028.2 70.99
-4 -16 4 1057.09 70.29
-4 16 4 1026.8 72.39
4 16 -4 1231.58 69.89
-4 16 4 1216.08 71.99
2 -16 -4 -3.1 12
2 -16 -4 14 12.7
-2 -16 4 19.2 12.1
-2 -16 4 19.4 12
-2 16 4 18.8 13.9
-2 16 4 20.3 11.4
2 16 -4 4.6 9.5
0 -16 4 0.4 11.5
0 -16 -4 23.7 11.9
0 -16 4 -5.1 11.3
0 -16 -4 14 12.5
0 16 -4 -1.9 9.4
0 16 4 18.3 13.2
2 -16 4 43.4 13.7
-2 -16 -4 37.9 12.8
-2 -16 -4 63.99 13.8
2 -16 4 71.09 14.2
-2 16 -4 70.39 12.3
-2 16 -4 69.09 14
2 16 4 66.39 14.8
4 -16 4 569.84 42
-4 -16 -4 576.14 39.8
-4 -16 -4 610.94 41
-4 16 -4 522.05 40
-4 16 -4 546.35 41.2
4 16 4 617.24 41.7
-6 -16 -4 194.48 18.7
6 -16 4 196.38 21.8
-6 -16 -4 210.58 22.3
-6 16 -4 183.28 21.1
-6 16 -4 176.28 19.5
-8 -16 -4 67.99 13.5
-8 -16 -4 36.1 11.8
-8 16 -4 41.4 12.9
-10 -16 -4 415.46 29.9
-10 16 -4 419.46 33
-12 -16 -4 11.4 9.5
-12 16 -4 22.3 12.3
-13 -17 4 21.6 11.1
-11 -17 4 671.43 43.5
-11 17 4 618.44 49.6
-9 -17 4 134.69 15.8
-9 17 4 93.69 20.3
-7 -17 4 183.28 18
-7 17 4 129.09 20.9
5 -17 -4 12 13.8
-5 -17 4 6.6 11.4
-5 -17 4 27 12.5
5 17 -4 5.4 10.2
-5 17 4 -6 11.9
-5 17 4 8.9 14.8
-3 -17 4 109.39 15.6
3 -17 -4 97.49 16.8
-3 -17 4 151.08 17.3
-3 17 4 76.29 15.3
3 17 -4 79.69 13.8
-3 17 4 139.59 19.1
-1 -17 4 319.47 29.5
1 -17 -4 325.87 30.1
-1 -17 4 366.86 29
1 -17 -4 333.47 29.5
1 17 -4 302.77 26.4
-1 17 4 279.87 30.3
-1 -17 -4 -8.2 12.3
-1 -17 -4 -9.1 11.6
1 -17 4 -8.9 12
1 -17 4 -14.8 12
-1 17 -4 1.2 10.5
1 17 4 7.3 13.1
-3 -17 -4 2359.36 141.09
3 -17 4 2348.57 141.29
-3 -17 -4 2309.77 140.19
-3 17 -4 2203.28 139.89
-3 17 -4 2459.45 141.49
3 17 4 2274.97 140.79
-5 -17 -4 437.66 32
5 -17 4 445.76 35.5
-5 -17 -4 418.56 33.2
-5 17 -4 344.77 32.2
-5 17 -4 450.35 34.3
-7 -17 -4 27.7 11.4
-7 17 -4 20.5 12.7
-9 -17 -4 3.7 10.6
-9 17 -4 -10.2 11.2
-11 -17 -4 157.58 16.7
-11 17 -4 175.38 20
-13 -17 -4 32.5 9.8
-13 17 -4 32.5 13.8
-14 -18 4 43.9 12.2
-12 -18 4 4.1 11.8
-10 -18 4 206.88 21.8
-10 18 4 169.68 23.7
-8 -18 4 58.59 13.3
-8 18 4 20.5 17.1
6 -18 -4 282.67 31.2
-6 -18 4 341.37 27.3
-6 18 4 250.17 27.8
4 -18 -4 318.37 30.6
-4 -18 4 353.06 29.4
-4 -18 4 306.87 27.7
-4 18 4 299.67 29.1
-4 18 4 285.57 31.6
4 18 -4 255.47 25.7
-2 -18 4 1120.29 74.09
2 -18 -4 1220.28 74.89
2 -18 -4 1142.69 74.39
-2 -18 4 1195.28 73.29
-2 18 4 1094.89 74.79
2 18 -4 1128.59 72.29
0 -18 4 -8.6 12.4
0 -18 -4 3.4 13.1
0 -18 -4 11.1 12.7
0 -18 4 -8.7 13.1
0 18 4 -6.1 13.6
0 18 -4 -8.2 11
-2 -18 -4 34.4 13.9
-2 -18 -4 24.8 13.3
2 -18 4 48.2 14.4
2 -18 4 29.9 16.3
2 18 4 53.39 15.6
-2 18 -4 70.49 13.2
-4 -18 -4 1580.54 103.49
4 -18 4 1676.03 104.39
-4 -18 -4 1739.13 102.79
-4 18 -4 1755.72 104.39
-4 18 -4 1611.84 102.59
4 18 4 1675.13 103.79
6 -18 4 318.77 32.9
-6 -18 -4 342.17 28.6
-6 18 -4 343.37 29.6
-8 -18 -4 371.86 29.8
-8 18 -4 380.06 31.6
-10 -18 -4 129.29 16
-10 18 -4 147.09 18.7
-12 -18 -4 43.1 11.4
-12 18 -4 46.6 14.5
-13 -19 4 593.14 45.8
-13 19 4 837.52 50.09
-11 -19 4 65.99 13.5
-9 -19 4 -2.1 11.8
-9 19 4 1.8 16.6
-7 -19 4 47.6 13.8
-7 19 4 25.2 17.1
-5 -19 4 1125.59 71.59
5 -19 -4 1199.88 74.59
-5 19 4 1043.8 74.09
3 -19 -4 859.71 60.79
-3 -19 4 970.5 68.59
-3 -19 4 951.2 59.39
-3 19 4 866.41 61.59
3 19 -4 861.31 58.39
-1 -19 4 26.7 14.3
1 -19 -4 46.3 15.1
1 -19 -4 43 14.8
-1 -19 4 31.5 15.1
-1 19 4 37 15.6
1 19 -4 39.9 12.4
1 -19 4 189.88 20.9
-1 -19 -4 172.08 20.8
-1 -19 -4 165.68 21.3
1 -19 4 212.88 23.2
1 19 4 172.58 21.7
-1 19 -4 182.18 18.9
-3 -19 -4 10.1 12.8
3 -19 4 3.7 13.6
-3 19 -4 17.9 11.9
3 19 4 23.6 15.1
5 -19 4 -0.2 14.7
-5 -19 -4 -23.1 11.5
-5 19 -4 21.1 12.3
-7 -19 -4 2450.65 154.08
-7 19 -4 2694.13 155.38
-9 -19 -4 -8 11.2
-9 19 -4 4.3 12.6
-11 -19 -4 25.5 12.1
-11 19 -4 45.5 14.9
-13 -19 -4 53.19 11.7
-13 19 -4 23.8 15.3
-12 -20 4 74.39 14.8
-12 20 4 93.89 17.8
-10 -20 4 112.69 16.4
-8 -20 4 30.9 13.8
-8 20 4 30.1 18
-6 -20 4 346.27 28.6
-6 20 4 245.98 29
-4 -20 4 33.9 13.8
4 -20 -4 21.5 16.2
-4 20 4 34.2 17.4
2 -20 -4 22.6 15.2
-2 -20 4 10.6 13.4
-2 20 4 8.5 16.3
2 20 -4 17.4 12.5
0 -20 4 226.28 25.6
0 -20 -4 201.68 23.7
0 -20 -4 293.07 27.6
0 -20 4 209.08 23.1
0 20 4 204.88 25
0 20 -4 199.88 21.7
2 -20 4 32.4 14.8
-2 -20 -4 13.9 13.6
2 20 4 48.8 16.7
-2 20 -4 10.8 12.3
4 -20 4 -12.5 14.6
-4 -20 -4 2.1 12.6
-4 20 -4 16.3 12.7
-4 20 -4 -13.1 17.9
-6 -20 -4 641.04 46
-6 20 -4 679.73 46.8
-8 -20 -4 384.96 31.3
-8 20 -4 379.26 32.9
-10 -20 -4 16.8 12.6
-10 20 -4 -13.3 12.8
-12 -20 -4 1 11.6
-12 20 -4 -19.5 13.9
-11 -21 4 113.99 17
-9 -21 4 2.3 12.5
-7 -21 4 -9.6 13
-7 21 4 -6.8 17.7
-3 -21 4 222.98 22
3 -21 -4 172.48 22.5
-3 21 4 177.08 24.1
-1 -21 4 -17.2 14
1 -21 -4 -2 13.7
1 21 -4 -17.8 12.3
-1 21 4 -4.6 16.1
-1 -21 -4 17.3 14
1 -21 4 -21.1 15.2
1 -21 4 1.2 14.6
1 21 4 12.4 16.5
-1 21 -4 -17.2 11.8
-3 -21 -4 129.59 19.1
3 -21 4 144.79 21.1
-3 21 -4 196.38 20.8
-5 -21 -4 179.58 19.9
-5 21 -4 134.09 18.8
-7 -21 -4 286.67 28.3
-7 21 -4 303.47 29.3
-9 -21 -4 100.79 16.5
-9 21 -4 132.39 19.3
-11 -21 -4 -2.3 12.3
-11 21 -4 10.4 14.4
-12 22 4 242.58 26.5
-10 -22 4 109.59 17.4
-8 -22 4 -15.3 13
-8 22 4 -0.6 18.3
-6 -22 4 38.5 14.8
-6 22 4 50.29 19.4
4 -22 -4 23.3 17
-4 -22 4 16.4 14.6
-4 22 4 13.1 18.1
-2 -22 4 86.09 17.8
2 -22 -4 75.49 17.8
-2 22 4 69.19 19.8
0 -22 4 378.86 36.8
0 -22 -4 421.36 36.3
0 22 -4 456.85 35.8
2 -22 4 -0.9 15.2
-2 -22 -4 6.3 13.8
-2 22 -4 6.3 13.5
-4 -22 -4 732.63 54.29
4 -22 4 730.33 56.89
-4 22 -4 901.41 54.99
-6 -22 -4 117.89 17.5
-6 22 -4 94.19 17.1
-8 -22 -4 108.99 17.2
-8 22 -4 104.39 18.4
-10 -22 -4 191.68 21.3
-10 22 -4 234.38 24.9
-12 22 -4 37.3 16.8
-11 23 4 30.3 15.7
-9 -23 4 26.7 14.6
-7 -23 4 119.29 18.3
-5 -23 4 -4.3 14.1
-5 23 4 3.7 18.8
3 -23 -4 617.14 48.4
-3 -23 4 646.34 46.3
-3 23 4 564.44 49.3
-1 -23 4 104.39 18.8
1 -23 -4 76.09 18.4
1 -23 4 -0.1 15.6
-1 -23 -4 23 15.3
-3 -23 -4 32.5 15.2
3 -23 4 44.2 17.9
-3 23 -4 27.6 14.7
-5 -23 -4 119.19 18.9
-5 23 -4 136.49 20.1
-7 -23 -4 473.45 37.9
-7 23 -4 474.05 38.8
-9 -23 -4 7.4 14
-9 23 -4 -8.4 14.4
-11 23 -4 154.78 22.3
-10 24 4 107.39 20.1
-8 -24 4 9.8 14.9
-6 -24 4 30.7 16
-4 -24 4 401.96 36.4
-4 24 4 414.46 42.1
2 -24 -4 414.36 38.9
-2 -24 4 428.16 37.2
0 -24 4 8.8 16
0 -24 -4 0.4 15
2 -24 4 43.3 17.9
-2 -24 -4 36.8 16.4
-4 -24 -4 933.81 63.59
-4 24 -4 935.41 63.79
-6 -24 -4 14.2 15.3
-6 24 -4 -8.4 14.6
-8 -24 -4 41.1 15.6
-8 24 -4 3.1 14.9
-10 24 -4 3.9 16.3
-11 25 4 70.79 18.9
-9 -25 4 15.7 15.4
-9 25 4 39.8 16.4
-7 -25 4 284.87 28.4
-5 -25 4 27.6 16.8
-3 -25 4 39 17.4
3 -25 -4 34.3 18.8
-1 -25 4 6.3 15.6
1 -25 -4 2.1 16.2
-1 -25 -4 2.3 15.9
1 -25 4 16.9 17.6
-3 -25 -4 228.98 25.4
-5 -25 -4 64.29 18.3
-5 25 -4 95.79 18
-7 -25 -4 106.89 18.5
-7 25 -4 90.99 19.3
-9 25 -4 -17.5 14.8
-11 25 -4 -5.5 15.9
-10 26 4 38.7 17.5
-8 -26 4 6.5 16.6
-8 26 4 24.4 16.5
-6 -26 4 252.27 26.8
-4 -26 4 57.09 18.1
2 -26 -4 40.7 19
-2 -26 4 35.2 17.6
0 -26 -4 114.59 21.6
0 -26 4 119.29 21.5
-2 -26 -4 101.89 20.3
2 -26 4 126.79 23.7
-4 -26 -4 301.17 32.8
-6 -26 -4 247.68 26
-6 26 -4 213.68 25.1
-8 -26 -4 85.09 18.3
-8 26 -4 54.19 18.4
-10 26 -4 73.39 19.5
-9 27 4 0.2 16.8
-7 -27 4 58.09 18.4
-5 -27 4 42.7 18.1
-3 -27 4 83.29 19.6
-1 -27 4 21.1 17.5
1 -27 -4 21 18.7
-1 -27 -4 14.2 17.4
1 -27 4 18.7 18.3
-3 -27 -4 20.5 17.6
-5 -27 -4 1.9 17
-7 -27 -4 306.77 32.3
-7 27 -4 280.37 30.1
-9 27 -4 33.5 17.5
-10 28 4 -4.3 18
-6 -28 4 41.7 18.9
-4 -28 4 88.89 20.7
-2 -28 4 22.6 18.2
0 -28 -4 180.68 25.8
0 -28 4 207.28 27.1
-2 -28 -4 35.7 18.9
-4 -28 -4 70.69 20.1
-6 -28 -4 10.9 17.2
-10 28 -4 29.5 18.5
-5 -29 4 9.1 18
1 -29 -4 10.4 20
-1 -29 4 -7.1 18.6
-1 -29 -4 16.1 19
-3 -29 -4 -26.5 16.9
-5 -29 -4 57.19 19.5
-4 -30 4 478.55 43.3
-2 -30 4 217.48 28.3
0 -30 -4 -20.7 19.1
0 -30 4 21.5 20.1
-2 -30 -4 1.5 18.5
-4 -30 -4 58.79 20.5
-3 -31 4 673.93 53.39
-1 -31 4 -4.7 19.8
-1 -31 -4 9.1 20.4
-3 -31 -4 19 19
-2 -32 4 -17.5 19.9
-2 -32 -4 46.2 21.7
-1 -33 -4 -4.6 21.2
-2 -34 4 0.4 32.7
-12 0 5 -1.6 7
-12 0 5 -4.9 8.2
-10 0 5 -2.6 6.5
-10 0 5 -3.3 7.9
8 0 -5 -5.5 6.6
-8 0 5 -2.3 6
-8 0 5 12.7 7.4
-6 0 5 27.8 7.8
6 0 -5 30.6 7.2
-6 0 5 27.5 6.5
-4 0 5 -2.4 6.5
-4 0 5 -5.9 5.5
4 0 -5 -1.9 1
4 0 -5 -4 6.4
-2 0 5 -4.9 6
2 0 -5 0.7 6.2
-2 0 5 1.9 7
2 0 -5 -1.8 6.6
0 0 -5 1.2 5.6
0 0 5 -4.6 5.7
0 0 5 0.7 5.2
0 0 -5 5.5 5.2
2 0 5 -0.3 5.8
-2 0 -5 -1.1 5.4
2 0 5 -0.2 4.9
-2 0 -5 6.8 5.9
-4 0 -5 3.7 4.8
-4 0 -5 3.6 4.6
4 0 5 -4.6 4.4
4 0 5 -3.3 5.3
-6 0 -5 -0.2 4.5
-6 0 -5 5.6 4.9
6 0 5 4 5.3
-8 0 -5 -1.1 4.9
8 0 5 -7 5.5
-15 1 5 125.39 11
-13 1 5 49.7 9.2
-13 1 5 53.99 10.4
-11 -1 5 620.84 38.6
-11 -1 5 594.04 39.1
-11 1 5 619.34 40
-11 1 5 652.63 39.5
-9 -1 5 63.09 8.3
-9 -1 5 66.69 9.3
9 -1 -5 76.29 9.5
-9 1 5 61.89 8.9
-9 1 5 65.39 10.3
9 1 -5 63.49 8.8
-7 -1 5 824.22 50.99
7 -1 -5 841.92 51.69
-7 -1 5 870.21 51.49
7 1 -5 848.12 51.19
-7 1 5 882.41 51.99
-7 1 5 801.92 51.39
5 -1 -5 2 2.8
-3 -1 5 67.89 8.1
3 -1 -5 45.2 7.8
-3 -1 5 42 7
3 -1 -5 44.7 7.8
-3 1 5 50.19 8.1
3 1 -5 40.3 7.4
-3 1 5 38.9 6.9
3 1 -5 51.09 6.9
-1 -1 5 98.19 9.2
1 -1 -5 78.59 8.9
-1 -1 5 80.69 8.6
1 -1 -5 91.69 9.1
-1 1 5 100.89 9.3
1 1 -5 70.99 8.4
1 1 -5 84.29 8.7
-1 1 5 71.09 8.5
-1 -1 -5 28.1 6.5
1 -1 5 29.6 6.1
-1 -1 -5 29.1 6.1
1 -1 5 28.3 5.8
-1 1 -5 26.1 6.2
-1 1 -5 18.1 5.6
1 1 5 22.1 5.9
1 1 5 21.6 6.1
3 -1 5 1256.47 74.59
-3 -1 -5 1209.08 74.29
-3 -1 -5 1289.97 74.39
3 1 5 1298.17 74.49
-3 1 -5 1221.48 74.49
-5 -1 -5 387.16 25.2
5 -1 5 382.76 26
-5 -1 -5 390.76 25.1
5 -1 5 449.06 25.5
5 1 5 444.16 25
5 1 5 426.06 25.5
-5 1 -5 386.86 25.6
-5 1 -5 386.26 25.6
7 -1 5 2457.45 144.59
-9 1 -5 161.98 12.8
-9 1 -5 156.28 13.2
-11 1 -5 49.4 6.9
-11 1 -5 39.6 7.2
-14 2 5 260.27 21.2
-12 2 5 31.2 9
-12 2 5 40.1 10.6
10 -2 -5 14 8.1
-10 -2 5 11.2 7.3
-10 -2 5 -5.2 5.6
-10 2 5 7.9 7.6
-10 2 5 3.8 9.2
8 -2 -5 407.66 26.9
-8 -2 5 386.56 25.3
-8 -2 5 417.26 26.1
-8 2 5 376.76 27.4
-8 2 5 356.16 26.6
8 2 -5 413.86 25.7
-4 -2 5 1287.67 77.39
4 -2 -5 1363.96 78.19
-4 -2 5 1254.57 77.69
4 -2 -5 1322.77 78.19
-4 2 5 1271.27 77.89
-4 2 5 1293.27 78.19
4 2 -5 1259.27 77.59
4 2 -5 1387.26 77.59
2 -2 -5 240.88 18.6
2 -2 -5 242.78 18.7
-2 -2 5 227.38 17.3
-2 -2 5 285.77 18.2
2 2 -5 254.27 17.9
-2 2 5 245.68 19
2 2 -5 238.18 17.7
-2 2 5 230.38 18
0 -2 5 516.55 29.5
0 -2 5 428.46 29.1
0 -2 -5 470.05 29.5
0 -2 -5 470.95 29.6
0 2 5 486.45 29.6
0 2 5 462.85 29.4
0 2 -5 485.55 29.4
0 2 -5 409.06 29.1
2 -2 5 59.09 7.6
-2 -2 -5 93.89 9.9
2 -2 5 88.49 8.6
-2 -2 -5 64.29 8.1
-2 2 -5 59.69 7.6
-2 2 -5 94.49 8.5
-4 -2 -5 1411.16 87.09
4 -2 5 1522.65 87.79
-4 -2 -5 1516.45 87.19
4 2 5 1633.14 87.29
-4 2 -5 1283.97 87.39
-4 2 -5 1505.65 87.69
6 -2 5 787.92 45.3
-6 2 -5 697.63 44.9
-6 2 -5 739.23 45.1
8 -2 5 8.8 6.5
-8 2 -5 1.9 5.6
-8 2 -5 8.4 6
-10 2 -5 67.79 8.2
-10 2 -5 73.19 9
-12 2 -5 17.2 6.4
-12 2 -5 21.5 7.4
-17 3 5 139.49 12.8
-13 3 5 68.99 12.6
-13 3 5 114.89 12.9
-11 3 5 325.77 25.9
-11 3 5 331.97 24.7
9 -3 -5 807.92 52.89
-9 -3 5 865.71 51.19
-9 -3 5 911.01 51.89
-9 3 5 821.32 52.89
-9 3 5 844.72 53.49
7 -3 -5 210.68 17.3
-7 -3 5 197.28 14.5
-7 -3 5 199.48 15.6
-7 3 5 201.08 16.7
7 3 -5 206.48 15.3
-7 3 5 179.58 18.1
-5 -3 5 225.08 16.9
5 -3 -5 252.37 19.5
5 -3 -5 254.87 19.4
-5 -3 5 240.98 18.1
-5 3 5 231.58 18.4
5 3 -5 248.98 17.9
5 3 -5 273.17 17.8
-5 3 5 274.97 19.9
1 -3 -5 133.79 14.4
-1 -3 5 168.38 14
1 -3 -5 126.59 14.4
-1 -3 5 131.09 12.6
-1 3 5 185.88 15.1
1 3 -5 136.89 13.2
1 3 -5 148.69 13.7
-1 3 5 119.89 13.9
-1 -3 -5 287.57 20
1 -3 5 276.07 20.6
-1 -3 -5 308.37 20.4
1 -3 5 269.37 19.9
-1 3 -5 308.17 20.6
-1 3 -5 303.17 20.2
1 3 5 250.67 20
1 3 5 295.37 20.5
-5 -3 -5 1172.78 65.59
5 -3 5 1150.98 66.69
-5 -3 -5 1044.6 65.49
5 3 5 1196.98 65.69
-5 3 -5 1018 66.29
5 3 5 1054.09 65.49
-5 3 -5 1123.99 66.59
7 -3 5 443.56 29
-7 3 -5 454.35 28.3
-7 3 -5 428.26 28.6
9 -3 5 4.2 7.5
-9 3 -5 15.3 7
-9 3 -5 10.8 6.8
-11 3 -5 1477.15 90.79
-11 3 -5 1576.24 91.49
-13 3 -5 141.89 13.4
-13 3 -5 136.59 12.3
-16 4 5 14.1 8.3
-12 4 5 130.49 14.5
-12 4 5 81.29 13.6
10 -4 -5 176.68 18.6
-10 4 5 213.68 18.3
-10 4 5 196.38 20.3
-8 -4 5 211.88 15
8 -4 -5 242.38 18.8
-8 -4 5 196.08 16.5
-8 4 5 218.08 18.4
8 4 -5 225.58 16.3
-8 4 5 210.58 19.9
-6 -4 5 201.68 15.6
6 -4 -5 200.88 17.1
-6 -4 5 177.48 13.6
-6 4 5 185.68 16.3
6 4 -5 189.78 14.9
-6 4 5 181.48 17.5
-4 -4 5 1036.2 61.69
4 -4 -5 1012.3 62.99
4 -4 -5 1090.49 62.99
-4 -4 5 1009.4 62.09
4 4 -5 974.2 61.59
4 4 -5 1106.99 61.99
-4 4 5 1021.7 62.69
-4 4 5 1014.1 63.19
0 -4 5 -5.6 7.1
0 -4 5 -2.3 5.8
0 -4 -5 10.8 7.4
0 -4 -5 2.2 7.1
0 4 5 1.5 6.9
0 4 -5 10.6 6.3
0 4 -5 -4.3 7
0 4 5 9.6 7.8
2 -4 5 248.78 18.6
-2 -4 -5 255.47 18.7
-2 -4 -5 250.17 19
2 -4 5 276.57 20
2 4 5 253.17 18.7
2 4 5 274.57 19.1
-2 4 -5 286.27 19.5
-2 4 -5 256.87 19
4 -4 5 763.02 54.29
4 -4 5 919.01 55.09
-4 -4 -5 964.9 53.89
-4 -4 -5 879.01 53.89
4 4 5 893.31 53.89
-4 4 -5 950.1 54.89
-4 4 -5 828.32 54.49
4 4 5 1005.9 54.09
6 -4 5 1349.86 80.69
-6 4 -5 1371.16 80.69
-6 4 -5 1312.47 80.29
8 -4 5 739.13 47.5
-8 4 -5 767.72 47.4
-8 4 -5 779.92 47
10 -4 5 336.57 24.5
-10 4 -5 321.57 24.2
-10 4 -5 346.77 23.4
-12 4 -5 1581.64 93.89
-12 4 -5 1538.25 92.99
-14 4 -5 393.86 26.7
-16 4 -5 54.39 9.4
-13 5 5 337.67 27.7
11 -5 -5 9.8 10
-11 5 5 14.3 9.5
-11 5 5 -0.3 11
9 -5 -5 914.61 63.79
-9 -5 5 1037.5 61.99
-9 -5 5 1092.29 61.49
-9 5 5 1090.19 64.59
-9 5 5 1018.5 63.99
7 -5 -5 1790.62 105.09
-7 -5 5 1752.32 103.89
-7 -5 5 1641.24 103.29
7 5 -5 1725.33 103.69
-7 5 5 1762.72 105.29
-7 5 5 1849.02 105.19
5 -5 -5 1336.27 82.49
-5 -5 5 1221.48 80.89
5 -5 -5 1395.06 82.49
-5 -5 5 1311.27 81.39
5 5 -5 1398.56 81.39
-5 5 5 1341.07 82.39
5 5 -5 1540.05 82.89
-5 5 5 1410.86 82.69
-3 -5 5 239.38 18.2
3 -5 -5 249.97 19.9
-3 -5 5 242.08 16.8
3 -5 -5 234.88 19.9
3 5 -5 230.78 18
-3 5 5 242.18 20.4
3 5 -5 234.28 17.6
-3 5 5 248.78 18.9
1 -5 -5 613.34 35.2
1 -5 -5 508.15 34.9
-1 -5 5 539.25 34.6
-1 -5 5 464.95 33.7
-1 5 5 580.24 35.5
-1 5 5 547.95 34.9
1 5 -5 532.45 34.1
1 5 -5 549.15 34.5
-1 -5 -5 9 7.2
-1 -5 -5 17.5 7.6
1 -5 5 15.9 8.1
1 -5 5 12.7 6.3
-1 5 -5 7.5 7.3
1 5 5 3.4 7.4
1 5 5 2.5 7.6
-1 5 -5 7.5 7.3
-3 -5 -5 125.19 12.3
-3 -5 -5 161.08 12.3
3 -5 5 133.29 14.6
3 -5 5 138.99 11.9
-3 5 -5 129.49 13.6
-3 5 -5 109.99 11.3
3 5 5 130.69 13
5 -5 5 2778.42 167.08
-5 5 -5 2937.11 167.18
5 5 5 2926.11 166.08
-5 5 -5 2673.43 166.68
7 -5 5 729.43 45.5
-7 5 -5 727.83 44.7
-7 5 -5 708.33 45.2
9 -5 5 210.58 18.8
-9 5 -5 214.78 17.7
-9 5 -5 216.08 18.3
11 -5 5 69.99 17.6
-11 5 -5 54.89 10.8
-11 5 -5 61.49 9.8
-13 5 -5 145.89 13.6
-15 5 -5 88.29 11
-17 5 -5 -10.3 8.6
-16 6 5 67.49 11.3
-12 6 5 11.8 11.9
10 -6 -5 10.8 10.1
-10 6 5 -5.9 8.9
-10 6 5 12.2 11.9
-8 -6 5 65.19 8.8
-8 -6 5 45.5 6.6
8 -6 -5 32 10.1
-8 6 5 42.3 10.1
-8 6 5 41.8 11.3
8 6 -5 51.39 8.1
-6 6 5 4084.49 241.08
-4 -6 5 220.68 15.5
-4 -6 5 179.78 16.5
4 -6 -5 199.38 18.9
4 -6 -5 198.58 19.2
-4 6 5 238.08 19.7
-4 6 5 223.68 17.5
4 6 -5 199.08 16.1
-2 -6 5 66.79 7.7
-2 -6 5 62.89 9
2 -6 -5 51.09 10.2
2 -6 -5 74.39 10.6
-2 6 5 59.49 9.2
-2 6 5 60.49 10.6
2 6 -5 67.99 9.5
2 6 -5 62.09 8.6
0 -6 5 -1.1 8
0 -6 -5 9.2 8.5
0 -6 5 -6.9 5.7
0 -6 -5 9.3 7.3
0 6 5 5.6 8.5
0 6 -5 6.8 7.6
0 6 -5 3.1 7.2
0 6 5 2.8 7.7
-2 -6 -5 113.29 12.5
-2 -6 -5 99.89 10.7
2 -6 5 108.39 10.7
2 -6 5 93.99 11.4
2 6 5 115.19 11.1
-2 6 -5 116.19 11.4
-2 6 -5 91.59 10.2
2 6 5 145.49 13.8
-4 -6 -5 128.59 13.1
4 -6 5 148.79 15.9
-4 -6 -5 147.29 13
4 -6 5 134.69 13.9
-4 6 -5 145.89 13.9
4 6 5 154.98 13.2
-4 6 -5 126.89 14.2
4 6 5 145.19 13.4
-6 -6 -5 1846.12 105.49
-6 -6 -5 1881.61 105.39
6 -6 5 1878.91 107.09
-6 6 -5 1667.83 106.79
6 6 5 1899.11 105.49
-6 6 -5 1533.75 106.09
8 -6 5 320.37 24.3
-8 6 -5 312.17 23.8
-8 6 -5 322.47 22.9
10 -6 5 31.8 10.1
-10 6 -5 22.4 9.4
-10 6 -5 27.4 8.3
-12 6 -5 106.99 13.8
-12 6 -5 108.29 12.3
-14 6 -5 19.3 8.8
-16 6 -5 168.18 17
-13 7 5 1242.38 77.79
-11 7 5 15.1 10.3
-11 7 5 -9.6 11.4
9 -7 -5 67.29 12.5
-9 -7 5 81.89 9
-9 -7 5 81.09 9.9
-9 7 5 81.69 12.3
-9 7 5 62.49 13.5
-7 -7 5 428.56 27.7
-7 -7 5 398.46 26.3
7 -7 -5 418.46 30.1
-7 7 5 410.06 29.6
7 7 -5 408.86 27.2
-7 7 5 435.16 30.9
-5 -7 5 491.05 34
5 -7 -5 539.95 35.8
-5 -7 5 585.24 33.3
-5 7 5 531.95 35.4
-5 7 5 444.76 36
5 7 -5 578.84 33.8
-3 -7 5 9.1 5.6
-3 -7 5 6.6 7.7
3 -7 -5 0.9 8.4
3 -7 -5 12.6 8.8
-3 7 5 11.5 10.1
3 7 -5 10.9 7.5
3 7 -5 12.2 7.4
-3 7 5 11.1 7.5
-1 -7 5 300.97 22.4
-1 -7 5 324.67 24
1 -7 -5 310.47 24.5
1 -7 -5 362.56 24.4
-1 7 5 329.27 23.9
1 7 -5 305.47 23.1
-1 7 5 353.06 25.2
1 7 -5 330.17 23.8
1 -7 5 1868.21 114.49
-1 -7 -5 1946.91 114.29
1 -7 5 1831.62 113.89
-1 -7 -5 2070.69 114.49
1 7 5 1895.81 114.29
-1 7 -5 1974.2 114.49
-1 7 -5 1750.62 113.99
1 7 5 2033 114.59
3 -7 5 282.77 21.4
-3 -7 -5 262.87 19.3
3 -7 5 252.97 19.7
-3 -7 -5 249.58 19.6
-3 7 -5 275.37 19.8
-3 7 -5 246.68 20.2
3 7 5 285.97 19.6
3 7 5 232.98 19.8
-5 -7 -5 657.93 40.7
-5 -7 -5 652.23 40.6
5 -7 5 668.73 42.4
5 7 5 662.13 40.8
-5 7 -5 610.04 41.3
-5 7 -5 701.13 42.2
-7 -7 -5 62.49 7.3
-7 -7 -5 49.9 7
7 -7 5 42 10
7 7 5 57.79 7.3
-7 7 -5 42.7 9.9
-7 7 -5 36.5 8.3
9 -7 5 1485.85 93.59
-9 7 -5 1619.24 92.89
-9 7 -5 1526.05 93.69
-11 7 -5 3.3 8.4
-11 7 -5 -0.5 9.5
-13 7 -5 590.04 38.7
-15 7 -5 34.9 9.8
-12 8 5 999.7 64.39
10 -8 -5 22.9 11.6
-10 -8 5 0.8 7.6
-10 -8 5 11.2 5
-10 8 5 18.8 12
-10 8 5 0.8 10
-8 -8 5 275.07 21
8 -8 -5 268.87 24.2
-8 -8 5 277.37 18.9
-8 8 5 271.97 25.1
8 8 -5 282.27 20.3
-8 8 5 297.67 23.7
6 -8 -5 443.86 30.2
-6 -8 5 416.06 27.5
-6 -8 5 387.46 26.3
-6 8 5 398.66 29.2
-6 8 5 434.26 30.8
6 8 -5 385.56 27
4 -8 -5 24.6 10.4
4 -8 -5 26.2 9.5
-4 -8 5 19 7.9
-4 -8 5 17.9 6.1
-4 8 5 30.3 10.1
-4 8 5 18.9 8.2
4 8 -5 8.6 7
-2 -8 5 0.7 8.6
2 -8 -5 -7.1 8.5
2 -8 -5 1.9 8.5
-2 -8 5 -2.3 5.5
-2 8 5 5.5 7.4
2 8 -5 -10.8 6.9
2 8 -5 2.6 7.7
-2 8 5 -4.4 9.2
0 -8 5 527.65 37.2
0 -8 5 654.73 38.8
0 -8 -5 616.44 38.8
0 -8 -5 680.73 38.6
0 8 -5 545.45 37.5
0 8 5 532.65 38.1
0 8 -5 561.24 38
0 8 5 622.94 38.9
2 -8 5 1590.84 98.39
-2 -8 -5 1552.24 98.39
2 -8 5 1630.14 98.99
-2 -8 -5 1714.73 98.69
-2 8 -5 1687.43 98.89
2 8 5 1772.02 98.89
2 8 5 1575.94 98.39
-4 -8 -5 31 8.2
-4 -8 -5 36.5 7.8
4 -8 5 47.1 10
-4 8 -5 47.7 9.2
-4 8 -5 23.3 8.1
4 8 5 58.29 8.9
6 -8 5 10.1 9.1
-6 -8 -5 2.8 6.7
-6 -8 -5 0.2 6.5
-6 8 -5 5.5 8.1
-6 8 -5 -0.9 7.3
6 8 5 -3.6 6.8
-8 -8 -5 2254.37 130.79
8 -8 5 2055.69 132.79
-8 8 -5 2231.08 132.99
-8 8 -5 2330.57 132.19
10 -8 5 21 11.1
-10 8 -5 28 9.3
-10 8 -5 24.6 10.7
-12 8 -5 3.5 8.8
-14 8 -5 1219.08 74.69
-16 8 -5 128.19 15
-13 9 5 208.58 22.2
-11 9 5 2.9 13.1
9 -9 -5 10.5 11.7
-9 -9 5 1.8 8
-9 -9 5 6.3 5.6
-9 9 5 10.3 10.3
-9 9 5 -5.9 11.8
7 -9 -5 20.3 10.9
-7 -9 5 21 6.2
-7 -9 5 16 8.5
-7 9 5 27.7 12.2
7 9 -5 21.2 8.1
-7 9 5 43.8 10.5
-5 -9 5 21.5 8.3
-5 -9 5 27.7 6.6
5 -9 -5 34.8 10.2
-5 9 5 5.7 8.8
5 9 -5 11.4 7.5
-5 9 5 6.1 10
3 -9 -5 1725.43 94.59
3 -9 -5 1590.54 94.29
-3 -9 5 1352.06 92.59
-3 -9 5 1510.75 93.29
-3 9 5 1722.63 94.79
-3 9 5 1582.94 94.09
3 9 -5 1412.66 92.89
3 9 -5 1582.44 93.59
1 -9 -5 210.68 20.4
-1 -9 5 270.97 18.8
1 -9 -5 209.08 20.5
-1 -9 5 245.88 20.8
-1 9 5 218.08 22
1 9 -5 250.97 19.4
-1 9 5 230.58 20
1 9 -5 239.58 20.4
1 -9 5 5358.26 315.07
3 -9 5 659.83 43
-3 -9 -5 636.34 41.8
-3 -9 -5 720.93 42.2
-3 9 -5 595.44 41.8
3 9 5 672.33 42.2
-3 9 -5 665.83 42.5
-7 -9 -5 288.87 21.1
7 -9 5 304.87 24.4
-7 -9 -5 295.87 20.5
-7 9 -5 272.67 22.5
-7 9 -5 280.87 23.6
7 9 5 290.37 21.2
9 -9 5 101.09 14.5
-9 9 -5 104.49 14.6
-9 9 -5 107.79 12.2
-11 9 -5 609.44 40.2
-13 9 -5 137.29 14.9
-15 9 -5 287.07 24
-12 10 5 23.5 14.2
-10 -10 5 589.84 36.4
-10 10 5 513.75 40.8
-8 -10 5 82.29 9.6
8 -10 -5 80.89 14.9
-8 -10 5 113.49 11.8
-8 10 5 100.99 14.6
8 10 -5 115.29 11.6
-8 10 5 92.89 16.1
-6 -10 5 1048.7 63.79
6 -10 -5 1067.59 65.89
-6 -10 5 1035.5 63.19
6 10 -5 1101.49 63.49
-6 10 5 946.61 65.29
-6 10 5 1043.1 66.29
-4 -10 5 4008.9 236.68
4 -10 -5 3915.21 237.88
4 -10 -5 4207.78 238.18
-4 -10 5 3867.91 236.88
4 10 -5 3953.6 236.68
-4 10 5 3969 238.08
-4 10 5 4238.38 238.08
-2 -10 5 760.92 47.7
2 -10 -5 730.03 49.2
2 -10 -5 733.93 49.3
-2 -10 5 735.03 48.7
-2 10 5 810.62 50.09
2 10 -5 784.02 48.7
2 10 -5 803.32 48.1
-2 10 5 780.62 48.9
0 -10 5 816.52 51.09
0 -10 -5 840.22 52.29
0 -10 -5 824.52 51.99
0 -10 5 817.52 52.09
0 10 -5 776.32 51.09
0 10 5 800.62 52.59
0 10 5 839.72 51.99
0 10 -5 854.81 51.99
2 -10 5 62.79 11
-2 -10 -5 68.09 10
-2 -10 -5 58.39 10.2
-2 10 -5 46.7 9.4
-2 10 -5 58.49 10.1
2 10 5 52.49 9.9
2 10 5 58.09 10.7
-6 -10 -5 193.78 17.7
-6 -10 -5 220.98 17.6
6 -10 5 182.58 20.7
-6 10 -5 212.18 20
6 10 5 211.78 18.1
-6 10 -5 187.58 18.5
8 -10 5 -5.3 10.4
-8 -10 -5 6.9 7.8
-8 -10 -5 18.1 7.3
-8 10 -5 8.3 9.9
-8 10 -5 6.6 8.8
-10 10 -5 1384.16 84.39
-12 10 -5 -5.3 9.3
-14 10 -5 106.79 14.3
-13 11 5 380.06 33.6
-11 -11 5 13 7.9
-11 -11 5 -2.6 8.5
-11 11 5 8.6 13.8
-9 -11 5 37.5 9.5
9 -11 -5 21.6 13.6
-9 11 5 -2.2 13.8
-9 11 5 26.2 12.4
-7 -11 5 139.19 14
-7 -11 5 156.78 14.4
7 -11 -5 175.18 18.2
7 11 -5 136.69 15.4
-7 11 5 133.49 18
-7 11 5 161.08 17.1
5 -11 -5 3.4 10.8
-5 -11 5 11.7 7.1
-5 -11 5 2.7 8.5
-5 11 5 3.9 11.3
-5 11 5 -2.8 9.2
5 11 -5 13.3 8
3 -11 -5 146.49 16.4
3 -11 -5 138.49 15.7
-3 -11 5 170.68 15.3
-3 -11 5 167.98 15.6
3 11 -5 165.38 16.3
-3 11 5 160.78 15.9
-3 11 5 166.28 17.7
-1 -11 5 924.71 55.99
1 -11 -5 915.51 57.19
-1 -11 5 910.51 56.99
1 -11 -5 916.31 57.19
-1 11 5 894.81 56.89
-1 11 5 923.71 57.79
1 11 -5 836.22 55.89
1 11 -5 911.41 56.89
1 -11 5 175.48 18.9
-1 -11 -5 171.88 18.5
-1 -11 -5 158.28 17.9
-1 11 -5 175.78 17.2
-1 11 -5 178.78 18.1
1 11 5 179.78 17.7
1 11 5 181.68 18.4
3 -11 5 113.29 14.4
-3 -11 -5 89.79 12.3
-3 -11 -5 94.79 12.6
3 -11 5 99.89 13.6
3 11 5 87.89 13
-3 11 -5 127.79 13.2
-3 11 -5 107.19 13.2
5 -11 5 1211.58 72.49
-5 -11 -5 1108.59 71.19
-5 -11 -5 1185.18 70.89
-5 11 -5 1197.58 71.39
5 11 5 1042.6 70.99
-5 11 -5 1226.88 72.39
7 -11 5 384.36 31.6
-7 -11 -5 411.56 28.6
-7 -11 -5 417.36 28.2
-7 11 -5 428.56 29.7
7 11 5 403.46 28.8
-7 11 -5 426.66 31.3
-9 -11 -5 59.89 8.6
9 -11 5 33 13.3
-9 -11 -5 46.7 9.2
-9 11 -5 34.8 12
-9 11 -5 31.2 10.8
-11 11 -5 0.1 10
-13 11 -5 275.87 24.1
-15 11 -5 189.18 21.1
-12 -12 5 170.38 16.4
-12 -12 5 161.78 14.9
-12 12 5 145.39 20.7
-10 -12 5 6.3 9.2
-10 -12 5 6.9 9.3
-10 12 5 -4.2 13.9
-8 -12 5 373.26 27.8
8 -12 -5 373.66 32.4
-8 12 5 422.76 31.5
8 12 -5 390.86 27.1
-8 12 5 349.07 32.7
-6 -12 5 80.29 12.1
6 -12 -5 80.39 14.6
6 12 -5 95.39 11.7
-6 12 5 98.89 16.3
-6 12 5 85.09 14.4
-4 -12 5 575.84 41.3
-4 -12 5 662.83 42.7
4 -12 -5 672.33 44.3
4 12 -5 596.14 42
-4 12 5 703.93 43.8
-4 12 5 758.22 45.8
2 -12 -5 -2.5 10.4
-2 -12 5 -2.1 9.9
2 -12 -5 2.6 9.7
-2 -12 5 2.9 7.2
2 12 -5 -3.9 8
-2 12 5 0.8 9.3
-2 12 5 2 11
0 -12 5 383.26 30.1
0 -12 -5 412.16 30
0 -12 -5 385.16 29.6
0 12 -5 422.56 29.9
0 12 5 410.36 29.7
0 12 -5 397.36 28.8
0 12 5 391.16 30.8
2 -12 5 1887.71 108.99
-2 -12 -5 1778.82 107.89
-2 -12 -5 1867.21 108.29
2 -12 5 1758.72 108.49
2 12 5 1811.22 108.39
-2 12 -5 1777.02 108.39
-2 12 -5 1663.53 107.49
-4 -12 -5 55.69 10.9
4 -12 5 61.99 12.6
-4 -12 -5 76.59 11.9
4 12 5 89.09 12.4
-4 12 -5 62.49 11.8
-4 12 -5 32.8 10.4
-6 -12 -5 41.2 10.5
-6 -12 -5 46.3 10.3
6 -12 5 54.59 12.8
6 12 5 54.29 11
-6 12 -5 41.4 12
-6 12 -5 36.1 10
-8 -12 -5 436.16 30.2
8 -12 5 485.85 35.1
-8 -12 -5 410.76 31.1
-8 12 -5 453.15 34
-8 12 -5 451.95 32.2
8 12 5 459.45 29.4
-10 -12 -5 176.58 16.8
-10 -12 -5 174.48 15.5
-10 12 -5 160.18 17.3
-12 12 -5 28.3 11
-14 12 -5 628.54 42.7
-13 13 5 127.99 19.6
-11 -13 5 125.89 13.8
-11 -13 5 119.89 13.7
-11 13 5 126.89 19.4
-9 -13 5 48.4 11.2
-9 -13 5 77.19 11.4
9 13 -5 62.99 10.9
-9 13 5 37.3 15.5
-7 -13 5 10.5 9.9
-7 -13 5 1.3 9.8
7 -13 -5 10.6 12.4
-7 13 5 22 13.8
-7 13 5 12.3 11.5
7 13 -5 22.3 9.1
-5 -13 5 168.88 19.9
5 -13 -5 214.98 20.3
-5 13 5 233.98 21.7
-5 13 5 200.18 20.9
5 13 -5 204.68 19
3 -13 -5 128.59 15.6
-3 -13 5 131.09 14.4
3 -13 -5 133.29 16
-3 13 5 148.09 17.2
3 13 -5 86.29 12.6
-3 13 5 121.09 15.2
1 -13 -5 271.07 23.5
1 -13 -5 222.38 22.6
-1 -13 5 210.88 22.3
1 13 -5 261.47 21
-1 13 5 219.78 22.1
-1 13 5 223.08 24.5
1 -13 5 399.56 31.1
-1 -13 -5 356.76 29.9
-1 -13 -5 397.66 30.1
1 -13 5 379.56 30.3
1 13 5 346.47 31.3
-1 13 -5 440.36 28.9
-1 13 -5 413.06 30.1
-3 -13 -5 43.2 11.2
3 -13 5 48.2 12.2
-3 -13 -5 67.59 11.9
3 -13 5 51.59 13.2
-3 13 -5 56.19 10.8
-3 13 -5 72.49 12.4
3 13 5 37.8 11.7
-5 -13 -5 136.49 15.1
-5 -13 -5 103.29 13.4
5 -13 5 144.19 16.5
-5 13 -5 88.89 13.3
5 13 5 130.79 14.7
-5 13 -5 112.79 15
7 -13 5 130.89 17.8
-7 -13 -5 182.18 16.2
-7 -13 -5 145.49 14.2
-7 13 -5 99.79 14.6
-7 13 -5 134.09 17
-9 -13 -5 220.28 20.5
-9 -13 -5 257.87 22.1
-9 13 -5 301.07 23.8
-11 -13 -5 -12 8.1
-11 -13 -5 -0.2 7.5
-11 13 -5 -2.1 10.5
-13 13 -5 108.59 15.1
-12 -14 5 222.28 20.3
-12 14 5 200.88 24.4
-10 -14 5 71.99 12.4
-10 -14 5 100.49 12.9
-10 14 5 62.69 17.4
8 -14 -5 7.4 13.7
-8 -14 5 -8.7 9.9
-8 -14 5 -2.9 10
8 14 -5 -4.2 9.1
-8 14 5 -5.2 13.7
-6 -14 5 2576.74 154.78
6 -14 -5 2684.93 156.98
-6 -14 5 2698.43 155.58
-6 14 5 2547.95 156.88
-6 14 5 2453.35 156.38
6 14 -5 2611.44 154.48
4 -14 -5 327.77 28.8
-4 -14 5 323.87 26.6
-4 -14 5 314.27 27.3
-4 14 5 336.87 30.3
-4 14 5 318.97 27.7
4 14 -5 344.67 25.3
-2 -14 5 7 10.7
2 -14 -5 13.3 10.7
-2 -14 5 12.9 10.3
2 -14 -5 7.6 11.8
2 14 -5 -4.6 8.5
-2 14 5 8 12.4
-2 14 5 29.5 11
0 -14 5 268.27 25.6
0 -14 -5 270.27 24.6
0 -14 -5 251.37 25.1
0 -14 5 268.17 25.1
0 14 -5 274.17 23.2
0 14 5 253.27 26.1
0 14 -5 298.97 27.6
-2 -14 -5 354.56 26.6
-2 -14 -5 293.47 26.2
2 -14 5 363.26 28
2 -14 5 289.97 27.3
-2 14 -5 248.78 24.8
-2 14 -5 317.77 26.3
2 14 5 324.67 27.3
-4 -14 -5 10.1 10.4
-4 -14 -5 13.9 10.2
4 -14 5 23.9 11.9
-4 14 -5 23.1 10.1
4 14 5 23.8 11.5
-4 14 -5 4.7 10.3
6 -14 5 662.03 45.5
-6 -14 -5 630.04 42.4
-6 -14 -5 663.03 43.5
-6 14 -5 659.03 43.5
-6 14 -5 656.63 44.9
6 14 5 603.74 43.3
-8 -14 -5 110.79 13.6
-8 -14 -5 83.39 12
8 14 5 74.99 11
-8 14 -5 33 12.3
-10 -14 -5 102.79 14.2
-10 -14 -5 121.89 13
-10 14 -5 142.79 15.8
-12 14 -5 15.6 11.8
-14 14 -5 323.77 27.9
-13 -15 5 544.45 36.6
-11 -15 5 15.9 10.8
-11 15 5 35.5 16.8
-9 -15 5 945.31 60.99
-9 -15 5 1009.8 60.29
-9 15 5 906.61 64.49
-7 -15 5 806.32 53.19
-7 -15 5 819.92 52.39
7 -15 -5 772.02 55.99
-7 15 5 871.61 55.69
7 15 -5 799.92 51.99
-7 15 5 819.22 56.19
5 -15 -5 188.58 20.6
-5 -15 5 187.38 19.8
-5 -15 5 180.58 18.5
-5 15 5 198.68 20.6
-5 15 5 168.68 21.6
5 15 -5 196.38 19.7
3 -15 -5 366.86 31.8
-3 -15 5 411.76 31.5
3 -15 -5 456.05 35.7
-3 -15 5 386.36 30.3
3 15 -5 361.56 28.6
-3 15 5 392.46 32.9
-3 15 5 366.66 30.7
-1 -15 5 15.3 11.7
-1 -15 5 1.9 11
1 -15 -5 16 12
1 -15 -5 33.1 12
-1 15 5 18.6 12.7
1 15 -5 7 9.1
-1 -15 -5 986.3 64.09
1 -15 5 1022.7 64.39
-1 -15 -5 997.2 64.19
1 -15 5 1125.89 65.19
-1 15 -5 989.4 63.89
1 15 5 936.01 64.39
-1 15 -5 962.8 62.89
3 -15 5 353.06 32
-3 -15 -5 426.16 31.5
-3 -15 -5 406.56 31.4
-3 15 -5 422.86 31.8
3 15 5 413.46 32.2
-3 15 -5 395.86 30.4
-5 -15 -5 7 10.7
-5 -15 -5 10 11
5 -15 5 7 12.4
-5 15 -5 1.3 11.7
-5 15 -5 10.9 10.4
5 15 5 5.6 11.7
-7 -15 -5 67.29 13.3
7 -15 5 72.39 16.1
-7 -15 -5 89.09 13
-7 15 -5 55.19 12.8
-9 -15 -5 61.29 11.6
-9 -15 -5 63.79 12.9
-9 15 -5 48.2 13.4
-11 -15 -5 127.89 13.7
-11 -15 -5 147.49 15.9
-11 15 -5 140.49 17
-13 15 -5 85.09 14.9
-14 -16 5 11.2 10.5
-12 -16 5 30.8 11.3
-12 16 5 2.1 17
-10 -16 5 7.5 11.2
-10 16 5 10.2 16.6
-8 -16 5 46.6 12
-8 16 5 10.9 15.9
6 -16 -5 148.69 20.1
-6 -16 5 131.39 17.6
-6 -16 5 153.38 17.1
-6 16 5 169.38 19.1
-6 16 5 114.09 19.7
6 16 -5 194.88 19.3
4 -16 -5 371.56 31.9
-4 -16 5 355.46 29.7
-4 -16 5 390.46 30.6
-4 16 5 373.66 30.8
-4 16 5 416.96 33.2
4 16 -5 306.07 27.9
-2 -16 5 1005.2 66.49
2 -16 -5 1029 66.69
-2 -16 5 1041.4 65.89
2 -16 -5 1109.49 66.99
-2 16 5 1084.69 66.49
2 16 -5 995.5 64.59
-2 16 5 953.5 67.29
0 -16 5 17.1 12.6
0 -16 5 -1.2 11.8
0 -16 -5 -13.1 10.6
0 -16 -5 -4.5 12.6
0 16 -5 -1.3 9.6
0 16 5 -10.1 12.6
2 -16 5 69.89 14.3
-2 -16 -5 50.09 13.1
2 -16 5 52.59 13.9
-2 -16 -5 54.49 13.4
-2 16 -5 49.2 12.6
-2 16 -5 50.69 12.3
2 16 5 29.9 13.7
-4 -16 -5 1654.03 100.69
4 -16 5 1575.34 101.89
-4 -16 -5 1744.43 101.59
-4 16 -5 1698.03 102.29
4 16 5 1663.73 101.49
-4 16 -5 1557.84 100.59
6 -16 5 120.59 17.8
-6 -16 -5 140.99 16.9
-6 -16 -5 110.19 14.7
-6 16 -5 112.29 17.4
6 16 5 126.39 16.7
-6 16 -5 84.09 15
-8 -16 -5 256.87 25.1
-8 -16 -5 267.37 23.9
-8 16 -5 289.37 25.4
-10 -16 -5 24.4 10.2
-10 16 -5 -0.6 11.9
-12 -16 -5 526.55 38.3
-12 16 -5 700.43 42.6
-13 -17 5 51.69 12.5
-11 -17 5 27.9 11.9
-11 17 5 18.1 17.3
-9 -17 5 42 12.1
-9 17 5 35.2 17.3
-7 -17 5 217.88 23.1
-7 17 5 237.48 24.9
-5 -17 5 11.9 12.3
-5 -17 5 10.2 12.3
5 -17 -5 7.2 14.1
-5 17 5 5.2 12.3
5 17 -5 14.6 10.9
-5 17 5 1 14.9
-3 -17 5 539.75 38.9
3 -17 -5 559.14 40.8
-3 -17 5 465.15 39.9
-3 17 5 589.64 40.3
-3 17 5 502.25 41
3 17 -5 538.25 37.5
-1 -17 5 30.9 12.7
1 -17 -5 26.6 12.7
1 -17 -5 10 13.2
-1 -17 5 22.5 13.4
1 17 -5 19.9 11
-1 17 5 35.9 14.3
-1 -17 -5 48.7 13.9
-1 -17 -5 20.8 13.3
1 -17 5 36.4 14
1 -17 5 44.6 13.5
1 17 5 16.4 14
-1 17 -5 37.5 11.2
-3 -17 -5 193.28 21.3
3 -17 5 231.18 25.5
-3 -17 -5 216.68 23.7
-3 17 -5 184.48 21.6
-3 17 -5 245.78 22.8
3 17 5 240.58 26.2
5 -17 5 692.43 48.1
-5 -17 -5 651.83 45.3
-5 -17 -5 662.73 46.5
-5 17 -5 597.14 45.3
5 17 5 669.33 47
-5 17 -5 759.82 47.9
-7 -17 -5 11.2 11.1
-7 17 -5 23.4 12.4
-9 -17 -5 -2.1 10.6
-9 17 -5 -7.3 11.5
-11 -17 -5 162.38 16.6
-11 17 -5 166.88 19.1
-13 17 -5 20.6 13
-12 -18 5 42.5 12.6
-10 -18 5 21.8 12.3
-10 18 5 2.8 17.2
-8 -18 5 50.29 13.2
-8 18 5 66.39 18.8
-6 -18 5 1225.58 73.79
6 -18 -5 1294.07 77.49
-6 18 5 984.9 75.99
-4 -18 5 -0.3 12.7
-4 -18 5 0.8 12
4 -18 -5 5.1 14.3
-4 18 5 2 15.2
4 18 -5 7.6 11.1
-4 18 5 11.4 12.7
2 -18 -5 1041.2 65.19
-2 -18 5 989.6 63.59
2 -18 -5 934.51 64.69
-2 -18 5 1049.3 64.79
2 18 -5 900.51 62.39
-2 18 5 963.2 65.29
0 -18 5 120.99 17.2
0 -18 -5 133.19 17.8
0 -18 -5 123.29 18
0 -18 5 148.19 19.5
0 18 -5 96.59 14.9
0 18 5 107.89 18.1
-2 -18 -5 177.38 20.5
-2 -18 -5 184.68 19.4
2 -18 5 160.98 20
2 18 5 205.88 21.6
-2 18 -5 169.48 18.3
-4 -18 -5 27.4 13.3
4 -18 5 13.2 14.1
-4 -18 -5 20.7 11.9
4 18 5 20.5 14.3
-4 18 -5 18.7 12.9
-4 18 -5 6.1 11.2
6 -18 5 88.49 17.9
-6 -18 -5 87.59 14.8
-6 18 -5 91.39 14.7
-8 -18 -5 136.99 16.2
-8 18 -5 112.79 17.2
-10 -18 -5 27.6 12
-10 18 -5 33 13.9
-12 -18 -5 265.07 24.1
-12 18 -5 333.57 28.5
-13 -19 5 -1 11.8
-11 -19 5 147.09 17.1
-11 19 5 105.29 22.2
-9 -19 5 177.38 19.2
-9 19 5 174.68 23.9
-7 -19 5 41.3 13.4
-7 19 5 36 17.7
5 -19 -5 170.38 22.6
-5 -19 5 236.28 24
-5 19 5 150.08 21.8
3 -19 -5 325.17 29.7
-3 -19 5 265.67 27.2
3 19 -5 252.37 25.2
-3 19 5 247.88 26.2
-1 -19 5 109.39 17.5
1 -19 -5 94.99 17.2
-1 -19 5 133.49 18.7
1 -19 -5 132.39 18.7
1 19 -5 95.69 15.6
-1 19 5 125.69 19.3
1 -19 5 29.3 14.9
-1 -19 -5 13.4 13.7
-1 -19 -5 37.3 14.2
1 -19 5 26.6 14.2
1 19 5 24.8 15.7
-1 19 -5 16.9 11.6
-3 -19 -5 1080.19 67.19
3 -19 5 1051.49 68.49
-3 19 -5 1011.8 66.59
3 19 5 998.4 68.29
5 -19 5 71.59 17.4
-5 -19 -5 74.99 14.9
-5 19 -5 83.49 14.4
-7 -19 -5 58.69 13.6
-7 19 -5 48.7 13.8
-9 -19 -5 9.6 11.9
-9 19 -5 13.2 13
-11 -19 -5 81.69 13.7
-11 19 -5 61.49 15.7
-13 -19 -5 65.39 12.4
-13 19 -5 97.29 17.3
-12 -20 5 35.3 13.5
-10 -20 5 10.5 12.6
-10 20 5 6.5 18.1
-8 -20 5 9.8 12.7
-8 20 5 17.7 17.5
-6 -20 5 1279.27 78.79
-6 20 5 1201.28 82.19
-4 -20 5 66.69 15
4 -20 -5 45 17.1
-4 20 5 29.3 17.3
2 -20 -5 -9.3 13.8
-2 -20 5 9.4 13.4
2 20 -5 -7.6 11.7
-2 20 5 -24.4 15.3
0 -20 5 44.5 15.2
0 -20 -5 51.29 15.2
0 -20 5 46.8 17
0 -20 -5 76.09 16.5
0 20 -5 33.2 13.6
0 20 5 40.5 17.1
2 -20 5 152.38 20.4
-2 -20 -5 150.58 20
2 20 5 141.69 21.5
-2 20 -5 189.88 19.6
4 -20 5 23 15.4
-4 -20 -5 -1.8 12.8
-4 20 -5 0.8 11.9
-6 -20 -5 350.96 29.3
-6 20 -5 295.87 29.3
-8 -20 -5 16.7 12.8
-8 20 -5 41.6 14.2
-10 -20 -5 6.3 12.4
-10 20 -5 7.2 13.8
-12 -20 -5 1.6 11.7
-12 20 -5 -27.9 13
-11 -21 5 31.6 13.9
-9 -21 5 -10 12.7
-9 21 5 -6.3 18.1
-7 -21 5 240.68 22.6
-7 21 5 176.78 25.6
5 -21 -5 2601.14 146.29
-5 -21 5 2382.36 142.39
-5 21 5 2061.29 144.29
3 -21 -5 32.2 16.5
-3 -21 5 8.5 14
-3 21 5 36.8 17.7
-1 -21 5 33.9 15
1 -21 -5 43.2 16.1
-1 21 5 43.8 18.4
1 21 -5 47 15.1
1 -21 5 14.9 14.8
1 -21 5 -0.2 16.1
-1 -21 -5 -0.5 14.3
-1 21 -5 10.9 12.5
1 21 5 15.9 17.2
-3 -21 -5 7.8 13.7
3 -21 5 -0.7 15.3
-3 21 -5 8.7 12.4
-5 -21 -5 133.19 17.9
-5 21 -5 119.89 18.2
-7 -21 -5 521.15 38.4
-7 21 -5 492.95 39.2
-9 -21 -5 147.99 18.6
-9 21 -5 157.28 20.4
-11 -21 -5 12 12.6
-11 21 -5 7.2 14.3
-10 -22 5 0.7 13.7
-8 -22 5 91.69 17.1
-8 22 5 94.89 22.2
-6 -22 5 901.11 57.09
-6 22 5 763.32 61.09
-4 -22 5 72.59 16.9
4 -22 -5 65.29 19.3
-4 22 5 65.09 19.8
-2 -22 5 208.98 23.5
2 -22 -5 224.88 25.7
-2 22 5 241.38 27.4
0 -22 5 62.59 17.8
0 -22 -5 103.49 18.2
0 22 -5 101.99 17.4
-2 -22 -5 172.38 21.4
2 -22 5 139.59 21.5
-2 22 -5 191.58 20.6
4 -22 5 1009.2 73.09
-4 -22 -5 1042.8 70.69
-4 22 -5 1204.08 71.59
-6 -22 -5 105.99 17.8
-6 22 -5 138.19 19
-8 -22 -5 -0.4 13.3
-8 22 -5 -16.9 13.2
-10 -22 -5 -1.3 13.4
-10 22 -5 -17.2 14.1
-12 22 -5 60.89 17
-9 -23 5 271.97 28.2
-7 -23 5 35.7 15.3
-7 23 5 17.1 18.8
-5 -23 5 14.4 14.9
-5 23 5 13.7 19.4
3 -23 -5 371.56 39.2
-3 -23 5 445.86 37.2
-3 23 5 471.65 42.2
1 -23 -5 73.09 18.2
-1 -23 5 90.39 17.9
-1 -23 -5 13.7 15.1
1 -23 5 -1.3 15
3 -23 5 1069.29 73.39
-3 -23 -5 1097.69 71.29
-5 -23 -5 73.89 16.9
-5 23 -5 68.39 16.4
-7 -23 -5 119.69 18.5
-7 23 -5 135.69 20.1
-9 -23 -5 30.2 14.6
-9 23 -5 13.8 15.1
-11 23 -5 173.28 23.3
-8 -24 5 56.79 16.7
-6 -24 5 38.8 16.2
-6 24 5 17.7 20.3
-4 -24 5 97.29 18.7
-4 24 5 70.49 21.6
-2 -24 5 473.85 40.1
2 -24 -5 499.75 42.2
0 -24 -5 -5.7 15.1
0 -24 5 -12.8 15
-2 -24 -5 36.1 15.8
2 -24 5 16.7 17.3
-4 -24 -5 58.29 17.2
-4 24 -5 76.69 17.3
-6 -24 -5 73.29 17.3
-6 24 -5 74.89 17.9
-8 -24 -5 4 14.5
-8 24 -5 22 15.5
-10 24 -5 254.57 27.2
-11 25 5 3.6 16.1
-9 -25 5 149.59 22
-7 -25 5 24.4 16.3
-5 -25 5 227.28 24.8
-5 25 5 151.28 27.2
3 -25 -5 10.5 17.7
-3 -25 5 15.5 16.3
1 -25 -5 9.9 16.6
-1 -25 5 8.5 15.9
-1 -25 -5 42.6 17.2
1 -25 5 42.5 18.1
-3 -25 -5 13.2 16
-5 -25 -5 147.59 21.9
-5 25 -5 209.78 22.8
-7 -25 -5 37.7 16.5
-7 25 -5 45.1 17.1
-9 25 -5 213.58 25.7
-11 25 -5 32.8 17.4
-10 26 5 7.2 17.3
-8 -26 5 21.2 17
-6 -26 5 10.3 16.3
-4 -26 5 5.2 16.5
2 -26 -5 30.4 19.1
-2 -26 5 16.6 17
0 -26 -5 -0.3 16.1
0 -26 5 13.9 17.5
-2 -26 -5 110.29 20.3
2 -26 5 119.09 22.8
-4 -26 -5 29.1 16.7
-6 -26 -5 25.4 16.9
-6 26 -5 33.8 17.5
-8 -26 -5 112.79 19.8
-8 26 -5 140.89 21.4
-10 26 -5 12.1 16.7
-9 27 5 30.9 18.2
-7 -27 5 287.67 29.6
-5 -27 5 97.39 20.4
-3 -27 5 22.6 17.5
1 -27 -5 107.79 22
-1 -27 5 73.59 19.9
1 -27 5 447.46 41.1
-1 -27 -5 367.16 39.3
-3 -27 -5 10.8 17.1
-5 -27 -5 -19.6 15.9
-7 -27 -5 77.79 18.4
-7 27 -5 20.6 17.5
-9 27 -5 65.39 19.4
-10 28 5 24.5 18.9
-6 -28 5 148.79 23.1
-4 -28 5 40.5 18.2
-2 -28 5 -7.1 17.3
0 -28 -5 3.2 18.5
0 -28 5 14.5 18.7
-2 -28 -5 33.5 18.4
-4 -28 -5 331.77 35.2
-6 -28 -5 -10.7 16.7
-10 28 -5 8.9 18.8
-5 -29 5 -14.6 17.3
-3 -29 5 158.48 24.9
1 -29 -5 -7.8 18.5
-1 -29 5 12.4 18.9
-1 -29 -5 19.9 19.3
-3 -29 -5 68.09 20.5
-5 -29 -5 465.95 41.9
-4 -30 5 101.69 22.2
-2 -30 5 10.3 19.3
0 -30 -5 -29.4 19
0 -30 5 -24.5 19.1
-2 -30 -5 -24.1 17.9
-4 -30 -5 260.07 29.6
-3 -31 5 40 20.7
-1 -31 5 2.8 21.1
-1 -31 -5 -15.5 19.8
-3 -31 -5 23 19.5
-2 -32 5 -5.4 20.1
-2 -32 -5 54.19 22.1
-1 -33 -5 17.6 21.7
-14 0 6 -5.4 7.2
-12 0 6 88.89 10.7
-10 0 6 159.28 14.6
-10 0 6 156.68 14.9
8 0 -6 317.67 22.5
-8 0 6 292.77 21.7
-8 0 6 332.07 22.9
4 0 -6 71.69 8.6
-4 0 6 70.89 8.2
4 0 -6 67.99 8.5
-4 0 6 70.19 8.9
0 0 -6 167.68 14.3
0 0 -6 138.39 14.5
0 0 6 174.78 14.3
0 0 6 179.68 15.1
-2 0 -6 584.74 35.6
2 0 6 569.04 35.7
2 0 6 568.94 35.4
-2 0 -6 574.74 35.5
-4 0 -6 212.48 14.9
4 0 6 212.88 15.7
-4 0 -6 189.98 15.1
4 0 6 197.28 14.9
6 0 6 548.05 32
-6 0 -6 508.95 31.7
-6 0 -6 488.75 31.7
8 0 6 3380.76 198.28
-13 -1 6 108.19 10.3
-13 1 6 118.29 12.1
-13 1 6 59.19 12.1
-11 -1 6 59.79 8.9
-11 -1 6 47.1 9.7
-11 1 6 71.39 10
-11 1 6 62.19 11.1
9 -1 -6 384.66 25.6
-9 -1 6 351.46 24.3
-9 -1 6 370.46 25.3
9 1 -6 355.36 24.8
-9 1 6 385.76 26.2
-9 1 6 330.47 24.9
7 -1 -6 3838.52 225.78
-3 -1 6 10.9 6.3
-3 -1 6 -0.6 7.5
3 -1 -6 1 7.6
3 -1 -6 6.8 7.4
-3 1 6 20.2 6.9
3 1 -6 5.5 7.2
-3 1 6 8.2 7.6
3 1 -6 12.9 7
1 -1 -6 4.8 6.8
-1 -1 6 9.4 6.4
-1 -1 6 16.8 7.3
1 -1 -6 6 7.1
1 1 -6 2.3 6.9
-1 1 6 11.7 6.8
1 1 -6 2.3 6.9
-1 1 6 10.5 7.4
-1 -1 -6 97.29 9.2
1 -1 6 93.49 8.7
-1 -1 -6 85.79 9.2
1 -1 6 89.09 9.3
-1 1 -6 88.49 8.9
-1 1 -6 52.59 8.5
1 1 6 90.89 8.8
1 1 6 92.59 9.5
-3 -1 -6 477.25 30.7
3 -1 6 500.45 31.1
-3 -1 -6 524.85 30.7
3 -1 6 504.55 30.5
-3 1 -6 443.96 30.7
3 1 6 503.25 30.2
3 1 6 513.65 31.1
-3 1 -6 472.05 30.8
-5 -1 -6 683.83 40.6
-5 -1 -6 623.84 40.7
5 -1 6 672.13 40.9
5 -1 6 691.73 41.2
-5 1 -6 685.93 41
5 1 6 679.33 40.6
5 1 6 726.83 41
-5 1 -6 627.54 41
-7 -1 -6 177.18 12.4
7 -1 6 143.39 14
-7 1 -6 195.88 13.6
7 1 6 157.68 13.2
-7 1 -6 168.08 13.5
-9 1 -6 563.24 34.4
-9 1 -6 538.35 34.1
-11 1 -6 426.66 27.2
-16 2 6 163.08 15
-14 2 6 40.9 11
-12 2 6 43.1 10.9
-12 2 6 39.9 9.9
10 -2 -6 1986.6 116.69
-10 -2 6 2026.4 115.99
-10 -2 6 1851.01 115.49
-10 2 6 1937.71 116.59
-10 2 6 1972.5 116.89
8 -2 -6 52.59 9.6
-8 -2 6 72.79 9.1
-8 -2 6 63.79 7.7
8 2 -6 50.49 8.2
-8 2 6 58.89 10.3
-8 2 6 42.9 8.6
6 -2 -6 28.2 8.4
-6 -2 6 46.5 6.8
-6 -2 6 32.5 7.7
6 2 -6 62.79 8.2
-6 2 6 37.9 7.9
-6 2 6 31.6 8.9
4 -2 -6 555.54 34.7
-4 -2 6 491.15 34.1
-4 -2 6 504.45 33.6
4 -2 -6 558.64 34.7
-4 2 6 591.64 35.1
4 2 -6 556.54 34.1
-4 2 6 545.65 34.4
0 -2 6 25 6.6
0 -2 -6 28 7.6
0 -2 -6 29.1 7.7
0 -2 6 2 6.8
0 2 -6 26.4 7
0 2 6 21 7.1
0 2 6 28.5 7.8
0 2 -6 35.4 7.3
2 -2 6 3006.8 182.28
2 2 6 3195.98 182.18
4 -2 6 7.8 6.6
-4 -2 -6 12.7 5.1
4 -2 6 4.6 3.3
-4 -2 -6 7.3 5.6
4 2 6 12.1 6.2
4 2 6 8.4 5.4
-4 2 -6 6 5.5
-4 2 -6 5.8 5.8
-6 -2 -6 977.8 56.59
-6 -2 -6 949.51 56.49
6 -2 6 933.91 57.39
-6 2 -6 936.91 57.29
-6 2 -6 947.81 57.19
6 2 6 956.8 56.59
8 -2 6 280.77 19.9
-8 2 -6 262.47 19.2
-8 2 -6 278.77 19.4
-10 2 -6 150.18 13.3
-10 2 -6 139.89 13.9
-12 2 -6 2754.62 157.88
-12 2 -6 2594.14 157.38
-17 3 6 283.67 21
-13 3 6 135.59 14.1
-13 3 6 118.19 14.8
-11 -3 6 49.2 8.6
11 -3 -6 50.09 10.5
-11 3 6 45.6 11.6
-11 3 6 54.29 10.5
-9 -3 6 1514.65 86.99
-9 -3 6 1427.76 87.39
9 -3 -6 1508.35 88.49
-9 3 6 1477.35 88.69
-9 3 6 1449.95 88.49
9 3 -6 1409.86 88.09
-7 -3 6 176.28 13.7
7 -3 -6 165.38 16.7
-7 -3 6 170.88 15.1
7 3 -6 175.08 14.7
-7 3 6 163.98 17.4
-7 3 6 174.68 15.7
-5 -3 6 1089.59 66.69
-5 -3 6 1095.69 66.29
5 -3 -6 1104.69 67.39
5 -3 -6 1042.6 67.29
5 3 -6 1156.68 66.69
-5 3 6 1090.09 67.49
5 3 -6 1165.28 66.59
-5 3 6 1131.99 67.09
-1 -3 6 93.09 9.2
1 -3 -6 93.69 10.9
1 -3 -6 90.09 10.4
-1 -3 6 102.89 10.3
1 3 -6 92.69 10
-1 3 6 118.39 10.8
1 3 -6 98.99 10
-1 3 6 117.89 11.6
-1 -3 -6 2505.35 148.99
1 -3 6 2539.55 149.19
3 -3 6 14.7 7.5
-3 -3 -6 23.5 6.1
-3 -3 -6 5.8 6
3 -3 6 18.2 6.6
-3 3 -6 25 6.8
3 3 6 13.9 5.5
-3 3 -6 26.6 6.8
3 3 6 24.3 6.9
5 -3 6 4067.49 229.18
-5 3 -6 3732.23 229.08
7 -3 6 180.88 15.6
-7 3 -6 169.08 14.6
-7 3 -6 179.78 14.7
9 -3 6 268.67 20
-9 3 -6 251.57 19.4
-9 3 -6 256.17 18.9
-11 3 -6 1827.32 111.09
-11 3 -6 1923.21 111.79
-13 3 -6 17.4 8.5
-13 3 -6 25.9 7.3
-16 4 6 594.84 38.4
-14 4 6 16.7 11.9
-12 4 6 55.99 12.8
-12 4 6 66.89 11.8
-10 -4 6 85.99 8.3
-10 -4 6 81.49 9.9
10 -4 -6 80.39 12
-10 4 6 94.19 12.3
-10 4 6 65.59 12.9
-8 -4 6 185.08 14.8
8 -4 -6 176.48 17
-8 -4 6 146.39 12.9
-8 4 6 142.19 16
8 4 -6 159.48 14.2
-8 4 6 166.08 16
-6 -4 6 83.69 10.1
-6 -4 6 82.49 8.3
6 -4 -6 77.99 10.7
-6 4 6 83.89 11.2
6 4 -6 89.39 9.7
-6 4 6 78.59 10.1
-4 -4 6 546.75 35.6
-4 -4 6 549.35 36.4
4 -4 -6 605.54 37.6
4 -4 -6 563.64 37.5
-4 4 6 583.64 37
-4 4 6 625.04 37.8
4 4 -6 593.14 36.2
-2 -4 6 265.67 19.3
-2 -4 6 241.08 17.9
2 -4 -6 263.27 20.4
2 -4 -6 262.27 20.4
-2 4 6 222.28 19.2
2 4 -6 263.07 18.8
2 4 -6 245.58 18.9
-2 4 6 254.77 20.8
0 -4 -6 78.69 9.4
0 -4 6 62.29 9.2
0 -4 6 63.49 8
0 -4 -6 65.59 9.4
0 4 6 59.69 8.8
0 4 -6 57.49 8.4
0 4 6 48 9.2
0 4 -6 73.19 9
-2 -4 -6 159.58 13.9
2 -4 6 161.58 14
2 -4 6 170.48 15.2
-2 -4 -6 144.89 13.5
-2 4 -6 146.29 14.1
2 4 6 149.49 13.8
-2 4 -6 131.49 13.8
2 4 6 126.59 12.3
-6 -4 -6 417.26 26.5
6 -4 6 429.46 28.7
-6 4 -6 409.56 27.9
-6 4 -6 434.86 28.3
6 4 6 441.06 26.7
8 -4 6 279.57 21.6
-8 4 -6 271.37 20.9
-8 4 -6 296.77 20.5
10 -4 6 402.96 29.1
-10 4 -6 412.46 28.2
-10 4 -6 456.65 29.1
-12 4 -6 51.19 9.8
-12 4 -6 46.1 8.4
-14 4 -6 86.09 10.8
-16 4 -6 56.89 9.5
-13 5 6 305.27 26.7
11 -5 -6 158.48 16.6
-11 5 6 139.19 16.7
-11 5 6 142.79 15.5
-9 -5 6 1436.76 85.09
-9 -5 6 1406.86 85.59
9 -5 -6 1407.56 87.29
-9 5 6 1442.96 87.69
-9 5 6 1489.45 87.49
-7 -5 6 107.69 11.9
7 -5 -6 113.69 13.1
-7 -5 6 108.49 9.8
7 5 -6 130.29 11.2
-7 5 6 115.29 13.5
-7 5 6 117.79 12.7
-5 -5 6 38.8 6.2
-5 -5 6 39.1 7.9
5 -5 -6 52.29 11.9
5 -5 -6 26.9 9
-5 5 6 20.3 9.5
5 5 -6 34.7 7.3
-5 5 6 32.7 8.1
-3 -5 6 1990.9 115.39
3 -5 -6 2013 116.09
-3 -5 6 1809.72 114.99
3 -5 -6 1949.51 115.99
3 5 -6 1966.2 115.29
3 5 -6 1849.52 115.19
-3 5 6 2054.39 115.99
-3 5 6 1949.2 116.19
1 -5 -6 377.36 27.4
1 -5 -6 415.46 27.7
-1 -5 6 404.96 27.2
-1 -5 6 376.86 25.9
-1 5 6 397.26 28.1
-1 5 6 370.36 27.2
1 5 -6 390.86 26.5
1 5 -6 405.96 26.9
-3 -5 -6 382.76 23.8
-3 -5 -6 325.77 23.6
3 -5 6 391.86 25.3
3 -5 6 324.57 24
-3 5 -6 302.57 24.2
3 5 6 402.76 24.2
-3 5 -6 368.06 24.4
-5 -5 -6 617.94 39.9
-5 -5 -6 649.74 40
5 -5 6 692.23 41.7
-5 5 -6 606.24 40.9
5 5 6 672.63 40.2
-5 5 -6 703.73 41.3
7 -5 6 862.31 54.19
-7 5 -6 842.02 53.59
-7 5 -6 918.41 54.09
9 -5 6 499.25 35.4
-9 5 -6 574.54 34.8
-9 5 -6 533.15 35.4
-11 5 -6 2034.1 118.59
-11 5 -6 1923.61 117.59
-13 5 -6 70.89 10.1
-15 5 -6 40.6 9.3
-14 6 6 751.12 50.09
-12 6 6 210.48 20.8
10 -6 -6 612.64 42.3
-10 -6 6 594.64 39.4
-10 -6 6 660.53 38.6
-10 6 6 643.24 43
-10 6 6 647.24 42.2
-8 -6 6 16.3 5.7
8 -6 -6 28.2 9.4
-8 -6 6 13.8 8.1
8 6 -6 32.2 7.8
-8 6 6 20.7 10.9
-8 6 6 27.2 9.4
6 -6 -6 173.58 18.5
-6 -6 6 152.28 13.9
-6 -6 6 209.78 16.3
-6 6 6 167.88 17.6
-6 6 6 238.18 19.6
6 6 -6 175.58 15.4
-4 -6 6 3.6 7.4
4 -6 -6 1.9 8.6
-4 -6 6 2.5 5.3
4 -6 -6 10.1 8.3
4 6 -6 8.8 7
4 6 -6 5.6 7.2
-4 6 6 -11.3 8.9
-4 6 6 1.7 7.2
2 -6 -6 2.6 8.5
-2 -6 6 8.6 7.7
2 -6 -6 18.3 8.4
-2 -6 6 2.6 5.7
2 6 -6 9.1 7.2
-2 6 6 11.1 7.7
2 6 -6 16.7 7.8
-2 6 6 22.3 9.3
0 -6 6 1489.75 86.79
0 -6 -6 1472.55 86.89
0 -6 6 1415.46 86.19
0 -6 -6 1397.86 86.69
0 6 -6 1419.36 86.59
0 6 6 1442.66 86.89
0 6 -6 1414.36 86.39
0 6 6 1506.95 87.09
2 -6 6 387.26 27.6
-2 -6 -6 404.36 27.7
-2 -6 -6 441.26 27.7
2 -6 6 426.76 28.8
2 6 6 445.66 28.1
2 6 6 415.26 27.8
-2 6 -6 384.76 27.8
-2 6 -6 404.56 27.9
4 -6 6 -0.1 6.9
4 -6 6 2.7 8.1
-4 -6 -6 -13.4 5.8
-4 -6 -6 -1.3 6.5
-4 6 -6 -2.1 6.9
-4 6 -6 4 7
4 6 6 2 6.2
4 6 6 8.2 7
-6 -6 -6 173.38 13.1
6 -6 6 156.78 16.5
-6 -6 -6 154.58 12.9
-6 6 -6 126.49 14.6
6 6 6 168.88 13.4
-6 6 -6 144.59 15.2
8 -6 6 1971.5 123.39
-8 6 -6 2124.59 122.89
-8 6 -6 2099.39 123.59
10 -6 6 6.1 9.4
-10 6 -6 5.8 8.6
-10 6 -6 3.4 8.2
-12 6 -6 268.67 20.7
-12 6 -6 233.88 22.1
-14 6 -6 592.94 38.6
-16 6 -6 108.69 12.5
-13 7 6 317.17 28.5
-11 7 6 -20.1 9.8
-11 7 6 -18.4 12.1
-9 -7 6 215.78 15.9
-9 -7 6 223.68 18.3
9 -7 -6 230.18 21.8
-9 7 6 213.08 21.1
-9 7 6 221.68 22.9
-7 -7 6 1573.44 98.59
-7 -7 6 1666.33 99.19
7 -7 -6 1603.04 100.59
-7 7 6 1704.33 100.79
-7 7 6 1676.93 101.09
7 7 -6 1763.72 99.09
5 -7 -6 1705.73 100.29
-5 -7 6 1712.73 98.99
-5 -7 6 1604.84 98.59
-5 7 6 1666.03 100.09
5 7 -6 1691.03 98.89
-5 7 6 1581.44 100.29
-3 -7 6 143.79 12.3
3 -7 -6 115.39 13.7
3 -7 -6 114.49 13.1
-3 -7 6 130.69 12.4
3 7 -6 128.99 12.3
-3 7 6 90.99 13.3
-3 7 6 131.59 12.9
3 7 -6 123.59 13.6
-1 -7 6 194.78 17.3
1 -7 -6 200.18 17.6
1 -7 -6 162.18 17.9
-1 -7 6 173.08 14.8
-1 7 6 201.58 18.7
1 7 -6 149.59 15.9
1 7 -6 167.38 17.1
-1 7 6 193.28 16.9
-1 -7 -6 2358.66 142.49
-1 -7 -6 2468.55 142.59
1 -7 6 2331.47 142.19
1 -7 6 2404.06 142.69
1 7 6 2371.66 142.59
-1 7 -6 2588.74 142.69
1 7 6 2475.85 142.59
-1 7 -6 2193.88 142.19
-3 -7 -6 458.55 29.9
-3 -7 -6 443.96 29.8
3 -7 6 494.55 30.2
3 -7 6 450.45 31.1
3 7 6 446.76 29.9
3 7 6 446.86 30.1
-3 7 -6 451.65 30.5
-3 7 -6 416.36 30
-5 -7 -6 523.05 32.7
5 -7 6 543.45 34.7
-5 -7 -6 516.75 32.7
5 7 6 492.75 32.8
-5 7 -6 491.15 34.1
-5 7 -6 514.95 33.5
7 -7 6 96.69 13
-7 -7 -6 106.99 9.6
-7 -7 -6 112.09 10
7 7 6 114.49 10.2
-7 7 -6 97.49 12.1
-7 7 -6 100.59 11.3
9 -7 6 52.89 11.3
-9 7 -6 48.7 9.8
-9 7 -6 51.09 10.7
-11 7 -6 56.59 10.7
-11 7 -6 67.79 12
-13 7 -6 353.56 26.1
-15 7 -6 222.48 19.9
-14 8 6 226.08 25.3
-12 8 6 34.3 13.8
-10 -8 6 67.29 10.1
-10 -8 6 80.99 8
10 -8 -6 84.49 13.9
-10 8 6 65.09 14.6
-10 8 6 57.49 12.8
-8 -8 6 328.87 23
-8 -8 6 276.77 21
8 -8 -6 374.86 26.3
-8 8 6 329.67 25.8
8 8 -6 296.67 22.3
-8 8 6 310.27 26.7
6 -8 -6 5076.49 303.17
-6 8 6 5209.78 303.37
-4 -8 6 423.66 30.3
-4 -8 6 400.26 29.1
4 -8 -6 475.05 32.4
4 -8 -6 506.85 32.4
-4 8 6 525.15 32.8
4 8 -6 421.56 29.8
-4 8 6 471.35 31.4
2 -8 -6 1301.97 75.29
2 -8 -6 1232.68 75.19
-2 -8 6 1124.59 73.79
-2 -8 6 1242.48 74.59
-2 8 6 1280.07 74.89
2 8 -6 1213.18 74.19
-2 8 6 1243.38 75.49
2 8 -6 1211.58 74.49
0 -8 -6 223.38 19.7
0 -8 6 235.38 18.1
0 -8 6 209.38 20.5
0 -8 -6 253.37 20.8
0 8 6 206.28 20.8
0 8 -6 228.48 19.4
0 8 6 240.98 19.8
0 8 -6 257.37 19.5
2 -8 6 1193.28 69.19
-2 -8 -6 1119.89 69.19
-2 -8 -6 1146.79 69.29
2 -8 6 1159.58 69.79
2 8 6 1205.88 69.49
-2 8 -6 1131.29 69.59
2 8 6 1040.9 69.09
-2 8 -6 1115.29 69.09
6 -8 6 16.9 9.6
-6 -8 -6 13.2 7.3
-6 -8 -6 18.2 6.8
-6 8 -6 8.2 8.4
6 8 6 13.1 7.5
-6 8 -6 7.4 7.6
-8 -8 -6 1266.37 71.89
8 -8 6 1203.78 74.29
-8 8 -6 1255.57 74.39
-8 8 -6 1085.19 73.09
10 -8 6 260.17 24.7
-10 8 -6 315.37 23.8
-10 8 -6 251.27 22
-12 8 -6 3.8 9.4
-14 8 -6 226.98 20.8
-13 9 6 485.85 37.9
-11 -9 6 34.4 8.8
-11 9 6 21.1 13.8
-9 -9 6 1.9 5.9
9 -9 -6 13.4 11.5
-9 -9 6 13 8.7
-9 9 6 12.8 12.7
-9 9 6 21.6 11.3
7 -9 -6 87.59 13.8
-7 -9 6 116.89 12.1
-7 -9 6 92.19 9.8
7 9 -6 127.29 11.6
-7 9 6 98.49 13.6
-7 9 6 83.89 14.7
-5 -9 6 110.59 12.2
-5 -9 6 129.99 12.8
5 -9 -6 104.19 14.3
-5 9 6 125.39 14
-5 9 6 122.89 14.8
5 9 -6 114.59 11.7
3 -9 -6 9.1 9.6
-3 -9 6 -3.9 5.9
-3 -9 6 -8.4 7.7
3 -9 -6 -1.3 9.4
-3 9 6 -1.5 7.7
-3 9 6 -7.8 9.9
3 9 -6 -11 7.3
-1 -9 6 35.9 9.7
1 -9 -6 26.3 9.3
-1 -9 6 39.8 7.9
1 -9 -6 20.8 9.7
1 9 -6 29.1 8.5
1 9 -6 27.3 9.2
-1 9 6 35 9
-1 9 6 25.1 10
1 9 6 6031.4 354.26
3 -9 6 237.38 19.5
-3 -9 -6 207.68 19.1
3 -9 6 252.07 21.2
-3 -9 -6 232.78 19.4
-3 9 -6 251.97 20.1
3 9 6 224.58 20.2
-3 9 -6 212.28 19
-5 -9 -6 1511.15 95.19
-5 -9 -6 1574.64 95.59
5 -9 6 1675.33 96.89
5 9 6 1570.84 95.49
-5 9 -6 1580.54 95.89
-5 9 -6 1667.43 96.79
7 -9 6 305.57 25.8
-7 -9 -6 322.67 22.5
-7 -9 -6 344.37 22.8
7 9 6 294.07 22.7
-7 9 -6 349.67 25.5
-7 9 -6 292.97 23.8
9 -9 6 17.3 11.1
-9 9 -6 19.6 10.3
-9 9 -6 14 8.9
-11 9 -6 0.2 9.2
-13 9 -6 176.48 17.4
-15 9 -6 200.68 20.3
-14 10 6 36.4 15.4
-12 10 6 -0.9 13.9
-10 -10 6 16.4 6.5
-10 -10 6 13.1 9.1
-10 10 6 12.8 13.5
8 -10 -6 7.2 11.9
-8 -10 6 4.3 6.4
-8 -10 6 15.7 8.9
-8 10 6 -6.5 12.5
-8 10 6 7 10.5
8 10 -6 15.8 8.4
6 -10 -6 388.86 29.3
-6 -10 6 364.46 26.2
-6 -10 6 319.37 24.6
-6 10 6 409.16 30
-6 10 6 369.96 28.1
6 10 -6 354.86 25.4
-4 -10 6 1.2 6.5
-4 -10 6 -1.2 8.3
4 -10 -6 -4.4 9.2
4 -10 -6 -2.8 10.5
-4 10 6 -4 10.1
-4 10 6 -2.3 8.6
4 10 -6 -3.8 7.6
-2 -10 6 382.26 27
2 -10 -6 361.06 29.4
2 -10 -6 476.85 29.8
-2 -10 6 401.26 28.8
2 10 -6 361.26 27.7
-2 10 6 392.76 28.6
2 10 -6 405.96 28.6
-2 10 6 419.16 30.6
0 -10 6 340.87 25.3
0 -10 -6 356.96 27.2
0 -10 -6 390.86 27.1
0 -10 6 408.16 27.3
0 10 6 389.26 28
0 10 -6 320.67 25.5
0 10 6 341.17 26.6
0 10 -6 343.77 26.4
2 -10 6 207.48 19.7
-2 -10 -6 178.88 18.1
-2 -10 -6 176.08 18.2
2 -10 6 206.78 17.2
2 10 6 194.18 20.5
2 10 6 162.48 18.8
-2 10 -6 192.88 18.5
-2 10 -6 200.88 17.8
-4 -10 -6 2257.47 144.59
-4 -10 -6 2667.53 145.19
4 -10 6 2406.86 145.69
-4 10 -6 2503.65 145.69
4 10 6 2667.93 145.19
-4 10 -6 2117.39 144.69
-6 -10 -6 40.8 9.2
6 -10 6 41.5 11.2
-6 -10 -6 47.9 9.4
-6 10 -6 28.6 10.1
-6 10 -6 46.8 10
6 10 6 50.09 9.8
8 -10 6 26.6 11.6
-8 -10 -6 31.7 8.3
-8 -10 -6 15.8 7.4
-8 10 -6 11.8 10.3
-8 10 -6 16 9.2
-10 10 -6 49.99 10.9
-12 10 -6 3.8 9.9
-14 10 -6 14.1 10.9
-13 11 6 192.38 22.4
-11 -11 6 122.19 12.9
-11 -11 6 131.79 13.6
-11 11 6 131.19 18.8
9 -11 -6 66.69 16
-9 -11 6 89.29 11.8
-9 -11 6 102.49 10.2
9 11 -6 78.09 13.8
-9 11 6 51.49 14.1
-7 -11 6 9.4 9.2
-7 -11 6 -0.6 6.6
7 -11 -6 19.3 12.1
-7 11 6 -10.7 12.4
-7 11 6 -7.8 9.9
7 11 -6 -5.8 8
5 -11 -6 57.19 12.7
-5 -11 6 49.4 8.8
-5 -11 6 46.6 10.2
-5 11 6 30.2 12.7
-5 11 6 52.09 11.2
5 11 -6 47.8 9.6
3 -11 -6 583.24 39.1
-3 -11 6 557.44 37.7
3 -11 -6 518.45 39
-3 -11 6 607.24 36.9
3 11 -6 579.34 37.3
-3 11 6 585.04 38.5
-3 11 6 514.35 39.4
1 -11 -6 329.57 28.2
-1 -11 6 353.46 28.3
-1 -11 6 393.66 26.5
1 -11 -6 396.26 28.7
-1 11 6 434.16 29.7
-1 11 6 383.56 28.1
1 11 -6 379.66 28.3
1 11 -6 355.56 27
-1 -11 -6 545.35 39.1
1 -11 6 583.44 39.8
1 -11 6 685.93 38.7
-1 -11 -6 611.24 39.4
-1 11 -6 590.54 39.2
-1 11 -6 600.54 38.5
1 11 6 496.15 39.6
1 11 6 576.54 39.3
3 -11 6 2316.97 137.49
-3 -11 -6 2228.38 136.59
-3 -11 -6 2439.16 137.09
-3 11 -6 2009.3 136.49
3 11 6 2397.76 136.99
-3 11 -6 2366.26 137.39
-5 -11 -6 6315.47 349.87
5 -11 6 5775.12 350.46
-5 11 -6 5747.83 350.56
7 -11 6 278.97 24.6
-7 -11 -6 259.97 20.4
-7 -11 -6 235.88 21
-7 11 -6 281.67 22.3
7 11 6 221.68 20.8
-7 11 -6 262.07 23.9
-9 -11 -6 55.49 8.7
-9 -11 -6 72.59 10
9 -11 6 21.8 13.2
-9 11 -6 56.09 13.2
-9 11 -6 44.5 10.6
-11 11 -6 6.5 9.9
-13 11 -6 39.8 11.3
-15 11 -6 266.87 24.3
-14 12 6 84.99 18.2
-12 -12 6 59.39 11.1
-12 -12 6 56.89 10.3
-12 12 6 80.89 17.6
-10 -12 6 498.35 32.2
-10 12 6 405.76 37.3
8 -12 -6 118.69 17.4
-8 -12 6 125.59 14.2
-8 -12 6 128.79 12.3
-8 12 6 107.19 17.7
8 12 -6 147.59 14
-8 12 6 101.09 15.7
-6 -12 6 2010.9 122.69
-6 -12 6 2075.89 122.29
6 -12 -6 2149.28 124.79
-6 12 6 1898.01 124.69
6 12 -6 2057.79 122.49
-6 12 6 2118.49 124.59
4 -12 -6 80.29 14.4
-4 -12 6 98.19 10.8
-4 -12 6 93.79 12.6
-4 12 6 81.49 15.4
4 12 -6 102.29 12.1
-4 12 6 100.89 13.6
-2 -12 6 1089.29 61.69
-2 -12 6 959.6 62.29
2 -12 -6 1047.2 63.19
2 -12 -6 942.71 63.09
2 12 -6 997.7 61.69
-2 12 6 1016.2 62.79
-2 12 6 907.41 63.29
0 -12 6 582.04 40.1
0 -12 -6 596.14 40
0 -12 6 628.64 38.6
0 -12 -6 552.74 39.8
0 12 -6 598.24 38.9
0 12 -6 595.14 39.7
0 12 6 589.44 40.8
0 12 6 558.34 39.6
2 -12 6 752.52 49.5
-2 -12 -6 761.92 48.6
-2 -12 -6 763.52 48.9
-2 12 -6 662.53 47.9
-2 12 -6 791.32 49
2 12 6 780.32 49.3
4 -12 6 4504.55 270.37
-4 -12 -6 4307.97 269.27
-4 -12 -6 4725.03 269.97
-4 12 -6 4533.95 269.77
-4 12 -6 4608.34 270.57
4 12 6 4752.42 269.87
6 -12 6 -3.6 10.7
-6 -12 -6 7.8 9.1
-6 -12 -6 -5.7 9.2
6 12 6 -12.7 9.2
-6 12 -6 12 9.8
-6 12 -6 2.4 10.5
-8 -12 -6 45.2 9.1
8 -12 6 26.7 13
-8 -12 -6 46.9 10.6
-8 12 -6 32.3 10.7
-8 12 -6 32.4 11.9
-10 -12 -6 139.59 13.1
-10 -12 -6 129.59 13.9
-10 12 -6 106.49 14.8
-12 12 -6 37.2 11.7
-14 12 -6 432.56 32.8
-13 -13 6 1172.98 70.79
-13 13 6 1146.69 75.69
-11 -13 6 2.5 9.2
-11 -13 6 0.8 10.1
-11 13 6 -11.5 14.5
-9 -13 6 263.07 22.9
9 13 -6 280.37 22.7
-9 13 6 277.57 26.1
7 -13 -6 258.17 26.7
-7 -13 6 249.08 22.3
-7 13 6 266.97 25.3
7 13 -6 217.38 21
-7 13 6 303.57 28.6
5 -13 -6 196.68 20.8
-5 -13 6 225.28 20.6
-5 -13 6 214.08 18.7
5 13 -6 225.38 19.6
-5 13 6 223.48 22.8
-5 13 6 191.78 21.7
-3 -13 6 13.1 8.1
-3 -13 6 17.5 10.2
3 -13 -6 31.9 11.9
3 -13 -6 4.9 11.3
3 13 -6 9.4 8.9
-3 13 6 23.2 10
-3 13 6 11.8 12.6
-1 -13 6 52.89 11.9
1 -13 -6 50.99 12.6
-1 -13 6 77.99 10.3
1 -13 -6 52.79 12.3
1 13 -6 52.69 10.3
-1 13 6 59.69 13.2
-1 13 6 58.79 11.3
1 13 6 9999 586.84
3 -13 6 0.3 10.8
3 -13 6 -12.7 10.9
-3 -13 -6 -12.1 9.5
-3 -13 -6 -15.5 9.2
-3 13 -6 -9.8 10
3 13 6 11.8 10.9
-3 13 -6 -9.5 8.8
-5 -13 -6 119.69 13.8
5 -13 6 110.79 15.8
-5 -13 -6 119.99 14.6
-5 13 -6 127.99 14.2
5 13 6 105.39 14.4
-5 13 -6 124.59 15.3
-7 -13 -6 923.01 57.39
7 -13 6 856.81 59.59
-7 -13 -6 938.91 56.89
-7 13 -6 940.71 59.49
-7 13 -6 866.91 57.79
7 13 6 909.91 57.29
-9 -13 -6 28 10.6
-9 -13 -6 29.1 9.5
-9 13 -6 53.19 11.6
-11 -13 -6 131.09 12
-11 -13 -6 118.99 12.9
-11 13 -6 118.79 15.3
-13 13 -6 544.45 38.6
-14 14 6 323.37 33.2
-12 -14 6 142.39 15
-12 14 6 111.79 21
-10 -14 6 300.07 23.6
-10 -14 6 258.27 22.7
-10 14 6 216.68 25.2
8 -14 -6 54.99 18.7
-8 -14 6 30.1 11.2
-8 -14 6 38.3 11.2
-8 14 6 19.3 14.7
8 14 -6 56.39 11.1
6 -14 -6 540.55 40.4
-6 -14 6 550.64 37.4
-6 14 6 527.65 41.5
-6 14 6 567.24 39.9
6 14 -6 514.35 36.6
4 -14 -6 33.5 12.7
-4 -14 6 38.2 11.9
-4 14 6 20.5 13.8
-4 14 6 33.1 11.2
4 14 -6 46.1 10.6
2 -14 -6 401.26 32
-2 -14 6 410.36 30.9
2 -14 -6 375.56 31.3
2 14 -6 416.96 29.5
-2 14 6 385.56 32.9
-2 14 6 413.66 30.4
0 -14 -6 1831.02 110.89
0 -14 6 1882.11 110.89
0 -14 -6 1747.63 110.99
0 14 -6 1862.61 110.09
0 14 6 1795.02 111.49
2 -14 6 1226.38 79.39
-2 -14 -6 1249.77 78.69
-2 -14 -6 1281.87 79.09
2 -14 6 1344.67 79.99
-2 14 -6 1316.77 79.29
2 14 6 1199.78 79.39
-2 14 -6 1280.87 78.39
-4 -14 -6 139.59 15.6
4 -14 6 123.69 15.8
-4 -14 -6 104.39 14.2
-4 14 -6 95.39 14
-4 14 -6 99.39 15.4
4 14 6 125.79 16
6 -14 6 44.2 14.1
-6 -14 -6 39.3 11.7
-6 -14 -6 34 10.8
6 14 6 43.4 12.1
-6 14 -6 41.9 11.5
-6 14 -6 58.69 13.3
-8 -14 -6 2296.07 141.19
-8 -14 -6 2257.57 140.49
-8 14 -6 2530.65 141.99
-10 -14 -6 26.5 9.2
-10 -14 -6 20.6 10.7
-10 14 -6 40.3 11.9
-12 14 -6 115.09 16
-14 14 -6 20.1 12.3
-13 -15 6 78.39 12.7
-13 15 6 77.59 19.5
-11 -15 6 69.59 12.7
-11 15 6 63.69 18.2
-9 -15 6 163.68 16.3
-9 15 6 112.39 20.5
-7 -15 6 430.86 33
7 -15 -6 423.86 37.3
-7 -15 6 476.55 34
7 15 -6 426.86 32.3
-7 15 6 483.05 38.3
-7 15 6 510.15 40.5
5 -15 -6 350.86 32.9
-5 -15 6 418.36 30.4
-5 15 6 345.27 34.5
5 15 -6 384.46 29.3
-5 15 6 437.96 32.3
3 -15 -6 163.48 19.6
-3 -15 6 158.38 17.4
3 -15 -6 176.78 25
-3 15 6 193.68 18.9
-3 15 6 166.08 20.1
3 15 -6 149.39 16.2
1 -15 -6 89.09 14.6
-1 -15 6 128.89 16.4
1 -15 -6 92.39 15.2
-1 -15 6 65.99 14.3
1 15 -6 84.69 12.6
-1 15 6 81.19 16.4
-1 -15 -6 614.94 42.9
1 -15 6 600.24 43.2
1 -15 6 623.64 43.8
-1 -15 -6 587.74 42.9
1 15 6 568.84 43.6
-1 15 -6 655.43 43
-1 15 -6 660.43 41.9
3 -15 6 251.67 26.8
-3 -15 -6 257.87 25.1
-3 -15 -6 282.67 25.8
3 15 6 288.87 26.5
-3 15 -6 292.27 24.6
-3 15 -6 319.27 26.4
-5 -15 -6 539.85 38.4
5 -15 6 513.45 39.7
-5 -15 -6 546.55 37.5
5 15 6 493.85 38.2
-5 15 -6 567.44 38.1
-5 15 -6 548.25 39.4
-7 -15 -6 193.78 22.5
-7 -15 -6 244.88 21.8
7 -15 6 245.58 26.6
7 15 6 208.98 21
-7 15 -6 243.28 23
-9 -15 -6 265.47 24.1
-9 -15 -6 239.38 22.3
-9 15 -6 268.17 24.9
-11 -15 -6 243.48 27.5
-11 -15 -6 268.17 22.3
-11 15 -6 357.96 26.5
-13 15 -6 0 12
-14 -16 6 -8.1 10.7
-12 -16 6 65.39 12.6
-12 16 6 71.29 19.5
-10 -16 6 407.86 30.1
-10 16 6 362.16 36.4
-8 -16 6 29 11.9
-8 16 6 10.3 16
6 -16 -6 269.07 29.5
-6 -16 6 269.07 26.1
-6 -16 6 303.97 25.3
-6 16 6 289.17 28.4
6 16 -6 252.27 24.1
-6 16 6 271.17 26.6
4 -16 -6 6.5 12.9
-4 -16 6 0.9 12.1
-4 -16 6 0.4 11.1
-4 16 6 -7.2 13.6
-4 16 6 20.5 11.3
4 16 -6 0.5 10.1
-2 -16 6 1246.48 77.29
-2 -16 6 1216.28 76.49
2 -16 -6 1202.88 77.39
2 -16 -6 1210.28 77.39
2 16 -6 1173.08 75.39
-2 16 6 1265.87 77.39
-2 16 6 1210.98 77.99
0 -16 -6 55.99 13.2
0 -16 6 55.39 13.1
0 -16 6 43.4 14
0 -16 -6 39.1 13.6
0 16 -6 30.5 10.6
0 16 6 38.3 14.2
-2 -16 -6 39.1 12.7
2 -16 6 31.7 13.8
-2 -16 -6 46.9 13.3
2 -16 6 45.1 13.2
-2 16 -6 36 12.5
2 16 6 29.8 13.6
-2 16 -6 64.49 12.5
-4 -16 -6 466.85 36.9
-4 -16 -6 479.85 37.6
4 -16 6 528.25 39.3
4 16 6 503.85 38.3
-4 16 -6 566.64 37.4
-4 16 -6 540.85 38.8
-6 -16 -6 78.59 13.4
6 -16 6 91.99 16.3
-6 -16 -6 48.7 13.3
6 16 6 41.6 13.9
-6 16 -6 54.59 13
-6 16 -6 58.29 15
-8 -16 -6 1.7 11.7
-8 -16 -6 23 11
-8 16 -6 18.1 11.2
-10 -16 -6 24.8 10.3
-10 16 -6 1.4 11.8
-12 -16 -6 206.48 19.2
-12 16 -6 230.28 24
-13 -17 6 29.5 12.4
-13 17 6 36.7 18.7
-11 -17 6 8.9 12.1
-11 17 6 29.3 17.9
-9 -17 6 1319.97 79.69
-9 17 6 1243.08 83.59
-7 -17 6 25.2 12
-7 17 6 11.6 15.6
-5 -17 6 15.8 11.8
-5 -17 6 -1.4 11.9
5 -17 -6 11.4 14.3
5 17 -6 2 11.1
-5 17 6 -17.3 14.5
-5 17 6 10 12.6
3 -17 -6 3582.44 220.58
-3 -17 6 3750.92 220.58
-3 -17 6 3611.84 219.58
-3 17 6 3424.16 220.58
-3 17 6 3749.12 220.58
3 17 -6 4017.3 219.48
-1 -17 6 8.6 12.1
-1 -17 6 12.4 13.7
1 -17 -6 11.9 13.1
1 -17 -6 0.4 12.8
-1 17 6 24 14.2
1 17 -6 4 10.2
1 -17 6 462.05 33.7
-1 -17 -6 346.87 32.1
-1 -17 -6 435.36 33
1 -17 6 371.06 32.4
-1 17 -6 371.96 30.3
1 17 6 367.76 33.5
-3 -17 -6 515.25 39.2
3 -17 6 501.45 40.2
-3 -17 -6 611.34 40
-3 17 -6 472.65 38.3
3 17 6 583.54 40.6
-3 17 -6 539.45 39.8
-5 -17 -6 240.08 23.6
5 -17 6 277.27 27.7
-5 -17 -6 182.68 21.4
-5 17 -6 268.67 23.9
-5 17 -6 291.37 26.4
5 17 6 147.69 21.3
-7 -17 -6 72.09 13.1
-7 17 -6 58.39 14.1
-9 -17 -6 17.2 11.2
-9 17 -6 4.7 12.2
-11 -17 -6 1427.26 93.49
-11 17 -6 1687.93 96.19
-13 17 -6 48.2 14.2
-12 -18 6 3.5 12.1
-12 18 6 6.8 17.9
-10 -18 6 332.87 27.2
-10 18 6 274.47 30.3
-8 -18 6 13.8 12.3
-8 18 6 26 17.4
6 -18 -6 949.4 62.19
-6 -18 6 885.11 58.39
-6 18 6 852.21 61.39
-4 -18 6 254.77 28.9
4 -18 -6 318.97 30.7
-4 -18 6 315.37 27.9
-4 18 6 285.27 31
4 18 -6 289.57 26.5
-4 18 6 319.07 28.8
2 -18 -6 504.05 39.5
-2 -18 6 508.05 38.1
2 -18 -6 491.65 39.4
-2 -18 6 498.85 39.1
2 18 -6 536.45 36.5
-2 18 6 443.06 40.1
0 -18 -6 22 13.2
0 -18 -6 18.8 14
0 -18 6 -7.5 13.2
0 -18 6 -4.5 12.6
0 18 6 -10.6 13.9
0 18 -6 -1.2 10.7
2 -18 6 67.79 15.4
-2 -18 -6 57.69 15
-2 -18 -6 80.79 15.8
-2 18 -6 54.89 13
2 18 6 78.29 16.3
-4 -18 -6 376.26 31.7
-4 -18 -6 422.26 32.9
4 -18 6 379.26 34.3
4 18 6 458.15 34.3
-4 18 -6 380.66 33.1
-4 18 -6 296.77 30.5
6 -18 6 11.5 15.2
-6 -18 -6 -4.4 11.9
-6 18 -6 1.2 12
-8 -18 -6 7.7 11.4
-8 18 -6 -4.7 12
-10 -18 -6 161.48 17.4
-10 18 -6 156.58 19.9
-12 -18 -6 561.64 41.7
-12 18 -6 738.23 45.7
-13 -19 6 -14.8 13.6
-11 -19 6 17.8 12.8
-11 19 6 15.9 19.1
-9 -19 6 31.6 13.1
-9 19 6 37.2 18.8
-7 -19 6 1673.03 96.89
-7 19 6 1443.36 99.59
-5 -19 6 1355.56 83.99
5 -19 -6 1426.56 87.19
-5 19 6 1245.88 86.39
3 -19 -6 19.1 14.8
-3 -19 6 11.3 12.8
3 19 -6 25.6 11.8
-3 19 6 23.2 15.6
1 -19 -6 14.5 13.9
1 -19 -6 14.8 14.4
-1 -19 6 12.9 13.6
-1 -19 6 27.5 14.4
-1 19 6 6.3 15.5
1 19 -6 17.5 11.5
1 -19 6 44.8 15.6
-1 -19 -6 30.1 15
1 -19 6 55.69 15
-1 -19 -6 60.59 15.6
-1 19 -6 57.59 13.9
1 19 6 63.19 17.1
3 -19 6 46.6 14.9
-3 -19 -6 39.5 14
-3 19 -6 30.1 12.5
3 19 6 9.1 15.3
5 -19 6 110.09 19.3
-5 -19 -6 113.39 17.4
-5 19 -6 129.39 17.4
-7 -19 -6 10.1 12.1
-7 19 -6 27.6 13.4
-9 -19 -6 131.39 16.5
-9 19 -6 94.29 17.2
-11 -19 -6 31.9 12.4
-11 19 -6 46 14.6
-13 -19 -6 18.8 10.7
-13 19 -6 30.2 14.7
-12 -20 6 3.7 13.6
-12 20 6 -4.9 19
-10 -20 6 19.1 12.9
-10 20 6 -14.6 17.8
-8 -20 6 -8.7 12.7
-8 20 6 -19.7 17.3
-6 -20 6 3043.5 167.68
-6 20 6 2505.65 169.28
-4 -20 6 15.6 13.6
4 -20 -6 -0.2 15.7
-4 20 6 12.8 16.4
2 -20 -6 34.6 15.6
-2 -20 6 50.89 14.6
-2 20 6 20.7 16.7
2 20 -6 30.5 12.8
0 -20 -6 9.7 14.4
0 -20 6 -9.6 13.2
0 -20 -6 12.7 14.4
0 -20 6 -28.7 13.1
0 20 6 5.7 16
0 20 -6 -11.1 11.2
2 -20 6 142.49 19.8
-2 -20 -6 158.18 20.2
2 20 6 171.68 22.1
-2 20 -6 138.99 18.2
-4 -20 -6 397.96 34.2
4 -20 6 398.76 36.8
-4 20 -6 459.85 34.4
-6 -20 -6 268.17 26.4
-6 20 -6 254.97 27.2
-8 -20 -6 376.96 32
-8 20 -6 422.06 34.1
-10 -20 -6 -2.5 12
-10 20 -6 -8.6 13.3
-12 -20 -6 8.5 11.7
-12 20 -6 -10.9 13.8
-11 -21 6 0.1 13.2
-11 21 6 -1.3 18.9
-9 -21 6 95.79 16.3
-9 21 6 73.69 21.6
-7 21 6 57.69 19.8
3 -21 -6 528.25 41.1
-3 -21 6 449.66 37.9
-3 21 6 453.55 41.8
-1 -21 6 5.6 14.1
1 -21 -6 4.2 14.2
-1 21 6 26 17.6
1 21 -6 -1.3 12.8
1 -21 6 -14.9 14
-1 -21 -6 -13.5 14
-1 21 -6 -11.3 12.3
-3 -21 -6 30.6 14.5
3 -21 6 28.2 16
-3 21 -6 23.2 13.7
-5 -21 -6 0.1 12.8
-5 21 -6 6.6 12.7
-7 -21 -6 137.79 17.9
-7 21 -6 106.39 17.7
-9 -21 -6 25.6 13.9
-9 21 -6 41 14.8
-11 -21 -6 190.98 20.9
-11 21 -6 256.97 27.1
-10 -22 6 149.88 18.9
-10 22 6 117.09 24.2
-8 -22 6 21.9 14.3
-8 22 6 25.7 20.1
-6 -22 6 870.91 57.39
-6 22 6 802.32 61.49
-4 -22 6 206.58 22.2
4 -22 -6 175.78 24.3
-4 22 6 149.79 24.9
2 -22 -6 694.23 50.89
-2 -22 6 686.13 49.5
-2 22 6 668.03 52.89
0 -22 6 -22 13.8
0 -22 -6 -12.2 14.2
0 22 -6 -3.6 13.8
-2 -22 -6 35.3 15.3
2 -22 6 28.9 16.3
-2 22 -6 21.7 14.4
4 -22 6 124.79 21
-4 -22 -6 131.29 18.9
-4 22 -6 126.39 19.6
-6 -22 -6 -7.9 13.2
-6 22 -6 0.3 13.5
-8 -22 -6 183.98 20.4
-8 22 -6 144.29 20.1
-10 -22 -6 -0.4 13.2
-10 22 -6 1.4 14.6
-12 22 -6 409.76 35.5
-9 -23 6 29 14.7
-9 23 6 26.8 19.9
-7 -23 6 92.49 17.4
-7 23 6 70.49 21.7
-5 -23 6 26.5 15.9
-5 23 6 5.9 20
3 -23 -6 105.79 21
-3 -23 6 87.59 18.3
-3 23 6 81.59 21.5
-1 -23 6 -4.1 14.7
1 -23 -6 -0.2 15.9
1 -23 6 58.79 17.4
-1 -23 -6 73.39 17.7
-3 -23 -6 70.19 17.3
3 -23 6 65.09 18.7
-3 23 -6 58.89 16.4
-5 -23 -6 509.95 41.5
-5 23 -6 575.34 42.5
-7 -23 -6 14.7 14.2
-7 23 -6 -13.1 13.7
-9 -23 -6 21.1 14.3
-9 23 -6 0.8 15.1
-11 23 -6 44 16.6
-8 -24 6 147.99 20.1
-8 24 6 102.29 24.3
-6 -24 6 6.2 15.6
-6 24 6 8.5 19.7
-4 -24 6 134.69 20.8
-4 24 6 122.69 24
2 -24 -6 272.97 30.6
-2 -24 6 302.07 31.9
0 -24 6 -2 15.4
0 -24 -6 26.3 15.8
2 -24 6 6.6 16.6
-2 -24 -6 11 15.3
-4 -24 -6 493.05 43.3
-4 24 -6 644.54 44.8
-6 -24 -6 -4.3 14.9
-6 24 -6 20.6 15.8
-8 -24 -6 92.79 17.8
-8 24 -6 89.59 18.7
-10 24 -6 150.98 21.6
-9 -25 6 578.14 53.69
-7 -25 6 28.2 16.6
-7 25 6 29.2 21.4
-5 -25 6 37.2 17.3
-5 25 6 40.9 21.4
-3 -25 6 442.56 39.6
3 -25 -6 470.65 42.6
1 -25 -6 4.6 16.4
-1 -25 6 -9.2 15.4
1 -25 6 638.54 49.4
-1 -25 -6 602.64 47.9
-3 -25 -6 3.3 15.5
-5 -25 -6 -1.1 15.6
-5 25 -6 11.4 15.3
-7 -25 -6 218.28 24.8
-7 25 -6 273.97 28.3
-9 25 -6 42.1 17.2
-11 25 -6 568.44 45.1
-8 -26 6 -7.9 15.9
-6 -26 6 261.47 28
-4 -26 6 -2.8 16.1
-2 -26 6 64.09 18.8
2 -26 -6 61.29 20.9
0 -26 6 136.09 22.7
0 -26 -6 162.18 23.2
2 -26 6 292.47 33.4
-2 -26 -6 369.16 34.6
-4 -26 -6 3.7 16.2
-6 -26 -6 34.7 17.4
-6 26 -6 41.4 18
-8 -26 -6 12.5 15.6
-8 26 -6 32.7 17.1
-10 26 -6 -8.3 15.6
-7 -27 6 101.49 20.8
-5 -27 6 74.59 19.4
-3 -27 6 2.8 16.8
1 -27 -6 1.7 17.7
-1 -27 6 -18.1 17.3
-3 -27 -6 62.99 19.2
-5 -27 -6 40.6 17.8
-7 -27 -6 17.3 16.9
-7 27 -6 6.7 17.5
-9 27 -6 51.49 19
-10 28 6 11.9 18.1
-6 -28 6 113.19 22.1
-4 -28 6 22.9 18
-2 -28 6 18.3 18.4
0 -28 -6 216.08 27.1
0 -28 6 190.98 26.7
-2 -28 -6 200.98 26.4
-4 -28 -6 266.47 28.8
-6 -28 -6 7.2 17.3
-10 28 -6 31.1 18.6
-5 -29 6 7.5 17.8
-3 -29 6 -17.2 18.2
1 -29 -6 1.5 19.5
-1 -29 6 -1.6 18.6
-1 -29 -6 200.78 27.5
-3 -29 -6 7.1 17.6
-5 -29 -6 70.49 19.8
-4 -30 6 25.1 19.6
-2 -30 6 5 19.2
0 -30 6 16.2 20.8
0 -30 -6 6.3 20
-2 -30 -6 -11.8 18.4
-4 -30 -6 661.53 51.89
-3 -31 6 22.1 20.3
-1 -31 6 -8 20.1
-1 -31 -6 19.1 20.4
-3 -31 -6 95.69 22.3
-2 -32 6 18 21.1
-2 -32 -6 132.49 25.3
-1 -33 -6 296.57 34.6
-2 -34 6 -1.9 32.3
-14 0 7 9.5 9.3
-14 0 7 -10.1 7.6
-12 0 7 2.6 7.7
-12 0 7 7.9 9.2
-10 0 7 -5.1 7.3
-10 0 7 5.8 8.8
10 0 -7 2.4 7.9
-8 0 7 15 8.7
8 0 -7 8.1 7.8
-8 0 7 21.1 7.2
-6 0 7 22.4 8.1
-6 0 7 14 6.6
6 0 -7 17.5 7.3
4 0 -7 3.8 7.3
-4 0 7 3.6 7.7
4 0 -7 3.5 7
-4 0 7 2.2 6.1
-2 0 7 -2.9 8.1
2 0 -7 5.8 7.6
2 0 -7 1.2 7.5
-2 0 7 0.6 6.9
0 0 -7 -2.2 7.5
0 0 7 5.1 8
0 0 -7 -9.7 7.3
0 0 7 -8.5 7.3
-2 0 -7 11.3 6.7
2 0 7 6 6.4
2 0 7 -4.2 7.2
-2 0 -7 5.4 6.6
4 0 7 -6.7 6.5
4 0 7 1 5.5
-4 0 -7 -7.6 5.2
-4 0 -7 6.4 6.2
-6 0 -7 -2.1 5.1
6 0 7 -4.1 6.3
-6 0 -7 4.7 5.6
8 0 7 1.7 6.5
-8 0 -7 12.3 5.8
-8 0 -7 13.1 5.6
-15 1 7 25.6 10
-13 -1 7 47.5 8.2
-13 -1 7 18.3 9.3
-13 1 7 35.1 9.4
-13 1 7 33.6 10.4
-11 -1 7 3.1 7.1
-11 -1 7 11.3 9.1
-11 1 7 17.4 10
-11 1 7 13.8 8.4
-9 -1 7 0 8.4
-9 -1 7 7.8 7
9 -1 -7 -0.8 8.2
9 1 -7 -2.5 7.8
-9 1 7 3.2 7.2
-9 1 7 13.6 9.2
-5 -1 7 1604.44 100.29
-5 -1 7 1789.52 100.69
5 -1 -7 1553.84 100.59
5 -1 -7 1741.83 100.79
5 1 -7 1724.13 100.59
-5 1 7 1748.53 100.89
-5 1 7 1676.33 100.59
-3 -1 7 1599.54 97.49
-3 -1 7 1634.54 97.79
3 -1 -7 1719.23 97.89
3 -1 -7 1695.53 97.89
3 1 -7 1642.64 97.79
-3 1 7 1734.03 97.99
3 1 -7 1594.64 97.69
-3 1 7 1527.75 97.59
-1 -1 7 19 7.4
-1 -1 7 27.5 8.5
1 -1 -7 22.4 7.8
1 -1 -7 23.8 8
-1 1 7 27.9 7.7
1 1 -7 21 8.3
1 1 -7 29.6 8.2
-1 1 7 5.8 8.7
1 -1 7 213.58 17.3
-1 -1 -7 201.18 17.3
1 -1 7 211.28 16.6
-1 -1 -7 207.48 17
1 1 7 207.48 17.5
-1 1 -7 206.98 16.7
-1 1 -7 227.28 16.8
1 1 7 195.58 16.9
-3 -1 -7 200.68 14.9
3 -1 7 197.78 15.8
-3 -1 -7 160.78 14.8
3 -1 7 181.78 14.9
3 1 7 213.08 15.9
-3 1 -7 178.48 15.2
-3 1 -7 197.68 15
5 -1 7 86.19 8.4
-5 -1 -7 81.49 7.8
5 -1 7 92.59 9.2
-5 -1 -7 75.79 8.3
5 1 7 84.89 8
-5 1 -7 85.19 8.4
5 1 7 83.59 8.7
-5 1 -7 68.79 8.5
7 -1 7 598.24 36.4
-7 -1 -7 581.54 35.8
-7 -1 -7 556.54 35.5
-7 1 -7 591.94 36.2
7 1 7 604.84 36
-7 1 -7 565.04 36.1
9 -1 7 137.49 11.7
-9 1 -7 115.39 12
-9 1 -7 117.99 11
-11 1 -7 461.25 27.7
-11 1 -7 390.46 27.3
-14 2 7 54.69 11.8
-12 -2 7 159.78 13.8
-12 -2 7 127.59 13.7
-12 2 7 177.48 15.7
-12 2 7 141.39 15.9
-10 -2 7 1.9 8.2
-10 -2 7 6.7 6.7
10 -2 -7 7.4 8.3
-10 2 7 2 8.1
-10 2 7 7.9 9.8
-8 -2 7 12.5 6.6
-8 -2 7 24.3 8.3
8 -2 -7 14.2 8.5
-8 2 7 15.1 7.8
8 2 -7 11.1 7.2
-8 2 7 10.9 9.2
-4 -2 7 143.39 12.4
4 -2 -7 137.79 12.6
-4 -2 7 127.49 11
4 -2 -7 124.29 12.4
4 2 -7 128.39 11.3
4 2 -7 110.19 11.4
-4 2 7 121.19 11.2
-4 2 7 118.19 12.8
2 -2 -7 1915.61 117.69
-2 -2 7 1998.6 117.39
2 -2 -7 2043.8 117.79
-2 -2 7 1907.41 117.59
2 2 -7 2126.29 117.69
-2 2 7 1901.41 117.59
-2 2 7 2012.4 117.89
2 2 -7 1972.8 117.49
0 -2 7 382.46 25
0 -2 7 336.07 24.5
0 -2 -7 352.46 24.9
0 -2 -7 386.76 25.3
0 2 7 320.27 24.6
0 2 -7 364.46 24.9
0 2 -7 361.36 25.1
0 2 7 400.56 25.3
-2 2 -7 3392.86 199.38
4 -2 7 3295.37 194.58
-4 2 -7 3323.07 194.48
6 -2 7 22 7
-6 -2 -7 22.9 5.2
-6 -2 -7 13.7 5.8
-6 2 -7 29.8 6.6
6 2 7 17.9 6.1
-6 2 -7 23.1 6.4
8 -2 7 829.82 49.3
-8 2 -7 752.22 48.8
-8 2 -7 829.02 49.1
-10 2 -7 5 7
-10 2 -7 4.9 7
-12 2 -7 130.29 12.1
-12 2 -7 116.59 13.1
-17 3 7 131.19 14.1
-15 3 7 411.16 30.7
-13 3 7 -6.7 11.2
-11 -3 7 130.29 12.2
-11 -3 7 111.19 12.2
11 -3 -7 109.49 14
-11 3 7 110.79 14.6
-11 3 7 150.48 14.3
-9 -3 7 2846.42 159.18
9 -3 -7 2580.64 159.88
-9 -3 7 2724.13 158.78
9 3 -7 2661.63 158.88
-9 3 7 2711.43 159.98
-9 3 7 2638.74 160.08
7 -3 -7 75.09 10.7
-7 -3 7 70.69 8.5
-7 -3 7 74.89 9.9
-7 3 7 61.49 10
7 3 -7 76.99 9.2
-7 3 7 80.99 11.4
-5 -3 7 7.7 7.6
5 -3 -7 2.7 8.1
5 -3 -7 14.9 8.2
-5 -3 7 12.3 6
-5 3 7 9.5 8.8
5 3 -7 3.4 5.2
-5 3 7 23.7 7.1
5 3 -7 14.9 7.2
3 -3 -7 111.79 11.7
-3 -3 7 113.79 11
3 -3 -7 87.79 11.6
-3 3 7 130.49 12.4
-3 3 7 111.69 11.1
3 3 -7 87.69 10.4
3 3 -7 102.49 10.7
1 -3 -7 793.72 47.4
-1 -3 7 719.33 47.1
1 -3 -7 721.83 47.2
-1 -3 7 720.53 46.6
1 3 -7 727.73 47
-1 3 7 792.32 47.2
-1 3 7 840.12 47.7
1 3 -7 783.22 46.9
1 -3 7 2411.86 136.19
-1 -3 -7 2309.37 135.99
-1 -3 -7 2316.87 136.09
1 -3 7 2229.68 135.89
1 3 7 2243.58 135.99
-1 3 -7 2217.98 135.99
-1 3 -7 2365.06 136.09
3 -3 7 2.8 6.4
3 -3 7 2 7.1
-3 -3 -7 1.3 6.2
-3 -3 -7 9.5 6
-3 3 -7 -7.9 6.2
-3 3 -7 -3.2 6.3
3 3 7 -0.3 1
3 3 7 5.2 6.7
5 -3 7 1532.05 87.49
-5 -3 -7 1442.86 85.89
-5 -3 -7 1420.36 85.79
5 -3 7 1521.85 86.69
-5 3 -7 1420.96 86.49
5 3 7 1439.56 85.79
-5 3 -7 1288.07 86.19
5 3 7 1541.55 85.99
7 -3 7 133.19 12.7
-7 3 -7 126.49 13
-7 3 -7 146.49 13.4
9 -3 7 112.59 12.2
-9 3 -7 112.89 12
-9 3 -7 139.49 11.8
-11 3 -7 3942.91 222.58
-11 3 -7 3610.14 221.88
-13 3 -7 182.88 16.7
-13 3 -7 163.38 15.5
-14 4 7 67.49 13.6
-12 4 7 81.19 13.9
-12 4 7 81.59 12.8
10 -4 -7 3732.13 225.48
-10 4 7 3895.51 225.68
-8 -4 7 54.39 9.6
8 -4 -7 54.19 10.6
-8 -4 7 74.89 8.2
-8 4 7 68.99 11.9
-8 4 7 60.79 10.3
8 4 -7 74.49 9.3
-6 -4 7 8.2 7.9
6 -4 -7 -0.9 8.2
-6 -4 7 3.9 5.5
-6 4 7 1.6 8.7
-6 4 7 10.4 7.1
6 4 -7 -0.2 7.1
-4 -4 7 3203.78 187.58
4 -4 -7 3190.28 188.18
4 4 -7 3045.2 187.38
-4 4 7 3184.58 188.08
-4 4 7 3312.17 188.28
2 -4 -7 225.08 18.9
2 -4 -7 238.58 19.2
-2 -4 7 208.58 18.1
-2 -4 7 201.98 16.4
-2 4 7 191.78 17.8
-2 4 7 256.77 19.7
2 4 -7 206.58 17.5
2 4 -7 206.58 17.4
0 -4 7 2791.82 167.48
0 -4 -7 2804.52 167.58
0 -4 -7 2897.31 167.58
0 4 -7 2762.52 167.28
0 4 -7 2949 167.58
-2 -4 -7 23.2 7.2
2 -4 7 16 7.9
-2 -4 -7 21 7.6
2 -4 7 16.6 7.1
2 4 7 19.2 7.9
-2 4 -7 20.9 7.2
2 4 7 9.5 7
-2 4 -7 9.2 7.2
-4 -4 -7 76.49 8.4
4 -4 7 56.49 8.2
4 -4 7 59.69 9.6
-4 -4 -7 74.79 8.3
4 4 7 88.89 8.6
-4 4 -7 71.09 9.2
4 4 7 81.19 8.7
-4 4 -7 69.19 8.7
-6 -4 -7 -6.8 5.3
-6 -4 -7 -5.2 5.1
6 -4 7 1.6 7.6
-6 4 -7 6 6.6
-6 4 -7 5.4 6.8
6 4 7 19.8 5.8
8 -4 7 160.78 16.4
-8 4 -7 162.98 15.5
-8 4 -7 171.18 15
10 -4 7 1670.23 106.99
-10 4 -7 1831.42 106.59
-10 4 -7 1870.81 107.29
-12 4 -7 1205.38 73.69
-12 4 -7 1242.48 74.69
-14 4 -7 126.89 12.7
-15 5 7 23.1 12.7
-13 5 7 312.07 27.6
-11 -5 7 111.79 11.3
11 -5 -7 132.19 15.4
-11 -5 7 123.49 12.3
-11 5 7 167.08 15.8
-11 5 7 114.89 15.6
-9 -5 7 339.87 21.4
-9 -5 7 305.37 23.1
9 -5 -7 297.57 25.3
-9 5 7 308.17 26.4
-9 5 7 331.97 24.8
9 5 -7 310.27 23.5
-7 -5 7 1293.27 77.39
7 -5 -7 1302.37 78.49
-7 -5 7 1232.78 76.69
-7 5 7 1330.87 78.79
-7 5 7 1265.07 78.29
7 5 -7 1298.47 77.19
-5 -5 7 931.91 60.59
-5 -5 7 1016 61.39
5 -5 -7 1049.59 62.39
5 5 -7 1028.9 61.19
-5 5 7 1029.7 62.59
-5 5 7 1012.8 61.99
1 -5 -7 1.7 8.4
-1 -5 7 10.1 6.3
-1 -5 7 3.8 8.2
1 -5 -7 -2.2 7.7
-1 5 7 -13.6 8.5
-1 5 7 2 7.2
1 5 -7 -8.9 7.2
1 5 -7 -2.3 7.7
3 -5 7 302.07 23.1
3 -5 7 353.56 24.5
-3 -5 -7 313.67 23.3
-3 -5 -7 363.36 23.1
-3 5 -7 347.77 23.9
-3 5 -7 346.67 23.7
3 5 7 349.17 23.6
3 5 7 332.57 23
-5 -5 -7 275.07 18.5
-5 -5 -7 246.18 18.7
5 -5 7 261.97 20.9
-5 5 -7 252.67 20
5 5 7 277.67 18.9
-7 -5 -7 54.39 6.8
7 -5 7 49 10.1
-7 5 -7 39.9 8.4
7 5 7 60.69 7.1
-7 5 -7 59.89 9.3
9 -5 7 609.24 41.2
-9 5 -7 650.33 40.5
-9 5 -7 652.43 41.2
11 -5 7 1027.9 78.49
-11 5 -7 1260.97 74.89
-11 5 -7 1325.97 74.09
-13 5 -7 394.96 27.4
-15 5 -7 48.5 9.6
-14 6 7 84.19 15.4
-12 6 7 342.57 29.7
10 -6 -7 26.8 11.1
-10 -6 7 57.29 9.3
-10 -6 7 37.6 6.7
-10 6 7 21.8 10.4
-10 6 7 41 12.7
-8 -6 7 71.89 8.4
8 -6 -7 72.89 12.4
-8 -6 7 92.89 10.9
-8 6 7 77.79 13.2
8 6 -7 71.69 9.9
-8 6 7 75.29 12
-6 -6 7 3698.53 222.08
6 -6 -7 3750.02 223.08
-6 6 7 3736.83 223.08
-6 6 7 3733.43 223.18
6 6 -7 3952.6 222.08
4 -6 -7 16.5 9.1
-4 -6 7 24 8.2
-4 -6 7 16.3 5.9
4 -6 -7 24.8 9.6
4 6 -7 24 8
-4 6 7 25 8.3
4 6 -7 4.8 7.2
-4 6 7 31.1 10.4
2 -6 -7 623.24 40.6
-2 -6 7 629.74 39.2
-2 -6 7 585.84 40
2 -6 -7 656.23 40.8
-2 6 7 603.24 40.2
2 6 -7 639.34 39.6
2 6 -7 614.54 39.8
-2 6 7 671.73 41.2
0 -6 7 1163.08 67.79
0 -6 7 1105.79 66.99
0 -6 -7 1158.48 67.89
0 -6 -7 1086.99 67.59
0 6 -7 1135.59 67.49
0 6 -7 1068.79 67.19
0 6 7 1065.19 67.79
0 6 7 1098.89 67.69
2 -6 7 56.39 9.9
-2 -6 -7 63.69 9.5
2 -6 7 75.39 9.3
-2 -6 -7 63.99 9.2
-2 6 -7 55.09 9.3
2 6 7 64.49 9.3
2 6 7 67.69 10
-2 6 -7 85.29 9.8
-4 -6 -7 191.58 16.4
4 -6 7 221.38 18.5
4 -6 7 169.18 16.6
-4 -6 -7 229.08 16.3
-4 6 -7 185.48 17
-4 6 -7 221.18 17.6
4 6 7 186.48 15
4 6 7 220.88 16.7
-6 -6 -7 95.69 9.2
6 -6 7 83.79 11.5
-6 -6 -7 82.99 9
-6 6 -7 83.49 10.8
-6 6 -7 65.39 10.1
6 6 7 76.19 9.1
8 -6 7 2438.16 144.49
-8 6 -7 2349.26 143.89
-8 6 -7 2494.85 144.59
10 -6 7 4.9 9.5
-10 6 -7 15.6 9.3
-10 6 -7 4.5 8.1
-12 6 -7 -0.5 8.2
-14 6 -7 220.68 19.3
-16 6 -7 -3.1 8.8
-15 7 7 105.49 16.7
-13 7 7 456.05 35.5
-11 -7 7 104.29 11.1
-11 -7 7 104.19 9.2
-11 7 7 69.99 15.3
9 -7 -7 71.09 13
-9 -7 7 98.99 9.2
-9 -7 7 80.09 11
-9 7 7 88.39 14.1
-9 7 7 66.59 12.4
-7 -7 7 731.03 47.7
-7 -7 7 768.42 46.9
7 -7 -7 764.12 49.7
-7 7 7 710.53 49.8
-7 7 7 806.12 49.5
7 7 -7 813.62 47.6
5 -7 -7 1224.08 78.59
-5 -7 7 1267.17 76.89
-5 -7 7 1306.87 77.39
-5 7 7 1254.17 78.39
-5 7 7 1374.86 78.89
5 7 -7 1281.97 77.19
3 -7 -7 170.08 15.6
-3 -7 7 145.09 14
-3 -7 7 154.98 13.9
3 -7 -7 168.18 15.2
-3 7 7 146.49 16.6
3 7 -7 161.98 15.3
3 7 -7 143.79 15.7
-3 7 7 164.88 16.3
1 -7 -7 88.09 11.6
-1 -7 7 84.49 9.5
1 -7 -7 86.79 11.4
-1 -7 7 86.49 10.9
-1 7 7 92.69 12
1 7 -7 83.99 11.2
1 7 -7 89.79 10.5
-1 7 7 88.49 10.7
-3 -7 -7 -7.6 6.6
-3 -7 -7 8.9 7.6
3 -7 7 -9 8.6
3 -7 7 10 7
3 7 7 -6.6 7.3
-3 7 -7 -11.3 7.2
3 7 7 3.4 7.9
-3 7 -7 5.2 7.7
-5 -7 -7 160.18 13.8
5 -7 7 155.88 16.9
-5 -7 -7 136.09 13.9
5 7 7 158.08 14.4
-5 7 -7 123.39 13
-5 7 -7 134.49 15.4
7 -7 7 2834.62 160.38
-7 -7 -7 2841.52 158.68
-7 -7 -7 2615.54 158.68
7 7 7 2704.83 158.78
-7 7 -7 2687.83 160.38
-7 7 -7 2492.55 159.58
9 -7 7 132.29 15.2
-9 7 -7 137.69 14.1
-9 7 -7 148.89 15.2
-11 7 -7 170.08 17
-11 7 -7 164.68 17.3
-13 7 -7 154.98 17
-15 7 -7 249.78 21.2
-14 8 7 598.14 43.5
-12 8 7 62.19 15.4
10 -8 -7 240.08 24.7
-10 -8 7 237.38 20.5
-10 -8 7 272.67 18.2
-10 8 7 267.87 24.1
-10 8 7 245.78 25.8
-8 -8 7 29.2 6.9
8 -8 -7 23.9 11
-8 -8 7 36.8 9.3
-8 8 7 34.6 12.7
-8 8 7 38 11.3
8 8 -7 42.1 8.5
-6 -8 7 412.36 26.8
6 -8 -7 372.66 29.1
-6 -8 7 310.17 25.1
-6 8 7 412.86 28.7
6 8 -7 361.56 26.1
-6 8 7 462.75 30.1
-4 -8 7 1002.9 65.49
4 -8 -7 1047.3 66.79
-4 -8 7 1096.29 64.99
4 -8 -7 1131.09 66.99
-4 8 7 1046.8 66.99
-4 8 7 1132.49 66.69
4 8 -7 1081.29 65.39
2 -8 -7 111.89 13.3
-2 -8 7 119.39 12.5
-2 -8 7 81.39 10.4
2 -8 -7 125.39 12.9
-2 8 7 108.39 12
2 8 -7 98.09 11.3
-2 8 7 96.69 13.4
2 8 -7 93.89 12.1
0 -8 -7 4172.18 248.58
0 -8 7 4175.88 248.58
0 8 -7 4307.77 248.58
0 8 -7 3998 248.28
0 8 7 4506.55 248.98
0 8 7 4160.18 248.58
-2 -8 -7 379.76 27.7
-2 -8 -7 424.76 27.8
2 -8 7 419.56 28.9
2 -8 7 364.26 27.1
2 8 7 424.16 28.4
2 8 7 363.46 27.9
-2 8 -7 393.56 27.8
-2 8 -7 419.56 28.1
-4 -8 -7 691.53 44.1
-4 -8 -7 742.53 44.5
4 -8 7 727.33 45
4 -8 7 728.83 45.7
-4 8 -7 728.73 45.3
4 8 7 757.62 44.6
-4 8 -7 569.84 44.3
-6 -8 -7 35.9 8
-6 -8 -7 31.4 7.6
6 -8 7 38.9 10.5
-6 8 -7 24.5 8.4
6 8 7 23.6 8.1
-6 8 -7 28.9 9.2
-8 -8 -7 229.38 16.7
8 -8 7 203.98 21.2
-8 -8 -7 216.58 17.1
-8 8 -7 245.88 19.6
-8 8 -7 198.18 20.4
10 -8 7 247.68 23.4
-10 8 -7 237.18 22.3
-10 8 -7 244.88 21.1
-12 8 -7 6.7 9.3
-14 8 -7 12.4 9.8
-15 9 7 72.39 16.9
-13 9 7 32 14.9
-11 -9 7 345.97 21.6
-11 -9 7 299.37 23.5
-11 9 7 273.37 29.3
-9 -9 7 820.82 50.09
9 -9 -7 864.51 54.29
-9 -9 7 837.82 51.19
-9 9 7 768.42 53.89
-9 9 7 797.92 54.39
9 9 -7 820.22 51.59
-7 -9 7 11.9 8.6
-7 -9 7 6.6 6.1
7 -9 -7 15.5 10.6
-7 9 7 -1.8 9.5
7 9 -7 -7.3 7.6
-7 9 7 -1 11.2
5 -9 -7 211.78 21.8
-5 -9 7 220.98 19.1
-5 -9 7 227.48 17.2
5 9 -7 216.48 18.3
-5 9 7 229.98 20.5
-5 9 7 201.58 22.3
-3 -9 7 2527.15 149.39
3 -9 -7 2571.74 150.58
3 -9 -7 2594.84 150.68
-3 -9 7 2420.86 149.79
3 9 -7 2545.35 149.59
-3 9 7 2541.35 150.88
-3 9 7 2468.65 150.38
1 -9 -7 28.7 9.3
-1 -9 7 18.6 7.3
-1 -9 7 10.9 9.3
1 -9 -7 7 9.1
-1 9 7 10 8.1
-1 9 7 20.2 9.9
1 9 -7 8.9 7.8
1 9 -7 16.2 8.7
1 -9 7 1208.88 70.79
-1 -9 -7 1191.18 70.49
-1 -9 -7 1171.28 70.39
1 -9 7 1202.48 69.89
1 9 7 1122.69 70.59
1 9 7 1134.99 70.29
-1 9 -7 1006.1 69.79
-1 9 -7 1142.99 70.39
3 -9 7 3608.24 212.18
-3 -9 -7 3728.03 212.18
3 -9 7 3602.34 212.68
-3 -9 -7 3386.36 211.78
-3 9 -7 3818.82 212.78
3 9 7 3726.43 212.18
-3 9 -7 3287.07 211.88
-5 -9 -7 2046.9 117.59
-5 -9 -7 1981.1 117.19
5 -9 7 1935.01 118.49
5 9 7 2093.39 117.59
-5 9 -7 1989.2 118.59
-5 9 -7 1774.92 117.59
-7 -9 -7 12 7.8
-7 -9 -7 9.3 7.4
7 -9 7 3.4 10.1
7 9 7 10.6 8
-7 9 -7 3.8 8.3
-7 9 -7 2.7 9.4
-9 -9 -7 2 6.2
9 -9 7 4.2 11.1
-9 9 -7 0.3 9.1
-9 9 -7 21.7 10.2
-11 9 -7 -3.6 9.6
-13 9 -7 4.3 10
-15 9 -7 94.39 13.2
-14 10 7 117.29 18.9
-12 10 7 40.3 15.1
-10 -10 7 211.18 15.6
-10 -10 7 168.98 18.5
-10 10 7 156.58 20.4
-8 -10 7 1966.5 124.59
8 -10 -7 2092.99 126.99
-8 -10 7 2198.08 124.29
8 10 -7 2019.6 124.49
-8 10 7 2195.78 127.09
-8 10 7 2098.29 127.09
-6 -10 7 835.22 49.8
6 -10 -7 824.12 52.79
-6 -10 7 722.53 50.39
-6 10 7 797.22 52.09
6 10 -7 822.12 50.29
-6 10 7 834.32 53.19
4 -10 -7 222.58 22.5
-4 -10 7 212.48 20.4
-4 -10 7 247.88 18.5
4 -10 -7 258.17 22.4
4 10 -7 255.27 19.7
-4 10 7 220.58 21
-4 10 7 210.08 23.2
-2 -10 7 1979.3 127.69
-2 -10 7 2209.68 127.29
2 -10 -7 2058.39 128.19
2 -10 -7 2061.89 128.19
-2 10 7 2231.18 128.69
2 10 -7 2134.69 127.69
2 10 -7 2187.98 127.49
-2 10 7 2233.28 128.19
0 -10 7 30.2 10.5
0 -10 7 21.7 7.5
0 -10 -7 24.9 10
0 -10 -7 39 9.8
0 10 -7 24.7 9.2
0 10 7 22.9 9.2
0 10 7 22.7 10.7
0 10 -7 10.9 8.5
-2 -10 -7 71.09 10.9
2 -10 7 54.69 11.7
2 -10 7 70.59 9.7
-2 -10 -7 54.49 10.4
2 10 7 61.69 11.3
-2 10 -7 80.49 11.1
-2 10 -7 63.29 10.5
-6 -10 -7 29.9 8.4
6 -10 7 37.2 11.7
-6 -10 -7 28.1 9.1
6 10 7 28.8 9.3
-6 10 -7 19 10
-6 10 -7 24.2 9.3
-8 -10 -7 26.9 8.1
-8 -10 -7 30.5 8.9
8 -10 7 38.1 11.8
-8 10 -7 29.2 11.2
-8 10 -7 17.8 9.6
-10 10 -7 125.39 14.7
-12 10 -7 164.18 16.8
-14 10 -7 236.98 22.1
-15 11 7 -6.1 15
-13 11 7 85.09 17.3
-11 -11 7 218.08 19.4
-11 11 7 182.78 21.9
9 -11 -7 239.98 24.1
-9 -11 7 242.58 21.1
-9 -11 7 238.68 19.4
-9 11 7 230.28 24
9 11 -7 271.17 20.6
-7 -11 7 22.1 9.8
-7 -11 7 23.5 7.5
7 -11 -7 10.4 11.8
-7 11 7 37.2 11.1
7 11 -7 8.4 8.7
-7 11 7 7.3 12.7
5 -11 -7 368.16 30.1
-5 -11 7 362.86 27.7
-5 -11 7 407.76 26.4
-5 11 7 344.77 28.8
-5 11 7 329.97 30.6
5 11 -7 431.36 27.3
-3 -11 7 368.36 25.1
3 -11 -7 326.57 28.3
3 -11 -7 356.96 28.2
-3 -11 7 318.27 26.4
-3 11 7 365.76 27.2
3 11 -7 351.86 25.6
-3 11 7 355.46 29
1 -11 -7 -9 9.2
-1 -11 7 7 9.4
-1 -11 7 8.3 7.2
1 -11 -7 -4.1 9.7
-1 11 7 -9.6 10.8
-1 11 7 0.2 8.7
1 11 -7 3.9 8.8
1 11 -7 -3.8 9.3
1 -11 7 2183.58 122.99
1 -11 7 2113.79 123.69
-1 -11 -7 2057.09 123.39
-1 -11 -7 1977.6 123.39
-1 11 -7 1869.41 122.69
1 11 7 1993.5 123.19
-1 11 -7 2083.59 123.39
1 11 7 2172.78 123.79
3 -11 7 592.04 38.7
-3 -11 -7 528.75 37.3
-3 -11 -7 517.05 36.9
3 -11 7 579.94 37
-3 11 -7 570.14 37
-3 11 -7 579.44 37.9
3 11 7 511.45 37.5
-5 -11 -7 481.65 33.5
5 -11 7 503.95 35.9
-5 -11 -7 492.05 33.9
-5 11 -7 523.65 35.4
5 11 7 503.65 34.2
-5 11 -7 480.05 34
-7 -11 -7 125.09 13.3
7 -11 7 113.29 15.3
-7 -11 -7 105.09 12.1
-7 11 -7 76.29 12.3
-7 11 -7 86.49 14.2
7 11 7 128.19 12.8
9 -11 7 2.3 13.5
-9 -11 -7 8.3 8.3
-9 -11 -7 -9.1 7.4
-9 11 -7 16.2 9.5
-9 11 -7 -3.9 11.9
-11 11 -7 -0.8 9.8
-13 11 -7 70.99 13.5
-15 11 -7 0.7 11
-14 12 7 428.16 36.8
-12 -12 7 48.3 10.4
-12 -12 7 49.1 11.2
-12 12 7 38.2 16
-10 -12 7 33.6 10.9
-10 12 7 28.7 15.5
-8 -12 7 216.48 18.8
8 -12 -7 234.48 23.5
-8 -12 7 261.27 21.4
-8 12 7 220.88 23.7
-8 12 7 254.27 24.2
8 12 -7 228.78 20.5
6 -12 -7 10.8 11.5
-6 -12 7 3.7 7.8
-6 -12 7 23.6 10.1
-6 12 7 30.3 13.4
-6 12 7 5.2 10.2
6 12 -7 6.2 8.8
-4 -12 7 189.08 20
4 -12 -7 197.18 22.2
-4 -12 7 234.48 18.3
4 12 -7 221.88 19.2
-4 12 7 161.48 19.5
-4 12 7 191.28 20.8
2 -12 -7 -13.2 10.1
-2 -12 7 12.5 8
2 -12 -7 -9.5 9.8
-2 -12 7 6 10.3
-2 12 7 -2.7 9
2 12 -7 3.3 9
-2 12 7 0.7 11
0 -12 -7 2832.32 169.18
0 -12 7 3166.78 168.58
0 -12 -7 2772.42 168.88
0 -12 7 2776.82 168.88
0 12 -7 2729.93 168.28
0 12 -7 2878.91 168.98
0 12 7 2734.23 168.78
0 12 7 2783.32 169.18
2 -12 7 957.1 61.99
2 -12 7 975.5 60.69
-2 -12 -7 956.3 61.29
-2 -12 -7 1035.4 61.69
-2 12 -7 1053.09 61.89
-2 12 -7 897.61 60.69
2 12 7 954.1 61.79
4 -12 7 646.94 45.1
-4 -12 -7 759.62 44.4
-4 -12 -7 669.43 43.6
4 12 7 704.93 44.3
-4 12 -7 686.43 44.8
-4 12 -7 547.45 43.3
6 -12 7 240.08 25.5
-6 -12 -7 247.58 22.9
-6 -12 -7 263.47 22.4
-6 12 -7 291.77 23.1
6 12 7 288.57 23.6
-6 12 -7 304.37 25.1
-8 -12 -7 382.16 26.6
-8 -12 -7 414.56 27.6
8 -12 7 334.97 31.1
-8 12 -7 369.26 28.1
-8 12 -7 366.46 30.1
8 12 7 331.67 27
-10 -12 -7 161.18 16.8
-10 -12 -7 171.48 15.6
-10 12 -7 166.58 17.3
-12 12 -7 109.79 15
-14 12 -7 17 12
-13 -13 7 121.09 14.1
-13 13 7 116.29 20.1
-11 -13 7 -2.8 9.7
-11 -13 7 10.3 10.4
-11 13 7 0 14.6
-9 -13 7 3.7 10.1
9 13 -7 7.8 9.9
-9 13 7 16.4 15.1
-7 -13 7 666.23 46.5
-7 -13 7 789.82 46
7 -13 -7 746.23 49.99
-7 13 7 630.04 50.19
-7 13 7 757.12 49.4
7 13 -7 717.23 46.4
5 -13 -7 10.1 12.3
-5 -13 7 19.1 10.7
-5 -13 7 25.3 8.4
-5 13 7 16.6 11.3
5 13 -7 15.3 9.5
-5 13 7 22.2 13.6
-3 -13 7 553.84 35.8
-3 -13 7 495.55 33.9
3 -13 -7 474.45 36.9
3 -13 -7 474.85 37.1
3 13 -7 501.05 34.8
-3 13 7 490.05 38
-3 13 7 526.35 36.3
-1 -13 7 26.4 10.8
-1 -13 7 4.8 7.9
1 -13 -7 18.7 11.3
1 -13 -7 14 11.1
-1 13 7 10.7 10.4
1 13 -7 4.5 9
-1 13 7 6.1 11.8
1 -13 7 527.65 39.1
-1 -13 -7 502.85 38.6
1 -13 7 639.74 37.6
-1 -13 -7 572.84 38.9
-1 13 -7 576.34 37.6
1 13 7 522.65 39.4
-1 13 -7 527.25 38.5
-3 -13 -7 14.3 10.3
3 -13 7 19.9 11.4
-3 -13 -7 7.8 9.7
-3 13 -7 22 9.8
3 13 7 35.3 11.3
-3 13 -7 11.7 9.8
5 -13 7 108.59 15.9
-5 -13 -7 145.69 15.8
-5 -13 -7 137.09 14.5
5 13 7 134.09 15.6
-5 13 -7 117.49 16
-5 13 -7 103.69 14.1
7 -13 7 1114.09 67.99
-7 -13 -7 1013.7 65.49
-7 -13 -7 1054.29 64.99
-7 13 -7 1124.39 65.99
-7 13 -7 1065.09 67.59
7 13 7 940.81 65.19
-9 -13 -7 4.5 10.2
-9 -13 -7 6.3 8.8
-9 13 -7 -4.4 10.1
-11 -13 -7 3.4 8.7
-11 13 -7 19.6 11.2
-13 13 -7 -0.8 11.6
-14 14 7 63.29 18.8
-12 -14 7 19.2 11
-12 14 7 -1.9 15.9
-10 -14 7 35.7 11.6
-10 14 7 19.8 15.9
-8 -14 7 104.49 14.4
-8 14 7 69.49 18
8 14 -7 135.99 14.5
6 -14 -7 1859.11 114.79
-6 -14 7 1975.9 112.39
-6 -14 7 1806.92 112.69
-6 14 7 1835.32 115.19
6 14 -7 1844.12 112.49
-6 14 7 1881.41 114.69
-4 -14 7 156.58 16.6
4 -14 -7 130.49 17.7
-4 -14 7 148.29 16.7
4 14 -7 163.48 15.8
-4 14 7 111.09 18.4
-4 14 7 169.18 17.6
-2 -14 7 170.48 18.2
2 -14 -7 202.28 19.5
-2 -14 7 188.88 18.2
2 -14 -7 163.88 18.4
2 14 -7 170.48 19.2
-2 14 7 163.98 19.6
-2 14 7 188.28 18.8
0 -14 -7 628.74 40.9
0 -14 7 501.55 38.4
0 -14 -7 615.84 40.8
0 -14 7 618.74 40.6
0 14 -7 468.15 38.4
0 14 7 673.03 41.8
2 -14 7 851.51 56.89
-2 -14 -7 830.22 55.89
-2 -14 -7 945.91 56.89
-2 14 -7 769.72 55.19
2 14 7 894.11 56.99
-2 14 -7 952.7 56.79
4 -14 7 150.58 17.6
-4 -14 -7 116.79 15.9
-4 -14 -7 156.38 16
-4 14 -7 187.18 18.8
4 14 7 101.19 15.8
-4 14 -7 142.49 16.7
-6 -14 -7 10.3 10.3
6 -14 7 11.6 12.8
-6 -14 -7 18.5 10.9
6 14 7 19.3 11.4
-6 14 -7 1 10.2
-6 14 -7 14.2 11.5
-8 -14 -7 560.84 36.7
-8 -14 -7 510.95 35.2
8 14 7 471.15 36.1
-8 14 -7 513.95 36.6
-10 -14 -7 32 10.8
-10 -14 -7 24.4 9.4
-10 14 -7 12.8 10.9
-12 14 -7 46.3 12.8
-14 14 -7 268.27 26.3
-13 -15 7 133.89 15.5
-13 15 7 122.79 21.8
-11 -15 7 7.9 11.2
-11 15 7 15.5 17
-9 -15 7 613.14 41
-9 15 7 582.74 46
-7 -15 7 69.29 12.7
7 -15 -7 63.19 16.6
-7 15 7 29.1 15.8
7 15 -7 53.99 12
-5 -15 7 523.05 34.1
-5 -15 7 480.35 35.2
5 -15 -7 468.25 37.9
-5 15 7 466.35 37
-5 15 7 417.36 39.1
5 15 -7 532.75 34.7
-3 -15 7 805.82 47.1
3 -15 -7 704.93 49.5
-3 -15 7 680.53 47.9
3 15 -7 729.93 47.3
-3 15 7 703.33 48.8
-3 15 7 665.23 50.09
1 -15 -7 27.3 12.5
1 -15 -7 22.4 12.1
-1 -15 7 26 12.1
-1 15 7 24.6 13.5
1 15 -7 10 10
-1 -15 -7 1441.16 85.99
1 -15 7 1399.06 85.79
-1 -15 -7 1406.66 85.29
1 15 7 1419.26 86.19
-1 15 -7 1237.28 84.19
-1 15 -7 1358.36 85.39
-3 -15 -7 6.7 11.4
-3 -15 -7 2.5 10.7
3 -15 7 -4.2 11.9
-3 15 -7 19.7 11.7
-3 15 -7 15.2 10.9
3 15 7 -4.3 12.1
-5 -15 -7 102.19 14.4
5 -15 7 110.69 16.3
-5 -15 -7 116.09 15.4
-5 15 -7 124.19 16
5 15 7 102.69 15.6
-5 15 -7 82.99 14
-7 -15 -7 127.09 15.2
-7 -15 -7 125.79 15.8
7 -15 7 118.49 18.6
-7 15 -7 92.19 15.2
7 15 7 159.78 16.9
-9 -15 -7 231.48 23.6
-9 -15 -7 231.08 21.5
-9 15 -7 248.48 23.5
-11 -15 -7 1225.48 74.99
-11 15 -7 1247.48 77.49
-13 15 -7 75.89 14.7
-14 -16 7 -15.3 11.2
-14 16 7 21.4 18.6
-12 -16 7 139.49 16.2
-12 16 7 133.49 22.5
-10 -16 7 612.24 40.9
-10 16 7 573.04 46.5
-8 -16 7 223.48 22.8
-8 16 7 238.68 25.4
-6 -16 7 88.29 13.9
6 -16 -7 50.49 16.1
-6 16 7 81.19 15.4
-6 16 7 61.29 17.6
6 16 -7 88.59 13.6
4 -16 -7 169.78 20
-4 -16 7 143.39 17.4
-4 16 7 110.09 19.6
-4 16 7 161.28 19.2
4 16 -7 168.08 17.1
2 -16 -7 23.8 13.1
-2 -16 7 31.6 13.4
2 -16 -7 18.6 12.8
2 16 -7 24.3 11.2
-2 16 7 23.3 14.9
0 -16 7 427.56 34.4
0 -16 7 487.15 35.7
0 -16 -7 424.46 34.6
0 -16 -7 462.05 34.5
0 16 -7 412.36 32.3
0 16 7 438.96 36
2 -16 7 71.59 14.9
-2 -16 -7 103.79 16.2
2 -16 7 126.09 17.1
-2 -16 -7 87.19 15
2 16 7 62.99 16.1
-2 16 -7 72.69 12.5
-2 16 -7 88.99 15.5
-4 -16 -7 750.82 49.3
4 -16 7 657.33 49.4
-4 -16 -7 691.03 48.2
4 16 7 789.32 49.6
-4 16 -7 774.92 49.8
-4 16 -7 651.13 48
6 -16 7 41.3 14.7
-6 -16 -7 2.1 11.9
-6 -16 -7 5.2 11
6 16 7 11.1 12.5
-6 16 -7 9.7 12.8
-6 16 -7 9.2 11.4
-8 -16 -7 98.49 14
-8 16 -7 98.69 14.6
-10 -16 -7 457.15 34.1
-10 16 -7 545.55 37
-12 -16 -7 506.95 33.9
-12 16 -7 509.75 37.9
-13 -17 7 9.4 12
-13 17 7 18.1 18.7
-11 -17 7 100.09 14.8
-11 17 7 79.29 20.4
-9 -17 7 286.27 25.3
-9 17 7 247.88 27.9
-7 -17 7 269.87 24.1
-7 17 7 188.88 24.2
-5 -17 7 132.59 16.6
5 -17 -7 133.19 20.4
-5 -17 7 152.18 18.3
-5 17 7 154.78 19.3
5 17 -7 135.69 16.8
-5 17 7 127.29 19.9
-3 -17 7 277.87 27.2
-3 -17 7 298.67 28.5
3 -17 -7 263.57 28.5
-3 17 7 306.87 30.6
-3 17 7 296.37 27.2
3 17 -7 244.18 25.3
1 -17 -7 56.19 14.9
1 -17 -7 48.5 14.4
-1 -17 7 46.3 13.9
-1 -17 7 46.1 14.5
1 17 -7 89.49 13.6
-1 17 7 61.69 16.1
-1 -17 -7 399.46 31
1 -17 7 350.16 30.7
-1 -17 -7 369.46 30.9
1 -17 7 321.27 31.5
-1 17 -7 349.67 28.5
1 17 7 292.47 31.4
3 -17 7 374.96 34.1
-3 -17 -7 414.46 32.7
-3 -17 -7 403.76 33.2
-3 17 -7 380.06 31.6
3 17 7 432.46 33.9
-3 17 -7 406.66 32.9
-5 -17 -7 480.45 36.7
-5 -17 -7 489.55 38
5 -17 7 523.05 39.8
-5 17 -7 508.75 36.8
5 17 7 464.35 38.2
-5 17 -7 534.75 39
-7 -17 -7 -1.9 11
-7 17 -7 -6.1 11.7
-9 -17 -7 73.59 13.3
-9 17 -7 82.79 14.4
-11 -17 -7 250.77 23.9
-11 17 -7 339.87 28.1
-13 -17 -7 -0.9 8.8
-13 17 -7 -0.9 12.7
-12 -18 7 4.5 12.1
-12 18 7 -1.8 17.9
-10 -18 7 442.06 34.9
-10 18 7 511.85 42.1
-8 -18 7 -1.4 12.1
-8 18 7 5 16.4
-6 -18 7 1194.88 76.99
6 -18 -7 1381.56 80.99
-6 18 7 1119.09 79.89
4 -18 -7 485.95 41.3
-4 -18 7 528.35 39.1
-4 -18 7 532.55 45.1
4 18 -7 528.85 38.3
-4 18 7 485.55 42.3
-4 18 7 585.24 41.2
-2 -18 7 49.9 14.1
-2 -18 7 50.59 15.6
2 -18 -7 39.1 15.5
2 -18 -7 49.3 15.7
-2 18 7 55.29 16.8
2 18 -7 48.3 12.5
0 -18 -7 27.4 14.5
0 -18 -7 52.89 15
0 -18 7 50.59 15.6
0 -18 7 68.89 15.4
0 18 7 39 16.2
0 18 -7 59.19 13.1
-2 -18 -7 425.76 35.9
2 -18 7 404.16 35.7
-2 -18 -7 470.95 35.6
2 18 7 425.26 36.5
-2 18 -7 477.85 34.3
-4 -18 -7 1048.2 66.09
4 -18 7 1018.9 67.89
-4 -18 -7 1039.3 72.69
-4 18 -7 1045.1 66.09
4 18 7 960.8 67.29
-4 18 -7 1041.6 67.69
-6 -18 -7 31.7 12.9
-6 18 -7 24.7 12.5
-8 -18 -7 603.44 44.2
-8 18 -7 701.53 45.8
-10 -18 -7 330.57 26.9
-10 18 -7 312.67 29.2
-12 -18 -7 51.49 11.8
-12 18 -7 41.8 14.3
-13 19 7 -6.4 18.9
-11 -19 7 60.39 14
-11 19 7 26.3 19.9
-9 -19 7 75.79 14.9
-9 19 7 68.09 19.9
-7 -19 7 130.69 17.4
-7 19 7 102.89 20.5
5 -19 -7 20.8 15.7
-5 -19 7 12 13.3
-5 19 7 9.7 15.6
-3 -19 7 431.66 35.1
3 -19 -7 403.66 36.8
3 19 -7 482.75 34.1
-3 19 7 380.26 38
1 -19 -7 226.18 23.9
-1 -19 7 225.98 24.2
1 -19 -7 173.98 22.5
-1 -19 7 206.38 22.6
1 19 -7 217.58 23.3
-1 19 7 229.28 24.9
-1 -19 -7 66.79 16.4
1 -19 7 85.79 17.7
1 -19 7 62.99 15.4
-1 -19 -7 76.99 16
1 19 7 52.49 17
-1 19 -7 49.4 13.4
3 -19 7 -17.2 13.4
-3 -19 -7 32.3 13.6
3 19 7 -2.5 14.6
-3 19 -7 17.4 11.7
-5 -19 -7 27.1 13.5
5 -19 7 35.2 16.3
-5 19 -7 29.2 13.3
-7 -19 -7 15.1 12.3
-7 19 -7 -6.2 12.4
-9 -19 -7 20.2 12.3
-9 19 -7 24.8 13.7
-11 -19 -7 528.35 37.4
-11 19 -7 536.55 40.3
-13 -19 -7 -6.1 10.5
-13 19 -7 1 20.9
-12 -20 7 16.1 13.4
-12 20 7 6.9 20.1
-10 -20 7 -11.2 12.7
-10 20 7 -12.5 18
-8 -20 7 70.49 15.4
-8 20 7 33.2 19.2
-6 -20 7 1178.38 74.79
-6 20 7 1154.68 77.69
4 -20 -7 15 15.8
-4 -20 7 -4 13.7
-4 20 7 -16.8 15.8
2 -20 -7 48.9 16.5
-2 -20 7 30.7 14.3
2 20 -7 34 13.1
-2 20 7 44.1 16.8
0 -20 -7 12.7 16.8
0 -20 7 35.4 14.6
0 -20 -7 24.4 14.8
0 -20 7 54.59 16.7
0 20 -7 36.4 12.6
0 20 7 23.8 17
-2 -20 -7 337.17 32.2
2 -20 7 351.06 32.5
2 20 7 380.56 38.4
-2 20 -7 323.57 30.1
-4 -20 -7 52.39 14.9
4 -20 7 77.19 17.6
-4 20 -7 64.09 14.9
-6 -20 -7 94.29 16.4
-6 20 -7 89.39 16.2
-8 -20 -7 238.28 24
-8 20 -7 167.38 20.8
-10 -20 -7 -5.7 12.2
-10 20 -7 15.4 13.4
-12 -20 -7 -5.4 11.8
-12 20 -7 14.2 14.6
-11 -21 7 9.1 13.5
-11 21 7 -35.7 18.4
-9 -21 7 21.1 14.1
-9 21 7 36.2 19.8
-7 -21 7 1661.53 93.19
-7 21 7 1285.77 95.79
-5 -21 7 305.17 30.5
-5 21 7 320.37 35.4
3 -21 -7 365.86 34.4
-3 -21 7 329.27 31.1
-3 21 7 249.18 29.7
-1 -21 7 18.3 15.1
1 -21 -7 37.9 16.4
-1 21 7 0.4 17.2
1 21 -7 10.4 12.9
1 -21 7 67.79 17.1
-1 -21 -7 65.19 17.8
-1 21 -7 64.19 14.5
3 -21 7 81.19 18.8
-3 -21 -7 116.29 18.1
-3 21 -7 92.59 16
-5 -21 -7 106.79 17.2
-5 21 -7 97.09 17
-7 -21 -7 486.35 38.4
-7 21 -7 525.65 39.8
-9 -21 -7 73.69 15.5
-9 21 -7 78.89 16
-11 -21 -7 11.6 13.1
-11 21 -7 23.1 14.7
-12 22 7 -21.2 19.9
-10 -22 7 143.19 19.2
-10 22 7 141.69 25.4
-8 -22 7 13.4 14.3
-8 22 7 15 19.1
-6 -22 7 595.34 43.5
-6 22 7 549.54 48.3
4 -22 -7 160.18 23.9
-4 -22 7 138.49 20.3
-4 22 7 169.98 24.6
-2 -22 7 49.99 16.5
2 -22 -7 47.9 17.7
-2 22 7 19 18.8
0 -22 7 41.4 16.3
0 -22 -7 70.79 16.9
0 22 -7 49.2 19.9
-2 -22 -7 76.69 17.6
2 -22 7 82.69 18.2
-2 22 -7 90.29 16.3
-4 -22 -7 488.35 37.6
4 -22 7 415.06 40.2
-6 -22 -7 1 13.3
-6 22 -7 9.9 13.2
-8 -22 -7 122.39 18.2
-8 22 -7 142.49 19.5
-10 -22 -7 164.78 19.7
-10 22 -7 163.88 21.1
-12 22 -7 209.88 24
-11 23 7 15.5 21
-9 -23 7 350.76 31.1
-9 23 7 291.27 32.7
-7 -23 7 -1.8 14.3
-7 23 7 15.4 20.4
-5 -23 7 37 16.1
-5 23 7 29.9 20.5
-3 -23 7 421.66 37.8
3 -23 -7 504.05 40.8
-3 23 7 382.56 42.2
1 -23 -7 199.58 24.2
-1 -23 7 221.68 24.5
-1 -23 -7 11 15.1
1 -23 7 -7.4 15.6
3 -23 7 19.8 17.4
-3 -23 -7 30.8 15.2
-3 23 -7 12.5 15.1
-5 -23 -7 187.58 22.7
-5 23 -7 174.28 21
-7 -23 -7 38.2 15.1
-7 23 -7 5 14.9
-9 -23 -7 4.8 14.1
-9 23 -7 15.8 15.1
-11 23 -7 1081.89 71.89
-10 24 7 224.18 30
-8 -24 7 31.1 15.2
-8 24 7 8.6 21.3
-6 -24 7 2.2 15.4
-6 24 7 -1 20.5
-4 -24 7 167.18 22.4
-4 24 7 120.09 24.7
2 -24 -7 5.8 17.9
-2 -24 7 -3 15.9
0 -24 -7 42.6 17.8
0 -24 7 6.2 15.9
-2 -24 -7 43.3 17
2 -24 7 51.69 18.8
-4 -24 -7 324.47 33.8
-4 24 -7 374.36 34
-6 -24 -7 6.2 15.3
-6 24 -7 1.7 15.1
-8 -24 -7 -1.3 14.5
-8 24 -7 3.4 14.9
-10 24 -7 68.99 17.3
-9 25 7 29.6 22.3
-7 -25 7 152.18 21.7
-7 25 7 116.99 25.3
-5 -25 7 53.59 17.3
-5 25 7 37 22.5
-3 -25 7 69.49 19
3 -25 -7 55.99 20
1 -25 -7 1.6 17.1
-1 -25 7 11.2 16.4
1 -25 7 99.69 20.6
-1 -25 -7 99.59 20.2
-3 -25 -7 229.98 25.5
-5 -25 -7 98.59 19.5
-5 25 -7 74.89 17.8
-7 -25 -7 25.6 15.8
-7 25 -7 9.1 16.6
-9 25 -7 106.59 19.2
-11 25 -7 31.2 16.4
-8 -26 7 1 15.8
-8 26 7 9 21.6
-6 -26 7 42.8 17.7
-4 -26 7 27.9 17.5
2 -26 -7 1.3 18.4
-2 -26 7 -16.8 16.1
0 -26 7 385.16 39.7
0 -26 -7 427.86 39.5
2 -26 7 18.5 18.8
-2 -26 -7 26.5 16.8
-4 -26 -7 19.5 16.8
-6 -26 -7 16.5 16.5
-6 26 -7 12.8 16.8
-8 -26 -7 161.68 33.2
-8 26 -7 263.17 27.2
-10 26 -7 -0.2 16.1
-7 -27 7 15.8 17.7
-5 -27 7 336.37 35
-3 -27 7 -19.9 16.3
1 -27 -7 63.29 20.3
-1 -27 7 30 19.2
1 -27 7 1055.69 72.19
-1 -27 -7 995 70.49
-3 -27 -7 19 16.2
-5 -27 -7 55.99 18.7
-7 -27 -7 84.49 19.4
-7 27 -7 107.69 22
-9 27 -7 43.5 17.4
-6 -28 7 257.87 28.9
-4 -28 7 41.1 19.5
-2 -28 7 14 17.9
0 -28 7 239.18 29.9
0 -28 -7 358.86 36.8
-2 -28 -7 87.79 20.4
-4 -28 -7 243.38 27.3
-6 -28 -7 33.9 17.8
-10 28 -7 -5.6 17.4
-5 -29 7 30.2 19.1
-3 -29 7 47.3 20.6
1 -29 -7 14 19
-1 -29 7 25 19.9
-1 -29 -7 -5 17.7
-3 -29 -7 250.37 29.2
-5 -29 -7 139.29 23.2
-4 -30 7 -13.8 17.9
-2 -30 7 10.6 19.8
0 -30 7 1.4 20.1
0 -30 -7 -6.7 19.3
-2 -30 -7 12.9 19
-4 -30 -7 412.86 40.3
-3 -31 7 4.1 20
-1 -31 7 -18.7 19.8
-1 -31 -7 102.49 24.1
-3 -31 -7 52.29 20.4
-2 -32 7 -23.7 19.6
-2 -32 -7 1.2 20.4
-1 -33 -7 77.09 23.7
-14 0 8 20.6 10.2
-14 0 8 9.9 10.4
-12 0 8 126.09 14.7
-12 0 8 152.08 14.2
10 0 -8 24.3 9
-10 0 8 14.3 9.8
-10 0 8 26 8.5
-8 0 8 3219.78 191.18
8 0 -8 3263.27 191.28
-6 0 8 1745.43 106.99
6 0 -8 1796.12 107.09
-6 0 8 1856.31 107.29
-4 0 8 11.9 6.5
4 0 -8 10.8 8.1
4 0 -8 3.4 7.7
-4 0 8 -3.9 7.5
-2 0 8 390.36 26.7
2 0 -8 393.16 27.3
-2 0 8 418.36 27.4
2 0 -8 376.16 27.4
0 0 8 799.52 51.79
0 0 8 858.11 52.39
0 0 -8 873.41 52.09
0 0 -8 858.91 52.09
-4 0 -8 289.87 20.5
-4 0 -8 290.37 20.7
4 0 8 314.97 21.1
6 0 8 246.48 17.3
-6 0 -8 210.78 16.3
-6 0 -8 224.48 16.8
8 0 8 1103.19 62.29
-8 0 -8 1047.7 61.99
-8 0 -8 950.6 61.89
-10 0 -8 15.6 6.5
-10 0 -8 18.6 6.4
-15 1 8 117.39 14.2
-13 -1 8 5.1 9.4
-13 -1 8 1.7 7.6
-13 1 8 12.6 10.4
-13 1 8 -0.3 8.9
-11 -1 8 7.6 7.6
-11 -1 8 19.8 9.6
-11 1 8 6 9.9
-11 1 8 18.6 8.7
9 -1 -8 394.16 27.2
-9 -1 8 362.96 27.1
-9 -1 8 337.67 25.9
9 1 -8 369.96 26.5
-9 1 8 380.26 26.6
-9 1 8 445.16 28
-7 -1 8 1982.6 113.69
7 -1 -8 1933.01 113.79
-7 -1 8 1886.51 113.39
7 1 -8 1870.11 113.49
-7 1 8 1914.31 113.99
-7 1 8 1862.91 113.59
5 -1 -8 186.78 17.1
-5 -1 8 172.08 16.5
5 -1 -8 162.68 16.4
-5 -1 8 196.78 15.3
5 1 -8 177.08 16.1
-5 1 8 182.98 15.6
-5 1 8 187.48 17
5 1 -8 179.18 16.1
-3 -1 8 162.28 14.5
3 -1 -8 148.39 15.9
-3 -1 8 154.58 16
3 -1 -8 166.98 16.1
3 1 -8 173.48 15.8
-3 1 8 157.38 14.5
-3 1 8 161.08 16.1
3 1 -8 159.78 15.6
1 -1 -8 3260.37 187.18
1 -1 -8 3349.47 187.28
-1 1 8 3349.66 187.28
-1 1 8 2732.03 186.88
1 -1 8 1792.22 109.49
-1 -1 -8 1818.82 109.69
1 -1 8 2055.39 109.79
-1 -1 -8 1870.11 109.69
-1 1 -8 1774.22 109.49
-1 1 -8 1918.01 109.59
1 1 8 1813.62 109.69
1 1 8 1739.33 109.49
3 -1 8 930.31 53.59
3 -1 8 931.91 53.89
-3 -1 -8 836.22 53.59
-3 -1 -8 895.31 53.59
-3 1 -8 826.52 53.59
3 1 8 869.21 53.89
3 1 8 880.51 53.49
-3 1 -8 902.41 53.59
5 -1 8 1345.67 78.59
-5 -1 -8 1322.57 78.19
5 -1 8 1394.06 78.29
-5 -1 -8 1240.78 78.19
-5 1 -8 1288.97 78.39
5 1 8 1345.37 78.09
5 1 8 1296.87 78.39
-5 1 -8 1278.77 78.39
-7 -1 -8 1264.27 77.69
-7 -1 -8 1276.67 77.79
7 -1 8 1303.57 78.19
-7 1 -8 1323.77 78.09
7 1 8 1379.16 77.99
-7 1 -8 1302.47 77.99
9 -1 8 42.9 8.1
-9 -1 -8 37.8 6.3
-9 1 -8 38 7.3
-9 1 -8 40.5 7.6
-11 1 -8 768.22 47
-11 1 -8 761.62 46.7
-16 2 8 923.11 58.09
-14 -2 8 63.59 8.6
-14 2 8 44.9 12.6
-12 -2 8 -5 7
-12 -2 8 10.1 9.3
-12 2 8 21 11.1
-12 2 8 9.2 9.2
10 -2 -8 753.32 46.7
-10 -2 8 648.84 45
-10 -2 8 770.82 46.1
-10 2 8 745.63 47.1
-10 2 8 733.13 46.3
8 -2 -8 16.3 9.1
-8 -2 8 11.6 6.9
-8 -2 8 25.7 8.7
-8 2 8 13 9.5
8 2 -8 23.2 8.2
-8 2 8 15.7 8.2
-6 -2 8 14.9 6.5
-6 -2 8 9.3 8.1
6 -2 -8 7.1 8.2
-6 2 8 9.1 8.6
-6 2 8 19.6 7.4
6 2 -8 18.5 7.6
-4 -2 8 420.56 28
4 -2 -8 382.26 27.9
4 -2 -8 417.56 28.1
-4 -2 8 433.46 26.9
4 2 -8 371.66 27.5
-4 2 8 395.76 27.4
-4 2 8 421.26 28.3
4 2 -8 426.86 27.5
-2 -2 8 1194.78 75.39
2 -2 -8 1204.88 75.99
-2 -2 8 1233.88 75.99
2 -2 -8 1348.17 76.19
2 2 -8 1319.57 75.99
-2 2 8 1401.76 76.39
2 2 -8 1193.88 75.69
-2 2 8 1201.98 75.79
0 -2 8 1584.04 91.79
0 -2 -8 1574.54 91.69
0 -2 -8 1422.46 91.59
0 -2 8 1461.35 91.39
0 2 8 1686.53 91.99
0 2 8 1576.84 91.69
0 2 -8 1480.05 91.59
0 2 -8 1497.55 91.49
-2 -2 -8 14.7 7.7
-2 -2 -8 13.9 7.3
2 -2 8 14.6 7.9
2 -2 8 23.1 7.3
-2 2 -8 27.5 7.6
2 2 8 0.2 8.1
2 2 8 35.5 8
-2 2 -8 8.8 7.2
-4 -2 -8 1182.98 68.79
4 -2 8 1143.69 69.19
4 -2 8 1080.99 68.69
-4 -2 -8 1130.59 68.69
-4 2 -8 1182.08 69.09
4 2 8 1205.38 68.89
-4 2 -8 1121.79 68.89
4 2 8 1144.09 68.59
-6 -2 -8 1337.57 80.09
-6 -2 -8 1353.86 80.09
6 -2 8 1339.47 80.69
6 2 8 1374.46 80.29
-6 2 -8 1309.37 80.49
-6 2 -8 1380.76 80.69
-8 -2 -8 50.69 7.3
8 -2 8 60.79 9.1
-8 2 -8 50.19 8.2
8 2 8 66.69 7.8
-8 2 -8 47.6 8.1
-10 2 -8 1542.55 92.09
-10 2 -8 1550.44 92.49
-12 2 -8 199.08 17.4
-12 2 -8 249.88 18.3
-15 3 8 165.78 17.5
-13 -3 8 17.7 8.6
-13 -3 8 20.3 6.9
-13 3 8 4.7 11.4
11 -3 -8 197.18 19.7
-11 -3 8 194.18 16
-11 -3 8 193.08 18
-11 3 8 202.58 20.8
-11 3 8 172.78 19.3
9 -3 -8 1083.49 64.19
-9 -3 8 1012.5 63.09
-9 -3 8 1057.29 62.59
9 3 -8 1031.3 62.89
-9 3 8 989.4 63.79
-9 3 8 1026.7 64.49
7 -3 -8 100.99 12.4
-7 -3 8 102.29 10.3
-7 -3 8 108.89 12
7 3 -8 103.69 11.5
-7 3 8 112.99 12.3
-7 3 8 114.39 12.9
5 -3 -8 125.19 12.6
-5 -3 8 117.59 11.9
5 -3 -8 83.79 12.9
-5 -3 8 107.79 10.3
-5 3 8 76.89 11.9
5 3 -8 103.99 11
-5 3 8 99.99 11.1
3 -3 -8 3904.81 236.18
3 -3 -8 4122.09 236.18
-1 -3 8 3262.17 191.28
1 -3 -8 3218.48 191.38
-1 3 8 3354.26 191.58
1 3 -8 3155.38 191.18
1 -3 8 319.67 22.6
-1 -3 -8 303.77 21.8
1 -3 8 299.37 21.4
-1 -3 -8 283.87 22
1 3 8 289.97 21.8
-1 3 -8 296.57 21.8
-1 3 -8 281.67 22
1 3 8 326.47 22.6
-3 -3 -8 761.62 46.4
3 -3 8 771.52 47
-3 -3 -8 739.93 46.3
3 -3 8 780.32 46.5
-3 3 -8 780.72 46.7
-3 3 -8 688.23 46.5
3 3 8 787.72 46.6
3 3 8 745.83 46.2
-5 -3 -8 1964 117.19
5 -3 8 2013.8 117.89
-5 -3 -8 1927.91 117.19
-5 3 -8 1924.11 117.59
5 3 8 2038.2 117.29
-5 3 -8 2043.8 117.79
-7 -3 -8 391.06 24.5
7 -3 8 404.86 26.5
-7 -3 -8 370.26 24.7
-7 3 -8 390.86 25.9
-7 3 -8 349.77 26
7 3 8 409.26 24.9
9 -3 8 62.79 10.1
-9 3 -8 76.49 9.7
-9 3 -8 74.29 9.6
-11 3 -8 849.91 50.49
-11 3 -8 768.62 49.7
-13 3 -8 337.97 24.2
-13 3 -8 359.36 25.2
-16 4 8 102.49 15.9
-14 4 8 90.99 15.2
-12 -4 8 104.99 11.3
-12 -4 8 100.79 11.7
-12 4 8 104.49 14.1
-12 4 8 97.09 15.1
-10 -4 8 307.17 22
10 -4 -8 255.77 23.8
-10 -4 8 283.77 20.2
-10 4 8 249.28 23.2
-10 4 8 330.97 25.4
-8 -4 8 1830.72 107.69
8 -4 -8 1807.12 109.19
-8 -4 8 1744.83 108.09
8 4 -8 1904.21 108.09
-8 4 8 1796.22 109.29
-8 4 8 1806.12 109.09
6 -4 -8 60.19 10.1
-6 -4 8 37.8 9.2
-6 -4 8 43.7 7.5
-6 4 8 56.69 10.4
-6 4 8 45.8 9.3
6 4 -8 53.19 9
4 -4 -8 2781.22 157.78
-4 -4 8 2712.33 157.08
-4 -4 8 2570.64 156.78
4 -4 -8 2565.24 157.48
4 4 -8 2765.12 157.08
-4 4 8 2641.34 157.38
4 4 -8 2725.53 156.98
-4 4 8 2506.35 157.58
2 -4 -8 21.4 9
-2 -4 8 32 6.9
-2 -4 8 31.3 8.3
2 -4 -8 16.7 8.9
2 4 -8 34.1 8.3
-2 4 8 27.3 9.9
-2 4 8 19.3 7.7
2 4 -8 14.6 8.2
0 -4 8 215.48 15.9
0 -4 -8 155.08 17.1
0 -4 8 179.88 17.3
0 -4 -8 179.28 16.8
0 4 8 171.68 17.8
0 4 -8 188.18 16.8
0 4 8 180.78 17.1
0 4 -8 177.38 16.7
-2 -4 -8 101.69 10.6
2 -4 8 98.29 10.6
2 -4 8 101.39 11.6
-2 -4 -8 110.19 11.1
2 4 8 114.49 11
-2 4 -8 111.49 11.4
2 4 8 131.99 11.9
-2 4 -8 98.39 10.8
4 -4 8 2759.32 167.98
-4 -4 -8 2999 167.88
4 -4 8 3032.1 168.48
-4 -4 -8 2709.93 167.68
-4 4 -8 2813.92 168.28
4 4 8 3000.9 167.88
-4 4 -8 2637.74 167.98
-6 -4 -8 914.31 53.29
-6 -4 -8 834.12 53.19
6 -4 8 916.11 54.59
-6 4 -8 922.91 54.39
6 4 8 903.61 53.29
-6 4 -8 814.62 53.89
8 -4 8 18.7 8.7
-8 4 -8 17.1 7.7
-8 4 -8 17.4 8.1
10 -4 8 38.8 9.4
-10 4 -8 29.2 8.6
-10 4 -8 27.6 8.9
-12 4 -8 578.14 38.7
-12 4 -8 597.94 37.6
-14 4 -8 62.59 9.8
-15 5 8 35 13.8
-13 5 8 344.57 29.5
-11 -5 8 123.19 13.1
-11 -5 8 122.19 12.1
11 -5 -8 155.18 16.5
-11 5 8 111.09 15.8
-11 5 8 136.89 15.6
9 -5 -8 462.35 34.9
-9 -5 8 581.04 33.4
-9 -5 8 470.05 31.7
9 5 -8 479.95 32.7
-9 5 8 482.75 34.5
-9 5 8 537.25 35.7
-7 -5 8 426.46 30.5
-7 -5 8 463.85 29
7 -5 -8 474.55 32
-7 5 8 392.06 32
7 5 -8 476.55 30.1
-7 5 8 456.95 31.2
5 -5 -8 1489.55 87.69
-5 -5 8 1334.17 85.99
-5 -5 8 1410.26 86.59
5 5 -8 1492.75 86.49
-5 5 8 1534.85 87.39
-5 5 8 1419.46 87.59
-3 -5 8 1891.81 108.99
3 -5 -8 1713.33 109.79
-3 -5 8 1857.41 109.29
3 -5 -8 1859.41 109.99
-3 5 8 1826.82 109.69
-3 5 8 1847.52 110.09
3 5 -8 1839.82 109.19
3 5 -8 1847.12 109.19
-1 -5 8 248.08 18.4
1 -5 -8 250.17 20.9
1 -5 -8 223.78 19.9
-1 -5 8 249.88 20.4
-1 5 8 244.28 21.2
-1 5 8 243.18 19.9
1 5 -8 241.28 20
1 5 -8 257.87 19.5
1 -5 8 28.3 9.3
-1 -5 -8 48 9.7
-1 -5 -8 37.4 8.6
1 5 8 44 9.9
-1 5 -8 64.79 8.9
1 5 8 58.49 8.8
-1 5 -8 34 8.4
-3 -5 -8 711.33 46.6
3 -5 8 751.32 46.8
3 -5 8 781.22 47.6
-3 -5 -8 757.22 46.6
3 5 8 750.82 46.5
-3 5 -8 726.23 46.9
-3 5 -8 813.42 47.2
3 5 8 760.62 46.8
-5 -5 -8 1056.69 60.09
5 -5 8 1023.7 61.19
-5 -5 -8 929.71 59.99
-5 5 -8 985 60.89
5 5 8 1066.39 60.19
-5 5 -8 912.31 60.49
-7 -5 -8 981.1 59.79
7 -5 8 1028.5 61.59
-7 -5 -8 993.9 59.89
-7 5 -8 972.6 60.89
7 5 8 1017.7 59.89
-7 5 -8 997.4 61.29
9 -5 8 638.34 43.7
-9 5 -8 703.93 43
-9 5 -8 696.13 43.7
11 -5 8 1617.74 101.59
-11 5 -8 1659.73 98.79
-11 5 -8 1669.33 99.69
-13 5 -8 -10.5 7.9
-15 5 -8 146.49 14.4
-16 6 8 244.78 25.7
-14 6 8 238.68 25.6
-12 -6 8 1411.16 78.99
-12 6 8 1215.58 82.39
-10 -6 8 272.07 21.4
10 -6 -8 253.07 24.1
-10 -6 8 281.07 19.2
-10 6 8 254.57 25.5
-10 6 8 283.77 23.6
-8 -6 8 9.5 6.2
8 -6 -8 -3.6 9.3
-8 -6 8 0.5 8.9
-8 6 8 12.7 10.9
-8 6 8 -2.8 9.1
8 6 -8 2.3 8.1
6 -6 -8 2231.48 140.69
-6 -6 8 2416.86 139.69
-6 -6 8 2286.57 139.19
-6 6 8 2410.76 140.69
6 6 -8 2372.86 139.59
-6 6 8 2424.56 140.99
4 -6 -8 68.99 11
4 -6 -8 55.29 11.2
-4 -6 8 62.69 8
-4 -6 8 51.19 9.4
4 6 -8 74.39 9.4
-4 6 8 42.8 10.8
-4 6 8 66.09 9.7
4 6 -8 63.79 10.2
-2 -6 8 789.72 49.9
-2 -6 8 776.22 48.9
2 -6 -8 748.23 50.39
2 -6 -8 776.62 50.19
2 6 -8 818.62 49.8
2 6 -8 794.02 49.4
-2 6 8 853.81 50.79
-2 6 8 829.22 50.09
0 -6 -8 2576.94 143.59
0 -6 8 2335.67 143.39
0 -6 -8 2438.96 143.59
0 -6 8 2392.86 142.99
0 6 8 2524.85 143.69
0 6 -8 2354.36 143.09
0 6 -8 2386.66 143.39
0 6 8 2340.67 143.39
2 -6 8 90.99 11.7
2 -6 8 104.59 11.1
-2 -6 -8 112.69 11.8
-2 -6 -8 119.29 11.9
-2 6 -8 105.89 11.7
-2 6 -8 125.89 12.1
2 6 8 126.39 12.1
2 6 8 138.49 12.7
-4 -6 -8 1131.29 68.99
4 -6 8 1132.79 69.29
4 -6 8 1171.28 69.99
-4 -6 -8 1134.09 68.99
-4 6 -8 1144.49 69.69
4 6 8 1153.28 69.09
-4 6 -8 1145.09 69.39
-6 -6 -8 122.29 10.9
-6 -6 -8 108.69 12.3
6 -6 8 100.79 12.9
-6 6 -8 118.09 11.9
-6 6 -8 132.29 13.1
6 6 8 133.99 11.3
-8 -6 -8 1160.78 67.59
8 -6 8 1121.79 69.79
-8 6 -8 1130.79 69.79
-8 6 -8 1118.99 69.09
10 -6 8 27.7 10.6
-10 6 -8 41.1 9.4
-10 6 -8 15.5 9.5
-12 6 -8 25.5 9
-14 6 -8 7.2 9.1
-16 6 -8 60.89 10.9
-15 7 8 -12.9 13.8
-13 7 8 -12.3 13.3
-11 -7 8 128.39 12.5
-11 -7 8 149.99 13.4
-11 7 8 104.39 16.9
-9 -7 8 688.03 42.9
-9 -7 8 684.23 41.6
9 -7 -8 708.33 45.1
9 7 -8 612.94 42.3
-9 7 8 651.43 45.6
-9 7 8 681.43 44.8
7 -7 -8 501.35 35.7
-7 -7 8 544.75 33.9
-7 -7 8 455.45 32.5
-7 7 8 512.55 35.4
-7 7 8 602.54 36.6
7 7 -8 490.35 33.4
-5 -7 8 1121.39 69.69
-5 -7 8 1138.69 70.29
5 -7 -8 1219.58 71.79
-5 7 8 1161.08 71.79
5 7 -8 1164.88 70.19
-5 7 8 1150.08 71.29
3 -7 -8 85.79 12
-3 -7 8 98.99 11.1
-3 -7 8 88.29 9.5
3 -7 -8 85.49 12.9
-3 7 8 94.29 13.1
-3 7 8 78.09 10.9
3 7 -8 68.29 10.2
3 7 -8 90.79 10.7
1 -7 -8 101.29 12.7
-1 -7 8 95.69 11
-1 -7 8 122.29 12.9
1 -7 -8 110.89 12.2
-1 7 8 99.79 12.1
1 7 -8 123.29 12.3
-1 7 8 114.79 13.2
1 7 -8 109.79 11.8
1 -7 8 5076.79 298.97
3 -7 8 132.09 14.6
-3 -7 -8 142.59 13.1
-3 -7 -8 118.39 12.4
3 -7 8 146.29 14.4
-3 7 -8 108.29 12.7
3 7 8 155.88 13.6
-3 7 -8 127.59 12.9
3 7 8 142.59 12.7
-5 -7 -8 284.67 20.4
5 -7 8 294.97 22.8
-5 -7 -8 267.47 20.4
-5 7 -8 281.37 21.1
5 7 8 270.87 20.8
-5 7 -8 260.17 21.9
-7 -7 -8 300.67 19.3
7 -7 8 250.07 22.5
-7 -7 -8 261.67 19.2
-7 7 -8 255.57 21.7
7 7 8 258.77 19.5
-7 7 -8 229.98 20.8
9 -7 8 1173.48 74.69
-9 7 -8 1214.08 73.69
-9 7 -8 1241.58 74.69
-11 7 -8 174.08 17.6
-11 7 -8 166.38 17.5
-13 7 -8 70.39 11.5
-15 7 -8 22 10
-14 8 8 144.39 19.5
-12 -8 8 97.09 9.3
-12 -8 8 97.99 11.6
-12 8 8 73.19 16.3
-10 -8 8 156.88 17.2
-10 -8 8 139.09 13.9
10 -8 -8 191.68 19.4
-10 8 8 162.28 19
-10 8 8 194.68 19.1
-8 -8 8 2297.57 133.79
8 -8 -8 2249.27 135.99
-8 -8 8 2240.98 134.29
-8 8 8 2082.19 135.89
8 8 -8 2312.87 134.19
-8 8 8 2370.16 136.19
6 -8 -8 33.5 10.9
-6 -8 8 33.1 7.4
-6 -8 8 58.89 10
6 8 -8 45 9.2
-6 8 8 34.5 10.5
-6 8 8 53.79 12.1
4 -8 -8 39.1 10.7
4 -8 -8 33.1 11
-4 -8 8 41 9.5
-4 -8 8 44.5 7.8
-4 8 8 15.5 10.3
-4 8 8 25.5 9.5
4 8 -8 53.29 8.9
-2 -8 8 200.88 17.3
2 -8 -8 224.48 19.9
2 -8 -8 220.48 20.6
-2 -8 8 225.68 19.7
-2 8 8 212.48 21.3
-2 8 8 194.28 19.4
2 8 -8 213.88 18.5
2 8 -8 217.28 19.2
0 -8 -8 839.62 50.09
0 -8 -8 831.52 49.8
0 -8 8 815.82 50.09
0 -8 8 738.93 48.7
0 8 8 796.92 49.9
0 8 -8 735.53 49.3
0 8 -8 766.02 49.4
0 8 8 772.82 50.29
-2 -8 -8 1879.21 113.79
2 -8 8 1981.7 113.69
-2 -8 -8 1947.51 113.79
2 -8 8 1954.9 114.29
2 8 8 1762.92 113.59
2 8 8 1865.31 113.89
-2 8 -8 1868.51 113.59
-2 8 -8 1963 113.99
-4 -8 -8 1235.08 80.09
4 -8 8 1357.46 81.39
-4 -8 -8 1412.26 80.39
-4 8 -8 1435.86 81.29
4 8 8 1357.16 80.49
-4 8 -8 1195.78 80.49
6 -8 8 259.77 22.5
-6 -8 -8 248.58 19.4
-6 -8 -8 258.17 19.4
6 8 8 225.28 19.7
-6 8 -8 252.57 20.9
-6 8 -8 267.77 21.5
-8 -8 -8 111.49 11.5
-8 -8 -8 105.99 10.9
8 -8 8 155.98 15.4
-8 8 -8 117.19 14.4
-8 8 -8 124.79 13.8
10 -8 8 199.08 21.9
-10 8 -8 227.88 20.9
-10 8 -8 195.58 19.5
-12 8 -8 1184.48 72.69
-14 8 -8 176.98 18.8
-15 9 8 2.5 15.3
-13 9 8 -2.3 14.4
-11 -9 8 12.6 9.6
-11 -9 8 2.5 6.1
-11 9 8 14.2 13.8
9 -9 -8 1141.29 69.59
-9 -9 8 1047.7 66.89
-9 -9 8 1131.79 65.89
-9 9 8 1108.39 69.39
9 9 -8 1077.79 66.49
-9 9 8 1021.4 69.39
-7 -9 8 204.08 16
7 -9 -8 195.18 21.6
-7 -9 8 181.38 18.5
-7 9 8 162.98 19.2
7 9 -8 183.08 17.6
-7 9 8 241.88 21
-5 -9 8 1497.55 97.79
-5 -9 8 1645.04 97.49
5 -9 -8 1620.54 99.39
-5 9 8 1705.33 99.79
-5 9 8 1677.23 99.29
5 9 -8 1651.53 97.79
3 -9 -8 54.39 11.2
-3 -9 8 53.19 8.4
-3 -9 8 43.9 9.8
3 -9 -8 43.3 11
-3 9 8 57.69 10.2
-3 9 8 31.5 11.2
3 9 -8 72.69 10
1 -9 -8 76.19 10.7
-1 -9 8 48.5 10.3
1 -9 -8 60.89 11
-1 -9 8 44.9 8.3
-1 9 8 68.59 11.9
-1 9 8 53.09 10.3
1 9 -8 57.09 11
1 9 -8 53.09 9.8
1 -9 8 381.76 29.5
1 -9 8 475.85 31.7
-1 -9 -8 468.35 31.2
-1 -9 -8 488.65 30.9
1 9 8 429.76 31
-1 9 -8 380.16 30.3
-1 9 -8 422.26 30.5
1 9 8 485.05 31.8
3 -9 8 898.31 54.59
-3 -9 -8 812.22 54.29
-3 -9 -8 879.81 54.59
3 -9 8 859.01 55.49
-3 9 -8 869.71 54.69
3 9 8 873.31 54.69
-3 9 -8 927.61 55.29
-5 -9 -8 122.89 12.6
5 -9 8 141.19 15
-5 -9 -8 113.09 13.1
-5 9 -8 148.99 13.5
-5 9 -8 116.79 14.1
5 9 8 106.29 12.9
7 -9 8 152.08 16.4
-7 -9 -8 139.29 15.2
-7 -9 -8 150.38 15
-7 9 -8 119.79 14.4
7 9 8 175.28 15.6
-7 9 -8 153.78 16.5
-9 -9 -8 847.22 51.99
9 -9 8 906.01 55.59
-9 -9 -8 857.51 51.79
-9 9 -8 897.81 55.29
-9 9 -8 770.92 53.79
-11 9 -8 195.78 19.8
-13 9 -8 12.7 10.3
-15 9 -8 11.7 10.2
-14 10 8 29.7 15.7
-12 -10 8 30.6 10
-12 -10 8 38.2 7.3
-12 10 8 50.99 16
-10 -10 8 201.48 16.2
-10 -10 8 185.38 19.4
-10 10 8 196.58 21.8
-8 -10 8 372.46 26.3
8 -10 -8 377.36 31.9
-8 -10 8 391.76 28.2
-8 10 8 378.66 30.9
8 10 -8 385.96 27.6
-8 10 8 440.66 32.7
6 -10 -8 51.69 12.5
-6 -10 8 93.09 11.4
-6 -10 8 45.9 8.5
-6 10 8 61.69 12
6 10 -8 51.29 10.3
-6 10 8 89.69 14.8
4 -10 -8 84.39 13.3
-4 -10 8 100.29 12.8
-4 -10 8 94.99 10.8
-4 10 8 88.69 12.6
4 10 -8 94.09 11.8
-4 10 8 112.89 15.1
-2 -10 8 6.5 7.1
-2 -10 8 -6.6 9.4
2 -10 -8 4.8 9.3
2 -10 -8 13.6 10.1
2 10 -8 -1.2 9
2 10 -8 6.6 8.3
-2 10 8 7.4 10.8
-2 10 8 2.9 8.3
0 -10 -8 0.2 8.5
0 -10 8 20.7 7.7
0 -10 -8 11 10
0 -10 8 6.2 9.6
0 10 -8 14.6 8.6
0 10 8 -1.3 9.9
0 10 8 3.6 8.9
0 10 -8 25.2 9.2
-2 -10 -8 -6.9 7.9
2 -10 8 -1.6 7.4
2 -10 8 4.4 9.8
-2 -10 -8 1.6 8.8
-2 10 -8 -0.8 8.5
2 10 8 13.1 9.7
-2 10 -8 10.3 8.8
-4 -10 -8 869.11 57.39
-4 -10 -8 978 57.89
4 -10 8 933.61 58.99
4 10 8 981.9 57.99
-4 10 -8 944.21 58.59
-4 10 -8 843.62 57.59
6 -10 8 36.3 11.7
-6 -10 -8 25.3 8.8
-6 -10 -8 40.3 9.3
-6 10 -8 15 9.8
-6 10 -8 27.2 9.4
6 10 8 29.6 9.5
-8 -10 -8 113.39 12.1
8 -10 8 64.39 14.3
-8 -10 -8 105.09 11.3
-8 10 -8 86.19 14
-8 10 -8 103.69 12.8
8 10 8 103.29 14.6
-10 10 -8 6.2 10.3
-12 10 -8 182.38 19.7
-14 10 -8 2.9 10.7
-15 11 8 47 17
-13 11 8 29 15.6
-11 -11 8 104.19 10.5
-11 -11 8 72.79 12.5
-11 11 8 81.19 17.5
-9 -11 8 4387.06 262.17
9 -11 -8 4771.72 272.17
-9 -11 8 4685.73 261.97
-9 11 8 3926.11 264.07
9 11 -8 4529.35 262.27
-7 -11 8 60.09 9.5
7 -11 -8 77.19 14.8
-7 -11 8 60.19 11.9
-7 11 8 63.89 15.2
7 11 -8 66.89 11.3
-7 11 8 54.09 13.1
5 -11 -8 -1 10.8
-5 -11 8 24.4 7.8
-5 -11 8 20.4 10.2
5 11 -8 14.2 9.1
-5 11 8 22 10.2
-5 11 8 10.7 12
-3 -11 8 186.38 16.9
3 -11 -8 201.88 21.2
3 -11 -8 167.68 17.7
-3 -11 8 196.18 19.4
3 11 -8 165.88 18
-3 11 8 181.98 19.6
-3 11 8 196.18 19
-1 -11 8 12.5 10.2
1 -11 -8 5.7 10.5
-1 -11 8 7.8 7.2
1 -11 -8 0.1 9.2
1 11 -8 18.4 9
-1 11 8 10.1 11.2
1 11 -8 19.7 9.9
-1 11 8 4.8 9.1
1 -11 8 412.06 28.1
1 -11 8 417.16 29.9
-1 -11 -8 380.76 28.9
-1 -11 -8 392.86 29.4
-1 11 -8 410.76 29.1
-1 11 -8 319.47 28.1
1 11 8 376.46 31.8
1 11 8 422.46 30
3 -11 8 2619.74 158.98
-3 -11 -8 2751.52 158.58
-3 -11 -8 2516.05 158.18
3 -11 8 2555.54 158.18
3 11 8 2996.1 158.98
-3 11 -8 2832.22 159.18
-3 11 -8 2373.36 158.08
5 -11 8 47.4 12.5
-5 -11 -8 24 9.4
-5 -11 -8 49.6 10.5
5 11 8 30.3 10.1
-5 11 -8 53.59 11.4
-5 11 -8 29.8 10.1
-7 -11 -8 560.64 34.4
-7 -11 -8 509.15 34.8
7 -11 8 481.75 37.5
-7 11 -8 470.65 36.8
-7 11 -8 509.65 35.6
7 11 8 534.45 35.1
-9 -11 -8 182.98 16.3
-9 -11 -8 166.28 17
-9 11 -8 173.28 19.2
-11 11 -8 378.06 29.3
-13 11 -8 254.87 23.7
-15 11 -8 14.6 12.9
-14 12 8 18.9 16.6
-12 -12 8 82.29 12.9
-12 12 8 60.79 17.3
-10 -12 8 286.77 20.2
-10 -12 8 252.47 22.7
-10 12 8 210.28 25.2
-8 -12 8 962 58.79
8 -12 -8 963.6 62.99
-8 -12 8 853.81 59.49
8 12 -8 986.6 59.49
-8 12 8 1074.49 62.79
-8 12 8 893.81 62.69
-6 -12 8 809.62 54.59
-6 -12 8 875.61 53.99
6 -12 -8 916.81 57.39
-6 12 8 911.31 56.79
-6 12 8 907.91 57.89
6 12 -8 798.72 54.29
-4 -12 8 536.95 35.9
-4 -12 8 520.45 37.2
4 -12 -8 555.74 39.2
-4 12 8 562.24 38.1
-4 12 8 547.55 40
4 12 -8 543.25 36.6
-2 -12 8 3.4 9.7
-2 -12 8 8.4 7.8
2 -12 -8 1.8 10.8
2 -12 -8 7.6 10.7
-2 12 8 4 9.6
-2 12 8 -5.2 11.6
2 12 -8 21.1 9.6
0 -12 8 658.03 43.7
0 -12 -8 697.43 45.1
0 -12 -8 607.64 44.8
0 -12 8 712.33 45.3
0 12 8 728.63 46.1
0 12 -8 624.94 44.1
0 12 -8 721.73 45.2
0 12 8 668.93 44.8
2 -12 8 201.58 18.9
-2 -12 -8 209.58 20.6
2 -12 8 184.88 19.2
-2 -12 -8 203.98 20.7
2 12 8 198.58 21.6
-2 12 -8 170.98 19.4
-2 12 -8 246.88 21.1
-4 -12 -8 1206.78 75.69
-4 -12 -8 1341.47 76.29
4 -12 8 1142.39 76.89
4 12 8 1202.28 76.09
-4 12 -8 1318.27 77.19
-4 12 -8 1193.58 75.89
-6 -12 -8 199.08 20.9
-6 -12 -8 254.27 20.3
6 -12 8 231.98 23.9
-6 12 -8 219.58 21
6 12 8 189.78 21
-6 12 -8 227.68 22.5
8 -12 8 216.18 21
-8 -12 -8 205.28 19.6
-8 -12 -8 175.28 18.3
-8 12 -8 162.68 17.7
8 12 8 204.88 19.2
-8 12 -8 185.98 19.5
-10 -12 -8 -9.6 8.5
-10 -12 -8 11.3 7.8
-10 12 -8 -4.8 10
-12 12 -8 311.27 26.8
-14 12 -8 117.29 16.1
-13 -13 8 33.1 11.4
-13 13 8 46.5 17.5
-11 -13 8 168.68 16.5
-11 13 8 138.99 20.8
-9 -13 8 438.86 29.1
-9 -13 8 402.66 30.7
9 13 -8 418.66 30.6
-9 13 8 411.56 36.1
-7 -13 8 216.38 18.8
-7 -13 8 199.18 20.8
7 -13 -8 244.48 25.8
-7 13 8 184.08 20.4
7 13 -8 195.68 20.2
-7 13 8 218.28 22.1
-5 -13 8 1980.3 110.59
5 -13 -8 1779.12 112.29
-5 -13 8 1790.92 110.79
5 13 -8 1751.62 110.49
-5 13 8 1715.83 112.69
-5 13 8 1996.3 112.49
-3 -13 8 49.9 9.6
-3 -13 8 37.7 11.8
3 -13 -8 18.7 12
3 -13 -8 28.8 12.6
3 13 -8 56.79 11.1
-3 13 8 11 12.7
-3 13 8 13.3 10.5
-1 -13 8 353.96 27.2
1 -13 -8 381.46 29.5
1 -13 -8 370.86 29.6
-1 -13 8 405.66 29.7
-1 13 8 335.67 30.3
1 13 -8 360.86 28.2
-1 13 8 368.76 29.2
1 -13 8 3608.14 224.98
-1 -13 -8 3749.32 224.88
-1 -13 -8 3957.1 225.38
1 -13 8 3880.21 224.58
-1 13 -8 3641.74 224.48
-1 13 -8 3881.41 225.18
1 13 8 3829.72 225.28
-3 -13 -8 29.3 10.9
3 -13 8 33.3 12
-3 -13 -8 12.8 10.9
3 13 8 41.4 12
-3 13 -8 19.1 10.4
-3 13 -8 26.1 10.3
-5 -13 -8 100.99 14.6
-5 -13 -8 122.59 14
5 -13 8 100.49 16
5 13 8 115.39 14.9
-5 13 -8 106.79 15
-5 13 -8 122.49 14.6
-7 -13 -8 69.89 11.8
7 -13 8 63.29 15
-7 -13 -8 71.29 12.8
-7 13 -8 48.2 13
-7 13 -8 52.09 11.7
7 13 8 63.99 12.3
-9 -13 -8 1379.06 81.99
-9 -13 -8 1406.26 82.89
-9 13 -8 1272.27 83.49
-11 -13 -8 159.38 17.4
-11 -13 -8 166.68 16
-11 13 -8 209.68 21.3
-13 13 -8 13.1 12.4
-14 -14 8 114.39 13.7
-14 14 8 93.29 20.3
-12 -14 8 388.66 28.5
-12 14 8 330.87 35.5
-10 -14 8 212.48 19.3
-10 14 8 214.98 24.3
-8 -14 8 191.28 17.8
-8 -14 8 144.69 15.3
-8 14 8 158.98 21.3
8 14 -8 177.68 17.2
6 -14 -8 936.71 65.19
-6 -14 8 1142.19 62.39
-6 -14 8 900.81 62.69
-6 14 8 996.3 64.79
-6 14 8 929.41 65.59
6 14 -8 1037.8 62.59
4 -14 -8 22.9 12.9
-4 -14 8 13.4 8.5
-4 -14 8 4.4 10.1
-4 14 8 4.2 10.5
4 14 -8 7.3 9.6
-4 14 8 3.5 13.5
2 -14 -8 191.28 19.1
-2 -14 8 184.78 18.1
2 -14 -8 170.98 19.6
-2 -14 8 172.08 18.1
-2 14 8 181.88 19.9
-2 14 8 162.88 18.2
2 14 -8 162.58 17
0 -14 8 1724.93 104.59
0 -14 8 1764.82 105.49
0 -14 -8 1751.32 105.89
0 -14 -8 1801.62 105.69
0 14 -8 1634.24 104.49
0 14 8 1691.83 105.99
2 -14 8 68.59 13.8
2 -14 8 79.89 12.1
-2 -14 -8 66.89 13.3
-2 -14 -8 70.89 12.8
2 14 8 93.19 14.5
-2 14 -8 59.79 13.1
-2 14 -8 81.99 12.8
-4 -14 -8 234.98 22.8
-4 -14 -8 247.58 23.6
4 -14 8 226.18 25
4 14 8 202.28 23.8
-4 14 -8 243.08 22.6
-4 14 -8 294.97 24.7
-6 -14 -8 80.59 12.8
-6 -14 -8 67.09 13.5
6 -14 8 76.39 15.7
6 14 8 85.29 14.2
-6 14 -8 87.69 13.6
-6 14 -8 94.29 15.9
-8 -14 -8 180.68 16.4
-8 -14 -8 163.48 17.9
-8 14 -8 153.88 16.9
8 14 8 126.99 17.1
-10 -14 -8 -5.4 8.8
-10 -14 -8 10.2 10.4
-10 14 -8 4 11
-12 14 -8 43.8 13.1
-14 14 -8 57.09 14.3
-13 -15 8 65.49 13
-13 15 8 35.2 18.9
-11 -15 8 1 11.1
-11 15 8 13.1 16.4
-9 -15 8 498.55 34.9
-9 15 8 458.95 40.4
-7 -15 8 573.34 42.5
-7 -15 8 687.43 41.8
7 -15 -8 642.54 46.6
-7 15 8 581.54 46.9
7 15 -8 655.53 42.7
-5 -15 8 83.29 14
5 -15 -8 96.49 16.7
-5 -15 8 110.59 13
5 15 -8 89.79 13.6
-5 15 8 79.99 15.5
-5 15 8 77.69 17
-3 -15 8 6.9 11.4
3 -15 -8 1.7 12.3
-3 -15 8 -4 8.7
3 15 -8 7.6 10.5
-3 15 8 10.5 13.3
-3 15 8 8 10.9
-1 -15 8 12.3 11.9
1 -15 -8 0.8 11.4
-1 -15 8 11.3 9
1 -15 -8 0.7 12.1
-1 15 8 -3.1 13
1 15 -8 -2.7 9.9
1 -15 8 176.68 19.1
-1 -15 -8 184.58 18.8
-1 -15 -8 148.69 17.9
1 -15 8 165.18 18.2
-1 15 -8 140.79 16.2
-1 15 -8 165.78 17.6
1 15 8 169.78 19.7
-3 -15 -8 444.26 32.2
3 -15 8 334.67 32.4
-3 -15 -8 438.36 31.4
3 15 8 408.56 33
-3 15 -8 405.86 32
-3 15 -8 391.96 30.8
-5 -15 -8 14.1 11.4
-5 -15 -8 1.1 11
5 -15 8 28.6 13.6
-5 15 -8 27.5 12.4
-5 15 -8 21.5 10.7
5 15 8 13.8 12.5
7 -15 8 999.9 63.69
-7 -15 -8 968.9 60.39
-7 -15 -8 963.1 61.29
7 15 8 872.61 60.99
-7 15 -8 963 60.99
-9 -15 -8 113.49 16.4
-9 -15 -8 129.49 14.6
-9 15 -8 142.49 16.2
-11 -15 -8 305.47 24.9
-11 15 -8 380.16 29
-13 15 -8 175.38 19.9
-14 -16 8 17 12.1
-14 16 8 53.79 30.3
-12 -16 8 -7.5 11.5
-12 16 8 -13.9 16.8
-10 -16 8 15.7 12.2
-10 16 8 36.4 17.5
-8 -16 8 559.14 38.2
-8 16 8 512.35 43.8
6 -16 -8 98.69 17.9
-6 -16 8 77.69 12.7
-6 -16 8 79.89 14.2
-6 16 8 81.39 15.9
-6 16 8 96.89 18.7
6 16 -8 95.89 14.2
-4 -16 8 42.4 12.7
-4 -16 8 32.2 10.3
4 -16 -8 43.3 13.9
4 16 -8 21.4 11.2
-4 16 8 30.1 15.6
-4 16 8 20.4 12.5
2 -16 -8 175.78 20.7
-2 -16 8 268.47 21.2
-2 -16 8 191.38 20.7
2 -16 -8 170.38 20.5
2 16 -8 222.78 22.1
-2 16 8 169.18 21.3
0 -16 -8 36.3 12.9
0 -16 8 36.6 13.4
0 -16 -8 42.6 13.3
0 16 8 40.5 14.4
0 16 -8 76.89 12.8
-2 -16 -8 139.29 17.5
2 -16 8 162.38 19.3
-2 -16 -8 115.29 16.4
2 -16 8 108.59 17.1
-2 16 -8 148.89 16.7
2 16 8 122.79 18.2
-2 16 -8 140.59 18
-4 -16 -8 20.8 11.9
4 -16 8 18 13.6
-4 -16 -8 28.3 12.3
-4 16 -8 17.9 11.3
4 16 8 10.5 13.2
-4 16 -8 22.8 12.5
-6 -16 -8 778.92 53.79
-6 -16 -8 835.92 53.19
6 -16 8 803.92 55.69
-6 16 -8 826.32 53.39
6 16 8 779.22 53.99
-6 16 -8 861.71 63.79
-8 -16 -8 180.98 17.3
-8 16 -8 125.19 17.2
-10 -16 -8 60.29 11.9
-10 16 -8 74.39 14.1
-12 -16 -8 61.29 10.8
-12 16 -8 54.49 14.4
-13 -17 8 36.6 12.9
-13 17 8 5.6 19.4
-11 -17 8 94.89 14.8
-11 17 8 70.79 20.2
-9 -17 8 49.8 13.5
-9 17 8 57.89 18.1
-7 -17 8 84.99 14.7
-7 17 8 57.59 18.6
-5 -17 8 3 11.6
5 -17 -8 -1.8 14.6
5 17 -8 2.8 11.2
-5 17 8 1.1 12.5
-5 17 8 1.4 15.7
3 -17 -8 86.99 16.5
-3 -17 8 88.69 15.4
3 17 -8 78.59 14.8
-3 17 8 81.39 17.7
-3 17 8 98.69 15.9
1 -17 -8 1749.03 106.09
1 -17 -8 1766.12 106.59
-1 -17 8 1745.03 105.79
1 17 -8 1723.43 104.79
-1 17 8 1589.54 106.39
1 -17 8 5 13.3
1 -17 8 22.3 13.2
-1 -17 -8 5.7 12.5
-1 -17 -8 -18.3 12.3
-1 17 -8 7.6 10.8
1 17 8 -17.2 14
3 -17 8 22.3 13.6
-3 -17 -8 7.9 12.7
-3 -17 -8 3.2 12.2
-3 17 -8 9.4 11.5
-3 17 -8 6.3 12
3 17 8 8.5 13.9
-5 -17 -8 763.22 50.79
-5 -17 -8 696.53 51.59
5 -17 8 767.02 53.29
5 17 8 731.93 51.99
-5 17 -8 775.22 50.69
-5 17 -8 815.82 52.89
-7 -17 -8 4.4 11.2
-7 17 -8 16.7 11.9
-9 -17 -8 -0.1 11
-9 17 -8 -0.1 12
-11 -17 -8 1236.98 79.69
-11 17 -8 1384.66 82.39
-13 -17 -8 30.9 10.3
-13 17 -8 45.8 14.3
-12 -18 8 20.9 12.7
-12 18 8 1.6 19.3
-10 -18 8 319.97 28.2
-10 18 8 319.17 35.2
-8 -18 8 51.19 13.8
-8 18 8 44 18.8
-6 -18 8 139.39 18.7
6 -18 -8 170.78 22.4
-6 18 8 185.18 22.7
4 -18 -8 118.49 19.3
-4 -18 8 104.59 16.8
4 18 -8 132.19 17.4
-4 18 8 106.69 19.4
-4 18 8 149.19 18.4
2 -18 -8 925.41 61.99
2 -18 -8 871.51 61.59
-2 -18 8 940.81 61.99
-2 -18 8 922.31 60.79
-2 18 8 845.52 62.49
2 18 -8 994.2 59.99
0 -18 -8 51.09 14.9
0 -18 8 63.09 14.8
0 -18 -8 37.4 14.4
0 -18 8 62.69 15.9
0 18 -8 40.8 12.5
0 18 8 41.7 16.1
-2 -18 -8 241.78 26.7
2 -18 8 243.78 24.3
-2 -18 -8 245.58 26.5
2 18 8 233.98 24.8
-2 18 -8 255.57 24.6
4 -18 8 178.28 20.9
-4 -18 -8 175.18 19.9
4 18 8 183.58 21.2
-4 18 -8 185.48 20.4
-4 18 -8 135.59 18
-6 -18 -8 79.99 15
-6 18 -8 76.89 14.5
-8 -18 -8 144.09 16.8
-8 18 -8 133.49 17
-10 -18 -8 686.63 48.8
-10 18 -8 812.02 51.39
-12 -18 -8 205.78 21
-12 18 -8 214.88 22.3
-13 19 8 36.4 21
-11 -19 8 37.6 13.8
-11 19 8 8.6 19
-9 -19 8 458.35 34.5
-9 19 8 421.76 41.1
-7 -19 8 705.53 47.4
-7 19 8 646.44 51.19
5 -19 -8 -4 15.4
-5 -19 8 10.2 13.4
-5 19 8 -4 16.3
-3 -19 8 14 13.3
3 -19 -8 30.8 15.9
-3 19 8 16.4 15.7
3 19 -8 21.6 13
1 -19 -8 21.9 14.4
-1 -19 8 6.9 13.9
-1 -19 8 12.1 14.5
1 -19 -8 29.5 14.8
-1 19 8 1 14.6
1 19 -8 4.3 12.3
1 -19 8 3159.98 192.78
1 -19 8 3344.57 194.08
-1 -19 -8 3258.57 192.68
-1 -19 -8 3125.69 193.28
1 19 8 3125.09 193.38
-1 19 -8 3235.18 191.98
3 -19 8 138.89 20.5
-3 -19 -8 198.78 20.5
3 19 8 142.29 21.8
-3 19 -8 157.78 17.9
-5 -19 -8 -7.7 12.7
5 -19 8 1.1 14.9
-5 19 -8 9.9 11.8
-7 -19 -8 583.14 40.7
-7 19 -8 551.44 41.3
-9 -19 -8 -3.5 11.8
-9 19 -8 -10.5 12.4
-11 -19 -8 139.59 16.9
-11 19 -8 156.08 19.4
-13 -19 -8 15.4 11
-12 -20 8 57.79 14.5
-12 20 8 29.1 21.1
-10 -20 8 11.6 13.5
-10 20 8 4.3 18.7
-8 -20 8 6.4 12.8
-8 20 8 4.7 17.2
-6 -20 8 225.78 22.4
-6 20 8 197.88 25.5
4 -20 -8 42 17.4
-4 -20 8 83.79 16
-4 20 8 54.59 18.5
2 -20 -8 -3.2 14.8
-2 -20 8 18.4 14
-2 20 8 -11.4 15.9
2 20 -8 -4 12.4
0 -20 8 175.88 23.3
0 -20 8 209.18 23
0 -20 -8 208.58 22.8
0 20 -8 185.18 20.4
0 20 8 205.18 24.3
2 -20 8 2077.89 137.39
-2 -20 -8 2326.27 137.39
-2 20 -8 2333.27 136.59
-4 -20 -8 21 14.2
4 -20 8 44.1 16.6
-4 20 -8 19.3 12.4
-6 -20 -8 15.9 13.3
-6 20 -8 10.4 12.3
-8 -20 -8 137.79 18
-8 20 -8 127.59 18.5
-10 -20 -8 3.7 12.4
-10 20 -8 -4 13.2
-12 -20 -8 174.98 18.4
-12 20 -8 169.38 21.2
-11 -21 8 26.4 14.3
-11 21 8 39.8 20.9
-9 -21 8 77.19 15.6
-9 21 8 44.9 20.9
-7 -21 8 10.5 13.9
-7 21 8 36 18.9
-5 -21 8 106.99 17.5
-5 21 8 75.49 20.7
3 -21 -8 40.3 17.6
-3 -21 8 48.5 15.7
-3 21 8 38.5 18.1
1 -21 -8 128.89 19.7
-1 -21 8 86.99 17.8
1 21 -8 126.69 18.4
-1 21 8 86.29 20.1
-1 -21 -8 52.79 16.5
3 -21 8 6.2 15.5
-3 -21 -8 4.1 14.5
-3 21 -8 31.6 13.7
-5 -21 -8 9.5 14
-5 21 -8 4.5 12.1
-7 -21 -8 30 13.7
-7 21 -8 20.5 13.5
-9 -21 -8 12.6 13.4
-9 21 -8 6.7 13.6
-11 -21 -8 248.58 26.7
-11 21 -8 355.46 30.4
-12 22 8 -19.5 19.9
-10 -22 8 54.49 15.6
-10 22 8 56.59 22.4
-8 -22 8 -9.6 13.4
-8 22 8 5 19
-6 -22 8 43 15.8
-6 22 8 49.3 20.2
4 -22 -8 157.58 24.2
-4 -22 8 112.19 19
-4 22 8 110.19 22.2
2 -22 -8 108.29 20.2
-2 -22 8 123.69 19.1
-2 22 8 83.69 21.3
0 -22 -8 18.2 15.8
0 -22 8 23.2 15.6
2 -22 8 492.45 41.4
-2 -22 -8 476.05 40.2
-2 22 -8 504.55 38.7
-4 -22 -8 47.4 16.1
-4 22 -8 13.8 13.6
-6 -22 -8 17.4 15.1
-6 22 -8 45.6 14.6
-8 -22 -8 12 14
-8 22 -8 12.6 14.3
-10 -22 -8 130.09 18.2
-10 22 -8 136.39 19.5
-12 22 -8 -4.1 15.3
-11 23 8 -18.6 20
-9 -23 8 265.37 28.3
-9 23 8 237.58 30.4
-7 -23 8 45.2 15.5
-7 23 8 21.6 20.3
-5 -23 8 54.29 17
-5 23 8 4.9 19.5
-3 -23 8 118.99 20.3
3 -23 -8 196.28 25
-3 23 8 126.79 23.3
-1 -23 8 36.9 16.5
1 -23 -8 31.5 16.6
-1 -23 -8 133.19 20.4
1 -23 8 151.68 21.9
3 -23 8 -0.4 16.9
-3 -23 -8 42.6 16.2
-3 23 -8 16.7 14
-5 -23 -8 37.8 15.6
-5 23 -8 68.09 16
-7 -23 -8 24.2 15.1
-7 23 -8 15.8 14.3
-9 -23 -8 19.5 14.6
-9 23 -8 37.9 15.5
-11 23 -8 21.6 15.5
-10 24 8 178.68 27.7
-8 -24 8 183.08 22.2
-8 24 8 149.09 27.3
-6 -24 8 7.9 15.6
-6 24 8 0.2 20.6
-4 -24 8 7.2 15.6
-4 24 8 17.9 20.4
2 -24 -8 73.39 20.1
-2 -24 8 82.89 18.5
0 -24 -8 12.4 16.3
0 -24 8 2.9 16
-2 -24 -8 -9.3 15.2
2 -24 8 -13.5 16.8
-4 -24 -8 295.07 31.5
-4 24 -8 302.27 30.9
-6 -24 -8 -9.4 14.3
-6 24 -8 20 15
-8 -24 -8 -2 14.9
-8 24 -8 1.8 15.1
-10 24 -8 94.19 18.2
-11 25 8 19.1 22.2
-9 25 8 66.89 24.3
-7 -25 8 2.9 15.4
-7 25 8 2.8 21.9
-5 -25 8 93.69 19.7
3 -25 -8 14.1 18.8
-3 -25 8 -7.7 16
-1 -25 8 60.69 18.2
1 -25 -8 58.79 19.3
-1 -25 -8 310.17 35.2
1 -25 8 401.76 37.8
-3 -25 -8 7.6 15.9
-5 -25 -8 278.17 31.3
-5 25 -8 306.67 31.8
-7 -25 -8 40.3 16.5
-7 25 -8 25.9 16.4
-9 25 -8 68.99 17.5
-11 25 -8 379.76 35.4
-10 26 8 0.6 22.7
-8 -26 8 -7.6 15.7
-8 26 8 -15.1 22.6
-6 -26 8 262.97 28
-4 -26 8 -12.9 16.3
2 -26 -8 221.58 27.9
-2 -26 8 216.28 25.9
0 -26 8 551.54 45.2
0 -26 -8 475.75 44
2 -26 8 391.26 43.2
-2 -26 -8 382.76 37.2
-4 -26 -8 -17.1 15.4
-6 -26 -8 20.3 16.7
-6 26 -8 32.7 16.8
-8 26 -8 210.28 26.2
-10 26 -8 21 17.2
-9 27 8 59.29 24.7
-7 -27 8 35.4 17.7
-5 -27 8 48.8 18.8
-3 -27 8 -12.9 16.6
-1 -27 8 65.49 20.6
1 -27 -8 83.19 22.1
-1 -27 -8 189.88 25.4
1 -27 8 216.08 26.6
-3 -27 -8 -17.1 16.1
-5 -27 -8 -12.1 16.4
-7 -27 -8 37.1 17.4
-7 27 -8 61.59 21.1
-9 27 -8 7.8 16.8
-6 -28 8 76.49 20.5
-4 -28 8 56.99 19.9
-2 -28 8 2.6 18.1
0 -28 -8 268.47 31.3
0 -28 8 268.17 30.9
-2 -28 -8 17.1 17.7
-4 -28 -8 74.59 19.5
-6 -28 -8 21.2 17.3
-10 28 -8 66.49 20.3
-5 -29 8 94.99 21.4
-3 -29 8 -30.6 17.6
-1 -29 8 11 19.9
1 -29 -8 1.8 19.5
-1 -29 -8 55.49 20.6
-3 -29 -8 11.1 17.7
-5 -29 -8 11.6 18.1
-4 -30 8 32.9 20
-2 -30 8 -36.3 18.6
0 -30 -8 8.5 19.5
0 -30 8 18 25.9
-2 -30 -8 10.8 19.3
-4 -30 -8 143.69 23.7
-3 -31 8 -17.1 19.3
-1 -31 8 -4.6 20.9
-1 -31 -8 105.09 24.2
-3 -31 -8 132.69 24.9
-2 -32 8 -4 20.8
-2 -32 -8 63.79 22.6
-1 -33 -8 91.49 24.6
-16 0 9 0.5 10
-14 0 9 -3.1 10.3
-12 0 9 -8.9 9.9
-12 0 9 3.6 8.4
10 0 -9 3.7 8.9
-10 0 9 3.2 9.5
-10 0 9 3.8 8
-8 0 9 -4.2 7.6
8 0 -9 7.6 8.4
-8 0 9 2 9
6 0 -9 9.2 8.1
-6 0 9 1.8 6.9
-6 0 9 13 8.6
-4 0 9 -1.4 6.5
-4 0 9 3.9 8.8
4 0 -9 0.9 8.1
4 0 -9 4.8 8.2
2 0 -9 -1.5 8.5
2 0 -9 -0.7 8.2
-2 0 9 -14.4 7.2
-2 0 9 -16.3 8.5
0 0 9 -5.2 7.8
0 0 -9 1.4 7.8
0 0 -9 -4.7 8.1
0 0 9 28.2 9.5
2 0 9 13.3 8.5
-2 0 -9 6.1 7.4
2 0 9 5.6 7.6
-2 0 -9 -1.1 7.4
-4 0 -9 -7.7 6.8
4 0 9 -12.6 5
4 0 9 7.6 7.5
-4 0 -9 -2.6 6.3
-6 0 -9 -10.1 6.5
6 0 9 6.2 7.1
-6 0 -9 -3 5.9
-8 0 -9 -2.2 6.5
8 0 9 3.8 7.1
-8 0 -9 -1.5 5.9
-10 0 -9 -3.7 6.1
-10 0 -9 10.2 6.7
-15 -1 9 95.09 12.9
-15 1 9 91.09 14
-13 -1 9 292.37 21.1
-13 -1 9 241.08 22.3
-13 1 9 275.67 22.6
-13 1 9 255.77 23.8
11 -1 -9 249.88 24.7
-11 -1 9 289.77 22.1
-11 -1 9 234.98 20.2
-11 1 9 250.07 21.2
-11 1 9 254.37 23.1
9 -1 -9 290.37 22.1
-9 -1 9 277.77 21.9
-9 -1 9 222.08 20.4
9 1 -9 272.97 21.2
-9 1 9 265.97 22.6
-9 1 9 260.07 21
-7 -1 9 307.77 22.7
-7 -1 9 256.77 21.3
7 -1 -9 318.57 22.8
-7 1 9 297.67 21.9
-7 1 9 282.77 23.2
7 1 -9 305.07 22.3
-5 -1 9 1884.21 109.19
-5 -1 9 1791.22 108.79
5 -1 -9 1790.12 109.09
-5 1 9 1742.33 109.19
5 1 -9 1997.4 109.19
-5 1 9 1775.82 108.99
3 -1 -9 406.76 26.8
-3 -1 9 379.06 25.8
-3 -1 9 372.96 26.6
3 -1 -9 364.46 26.8
-3 1 9 391.26 25.8
3 1 -9 349.37 26.4
-3 1 9 385.96 27
3 1 -9 377.96 26.5
1 -1 -9 1692.43 101.79
-1 -1 9 1775.52 101.99
-1 -1 9 1718.73 101.49
1 -1 -9 1610.84 101.69
1 1 -9 1733.63 101.79
1 1 -9 1788.42 101.79
-1 1 9 1695.43 101.89
-1 1 9 1605.34 101.49
3 -1 9 26.1 8.4
-3 -1 -9 32.5 8.1
-3 -1 -9 27.6 7.5
3 -1 9 22.2 7.3
-3 1 -9 22.6 7.5
-3 1 -9 27.1 7.4
3 1 9 43 8.7
3 1 9 42.9 7.6
-5 -1 -9 2171.38 134.09
5 -1 9 2318.57 134.39
-5 -1 -9 2300.97 134.19
-5 1 -9 2243.18 134.29
-5 1 -9 2228.38 134.29
5 1 9 2378.76 134.39
7 -1 9 510.95 30.9
-7 -1 -9 424.56 30.2
-7 -1 -9 502.95 30
7 1 9 501.85 30.7
-7 1 -9 410.36 30.4
-7 1 -9 493.55 30.5
-9 -1 -9 105.69 11.2
9 -1 9 109.59 11.3
-9 -1 -9 116.69 10.6
-9 1 -9 102.69 10.8
-9 1 -9 112.09 10.8
-11 1 -9 145.09 14.3
-11 1 -9 162.98 14.4
-16 2 9 7.9 11.4
-14 -2 9 63.59 11.3
-14 -2 9 73.39 9.7
-14 2 9 60.49 13.1
-12 -2 9 -7.9 7.2
-12 -2 9 12.1 9.4
-12 2 9 -6.4 11
-12 2 9 -8.8 9.2
10 -2 -9 830.72 53.09
-10 -2 9 856.51 52.69
-10 -2 9 836.52 51.89
10 2 -9 788.42 52.19
-10 2 9 843.42 52.89
-10 2 9 891.11 53.89
8 -2 -9 306.37 23.5
-8 -2 9 280.47 22.4
-8 -2 9 293.47 21.3
-8 2 9 300.47 23.7
-8 2 9 304.77 22.5
8 2 -9 262.67 22
-6 -2 9 746.13 51.49
-6 -2 9 788.12 50.89
6 -2 -9 891.11 51.99
-6 2 9 876.41 52.19
-6 2 9 874.11 51.59
6 2 -9 814.92 51.29
4 -2 -9 50.99 9.7
4 -2 -9 40.6 9.5
-4 -2 9 50.39 9.6
-4 -2 9 49.5 8.2
-4 2 9 41.6 8.6
4 2 -9 40.3 9.1
4 2 -9 57.19 9.4
-4 2 9 54.99 10.3
-2 -2 9 10.5 6.9
2 -2 -9 3.3 8.7
2 -2 -9 11.6 8.7
-2 -2 9 8 9.2
-2 2 9 -5.1 9
2 2 -9 5.8 8.1
2 2 -9 10.7 8.7
-2 2 9 16.8 7.4
0 2 9 3195.98 196.48
0 2 -9 3365.56 196.58
0 2 -9 3331.37 196.48
0 2 9 3458.05 196.78
-4 -2 -9 180.78 15
-4 -2 -9 174.68 14.9
4 -2 9 191.78 14.9
4 -2 9 173.98 16.1
4 2 9 171.28 15.5
-4 2 -9 153.28 15.1
-4 2 -9 175.48 15.2
-6 -2 -9 74.79 8.4
-6 -2 -9 87.49 9
6 -2 9 78.69 10.2
6 2 9 64.39 9.1
-6 2 -9 87.69 9.5
-6 2 -9 84.49 9.6
-8 -2 -9 100.49 9.6
8 -2 9 112.49 11.5
-8 -2 -9 106.89 9.2
8 2 9 98.69 10.1
-8 2 -9 96.39 10.5
-8 2 -9 87.89 10.3
-10 2 -9 13.5 7.8
-10 2 -9 4.5 7.3
-12 2 -9 791.02 47.9
-12 2 -9 750.62 47.5
-15 3 9 78.19 14.5
-13 -3 9 129.19 13.8
-13 -3 9 149.29 14.5
-13 3 9 144.09 16.7
-11 -3 9 55.49 8.6
-11 -3 9 44.9 10.4
11 -3 -9 39 11.4
-11 3 9 12.8 11.7
-11 3 9 52.59 10.8
-9 -3 9 2605.84 157.08
9 -3 -9 2545.15 157.78
-9 -3 9 2744.33 156.78
9 3 -9 2625.64 156.98
-9 3 9 2729.23 158.08
-9 3 9 2663.33 157.78
-7 -3 9 215.28 18.8
7 -3 -9 213.78 19.7
-7 -3 9 196.08 16.6
7 3 -9 230.38 18.1
-7 3 9 205.98 18.2
-7 3 9 172.98 19.3
5 -3 -9 429.26 29.4
-5 -3 9 437.86 28
-5 -3 9 402.56 29
-5 3 9 399.36 29.7
-5 3 9 424.16 28.8
5 3 -9 442.46 28.9
-1 -3 -9 2347.07 139.99
-1 -3 -9 2382.76 139.99
1 -3 9 2322.97 140.09
1 -3 9 2300.57 139.79
1 3 9 2324.87 139.89
1 3 9 2449.75 140.09
-1 3 -9 2390.16 139.99
-1 3 -9 2391.06 139.99
-3 -3 -9 128.99 12.9
-3 -3 -9 121.59 11.3
3 -3 9 112.39 11
3 -3 9 111.59 11.9
3 3 9 114.09 10.9
-3 3 -9 124.99 13.9
3 3 9 135.59 12.1
-3 3 -9 109.69 11.2
-5 -3 -9 854.11 48
-5 -3 -9 759.32 47.9
5 -3 9 811.22 48.8
5 3 9 810.32 48.1
-5 3 -9 675.53 48.1
-5 3 -9 763.22 48.4
7 -3 9 152.48 15.5
-7 -3 -9 158.98 13.3
-7 -3 -9 134.39 12.6
-7 3 -9 142.09 14.4
-7 3 -9 143.69 14.5
7 3 9 158.98 13.5
9 -3 9 -8.9 8.1
-9 3 -9 0 7.5
-9 3 -9 -4.2 7.3
-11 3 -9 1470.55 83.79
-11 3 -9 1303.97 82.99
-13 3 -9 9.8 8.3
-13 3 -9 8.5 7.9
-15 3 -9 4.3 7.9
-16 4 9 782.72 51.79
-14 4 9 3.1 12.7
-12 -4 9 931.41 52.79
-12 -4 9 794.82 53.59
-12 4 9 851.71 56.19
10 -4 -9 77.79 13.1
-10 -4 9 90.39 10.2
-10 -4 9 82.69 11.8
-10 4 9 91.09 13.9
-10 4 9 91.59 12.7
8 -4 -9 -2.4 9.3
-8 -4 9 8.4 7
-8 -4 9 13.1 9.2
-8 4 9 22.7 9.2
8 4 -9 -0.5 8.2
-8 4 9 -3 10.2
6 -4 -9 1079.49 65.09
-6 -4 9 996.1 63.49
-6 -4 9 1025.4 64.29
-6 4 9 1120.79 64.89
6 4 -9 1070.19 64.09
-6 4 9 1023.8 64.99
4 -4 -9 4.8 8.9
-4 -4 9 -6.7 6.4
4 -4 -9 5.1 8.8
-4 -4 9 3.5 8
4 4 -9 14 7.8
-4 4 9 8.8 7.8
4 4 -9 1.4 7.9
-4 4 9 1 9.9
0 -4 9 366.36 26.2
0 -4 -9 373.16 25.8
0 -4 -9 378.16 25.7
0 -4 9 342.27 24.6
0 4 9 359.86 25.5
0 4 9 367.76 26.4
0 4 -9 328.07 25.5
0 4 -9 365.06 25.4
2 -4 9 5.5 8.6
-2 -4 -9 2 7.1
-2 -4 -9 2 7.5
2 -4 9 3.3 7.1
2 4 9 -5.6 7.2
2 4 9 2.8 8
-2 4 -9 2.8 7.2
-2 4 -9 -7.2 7
4 4 9 1.8 1.8
-6 -4 -9 115.29 12.4
-6 -4 -9 135.19 11.3
6 -4 9 140.39 13.3
-6 4 -9 116.79 11.9
6 4 9 119.69 13
-6 4 -9 131.39 13.9
-8 -4 -9 1506.85 87.29
8 -4 9 1407.26 88.69
-8 -4 -9 1484.05 87.29
-8 4 -9 1501.75 88.79
-8 4 -9 1462.65 88.29
10 -4 9 1036.4 64.69
-10 4 -9 1071.99 64.69
-10 4 -9 1046.9 64.19
-12 4 -9 144.19 15.6
-12 4 -9 152.38 15.1
-14 4 -9 83.89 11
-16 4 -9 47.4 9.5
-15 5 9 9.7 13.4
-13 -5 9 14.4 8.8
-13 5 9 16.5 13
-11 -5 9 188.38 16.5
-11 -5 9 219.88 19
-11 5 9 221.48 23.3
-11 5 9 241.58 21
-9 -5 9 787.62 53.79
-9 -5 9 924.91 53.09
9 -5 -9 881.21 55.39
-9 5 9 875.01 55.29
9 5 -9 865.51 53.69
-9 5 9 863.71 55.79
-7 -5 9 444.96 27.7
7 -5 -9 388.76 30.2
-7 -5 9 419.66 29.2
-7 5 9 404.76 30.9
7 5 -9 404.46 28.7
-7 5 9 435.96 29.8
-5 -5 9 694.73 41.3
5 -5 -9 660.83 43.3
-5 -5 9 617.94 42
5 5 -9 645.74 41.7
-5 5 9 740.23 42.7
-5 5 9 611.24 43.1
-3 -5 9 140.59 15.5
-3 -5 9 130.49 13.3
3 -5 -9 149.59 14.5
3 -5 -9 125.79 13.8
3 5 -9 163.98 15.1
-3 5 9 128.19 12.9
-3 5 9 120.89 13.9
3 5 -9 125.29 12.6
-1 -5 9 250.67 20.4
1 -5 -9 249.68 20.7
1 -5 -9 249.97 20
-1 -5 9 223.88 18.4
-1 5 9 234.88 19.3
1 5 -9 211.58 19.5
1 5 -9 234.38 19.9
-1 5 9 266.07 21.3
1 -5 9 1780.02 101.89
-1 -5 -9 1773.02 101.59
-1 -5 -9 1615.44 101.49
1 -5 9 1659.63 101.29
1 5 9 1582.64 101.49
-1 5 -9 1737.83 101.69
-1 5 -9 1622.84 101.39
1 5 9 1830.42 101.79
3 -5 9 280.07 22.1
-3 -5 -9 323.37 20.7
3 -5 9 239.88 20.8
-3 -5 -9 269.97 21
-3 5 -9 279.97 21.2
-3 5 -9 269.97 21.3
3 5 9 306.87 21.3
3 5 9 261.97 20.8
5 -5 9 2955.8 177.18
-5 -5 -9 3127.99 176.38
-5 -5 -9 3044 176.38
-5 5 -9 2964.1 177.08
-5 5 -9 2792.52 176.68
5 5 9 3077.09 176.48
-7 -5 -9 402.76 24.4
7 -5 9 355.46 26.6
-7 -5 -9 359.76 24.3
-7 5 -9 350.26 25.4
7 5 9 343.97 24.4
-7 5 -9 370.66 26.2
9 -5 9 808.22 51.69
-9 5 -9 814.52 51.49
-9 5 -9 827.82 50.89
11 -5 9 47.7 11.6
-11 5 -9 39.8 9.6
-11 5 -9 35.3 10.2
-13 5 -9 143.89 14.1
-15 5 -9 28.5 9.4
-16 6 9 20.4 14.3
-14 6 9 105.79 17
-12 -6 9 125.89 12.4
-12 -6 9 119.19 13.2
-12 6 9 135.19 17.3
10 -6 -9 264.57 24.7
-10 -6 9 283.37 19.6
-10 -6 9 249.48 21.6
-10 6 9 257.57 25.5
-10 6 9 267.97 23.8
-8 -6 9 20.1 9.9
8 -6 -9 30.8 10.8
-8 -6 9 24.8 6.9
8 6 -9 26.3 9.2
-8 6 9 24.2 9.8
-8 6 9 24 11.4
-6 -6 9 794.42 50.69
-6 -6 9 839.82 51.69
6 -6 -9 824.12 52.89
6 6 -9 879.31 51.39
-6 6 9 773.92 53.19
-6 6 9 854.81 52.59
4 -6 -9 576.84 38.4
-4 -6 9 546.85 36.2
-4 -6 9 572.64 37.2
4 -6 -9 593.44 38.4
-4 6 9 541.65 38.5
-4 6 9 562.34 37.6
4 6 -9 590.54 37
2 -6 -9 161.38 14.5
2 -6 -9 131.69 14.2
-2 -6 9 138.69 13.7
-2 -6 9 146.49 13.7
2 6 -9 130.99 13.4
2 6 -9 142.19 15.8
-2 6 9 129.19 14.3
-2 6 9 138.49 15.6
0 -6 -9 29.6 9.8
0 -6 -9 27.2 8.6
0 -6 9 34.7 7.7
0 -6 9 33.7 9.4
0 6 -9 31.9 8.6
0 6 9 40.9 9.2
0 6 -9 42.5 8.9
0 6 9 42.9 10.5
2 -6 9 2930.21 174.28
2 -6 9 2872.21 174.58
-2 -6 -9 3140.19 174.38
-2 -6 -9 2925.11 174.28
-2 6 -9 2912.71 174.48
-2 6 -9 2837.62 174.18
2 6 9 3089.99 174.48
2 6 9 2889.51 174.08
-4 -6 -9 19.6 8.3
-4 -6 -9 20.2 7.3
4 -6 9 11.4 8.9
4 -6 9 7.2 7.3
-4 6 -9 5.9 7.8
-4 6 -9 19.8 8
4 6 9 23.2 8.3
6 -6 9 292.17 23
-6 -6 -9 310.47 20.4
-6 -6 -9 273.77 20.6
-6 6 -9 297.57 22.3
-6 6 -9 221.18 21.3
6 6 9 306.07 20.9
-8 -6 -9 20.4 6.9
-8 -6 -9 11.9 6.7
8 -6 9 13.6 9.4
-8 6 -9 14.9 9.2
-8 6 -9 14.4 8.3
10 -6 9 188.78 17.5
-10 6 -9 179.78 17.4
-10 6 -9 168.48 16.9
-12 6 -9 -3.1 8.7
-14 6 -9 -9.7 8.7
-16 6 -9 340.97 25.5
-15 7 9 26.3 15
-13 -7 9 724.83 41.1
-13 7 9 568.74 46.6
-11 -7 9 -7 6.2
-11 -7 9 1.3 8.7
-11 7 9 1.7 12.4
-9 -7 9 421.66 30.5
9 -7 -9 433.56 32.9
-9 -7 9 456.15 28.6
-9 7 9 483.85 32.6
-9 7 9 373.36 33.1
9 7 -9 428.76 29.9
-7 -7 9 433.26 30.6
-7 -7 9 448.46 29.1
7 -7 -9 444.66 32.7
-7 7 9 431.26 32.9
7 7 -9 448.56 30
-7 7 9 450.75 32
5 -7 -9 3774.92 218.08
-5 -7 9 3566.84 216.68
-5 -7 9 3601.14 216.98
-5 7 9 3637.64 218.18
-5 7 9 3671.73 217.88
5 7 -9 3839.12 217.08
3 -7 -9 27.3 10.6
-3 -7 9 41 7.6
-3 -7 9 34.3 9.4
3 -7 -9 32.1 10.4
3 7 -9 30.2 8.9
-3 7 9 23.5 10.6
-3 7 9 34.8 9
3 7 -9 50.19 9.7
1 -7 -9 445.26 31.8
1 -7 -9 474.45 32.4
-1 -7 9 438.36 30.4
-1 -7 9 455.85 32
-1 7 9 451.95 31.5
-1 7 9 487.45 32.6
1 7 -9 472.55 31.3
1 7 -9 478.25 31.6
1 -7 9 2234.78 122.39
-1 -7 -9 1908.21 122.49
-1 -7 -9 2086.49 122.69
1 -7 9 2172.78 122.99
1 7 9 1878.61 122.59
-1 7 -9 1970 122.49
1 7 9 2117.39 122.59
-1 7 -9 2072.59 122.39
-3 -7 -9 238.78 19.4
3 -7 9 209.98 20.7
3 -7 9 230.38 18.9
-3 -7 -9 209.28 18.9
3 7 9 242.18 19.7
3 7 9 233.48 19.1
-3 7 -9 236.18 19.6
-3 7 -9 240.18 19.6
-5 -7 -9 910.11 58.99
-5 -7 -9 1007.6 59.09
5 -7 9 970.7 60.39
5 7 9 994.3 59.19
-5 7 -9 977.2 59.69
-5 7 -9 927.11 60.09
7 -7 9 6.2 9.5
-7 -7 -9 19.8 7.4
-7 -7 -9 4.6 7.1
-7 7 -9 14.9 9
-7 7 -9 16.5 9
7 7 9 13.7 7.7
9 -7 9 3902.51 230.98
-9 7 -9 4006.9 231.28
-9 7 -9 3806.12 230.28
-11 7 -9 9 9.1
-13 7 -9 -2.9 9.1
-15 7 -9 237.18 21.1
-14 8 9 -15 13.8
-12 -8 9 1063.89 57.99
-12 -8 9 900.11 58.79
-12 8 9 873.71 62.49
-10 -8 9 170.58 16.3
-10 -8 9 166.58 15.1
-10 8 9 161.88 19.2
-10 8 9 174.88 18.7
8 -8 -9 112.59 15.1
-8 -8 9 108.19 11
-8 -8 9 115.59 13
-8 8 9 98.99 14.1
8 8 -9 98.69 12.1
-8 8 9 113.09 15.8
6 -8 -9 1833.22 111.29
-6 -8 9 1813.92 109.39
-6 -8 9 1782.92 109.79
-6 8 9 1957.3 111.39
6 8 -9 1872.21 109.79
-6 8 9 1766.92 111.39
4 -8 -9 6.8 10.5
-4 -8 9 12.5 6.7
4 -8 -9 15.8 10.2
-4 -8 9 3.8 8.5
-4 8 9 6.6 8.6
4 8 -9 6.6 8.7
-4 8 9 1.4 10.4
2 -8 -9 -2.8 8.9
-2 -8 9 9.6 7
-2 -8 9 -1.4 9.4
2 -8 -9 11.2 9.2
2 8 -9 14.6 8.4
2 8 -9 20.8 9
-2 8 9 8.3 8.5
-2 8 9 5 10.8
0 -8 9 281.87 21.9
0 -8 -9 329.87 23.8
0 -8 -9 322.57 24.2
0 -8 9 304.67 24.2
0 8 -9 297.57 23
0 8 9 297.07 24
0 8 -9 244.98 22.8
0 8 9 343.37 24.8
-2 -8 -9 494.75 32.3
-2 -8 -9 443.66 32.2
2 -8 9 470.95 33.1
2 -8 9 440.76 31.6
-2 8 -9 488.95 32.6
2 8 9 474.75 32.3
2 8 9 512.75 33.1
-2 8 -9 485.45 32.5
-4 -8 -9 -1.6 7.9
-4 -8 -9 4.9 7.9
4 -8 9 -3.9 9.6
4 8 9 -1.4 8.5
-4 8 -9 1 8.4
-4 8 -9 4.8 8.4
-6 -8 -9 326.37 23.1
6 -8 9 308.47 25.7
-6 -8 -9 302.07 22.8
-6 8 -9 301.77 24.2
6 8 9 340.07 23.7
-6 8 -9 318.97 24.8
8 -8 9 4120.09 243.68
-8 -8 -9 4144.69 241.88
-8 8 -9 4119.99 242.88
-8 8 -9 4081.79 243.68
10 -8 9 64.09 22
-10 8 -9 34.4 11.2
-10 8 -9 57.19 10.9
-12 8 -9 93.19 12.5
-14 8 -9 -10.9 9.6
-15 9 9 -13.8 15.1
-13 -9 9 100.59 10.9
-13 -9 9 93.49 12.1
-13 9 9 66.49 17.4
-11 -9 9 11.5 6.4
-11 -9 9 7.7 9.7
-11 9 9 -8.2 13.3
9 -9 -9 6361.16 377.36
-9 9 9 6149.28 377.16
-9 9 9 6674.93 377.56
-7 -9 9 47.8 10.2
7 -9 -9 41.4 12.5
-7 -9 9 42.1 8.2
-7 9 9 40.1 11.6
-7 9 9 35.8 13
7 9 -9 37 9.4
-5 -9 9 58.39 10.9
5 -9 -9 55.99 12.5
-5 -9 9 55.39 8.6
-5 9 9 38.8 12.1
-5 9 9 48.6 11.1
5 9 -9 52.49 10.1
3 -9 -9 124.89 14.5
-3 -9 9 117.09 11.8
3 -9 -9 99.59 13.8
-3 -9 9 97.39 12.5
-3 9 9 106.59 14.8
-3 9 9 118.39 13.3
3 9 -9 107.49 12.4
1 -9 -9 1101.49 71.79
-1 -9 9 1166.18 71.59
1 -9 -9 1155.28 71.69
-1 -9 9 1188.58 70.69
-1 9 9 1175.78 72.29
1 9 -9 1165.98 71.49
-1 9 9 1166.28 71.69
1 9 -9 1166.28 71.09
-1 -9 -9 4077.29 256.97
1 -9 9 4330.97 257.27
-1 -9 -9 4423.26 257.27
-1 9 -9 4059.59 256.77
-1 9 -9 4631.64 257.37
1 9 9 4539.25 257.37
1 9 9 4460.05 257.17
-3 -9 -9 55.49 9.9
-3 -9 -9 34.6 9.5
3 -9 9 37 11
3 -9 9 44.8 9.2
-3 9 -9 40 10.2
-3 9 -9 22.5 9.7
3 9 9 59.59 11.1
-5 -9 -9 2797.22 169.08
-5 -9 -9 2792.42 168.78
5 -9 9 2842.72 169.98
-5 9 -9 2930.51 170.08
5 9 9 2835.12 169.08
-5 9 -9 2930.71 169.48
-7 -9 -9 181.68 17.3
-7 -9 -9 193.48 17
7 -9 9 194.98 21
-7 9 -9 189.08 18.3
7 9 9 171.18 17.3
-7 9 -9 201.88 19.2
-9 -9 -9 140.39 11.8
-9 -9 -9 130.79 12.1
9 -9 9 121.69 16
-9 9 -9 105.09 15.1
-9 9 -9 103.99 13.8
-11 9 -9 2087.79 125.19
-13 9 -9 134.49 15.1
-15 9 -9 -0.6 10.2
-14 10 9 5.6 15.2
-12 -10 9 41.5 7.8
-12 -10 9 39.7 10.5
-12 10 9 19.4 15.4
-10 -10 9 3863.61 233.28
-10 -10 9 4308.37 232.88
-10 10 9 3672.73 235.38
-8 -10 9 2767.62 164.08
-8 -10 9 2708.53 164.58
8 -10 -9 2658.33 166.48
8 10 -9 2828.52 164.58
-8 10 9 2707.13 166.68
-8 10 9 2978.9 166.98
6 -10 -9 93.79 15.2
-6 -10 9 110.69 11.5
-6 -10 9 100.69 12.9
-6 10 9 102.49 14.3
-6 10 9 88.19 15.2
6 10 -9 119.39 12.8
4 -10 -9 54.29 11.4
-4 -10 9 22.6 7.8
-4 -10 9 38.9 10.1
-4 10 9 35 12.3
4 10 -9 22.4 9.5
-4 10 9 53.99 11.1
-2 -10 9 97.39 10.5
2 -10 -9 74.99 13.5
-2 -10 9 87.79 12.8
2 -10 -9 73.59 12.3
2 10 -9 96.29 14.3
2 10 -9 92.99 11.8
-2 10 9 105.39 12.9
-2 10 9 56.99 13.3
0 -10 -9 4.9 8.8
0 -10 9 10.4 9.4
0 -10 -9 -4.5 9.4
0 -10 9 5.3 6.9
0 10 -9 1.5 8.4
0 10 9 -7.8 8.9
0 10 9 -4.5 10.3
0 10 -9 9.5 8.7
-2 -10 -9 671.33 44.6
-2 -10 -9 676.23 44.7
2 -10 9 673.03 45.3
2 -10 9 693.33 44.1
2 10 9 719.73 45.3
-2 10 -9 661.13 44.5
-2 10 -9 722.23 45.1
-4 -10 -9 30.5 9.9
4 -10 9 49 11.9
-4 -10 -9 41.4 9.9
4 10 9 37.7 10.5
-4 10 -9 37.5 10.4
-4 10 -9 36.7 10.4
-6 -10 -9 284.47 22.9
-6 -10 -9 298.07 23.3
6 -10 9 275.47 25.9
-6 10 -9 309.17 25.1
6 10 9 295.37 23.4
-6 10 -9 321.27 24.6
-8 -10 -9 155.98 13.6
-8 -10 -9 146.39 14
8 -10 9 107.09 16.3
-8 10 -9 151.58 15.8
-8 10 -9 123.19 16.4
8 10 9 139.79 14
-10 -10 -9 229.58 17.8
-10 -10 -9 240.28 18.5
-10 10 -9 232.98 22
-12 10 -9 2160.58 129.69
-14 10 -9 13.6 10.7
-15 11 9 2.3 16.7
-13 -11 9 134.29 14
-13 11 9 87.69 19.2
-11 -11 9 49.1 11.6
-11 -11 9 70.29 9.5
-11 11 9 52.09 16.5
-9 -11 9 1182.68 75.19
-9 -11 9 1279.37 74.39
-9 11 9 1175.38 78.09
9 11 -9 1243.18 74.99
7 -11 -9 213.58 21.3
-7 -11 9 180.88 19.7
-7 -11 9 207.58 17.2
-7 11 9 220.18 21.1
-7 11 9 171.58 20.2
7 11 -9 188.58 19.1
5 -11 -9 183.38 19.2
-5 -11 9 185.48 19.6
-5 -11 9 209.38 17.3
-5 11 9 187.68 20.7
-5 11 9 178.28 20.8
5 11 -9 198.38 18.6
-3 -11 9 179.78 19.6
3 -11 -9 187.58 18.4
3 -11 -9 179.68 18.3
-3 -11 9 202.18 17.2
-3 11 9 164.78 18.7
-3 11 9 197.78 20
3 11 -9 190.48 18.8
-1 -11 9 91.69 11.1
1 -11 -9 94.69 13
1 -11 -9 55.69 11.8
-1 -11 9 63.49 12.3
-1 11 9 66.59 11.9
1 11 -9 72.99 12.2
1 11 -9 81.69 12.1
-1 11 9 45.1 12.6
-1 -11 -9 902.61 59.49
1 -11 9 934.51 58.69
-1 -11 -9 1016.9 59.69
1 -11 9 930.21 59.99
-1 11 -9 949.4 59.59
1 11 9 972.1 60.09
-1 11 -9 894.61 59.09
3 -11 9 530.15 32.6
-3 -11 -9 410.66 32.2
3 -11 9 451.95 33.6
-3 -11 -9 472.25 32.5
-3 11 -9 442.56 32.6
-3 11 -9 466.75 33.2
3 11 9 425.76 33
5 -11 9 247.38 25.4
-5 -11 -9 273.37 23.4
-5 -11 -9 263.07 22.7
-5 11 -9 336.47 24.1
-5 11 -9 301.07 24.8
5 11 9 260.37 23.4
-7 -11 -9 109.79 13.3
-7 -11 -9 115.59 12.4
7 -11 9 95.49 15.5
-7 11 -9 113.39 15.1
7 11 9 87.69 12.8
-7 11 -9 115.79 14.1
-9 -11 -9 590.24 39
-9 -11 -9 600.44 38.6
-9 11 -9 613.44 40.8
-11 11 -9 321.97 26.5
-13 11 -9 4.6 10.8
-14 -12 9 2.9 10
-14 12 9 -2.9 16.4
-12 -12 9 545.25 37.9
-12 12 9 566.34 43.7
-10 -12 9 284.47 23.6
-10 -12 9 266.17 20.7
-10 12 9 234.48 25.7
8 -12 -9 324.87 29.8
-8 -12 9 321.67 25.7
-8 -12 9 290.97 23
-8 12 9 330.67 28.9
-8 12 9 348.87 30.7
8 12 -9 299.57 25.1
-6 -12 9 2882.61 184.48
6 -12 -9 3194.28 186.48
-6 -12 9 3264.47 184.48
6 12 -9 3107.89 184.58
-6 12 9 3001.1 186.48
-6 12 9 3223.38 186.48
4 -12 -9 20.4 12.1
-4 -12 9 10.9 10.3
-4 -12 9 14.3 8
-4 12 9 10 12.9
4 12 -9 25.6 9.7
-4 12 9 16.4 10.3
-2 -12 9 1317.17 83.99
2 -12 -9 1364.66 84.79
2 -12 -9 1356.16 84.89
-2 -12 9 1442.06 83.39
-2 12 9 1301.67 85.09
2 12 -9 1409.06 83.69
-2 12 9 1379.06 84.49
0 -12 9 388.56 28.8
0 -12 -9 356.66 30.4
0 -12 -9 428.26 30.7
0 -12 9 382.56 30.7
0 12 -9 373.06 29.5
0 12 -9 440.56 30.8
0 12 9 402.76 30.1
0 12 9 440.96 31.9
2 -12 9 439.96 29.6
-2 -12 -9 415.46 30
2 -12 9 400.66 31
-2 -12 -9 383.86 30
-2 12 -9 379.26 29.7
2 12 9 364.06 30.6
-2 12 -9 406.46 30.2
-4 -12 -9 8.6 9.9
-4 -12 -9 -5.1 9.7
4 -12 9 2.9 11.2
-4 12 -9 12.9 9.9
-4 12 -9 1.2 9.9
4 12 9 2 10.8
-6 -12 -9 4.8 9.6
6 -12 9 7.3 11.8
-6 -12 -9 2.3 10
-6 12 -9 -2.9 10.6
-6 12 -9 11.5 10.3
6 12 9 6.6 10.2
-8 -12 -9 2682.03 151.78
8 -12 9 2519.85 154.08
-8 -12 -9 2563.74 152.18
-8 12 -9 2516.85 154.08
8 12 9 2349.36 151.88
-8 12 -9 2691.53 152.88
-10 -12 -9 119.69 12.5
-10 -12 -9 127.19 13.3
-10 12 -9 104.49 14.9
-12 12 -9 173.18 18.3
-14 12 -9 -17.4 11.1
-13 -13 9 203.68 20.8
-13 13 9 175.88 23.9
-11 -13 9 7.4 10.9
-11 13 9 4.1 15.6
-9 -13 9 711.23 45.9
-9 -13 9 731.13 47.1
-9 13 9 717.03 51.19
-7 -13 9 46.7 9.7
-7 -13 9 62.19 12.3
7 -13 -9 50.89 14.8
-7 13 9 38.9 15
-7 13 9 38.6 13.4
7 13 -9 75.29 12.1
-5 -13 9 990.9 55.49
-5 -13 9 767.62 55.79
5 -13 -9 875.41 58.19
-5 13 9 931.21 57.69
5 13 -9 935.21 55.89
-5 13 9 755.42 58.19
-3 -13 9 177.38 17.9
3 -13 -9 180.48 19.1
-3 -13 9 164.18 18
3 -13 -9 174.18 18.7
3 13 -9 212.38 19.6
-3 13 9 153.98 19.8
-3 13 9 195.88 18.6
1 -13 -9 20.9 11.4
-1 -13 9 15.7 12
-1 -13 9 11.9 8.6
1 -13 -9 7.6 10.6
1 13 -9 18.8 10.2
-1 13 9 7.2 10.4
-1 13 9 6.6 12.4
-1 -13 -9 1674.13 102.39
1 -13 9 1587.54 102.49
1 -13 9 1871.61 102.19
-1 -13 -9 1610.14 102.39
1 13 9 1658.23 102.89
-1 13 -9 1690.73 102.49
-1 13 -9 1650.73 101.89
3 -13 9 17.4 11.8
-3 -13 -9 -3.1 10.1
-3 -13 -9 5.8 10.3
3 13 9 1 10.9
-3 13 -9 1.5 10.1
-3 13 -9 5 9.8
5 -13 9 338.17 29.7
-5 -13 -9 322.37 27.5
-5 -13 -9 352.36 27
-5 13 -9 370.26 28.9
5 13 9 344.87 27.8
-5 13 -9 338.47 27.7
-7 -13 -9 4.7 10.4
-7 -13 -9 1 10
7 -13 9 8.3 13
-7 13 -9 15.6 10.5
-7 13 -9 -0.6 11.7
7 13 9 -9.3 10.8
-9 -13 -9 398.76 29.3
-9 -13 -9 367.36 30.3
-9 13 -9 479.25 31.7
-11 -13 -9 151.68 16.5
-11 -13 -9 155.68 13.3
-11 13 -9 97.49 16
-13 13 -9 -2.4 11.5
-14 -14 9 25.1 11.5
-14 14 9 34.9 18.3
-12 -14 9 114.99 15.4
-12 14 9 117.39 20.1
-10 -14 9 -2.4 11
-10 14 9 25.1 16.4
-8 -14 9 98.89 12
-8 -14 9 85.99 14
-8 14 9 65.09 16.9
6 -14 -9 192.28 21.6
-6 -14 9 166.38 19.2
-6 -14 9 217.08 22.1
-6 14 9 242.68 24
6 14 -9 222.38 21.4
-6 14 9 215.78 22.2
-4 -14 9 13.1 11.3
4 -14 -9 4.9 12
-4 -14 9 2.9 8.7
-4 14 9 -19.6 12.8
-4 14 9 5.6 10.8
4 14 -9 7 9.8
-2 -14 9 42.9 12.7
2 -14 -9 40.4 12.8
-2 -14 9 65.99 11.3
2 -14 -9 49.8 13.6
2 14 -9 65.59 11.9
-2 14 9 55.29 12.5
-2 14 9 51.59 14.2
0 -14 -9 514.05 36.8
0 -14 9 481.65 36.7
0 -14 9 519.85 34.8
0 -14 -9 495.85 36.6
0 14 -9 462.55 35.4
0 14 9 518.15 37.7
-2 -14 -9 1166.38 77.09
2 -14 9 1282.57 78.19
-2 -14 -9 1216.98 77.69
2 -14 9 1325.37 76.99
2 14 9 1202.78 77.79
-2 14 -9 1268.07 77.89
-2 14 -9 1225.58 76.89
-4 -14 -9 347.97 28.3
-4 -14 -9 365.76 27.9
4 -14 9 336.67 29.9
-4 14 -9 329.07 28.1
4 14 9 280.27 28.8
-4 14 -9 415.26 29.7
6 -14 9 48.8 14.1
-6 -14 -9 40.9 11.4
-6 -14 -9 42.7 12.4
-6 14 -9 25.8 11.4
6 14 9 23.5 12.2
-6 14 -9 39.2 13
-8 -14 -9 1524.45 89.79
-8 -14 -9 1491.35 90.49
8 14 9 1492.15 90.29
-8 14 -9 1376.76 90.49
-10 -14 -9 7.4 9.1
-10 -14 -9 -8.8 10.1
-10 14 -9 10.7 11.3
-12 14 -9 8.2 12.2
-14 14 -9 -1.4 12.2
-13 -15 9 290.57 25.1
-13 15 9 257.97 28.6
-11 -15 9 117.29 15.5
-11 15 9 103.59 20.3
-9 -15 9 10.9 11.9
-9 15 9 2.6 16.2
-7 -15 9 110.99 15.3
7 -15 -9 107.39 18.8
-7 -15 9 146.59 14.4
7 15 -9 141.29 16.1
-7 15 9 93.69 18.9
-5 -15 9 442.76 33.5
5 -15 -9 463.65 36.5
-5 -15 9 471.45 32
5 15 -9 439.26 32.7
-5 15 9 459.15 37.4
-5 15 9 388.06 34.5
-3 -15 9 503.95 36.9
-3 -15 9 570.34 35.3
3 -15 -9 489.95 38.2
-3 15 9 438.96 38.7
3 15 -9 494.35 35.8
-3 15 9 480.05 36.9
1 -15 -9 284.07 28
1 -15 -9 277.07 27.8
-1 -15 9 344.47 25.1
-1 -15 9 285.27 27.7
1 15 -9 326.67 26.4
-1 15 9 286.07 29.1
1 -15 9 219.08 24.5
1 -15 9 221.98 21.6
-1 -15 -9 246.18 24.4
-1 -15 -9 235.48 24.2
1 15 9 217.28 22.6
-1 15 -9 214.18 23.4
-1 15 -9 196.88 22.1
-3 -15 -9 2.5 11.4
3 -15 9 20.7 13.1
-3 -15 -9 7.1 11.3
3 15 9 -26.6 11.8
-3 15 -9 7.4 10.7
-3 15 -9 9 11.7
5 -15 9 1285.77 80.59
-5 -15 -9 1219.48 79.29
-5 -15 -9 1267.77 78.69
5 15 9 1168.28 79.39
-5 15 -9 1319.67 79.19
-5 15 -9 1360.16 80.79
-7 -15 -9 575.34 38.8
-7 -15 -9 521.05 39.7
7 -15 9 585.64 43.2
7 15 9 529.25 39.8
-7 15 -9 581.94 39.7
-9 -15 -9 1474.35 88.89
-9 15 -9 1447.06 90.39
-11 -15 -9 256.97 20.9
-11 15 -9 214.38 24.5
-13 15 -9 12.1 12.8
-14 -16 9 -7.6 12.1
-12 -16 9 306.77 27.5
-12 16 9 342.47 35
-10 -16 9 230.98 23.4
-10 16 9 221.28 26.1
-8 -16 9 379.46 30
-8 16 9 367.96 36.3
-6 -16 9 660.93 47.2
6 -16 -9 747.33 50.79
-6 -16 9 740.43 46.2
6 16 -9 707.13 47.1
-6 16 9 635.44 50.79
-6 16 9 702.93 49.6
4 -16 -9 -7.6 13
-4 -16 9 1.1 9
-4 -16 9 -9.9 11.3
-4 16 9 -4.4 11.4
-4 16 9 5.2 14.8
4 16 -9 0.8 10.8
2 -16 -9 2663.83 157.68
2 -16 -9 2418.46 157.38
-2 -16 9 2987 156.78
-2 -16 9 2615.54 156.88
-2 16 9 2360.76 157.58
2 16 -9 2594.54 156.48
0 -16 9 37 13.2
0 -16 -9 16.6 12.8
0 -16 9 15.9 9.9
0 -16 -9 3.5 12.5
0 16 9 -2.4 13
0 16 -9 4.7 10.7
2 -16 9 150.68 19.3
-2 -16 -9 173.18 19
-2 -16 -9 166.18 19
-2 16 -9 182.38 19.6
-2 16 -9 140.39 16.8
2 16 9 169.38 19.9
4 -16 9 880.81 62.29
-4 -16 -9 951.9 60.89
-4 -16 -9 913.91 61.69
4 16 9 885.41 62.19
-4 16 -9 989.9 62.59
-4 16 -9 1041.5 61.19
6 -16 9 52.79 15.9
-6 -16 -9 78.09 14.7
-6 -16 -9 73.79 13.6
6 16 9 100.89 15.9
-6 16 -9 71.29 13.5
-8 -16 -9 798.62 52.39
-8 16 -9 814.12 53.59
-10 -16 -9 454.25 33.6
-10 16 -9 512.75 36.7
-12 -16 -9 49.2 10.6
-12 16 -9 39.6 14.1
-13 -17 9 53.39 13.6
-13 17 9 61.99 21
-11 -17 9 33.8 13
-11 17 9 5.2 18
-9 -17 9 567.04 40.1
-9 17 9 560.34 45.8
-7 -17 9 5.3 12.2
-7 17 9 -0.5 15.9
-5 -17 9 -9.2 11.9
5 -17 -9 -0.2 13.7
-5 17 9 31.6 13.1
-5 17 9 0.4 15.4
5 17 -9 -4.6 11.4
-3 -17 9 54.49 14.7
3 -17 -9 56.89 15.4
-3 -17 9 68.49 12.6
3 17 -9 61.99 13.7
-3 17 9 41.7 16.6
1 -17 -9 174.28 20.4
-1 -17 9 250.87 21.5
1 -17 -9 169.68 20.9
-1 -17 9 194.78 21.2
1 17 -9 225.38 23
-1 17 9 149.29 20.9
-1 -17 -9 81.29 15.4
1 -17 9 85.79 16.2
-1 -17 -9 105.39 17
-1 17 -9 85.29 14.3
1 17 9 82.69 17.2
3 -17 9 41 15
-3 -17 -9 33 13.6
-3 -17 -9 60.79 14.2
-3 17 -9 35.6 13.3
-3 17 -9 31.4 12
3 17 9 52.69 15.7
5 -17 9 465.45 37.4
-5 -17 -9 442.56 34.2
-5 -17 -9 484.85 36.8
5 17 9 434.36 36.2
-5 17 -9 442.76 36.3
-5 17 -9 395.76 33.8
-7 -17 -9 42.8 12.9
-7 17 -9 31.2 12.8
-9 -17 -9 21.1 11.5
-9 17 -9 12.2 12.7
-11 -17 -9 282.47 25.4
-11 17 -9 363.06 29.6
-13 -17 -9 32.3 9.9
-13 17 -9 24.7 14.4
-12 -18 9 19.1 13
-12 18 9 4.7 18.8
-10 -18 9 7.9 12.8
-10 18 9 9.8 17.4
-8 -18 9 36.4 13.6
-8 18 9 23.7 17.8
-6 -18 9 8.2 12.5
6 -18 -9 5.2 15.8
-6 18 9 7 15.8
4 -18 -9 14.1 15.2
-4 -18 9 20.8 13.5
4 18 -9 23.2 12.7
-4 18 9 27.5 13.6
-4 18 9 21.1 16.6
-2 -18 9 1219.38 76.39
2 -18 -9 1188.48 77.09
2 -18 -9 1287.57 77.89
-2 18 9 1158.28 78.09
2 18 -9 1130.59 75.59
0 -18 9 589.64 42.3
0 -18 -9 598.94 42.4
0 -18 -9 584.54 42.9
0 18 9 458.25 43.1
0 18 -9 589.74 40.6
-2 -18 -9 834.72 53.39
2 -18 9 769.12 54.09
-2 -18 -9 732.53 53.69
2 18 9 735.13 54.79
-2 18 -9 821.42 52.49
4 -18 9 291.97 30.8
-4 -18 -9 291.27 28
4 18 9 309.17 32.4
-4 18 -9 271.47 26.7
-4 18 -9 306.47 29.6
-6 -18 -9 99.59 16.5
-6 18 -9 90.39 16
-8 -18 -9 28.5 12.4
-8 18 -9 34.4 13.2
-10 -18 -9 213.18 21.8
-10 18 -9 177.78 21.1
-12 -18 -9 418.96 32.6
-12 18 -9 517.05 36.8
-13 19 9 9 20.5
-11 -19 9 49.4 14.5
-11 19 9 40.5 20.2
-9 -19 9 24.5 13.4
-9 19 9 31 18
-7 -19 9 157.78 18.9
-7 19 9 142.79 22.3
-5 -19 9 0 12.7
5 -19 -9 -17.4 15.4
-5 19 9 -19.6 15.8
-3 -19 9 329.37 30.2
3 -19 -9 282.97 31.4
3 19 -9 320.77 29.5
-3 19 9 325.57 34.4
-1 -19 9 659.03 44.4
1 -19 -9 472.35 42.1
-1 -19 9 561.64 42.3
1 -19 -9 601.34 43.8
-1 19 9 539.55 45.3
1 19 -9 563.04 41.1
1 -19 9 357.46 36
-1 -19 -9 412.96 34.2
-1 -19 -9 377.86 34.5
-1 19 -9 403.36 32.5
-3 -19 -9 37.7 14
3 -19 9 58.99 16.7
-3 19 -9 37.8 13.4
5 -19 9 501.75 41.7
-5 -19 -9 499.05 38.7
-5 19 -9 509.45 37.9
-7 -19 -9 43.1 14
-7 19 -9 44.7 14.4
-9 -19 -9 8.8 12.4
-9 19 -9 10.9 13.3
-11 -19 -9 -1.2 11.7
-11 19 -9 31.6 14.3
-13 -19 -9 19.3 16.6
-12 -20 9 -0.5 18.1
-12 20 9 18 21.1
-10 -20 9 -2 13.3
-10 20 9 6.5 18.6
-8 -20 9 8.4 13.3
-8 20 9 19.7 18.1
-6 -20 9 20.1 14.3
-6 20 9 30 17.4
-4 -20 9 0.5 13.8
4 -20 -9 27.8 16.5
-4 20 9 42.1 17.6
-2 -20 9 25.5 14.5
2 -20 -9 28.8 15.9
2 20 -9 15.3 14.2
-2 20 9 17.8 17
0 -20 9 431.96 37.7
0 -20 -9 320.97 33.2
0 -20 9 331.47 33.1
0 20 9 391.26 36.3
0 20 -9 346.27 31.3
2 -20 9 1491.15 96.89
-2 -20 -9 1576.54 96.29
-2 20 -9 1525.95 95.39
-4 -20 -9 -13.5 13.4
4 -20 9 22 16.1
-4 20 -9 20.1 12.8
-6 -20 -9 32.4 14
-6 20 -9 31.8 13.3
-8 -20 -9 34.3 13.3
-8 20 -9 15.9 13.4
-10 -20 -9 2.7 12.2
-10 20 -9 -9.1 13.9
-12 -20 -9 -0.6 11.9
-12 20 -9 3.6 14.4
-11 -21 9 99.79 16.5
-11 21 9 36.4 22
-9 -21 9 224.98 22.5
-9 21 9 151.88 26.1
-7 -21 9 20.9 14.2
-7 21 9 62.49 20.1
-5 -21 9 154.28 19.8
-5 21 9 102.29 21.8
-3 -21 9 64.89 17.2
3 -21 -9 86.29 19.2
-3 21 9 65.49 19.7
1 -21 -9 14.7 15.1
-1 -21 9 -3 14.4
-1 21 9 6.1 17
-1 -21 -9 3918.61 236.58
1 -21 9 3760.22 236.68
-1 21 -9 4181.78 236.28
-3 -21 -9 147.89 20.4
3 -21 9 126.59 20.5
-3 21 -9 113.39 17.6
-5 -21 -9 26.4 14.6
-5 21 -9 27.4 14.3
-7 -21 -9 171.18 19.3
-7 21 -9 112.89 17.9
-9 -21 -9 -8.5 13.1
-9 21 -9 2.4 13.7
-11 -21 -9 257.47 25.3
-11 21 -9 234.88 25.7
-12 22 9 -2.2 20.7
-10 -22 9 102.69 17.5
-10 22 9 92.19 23.7
-8 -22 9 49.8 15.9
-8 22 9 27.2 19.9
-6 -22 9 58.79 16
-6 22 9 21.5 19.7
4 -22 -9 11.5 17.6
-4 -22 9 -5.1 15.3
-4 22 9 4.2 18.2
-2 -22 9 684.23 50.09
2 -22 -9 705.53 52.09
-2 22 9 663.63 53.29
0 -22 9 108.89 19
0 -22 -9 98.59 18.9
2 -22 9 492.35 42.8
-2 -22 -9 516.45 41.9
-2 22 -9 545.75 40.7
-4 -22 -9 111.39 18.5
-4 22 -9 81.09 16.9
-6 -22 -9 1.6 14.1
-6 22 -9 12.6 13.9
-8 -22 -9 -8.6 13
-8 22 -9 -7.4 13.4
-10 -22 -9 108.39 17.4
-10 22 -9 118.99 18.9
-11 23 9 -20.8 20.3
-9 -23 9 44.7 15.9
-9 23 9 65.09 22.7
-7 -23 9 8.3 14.6
-7 23 9 25.4 20.4
-5 -23 9 9.5 15.3
-5 23 9 -21.5 18.7
3 -23 -9 483.85 41.7
-3 -23 9 497.55 39.4
-3 23 9 379.86 42.6
-1 -23 9 1088.19 71.49
1 -23 -9 1054.19 72.59
-1 -23 -9 10.6 15.7
1 -23 9 2 16.1
3 -23 9 39 18.4
-3 -23 -9 22.9 16.3
-3 23 -9 29.8 14.9
-5 -23 -9 491.15 40.9
-5 23 -9 524.35 40.7
-7 -23 -9 -3.7 13.8
-7 23 -9 -5.8 13.4
-9 -23 -9 -10.6 14.1
-9 23 -9 20 15.1
-11 23 -9 174.98 23.5
-10 24 9 39.5 23
-8 -24 9 42.7 16.4
-8 24 9 36.9 22
-6 -24 9 127.49 20
-6 24 9 108.79 24.9
-4 -24 9 58.69 17.8
-4 24 9 29.5 21.8
-2 -24 9 1035.4 73.49
2 -24 -9 1186.28 76.19
0 -24 -9 9.6 16
0 -24 9 10 16.4
-2 -24 -9 1.6 15.7
2 -24 9 7.2 17.5
-4 -24 -9 244.08 27.7
-4 24 -9 352.16 31.6
-6 -24 -9 54.89 16.9
-6 24 -9 39.6 16.3
-8 -24 -9 236.58 24.1
-8 24 -9 208.18 24.8
-10 24 -9 40.6 16.7
-11 25 9 1 22.6
-9 25 9 136.89 27.3
-7 -25 9 34.1 16.8
-7 25 9 24.8 22.1
-5 -25 9 -13 16
3 -25 -9 23.5 21.7
1 -25 -9 28.9 18.6
-1 -25 9 -15 16
1 -25 9 228.98 27.3
-1 -25 -9 221.98 26.2
-3 -25 -9 12.5 16.7
-5 -25 -9 109.39 20.1
-5 25 -9 126.49 20
-7 -25 -9 28.3 16
-7 25 -9 32.2 16.4
-9 25 -9 11.2 16.2
-11 25 -9 31.8 18.2
-10 26 9 -9.5 22.6
-8 -26 9 -14.4 15.8
-8 26 9 3.2 22.2
-6 -26 9 330.17 34.5
-4 -26 9 31.1 17.6
-2 -26 9 168.48 23.3
2 -26 -9 152.48 25.1
0 -26 -9 6.6 17.5
0 -26 9 6.7 17.9
-2 -26 -9 134.19 22.1
-4 -26 -9 58.49 18.5
-6 -26 -9 10.7 16.6
-6 26 -9 26.5 16.5
-10 26 -9 5.8 16.6
-9 27 9 -5 22.9
-7 -27 9 76.89 20
-5 -27 9 312.97 34.4
-3 -27 9 95.39 20.8
-1 -27 9 9.5 18.7
1 -27 -9 4.4 19.4
-1 -27 -9 50.29 19.1
1 -27 9 41.8 20.4
-3 -27 -9 -2.7 16.5
-5 -27 -9 126.39 21
-7 -27 -9 166.18 33.7
-7 27 -9 159.98 32.8
-9 27 -9 733.53 55.49
-10 28 9 57.69 33.8
-6 -28 9 106.19 21.7
-4 -28 9 -11.7 17.2
-2 -28 9 73.89 20.9
0 -28 9 81.39 22.4
0 -28 -9 108.49 22.3
-2 -28 -9 60.99 19.9
-4 -28 -9 -14.6 16.7
-6 -28 -9 -6.2 15.7
-10 28 -9 -20.3 17.4
-5 -29 9 35.9 19.7
-3 -29 9 -24.7 18.1
-1 -29 9 62.39 21.7
1 -29 -9 99.89 22.8
-1 -29 -9 79.89 21.6
-3 -29 -9 22.5 18.3
-5 -29 -9 119.39 22.2
-4 -30 9 13.5 19.2
-2 -30 9 22.3 20.1
0 -30 -9 5.1 19.8
-2 -30 -9 24.1 19.3
-4 -30 -9 9.8 18.2
-3 -31 9 3.4 19.7
-1 -31 9 28.4 21.4
-1 -31 -9 78.59 22.1
-3 -31 -9 11.8 19.1
-2 -32 9 -1.8 20.9
-2 -32 -9 14.9 20.4
-1 -33 -9 118.99 25.8
-16 0 10 135.09 15.4
-14 0 10 268.87 24
-12 0 10 1836.32 106.89
-12 0 10 1717.33 107.19
-10 0 10 22.9 10.7
10 0 -10 26.3 10
-10 0 10 16.2 9.2
-8 0 10 -1.7 7.9
8 0 -10 8.6 8.7
-8 0 10 -7.7 9.2
-6 0 10 1691.33 109.59
6 0 -10 1920.01 109.79
-6 0 10 1893.01 109.49
4 0 -10 188.88 18
4 0 -10 169.48 17.8
-4 0 10 197.68 18.3
-4 0 10 206.58 16.5
-2 0 10 213.68 19.4
-2 0 10 194.88 17.7
2 0 -10 226.78 18.9
2 0 -10 193.08 19.5
4 0 10 865.71 53.89
4 0 10 942.51 54.49
-4 0 -10 878.41 53.99
-4 0 -10 858.51 54.09
-6 0 -10 8.7 7.3
-6 0 -10 8.4 6.7
6 0 10 15.1 7.7
-8 0 -10 246.38 18
8 0 10 242.58 18.6
-8 0 -10 211.28 17.6
-10 0 -10 59.39 8.6
-10 0 -10 79.89 9.2
-15 -1 10 108.69 14
-15 1 10 102.59 14.6
-13 -1 10 7.6 8.4
-13 -1 10 -15.3 10.2
-13 1 10 7.1 11.2
-11 -1 10 771.82 51.89
11 -1 -10 883.21 52.49
-11 -1 10 761.62 51.29
-11 1 10 885.31 52.19
-11 1 10 807.82 52.79
-9 -1 10 576.94 40.1
9 -1 -10 621.54 41.2
-9 -1 10 630.94 41
-9 1 10 674.33 41.7
-9 1 10 636.34 40.7
9 1 -10 621.44 40.6
-7 -1 10 792.22 49.4
-7 -1 10 777.52 48.8
7 -1 -10 784.72 49.4
-7 1 10 760.82 48.9
-7 1 10 738.93 49.5
7 1 -10 834.52 49.2
5 -1 -10 1156.18 72.19
-5 -1 10 1222.68 71.69
-5 -1 10 1205.48 72.19
5 1 -10 1234.18 71.99
-5 1 10 1198.28 71.79
-5 1 10 1091.99 72.09
-3 -1 10 37.5 8
3 -1 -10 20.6 9.4
3 -1 -10 25.6 9.2
-3 -1 10 29.3 9.5
3 1 -10 39.3 9.5
-3 1 10 38.9 10
-3 1 10 43.4 8.4
3 1 -10 42.9 9.4
-1 -1 10 4.6 7.8
1 -1 -10 17.6 8.8
-1 -1 10 21.2 10.2
1 -1 -10 7.6 9.3
1 1 -10 10 8.8
-1 1 10 17 10
1 1 -10 31.3 9.6
-1 1 10 22.4 8.3
-3 -1 -10 -5.9 7.5
-3 -1 -10 7.9 7
3 -1 10 11.8 8.3
3 -1 10 6.3 7.1
3 1 10 11.5 7.2
3 1 10 9 8.4
-3 1 -10 6.9 6.9
-3 1 -10 16.8 7.9
5 -1 10 206.68 17.5
-5 -1 -10 205.28 16.7
-5 -1 -10 213.18 16.2
-5 1 -10 199.98 16.7
-5 1 -10 205.98 16.4
5 1 10 191.18 17.3
7 -1 10 8.8 7.6
-7 -1 -10 6.6 7.2
-7 -1 -10 9.8 6.2
-7 1 -10 0 7.1
7 1 10 2 7.4
-7 1 -10 7.8 6.6
-9 -1 -10 428.46 27.2
-9 -1 -10 425.06 27.5
9 -1 10 370.46 28.3
-9 1 -10 429.06 27.9
-9 1 -10 429.86 27.7
-11 1 -10 344.37 23.8
-11 1 -10 344.87 24
-13 1 -10 48.9 8.6
-16 2 10 228.68 23.3
-14 -2 10 8.3 10
-14 2 10 1.5 11.7
-12 -2 10 107.49 12.1
-12 -2 10 97.49 13.2
-12 2 10 114.79 14.1
-12 2 10 84.69 14.7
10 -2 -10 81.29 11.9
-10 -2 10 46.1 9.4
-10 -2 10 58.59 11.4
-10 2 10 51.59 10.8
10 2 -10 57.89 10.4
-10 2 10 53.29 12.4
8 -2 -10 1285.57 75.39
-8 -2 10 1259.27 74.89
-8 -2 10 1227.38 74.29
-8 2 10 1183.58 75.39
8 2 -10 1189.68 74.59
-8 2 10 1222.78 74.99
6 -2 -10 111.89 12.6
-6 -2 10 103.89 11.6
-6 -2 10 136.19 13.1
-6 2 10 114.69 13.1
-6 2 10 95.49 12
6 2 -10 115.59 12.4
4 -2 -10 397.36 29.9
4 -2 -10 460.85 30.3
-4 -2 10 378.16 28.7
-4 -2 10 452.75 30.1
-4 2 10 453.15 30.5
4 2 -10 466.15 29.7
-4 2 10 448.06 29.3
4 2 -10 420.06 29.6
2 2 -10 4544.05 267.07
2 2 -10 4542.15 267.07
0 -2 10 41.7 8.6
0 -2 -10 34.9 8.8
0 -2 10 25.9 9.5
0 -2 -10 29.4 9.4
0 2 -10 38.7 8.9
0 2 10 45.6 10.6
0 2 10 44.5 9.6
0 2 -10 38 9.5
2 -2 10 95.39 10.5
-2 -2 -10 85.99 10.2
-2 -2 -10 68.09 10.4
2 -2 10 75.59 10.8
2 2 10 72.59 11
-2 2 -10 59.49 9.6
2 2 10 98.89 10.4
-2 2 -10 75.19 10.3
-4 -2 -10 4487.45 255.37
4 -2 10 3975.1 255.07
4 -2 10 4392.46 255.47
-4 2 -10 4556.64 255.47
4 2 10 4692.73 255.37
-4 2 -10 3980.5 255.17
-6 -2 -10 826.42 48.5
-6 -2 -10 768.12 48.6
6 -2 10 806.12 49.3
-6 2 -10 768.32 48.9
6 2 10 821.32 48.9
-6 2 -10 768.12 48.8
-8 -2 -10 54.99 8
8 -2 10 66.99 10.1
-8 -2 -10 55.29 8.5
-8 2 -10 62.59 9.3
-8 2 -10 63.69 9.3
8 2 10 78.49 9
-10 2 -10 367.66 24.5
-10 2 -10 324.97 24.3
-12 2 -10 113.79 12.4
-12 2 -10 123.39 12.1
-14 2 -10 9.5 7.7
-14 2 -10 10.2 8.2
-15 -3 10 66.19 11.4
-15 3 10 96.49 15.6
-13 -3 10 138.69 14.7
-13 -3 10 133.79 14.6
-13 3 10 141.09 17.4
11 -3 -10 45.9 12.5
-11 -3 10 77.39 10.1
-11 -3 10 76.49 11.9
-11 3 10 56.39 11.8
-11 3 10 66.49 13.6
-9 -3 10 606.64 39.7
-9 -3 10 620.44 38.7
9 -3 -10 598.64 40.6
9 3 -10 579.14 39.2
-9 3 10 627.24 40.4
-9 3 10 595.24 41
7 -3 -10 181.98 15.8
-7 -3 10 152.68 14.9
-7 -3 10 123.69 14.4
-7 3 10 134.69 15.6
-7 3 10 148.29 14.7
7 3 -10 153.88 14.3
-5 -3 10 417.76 28.8
-5 -3 10 408.16 27.4
5 -3 -10 420.86 29.2
-5 3 10 413.96 28.5
-5 3 10 393.16 29.4
5 3 -10 413.86 28.6
-3 -3 10 3946.21 238.48
-3 -3 10 3827.72 238.18
3 -3 -10 4251.37 238.78
3 3 -10 4152.28 238.48
3 3 -10 4322.27 238.48
-3 3 10 3810.02 238.68
-1 -3 10 25.8 9.9
-1 -3 10 29.6 7.7
1 -3 -10 32.4 9
1 -3 -10 30.6 9.8
-1 3 10 36.7 8.3
-1 3 10 33.6 9.7
1 3 -10 27.4 8.6
1 3 -10 35.1 9.1
1 -3 10 2501.65 145.69
1 -3 10 2364.66 145.39
-1 -3 -10 2600.94 145.59
-1 -3 -10 2302.57 145.39
-1 3 -10 2500.75 145.49
-1 3 -10 2418.46 145.49
1 3 10 2403.06 145.39
1 3 10 2568.74 145.69
3 -3 10 238.48 19.7
-3 -3 -10 253.17 20
-3 -3 -10 274.47 19.7
3 -3 10 242.48 20.6
3 3 10 285.37 20.4
-3 3 -10 254.57 20.1
-3 3 -10 271.07 19.8
3 3 10 239.68 19.6
5 -3 10 1633.74 96.39
-5 -3 -10 1670.63 95.89
-5 -3 -10 1603.64 95.69
-5 3 -10 1428.56 95.79
5 3 10 1666.23 95.89
-5 3 -10 1641.34 96.19
-7 -3 -10 116.99 11.1
-7 -3 -10 108.19 10.9
7 -3 10 108.09 12.3
-7 3 -10 121.99 12.2
7 3 10 135.69 11.5
-7 3 -10 119.09 12
-9 -3 -10 61.49 8.2
-9 -3 -10 75.39 7.8
9 -3 10 55.49 10.5
-9 3 -10 61.79 9.8
-9 3 -10 74.29 10.3
-11 3 -10 308.67 23.7
-11 3 -10 325.07 23.2
-13 3 -10 11 9
-13 3 -10 8.3 8.3
-15 3 -10 94.39 11.2
-16 4 10 94.79 16.4
-14 -4 10 67.89 9.1
-14 -4 10 56.39 11.4
-14 4 10 78.19 14.8
-12 -4 10 -0.6 7.2
-12 -4 10 1 9.7
-12 4 10 6.9 12.1
10 -4 -10 1297.07 80.49
-10 -4 10 1326.57 78.59
-10 -4 10 1347.47 79.29
-10 4 10 1424.06 80.99
10 4 -10 1132.09 82.19
-10 4 10 1272.67 80.19
-8 -4 10 240.38 19.9
8 -4 -10 263.77 23.1
-8 -4 10 297.97 22.3
-8 4 10 275.77 23.9
-8 4 10 254.17 22.4
8 4 -10 274.37 21.5
-6 -4 10 9.2 9.2
6 -4 -10 0.3 9.3
-6 -4 10 3.3 6.6
6 4 -10 3.2 8.6
-6 4 10 8.7 8.1
-6 4 10 5.8 9.2
-4 -4 10 662.73 45.9
4 -4 -10 694.53 46.5
-4 -4 10 718.23 45.2
4 -4 -10 753.82 46.6
-4 4 10 714.93 46
4 4 -10 712.53 45.7
4 4 -10 767.22 45.8
-4 4 10 795.12 47.1
-2 -4 10 651.93 39.4
2 -4 -10 559.24 39.3
2 -4 -10 596.64 39.3
-2 -4 10 558.34 38.1
-2 4 10 558.74 38.6
2 4 -10 623.64 39
2 4 -10 610.54 38.8
-2 4 10 665.63 39.8
0 -4 -10 86.79 11
0 -4 10 73.19 11.3
0 -4 -10 92.79 11.6
0 -4 10 87.29 9.8
0 4 -10 77.69 10.5
0 4 10 81.09 11.9
0 4 -10 99.79 11.3
0 4 10 64.69 10.3
2 -4 10 62.39 9.8
2 -4 10 65.19 10.8
-2 -4 -10 86.79 10.9
-2 -4 -10 95.29 10.6
-2 4 -10 87.19 10.6
2 4 10 71.99 10.8
2 4 10 103.69 10.2
-2 4 -10 69.89 10
-4 -4 -10 665.83 42.1
4 -4 10 731.13 43
4 -4 10 634.54 42.1
-4 -4 -10 633.74 41.9
-4 4 -10 693.13 42.4
-4 4 -10 659.43 42.2
4 4 10 689.33 42.3
-6 -4 -10 537.85 32.4
6 -4 10 498.25 33.5
-6 -4 -10 492.95 32.3
-6 4 -10 454.65 32.8
-6 4 -10 506.35 33.2
6 4 10 527.55 32.5
8 -4 10 11.4 9.2
-8 -4 -10 35.4 6.8
-8 -4 -10 21.6 6.7
8 4 10 30.1 7.7
-8 4 -10 25.4 8.8
-8 4 -10 -2 7.8
10 -4 10 265.87 23.2
-10 4 -10 319.27 22.3
-10 4 -10 283.77 22.7
-12 4 -10 195.78 17.6
-12 4 -10 185.38 18.5
-14 4 -10 168.08 15.2
-16 4 -10 150.58 16
-15 5 10 1.4 13.9
-13 -5 10 732.23 41.4
-13 -5 10 629.94 42.7
-13 5 10 599.34 45.8
-11 -5 10 59.39 11.4
-11 -5 10 77.19 9.7
-11 5 10 78.79 14.6
-11 5 10 80.49 13
9 -5 -10 274.57 25.4
-9 -5 10 311.27 23.7
-9 -5 10 276.97 21.2
9 5 -10 318.77 22.7
-9 5 10 299.07 24.7
-9 5 10 262.77 25.9
7 -5 -10 400.66 28.4
-7 -5 10 355.96 26.8
-7 -5 10 336.77 25.1
7 5 -10 381.56 26.6
-7 5 10 345.97 27.3
-7 5 10 402.26 28.8
-5 -5 10 113.19 11.2
5 -5 -10 103.09 13.5
-5 -5 10 102.59 12.3
5 5 -10 107.79 12
-5 5 10 124.59 14
-5 5 10 118.09 12.7
-1 -5 10 570.74 38.2
1 -5 -10 605.74 39.2
1 -5 -10 606.44 39.5
-1 -5 10 692.63 39.5
1 5 -10 597.64 39
-1 5 10 607.94 39.7
1 5 -10 583.34 39
-1 5 10 569.64 38.9
1 -5 10 1184.18 71.99
-1 -5 -10 1157.98 71.69
-1 -5 -10 1204.28 71.89
1 -5 10 1181.78 71.39
1 5 10 1165.78 71.69
1 5 10 1230.68 72.09
-1 5 -10 1169.38 71.69
-1 5 -10 1151.88 71.69
-3 -5 -10 0.7 7.8
3 -5 10 10.7 7.3
3 -5 10 0.3 8.4
-3 -5 -10 1.2 7.5
-3 5 -10 7.5 8.4
3 5 10 -6.1 8.3
3 5 10 -4.3 7.4
-3 5 -10 -3.3 7.3
-5 -5 -10 99.19 10.9
-5 -5 -10 100.19 10.9
5 -5 10 98.49 12.2
5 5 10 107.29 11
-5 5 -10 98.99 11.5
-5 5 -10 89.89 11.1
-7 -5 -10 384.26 24.6
7 -5 10 354.56 26.8
-7 -5 -10 365.06 24.6
-7 5 -10 342.77 26.1
7 5 10 355.16 24.7
-7 5 -10 369.76 25.9
9 -5 10 543.75 38.5
-9 5 -10 579.84 38.5
-9 5 -10 621.14 37.9
11 -5 10 233.68 22.4
-11 5 -10 271.97 21.6
-11 5 -10 226.38 20.1
-13 5 -10 -1.2 8.9
-15 5 -10 249.28 20.9
-16 6 10 3 23.4
-14 6 10 48.8 15.3
-12 -6 10 993 61.29
-12 -6 10 1032.4 60.19
-12 6 10 933.51 64.09
10 -6 -10 169.08 17.6
-10 -6 10 135.99 15.1
-10 -6 10 143.79 14.1
-10 6 10 164.38 17.2
-10 6 10 129.09 17.1
-8 -6 10 3.4 6.9
-8 -6 10 1.4 9.6
8 -6 -10 16.1 10.7
8 6 -10 -1.6 9
-8 6 10 6 11.2
-8 6 10 -4.4 9
-6 -6 10 1351.36 84.79
-6 -6 10 1364.26 85.49
6 -6 -10 1502.75 86.79
-6 6 10 1388.46 86.69
-6 6 10 1480.35 86.39
6 6 -10 1415.96 85.29
4 -6 -10 25.4 10.3
-4 -6 10 35.9 7.6
-4 -6 10 24.4 8.9
4 -6 -10 36.2 10.3
-4 6 10 31 9.2
-4 6 10 25.3 10.6
4 6 -10 40.7 9.1
-2 -6 10 1239.88 78.59
-2 -6 10 1250.67 77.89
2 -6 -10 1342.77 78.99
2 -6 -10 1272.47 79.09
-2 6 10 1415.96 79.49
2 6 -10 1303.57 78.39
2 6 -10 1217.38 78.29
-2 6 10 1318.37 78.79
0 -6 10 1.8 6.8
0 -6 -10 1 8.4
0 -6 10 -4.1 9.3
0 -6 -10 -1 9.2
0 6 -10 7.1 8.2
0 6 10 -0.7 7.8
0 6 10 9.2 10.1
0 6 -10 -1.1 8.2
-2 -6 -10 1714.03 100.79
2 -6 10 1613.84 100.59
-2 -6 -10 1710.13 100.79
2 -6 10 1734.93 101.19
2 6 10 1523.55 100.59
-2 6 -10 1607.74 100.69
2 6 10 1802.02 101.09
-2 6 -10 1756.22 101.09
-4 -6 -10 1645.24 92.29
4 -6 10 1553.74 93.09
-4 -6 -10 1426.26 91.99
-4 6 -10 1620.54 92.89
-4 6 -10 1355.36 92.29
4 6 10 1643.94 92.49
-6 -6 -10 8.4 7.3
-6 -6 -10 13.5 7.7
6 -6 10 10.1 9.7
6 6 10 31.5 8.5
-6 6 -10 23.1 8.6
-6 6 -10 14.9 8.4
10 -6 10 8.2 10.1
-10 6 -10 7.9 9
-10 6 -10 14.1 9.3
-12 6 -10 102.79 12.4
-14 6 -10 5.3 9.3
-16 6 -10 63.29 11.4
-15 7 10 40.4 15.6
-13 -7 10 203.48 19.9
-13 -7 10 226.08 17
-13 7 10 236.28 23.2
-11 -7 10 318.97 24.3
-11 -7 10 296.47 21.8
-11 7 10 315.17 28.8
9 -7 -10 618.24 41.2
-9 -7 10 573.64 38.9
-9 -7 10 570.84 37.1
-9 7 10 642.84 40.5
9 7 -10 527.15 38.2
-9 7 10 597.94 41.2
-7 -7 10 141.79 15
-7 -7 10 144.39 14.3
7 -7 -10 142.49 16.4
-7 7 10 138.89 17
7 7 -10 153.58 16.2
-7 7 10 170.38 16.5
5 -7 -10 429.46 30.6
-5 -7 10 390.66 27.4
-5 -7 10 434.86 28.7
5 7 -10 428.66 28.5
-5 7 10 377.06 31
-5 7 10 377.66 29.5
3 -7 -10 291.27 23.7
-3 -7 10 250.07 22.3
3 -7 -10 273.97 23.4
-3 -7 10 265.87 20.4
3 7 -10 306.47 22.1
-3 7 10 262.77 22.1
-3 7 10 292.07 24.4
3 7 -10 269.77 21.7
-1 -7 10 146.99 14
1 -7 -10 96.99 13.7
1 -7 -10 122.29 13.2
-1 -7 10 123.19 12.1
-1 7 10 126.79 14.5
1 7 -10 138.99 13.1
1 7 -10 104.09 13.2
-1 7 10 119.99 12.9
-1 -7 -10 4123.79 233.48
-1 -7 -10 3788.42 233.28
1 -7 10 4096.29 233.48
-1 7 -10 3839.62 233.08
-1 7 -10 3953.3 233.28
1 7 10 4102.89 233.48
1 7 10 3781.92 233.18
-3 -7 -10 144.39 16.1
3 -7 10 155.38 15.7
-3 -7 -10 139.49 15.5
3 -7 10 132.49 14.6
-3 7 -10 146.89 16.1
-3 7 -10 156.58 16.3
3 7 10 142.29 14
-5 -7 -10 140.79 14.9
5 -7 10 157.68 15.4
-5 -7 -10 145.09 15.4
-5 7 -10 136.99 14
5 7 10 138.09 13.9
-5 7 -10 158.98 15.1
-7 -7 -10 656.13 42.2
7 -7 10 658.83 44.2
-7 -7 -10 707.13 42.2
-7 7 -10 710.73 44.2
7 7 10 670.93 42.4
-7 7 -10 635.64 43.2
-9 -7 -10 734.23 42.9
-9 -7 -10 694.33 43
9 -7 10 675.43 46
-9 7 -10 743.63 45.9
-9 7 -10 627.44 44.5
-11 7 -10 246.58 21.2
-13 7 -10 0.3 9.5
-15 7 -10 132.79 14.6
-14 8 10 33.5 15.7
-12 -8 10 5.1 6.7
-12 -8 10 13.6 10
-12 8 10 -7.7 13.6
-10 -8 10 1451.65 82.39
-10 -8 10 1353.26 83.19
-10 8 10 1283.37 85.49
-8 -8 10 426.56 30.8
8 -8 -10 496.65 33.5
-8 -8 10 417.16 28.8
-8 8 10 482.95 33.6
8 8 -10 369.76 29.8
-8 8 10 443.16 32.5
-6 -8 10 1235.18 73.79
6 -8 -10 1279.57 75.49
-6 -8 10 1208.48 73.09
-6 8 10 1137.19 75.49
-6 8 10 1213.68 74.99
6 8 -10 1173.78 73.59
4 -8 -10 14.4 10.7
-4 -8 10 6 7
4 -8 -10 1.9 10.1
-4 -8 10 9.2 9.1
-4 8 10 5.5 10.5
4 8 -10 16.6 8.8
-4 8 10 10.8 9
2 -8 -10 562.34 39.3
-2 -8 10 548.95 37.4
2 -8 -10 628.34 39.3
-2 -8 10 600.84 38.8
2 8 -10 595.04 38.6
2 8 -10 536.15 38.2
-2 8 10 598.24 38.8
-2 8 10 607.84 39.8
0 -8 -10 432.56 32.5
0 -8 10 447.76 31.1
0 -8 -10 469.95 32.3
0 -8 10 510.05 32.7
0 8 -10 451.65 31.7
0 8 10 482.45 32.2
0 8 -10 423.26 31.6
0 8 10 487.65 33.1
2 -8 10 222.38 19.4
-2 -8 -10 250.97 20.2
-2 -8 -10 255.87 20.9
2 -8 10 240.28 21.9
-2 8 -10 199.28 20.1
2 8 10 243.68 21.4
2 8 10 245.38 20.4
-2 8 -10 241.38 20.6
-4 -8 -10 235.38 20.4
4 -8 10 223.68 22.4
-4 -8 -10 267.87 20.6
-4 8 -10 255.27 21.1
-4 8 -10 257.57 21.3
4 8 10 246.68 21
-6 -8 -10 541.05 34.6
-6 -8 -10 511.55 34.5
6 -8 10 543.65 36.8
-6 8 -10 515.45 36.3
6 8 10 514.55 34.9
-6 8 -10 543.35 35.6
-8 -8 -10 410.26 28.4
-8 -8 -10 431.86 28.7
8 -8 10 409.26 31.7
-8 8 -10 418.16 31.2
8 8 10 460.75 31.9
-8 8 -10 405.76 30
-10 8 -10 316.57 24
-10 8 -10 276.87 25
-12 8 -10 596.74 39.7
-14 8 -10 32.1 11.1
-15 9 10 37.3 16.2
-13 -9 10 437.66 26.6
-13 -9 10 376.36 28.3
-13 9 10 327.47 34.3
-11 -9 10 40.5 8
-11 -9 10 23.7 10.5
-11 9 10 33.5 14.7
-9 -9 10 1418.06 82.79
-9 -9 10 1286.77 83.49
9 -9 -10 1433.26 85.99
9 9 -10 1346.77 83.29
-9 9 10 1520.95 86.09
-9 9 10 1238.18 85.69
7 -9 -10 636.34 43.6
-7 -9 10 609.64 39.8
-7 -9 10 593.04 41.1
7 9 -10 637.44 40.9
-7 9 10 662.53 43.1
-7 9 10 628.94 43.8
-5 -9 10 120.09 11.9
5 -9 -10 94.39 14.2
-5 -9 10 88.79 12.7
-5 9 10 109.09 13.8
5 9 -10 113.79 13.1
-5 9 10 80.79 14.2
-3 -9 10 202.88 20.7
-3 -9 10 231.38 18.6
3 -9 -10 211.28 21.7
3 -9 -10 236.28 22
-3 9 10 243.68 20.7
-3 9 10 195.78 22.6
3 9 -10 223.68 19.8
1 -9 -10 801.52 54.09
1 -9 -10 860.31 54.39
-1 -9 10 880.51 54.29
-1 -9 10 938.81 53.29
1 9 -10 860.11 53.59
1 9 -10 852.41 53.89
-1 9 10 765.72 54.49
-1 9 10 826.02 53.89
-1 -9 -10 3451.25 209.68
-1 -9 -10 3474.55 209.58
1 -9 10 3532.35 209.78
1 -9 10 3620.74 209.28
1 9 10 3557.94 209.58
1 9 10 3552.14 209.88
-1 9 -10 3609.24 209.78
-1 9 -10 3541.75 209.38
3 -9 10 551.94 36
-3 -9 -10 566.64 35
3 -9 10 483.25 34.6
-3 -9 -10 466.25 34.5
-3 9 -10 470.35 34.8
3 9 10 569.94 35.6
-3 9 -10 502.45 35.1
5 -9 10 1254.87 77.59
-5 -9 -10 1216.28 76.09
-5 -9 -10 1249.88 76.39
5 9 10 1245.18 76.49
-5 9 -10 1292.37 76.79
-5 9 -10 1261.27 77.39
7 -9 10 1095.09 68.99
-7 -9 -10 1058.19 66.89
-7 -9 -10 1151.28 66.89
-7 9 -10 1097.49 68.69
7 9 10 1093.09 67.09
-7 9 -10 1078.29 67.79
-9 -9 -10 147.79 15.4
9 -9 10 179.18 18
-9 -9 -10 156.08 14.9
-9 9 -10 135.99 15.4
-9 9 -10 156.38 17.2
-11 9 -10 633.84 42
-13 9 -10 4.9 10.2
-15 9 -10 117.39 15.2
-14 10 10 35.2 16.5
-12 -10 10 60.09 9
-12 -10 10 67.79 12.2
-12 10 10 66.79 16.8
-10 -10 10 502.05 34.3
-10 -10 10 538.15 36.6
-10 10 10 560.14 40.5
-8 -10 10 4.6 7.4
-8 -10 10 3.7 10.5
8 -10 -10 4.1 12
-8 10 10 8.6 13.4
8 10 -10 -0.9 8.9
-8 10 10 0.7 10.8
-6 -10 10 20.4 8
-6 -10 10 10.2 9.7
6 -10 -10 -3.2 11
-6 10 10 20.7 12.5
-6 10 10 7.6 10.4
6 10 -10 13.7 9.4
-4 -10 10 1.6 7.3
4 -10 -10 4 10.7
-4 -10 10 1.8 9.8
4 10 -10 14.4 9.4
-4 10 10 18.9 12.1
-4 10 10 4.3 9.4
-2 -10 10 125.69 13.5
2 -10 -10 95.79 14.1
2 -10 -10 93.69 13.6
-2 -10 10 92.29 11.2
2 10 -10 97.29 12.3
-2 10 10 85.89 12.6
-2 10 10 90.79 14.5
0 -10 10 140.99 15.6
0 -10 -10 180.28 18.3
0 -10 -10 144.09 15.9
0 -10 10 163.88 16.1
0 10 -10 164.38 15.6
0 10 -10 161.08 17.5
0 10 10 135.59 16.8
0 10 10 160.98 16.3
2 -10 10 6 8.5
-2 -10 -10 5.3 9.6
-2 -10 -10 9.4 9.7
2 -10 10 13.9 10.6
-2 10 -10 9.1 9.3
-2 10 -10 12.7 9.1
2 10 10 2.6 10.5
-4 -10 -10 394.36 27.3
-4 -10 -10 347.07 26.8
4 -10 10 379.86 29.1
4 10 10 375.06 27.8
-4 10 -10 314.37 27.3
-4 10 -10 366.96 28.1
-6 -10 -10 26.8 9.3
6 -10 10 38.6 12.1
-6 -10 -10 33.8 9.8
-6 10 -10 22.2 10.1
6 10 10 21.6 9.7
-6 10 -10 24.8 10.6
-8 -10 -10 102.39 12
8 -10 10 64.09 14.3
-8 -10 -10 83.09 10.8
-8 10 -10 68.89 13.3
8 10 10 82.99 11.5
-8 10 -10 69.49 12.3
-10 -10 -10 128.09 12.2
-10 -10 -10 140.09 14.6
-10 10 -10 121.09 15
-12 10 -10 223.18 21.7
-14 10 -10 1.3 10.5
-15 11 10 37.2 23
-13 -11 10 66.39 12.2
-13 11 10 48.9 17.4
-11 -11 10 24.1 11.3
-11 -11 10 4.5 7.2
-11 11 10 20.4 14.8
-9 -11 10 3683.23 222.58
-9 -11 10 3654.93 223.08
9 11 -10 3962.8 223.18
-9 11 10 3797.82 225.28
7 -11 -10 218.48 21.6
-7 -11 10 179.78 17.3
-7 -11 10 193.78 18
7 11 -10 221.38 18.5
-7 11 10 164.08 20.4
-7 11 10 211.08 22.9
-5 -11 10 254.47 20.1
-5 -11 10 226.88 22.2
5 -11 -10 238.08 24.6
-5 11 10 238.78 26.1
-5 11 10 221.98 23.4
5 11 -10 272.47 21.6
-3 -11 10 36.1 11.3
3 -11 -10 49.2 12.8
3 -11 -10 32.1 12.1
-3 -11 10 41.5 8.6
-3 11 10 26.5 12.5
3 11 -10 35.6 10.7
-3 11 10 46 11.1
1 -11 -10 3995.6 251.47
-1 -11 10 4335.57 251.37
-1 -11 10 4233.48 250.87
1 -11 -10 4472.55 251.87
1 11 -10 4095.59 250.87
-1 11 10 4308.27 251.87
1 11 -10 4401.46 251.37
-1 11 10 4170.58 251.47
1 -11 10 1425.66 92.59
-1 -11 -10 1458.75 92.39
-1 -11 -10 1593.64 92.79
1 -11 10 1602.94 92.09
-1 11 -10 1516.45 92.49
1 11 10 1596.44 93.09
-1 11 -10 1423.76 91.89
-3 -11 -10 76.89 12.6
3 -11 10 74.09 13
-3 -11 -10 76.19 12.4
-3 11 -10 95.69 13
3 11 10 61.59 12.9
-3 11 -10 69.89 12.2
-5 -11 -10 2639.34 157.18
5 -11 10 2588.34 158.38
-5 -11 -10 2713.33 157.68
-5 11 -10 2742.03 158.58
5 11 10 2618.74 157.48
-5 11 -10 2561.44 157.68
7 -11 10 0.7 12
-7 -11 -10 3.4 9.6
-7 -11 -10 5.8 9.1
-7 11 -10 8.6 9.9
7 11 10 10.5 9.6
-7 11 -10 8 10.7
-9 -11 -10 82.99 11.7
-9 -11 -10 81.39 11.2
-9 11 -10 69.39 12.6
-11 11 -10 1982.6 119.69
-13 11 -10 11.5 11.1
-14 -12 10 -7.1 10.3
-14 12 10 17.3 16.6
-12 -12 10 395.56 30.2
-12 12 10 397.56 36.5
-10 -12 10 1014.8 64.19
-10 -12 10 1081.09 62.99
-10 12 10 955.1 67.49
-8 -12 10 17 8.3
-8 -12 10 36.5 11.2
8 -12 -10 -5.7 13.4
-8 12 10 38.7 14
8 12 -10 23.6 10.6
-8 12 10 15.8 13.8
-6 -12 10 41.5 9.3
-6 -12 10 33.2 11.3
6 -12 -10 22.1 13.3
-6 12 10 23.3 11.9
6 12 -10 39.3 10.9
-6 12 10 37.7 13.7
4 -12 -10 339.37 29.5
-4 -12 10 374.76 25.6
-4 -12 10 304.97 27.2
-4 12 10 314.67 29.9
-4 12 10 351.16 28.2
4 12 -10 343.97 26.7
2 -12 -10 392.06 32.7
-2 -12 10 428.76 32.2
-2 -12 10 435.76 30.4
2 -12 -10 429.36 32.5
2 12 -10 404.96 31.2
-2 12 10 475.75 32.5
-2 12 10 456.15 34.3
0 -12 10 43.9 12.2
0 -12 -10 49.5 12.2
0 -12 -10 55.69 11.9
0 -12 10 43.2 9.8
0 12 -10 49.3 11.6
0 12 -10 40.7 10.7
0 12 10 38.7 12.6
-2 -12 -10 220.98 22
2 -12 10 253.17 23.7
2 -12 10 239.48 20.8
-2 -12 -10 208.58 22.1
-2 12 -10 233.38 21.8
-2 12 -10 206.18 22.1
2 12 10 221.38 23.2
-4 -12 -10 405.76 32.3
-4 -12 -10 476.15 33
4 -12 10 459.55 34.4
-4 12 -10 498.25 33.8
-4 12 -10 460.25 33.1
4 12 10 415.76 32.9
6 -12 10 99.89 15.7
-6 -12 -10 92.89 13.8
-6 -12 -10 97.39 13.3
-6 12 -10 107.89 15.5
-6 12 -10 103.59 14.2
6 12 10 105.49 14
-8 -12 -10 1023.8 62.19
-8 -12 -10 1051.09 63.09
8 -12 10 1030 65.59
-8 12 -10 976.9 63.79
8 12 10 945.61 62.69
-10 -12 -10 39.6 10.2
-10 -12 -10 40.6 9.2
-10 12 -10 52.69 12.5
-12 12 -10 509.35 36.6
-14 12 -10 -11.1 10.9
-13 -13 10 836.22 53.09
-13 13 10 811.92 58.39
-11 -13 10 193.58 20.9
-11 13 10 168.38 23
-9 -13 10 28.3 8.9
-9 -13 10 39.4 12.1
-9 13 10 25.1 15.9
-7 -13 10 1032.1 67.79
-7 -13 10 1097.99 67.29
7 -13 -10 1100.59 70.79
7 13 -10 1072.19 67.89
-7 13 10 1141.89 70.69
-7 13 10 1103.69 70.99
5 -13 -10 49 14.3
-5 -13 10 85.29 14.3
-5 -13 10 127.99 13
-5 13 10 56.69 16
5 13 -10 114.59 13.9
-5 13 10 90.59 14.5
-3 -13 10 -4.8 10.5
-3 -13 10 24.4 8.9
3 -13 -10 22.1 12
3 -13 -10 19.9 11.7
-3 13 10 20.3 10.3
-3 13 10 14.9 12.6
3 13 -10 5.8 10
1 -13 -10 8.1 12
-1 -13 10 2.5 10.8
-1 -13 10 3 8.7
1 -13 -10 -8.2 10.4
-1 13 10 -1.8 11.7
-1 13 10 -20.2 9.7
1 13 -10 2.1 9.8
-1 -13 -10 297.47 26.6
-1 -13 -10 301.27 27.1
1 -13 10 351.26 25.4
1 -13 10 323.77 28.1
1 13 10 257.47 27.8
-1 13 -10 314.47 26.9
-1 13 -10 347.87 26.5
-3 -13 -10 128.09 15.4
3 -13 10 103.99 15.7
-3 -13 -10 109.09 14.3
3 13 10 127.99 15.7
-3 13 -10 107.39 14.9
-3 13 -10 125.09 15.4
-5 -13 -10 -11.1 9.6
-5 -13 -10 4.3 10.9
5 -13 10 -2.8 11.7
-5 13 -10 -0.6 10.6
-5 13 -10 -3.2 10.4
5 13 10 5.6 10.9
-7 -13 -10 2465.45 141.59
-7 -13 -10 2431.06 142.29
7 -13 10 2423.26 143.89
-7 13 -10 2379.26 142.59
-7 13 -10 2277.07 143.59
7 13 10 2245.88 141.89
-9 -13 -10 1478.65 88.39
-9 -13 -10 1488.55 89.09
-9 13 -10 1403.66 89.89
-11 -13 -10 237.38 19.1
-11 -13 -10 226.18 20.4
-11 13 -10 213.58 23.6
-13 13 -10 1.6 11.6
-14 -14 10 84.39 13.4
-14 14 10 14.6 18.1
-12 -14 10 206.08 19.7
-12 14 10 201.88 24.6
-10 -14 10 60.39 12.7
-10 14 10 26.5 17.1
-8 -14 10 89.69 14.2
-8 -14 10 79.39 11.9
-8 14 10 71.49 17.2
-6 -14 10 1495.95 97.19
-6 -14 10 1718.93 97.09
6 -14 -10 1491.55 99.39
-6 14 10 1667.63 99.59
-6 14 10 1568.34 99.79
6 14 -10 1626.94 97.29
-4 -14 10 212.28 20.6
4 -14 -10 186.38 21.8
-4 -14 10 217.68 20.2
4 14 -10 211.78 21.3
-4 14 10 185.68 21.9
-4 14 10 243.98 23.2
2 -14 -10 1166.58 77.99
-2 -14 10 1205.88 77.49
-2 -14 10 1434.66 77.09
2 -14 -10 1154.68 78.19
-2 14 10 1215.78 78.99
2 14 -10 1237.18 77.09
-2 14 10 1264.37 77.89
0 -14 -10 170.98 17.9
0 -14 -10 132.99 17.3
0 -14 10 177.88 18.4
0 -14 10 167.68 17.8
0 14 -10 153.98 17.1
0 14 10 121.49 17.8
2 -14 10 154.18 18.5
-2 -14 -10 134.39 17
-2 -14 -10 136.59 17.6
2 -14 10 207.58 19
-2 14 -10 191.58 18.4
2 14 10 189.18 19.1
-2 14 -10 155.38 17.2
-4 -14 -10 50.19 13.2
-4 -14 -10 45.9 12.4
4 -14 10 58.39 14
-4 14 -10 65.79 14
4 14 10 51.69 13.4
-4 14 -10 56.79 12.4
-6 -14 -10 14.2 11.5
6 -14 10 -7.5 12.5
-6 -14 -10 -2.4 10.2
-6 14 -10 4 11
6 14 10 6.7 11.6
-6 14 -10 4.2 11.6
-8 -14 -10 4023.7 234.38
-8 -14 -10 4101.19 233.68
-8 14 -10 3958.3 234.78
8 14 10 3726.63 233.98
-10 -14 -10 123.89 13.8
-10 -14 -10 135.39 15.2
-10 14 -10 100.69 16
-12 -14 -10 -4.7 8.2
-12 -14 -10 -15.8 11.6
-12 14 -10 4.4 12
-14 14 -10 94.69 15.9
-13 -15 10 84.09 14.1
-13 15 10 25.6 18.9
-11 -15 10 252.67 24.3
-11 15 10 228.28 26.9
-9 -15 10 216.28 22.8
-9 15 10 205.58 24.5
7 -15 -10 38.3 15.3
-7 -15 10 41.9 11.6
-7 -15 10 28.5 12.2
-7 15 10 37.6 15.9
-5 -15 10 7.5 9.2
5 -15 -10 1.1 13.2
-5 -15 10 4.5 11.8
-5 15 10 4.9 11.4
5 15 -10 3.9 11.1
-5 15 10 -2.2 13.8
-3 -15 10 41 12.8
3 -15 -10 37.1 13.3
-3 -15 10 60.39 11.4
-3 15 10 56.79 13.1
3 15 -10 50.49 12.6
-3 15 10 51.99 14.7
1 -15 -10 651.13 45.9
-1 -15 10 653.23 45.3
-1 -15 10 749.42 44.3
1 -15 -10 603.34 45.4
-1 15 10 569.24 46.1
1 15 -10 670.83 44.3
-1 -15 -10 1091.69 68.89
1 -15 10 1039.7 68.89
1 -15 10 1116.09 67.49
-1 -15 -10 1108.29 68.59
-1 15 -10 1192.48 71.09
-1 15 -10 998.3 67.79
1 15 10 974.1 68.79
-3 -15 -10 137.99 16
-3 -15 -10 95.39 15.6
3 -15 10 118.99 17.7
-3 15 -10 138.19 15.7
-3 15 -10 123.89 16.4
3 15 10 86.29 16.2
5 -15 10 236.18 23.6
-5 -15 -10 221.28 24.4
-5 -15 -10 263.87 23.7
-5 15 -10 220.58 23.5
5 15 10 233.88 25.1
-5 15 -10 233.68 25.2
-7 -15 -10 21.1 11.4
-7 -15 -10 25.1 12.5
-7 15 -10 11.2 11.6
7 15 10 20.9 13.1
-9 -15 -10 16.4 10.7
-9 15 -10 3.5 12.1
-11 -15 -10 225.78 21.1
-11 15 -10 286.67 26.1
-13 15 -10 -3.7 12.3
-14 -16 10 19.3 13.1
-12 -16 10 57.29 13.9
-12 16 10 59.09 19.2
-10 -16 10 166.88 17.8
-10 16 10 121.29 22.4
-8 -16 10 18.5 12.3
-8 16 10 22.4 16.3
-6 -16 10 77.09 14.2
6 -16 -10 60.59 16.7
-6 16 10 67.39 18
-6 16 10 60.19 16.8
-4 -16 10 280.17 22.8
-4 -16 10 256.67 24.6
4 -16 -10 204.28 23.6
-4 16 10 235.98 26
-4 16 10 183.38 24.6
4 16 -10 276.87 24.5
-2 -16 10 475.65 38.1
2 -16 -10 513.75 39.2
-2 -16 10 497.85 35.9
2 -16 -10 598.34 39.7
2 16 -10 461.05 36.6
-2 16 10 501.55 40.1
0 -16 10 135.99 18.2
0 -16 10 164.28 16.7
0 -16 -10 132.09 17.8
0 -16 -10 129.19 17.6
0 16 10 122.59 18.3
0 16 -10 138.89 16.8
2 -16 10 148.49 18.5
-2 -16 -10 142.79 18.2
-2 -16 -10 125.99 17.6
-2 16 -10 158.28 17.8
2 16 10 104.29 17.9
-2 16 -10 121.89 16.1
-4 -16 -10 1420.06 89.59
-4 -16 -10 1419.76 88.79
4 -16 10 1360.16 90.19
-4 16 -10 1516.25 90.49
4 16 10 1415.26 89.89
-4 16 -10 1485.95 89.19
-6 -16 -10 86.59 15.9
-6 -16 -10 89.09 14.6
6 -16 10 68.79 17
-6 16 -10 63.79 13.8
6 16 10 61.59 18.3
-8 -16 -10 229.68 22.3
-8 16 -10 165.78 19.2
-10 -16 -10 53.19 11.9
-10 16 -10 50.39 14.2
-12 -16 -10 164.48 18.7
-12 16 -10 228.78 21.9
-13 -17 10 110.99 16
-13 17 10 95.79 22.3
-11 -17 10 18.5 12.8
-11 17 10 -6.4 17.8
-9 -17 10 35.5 13
-9 17 10 26.1 18.5
-7 -17 10 328.17 28.1
-7 17 10 294.87 33.6
-5 -17 10 -4.9 11.8
5 -17 -10 -7.9 13.9
5 17 -10 -3.6 16.5
-5 17 10 11.9 15.3
-5 17 10 -1.2 12.2
-3 -17 10 2761.42 151.48
-3 -17 10 2347.67 151.48
3 -17 -10 2459.85 152.58
3 17 -10 2665.43 151.48
-3 17 10 2322.07 152.78
1 -17 -10 537.95 40.2
1 -17 -10 554.74 40.4
-1 -17 10 559.34 40.1
-1 -17 10 493.95 37.5
1 17 -10 492.95 38.4
-1 17 10 536.45 41.7
1 -17 10 6.4 12.9
-1 -17 -10 15.9 12.7
1 -17 10 20.2 11
-1 -17 -10 3.1 12.7
-1 17 -10 -3.1 11.7
1 17 10 -2.2 14
-3 -17 -10 15.7 12.4
-3 -17 -10 21.5 13.2
3 -17 10 26.1 14.6
-3 17 -10 43.1 14.2
3 17 10 46.4 15.5
-3 17 -10 38.8 12.3
5 -17 10 249.58 26.5
-5 -17 -10 269.57 26.3
-5 17 -10 315.07 30
-5 17 -10 275.37 26.4
-7 -17 -10 0.5 11.7
-7 17 -10 1.6 11.9
-9 -17 -10 52.39 13.1
-9 17 -10 32.7 13.9
-11 -17 -10 11.5 10.6
-11 17 -10 0.3 13.3
-13 -17 -10 -9.6 9.6
-13 17 -10 -10.6 13.3
-12 -18 10 167.78 18.3
-12 18 10 125.49 24
-10 -18 10 41.8 14.4
-10 18 10 47.5 19.4
-8 -18 10 440.16 34.3
-8 18 10 442.06 40.9
-6 -18 10 89.69 15.8
6 -18 -10 73.39 18.9
-6 18 10 47.6 17.7
-4 -18 10 10.4 13
4 -18 -10 -5.6 14.3
-4 18 10 7.1 13.3
-4 18 10 -15 15.3
4 18 -10 16.7 17.7
2 -18 -10 1752.92 112.49
-2 -18 10 2063.59 111.59
-2 -18 10 1757.82 111.69
2 -18 -10 1887.21 112.99
2 18 -10 1874.91 111.49
-2 18 10 1550.54 112.49
0 -18 -10 196.88 21.8
0 -18 10 220.88 22.2
0 -18 -10 174.68 21.4
0 -18 10 179.18 21
0 18 10 165.78 22.1
0 18 -10 203.88 20.3
-2 -18 -10 34 13.9
2 -18 10 32.7 14.7
-2 -18 -10 13.4 13.7
2 18 10 40.4 16.2
-2 18 -10 19.7 12.5
4 -18 10 145.09 20.2
-4 -18 -10 153.58 18.5
-4 18 -10 184.18 19.5
-4 18 -10 140.19 19.4
-6 -18 -10 347.47 30.4
-6 18 -10 358.56 30.8
-8 -18 -10 95.29 15.2
-8 18 -10 70.39 15.5
-10 -18 -10 47.3 13.3
-10 18 -10 59.19 15
-12 -18 -10 1.7 10.8
-12 18 -10 2.2 14.3
-13 19 10 -4.1 18.8
-11 -19 10 297.17 27.4
-11 19 10 260.27 30.5
-9 -19 10 430.66 33.1
-9 19 10 352.56 39.4
-7 -19 10 77.89 15.6
-7 19 10 54.69 18.2
-5 -19 10 152.48 18.5
5 -19 -10 142.59 21.4
-5 19 10 112.29 21.8
3 -19 -10 6.3 14.4
-3 -19 10 14.2 13.8
-3 19 10 25.4 16.7
-1 -19 10 31.1 14.7
1 -19 -10 23.1 14.7
1 -19 -10 3.6 14.3
-1 19 10 9.7 16
1 19 -10 21.9 13.6
-1 -19 -10 3649.44 215.08
1 -19 10 3432.16 215.08
-1 19 -10 3652.63 214.58
1 19 10 3634.64 216.08
-3 -19 -10 28.6 13.8
3 -19 10 -16.6 14.6
-3 19 -10 3 12.6
-5 -19 -10 283.17 27.1
5 -19 10 250.17 26.2
-5 19 -10 220.08 23.7
-7 -19 -10 37.9 13.9
-7 19 -10 10.7 13.1
-9 -19 -10 176.68 18.8
-9 19 -10 142.29 19.4
-11 -19 -10 123.29 16.2
-11 19 -10 117.59 18.1
-12 20 10 337.47 35.7
-10 -20 10 24.2 14.1
-10 20 10 23.1 20
-8 -20 10 -5.6 13.1
-8 20 10 -13.4 17.5
-6 -20 10 204.88 21.7
-6 20 10 157.28 24.3
-4 -20 10 10.3 14
4 -20 -10 -0.1 16.2
-4 20 10 15 17.3
2 -20 -10 -3.5 15.1
-2 -20 10 5.3 14.5
-2 20 10 1.5 17
0 -20 10 1470.25 96.49
0 -20 -10 1451.75 96.49
0 20 -10 1758.02 96.49
0 20 10 1449.76 98.29
2 -20 10 393.06 37.2
-2 -20 -10 470.95 36.4
-2 20 -10 414.96 35.1
4 -20 10 200.88 23.9
-4 -20 -10 184.78 21.6
-4 20 -10 224.48 22.6
-6 -20 -10 110.19 17.1
-6 20 -10 84.69 16.5
-8 -20 -10 4.5 12.9
-8 20 -10 20.2 14.2
-10 -20 -10 51.69 14.2
-10 20 -10 35.3 15
-12 20 -10 212.18 23.9
-11 -21 10 21.3 14.6
-11 21 10 28.5 20.8
-9 -21 10 37.6 14.8
-9 21 10 66.19 20.7
-7 -21 10 15.3 14.3
-7 21 10 -4.8 18.3
-5 -21 10 -9.6 13.9
-5 21 10 13.8 18.4
-3 -21 10 212.18 23.3
3 -21 -10 227.48 25.7
-3 21 10 166.78 25.5
1 -21 -10 220.98 24.9
-1 -21 10 250.77 25.1
-1 21 10 203.68 27
-3 -21 -10 107.29 17.8
3 -21 10 63.99 18.5
-3 21 -10 59.59 15.9
-5 -21 -10 4.9 14.1
-5 21 -10 -16.7 12.7
-7 -21 -10 1.3 13.9
-7 21 -10 -7.3 13.3
-9 -21 -10 3.4 13.5
-9 21 -10 4.6 13.8
-11 -21 -10 111.89 16.6
-11 21 -10 104.89 18.8
-12 22 10 6.8 21.2
-10 -22 10 24.2 15.1
-10 22 10 -3.6 20.1
-8 -22 10 40.9 15.4
-8 22 10 5.8 19.9
-6 -22 10 109.59 18.2
-6 22 10 114.49 23
-4 -22 10 16.7 15.6
4 -22 -10 -1.9 16.7
-4 22 10 -10.8 17.7
-2 -22 10 639.94 49.3
2 -22 -10 724.33 51.29
-2 22 10 644.94 52.59
0 -22 10 326.67 33.8
0 -22 -10 349.96 34
-2 -22 -10 229.18 25.8
2 -22 10 263.87 27.6
-2 22 -10 260.37 28.7
-4 -22 -10 267.97 30
-4 22 -10 284.27 29.7
-6 -22 -10 71.19 16.9
-6 22 -10 75.89 16.8
-8 -22 -10 14.3 13.9
-8 22 -10 -4.1 14.5
-10 -22 -10 22.6 14.2
-10 22 -10 -6.4 14.4
-11 23 10 -10 21.4
-9 -23 10 237.28 24.1
-9 23 10 186.88 28.4
-7 -23 10 96.49 18.2
-7 23 10 62.99 22.6
-5 -23 10 23.9 15.6
-5 23 10 24 19.1
3 -23 -10 40.6 18.6
-3 -23 10 35.3 16.6
-3 23 10 26.5 19
-1 -23 10 214.48 24.9
1 -23 -10 245.58 26.3
-1 -23 -10 463.75 40.3
1 -23 10 484.45 41.5
3 -23 10 9.4 18.2
-3 -23 -10 61.79 17.7
-3 23 -10 77.69 17.7
-5 -23 -10 453.55 39.1
-5 23 -10 478.65 39.1
-7 -23 -10 -5.1 14.5
-7 23 -10 -1.3 14.4
-9 -23 -10 -14 14
-9 23 -10 -6.6 14.9
-11 23 -10 254.87 27.1
-10 24 10 82.19 24.7
-8 -24 10 145.49 21.1
-8 24 10 151.08 26.8
-6 -24 10 35.8 16.5
-6 24 10 26.5 21.5
-4 -24 10 -6.3 16.1
2 -24 -10 853.21 59.39
-2 -24 10 738.03 56.49
0 -24 -10 28.5 17.2
0 -24 10 7.9 17.1
2 -24 10 24 18.5
-2 -24 -10 13.9 16.5
-4 -24 -10 13 16
-4 24 -10 9.7 15.3
-6 -24 -10 156.98 21.6
-6 24 -10 169.78 22.3
-8 -24 -10 35.4 16
-8 24 -10 48.3 17.5
-10 24 -10 78.19 19.4
-11 25 10 12 22.4
-9 25 10 -20.8 21.8
-7 -25 10 -1.7 15.7
-7 25 10 11.3 21.7
-5 -25 10 28.4 17.3
-3 -25 10 579.54 46.1
1 -25 -10 30.8 18.7
-1 -25 10 22 17.7
1 -25 10 48.3 19.9
-1 -25 -10 71.69 19.3
-3 -25 -10 6.7 16.3
-5 -25 -10 29.4 17.1
-5 25 -10 42.9 17.3
-7 -25 -10 88.89 18.3
-7 25 -10 107.19 19.9
-9 25 -10 118.19 21.1
-11 25 -10 -2 28.8
-10 26 10 5.1 23
-8 -26 10 8.4 18.8
-8 26 10 23.4 23.6
-6 -26 10 46.3 17.9
-4 -26 10 -16.4 16.1
2 -26 -10 251.87 30.5
-2 -26 10 321.67 34.3
0 -26 -10 407.46 39.1
0 -26 10 338.47 38.7
-2 -26 -10 201.08 25.5
-4 -26 -10 95.29 21.1
-6 -26 -10 -43.5 15.3
-6 26 -10 -11.7 15.8
-8 26 -10 640.24 49.99
-10 26 -10 18.4 17.5
-9 27 10 67.09 25.4
-7 -27 10 32 18.1
-5 -27 10 74.89 19.6
-3 -27 10 28 18.1
-1 -27 10 50.79 19.5
1 -27 -10 48.6 21.1
-1 -27 -10 344.87 35.9
1 -27 10 267.27 32.4
-3 -27 -10 31.6 18.2
-5 -27 -10 32 17.6
-6 -28 10 197.78 25.1
-4 -28 10 -1.8 18.2
-2 -28 10 72.89 21.1
0 -28 -10 -6.7 19
0 -28 10 -1.4 19.6
-2 -28 -10 -1.9 17.3
-4 -28 -10 10.6 17.7
-6 -28 -10 36 17
-10 28 -10 0.7 21.3
-5 -29 10 15 18.6
-3 -29 10 20.7 19.4
1 -29 -10 42.3 21.5
-1 -29 10 39.6 20.5
-1 -29 -10 4.9 18.8
-3 -29 -10 53.09 20.7
-5 -29 -10 17.3 18.3
-4 -30 10 49.6 20.7
-2 -30 10 49.7 21
0 -30 -10 -2.4 19.6
-2 -30 -10 -4.4 18.5
-4 -30 -10 110.19 21.9
-3 -31 10 -7.8 20.4
-1 -31 10 120.89 25.5
-1 -31 -10 118.49 24.9
-3 -31 -10 -15.5 18.2
-2 -32 10 12.2 21.6
-2 -32 -10 22.5 20.7
-1 -33 -10 12.7 21.9
-16 0 11 5.3 11.8
-14 0 11 9.6 11.6
-12 0 11 53.19 11.1
-12 0 11 38.1 12.3
-10 0 11 2.8 10.5
10 0 -11 -11.7 9.3
-10 0 11 2.1 8.5
8 0 -11 -11.6 8.6
-8 0 11 -2.6 9.8
-8 0 11 -5.7 8.1
6 0 -11 -10.2 8.5
-6 0 11 -2 7.7
-6 0 11 8.4 9.3
4 0 -11 0 8.4
4 0 -11 -5.8 8.9
-4 0 11 -9.1 8.8
-4 0 11 -3.9 7.2
-2 0 11 -2.6 7.1
-2 0 11 -4 9.5
2 0 -11 -7.6 8.9
2 0 -11 -5.8 9.2
0 0 -11 -7.1 8.4
0 0 11 16.1 9.5
0 0 11 2.2 7.9
0 0 -11 4.9 9.1
2 0 11 8.8 9.2
-2 0 -11 -5 7.4
-2 0 -11 -2.3 8.9
2 0 11 -10.9 7.6
-4 0 -11 1.1 6.8
-4 0 -11 5.3 7.7
4 0 11 -1.4 6.9
4 0 11 7.8 8.5
-6 0 -11 -3.6 7.4
-6 0 -11 8 6.8
6 0 11 -8.5 7.8
-8 0 -11 6.5 7
8 0 11 2.1 8.2
-8 0 -11 0 7.4
-10 0 -11 3.8 7.5
-10 0 -11 5.7 6.9
-12 0 -11 0.1 7
-15 -1 11 8.1 10.8
-15 1 11 1.2 12
-13 -1 11 112.59 14.9
-13 1 11 127.39 16
-11 -1 11 1345.07 82.29
11 -1 -11 1401.06 82.59
-11 -1 11 1394.96 81.69
-11 1 11 1297.57 82.09
-11 1 11 1278.67 82.49
-9 -1 11 221.88 19
-9 -1 11 210.58 18.6
9 -1 -11 177.78 20
-9 1 11 205.88 21
-9 1 11 202.48 19.2
9 1 -11 203.38 19.1
-7 -1 11 19.4 8.3
-7 -1 11 7.1 9.5
7 -1 -11 20.3 9.2
-7 1 11 16.6 8.2
-7 1 11 35.7 10.3
7 1 -11 28.3 9.4
5 -1 -11 113.49 12.7
-5 -1 11 100.69 12.5
-5 -1 11 95.29 11.1
-5 1 11 90.19 11.1
5 1 -11 92.19 12.4
-5 1 11 112.69 12.9
3 -1 -11 614.44 39.4
-3 -1 11 592.74 38.4
-3 -1 11 607.44 39.4
3 -1 -11 578.84 39.3
3 1 -11 602.44 39.1
3 1 -11 629.14 39.3
-3 1 11 583.74 38.5
-3 1 11 596.54 39.4
-1 -1 11 38.6 11.1
1 -1 -11 18.7 9.2
1 -1 -11 15.2 9.2
-1 -1 11 33.1 8.4
1 1 -11 24.2 8.7
-1 1 11 32.5 10.1
1 1 -11 33.1 9.7
-1 1 11 41 8.8
1 -1 11 3516.25 199.18
-1 -1 -11 3245.68 198.88
1 -1 11 3147.29 198.78
-1 -1 -11 3435.36 199.08
-1 1 -11 3375.76 198.98
-1 1 -11 3540.85 199.08
1 1 11 3592.74 199.28
1 1 11 3149.68 198.78
3 -1 11 71.09 9.8
3 -1 11 86.89 10.8
-3 -1 -11 47.1 9.2
-3 -1 -11 73.79 10
-3 1 -11 52.79 9.4
3 1 11 70.39 9.6
3 1 11 60.59 10.8
-3 1 -11 53.59 9.7
5 -1 11 -10.5 8
-5 -1 -11 4.7 6.7
-5 -1 -11 -6.3 7.5
-5 1 -11 4.9 7.3
5 1 11 7 8.3
-5 1 -11 3.7 6.9
-7 -1 -11 396.06 26.6
7 -1 11 395.06 27.7
-7 -1 -11 363.26 26.8
-7 1 -11 407.36 26.9
7 1 11 418.16 27.6
-7 1 -11 426.96 27.3
-9 -1 -11 1879.61 109.49
-9 -1 -11 1891.01 109.49
9 -1 11 1797.22 109.99
-9 1 -11 1833.32 109.69
-9 1 -11 1819.62 109.79
-11 -1 -11 236.08 17.8
-11 -1 -11 244.68 17.5
-11 1 -11 221.38 18.6
-11 1 -11 224.58 18.5
-13 1 -11 13 7.7
-16 2 11 13.2 12.9
-14 -2 11 103.59 13.9
-14 2 11 89.49 15.5
-12 -2 11 2458.55 140.79
-12 -2 11 2400.36 141.19
-12 2 11 2232.48 141.79
-10 -2 11 174.58 18
10 -2 -11 197.08 20.6
-10 -2 11 221.18 20.2
-10 2 11 199.98 19.4
10 2 -11 197.28 19
-10 2 11 210.78 21.7
-8 -2 11 37.2 10.8
8 -2 -11 29.8 10.6
-8 -2 11 11.6 8.3
8 2 -11 25.8 9.5
-8 2 11 37.6 9.7
-8 2 11 22.2 10.7
-6 -2 11 935.91 55.49
-6 -2 11 875.41 56.09
6 -2 -11 934.01 56.39
-6 2 11 898.91 55.99
6 2 -11 903.21 55.89
-6 2 11 842.72 56.29
4 -2 -11 158.78 15
4 -2 -11 129.09 14.3
-4 -2 11 150.28 14.8
-4 -2 11 141.49 14.9
4 2 -11 148.19 14.3
-4 2 11 164.58 15.6
-4 2 11 136.79 13.6
4 2 -11 155.58 16.7
2 -2 -11 974.8 58.89
-2 -2 11 1014.1 59.09
2 -2 -11 945.01 58.89
-2 -2 11 918.51 58.09
2 2 -11 978.7 58.89
-2 2 11 962.2 59.09
2 2 -11 914.61 58.69
-2 2 11 901.61 58.29
0 -2 -11 1792.92 102.19
0 -2 11 1595.54 101.79
0 -2 -11 1648.44 102.19
0 -2 11 1750.82 102.39
0 2 -11 1733.13 102.09
0 2 -11 1720.33 102.09
0 2 11 1832.12 102.49
0 2 11 1586.84 101.89
-2 -2 -11 6.5 7.9
-2 -2 -11 10.3 8.2
2 -2 11 3.9 7.5
2 -2 11 3.6 8.5
2 2 11 3.6 7.9
-2 2 -11 1.2 7.9
-2 2 -11 8.2 7.5
2 2 11 5.9 9.4
4 -2 11 2495.85 152.88
4 -2 11 2758.82 153.38
-4 -2 -11 2606.74 153.08
-4 -2 -11 2472.95 152.88
4 2 11 2606.34 152.98
-4 2 -11 2649.33 153.18
-4 2 -11 2660.53 153.08
4 2 11 2458.45 152.98
-6 -2 -11 44.3 8.8
6 -2 11 46.1 9.3
-6 -2 -11 54.99 8.1
-6 2 -11 38.9 8.5
6 2 11 45.3 8.9
-6 2 -11 29.3 8.6
-8 -2 -11 91.89 9.6
8 -2 11 93.59 11
-8 -2 -11 67.29 9.5
-8 2 -11 71.59 10.3
8 2 11 75.69 10.2
-8 2 -11 82.19 10.3
-10 -2 -11 184.68 15.4
-10 -2 -11 210.68 16
-10 2 -11 191.18 17.4
-10 2 -11 199.48 17.4
-12 2 -11 28.1 8.6
-12 2 -11 13.2 8.4
-14 2 -11 178.38 16.3
-15 -3 11 352.86 27.2
-15 3 11 367.06 30.3
-13 -3 11 216.38 18.3
-13 -3 11 200.48 20.5
-13 3 11 193.28 21
-11 -3 11 34.4 11.1
-11 -3 11 27.1 8.8
-11 3 11 24.2 10.7
-11 3 11 30.6 12.7
9 -3 -11 2127.29 134.29
-9 -3 11 2294.47 133.69
-9 -3 11 2247.28 133.29
9 3 -11 2262.67 133.49
-9 3 11 2293.57 134.59
-9 3 11 2220.68 134.19
-7 -3 11 425.86 29.3
7 -3 -11 399.86 29.8
-7 -3 11 386.96 27.7
-7 3 11 393.46 30.2
-7 3 11 420.36 29.2
7 3 -11 411.06 28.8
5 -3 -11 176.58 18.1
-5 -3 11 163.88 15.5
-5 -3 11 166.68 15.5
-5 3 11 190.78 16.6
5 3 -11 164.88 17.2
-5 3 11 145.09 16.5
-3 -3 11 3109.49 177.08
3 -3 -11 3161.78 177.18
-3 -3 11 2748.43 176.58
3 -3 -11 2912.71 177.08
-3 3 11 2953.6 177.28
3 3 -11 2982.8 176.78
3 3 -11 3097.39 176.88
-3 3 11 2970.1 176.98
-1 -3 11 234.38 19.9
1 -3 -11 204.88 18.5
1 -3 -11 181.38 19.2
-1 -3 11 186.78 17.5
-1 3 11 213.68 18
-1 3 11 219.08 20.4
1 3 -11 217.38 18.7
1 3 -11 194.08 18.7
-1 -3 -11 -6.1 7.6
1 -3 11 4 7.6
1 -3 11 0.3 8.3
-1 -3 -11 8.2 8.6
1 3 11 16.9 8.4
-1 3 -11 15 8
-1 3 -11 13.1 8.8
1 3 11 -1.9 9.1
3 -3 11 98.59 12.6
-3 -3 -11 110.89 12.2
-3 -3 -11 100.59 11.8
3 -3 11 126.79 14.2
-3 3 -11 125.39 12.5
3 3 11 105.89 12.4
3 3 11 130.49 12.2
-3 3 -11 128.39 12.4
5 -3 11 1911.41 110.79
-5 -3 -11 1786.62 110.19
-5 -3 -11 1902.71 110.39
-5 3 -11 1873.51 110.69
-5 3 -11 1718.43 110.29
5 3 11 1935.51 110.49
-7 -3 -11 207.98 16.2
-7 -3 -11 185.18 15.6
7 -3 11 173.38 17.8
7 3 11 187.68 16.5
-7 3 -11 204.98 17.2
-7 3 -11 162.38 16.9
-9 -3 -11 151.68 13.5
9 -3 11 158.78 16.8
-9 -3 -11 153.38 14.1
-9 3 -11 152.28 15.7
-9 3 -11 143.99 15.9
-11 3 -11 108.69 12.3
-11 3 -11 101.99 12
-13 3 -11 8 8.2
-13 3 -11 7 10.1
-15 3 -11 51.59 9.8
-16 4 11 88.59 16.3
-14 -4 11 30.2 10.4
-14 4 11 -3.3 12.9
-12 -4 11 125.49 14.7
-12 -4 11 141.89 13.4
-12 4 11 127.29 17
10 -4 -11 81.19 13.9
-10 -4 11 68.89 12.5
-10 -4 11 101.49 11.1
-10 4 11 91.79 13.7
-10 4 11 86.09 14.7
10 4 -11 90.99 11.9
-8 -4 11 1950.6 110.99
-8 -4 11 1762.12 110.29
8 -4 -11 1774.22 111.59
8 4 -11 1850.81 110.69
-8 4 11 1968.8 111.69
-8 4 11 1789.42 111.69
-6 -4 11 10.3 7.8
-6 -4 11 8.7 9.5
6 -4 -11 -0.4 9.4
-6 4 11 12.2 8.5
6 4 -11 15.3 8.9
-6 4 11 1.6 10.1
4 -4 -11 272.77 24.2
-4 -4 11 291.57 21.8
4 -4 -11 308.97 24.2
-4 -4 11 307.47 23.7
4 4 -11 342.57 25.5
4 4 -11 315.17 22.9
-4 4 11 335.57 24.9
-4 4 11 262.57 22.9
2 -4 -11 618.44 39.6
-2 -4 11 539.25 38.1
2 -4 -11 684.43 39.6
-2 -4 11 618.24 39.4
2 4 -11 505.25 38.7
2 4 -11 632.44 39.2
-2 4 11 679.43 40.2
-2 4 11 551.44 38.8
0 -4 -11 13.7 9.5
0 -4 -11 22.2 8.5
0 -4 11 29.5 7.8
0 -4 11 18.4 9.8
0 4 11 26 9.7
0 4 11 18.2 8.7
0 4 -11 31.7 9.5
0 4 -11 26.7 8.6
2 -4 11 400.86 27.8
-2 -4 -11 385.86 27.4
2 -4 11 394.26 26.8
-2 -4 -11 396.46 26.8
-2 4 -11 390.36 27
2 4 11 355.36 27.7
2 4 11 381.56 26.8
-2 4 -11 382.26 27.5
-4 -4 -11 673.93 40.3
4 -4 11 664.83 41.1
-4 -4 -11 626.74 40.2
4 4 11 686.43 40.7
-4 4 -11 642.54 40.6
-4 4 -11 521.75 40.4
-6 -4 -11 3515.65 199.78
6 -4 11 3464.15 200.48
-6 -4 -11 3450.25 199.88
-6 4 -11 3074.89 199.88
-6 4 -11 3354.36 200.38
6 4 11 3495.65 199.88
-8 -4 -11 1317.97 81.49
8 -4 11 1368.36 82.89
-8 -4 -11 1425.86 81.59
8 4 11 1387.36 81.69
-8 4 -11 1385.16 82.79
-8 4 -11 1303.47 82.29
10 -4 11 26.6 9.9
-10 4 -11 6.5 8.7
-10 4 -11 18.2 8.8
-12 4 -11 5 9.4
-12 4 -11 34.7 9.3
-14 4 -11 37.9 9.9
-16 4 -11 162.48 17
-15 5 11 238.58 26.6
-13 -5 11 380.06 24.9
-13 -5 11 348.57 27.1
-13 5 11 316.27 30.7
-11 -5 11 697.03 47.4
-11 -5 11 785.32 46.4
-11 5 11 727.43 49.6
-9 -5 11 126.19 12.6
9 -5 -11 109.19 15.4
-9 -5 11 130.89 14.7
9 5 -11 119.79 13.5
-9 5 11 110.99 16.1
-9 5 11 124.19 15.2
-7 -5 11 18.2 10.3
7 -5 -11 26.5 10.6
-7 -5 11 32.9 7.9
7 5 -11 12.9 9.4
-7 5 11 11.8 11.5
-7 5 11 4.3 9.4
-5 -5 11 891.91 55.49
5 -5 -11 826.52 56.29
-5 -5 11 849.22 54.59
-5 5 11 923.41 56.49
-5 5 11 960.9 56.09
5 5 -11 879.41 55.19
3 -5 -11 2036.6 118.99
3 -5 -11 1954.4 118.99
-3 -5 11 1931.41 118.09
-3 -5 11 1965.8 118.59
-3 5 11 2031.9 118.89
3 5 -11 1943.11 118.39
3 5 -11 1896.31 118.39
-3 5 11 2128.09 119.39
-1 -5 11 622.04 39.7
1 -5 -11 591.74 39.5
1 -5 -11 576.64 39.8
-1 -5 11 587.34 38.3
-1 5 11 621.64 40.1
1 5 -11 600.84 39.2
-1 5 11 598.04 39.2
1 5 -11 617.34 39.2
-1 -5 -11 963.1 56.79
1 -5 11 861.81 56.29
-1 -5 -11 891.41 56.89
1 -5 11 903.81 57.19
-1 5 -11 894.71 56.79
1 5 11 895.91 56.69
1 5 11 973.2 57.29
-1 5 -11 957 56.79
-3 -5 -11 1116.29 73.49
-3 -5 -11 1264.17 73.69
3 -5 11 1163.68 73.59
3 -5 11 1253.57 74.29
3 5 11 1265.27 73.59
-3 5 -11 1222.58 73.99
-3 5 -11 1207.98 73.79
3 5 11 1236.08 73.89
-5 -5 -11 288.37 22.3
5 -5 11 301.27 24.1
-5 -5 -11 295.47 22.3
-5 5 -11 333.17 23.2
-5 5 -11 317.27 23.2
5 5 11 298.87 22.7
7 -5 11 384.26 29.5
-7 -5 -11 391.96 27.6
-7 -5 -11 444.06 27.7
-7 5 -11 396.36 29
-7 5 -11 436.56 28.8
7 5 11 416.16 27.9
-9 -5 -11 555.64 34.4
9 -5 11 527.95 36.9
-9 -5 -11 538.65 34.3
-9 5 -11 586.74 36.1
-9 5 -11 513.85 36.5
-11 5 -11 117.89 14.3
-11 5 -11 129.49 13.7
-13 5 -11 328.47 24.8
-15 5 -11 304.17 23.9
-14 -6 11 29.5 10.5
-14 6 11 47.5 15.2
-12 -6 11 910.61 51.69
-12 -6 11 754.82 52.59
-12 6 11 829.62 55.79
-10 -6 11 226.18 17.9
10 -6 -11 227.28 21.3
-10 -6 11 174.78 20.7
-10 6 11 223.48 24.2
10 6 -11 202.08 21.3
-10 6 11 250.37 22.9
-8 -6 11 -6.5 9.9
-8 -6 11 4.3 7.2
8 -6 -11 -7.9 10.4
8 6 -11 5.6 9.1
-8 6 11 -10.8 11.1
-8 6 11 21.8 10
6 -6 -11 251.07 22
-6 -6 11 222.58 20.1
-6 -6 11 193.08 17.6
-6 6 11 222.68 20.6
6 6 -11 219.78 19.3
-6 6 11 229.18 22.6
4 -6 -11 93.89 13.2
4 -6 -11 138.09 14.3
-4 -6 11 129.59 12
-4 -6 11 87.69 12.4
4 6 -11 110.09 12.5
-4 6 11 98.79 13.6
-4 6 11 110.89 12.7
-2 -6 11 14.6 9.8
2 -6 -11 16.3 10.1
-2 -6 11 30.6 7.4
2 -6 -11 -0.6 9.3
-2 6 11 25.4 9.3
2 6 -11 8.8 8.9
2 6 -11 13.7 8.8
-2 6 11 10.3 10.4
0 -6 -11 933.91 52.69
0 -6 -11 853.81 52.69
0 -6 11 781.32 51.59
0 -6 11 858.61 52.69
0 6 -11 800.42 52.29
0 6 -11 808.72 52.19
0 6 11 872.51 52.99
0 6 11 766.42 52.19
-2 -6 -11 800.72 51.49
-2 -6 -11 832.62 51.29
2 -6 11 858.01 51.99
2 -6 11 782.02 51.19
2 6 11 820.72 51.29
-2 6 -11 811.32 51.49
2 6 11 857.91 51.79
-2 6 -11 806.12 51.49
4 -6 11 808.32 51.99
-4 -6 -11 801.62 50.99
-4 -6 -11 880.51 51.29
-4 6 -11 798.92 51.59
4 6 11 858.21 51.39
-4 6 -11 779.52 51.29
-6 -6 -11 41.1 8.9
6 -6 11 39.7 10.7
-6 -6 -11 54.69 9.1
-6 6 -11 51.79 10.1
-6 6 -11 26.6 9.5
6 6 11 52.69 9.7
-8 -6 -11 50.99 8.8
-8 -6 -11 64.19 9.2
8 -6 11 57.39 11.6
-8 6 -11 48.3 10.4
-8 6 -11 39.1 10.7
8 6 11 60.49 9.5
10 -6 11 690.93 46.7
-10 6 -11 712.73 46.5
-10 6 -11 734.03 45.6
-12 6 -11 14.5 9.3
-14 6 -11 272.77 22.8
-16 6 -11 21.1 10.2
-15 7 11 60.39 17.5
-13 -7 11 75.59 9.8
-13 -7 11 93.19 12.7
-13 7 11 55.99 16.4
-11 -7 11 69.39 12.4
-11 -7 11 103.89 10.5
-11 7 11 57.19 15
-9 -7 11 22.9 7.9
-9 -7 11 15.1 10.8
9 -7 -11 10.2 12
9 7 -11 29 10.1
-9 7 11 23.8 10.9
-9 7 11 17.9 12.8
-7 -7 11 320.87 24.9
7 -7 -11 314.87 26.6
-7 -7 11 281.97 22.4
-7 7 11 331.27 27.6
-7 7 11 324.17 25.6
7 7 -11 303.37 23.8
5 -7 -11 3543.85 215.48
-5 -7 11 3740.43 214.28
-5 -7 11 3656.43 214.58
-5 7 11 3598.64 215.58
-5 7 11 3524.75 215.28
5 7 -11 3726.13 214.58
-3 -7 11 134.69 14.6
3 -7 -11 168.18 16.2
3 -7 -11 164.78 16.4
-3 -7 11 174.78 15.1
-3 7 11 162.28 17.4
3 7 -11 172.98 16.9
3 7 -11 149.09 15
-3 7 11 120.49 15.4
-1 -7 11 54.69 8.9
-1 -7 11 36.4 10.7
1 -7 -11 53.69 11.6
1 -7 -11 49.1 10.6
1 7 -11 62.79 10.5
1 7 -11 44.6 10.2
-1 7 11 63.19 10.6
-1 7 11 61.69 11.8
-1 -7 -11 343.47 25.9
1 -7 11 348.17 25.9
1 -7 11 340.57 24.4
-1 -7 -11 298.47 24.7
1 7 11 338.97 25.4
1 7 11 316.17 26.2
-1 7 -11 329.67 25.1
-1 7 -11 334.37 24.8
-3 -7 -11 2894.51 170.98
3 -7 11 2812.02 171.28
-3 -7 -11 2934.21 170.88
3 -7 11 2774.52 170.78
3 7 11 2980.7 171.08
-3 7 -11 2776.32 170.88
-3 7 -11 3014.7 171.38
5 -7 11 67.89 11.9
-5 -7 -11 68.49 10.7
-5 -7 -11 71.99 10.5
-5 7 -11 67.49 11
5 7 11 93.09 11.7
-5 7 -11 66.59 11.2
-7 -7 -11 1948.91 112.59
-7 -7 -11 1930.61 112.69
7 -7 11 1901.51 114.09
-7 7 -11 1884.61 113.99
-7 7 -11 1715.43 113.09
7 7 11 1960.6 112.69
-9 -7 -11 22.2 7.6
-9 -7 -11 8.1 7.6
9 -7 11 5.7 11
-9 7 -11 18.2 9.5
-9 7 -11 1.9 9.7
-11 7 -11 -7.9 9.3
-13 7 -11 35 10.9
-15 7 -11 -9.6 10.1
-14 -8 11 51.89 11.3
-14 8 11 48.4 16.7
-12 -8 11 122.79 13.8
-12 -8 11 80.99 10.5
-12 8 11 108.89 17.4
-10 -8 11 56.49 9.2
-10 -8 11 37.5 11.9
-10 8 11 15 14
-8 -8 11 107.29 13.7
-8 -8 11 114.39 11.9
8 -8 -11 107.49 15.7
-8 8 11 109.79 15.4
8 8 -11 103.29 13
-8 8 11 76.29 15.1
6 -8 -11 196.48 19.3
-6 -8 11 182.58 19.2
-6 -8 11 193.08 16.7
6 8 -11 192.08 18.5
-6 8 11 180.98 18.5
-6 8 11 182.38 19.8
4 -8 -11 2864.71 167.28
-4 -8 11 2784.32 165.98
-4 -8 11 2604.54 166.18
4 -8 -11 2819.72 168.98
-4 8 11 3030.7 167.28
-4 8 11 2665.53 167.18
4 8 -11 2851.51 166.28
-2 -8 11 255.97 19.7
2 -8 -11 223.28 22.5
-2 -8 11 250.77 21.8
2 -8 -11 237.28 21.6
-2 8 11 232.48 21
-2 8 11 263.77 23.2
2 8 -11 243.98 21.4
2 8 -11 233.28 20.9
0 -8 11 243.18 22.9
0 -8 -11 306.07 22.8
0 -8 -11 271.67 23.3
0 -8 11 259.47 20.9
0 8 11 260.07 22.3
0 8 -11 273.87 22.2
0 8 -11 245.98 22
0 8 11 296.57 23.6
-2 -8 -11 2746.03 160.28
-2 -8 -11 2426.06 159.88
2 -8 11 2706.93 159.88
2 -8 11 2705.73 160.48
2 8 11 2888.31 162.38
-2 8 -11 2801.72 160.38
-2 8 -11 2446.86 159.78
2 8 11 2860.71 160.38
-4 -8 -11 66.69 10.9
-4 -8 -11 74.79 10.8
4 -8 11 88.49 12.6
-4 8 -11 68.39 11.5
-4 8 -11 73.99 11.7
4 8 11 82.29 11.4
-6 -8 -11 91.29 11.1
6 -8 11 56.99 12.1
-6 -8 -11 81.39 11.1
6 8 11 76.29 11.2
-6 8 -11 80.19 12
-6 8 -11 69.99 11.2
-8 -8 -11 3161.68 176.48
8 -8 11 2956.4 177.98
-8 -8 -11 3088.39 176.18
8 8 11 3045.4 176.38
-8 8 -11 2708.83 176.98
-8 8 -11 2943.61 177.98
-10 8 -11 375.16 27.9
-12 8 -11 51.29 11.8
-14 8 -11 16.4 10.5
-15 9 11 7.7 16
-13 -9 11 38 11
-13 9 11 9.6 15.5
-11 -9 11 42.2 11.4
-11 -9 11 30.9 8.3
-11 9 11 7.8 14.1
-9 -9 11 250.07 22.9
-9 -9 11 357.26 26.2
9 -9 -11 366.96 30
-9 9 11 354.16 28.6
9 9 -11 285.57 24.9
-9 9 11 392.36 30.5
-7 -9 11 62.39 9.8
7 -9 -11 71.29 14
-7 -9 11 59.79 11.8
-7 9 11 64.99 13.1
-7 9 11 51.09 14.2
7 9 -11 67.09 11.3
5 -9 -11 593.34 44.3
-5 -9 11 617.04 42.6
-5 -9 11 679.93 41.7
-5 9 11 671.13 43.7
-5 9 11 668.33 45
5 9 -11 664.03 42.5
3 -9 -11 392.96 31.8
3 -9 -11 424.56 32.1
-3 -9 11 450.95 29.3
-3 -9 11 396.96 30.8
-3 9 11 435.26 32.9
3 9 -11 443.26 30.3
-3 9 11 432.86 31.2
1 -9 -11 7166.68 407.86
1 -9 -11 7151.98 407.76
1 9 -11 6560.04 407.16
-1 9 11 6958.5 407.86
1 9 -11 6845.02 407.36
1 -9 11 364.36 27.8
-1 -9 -11 381.86 26.6
1 -9 11 312.97 25
-1 -9 -11 314.07 26.8
-1 9 -11 286.27 25.8
1 9 11 411.96 27.8
1 9 11 331.27 26.7
-1 9 -11 392.16 26.8
-3 -9 -11 993.1 62.99
-3 -9 -11 978.7 62.79
3 -9 11 1116.89 62.99
3 -9 11 1017 63.79
-3 9 -11 1033.6 63.09
3 9 11 936.31 63.09
-3 9 -11 998.1 63.29
-5 -9 -11 1063.29 59.99
-5 -9 -11 903.21 59.39
5 -9 11 932.51 61.09
5 9 11 1022.7 59.99
-5 9 -11 827.22 59.89
-5 9 -11 1020.8 60.99
-7 -9 -11 276.37 21
-7 -9 -11 235.28 21.2
7 -9 11 261.37 24.5
-7 9 -11 310.47 23.8
-7 9 -11 236.28 22.4
7 9 11 235.28 21.7
-9 -9 -11 272.47 21
-9 -9 -11 295.87 20.6
9 -9 11 250.97 25.5
-9 9 -11 235.98 22.7
-9 9 -11 243.58 24
-11 9 -11 1234.88 76.09
-13 9 -11 153.38 16.3
-15 9 -11 106.99 14.4
-14 -10 11 31.5 11.1
-14 10 11 52.29 17.9
-12 -10 11 173.08 16.8
-12 10 11 147.99 20.8
-10 -10 11 1950.5 114.39
-10 -10 11 1884.21 115.19
-10 10 11 1908.31 117.79
8 -10 -11 74.09 15.1
-8 -10 11 50.89 9.7
-8 -10 11 47.5 12.1
-8 10 11 37.2 14.5
8 10 -11 82.79 11.8
-8 10 11 43.8 13
-6 -10 11 57.29 9.7
-6 -10 11 60.49 12.1
6 -10 -11 28.6 12.8
-6 10 11 64.79 14.6
-6 10 11 76.39 13.4
6 10 -11 60.69 11.4
4 -10 -11 124.79 15.4
-4 -10 11 99.69 12.3
-4 -10 11 116.29 14.8
-4 10 11 106.69 14
-4 10 11 113.79 16.4
4 10 -11 120.09 13.8
-2 -10 11 6563.84 383.26
2 -10 -11 6861.11 383.96
2 10 -11 6095.89 382.96
-2 10 11 6559.14 383.96
0 -10 11 290.47 25.8
0 -10 -11 320.27 25.9
0 -10 -11 314.47 25.4
0 -10 11 327.57 23.5
0 10 -11 298.17 25
0 10 11 268.77 26.3
0 10 11 323.27 25.5
0 10 -11 301.07 24.5
-2 -10 -11 125.39 15.1
-2 -10 -11 131.19 15.6
2 -10 11 184.48 16.9
2 -10 11 150.28 17.1
-2 10 -11 164.08 16
-2 10 -11 152.48 15.7
2 10 11 149.49 16.5
4 -10 11 2763.32 164.28
-4 -10 -11 2705.63 163.28
-4 -10 -11 2727.33 163.58
4 10 11 2776.42 163.68
-4 10 -11 2918.81 164.38
-4 10 -11 2604.94 163.58
6 -10 11 33.1 12
-6 -10 -11 54.49 10.7
-6 -10 -11 37.5 10.3
6 10 11 53.29 10.9
-6 10 -11 43.4 11.6
-6 10 -11 20.1 10.8
8 -10 11 102.19 15.4
-8 -10 -11 88.39 12.4
-8 -10 -11 101.39 12.1
-8 10 -11 94.99 13.5
8 10 11 99.79 12.7
-8 10 -11 114.39 15.1
-10 -10 -11 309.67 23.2
-10 -10 -11 318.37 22.6
-10 10 -11 296.57 25.5
-12 10 -11 3.8 10.5
-14 10 -11 36.3 11.8
-13 -11 11 90.89 13.7
-13 11 11 45.2 17.8
-11 -11 11 34.7 12.3
-11 11 11 40.5 16.2
-9 -11 11 20.7 11.7
-9 -11 11 0.4 7.6
9 11 -11 3 10.1
-9 11 11 14.3 14.6
-7 -11 11 189.28 18
-7 -11 11 185.78 17.5
7 -11 -11 191.08 20.9
7 11 -11 173.68 19.5
-7 11 11 211.48 20.5
-7 11 11 160.18 20
5 -11 -11 350.96 29.5
-5 -11 11 359.96 25.3
-5 -11 11 301.27 26.7
-5 11 11 320.27 30.2
5 11 -11 343.37 26.6
-5 11 11 360.46 28.4
3 -11 -11 295.27 26.4
-3 -11 11 334.47 23.4
-3 -11 11 296.97 25.3
3 -11 -11 279.67 26.5
3 11 -11 299.07 24.5
-3 11 11 305.27 27.7
-3 11 11 262.57 25.2
1 -11 -11 1747.13 104.49
-1 -11 11 1849.11 103.39
1 -11 -11 1649.44 104.19
-1 -11 11 1708.13 104.09
1 11 -11 1741.83 103.69
-1 11 11 1566.54 104.39
1 11 -11 1662.43 103.89
-1 11 11 1762.52 104.39
-1 -11 -11 718.33 45.8
1 -11 11 709.83 44.5
1 -11 11 682.73 46.1
-1 -11 -11 666.23 45.6
1 11 11 637.74 46.4
-1 11 -11 703.73 45.4
-1 11 -11 693.73 45.6
-3 -11 -11 242.18 22.9
-3 -11 -11 242.18 22.6
3 -11 11 277.47 24.8
-3 11 -11 250.87 23.4
3 11 11 269.47 24
-3 11 -11 240.98 22.8
-5 -11 -11 150.98 15.5
5 -11 11 138.69 17.3
-5 -11 -11 159.48 16.3
-5 11 -11 165.08 16.9
-5 11 -11 121.09 15.5
5 11 11 162.18 16.3
-7 -11 -11 504.35 32.9
-7 -11 -11 468.45 33.2
7 -11 11 492.45 36.4
-7 11 -11 480.35 34
7 11 11 420.16 32.9
-7 11 -11 475.15 35.1
-9 -11 -11 488.45 33.1
-9 -11 -11 476.95 32.5
-9 11 -11 478.15 34.7
-11 -11 -11 352.86 23.9
-11 11 -11 323.47 27.7
-13 11 -11 127.69 15.8
-14 -12 11 37.2 12
-14 12 11 -5.5 16.9
-12 -12 11 7.7 11.9
-12 12 11 -6.9 15.5
-10 -12 11 411.96 30.4
-10 12 11 372.96 35.2
8 -12 -11 228.78 23.8
-8 -12 11 217.88 18.7
-8 -12 11 198.28 22
-8 12 11 211.48 23.3
8 12 -11 209.28 21.2
-6 -12 11 40.9 9.3
-6 -12 11 47.4 12
6 -12 -11 51.69 14.7
-6 12 11 45.8 15
-6 12 11 40.8 13
6 12 -11 42.5 11.7
-4 -12 11 729.53 44.6
4 -12 -11 701.63 47.6
-4 -12 11 634.04 45.4
-4 12 11 731.03 47.2
4 12 -11 673.73 45.3
-4 12 11 663.03 48
-2 -12 11 -0.2 10.9
2 -12 -11 8.5 11.3
2 -12 -11 13.4 11.5
-2 -12 11 13.6 8.4
2 12 -11 20.7 10.5
-2 12 11 10.4 10.5
-2 12 11 11.6 13.1
0 -12 -11 12.7 10.9
0 -12 11 -0.2 10.8
0 -12 -11 29.2 11.4
0 -12 11 40.2 9.6
0 12 -11 25.4 10.6
0 12 11 10.6 12
0 12 -11 28.6 11.1
-2 -12 -11 474.85 34.5
-2 -12 -11 456.75 34.2
2 -12 11 486.85 35.6
2 -12 11 497.15 33.4
-2 12 -11 491.85 33.8
2 12 11 463.15 35
-2 12 -11 434.66 34.3
-4 -12 -11 149.49 16.6
4 -12 11 147.69 17
-4 -12 -11 150.98 15.8
4 12 11 142.09 16.5
-4 12 -11 123.59 16.1
-4 12 -11 122.19 15.7
6 -12 11 164.68 19
-6 -12 -11 156.18 16.8
-6 -12 -11 161.58 16.3
6 12 11 160.28 16.9
-6 12 -11 166.28 17.5
-6 12 -11 161.08 18
-8 -12 -11 1653.53 100.59
8 -12 11 1883.51 110.69
-8 -12 -11 1680.43 99.99
8 12 11 1488.35 100.29
-8 12 -11 1681.83 101.29
-10 -12 -11 23.2 9.3
-10 -12 -11 17.1 9.9
-10 12 -11 27.5 11.5
-12 12 -11 15.1 11.3
-14 12 -11 13.7 11.8
-15 -13 11 8.7 10.8
-13 -13 11 30.1 12.5
-13 13 11 16.6 17.2
-11 -13 11 210.68 19.8
-11 13 11 190.48 24.1
-9 -13 11 49.8 12.4
-9 13 11 36.6 15.9
7 -13 -11 130.29 18.9
-7 -13 11 132.99 16.8
-7 -13 11 149.49 16.6
-7 13 11 93.69 19.2
-7 13 11 149.99 19.1
7 13 -11 207.38 17.7
5 -13 -11 44.9 13.9
-5 -13 11 25.7 11.6
-5 -13 11 33.9 9.8
5 13 -11 23 11.1
-5 13 11 20.8 12
-5 13 11 24 14.7
-3 -13 11 30.3 12.5
-3 -13 11 31.2 9.7
3 -13 -11 43.3 13.4
3 -13 -11 27.9 12.7
-3 13 11 53.19 12.4
-3 13 11 50.29 14.7
3 13 -11 42.9 11.3
-1 -13 11 178.48 19.1
1 -13 -11 210.68 19.8
-1 -13 11 207.38 19.3
1 -13 -11 182.68 19.8
-1 13 11 180.58 19.2
-1 13 11 199.48 20
1 13 -11 184.78 18.1
1 -13 11 145.29 16.1
-1 -13 -11 209.18 19.4
1 -13 11 143.89 18
-1 -13 -11 164.38 17.8
-1 13 -11 131.49 16
1 13 11 195.48 19.1
-1 13 -11 166.48 17.6
-3 -13 -11 359.46 31
-3 -13 -11 381.16 30.7
3 -13 11 406.36 32.4
-3 13 -11 435.96 31.6
3 13 11 368.96 31.5
-3 13 -11 440.76 31
5 -13 11 86.39 15.8
-5 -13 -11 104.99 14.2
-5 -13 -11 111.09 14.8
5 13 11 96.29 14.6
-5 13 -11 74.19 14
-5 13 -11 81.89 14.6
7 -13 11 239.08 25.9
-7 -13 -11 212.18 22.1
-7 -13 -11 224.98 21.2
-7 13 -11 190.88 21.4
7 13 11 158.58 19
-7 13 -11 262.57 23.1
-9 -13 -11 254.07 22.9
-9 -13 -11 274.77 24.1
-9 13 -11 287.97 25.5
-11 -13 -11 142.19 13.9
-11 -13 -11 113.69 13
-11 13 -11 94.79 15.2
-13 13 -11 10.1 11.9
-14 -14 11 -4.5 11.4
-14 14 11 14.6 17.8
-12 -14 11 254.07 24
-12 14 11 215.68 26.8
-10 -14 11 35 12.7
-10 14 11 44.9 17.5
-8 -14 11 37.6 12.5
-8 14 11 29.2 16.4
-6 -14 11 91.89 14.4
6 -14 -11 62.39 16.3
-6 -14 11 87.59 12.3
6 14 -11 105.69 14.2
-6 14 11 65.59 17.4
-6 14 11 80.79 15.6
-4 -14 11 227.98 22.2
4 -14 -11 246.88 27
-4 -14 11 269.67 25.3
-4 14 11 294.57 26.1
4 14 -11 261.27 24.3
-4 14 11 269.97 28.4
2 -14 -11 -3 12.3
-2 -14 11 7.1 11.9
2 -14 -11 -6.1 11.2
-2 -14 11 6.9 8.9
-2 14 11 4.6 10.7
-2 14 11 1.9 12.7
2 14 -11 13.9 10.7
0 -14 11 526.85 38.5
0 -14 11 564.24 36.3
0 -14 -11 509.25 37.8
0 -14 -11 535.25 38.4
0 14 11 487.15 38.7
0 14 -11 476.45 36.6
2 -14 11 278.27 27.4
-2 -14 -11 278.17 26.8
-2 -14 -11 305.77 26.7
2 -14 11 240.18 24.5
-2 14 -11 267.97 25.6
-2 14 -11 309.27 26.9
2 14 11 352.66 28.2
-4 -14 -11 468.05 34.7
-4 -14 -11 483.75 34
4 -14 11 431.66 35.6
-4 14 -11 431.96 35
-4 14 -11 486.85 34.5
4 14 11 425.56 34.9
-6 -14 -11 65.19 12.4
-6 -14 -11 62.49 13.4
6 -14 11 41.9 14.6
-6 14 -11 44.3 13.5
-6 14 -11 44.4 13.4
6 14 11 46.7 13.4
-8 -14 -11 1079.99 66.99
-8 -14 -11 1110.09 68.09
-8 14 -11 1029.2 68.39
-10 -14 -11 14.4 10
-10 14 -11 5.2 12.3
-12 -14 -11 20.9 8.9
-12 14 -11 31.5 13.1
-13 -15 11 299.57 26.9
-13 15 11 300.47 30.7
-11 -15 11 128.49 16.8
-11 15 11 123.39 21.8
-9 -15 11 299.57 26
-9 15 11 254.67 28.1
7 -15 -11 13.4 15.1
-7 -15 11 22.6 12.4
-7 15 11 -10.1 14.8
-5 -15 11 842.02 52.69
-5 -15 11 794.32 53.69
5 -15 -11 754.12 55.69
-5 15 11 886.11 55.89
5 15 -11 847.62 53.49
-5 15 11 750.82 56.39
-3 -15 11 569.44 40.2
-3 -15 11 535.35 38.5
3 -15 -11 563.64 41.8
-3 15 11 539.45 42.6
-3 15 11 594.34 40.9
3 15 -11 549.45 39.4
1 -15 -11 -8.5 11.4
-1 -15 11 24.4 10.1
1 -15 -11 20.2 13.1
-1 -15 11 13.8 12.4
-1 15 11 25.9 14.1
1 15 -11 13.4 11
-1 -15 -11 1050.39 68.59
1 -15 11 1209.78 68.09
1 -15 11 1001.8 68.49
-1 -15 -11 1047.6 68.49
1 15 11 1062.39 69.39
-1 15 -11 1036.3 67.79
-3 -15 -11 68.89 14.5
-3 -15 -11 53.19 13
3 -15 11 58.79 14.7
-3 15 -11 54.09 14
3 15 11 51.29 14.7
-3 15 -11 69.19 13.5
-5 -15 -11 363.26 29.7
5 -15 11 384.56 32.9
-5 -15 -11 337.77 30.7
5 15 11 358.86 31.3
-5 15 -11 362.76 30.6
-5 15 -11 401.86 32
-7 -15 -11 347.67 28.3
-7 -15 -11 363.96 30
-7 15 -11 351.36 30.2
-9 -15 -11 160.88 17
-9 15 -11 153.88 18.7
-11 -15 -11 4.1 9.9
-11 15 -11 10.2 12.9
-13 15 -11 115.49 16.9
-12 -16 11 35.3 13.3
-12 16 11 0 18.3
-10 -16 11 198.58 19.7
-10 16 11 188.08 25.1
-8 -16 11 646.94 42.6
-8 16 11 552.24 47.1
6 -16 -11 -10.9 14.3
-6 -16 11 6.7 12
-6 16 11 16.2 15.8
-4 -16 11 -14.6 11.8
-4 -16 11 -4.3 9.4
4 -16 -11 -8.5 12.8
-4 16 11 -3 11.7
-4 16 11 12.2 14.8
4 16 -11 9.6 11.9
-2 -16 11 1559.24 88.79
-2 -16 11 1398.46 89.09
2 -16 -11 1495.75 90.29
2 -16 -11 1344.87 89.79
2 16 -11 1395.46 88.89
-2 16 11 1397.86 90.59
0 -16 -11 135.89 19
0 -16 11 135.59 19
0 -16 11 187.08 18.5
0 -16 -11 194.88 20.5
0 16 -11 149.49 18.3
0 16 11 149.49 19.3
-2 -16 -11 399.86 34.5
-2 -16 -11 416.86 35.1
2 -16 11 480.95 36.5
-2 16 -11 477.15 35.2
-2 16 -11 494.85 34.6
2 16 11 400.56 36.1
-4 -16 -11 7.8 12
-4 -16 -11 15.2 12.9
4 -16 11 25.9 14.3
4 16 11 7.4 13.7
-4 16 -11 23.2 13
-4 16 -11 23.6 12.4
6 -16 11 1054.79 71.09
-6 -16 -11 1039.9 68.09
-6 16 -11 1141.49 69.29
-8 -16 -11 374.46 30.3
-8 16 -11 398.56 32.1
-10 -16 -11 237.68 22
-10 16 -11 207.88 22.6
-12 -16 -11 2.7 10
-12 16 -11 11.4 13.3
-13 -17 11 40.4 14
-13 17 11 50.79 20.8
-11 -17 11 8.3 12.7
-11 17 11 -4.1 17.9
-9 -17 11 108.09 16.5
-9 17 11 101.29 21.4
-7 -17 11 20.3 12.8
-7 17 11 16.6 16.3
-5 -17 11 173.68 19.8
5 -17 -11 191.68 22.5
-5 17 11 129.29 21.7
-5 17 11 208.68 22
3 -17 -11 273.17 28.5
-3 -17 11 281.47 24.6
-3 -17 11 237.98 27.2
3 17 -11 326.37 26.9
-3 17 11 218.98 26.2
1 -17 -11 755.12 50.59
-1 -17 11 713.33 49.99
1 -17 -11 774.42 50.99
1 17 -11 684.93 48.7
-1 17 11 664.03 51.09
1 -17 11 -3.5 13
-1 -17 -11 4.4 12.9
1 -17 11 31.3 11.2
-1 -17 -11 -6.7 12.3
-1 17 -11 24.1 12.1
1 17 11 9.5 14.8
3 -17 11 3.1 14.1
-3 -17 -11 17.1 12.7
-3 -17 -11 12.1 12.9
3 17 11 14.7 14.7
-3 17 -11 30.1 13.4
-3 17 -11 12 12.1
5 -17 11 570.84 43.8
-5 -17 -11 533.85 40.4
-5 17 -11 580.64 40.8
-7 -17 -11 146.69 17.2
-7 17 -11 105.49 17
-9 -17 -11 -8 11.4
-9 17 -11 -13.2 12.4
-11 -17 -11 87.69 13.4
-11 17 -11 78.89 16.7
-13 -17 -11 47.3 11.3
-13 17 -11 70.29 16
-12 -18 11 461.95 36.3
-12 18 11 500.75 44.1
-10 -18 11 -11.8 12.9
-10 18 11 14.7 18.5
-8 -18 11 590.34 41.1
-8 18 11 522.85 46.4
-6 -18 11 41.9 14.2
-6 18 11 37.6 17.3
-4 -18 11 243.58 26.3
4 -18 -11 234.48 25.8
-4 18 11 250.17 27.2
2 -18 -11 11.1 13.8
2 -18 -11 47.2 16.2
-2 -18 11 65.99 12.6
-2 -18 11 29.1 14.6
-2 18 11 37.6 16.6
2 18 -11 68.89 14.5
0 -18 11 181.58 21.2
0 -18 -11 190.38 21.8
0 -18 11 249.58 22.9
0 -18 -11 197.48 22.3
0 18 -11 195.98 20.7
0 18 11 148.89 22.2
-2 -18 -11 14.1 13.8
2 -18 11 28.5 14.7
-2 -18 -11 35.5 13.6
-2 18 -11 43.7 13.6
2 18 11 19 15.8
4 -18 11 283.67 31.7
-4 -18 -11 284.47 28.4
-4 18 -11 328.97 28.8
-4 18 -11 334.37 30.8
-6 -18 -11 785.22 48.9
-6 18 -11 630.34 48.5
-8 -18 -11 101.89 16.2
-8 18 -11 129.99 17.6
-10 -18 -11 96.19 15.3
-10 18 -11 125.69 18.8
-12 -18 -11 -9.3 10.7
-12 18 -11 7.2 14.2
-13 19 11 9.2 18.5
-11 -19 11 8.2 13.6
-11 19 11 14.6 19.1
-9 -19 11 96.59 16.5
-9 19 11 94.29 21.6
-7 -19 11 90.79 16.1
-7 19 11 53.79 19.2
-5 -19 11 -13.3 13.2
5 -19 -11 0.7 15.7
-5 19 11 -5.7 16.2
3 -19 -11 484.25 37.9
-3 -19 11 417.86 35.7
-3 19 11 383.26 38.4
-1 -19 11 24.5 12.7
1 -19 -11 22.6 14.7
1 -19 -11 14.6 14.6
-1 -19 11 31.1 15.1
1 19 -11 5.7 13.4
-1 19 11 13.4 16.2
-1 -19 -11 88.69 17.5
1 -19 11 110.39 18.1
1 19 11 109.09 20
-1 19 -11 120.39 17.5
3 -19 11 13.5 15.5
-3 -19 -11 18 13.6
-3 19 -11 25.6 13.1
-5 -19 -11 273.57 28.5
-5 19 -11 301.97 28.5
-7 -19 -11 67.59 15.7
-7 19 -11 78.99 16
-9 -19 -11 89.89 15.8
-9 19 -11 106.19 17.7
-11 -19 -11 46.3 13.1
-11 19 -11 58.99 16.1
-12 20 11 496.85 46.3
-10 -20 11 11.4 13.9
-10 20 11 0.1 19
-8 -20 11 27.2 14.2
-8 20 11 21.8 19.5
-6 -20 11 39.5 15.1
-6 20 11 61.69 19.7
-4 -20 11 -6.8 14.1
4 -20 -11 -7.6 15.6
-4 20 11 9.5 17.1
-2 -20 11 36.7 15.3
2 -20 -11 22.7 15.4
-2 20 11 -6.3 16.5
0 -20 11 363.36 35.7
0 -20 -11 395.36 35.7
0 20 11 421.46 38.5
0 20 -11 463.75 35.4
-2 -20 -11 5.2 14.2
2 -20 11 2.3 15
-2 20 -11 -18.6 12.7
-4 -20 -11 39.5 15.6
4 -20 11 40.1 17.3
-4 20 -11 36 13.8
-6 -20 -11 12.4 13.8
-6 20 -11 -1.6 13.3
-8 -20 -11 278.77 28
-8 20 -11 281.57 29.3
-10 -20 -11 203.28 20.8
-10 20 -11 192.38 22.4
-12 20 -11 -1.7 15.5
-11 -21 11 455.85 36.2
-11 21 11 420.16 43.2
-9 -21 11 11.3 14.4
-9 21 11 13.2 19.5
-7 -21 11 60.39 16
-7 21 11 38.3 19.7
-5 -21 11 41.4 15.3
-5 21 11 22.4 19.7
3 -21 -11 9.3 16.3
-3 -21 11 -9.8 14
-3 21 11 6.1 18.1
1 -21 -11 38.3 17
-1 -21 11 59.89 17.2
-1 21 11 38.4 19.2
-1 -21 -11 658.63 46.2
1 -21 11 567.64 46.3
-1 21 -11 596.54 45.1
-3 -21 -11 173.68 21.6
3 -21 11 143.39 22.4
-3 21 -11 162.48 20.3
-5 -21 -11 37.4 15.6
-5 21 -11 28 14.5
-7 -21 -11 39.8 14.6
-7 21 -11 26.8 14.9
-9 -21 -11 976.7 67.19
-9 21 -11 1115.69 69.19
-11 -21 -11 45.6 14.8
-11 21 -11 18.6 15.9
-12 22 11 402.56 43.3
-10 -22 11 58.89 16.5
-10 22 11 78.09 22.7
-8 -22 11 42.7 15.7
-8 22 11 61.29 21.5
-6 -22 11 23 15.4
-6 22 11 6.4 18.6
4 -22 -11 109.39 21.8
-4 -22 11 88.09 17.6
-4 22 11 64.69 21.5
2 -22 -11 765.92 54.29
-2 -22 11 724.63 52.49
-2 22 11 692.33 56.49
0 -22 -11 175.78 22.6
0 -22 11 147.59 21.4
2 -22 11 62.89 19.3
-2 -22 -11 55.19 17.4
-2 22 -11 76.59 17
-4 -22 -11 37.4 16.3
-4 22 -11 17 14.8
-6 -22 -11 197.98 22.4
-6 22 -11 169.58 21.4
-8 -22 -11 107.59 18
-8 22 -11 110.29 18.1
-10 -22 -11 -0.3 13.9
-10 22 -11 7.8 15
-11 23 11 -14.5 20.8
-9 -23 11 302.87 30.6
-9 23 11 302.17 34
-7 -23 11 5.2 15.3
-7 23 11 21.1 20.9
-5 -23 11 2 15.6
-5 23 11 -11 19.5
-3 -23 11 563.24 46.4
3 -23 -11 668.33 50.19
1 -23 -11 92.19 19.9
-1 -23 11 114.29 20.4
-1 -23 -11 8.3 16.3
1 -23 11 34.5 17.4
-3 -23 -11 46.7 17.2
3 -23 11 72.79 20.2
-3 23 -11 65.89 17.7
-5 -23 -11 303.77 33.3
-5 23 -11 406.26 34.3
-7 -23 -11 38.4 16
-7 23 -11 22.2 15.7
-9 -23 -11 -4.9 14.1
-9 23 -11 1.7 15.1
-11 23 -11 21.7 16.8
-10 24 11 -15.1 21.8
-8 -24 11 167.28 21.1
-8 24 11 94.99 25.6
-6 -24 11 50.89 16.8
-6 24 11 13.7 20.8
-4 -24 11 -9.9 15.5
2 -24 -11 26.5 18.8
-2 -24 11 44.4 17.3
0 -24 -11 36.2 18.8
0 -24 11 22.7 17.8
2 -24 11 66.89 20.1
-2 -24 -11 31.9 18
-4 -24 -11 193.28 23.2
-4 24 -11 127.79 20.8
-6 -24 -11 382.96 37.1
-6 24 -11 444.16 37.4
-8 -24 -11 186.08 22
-8 24 -11 151.68 22.5
-10 24 -11 0.9 15.9
-11 25 11 31.9 24
-9 25 11 -5 22.1
-7 -25 11 -3.3 16.1
-7 25 11 38.1 22.4
-5 -25 11 17.8 15.9
-3 -25 11 21.1 16.8
-1 -25 11 443.86 40.4
1 -25 -11 430.16 41.5
1 -25 11 47.5 19.8
-1 -25 -11 63.49 19.1
-3 -25 -11 193.78 24.4
-5 -25 -11 22.8 17.1
-5 25 -11 -9.2 16
-7 -25 -11 36.4 16.9
-7 25 -11 9.2 15.9
-9 25 -11 67.99 18.7
-10 26 11 -32.6 23.1
-8 26 11 5.8 22.6
-6 -26 11 9.1 16.8
-4 -26 11 38.7 18.1
-2 -26 11 91.89 20.6
2 -26 -11 77.29 22.7
0 -26 -11 111.19 22.8
0 -26 11 89.49 21.5
-2 -26 -11 198.18 25.5
-4 -26 -11 39.8 18.2
-6 -26 -11 -2.3 16.5
-6 26 -11 -8.6 16.8
-8 26 -11 203.48 25.7
-10 26 -11 44.8 18.4
-9 27 11 -5 35.9
-7 -27 11 26.4 17.6
-5 -27 11 321.17 34.9
-3 -27 11 0.9 17.5
1 -27 -11 -13.5 18.7
-1 -27 11 18.2 19
-1 -27 -11 61.09 20.1
1 -27 11 68.39 21.7
-3 -27 -11 51.99 18.8
-5 -27 -11 11.4 17.2
-9 27 -11 62.19 19.9
-6 -28 11 15.2 17.8
-4 -28 11 68.19 21
-2 -28 11 346.87 38.2
0 -28 -11 -8.4 19
0 -28 11 -8.2 19.7
-2 -28 -11 36.3 19.4
-4 -28 -11 12.5 17.7
-5 -29 11 27.9 18.6
-3 -29 11 103.39 23.6
-1 -29 11 587.74 49.3
1 -29 -11 522.75 52.69
-1 -29 -11 22.7 19.8
-3 -29 -11 36.3 19.4
-5 -29 -11 87.79 21.6
-4 -30 11 -4.1 19.4
-2 -30 11 387.76 42.2
0 -30 -11 26.8 21.2
-2 -30 -11 6.3 19.2
-4 -30 -11 38.6 20
-3 -31 11 5.6 20.4
-1 -31 11 57.89 22.4
-1 -31 -11 43.3 21.4
-3 -31 -11 -19.4 18.5
-2 -32 11 79.99 24.4
-2 -32 -11 12.8 20.2
-1 -33 -11 37.4 22.1
-16 0 12 16.8 12.4
-14 0 12 46.9 12.9
-12 0 12 6735.43 396.06
10 0 -12 129.79 14.9
-10 0 12 126.09 15.5
-10 0 12 120.39 14.3
-8 0 12 12.8 8.8
-8 0 12 16.2 10.4
8 0 -12 0.4 9.6
-6 0 12 602.64 45.2
-6 0 12 782.42 45.1
6 0 -12 727.13 45.4
-4 0 12 394.36 27.9
4 0 -12 369.16 27.4
-4 0 12 362.06 26.3
4 0 -12 360.76 27.6
-2 0 12 1059.39 63.19
2 0 -12 990.6 62.89
-2 0 12 964.4 62.29
2 0 -12 1035.6 63.09
0 0 12 443.36 33.5
0 0 -12 579.74 34.4
0 0 -12 516.15 34.6
4 0 12 175.98 17
-4 0 -12 184.48 15.8
-4 0 -12 137.69 16.2
-6 0 -12 249.58 19.4
-6 0 -12 227.28 18.9
6 0 12 242.78 20.1
-8 0 -12 3339.07 205.38
8 0 12 3615.74 205.68
-8 0 -12 3507.65 205.28
-10 0 -12 406.36 27.9
-10 0 -12 421.86 28.1
-12 0 -12 141.69 14.9
-12 0 -12 156.78 14.7
-15 -1 12 188.78 18.5
-15 1 12 156.48 18.4
-13 -1 12 1047 65.39
-13 1 12 1036.6 66.19
11 -1 -12 791.32 49.7
-11 -1 12 797.32 48.4
-11 -1 12 746.43 49.3
-11 1 12 685.53 49.5
11 1 -12 748.03 48.9
-11 1 12 761.52 48.9
-9 -1 12 299.37 25
9 -1 -12 334.87 26.2
-9 -1 12 334.47 26.8
9 1 -12 340.37 25.7
-9 1 12 336.07 27.2
-9 1 12 353.36 25.7
-7 -1 12 -10 7.8
-7 -1 12 4.5 9.6
7 -1 -12 -13.5 8.7
-7 1 12 4.3 8.2
-7 1 12 -7.1 9.9
7 1 -12 6.1 9.3
-5 -1 12 98.29 11.8
5 -1 -12 119.39 13.4
-5 -1 12 98.59 13.1
-5 1 12 105.79 13.5
5 1 -12 142.59 13.6
-5 1 12 115.89 12.4
-3 -1 12 16.4 7.9
-3 -1 12 -1.2 9.4
3 -1 -12 5.9 9.6
3 -1 -12 1.7 9.5
-3 1 12 4.7 8
3 1 -12 2.2 9
3 1 -12 10.2 9.6
-3 1 12 11.1 10.5
1 -1 -12 58.49 10.6
-1 -1 12 52.99 10.8
1 -1 -12 60.69 10.6
-1 -1 12 54.19 9.3
-1 1 12 59.09 11.1
1 1 -12 72.19 10.7
-1 1 12 50.29 9.2
1 1 -12 42.1 10.4
-1 -1 -12 118.49 12.7
1 -1 12 123.39 12.7
1 -1 12 151.98 14.4
-1 -1 -12 142.49 13.8
-1 1 -12 134.09 13.2
1 1 12 132.39 12.9
1 1 12 149.79 14.7
-1 1 -12 108.59 12.6
-3 -1 -12 769.32 49.8
3 -1 12 745.63 49.5
-3 -1 -12 790.42 49.7
3 -1 12 823.22 50.29
-3 1 -12 807.62 49.7
-3 1 -12 745.33 49.8
3 1 12 880.01 50.39
3 1 12 825.82 49.6
-5 -1 -12 1117.19 70.99
-5 -1 -12 1192.38 70.99
5 -1 12 1234.68 71.49
5 1 12 1206.38 71.39
-5 1 -12 1189.28 71.09
-5 1 -12 1102.09 70.89
-7 -1 -12 10.9 8
7 -1 12 2.3 8.7
-7 -1 -12 21.1 7.6
7 1 12 0.1 8.6
-7 1 -12 -7.8 7
-7 1 -12 10.8 8.1
-9 -1 -12 2822.92 161.78
-9 -1 -12 2842.52 161.78
9 -1 12 2637.54 162.18
-9 1 -12 2849.22 161.98
-9 1 -12 2657.13 162.08
9 1 12 2624.34 163.68
-11 -1 -12 30.7 7.8
-11 -1 -12 27.2 8.4
-11 1 -12 43.7 9
-11 1 -12 38 8.9
-13 1 -12 21.7 8.4
-13 1 -12 22.7 8.5
-16 -2 12 192.18 21.6
-16 2 12 232.58 21.4
-14 -2 12 16.9 11.6
-14 2 12 6.5 12.7
-12 -2 12 37.8 9.9
-12 -2 12 38 12
-12 2 12 48.6 13.5
10 -2 -12 848.32 54.69
-10 -2 12 819.92 53.89
-10 -2 12 817.72 53.09
-10 2 12 861.91 54.09
-10 2 12 883.71 54.79
10 2 -12 856.61 53.59
-8 -2 12 1418.26 85.89
8 -2 -12 1482.15 86.79
-8 -2 12 1424.06 86.29
-8 2 12 1365.66 86.79
-8 2 12 1434.76 86.49
8 2 -12 1395.66 86.19
-6 -2 12 392.06 28.6
6 -2 -12 389.86 28.5
-6 -2 12 420.76 27.5
-6 2 12 382.06 28
-6 2 12 359.86 28.9
6 2 -12 395.66 28.2
-4 -2 12 1.6 9.5
4 -2 -12 19.4 9.5
4 -2 -12 -3.4 9.3
-4 -2 12 -1.6 7.3
-4 2 12 2.4 7.8
4 2 -12 -0.5 8.8
4 2 -12 -1.4 8.7
-4 2 12 2.6 9.6
2 -2 -12 31.3 9.4
-2 -2 12 47.5 9
-2 -2 12 38.3 10.7
2 -2 -12 39.1 10.1
2 2 -12 30.7 10
-2 2 12 24.2 10.5
2 2 -12 22 10.3
-2 2 12 41.1 8.6
0 -2 12 6.4 7.9
0 -2 12 3.1 10
0 -2 -12 7.9 8.6
0 -2 -12 -3.2 9
0 2 12 3.1 8
0 2 -12 12.1 8.7
0 2 12 20.1 10.2
0 2 -12 -2.1 8.7
2 -2 12 18.7 8.2
-2 -2 -12 25.9 9
2 -2 12 34.4 9.8
-2 -2 -12 24.6 8.7
-2 2 -12 25 8.9
2 2 12 28 10.1
-2 2 -12 29.2 8.3
2 2 12 34.2 8.8
-4 -2 -12 461.65 32.5
-4 -2 -12 484.55 32.5
4 -2 12 497.75 33.2
-4 2 -12 548.85 32.8
4 2 12 520.55 33
-4 2 -12 447.76 32.5
-8 -2 -12 52.39 9.2
8 -2 12 51.49 9.9
-8 -2 -12 43 8.6
-8 2 -12 63.39 9.9
-8 2 -12 53.69 9.8
8 2 12 52.59 9.7
-10 -2 -12 0 7.5
-10 -2 -12 6.6 6.8
10 -2 12 -6.5 10.5
-10 2 -12 12.6 8.5
-10 2 -12 3.6 7.9
-12 2 -12 156.08 14.6
-12 2 -12 143.49 15.8
-14 2 -12 5.8 8.3
-15 -3 12 265.67 23.5
-15 3 12 254.77 24.2
-13 -3 12 2.8 11
-13 3 12 3.4 12.6
-11 -3 12 247.18 24
-11 -3 12 318.97 22.5
-11 3 12 253.67 26.3
-11 3 12 291.67 24.6
-9 -3 12 2890.51 163.98
-9 -3 12 2748.53 164.18
9 -3 -12 2857.31 165.08
9 3 -12 2773.72 164.08
-9 3 12 2776.72 164.78
-9 3 12 2531.15 164.68
7 -3 -12 45.9 11.1
-7 -3 12 55.49 9.3
-7 -3 12 33.5 10.9
-7 3 12 33.9 11.8
7 3 -12 40.5 10.5
-7 3 12 57.49 10.5
5 -3 -12 335.97 27.4
-5 -3 12 356.96 27.2
-5 -3 12 356.46 25.7
-5 3 12 310.97 27.7
5 3 -12 441.86 27.1
-5 3 12 375.76 26.4
3 -3 -12 14.3 10.2
3 -3 -12 26.5 10.2
-3 -3 12 15 9.9
-3 -3 12 33.3 8.4
-3 3 12 24 10.9
3 3 -12 26 9.2
3 3 -12 29.8 10.3
-3 3 12 25.8 8.8
-1 -3 12 1958.2 123.59
1 -3 -12 2169.18 123.69
1 -3 -12 2024.4 123.59
-1 -3 12 2122.39 123.39
1 3 -12 2087.19 123.59
1 3 -12 1949.41 123.39
-1 3 12 2280.37 124.09
-1 3 12 1987.9 123.39
1 -3 12 6.7 9.4
1 -3 12 4.1 7.9
-1 -3 -12 -3 8
-1 -3 -12 11.2 9.5
-1 3 -12 -5.3 7.8
-1 3 -12 -4.7 8.4
1 3 12 -6 9.1
1 3 12 -5.2 8.3
3 -3 12 672.43 43.4
3 -3 12 608.54 42.5
-3 -3 -12 715.03 43
-3 -3 -12 637.34 42.8
-3 3 -12 738.93 43.1
-3 3 -12 626.94 42.8
3 3 12 670.83 42.8
3 3 12 732.43 43.3
5 -3 12 5734.93 335.37
-5 -3 -12 5568.94 334.97
-5 3 -12 5815.52 335.37
5 3 12 5711.43 335.07
-7 -3 -12 25.2 8.2
7 -3 12 18 9.2
-7 -3 -12 20.2 7.8
7 3 12 9.1 8.7
-7 3 -12 29 8.8
-7 3 -12 29 8.7
-9 -3 -12 280.27 20.4
-9 -3 -12 303.77 20
9 -3 12 235.48 22.2
-9 3 -12 275.37 21.7
-9 3 -12 259.37 21.5
-11 3 -12 44.6 9.9
-11 3 -12 50.69 10
-13 3 -12 437.26 29.9
-15 3 -12 31 9.5
-16 4 12 64.49 16.3
-14 -4 12 120.39 14.6
-14 4 12 97.99 17.3
-12 -4 12 14.5 11
-12 -4 12 16.6 8.6
-12 4 12 15.8 13
10 -4 -12 31.5 12.1
-10 -4 12 43.1 9.5
-10 -4 12 59.99 11.7
-10 4 12 64.39 13.7
-10 4 12 34.4 11.2
10 4 -12 35 10.8
8 -4 -12 374.46 29.7
-8 -4 12 406.86 27
-8 -4 12 355.86 28.6
-8 4 12 367.26 28.7
-8 4 12 341.17 29.8
8 4 -12 424.56 28.1
-6 -4 12 60.09 11.2
-6 -4 12 30.2 8.5
6 -4 -12 47.9 11.4
-6 4 12 68.39 11.1
-6 4 12 29.7 11.4
6 4 -12 30 10.2
4 -4 -12 131.79 14.4
-4 -4 12 134.09 13.8
4 -4 -12 86.19 13.1
-4 -4 12 122.19 13.1
4 4 -12 101.29 12.6
-4 4 12 87.29 13.3
-4 4 12 120.29 12.8
0 -4 12 197.98 19.1
0 -4 -12 172.68 19.4
0 -4 -12 223.08 18.8
0 -4 12 196.38 17.5
0 4 -12 190.08 18.8
0 4 12 203.38 20
0 4 -12 182.68 18.5
0 4 12 209.68 18.3
-2 -4 -12 1044.9 63.19
-2 -4 -12 996.9 63.19
2 -4 12 1030.5 63.69
2 -4 12 995.5 62.99
2 4 12 1067.59 63.19
2 4 12 1053.09 63.59
-2 4 -12 1050.89 63.29
-2 4 -12 985.9 63.19
-4 -4 -12 650.43 37.9
4 -4 12 593.54 38.6
-4 -4 -12 507.45 37.4
-4 4 -12 522.25 37.7
-4 4 -12 582.74 38.1
4 4 12 655.83 38.1
6 -4 12 139.99 14.1
-6 -4 -12 157.58 14.7
-6 -4 -12 135.39 14.5
6 4 12 151.98 15
-6 4 -12 107.99 13.1
-6 4 -12 93.69 12.5
-8 -4 -12 53.99 8.9
8 -4 12 53.39 11.2
-8 -4 -12 62.29 9.5
8 4 12 61.69 9.7
-8 4 -12 53.59 10.3
-8 4 -12 52.79 10.3
-10 -4 -12 72.99 8.5
-10 -4 -12 75.39 8.7
10 -4 12 58.09 12.1
-10 4 -12 58.69 10.7
-10 4 -12 58.39 10.8
-12 4 -12 247.88 20.7
-14 4 -12 87.79 11.9
-16 4 -12 4.4 9
-15 -5 12 333.77 26
-15 5 12 318.97 30.6
-13 -5 12 119.79 14.3
-13 5 12 79.89 16.6
-11 -5 12 2.3 10.7
-11 -5 12 30.6 8.6
-11 5 12 3 12.4
9 -5 -12 698.43 44.6
-9 -5 12 667.33 43.2
-9 -5 12 681.93 41.9
9 5 -12 579.94 42.5
-9 5 12 657.73 44.7
-9 5 12 637.04 43.7
-7 -5 12 9.1 10.1
7 -5 -12 9.4 10.5
-7 -5 12 4.2 7.5
7 5 -12 6.9 9.5
-7 5 12 8 9.7
-7 5 12 -10.4 10.7
5 -5 -12 5577.14 317.87
-5 -5 12 5095.69 317.07
-5 5 12 5464.75 317.67
5 5 -12 5483.65 317.07
-5 5 12 5344.17 317.77
-3 -5 12 2379.86 144.99
3 -5 -12 2532.65 145.89
3 -5 -12 2439.06 145.79
-3 -5 12 2205.78 145.29
-3 5 12 2418.56 145.59
3 5 -12 2465.65 145.29
-3 5 12 2626.54 146.09
3 5 -12 2491.85 145.29
-1 -5 12 1913.21 113.99
1 -5 -12 1910.81 114.19
-1 -5 12 2049.59 113.59
1 -5 -12 1842.02 113.89
-1 5 12 1925.21 114.39
1 5 -12 1870.41 113.69
-1 5 12 1939.71 113.89
1 5 -12 1764.32 113.69
-1 -5 -12 1894.11 114.39
-1 -5 -12 1825.02 114.19
1 -5 12 1900.41 114.49
1 -5 12 1905.11 113.89
1 5 12 1934.41 114.59
1 5 12 1951.3 114.29
-1 5 -12 1892.11 114.29
-1 5 -12 1984.2 114.39
3 -5 12 1025.7 65.09
-3 -5 -12 1114.69 64.79
-3 -5 -12 1010.7 64.49
3 -5 12 964.8 64.39
-3 5 -12 1041.4 64.89
-3 5 -12 1058.39 64.99
3 5 12 1175.28 65.19
5 -5 12 5169.78 288.27
-5 -5 -12 4708.33 287.37
-5 5 -12 4482.35 287.57
-5 5 -12 4904.91 288.07
5 5 12 5201.58 287.67
7 -5 12 403.36 30.4
-7 -5 -12 429.26 28.5
-7 -5 -12 440.46 28.8
-7 5 -12 438.36 30.1
-7 5 -12 384.46 29.3
7 5 12 442.56 28.9
-9 -5 -12 348.87 24.1
-9 -5 -12 341.37 23.9
9 -5 12 337.27 27.1
-9 5 -12 358.96 25.9
-9 5 -12 357.76 26.6
-11 5 -12 5 9.3
-11 5 -12 -2.4 9.5
-13 5 -12 8.7 9.6
-15 5 -12 385.06 28.1
-14 -6 12 4.5 10.8
-14 6 12 -16.3 13.9
-12 -6 12 148.29 16.7
-12 -6 12 209.08 20.2
-12 6 12 246.18 22.3
-10 -6 12 54.59 9.5
-10 -6 12 56.99 12.3
-10 6 12 55.89 13.3
10 6 -12 54.39 11.8
-10 6 12 60.69 14.7
-8 -6 12 77.49 12.9
8 -6 -12 65.59 13.7
-8 -6 12 78.29 10.4
8 6 -12 59.89 11.9
-8 6 12 70.79 13.1
-8 6 12 73.79 14.4
-6 -6 12 2504.05 148.19
-6 -6 12 2431.36 148.59
6 -6 -12 2509.45 149.59
-6 6 12 2515.15 149.29
-6 6 12 2524.25 149.59
6 6 -12 2493.65 148.49
-4 -6 12 1885.51 114.99
-4 -6 12 1973 115.59
4 -6 -12 1754.52 115.99
4 -6 -12 1915.41 116.29
-4 6 12 1960.9 115.99
-4 6 12 1936.51 116.39
4 6 -12 2069.89 115.59
-2 -6 12 -0.7 9.5
-2 -6 12 3 7.1
2 -6 -12 8.8 10
2 -6 -12 1.6 9.3
-2 6 12 6.7 8.4
2 6 -12 2.2 9.1
2 6 -12 12.6 9
-2 6 12 -7.3 10.6
0 -6 12 387.66 28.3
0 -6 -12 444.06 29.5
0 -6 12 427.46 30
0 -6 -12 420.76 29.8
0 6 12 412.46 29.3
0 6 -12 384.26 28.8
0 6 12 424.96 30.2
0 6 -12 368.96 29.1
2 -6 12 4803.02 291.07
-2 -6 -12 4990.9 290.87
-2 -6 -12 4947.71 290.77
-2 6 -12 5027.4 291.07
2 6 12 4912.71 290.67
-2 6 -12 4735.43 290.77
2 6 12 5179.68 291.07
-4 -6 -12 62.99 10.2
4 -6 12 50.69 11
-4 -6 -12 52.89 10
4 6 12 57.89 10.6
-4 6 -12 68.49 10.8
-4 6 -12 54.79 10.5
-6 -6 -12 827.82 49.5
6 -6 12 810.22 50.79
-6 -6 -12 813.92 49.6
-6 6 -12 719.33 49.9
-6 6 -12 814.02 50.59
6 6 12 770.32 49.7
-8 -6 -12 985.3 55.49
-8 -6 -12 940.11 55.19
8 -6 12 823.52 56.79
8 6 12 915.21 55.39
-8 6 -12 886.51 56.89
-8 6 -12 820.02 55.99
10 -6 12 51.39 12.4
-10 6 -12 30.9 10.9
-10 6 -12 60.59 10.8
-12 6 -12 161.58 17.9
-14 6 -12 103.89 13.4
-15 7 12 136.09 20.1
-13 -7 12 252.07 23.4
-13 7 12 289.17 26.1
-11 -7 12 761.52 48.2
-11 -7 12 770.82 49.7
-11 7 12 785.42 52.49
9 -7 -12 -0.7 11.9
-9 -7 12 3.1 7.8
-9 -7 12 -11.8 10.6
-9 7 12 12.4 11
9 7 -12 -8.6 9.7
-9 7 12 13 12.6
7 -7 -12 -9.3 10.9
-7 -7 12 6.2 10.1
-7 -7 12 -3.6 7.2
-7 7 12 16.8 12.3
7 7 -12 -9.9 8.9
-7 7 12 5.8 10.1
-5 -7 12 2303.97 137.49
5 -7 -12 2430.06 138.69
-5 -7 12 2349.67 136.99
5 7 -12 2354.86 137.39
-5 7 12 2275.27 138.59
-5 7 12 2106.59 137.89
3 -7 -12 39 11.4
3 -7 -12 41.9 11.1
-3 -7 12 40.7 10.4
-3 -7 12 18.6 8.2
-3 7 12 30.5 9.5
-3 7 12 34.7 11.6
3 7 -12 36.6 9.6
1 -7 -12 607.54 40.8
-1 -7 12 636.34 39.6
1 -7 -12 621.94 41.4
-1 -7 12 605.94 41
-1 7 12 630.44 40.5
1 7 -12 631.94 40.6
1 7 -12 593.34 40.4
-1 7 12 593.34 41.4
1 -7 12 444.76 30.1
1 -7 12 442.26 32
-1 -7 -12 450.05 31.4
-1 -7 -12 463.45 31.1
-1 7 -12 440.46 30.9
-1 7 -12 447.86 31
1 7 12 444.16 31.9
1 7 12 386.96 31
3 -7 12 198.28 19.6
3 -7 12 178.08 17.8
-3 -7 -12 204.48 17.8
-3 -7 -12 161.68 18.1
3 7 12 191.08 19.2
-3 7 -12 165.18 18.2
-3 7 -12 191.88 18.2
-5 -7 -12 268.07 21.7
-5 -7 -12 276.47 21.7
5 -7 12 274.97 23.7
-5 7 -12 275.97 22.4
5 7 12 248.78 22.1
-5 7 -12 278.27 22.8
-7 -7 -12 893.91 56.59
-7 -7 -12 927.51 56.59
7 -7 12 934.01 58.29
7 7 12 929.81 56.79
-7 7 -12 924.51 58.09
-7 7 -12 886.31 57.29
9 -7 12 464.95 34
-9 -7 -12 474.65 31.1
-9 -7 -12 488.95 30.8
-9 7 -12 467.15 33.6
-9 7 -12 434.16 32.6
-11 7 -12 97.89 13.2
-13 7 -12 7.8 9.9
-15 7 -12 650.93 42.9
-14 -8 12 115.99 14.2
-14 8 12 92.09 18.8
-12 -8 12 179.38 19.9
-12 8 12 177.38 21.3
-10 -8 12 40.1 9
-10 -8 12 44.2 12.2
10 8 -12 52.49 11.8
-10 8 12 39.6 14.3
-8 -8 12 78.49 13.9
-8 -8 12 108.29 12
8 -8 -12 110.79 16.2
-8 8 12 126.69 15.2
8 8 -12 97.59 13.1
-8 8 12 76.09 15.8
6 -8 -12 238.88 24.1
-6 -8 12 237.28 19.8
-6 -8 12 226.08 22
-6 8 12 256.17 25
-6 8 12 258.67 23
6 8 -12 247.38 21.2
-4 -8 12 34.2 8.9
4 -8 -12 52.09 11.9
-4 -8 12 52.89 11.3
-4 8 12 63.59 12.9
4 8 -12 38.5 10.3
-4 8 12 58.09 11.4
2 -8 -12 7625.84 439.16
-2 -8 12 7320.37 438.66
0 -8 -12 16.4 9.6
0 -8 12 23.7 10.4
0 -8 -12 12.2 10
0 -8 12 20.7 8.3
0 8 12 2.5 8.8
0 8 -12 12 9.6
0 8 -12 14.2 8.6
0 8 12 2.1 10.5
-2 -8 -12 2005.1 109.99
2 -8 12 1791.42 109.39
-2 -8 -12 1724.73 109.59
2 -8 12 1751.62 109.99
-2 8 -12 1737.13 109.49
2 8 12 1898.41 109.99
-2 8 -12 1857.21 109.79
4 -8 12 10.4 10.2
-4 -8 -12 25.2 9.4
-4 -8 -12 7.3 9
4 8 12 3.9 9.6
-4 8 -12 6.4 9.4
-4 8 -12 14.2 9.3
-6 -8 -12 54.79 10.1
6 -8 12 49 12
-6 -8 -12 38.5 9.8
6 8 12 53.39 10.4
-6 8 -12 38.3 10
-6 8 -12 52.29 10.9
8 -8 12 999.5 67.29
-8 -8 -12 1035.1 65.39
-8 -8 -12 1121.59 65.19
-8 8 -12 1179.58 66.49
8 8 12 1008.1 65.39
-8 8 -12 1061.49 67.19
-10 -8 -12 13.7 8.2
-10 -8 -12 18.2 7.7
-10 8 -12 35.9 10.7
-12 8 -12 463.15 32.8
-14 8 -12 -3.1 10.2
-15 -9 12 20 10.5
-15 9 12 3.4 16.6
-13 -9 12 4 10.8
-13 9 12 11 15
-11 -9 12 22.2 11.2
-11 -9 12 6.5 7.5
-11 9 12 13.8 14.6
9 -9 -12 25.9 13.6
-9 -9 12 24.2 11.4
-9 -9 12 23.8 8.6
-9 9 12 32.1 14
9 9 -12 25.3 10.6
-7 -9 12 6.8 10.7
7 -9 -12 13.7 12.1
-7 -9 12 7 7.9
7 9 -12 -8.4 9.2
-7 9 12 -0.4 12.7
-7 9 12 9.8 10.9
-5 -9 12 1088.69 67.49
5 -9 -12 1088.49 69.49
-5 -9 12 1114.19 68.29
5 9 -12 1090.99 67.99
-5 9 12 1140.29 70.19
-5 9 12 1078.49 69.19
-3 -9 12 549.25 39.4
3 -9 -12 563.34 40.4
3 -9 -12 543.05 40.3
-3 -9 12 638.54 38.5
3 9 -12 644.44 39.4
-3 9 12 547.35 40.8
-3 9 12 572.54 39.7
-1 -9 12 3315.67 178.48
1 -9 -12 2934.41 178.88
1 -9 -12 2988 178.98
-1 -9 12 3039 178.78
1 9 -12 3002.2 178.48
1 9 -12 3065.59 178.68
-1 9 12 2950.7 178.78
-1 9 12 2749.92 178.98
-1 -9 -12 104.49 14.3
-1 -9 -12 174.68 17.6
1 -9 12 120.09 13.5
1 -9 12 133.19 15.1
-1 9 -12 133.59 14.5
1 9 12 141.89 14.9
1 9 12 163.98 16.3
-1 9 -12 108.59 14.3
-3 -9 -12 9 9.4
-3 -9 -12 4.3 9.5
3 -9 12 -2.3 10.4
3 9 12 14.4 10.4
-3 9 -12 30.6 10
-3 9 -12 -6.1 9.2
-5 -9 -12 124.79 13.6
5 -9 12 123.49 15.3
-5 -9 -12 124.79 13.7
5 9 12 116.89 14.2
-5 9 -12 133.09 15
-5 9 -12 98.59 13.4
-7 -9 -12 423.86 28.1
-7 -9 -12 399.26 28.3
7 -9 12 384.66 31.1
7 9 12 420.96 28.7
-7 9 -12 372.16 30.3
-7 9 -12 340.37 29.1
-9 -9 -12 405.66 28.7
-9 -9 -12 411.46 29.3
9 -9 12 480.25 38.2
-9 9 -12 423.56 30.8
-9 9 -12 416.66 32.1
-11 9 -12 4.8 10.4
-13 9 -12 198.38 21
-15 9 -12 127.89 15.3
-14 -10 12 25.8 11.4
-14 10 12 10.6 16.7
-12 -10 12 19.7 11.6
-12 10 12 34.5 16.2
-10 -10 12 11.6 11.8
-10 -10 12 14.9 8.5
-10 10 12 8.2 14.3
-8 -10 12 39.9 9.1
8 -10 -12 45.1 14.2
-8 -10 12 38.7 12.1
8 10 -12 24.8 10.8
-8 10 12 53.79 13.2
-8 10 12 19.6 13.8
6 -10 -12 -0.6 11.9
-6 -10 12 1.2 7.8
-6 -10 12 13.1 10.5
-6 10 12 -12.5 9.7
-6 10 12 -14 12.1
6 10 -12 -1.5 9.8
-4 -10 12 13.1 10.4
4 -10 -12 0 11.2
-4 -10 12 -7.9 7.5
-4 10 12 10.1 12.4
-4 10 12 -1.5 9.5
4 10 -12 6.7 10.2
2 -10 -12 2425.36 132.69
-2 -10 12 2127.19 131.19
-2 -10 12 2152.58 131.79
2 -10 -12 2142.59 132.29
-2 10 12 2391.16 132.89
2 10 -12 2054.39 131.39
-2 10 12 2086.19 131.89
0 -10 -12 25 9.8
0 -10 -12 8.3 10.5
0 -10 12 15.6 10.9
0 -10 12 8.7 8.4
0 10 -12 4.8 9.8
0 10 -12 3.2 9.6
0 10 12 7.2 11.3
0 10 12 22.1 10
-2 -10 -12 86.79 13.3
2 -10 12 91.49 13.8
2 -10 12 91.69 11.8
-2 -10 -12 72.19 12.6
-2 10 -12 80.79 12.4
-2 10 -12 103.09 12.9
2 10 12 75.29 13.5
4 -10 12 89.39 14.2
-4 -10 -12 100.49 13.5
-4 -10 -12 94.49 12.4
4 10 12 116.19 14
-4 10 -12 75.99 13.3
-4 10 -12 80.99 12.7
-6 -10 -12 6 9.9
-6 -10 -12 3.5 9.8
6 -10 12 5.5 11.5
-6 10 -12 10 10.2
-6 10 -12 2.2 10.6
6 10 12 12.9 10.2
-8 -10 -12 63.09 11.1
8 -10 12 59.19 14.4
-8 -10 -12 42.2 10.4
8 10 12 58.39 11.1
-8 10 -12 43.9 11.6
-8 10 -12 35.5 12.1
-10 -10 -12 27.1 9.8
-10 -10 -12 8 8.1
-10 10 -12 1.8 10.1
-12 10 -12 140.79 15.9
-14 10 -12 -6.7 11.2
-15 -11 12 11.3 10.7
-13 -11 12 11.2 11.9
-13 11 12 28.5 16.4
-11 -11 12 18.4 12.2
-11 11 12 20.7 15.6
-9 -11 12 322.97 27.9
-9 -11 12 372.36 25.7
-9 11 12 268.67 31.9
9 11 -12 400.86 28
-7 -11 12 17.9 11.2
7 -11 -12 34.3 13.8
-7 -11 12 9.9 8.5
-7 11 12 19.5 11.9
-7 11 12 17.3 13.3
7 11 -12 16.2 10.6
-5 -11 12 28.6 11.6
-5 -11 12 30.5 9.5
5 -11 -12 20 12.5
-5 11 12 14 13.1
5 11 -12 24.7 11
-5 11 12 35.1 11.7
-3 -11 12 1607.74 104.69
3 -11 -12 1682.33 105.69
3 -11 -12 1801.22 105.89
-3 -11 12 1762.02 104.29
3 11 -12 1746.53 104.59
-3 11 12 1780.02 106.29
-3 11 12 1719.23 105.39
1 -11 -12 8374.86 509.75
1 11 -12 8909.81 509.85
-1 11 12 8740.23 509.95
1 -11 12 381.46 26.6
-1 -11 -12 362.46 28.4
1 -11 12 349.87 29.1
-1 -11 -12 333.97 28.1
1 11 12 330.17 29.5
-1 11 -12 336.87 28
-1 11 -12 383.66 27.9
3 -11 12 79.99 14.2
-3 -11 -12 106.19 13.6
-3 -11 -12 77.29 13.2
-3 11 -12 87.69 13.5
3 11 12 100.49 14.3
-3 11 -12 54.89 12.5
5 -11 12 69.79 14.1
-5 -11 -12 80.69 12.6
-5 -11 -12 74.39 12.3
-5 11 -12 54.49 12.5
-5 11 -12 44.3 12.6
5 11 12 84.39 13.2
-7 -11 -12 334.77 26.3
7 -11 12 293.27 29.2
-7 -11 -12 361.06 25.9
-7 11 -12 328.27 27.1
7 11 12 328.27 26.4
-7 11 -12 324.17 28.2
-9 -11 -12 719.43 47
-9 -11 -12 764.02 46.5
-9 11 -12 701.03 48.1
-11 -11 -12 22.9 8.6
-11 -11 -12 23.7 9.4
-11 11 -12 9.4 11.1
-13 11 -12 700.63 46.7
-14 -12 12 21.7 12.2
-14 12 12 36.4 18.1
-12 -12 12 419.46 31.9
-12 12 12 393.56 37.1
-10 -12 12 31.1 12
-10 12 12 9 14.8
8 -12 -12 148.59 20.2
-8 -12 12 156.88 16.6
-8 -12 12 149.59 16.4
-8 12 12 140.79 19.9
8 12 -12 142.39 16.3
-6 -12 12 211.08 22.9
-6 -12 12 246.48 20.6
6 -12 -12 239.68 26
-6 12 12 201.78 21.7
-6 12 12 263.37 27.5
6 12 -12 244.68 22.6
4 -12 -12 332.47 29.5
-4 -12 12 335.57 27.9
-4 -12 12 322.77 25.6
-4 12 12 388.26 31
-4 12 12 329.17 28.2
4 12 -12 318.37 26.9
-2 -12 12 3866.51 234.48
2 -12 -12 4001.9 235.78
-2 -12 12 3944.51 235.08
2 -12 -12 4157.88 235.78
2 12 -12 3851.81 234.68
-2 12 12 3863.71 235.78
-2 12 12 4080.99 235.68
0 -12 12 1.3 10.9
0 -12 -12 -5.2 10.8
0 -12 12 -3.8 8.2
0 -12 -12 4.9 10.8
0 12 -12 -3.5 10.7
0 12 12 -0.8 12
0 12 -12 6.6 10
-2 -12 -12 136.79 16.6
2 -12 12 145.59 17.8
-2 -12 -12 126.49 15.8
2 -12 12 170.78 18.1
-2 12 -12 154.68 16.4
-2 12 -12 184.98 19.4
2 12 12 123.69 16.5
4 -12 12 0.8 12.1
-4 -12 -12 1.3 10.4
-4 -12 -12 14.3 10.9
-4 12 -12 9.8 10.6
4 12 12 10.6 11.4
-4 12 -12 14.6 11
-6 -12 -12 -2.7 10.4
-6 -12 -12 0.8 10.3
6 -12 12 11.1 13.1
-6 12 -12 21.5 11.6
-6 12 -12 14 10.8
6 12 12 0 11
-8 -12 -12 790.72 49
-8 -12 -12 759.12 49.5
-8 12 -12 707.23 50.29
8 12 12 787.62 49.7
-10 -12 -12 83.29 12.4
-10 -12 -12 75.19 11.2
-10 12 -12 66.09 13.3
-12 12 -12 251.27 24
-14 12 -12 38.2 12.7
-15 -13 12 107.79 14.6
-13 -13 12 121.99 16.4
-13 13 12 122.19 21.8
-11 -13 12 224.08 23.8
-11 13 12 235.78 25.5
-9 -13 12 5.4 12
-9 13 12 11 15.3
-7 -13 12 13.2 11.8
7 -13 -12 -2.2 13.9
-7 -13 12 4.3 8.3
-7 13 12 -10.2 13.9
7 13 -12 -10.1 11.2
-7 13 12 7.2 12.1
5 -13 -12 2959.8 178.78
-5 -13 12 2889.71 177.38
-5 -13 12 3108.99 176.98
-5 13 12 3005.2 179.18
-5 13 12 2839.22 178.58
5 13 -12 3034.5 177.28
3 -13 -12 9.9 12.4
-3 -13 12 8.4 8.6
3 -13 -12 -0.3 11.8
-3 -13 12 19.8 11.8
3 13 -12 23.4 11.1
-3 13 12 15.3 11.1
-3 13 12 14.4 13.4
1 -13 -12 -8.9 11
-1 -13 12 -7.8 8.9
1 -13 -12 -5.1 11.8
-1 -13 12 8.4 11.4
1 13 -12 17.8 10.8
-1 13 12 -8.5 12.4
-1 -13 -12 1426.46 87.89
1 -13 12 1461.25 87.99
-1 -13 -12 1351.66 87.39
1 -13 12 1455.05 86.79
-1 13 -12 1342.47 86.89
-1 13 -12 1473.55 87.69
1 13 12 1386.06 87.99
-3 -13 -12 54.09 12.6
-3 -13 -12 27 12.4
3 -13 12 35.2 13.4
-3 13 -12 31.6 11.7
3 13 12 45.5 13.1
-3 13 -12 41.6 12.4
-5 -13 -12 175.28 18.3
5 -13 12 135.59 18.1
-5 -13 -12 148.39 16.6
-5 13 -12 149.39 17.2
-5 13 -12 135.69 17.8
5 13 12 143.49 17.5
-7 -13 -12 1037.1 64.29
-7 -13 -12 1063.99 65.09
7 -13 12 1002.3 67.29
-7 13 -12 987.1 65.19
7 13 12 1031.2 65.09
-9 -13 -12 4.9 10
-9 -13 -12 19.8 11.2
-9 13 -12 0.3 11.3
-11 -13 -12 138.79 14.7
-11 -13 -12 112.09 13.4
-11 13 -12 120.69 16.1
-13 13 -12 6 11.8
-14 -14 12 13.5 12.4
-14 14 12 -1.2 17.9
-12 -14 12 28.2 13.1
-12 14 12 21 17.8
-10 -14 12 11.6 12.5
-10 14 12 10.2 16.3
-8 -14 12 91.39 14.5
-8 14 12 69.99 17.5
6 -14 -12 1745.63 106.99
-6 -14 12 1859.41 104.49
-6 -14 12 1604.24 104.49
6 14 -12 1819.92 104.79
-6 14 12 1709.33 106.59
-6 14 12 1547.05 106.79
4 -14 -12 822.62 54.69
-4 -14 12 877.21 51.89
-4 -14 12 736.53 52.69
-4 14 12 721.83 54.99
-4 14 12 773.82 53.99
4 14 -12 841.72 52.49
-2 -14 12 78.29 12.4
2 -14 -12 93.99 15.5
2 -14 -12 54.59 14.9
-2 -14 12 72.89 14.8
-2 14 12 90.29 14.6
-2 14 12 63.49 16.4
2 14 -12 59.59 13.3
0 -14 -12 6.1 12.1
0 -14 12 0.3 9.2
0 -14 -12 -6 11.6
0 -14 12 6.7 12.2
0 14 -12 12.8 10.8
0 14 12 24.3 13.2
-2 -14 -12 3381.96 215.98
2 -14 12 4033.4 218.78
-2 -14 -12 3624.04 216.68
2 -14 12 3609.84 216.78
-2 14 -12 3755.72 216.78
2 14 12 3262.97 216.38
-2 14 -12 3801.02 216.18
-4 -14 -12 112.09 15.9
-4 -14 -12 92.29 14.2
4 -14 12 75.89 16.3
-4 14 -12 86.89 15
4 14 12 95.89 16
-4 14 -12 84.69 14.5
-6 -14 -12 545.25 38.7
6 -14 12 526.05 41.8
-6 -14 -12 574.64 39.9
-6 14 -12 521.35 40.5
6 14 12 480.35 39.7
-6 14 -12 685.83 40.5
-8 -14 -12 39.9 12.7
-8 -14 -12 43.6 11.6
-8 14 -12 11 12.3
-10 -14 -12 318.57 25.1
-10 14 -12 297.57 27.7
-12 -14 -12 53.99 10.2
-12 14 -12 49.5 13.7
-13 -15 12 204.78 20.6
-13 15 12 201.58 26
-11 -15 12 68.59 14.3
-11 15 12 22.7 19
-9 -15 12 133.59 16.9
-9 15 12 102.09 20.2
-7 -15 12 48.4 13.1
7 -15 -12 37.7 19.2
-7 15 12 39.5 16.4
5 -15 -12 760.32 58.59
-5 -15 12 982.7 56.09
-5 -15 12 804.52 56.69
-5 15 12 1011.5 59.39
-5 15 12 703.43 58.99
5 15 -12 929.11 56.99
-3 -15 12 720.73 45.1
-3 -15 12 695.03 46.9
3 -15 -12 624.54 47.6
-3 15 12 693.03 47.2
-3 15 12 608.44 48.4
3 15 -12 682.13 45.9
-1 -15 12 971.7 64.29
-1 -15 12 1076.09 63.19
1 -15 -12 964.7 64.49
1 -15 -12 989 64.69
1 15 -12 976.3 63.49
-1 15 12 951.4 65.29
1 -15 12 741.73 43.2
-1 -15 -12 542.95 44.2
1 -15 12 621.24 45
-1 -15 -12 642.64 44.5
-1 15 -12 655.93 43.5
1 15 12 522.25 44.5
3 -15 12 184.58 21.1
-3 -15 -12 200.78 21
-3 -15 -12 226.98 22.9
3 15 12 207.88 21.6
-3 15 -12 153.78 19.2
-3 15 -12 162.78 18.6
-5 -15 -12 531.95 43.5
-5 -15 -12 603.14 42.5
5 -15 12 601.94 45.1
5 15 12 559.74 43.8
-5 15 -12 699.23 44.8
-5 15 -12 702.43 43.8
-7 -15 -12 -0.1 10.9
-7 -15 -12 13.1 14.9
-7 15 -12 -4.8 11.9
-9 -15 -12 657.63 45.5
-9 15 -12 723.43 47.6
-11 -15 -12 2.7 9.8
-11 15 -12 -4.9 12.5
-13 15 -12 175.98 19.9
-12 -16 12 49 13.9
-12 16 12 32.1 19.7
-10 -16 12 14.3 13.1
-10 16 12 -0.8 17.2
-8 -16 12 664.73 44
-8 16 12 582.64 48.4
-6 -16 12 3.5 12.1
6 -16 -12 -11.2 14.2
-6 16 12 4.9 14.8
-4 -16 12 6.2 9.6
-4 -16 12 -2.3 12.2
4 -16 -12 -5 13.8
-4 16 12 7.7 14.3
-4 16 12 -11.7 12
4 16 -12 2.3 12
2 -16 -12 641.64 48.1
2 -16 -12 609.74 47.4
-2 -16 12 697.93 47.4
-2 -16 12 815.02 46.5
2 16 -12 706.03 46.6
-2 16 12 565.34 48.8
0 -16 -12 3.6 13.5
0 -16 12 15.1 13.6
0 -16 12 10.3 10.3
0 -16 -12 12.4 12.3
0 16 12 20.6 14.6
0 16 -12 12.8 11.9
-2 -16 -12 -1.2 12.6
-2 -16 -12 12.9 13.2
2 -16 12 12.2 13.7
2 16 12 -9 13.8
-2 16 -12 9.9 12
-2 16 -12 0 12.2
-4 -16 -12 1.4 12.1
4 -16 12 -3.3 13.7
-4 -16 -12 -0.1 12.9
-4 16 -12 7.1 12.6
-4 16 -12 17.8 13
4 16 12 15.3 13.8
6 -16 12 651.73 47.1
-6 -16 -12 669.23 43.4
-6 16 -12 551.84 44
-8 -16 -12 80.89 14.5
-8 16 -12 72.89 15.2
-10 -16 -12 14.5 11.3
-10 16 -12 -13.1 12.6
-12 -16 -12 275.57 24.3
-12 16 -12 351.26 28.9
-13 -17 12 23.9 14
-13 17 12 30.2 20
-11 -17 12 -18.9 12.6
-11 17 12 -30.1 17.9
-9 -17 12 876.81 57.59
-9 17 12 878.01 62.49
-7 -17 12 42.4 13.8
-7 17 12 43.1 17.4
5 -17 -12 383.76 34.3
-5 -17 12 358.56 30.7
-5 17 12 384.66 32.7
-5 17 12 290.67 34.1
-3 -17 12 173.48 18.5
-3 -17 12 199.88 20.9
3 -17 -12 162.48 20.6
3 17 -12 168.98 19.5
-3 17 12 203.58 22.2
-1 -17 12 17.2 13.4
-1 -17 12 8.5 10.6
1 -17 -12 -1.3 13.2
1 -17 -12 -9.4 13.1
1 17 -12 -7.5 11.4
-1 17 12 -5.5 14.2
1 -17 12 93.99 13.9
1 -17 12 62.19 16
-1 -17 -12 61.29 15.7
-1 -17 -12 68.29 15.3
-1 17 -12 50.19 13.5
1 17 12 51.59 16
-3 -17 -12 52.79 15.1
3 -17 12 29.1 14.6
-3 -17 -12 38.5 13.8
3 17 12 10.9 15.1
-3 17 -12 44.9 14.1
-3 17 -12 49.3 13.6
5 -17 12 4458.05 262.07
-5 -17 -12 4172.18 260.07
-5 17 -12 4534.25 260.77
-7 -17 -12 88.89 15.2
-7 17 -12 70.89 15.7
-9 -17 -12 12.1 12.4
-9 17 -12 -0.2 13.8
-11 -17 -12 12.1 11.4
-11 17 -12 -12.3 13.7
-13 -17 -12 119.29 14.2
-13 17 -12 145.69 19.1
-12 -18 12 238.48 25.9
-12 18 12 221.48 28.1
-10 -18 12 112.69 17.1
-10 18 12 85.49 21.9
-8 -18 12 73.29 15.7
-8 18 12 75.69 19.5
-6 -18 12 -11.7 12.8
-6 18 12 20.7 16.8
-4 -18 12 21.1 13.9
4 -18 -12 -1.6 15.2
-4 18 12 20.3 16.3
2 -18 -12 191.68 21.9
-2 -18 12 187.88 20.4
2 -18 -12 171.98 21.1
-2 -18 12 137.19 17.5
2 18 -12 145.19 18.9
-2 18 12 178.48 22.6
0 -18 -12 30.5 14.7
0 -18 -12 6.7 13.8
0 -18 12 29.1 11.3
0 -18 12 28.4 14.5
0 18 -12 21.4 13
0 18 12 -5.1 15.1
-2 -18 -12 160.18 19.6
2 -18 12 185.58 21.8
2 18 12 157.58 21.4
-2 18 -12 148.49 18.9
4 -18 12 256.97 28.1
-4 -18 -12 279.97 28.8
-4 18 -12 313.97 32.7
-4 18 -12 345.37 29.3
-6 -18 -12 1247.58 77.69
-6 18 -12 1209.68 78.39
-8 -18 -12 117.29 16.9
-8 18 -12 88.79 17.4
-10 -18 -12 50.29 13.6
-10 18 -12 54.59 15.6
-12 -18 -12 9.7 11.4
-12 18 -12 28.5 15
-13 19 12 578.44 53.79
-11 -19 12 364.16 30.6
-11 19 12 300.37 33.6
-9 -19 12 11.8 13.7
-9 19 12 8.3 19.6
-7 -19 12 13.9 13.8
-7 19 12 -8.7 16.5
5 -19 -12 25.8 17.3
-5 -19 12 35.9 15
-5 19 12 43.4 18.1
-3 -19 12 65.89 16.3
3 -19 -12 68.19 17
-3 19 12 59.39 18.1
1 -19 -12 98.29 18.8
1 -19 -12 69.19 17.2
-1 -19 12 117.79 17.9
-1 19 12 92.99 19.8
1 19 -12 101.19 16.6
1 -19 12 42.9 16.5
-1 -19 -12 44.7 15.9
-1 19 -12 79.29 16.2
1 19 12 44.4 17.5
3 -19 12 248.08 27.1
-3 -19 -12 283.47 28.5
-3 19 -12 285.47 28.2
-5 -19 -12 106.49 17
-5 19 -12 113.49 17.8
-7 -19 -12 17.5 13.5
-7 19 -12 13.5 14.3
-9 -19 -12 1491.35 96.89
-9 19 -12 1666.73 99.09
-11 -19 -12 -7.4 11.8
-11 19 -12 -9.8 14.4
-12 20 12 1198.18 81.79
-10 -20 12 3.3 13.9
-10 20 12 14 19.1
-8 -20 12 64.09 15.9
-8 20 12 41 20.6
-6 -20 12 5.2 14
-6 20 12 7.8 18
-4 -20 12 225.68 22.6
4 -20 -12 182.08 24.2
-4 20 12 159.98 24.8
-2 -20 12 318.57 31.3
2 -20 -12 302.27 32
-2 20 12 271.17 30
0 -20 -12 105.49 18.8
0 -20 12 146.19 20.5
0 20 12 98.69 20.5
0 20 -12 135.99 19.5
-2 -20 -12 802.32 58.79
2 -20 12 827.12 60.49
-2 20 -12 973.6 59.59
4 -20 12 9.5 16.8
-4 -20 -12 33.1 14.7
-4 20 -12 29 15
-6 -20 -12 -6.1 13.5
-6 20 -12 12.1 14.2
-8 -20 -12 1043.8 73.69
-8 20 -12 1288.07 75.89
-10 -20 -12 66.49 14.9
-10 20 -12 65.79 17.5
-12 20 -12 26.4 16.2
-11 21 12 25.1 20.2
-9 -21 12 142.59 19.1
-9 21 12 80.49 22.4
-7 -21 12 -7.8 14.7
-7 21 12 -21.6 19
-5 -21 12 -12.5 14.1
-5 21 12 -24.7 18.7
-3 -21 12 82.59 17.3
3 -21 -12 73.59 19.4
-3 21 12 61.79 20.2
-1 -21 12 -4 14.8
1 -21 -12 34.3 16.2
-1 21 12 14.7 18.2
1 -21 12 22.2 16.5
-1 -21 -12 25.3 15.5
-1 21 -12 24.8 15.1
3 -21 12 10 16.8
-3 -21 -12 17.1 14.9
-3 21 -12 3.2 14.3
-5 -21 -12 234.58 24.9
-5 21 -12 265.37 28.4
-7 -21 -12 24.3 14.7
-7 21 -12 8.8 14.3
-9 -21 -12 66.59 15.6
-9 21 -12 93.59 18.5
-11 21 -12 1 15.9
-12 22 12 182.28 28.7
-10 -22 12 123.09 18.8
-10 22 12 98.89 23.9
-8 -22 12 102.19 18
-8 22 12 68.69 22.3
-6 -22 12 2.2 14.8
-6 22 12 -24.9 19.1
4 -22 -12 20.7 18.8
-4 -22 12 36.6 16.1
-4 22 12 17.8 20.5
-2 -22 12 94.89 19.1
2 -22 -12 114.79 20.5
-2 22 12 146.59 37.6
0 -22 -12 48.8 16.9
0 -22 12 45.1 17.4
2 -22 12 145.19 22.3
-2 -22 -12 120.79 20.4
-2 22 -12 133.99 20
-4 -22 -12 19 15.3
-4 22 -12 27.7 16.2
-6 -22 -12 636.54 48.6
-6 22 -12 702.43 49.6
-8 -22 -12 268.67 29.6
-8 22 -12 307.27 31.8
-10 -22 -12 54.29 15.1
-10 22 -12 29.1 17
-11 23 12 32.3 22.4
-9 -23 12 60.79 17
-9 23 12 47.8 22.2
-7 -23 12 28.6 16.3
-7 23 12 46.5 21.2
-5 -23 12 -0.4 15.4
-5 23 12 -25.8 19.5
-3 -23 12 78.59 18.5
3 -23 -12 71.29 20.3
1 -23 -12 503.65 41.2
-1 -23 12 434.56 40.1
-1 -23 -12 9.3 15.9
1 -23 12 -4.5 16.6
-3 -23 -12 35 17.1
-3 23 -12 -11.8 15.4
-7 -23 -12 18.1 15.4
-7 23 -12 38 16.6
-9 -23 -12 110.09 18.1
-9 23 -12 83.09 19.4
-11 23 -12 -10.8 16.4
-10 24 12 104.09 25.8
-8 -24 12 64.39 17.7
-8 24 12 24.7 22.5
-6 -24 12 88.79 18.9
-6 24 12 87.59 24.1
-4 -24 12 8.7 15.9
2 -24 -12 430.16 39.1
-2 -24 12 316.47 36.1
0 -24 12 -16.5 16.8
0 -24 -12 5.7 16.4
-2 -24 -12 147.79 22.2
2 -24 12 163.18 24.4
-4 -24 -12 306.07 31.7
-4 24 -12 208.98 25.3
-6 -24 -12 416.16 37.7
-6 24 -12 436.96 37.9
-8 -24 -12 18.2 15.2
-8 24 -12 7 16.3
-10 24 -12 13.4 17.1
-11 25 12 39.4 24.5
-9 25 12 160.88 28.8
-7 -25 12 -6 16.3
-7 25 12 41.7 22.9
-5 -25 12 586.74 46.5
-3 -25 12 11.1 17.4
-1 -25 12 10.1 18.1
1 -25 -12 19 18.9
-1 -25 -12 243.38 27.1
1 -25 12 242.88 29.3
-3 -25 -12 -5.6 16.8
-5 -25 -12 940.01 61.69
-5 25 -12 816.42 60.69
-7 -25 -12 62.79 17.6
-7 25 -12 60.59 18.3
-9 25 -12 -3.4 16.4
-10 26 12 -20.7 23.1
-8 26 12 7.3 22.8
-6 -26 12 218.28 25.4
-4 -26 12 121.29 21
2 -26 -12 3.2 20
-2 -26 12 -0.5 17.8
0 -26 12 2.9 18.3
0 -26 -12 21.6 19.1
-2 -26 -12 34.2 18.3
-4 -26 -12 -4.2 16.6
-6 -26 -12 77.39 19.2
-6 26 -12 33.5 22.8
-8 26 -12 288.17 31.2
-10 26 -12 -12.6 17.6
-7 -27 12 17.4 17.8
-5 -27 12 59.29 19.4
-3 -27 12 13.8 18.2
1 -27 -12 38.1 20.6
-1 -27 12 34.3 19.5
-1 -27 -12 5.4 18.3
-3 -27 -12 70.69 19.6
-5 -27 -12 27.1 18.3
-9 27 -12 168.88 25.4
-6 -28 12 132.99 22.6
-4 -28 12 199.68 26
-2 -28 12 284.17 31
0 -28 12 21.9 20.1
0 -28 -12 -9.3 19
-2 -28 -12 270.77 29.7
-4 -28 -12 25.7 18.6
-5 -29 12 235.68 27.9
-3 -29 12 14.8 19.8
-1 -29 12 39.1 21
-1 -29 -12 36.1 20.3
-3 -29 -12 1 18.5
-5 -29 -12 26.9 28.5
-4 -30 12 19.2 19.9
-2 -30 12 660.63 55.19
0 -30 -12 5 21
-2 -30 -12 27.2 20.3
-4 -30 -12 29.6 19.5
-3 -31 12 131.59 26.1
-1 -31 -12 28 20.9
-3 -31 -12 -4 19.1
-2 -32 12 168.08 28.5
-2 -32 -12 -3.5 20.2
-1 -33 -12 61.79 24.3
-16 0 13 -12.8 12.5
-14 0 13 -7.7 12.1
-12 0 13 24.9 12.4
-10 0 13 5.1 9.2
-10 0 13 3.2 11.3
10 0 -13 -14.3 10.1
-8 0 13 -1.4 9.2
8 0 -13 7.4 9.8
-8 0 13 -4.9 10.3
-6 0 13 3.4 9.6
6 0 -13 1.4 9.5
-6 0 13 -0.2 8.3
4 0 -13 -4 9.5
-4 0 13 0.5 7.7
-4 0 13 -3.6 10.1
4 0 -13 2.3 9.9
-2 0 13 -4 9.7
2 0 -13 4.5 9.2
2 0 -13 -6.2 9.4
-2 0 13 -2.9 7.9
0 0 13 17.4 10
0 0 13 -1.3 7.7
0 0 -13 -7.4 8.1
0 0 -13 0.3 9.3
2 0 13 31.4 9.2
2 0 13 38 10.2
-2 0 -13 41 9.4
-2 0 -13 33.4 9.8
-4 0 -13 -0.2 8.4
-4 0 -13 3.9 7.8
4 0 13 -3.2 9.2
6 0 13 -18 8.7
-6 0 -13 12.1 7.9
-6 0 -13 12.2 8.5
-8 0 -13 22 8.3
-8 0 -13 25.6 9
8 0 13 19.9 9.4
-10 0 -13 0 7.6
-10 0 -13 3.6 8.6
-12 0 -13 6.8 8.5
-12 0 -13 10.3 7.6
-15 -1 13 -5.7 12
-15 1 13 -13.1 12.6
-13 -1 13 900.61 56.79
-13 1 13 858.11 57.39
-11 -1 13 218.78 21.3
-11 -1 13 236.28 23.4
-11 1 13 257.87 22.3
-11 1 13 223.48 23.7
11 1 -13 282.17 26.8
-9 -1 13 831.92 52.89
9 -1 -13 898.91 53.79
-9 -1 13 829.92 53.59
-9 1 13 810.52 53.79
9 1 -13 838.92 52.99
-9 1 13 794.52 53.09
-7 -1 13 55.29 11.5
-7 -1 13 52.89 10.4
7 -1 -13 57.99 11.5
7 1 -13 47.8 11.1
-7 1 13 52.29 11.9
-7 1 13 53.49 10.4
-5 -1 13 547.05 38.8
-5 -1 13 618.24 38.2
5 -1 -13 626.04 39
-5 1 13 602.34 38.3
5 1 -13 563.74 38.6
-5 1 13 521.85 38.9
-3 -1 13 26.5 8.6
3 -1 -13 37.7 10.4
3 -1 -13 38.8 10.4
-3 -1 13 23.6 10.3
3 1 -13 28.4 10.3
3 1 -13 27 10.2
-3 1 13 43 9.2
-3 1 13 6.3 10.1
-1 -1 13 22.4 10.6
-1 -1 13 35.7 8.7
1 -1 -13 31.6 10.4
1 -1 -13 29.5 10.3
-1 1 13 25.7 10.5
-1 1 13 33.5 9.1
1 1 -13 25 9.3
1 1 -13 38 10.6
1 -1 13 1824.92 114.19
-1 -1 -13 2016.5 114.59
1 -1 13 1901.81 114.69
-1 -1 -13 1918.31 114.59
-1 1 -13 2019.1 114.59
1 1 13 2041.5 114.89
1 1 13 1766.92 114.29
-1 1 -13 1828.82 114.39
-3 -1 -13 931.71 59.49
-3 -1 -13 1004.9 59.49
3 -1 13 979.9 59.89
3 -1 13 949.01 59.29
3 1 13 961.3 59.89
-3 1 -13 953.3 59.39
-3 1 -13 946.01 59.39
3 1 13 974.7 59.19
5 -1 13 1285.07 80.69
-5 -1 -13 1276.87 80.29
-5 -1 -13 1353.06 80.39
5 1 13 1426.96 80.89
-5 1 -13 1290.87 80.39
-5 1 -13 1357.46 80.49
-7 -1 -13 432.36 29.7
-7 -1 -13 456.55 29.4
7 -1 13 446.26 30.3
-7 1 -13 420.76 29.6
7 1 13 443.56 30.4
-7 1 -13 416.76 29.6
9 -1 13 775.02 54.49
-9 -1 -13 909.71 53.99
-9 -1 -13 874.11 54.09
9 1 13 903.11 54.59
-9 1 -13 881.31 54.29
-9 1 -13 910.21 54.29
-11 -1 -13 152.48 13.3
-11 -1 -13 121.79 14.2
-11 1 -13 145.29 13.8
-11 1 -13 153.38 14.1
-13 1 -13 3.2 8.6
-13 1 -13 -4.4 8
-16 -2 13 6.3 11.7
-16 2 13 9.7 13.5
-14 -2 13 0.8 11.3
-14 2 13 -20 12.1
-12 -2 13 1495.45 86.09
-12 -2 13 1330.27 83.79
-12 2 13 1280.97 84.49
-10 -2 13 24.5 11.6
-10 -2 13 27.6 9.7
10 -2 -13 40.7 12.1
10 2 -13 22.8 10.6
-10 2 13 37.6 12.5
-10 2 13 24.6 10.5
8 -2 -13 370.86 27.5
-8 -2 13 354.66 27.2
-8 -2 13 337.17 25.8
-8 2 13 357.26 26.6
8 2 -13 325.17 26.6
-8 2 13 318.37 27.8
-6 -2 13 171.08 17.3
6 -2 -13 185.98 17.2
-6 -2 13 171.78 16.8
-6 2 13 163.28 17.1
6 2 -13 179.88 17
-6 2 13 202.68 18.1
4 -2 -13 3287.07 190.58
-4 -2 13 3232.98 190.18
-4 -2 13 3223.68 190.48
4 -2 -13 3219.78 190.58
-4 2 13 3193.38 190.58
4 2 -13 3219.68 190.38
-4 2 13 3132.49 190.28
2 -2 -13 2790.62 186.68
2 -2 -13 3389.46 186.98
-2 -2 13 3146.89 186.58
-2 -2 13 3271.17 187.08
-2 2 13 3175.98 186.68
2 2 -13 3208.78 186.88
2 2 -13 3125.59 186.78
-2 2 13 3139.19 186.98
0 -2 13 237.68 19.9
0 -2 -13 233.18 20.7
0 -2 -13 227.38 21.6
0 -2 13 236.38 21.6
0 2 -13 263.87 21.4
0 2 13 245.58 20.4
0 2 13 227.78 22.4
0 2 -13 263.47 21
2 -2 13 4412.26 270.47
-2 -2 -13 4326.77 270.57
-2 -2 -13 4750.72 270.87
2 -2 13 4702.83 270.87
2 2 13 4351.26 270.47
-2 2 -13 4950.6 270.87
2 2 13 4898.31 270.97
-2 2 -13 4416.06 270.57
-4 -2 -13 130.59 13.1
4 -2 13 144.19 14
-4 -2 -13 142.89 15
-4 2 -13 118.29 12.8
-4 2 -13 115.79 12.8
4 2 13 155.38 14
-6 -2 -13 298.47 21.5
-6 -2 -13 267.47 21.8
6 -2 13 269.87 22.8
-6 2 -13 275.27 21.9
-6 2 -13 280.07 21.8
6 2 13 305.87 22.7
-8 -2 -13 1233.18 77.09
8 -2 13 1310.77 77.99
-8 -2 -13 1252.77 77.09
8 2 13 1290.07 77.49
-8 2 -13 1299.77 77.69
-8 2 -13 1292.97 77.49
10 -2 13 15.3 9.9
-10 -2 -13 21.6 8.5
-10 -2 -13 29.1 7.9
-10 2 -13 32.1 9.2
-10 2 -13 20.5 9
-12 2 -13 356.26 25.8
-12 2 -13 345.37 25.4
-14 2 -13 88.09 11.5
-15 -3 13 730.23 46.1
-15 3 13 649.24 48
-13 -3 13 44.3 12.5
-13 3 13 40.6 13.9
-11 -3 13 9.2 11.8
-11 -3 13 35.1 9.6
-11 3 13 33.3 12.9
-9 -3 13 347.17 27.6
-9 -3 13 327.97 25.8
9 -3 -13 372.56 28.8
9 3 -13 354.26 27
-9 3 13 336.17 27.7
-9 3 13 379.16 29.2
-7 -3 13 173.28 17.1
-7 -3 13 158.38 16.8
7 -3 -13 161.88 16.9
7 3 -13 187.78 16.8
-7 3 13 171.88 16.8
-7 3 13 197.98 18.2
5 -3 -13 1086.39 71.39
-5 -3 13 1124.19 70.59
-5 -3 13 1193.18 71.39
-5 3 13 1128.49 71.69
-5 3 13 1238.38 71.19
5 3 -13 1159.68 71.09
-3 -3 13 371.46 26.3
-3 -3 13 351.96 27.9
3 -3 -13 364.46 28.2
3 -3 -13 380.26 28
3 3 -13 352.96 27.6
-3 3 13 429.26 28.7
-3 3 13 380.86 26.9
3 3 -13 342.87 27.6
-1 -3 13 2272.67 135.69
-1 -3 13 2194.38 136.09
1 -3 -13 2347.57 136.09
1 -3 -13 2335.17 136.19
1 3 -13 2292.97 135.99
-1 3 13 2313.17 136.29
1 3 -13 2300.57 135.89
-1 3 13 2207.48 135.79
1 -3 13 11.6 10.2
1 -3 13 31.6 8.7
-1 -3 -13 22.8 9
-1 -3 -13 7.5 9.9
-1 3 -13 24.4 9.8
1 3 13 25.2 9.4
1 3 13 22.5 10.6
-1 3 -13 22.6 9.2
-3 -3 -13 605.14 38.5
-3 -3 -13 607.64 38.5
3 -3 13 565.64 38
3 -3 13 567.34 38.8
-3 3 -13 588.84 38.6
3 3 13 567.04 38.1
-3 3 -13 594.24 38.4
3 3 13 616.64 38.9
-7 -3 -13 0 7.7
-7 -3 -13 9.5 8.4
7 -3 13 -7.6 8.9
7 3 13 5 8.8
-7 3 -13 -18.2 8.2
-7 3 -13 -3.8 8.1
9 -3 13 346.17 27.6
-9 -3 -13 376.26 25.7
-9 -3 -13 381.56 26.1
-9 3 -13 405.76 27.2
-9 3 -13 363.76 27.1
-11 -3 -13 14.5 6.8
-11 3 -13 1.9 8.7
-11 3 -13 6.5 9
-13 3 -13 30.1 9.7
-15 3 -13 129.49 13.6
-16 -4 13 635.34 42.3
-14 -4 13 18.4 11.7
-14 4 13 24.8 14.2
-12 -4 13 15.2 11.4
-12 -4 13 36 9.7
-12 4 13 17.2 13.4
10 -4 -13 956.3 61.69
-10 -4 13 1004.9 59.49
-10 -4 13 941.51 60.19
-10 4 13 905.01 61.39
-10 4 13 922.91 60.89
10 4 -13 995.4 60.19
-8 -4 13 7.9 8.5
-8 -4 13 12.6 11
8 -4 -13 29.6 11.5
8 4 -13 11.9 10.3
-8 4 13 8.1 11.2
-8 4 13 15.6 10.4
6 -4 -13 1028.7 63.59
-6 -4 13 980.2 62.19
-6 -4 13 985.6 62.99
6 4 -13 1033.1 62.89
-6 4 13 1024.5 63.19
-6 4 13 1003.4 63.69
4 -4 -13 409.96 29.5
-4 -4 13 335.97 28.6
-4 -4 13 372.76 27.6
4 -4 -13 453.95 29.8
4 4 -13 402.46 28.7
-4 4 13 400.06 29.9
-4 4 13 405.06 28.6
-2 -4 13 895.91 56.79
-2 -4 13 938.81 57.69
2 -4 -13 939.21 57.59
2 -4 -13 884.41 57.59
2 4 -13 837.82 57.19
-2 4 13 930.21 58.19
2 4 -13 943.11 57.39
-2 4 13 970.1 57.29
0 -4 -13 135.29 14.6
0 -4 13 182.68 16.8
0 -4 -13 157.38 15.7
0 -4 13 159.48 15.9
0 4 13 184.38 17.5
0 4 -13 159.78 18.2
0 4 13 175.18 17.4
0 4 -13 173.28 15.5
2 -4 13 116.19 13.7
-2 -4 -13 143.09 13.1
-2 -4 -13 121.49 13.2
2 -4 13 103.99 12.2
2 4 13 129.19 12.9
-2 4 -13 119.39 13.2
2 4 13 120.09 13.4
-2 4 -13 109.39 12.7
-4 -4 -13 4691.73 283.97
4 -4 13 5030 284.57
4 4 13 5037 284.27
-4 4 -13 4783.72 284.47
-4 4 -13 4613.54 284.07
-6 -4 -13 3660.93 215.98
6 -4 13 3616.34 216.38
-6 -4 -13 3727.53 215.78
-6 4 -13 3457.05 215.98
-6 4 -13 3611.74 216.38
6 4 13 3895.91 216.08
-8 -4 -13 7.9 8.2
8 -4 13 12 9.8
-8 -4 -13 6.1 8
8 4 13 2.6 8.4
-8 4 -13 -0.4 9
-8 4 -13 -7.4 8.7
10 -4 13 -10.7 10.1
-10 -4 -13 9.5 7.1
-10 -4 -13 6 7.4
-10 4 -13 -3.2 8.7
-10 4 -13 -1.4 9
-12 4 -13 277.17 22.5
-14 4 -13 1.8 9.4
-16 4 -13 319.67 24.3
-15 -5 13 35.4 11.9
-15 5 13 39.5 15.5
-13 -5 13 205.88 22.1
-13 5 13 258.87 26.5
-11 -5 13 143.09 14.6
-11 -5 13 155.38 16.5
-11 5 13 135.09 18.5
9 -5 -13 438.66 32
-9 -5 13 386.16 28.2
-9 -5 13 400.86 30.3
-9 5 13 438.46 31
9 5 -13 416.46 29.6
-9 5 13 324.87 31.5
7 -5 -13 219.98 21.5
-7 -5 13 187.18 17.8
-7 -5 13 178.38 17.5
-7 5 13 192.48 19.9
-7 5 13 166.88 18.2
7 5 -13 174.78 19.3
-5 -5 13 2637.64 161.08
5 -5 -13 2649.14 162.08
-5 -5 13 2718.63 161.58
5 5 -13 2751.62 161.48
-5 5 13 2986.4 162.18
-5 5 13 2561.04 162.08
3 -5 -13 4713.03 288.17
-3 -5 13 5003.5 287.77
-3 -5 13 4840.02 287.97
3 -5 -13 4971.7 288.37
3 5 -13 4927.51 287.87
-3 5 13 5011.5 288.27
-3 5 13 4760.32 288.37
-1 -5 13 29.9 10.4
-1 -5 13 40.8 8.7
1 -5 -13 29.2 9.8
1 -5 -13 35.2 10.1
-1 5 13 39.1 9.7
-1 5 13 29.6 11.3
1 5 -13 57.99 10.4
1 5 -13 46.1 10
-1 -5 -13 2.4 9.2
1 -5 13 8.6 7.5
1 -5 13 13.6 9.9
-1 -5 -13 0.5 8.3
-1 5 -13 4.7 9.2
1 5 13 12.7 8.8
-1 5 -13 2 8.2
1 5 13 16.2 10.4
3 -5 13 1900.41 113.69
-3 -5 -13 1785.42 113.09
3 -5 13 1793.52 112.99
-3 -5 -13 1997.9 113.39
3 5 13 1882.51 113.39
-3 5 -13 1943.11 113.49
-3 5 -13 1941.31 113.29
-5 -5 -13 3253.87 182.78
5 -5 13 3199.38 183.18
-5 -5 -13 2886.81 182.38
-5 5 -13 3025.7 183.08
5 5 13 3131.89 182.58
-5 5 -13 3026.1 182.68
-7 -5 -13 77.29 10.4
7 -5 13 72.09 12.3
-7 -5 -13 86.99 11
-7 5 -13 54.59 11.4
-7 5 -13 62.59 11.2
7 5 13 108.09 12
9 -5 13 22.2 10.6
-9 -5 -13 23.6 8.1
-9 -5 -13 30.5 8.2
-9 5 -13 11 9.8
-9 5 -13 12.4 9.7
-11 5 -13 588.24 38.4
-11 5 -13 560.14 41.4
-13 5 -13 77.39 12
-15 5 -13 742.33 47.5
-16 -6 13 7.2 10.6
-14 -6 13 177.58 17.1
-14 6 13 142.29 20.4
-12 -6 13 383.56 28.9
-12 6 13 355.36 32
-10 -6 13 26.8 8.8
-10 -6 13 -5 11.1
-10 6 13 11.6 13.1
10 6 -13 29.7 11.2
8 -6 -13 42.3 12.8
-8 -6 13 37.3 9.5
-8 -6 13 31.8 11.9
-8 6 13 38 13.2
8 6 -13 51.59 11.4
-8 6 13 55.39 12.4
-6 -6 13 551.54 37.1
6 -6 -13 542.05 38.4
-6 -6 13 534.05 35.7
-6 6 13 564.64 37.8
6 6 -13 509.55 36.4
-6 6 13 541.65 38.6
4 -6 -13 753.82 49.6
-4 -6 13 707.93 44.6
-4 -6 13 643.84 45.5
4 -6 -13 702.63 46.5
-4 6 13 704.93 45.8
-4 6 13 724.23 46.9
4 6 -13 683.93 45.3
-2 -6 13 253.87 20.3
2 -6 -13 234.18 22.8
-2 -6 13 244.58 22.5
2 -6 -13 270.97 22.2
-2 6 13 249.48 21.5
2 6 -13 271.17 22
2 6 -13 224.48 21.6
-2 6 13 280.57 23.6
0 -6 -13 112.59 14.4
0 -6 -13 110.29 13.4
0 -6 13 159.58 15.2
0 -6 13 97.89 11.9
0 6 13 139.09 14.9
0 6 -13 121.69 13.3
0 6 13 116.19 13.4
0 6 -13 114.09 12.8
2 -6 13 1408.46 87.69
-2 -6 -13 1388.26 87.99
-2 -6 -13 1524.85 88.09
2 -6 13 1470.45 88.49
-2 6 -13 1447.46 88.09
2 6 13 1559.84 88.49
2 6 13 1394.16 87.79
-2 6 -13 1430.46 88.09
-4 -6 -13 43.9 10.4
-4 -6 -13 53.89 10.6
4 -6 13 81.49 12.4
-4 6 -13 70.99 11.2
4 6 13 93.99 11.9
-4 6 -13 60.79 10.8
-6 -6 -13 14.5 8.9
6 -6 13 13.9 10.3
-6 -6 -13 22.9 8.8
6 6 13 26.5 9.8
-6 6 -13 13 9.4
-6 6 -13 14.5 9.6
-8 -6 -13 1250.97 76.89
-8 -6 -13 1263.67 76.69
8 -6 13 1253.27 78.39
-8 6 -13 1342.87 78.39
-8 6 -13 1320.37 77.69
8 6 13 1198.28 76.79
-10 -6 -13 9.7 7.7
-10 -6 -13 26.4 8.3
-10 6 -13 22.5 10.2
-10 6 -13 14.3 10
-12 6 -13 34.5 10.6
-14 6 -13 35.3 10.9
-15 -7 13 54.89 12.6
-15 7 13 73.49 17.4
-13 -7 13 173.78 17.4
-13 7 13 157.28 20.8
-11 -7 13 680.43 40.7
-11 -7 13 611.34 42.4
-11 7 13 573.74 44.8
-9 -7 13 205.38 18.1
9 -7 -13 195.98 21
-9 -7 13 203.38 19.3
-9 7 13 230.48 21.6
-9 7 13 166.18 20.5
9 7 -13 200.18 18.6
-7 -7 13 348.37 27.5
-7 -7 13 337.77 25.6
7 -7 -13 374.46 29.9
-7 7 13 381.96 28.9
-7 7 13 374.56 30.3
7 7 -13 340.57 27.1
5 -7 -13 5267.77 304.27
-5 -7 13 5121.39 303.27
5 7 -13 5018 303.17
-5 7 13 5060.09 304.07
-5 7 13 5283.17 304.07
3 -7 -13 183.08 20.9
-3 -7 13 202.18 18
-3 -7 13 170.68 20.2
3 -7 -13 221.48 21.6
-3 7 13 216.68 19.7
-3 7 13 215.28 22
3 7 -13 197.48 19.9
1 -7 -13 16.6 10.1
-1 -7 13 13.2 10
1 -7 -13 -5.3 9
-1 -7 13 -1.8 7.6
-1 7 13 -15.8 10.4
1 7 -13 -2.9 9.4
1 7 -13 -3.4 9.4
-1 7 13 5.6 8.3
-1 -7 -13 6167.18 377.26
-1 -7 -13 6498.55 377.56
1 7 13 6818.72 377.66
-1 7 -13 6198.78 377.16
-3 -7 -13 674.43 44.6
3 -7 13 697.93 45.5
-3 -7 -13 669.73 44.5
3 -7 13 719.93 44.6
-3 7 -13 669.03 44.7
-3 7 -13 746.93 45.2
3 7 13 664.83 44.9
-5 -7 -13 642.14 42.3
5 -7 13 666.83 43.6
-5 -7 -13 659.23 42.2
-5 7 -13 660.13 43.1
5 7 13 674.13 42.6
-5 7 -13 615.74 42.5
-7 -7 -13 81.89 10.8
7 -7 13 33.9 11.6
-7 -7 -13 31.1 9.7
-7 7 -13 22.5 10.1
-7 7 -13 52.29 11.5
7 7 13 83.19 11.2
9 -7 13 629.54 43.8
-9 -7 -13 642.14 41.4
-9 -7 -13 658.13 41.2
-9 7 -13 655.43 42.8
-9 7 -13 658.53 43.7
-11 7 -13 20.4 10.5
-13 7 -13 3.5 10.4
-15 7 -13 1058.49 65.89
-14 -8 13 52.29 12.5
-14 8 13 56.49 17
-12 -8 13 274.27 24.2
-12 8 13 259.77 25.7
-10 -8 13 316.77 28.6
-10 -8 13 385.56 26.4
10 8 -13 386.66 28.5
-10 8 13 360.76 31.8
-8 -8 13 1.4 7.7
-8 -8 13 11.6 11
8 -8 -13 -11.4 11.8
8 8 -13 -15.4 9.3
-8 8 13 5.6 10.9
-8 8 13 -3.2 12.6
-6 -8 13 1791.62 106.29
6 -8 -13 1774.32 107.49
-6 -8 13 1709.63 105.59
-6 8 13 1789.12 107.19
-6 8 13 1770.42 107.59
6 8 -13 1718.63 105.99
-4 -8 13 1077.29 66.99
4 -8 -13 1083.09 68.89
-4 -8 13 1042.3 67.69
4 8 -13 1128.79 67.69
-4 8 13 1134.89 68.39
-4 8 13 1076.59 68.89
-2 -8 13 1081.69 68.29
2 -8 -13 985.4 68.59
2 -8 -13 1180.68 68.89
-2 -8 13 1094.99 67.39
-2 8 13 1086.59 69.09
-2 8 13 1157.78 68.49
2 8 -13 1082.89 68.09
2 8 -13 1114.29 68.19
0 -8 13 2450.05 142.59
0 -8 -13 2301.67 143.09
0 -8 13 2441.66 143.19
0 -8 -13 2443.66 143.19
0 8 -13 2358.46 142.79
0 8 -13 2312.47 142.69
0 8 13 2489.25 143.49
0 8 13 2347.97 142.89
-2 -8 -13 324.07 26.4
2 -8 13 368.56 25.6
-2 -8 -13 336.47 26.2
2 -8 13 310.67 27.2
-2 8 -13 340.57 26.4
2 8 13 348.67 27.2
-2 8 -13 317.57 25.8
4 -8 13 138.89 16.4
-4 -8 -13 175.58 16.1
-4 -8 -13 145.89 15.3
-4 8 -13 175.18 18.4
4 8 13 152.28 15.9
-4 8 -13 136.59 15.2
-6 -8 -13 -0.9 9.4
6 -8 13 3.2 10.9
-6 -8 -13 5.8 9.5
-6 8 -13 16.6 9.8
6 8 13 7.6 9.8
-6 8 -13 0.7 9.7
8 -8 13 -8.4 11.1
-8 -8 -13 15.7 8.7
-8 -8 -13 17.2 9.5
-8 8 -13 14.8 10.6
-8 8 -13 16.4 10.1
8 8 13 7.7 9.3
-10 -8 -13 12 8.1
-10 -8 -13 2.7 8.4
-10 8 -13 -4.6 9.7
-12 8 -13 28.8 11
-14 8 -13 280.77 24.3
-15 -9 13 534.95 36.3
-15 9 13 503.15 42.1
-13 -9 13 39.6 12.2
-13 9 13 34.1 16.1
-11 -9 13 161.98 17.2
-11 9 13 134.99 19.8
-9 -9 13 688.53 42.5
-9 -9 13 683.53 44.3
-9 9 13 601.14 46.7
9 9 -13 641.84 43.8
-7 -9 13 260.17 20.3
-7 -9 13 197.58 20.2
7 -9 -13 228.98 25.6
7 9 -13 281.97 22.3
-7 9 13 247.78 23.9
-7 9 13 216.08 22.6
-5 -9 13 409.36 27.5
5 -9 -13 386.86 30.9
-5 -9 13 344.17 29
5 9 -13 362.16 28.8
-5 9 13 407.66 30.1
-5 9 13 373.46 31.6
3 -9 -13 4864.61 283.17
-3 -9 13 4701.33 282.57
3 -9 -13 4834.42 283.27
-3 9 13 4821.52 283.17
3 9 -13 4582.34 282.37
-3 9 13 4940.01 283.47
1 -9 -13 1592.14 90.69
-1 -9 13 1407.06 89.39
1 -9 -13 1419.36 90.39
-1 -9 13 1495.45 90.29
1 9 -13 1542.25 90.09
-1 9 13 1566.94 90.89
1 9 -13 1327.27 89.59
-1 9 13 1473.05 90.19
-1 -9 -13 179.88 19.2
-1 -9 -13 136.09 16.4
1 -9 13 177.38 17.1
1 -9 13 140.99 16.3
-1 9 -13 174.98 16.7
-1 9 -13 151.18 16.2
1 9 13 184.98 20.1
3 -9 13 10.8 11.2
-3 -9 -13 15.7 10.2
-3 -9 -13 26 10.2
3 9 13 22.2 10.8
-3 9 -13 20.4 9.9
-3 9 -13 4.1 9.8
5 -9 13 85.19 13.9
-5 -9 -13 107.49 12.9
-5 -9 -13 69.69 11.8
-5 9 -13 83.59 13.3
-5 9 -13 93.29 13
5 9 13 95.69 13
-7 -9 -13 6.5 9.1
7 -9 13 7 11.4
-7 -9 -13 13 9.5
-7 9 -13 -5.6 10.2
7 9 13 8.5 9.8
-7 9 -13 4.7 10
-9 -9 -13 222.18 21.3
-9 -9 -13 266.27 20.6
-9 9 -13 260.07 22.7
-11 -9 -13 212.38 18.6
-11 9 -13 243.38 22.3
-13 9 -13 429.36 31.9
-14 -10 13 540.45 36.9
-14 10 13 518.75 42.8
-12 -10 13 207.28 22.5
-12 10 13 236.38 25.1
-10 -10 13 251.07 19.4
-10 -10 13 231.58 21.2
-10 10 13 163.68 22.7
8 -10 -13 89.39 16
-8 -10 13 102.09 14
-8 -10 13 81.49 11.3
-8 10 13 69.39 16.2
-8 10 13 90.49 15.6
8 10 -13 78.29 13.3
6 -10 -13 114.69 16.4
-6 -10 13 101.69 12.5
-6 -10 13 85.69 13.9
-6 10 13 120.19 15.5
6 10 -13 87.89 13.5
-6 10 13 91.69 16.6
-4 -10 13 6.8 10.6
-4 -10 13 0 8.2
4 -10 -13 5.8 11.6
-4 10 13 2.1 10.1
4 10 -13 -8.5 9.7
-4 10 13 6.5 12.4
0 -10 -13 113.59 15.3
0 -10 13 123.69 15.2
0 -10 -13 106.39 15.1
0 -10 13 132.19 13.8
0 10 13 113.69 16
0 10 -13 153.78 15.3
0 10 -13 103.39 14.3
0 10 13 147.49 15.2
-2 -10 -13 1306.27 80.59
2 -10 13 1234.28 81.09
-2 -10 -13 1195.98 80.59
2 -10 13 1484.95 80.39
2 10 13 1276.07 80.89
-2 10 -13 1295.17 80.69
-2 10 -13 1350.46 80.59
-4 -10 -13 36.3 10.9
-4 -10 -13 36 10.7
4 -10 13 36.5 12.2
-4 10 -13 20.3 11.3
-4 10 -13 17.8 10.8
4 10 13 58.09 12.1
-6 -10 -13 700.43 42.2
-6 -10 -13 617.74 42.2
6 -10 13 589.54 44.2
-6 10 -13 675.83 43
6 10 13 609.74 42.5
-6 10 -13 623.94 43.8
-8 -10 -13 465.55 32.6
-8 -10 -13 529.95 32.4
8 -10 13 415.56 35.5
-8 10 -13 424.96 33.3
8 10 13 460.75 32.9
-8 10 -13 473.85 34.9
-10 -10 -13 44.3 9.9
-10 -10 -13 48.2 10.8
-10 10 -13 57.09 12.2
-12 10 -13 2130.39 128.29
-14 10 -13 10.7 11.7
-15 -11 13 223.28 22.3
-13 -11 13 11.3 12.3
-13 11 13 2.8 16.6
-11 -11 13 206.38 19.9
-11 11 13 179.38 22.9
-9 -11 13 659.73 38.5
-9 -11 13 499.15 39.7
-9 11 13 542.75 43.6
-7 -11 13 72.39 11.1
-7 -11 13 59.99 12.9
7 -11 -13 61.89 15
7 11 -13 94.79 13.4
-7 11 13 56.69 14
-7 11 13 47.2 15.2
-5 -11 13 451.35 31.7
-5 -11 13 433.56 33.4
5 -11 -13 477.25 35.6
-5 11 13 444.36 34.2
5 11 -13 442.46 33
-5 11 13 470.85 36.5
3 -11 -13 419.66 34.8
-3 -11 13 471.15 34.1
3 -11 -13 429.86 34.9
-3 -11 13 493.65 32.6
3 11 -13 442.76 33.4
-3 11 13 481.45 36.2
-3 11 13 477.75 34.2
1 -11 -13 186.58 19.1
-1 -11 13 211.48 18.9
1 -11 -13 175.48 18.3
-1 -11 13 178.88 18.7
-1 11 13 188.48 18.3
1 11 -13 194.18 20.9
-1 11 13 176.08 19.2
-1 -11 -13 77.59 13.7
1 -11 13 105.49 13.1
-1 -11 -13 113.69 14.3
1 -11 13 96.59 15.2
-1 11 -13 93.69 13.8
-1 11 -13 89.89 13.4
1 11 13 94.99 14.5
-3 -11 -13 15.2 10.8
3 -11 13 38.2 12.4
-3 -11 -13 18.9 10.7
-3 11 -13 49.3 11.8
-3 11 -13 18.3 11
3 11 13 20.1 12
-5 -11 -13 17.2 10.3
5 -11 13 14.6 11.6
-5 -11 -13 16.2 11.3
-5 11 -13 36 11.8
-5 11 -13 24.7 10.9
5 11 13 6.2 11.2
-7 -11 -13 18.7 10.6
7 -11 13 12.8 12.7
-7 -11 -13 4.7 10.1
-7 11 -13 -1.5 10.2
-7 11 -13 2.5 11.4
7 11 13 9.8 10.8
-9 -11 -13 65.39 11.6
-9 -11 -13 91.79 12.6
-9 11 -13 75.99 13
-11 -11 -13 27.2 9.2
-11 -11 -13 23.9 9.8
-11 11 -13 18.9 11.6
-13 11 -13 134.69 16.4
-14 -12 13 2.1 12.2
-14 12 13 -5.2 17.1
-12 -12 13 15.7 13.1
-12 12 13 18.1 16.5
-10 -12 13 106.79 15.3
-10 12 13 82.89 18
-8 -12 13 -0.4 8.3
-8 -12 13 -4.8 11
8 12 -13 -11.4 10.9
-8 12 13 -10.7 14.1
6 -12 -13 2082.79 130.29
-6 -12 13 2293.27 128.29
-6 -12 13 1946.21 128.29
6 12 -13 2240.58 128.69
-6 12 13 1970.5 130.19
-6 12 13 2272.37 130.39
-4 -12 13 219.58 19.9
4 -12 -13 197.78 21.1
-4 -12 13 198.78 22.6
4 12 -13 203.18 21.8
-4 12 13 197.58 21.9
-4 12 13 227.18 23.4
-2 -12 13 416.66 32.6
2 -12 -13 461.15 35.9
2 -12 -13 507.05 35.7
-2 -12 13 508.85 35.2
2 12 -13 417.76 34
-2 12 13 511.55 37.3
-2 12 13 480.45 34.8
0 -12 -13 178.78 19.1
0 -12 13 189.58 19.7
0 -12 13 192.38 19.2
0 -12 -13 183.98 19.4
0 12 -13 193.18 18.9
0 12 -13 182.98 18.4
0 12 13 173.08 19.6
2 -12 13 712.83 49.8
-2 -12 -13 762.92 49.4
2 -12 13 737.03 48.2
-2 -12 -13 744.13 49.2
2 12 13 717.43 50.09
-2 12 -13 714.13 48.9
-2 12 -13 791.42 49.5
-4 -12 -13 378.46 29.7
-4 -12 -13 363.76 30.3
4 -12 13 406.26 31.6
4 12 13 350.36 30.6
-4 12 -13 394.76 31
-4 12 -13 404.06 30.4
-6 -12 -13 197.38 21.4
-6 -12 -13 210.58 20.5
6 -12 13 191.08 21.1
-6 12 -13 168.28 18.6
6 12 13 169.68 18.7
-6 12 -13 212.98 23
-8 -12 -13 4.3 10.3
-8 -12 -13 -7 10.4
-8 12 -13 26.2 11.3
8 12 13 8.8 11
-10 -12 -13 8.4 9.6
-10 -12 -13 -1.7 9.9
-10 12 -13 19.6 11.5
-12 12 -13 143.39 16.8
-14 12 -13 217.08 23.2
-13 -13 13 105.99 16
-13 13 13 98.89 21
-11 -13 13 12.2 12.7
-11 13 13 21.7 16.6
-9 -13 13 225.88 20.9
-9 13 13 187.88 24.2
-7 -13 13 93.19 15
-7 -13 13 103.99 12.9
7 -13 -13 107.19 18
-7 13 13 68.49 17.5
7 13 -13 98.89 15.1
-5 -13 13 93.29 15.8
5 -13 -13 131.59 18.2
-5 -13 13 146.99 15
-5 13 13 148.69 17.7
-5 13 13 103.09 18.2
5 13 -13 145.29 16.1
-3 -13 13 -3.3 8.6
3 -13 -13 3.7 12.4
-3 -13 13 3.4 11.5
3 13 -13 14.9 11.3
-3 13 13 -1 10.5
-3 13 13 -15.3 12.6
1 -13 -13 147.19 18.8
-1 -13 13 187.88 19.2
-1 -13 13 174.28 19.4
1 -13 -13 201.98 20.2
-1 13 13 187.68 20.3
1 13 -13 172.28 18.2
-1 -13 -13 1979.7 116.99
1 -13 13 1908.51 117.29
-1 -13 -13 1845.72 117.09
1 -13 13 2031.7 116.49
-1 13 -13 2071.29 116.79
-1 13 -13 1938.11 116.99
1 13 13 1673.33 116.89
-3 -13 -13 21.4 12
-3 -13 -13 7.2 11.2
3 -13 13 29.3 13.2
-3 13 -13 13.5 11.8
-3 13 -13 -2.3 11.1
3 13 13 18.3 12.7
-5 -13 -13 2.5 10.9
-5 -13 -13 -3.6 11.5
5 -13 13 0.4 12.5
-5 13 -13 29.3 12.3
5 13 13 13.8 12.1
-5 13 -13 23.7 11.5
7 -13 13 14.3 13.9
-7 -13 -13 9.5 11.5
-7 -13 -13 25.1 11.2
7 13 13 1.6 11.5
-7 13 -13 20.6 11.8
-9 -13 -13 364.66 28.1
-9 -13 -13 371.66 29.2
-9 13 -13 374.16 30.3
-11 -13 -13 21.5 9.9
-11 13 -13 28.2 12.5
-13 13 -13 3.6 11.8
-14 -14 13 67.09 14.5
-14 14 13 52.29 19.8
-12 -14 13 250.87 24.9
-12 14 13 214.58 26.9
-10 -14 13 20.5 13.2
-10 14 13 23.3 16.9
-8 -14 13 53.19 13.3
-8 14 13 10.5 15.7
6 -14 -13 526.95 40.6
-6 -14 13 474.65 35.4
-6 -14 13 490.15 37.2
6 14 -13 526.25 37.6
-6 14 13 584.54 41.6
-6 14 13 494.35 39.1
-4 -14 13 1213.68 75.59
4 -14 -13 1130.49 76.69
-4 -14 13 1256.27 74.69
-4 14 13 1094.39 77.19
-4 14 13 1242.78 76.79
4 14 -13 1250.47 75.29
-2 -14 13 -0.6 9.1
2 -14 -13 17.7 12.6
-2 -14 13 -3.9 12.1
2 -14 -13 -13.3 12.4
-2 14 13 -19.5 12.9
2 14 -13 -1.6 10.8
-2 14 13 -2.2 11.1
0 -14 13 3 12.5
0 -14 -13 28.1 12.9
0 -14 13 7.1 9.4
0 -14 -13 8.9 12.5
0 14 -13 6.3 11.2
0 14 13 -4.2 12.7
2 -14 13 453.45 33.2
-2 -14 -13 352.36 31.3
-2 -14 -13 346.17 32
-2 14 -13 412.86 32
-2 14 -13 418.96 31.3
2 14 13 356.96 33
-4 -14 -13 -6.1 11
-4 -14 -13 5.1 12.1
4 -14 13 24.1 13.3
4 14 13 5.1 12.4
-4 14 -13 22.7 12
-4 14 -13 2.1 11.9
-6 -14 -13 7 11
-6 -14 -13 8.9 12.3
6 -14 13 -4.6 13.6
6 14 13 6.3 12.5
-6 14 -13 18.4 12.8
-6 14 -13 19.4 12.1
-8 -14 -13 772.32 51.49
-8 -14 -13 835.72 56.09
-8 14 -13 780.32 52.69
-10 -14 -13 34.3 11.2
-10 14 -13 25.6 12.9
-12 -14 -13 28.7 9.9
-12 14 -13 30.1 13.3
-13 -15 13 40.5 14.4
-13 15 13 45.4 20.1
-11 -15 13 239.98 21.9
-11 15 13 177.08 25.3
-9 -15 13 267.97 26
-9 15 13 247.38 27.7
-7 -15 13 8.6 12.8
-7 15 13 -11 14.6
5 -15 -13 2001.8 124.69
-5 -15 13 1886.51 122.59
-5 -15 13 2137.19 122.49
-5 15 13 1901.11 124.69
-5 15 13 2105.99 124.59
5 15 -13 2096.29 122.89
3 -15 -13 18.8 14.2
-3 -15 13 21.4 12.9
-3 -15 13 33.6 10.9
-3 15 13 35.3 13
3 15 -13 41.6 13
-3 15 13 6.6 14.3
1 -15 -13 471.95 37.9
-1 -15 13 523.15 35.4
1 -15 -13 495.75 38
-1 -15 13 486.85 37.7
-1 15 13 412.46 38.5
1 15 -13 529.35 36.5
-1 -15 -13 720.63 49.8
1 -15 13 696.33 48.4
-1 -15 -13 799.72 50.79
1 -15 13 700.73 50.19
-1 15 -13 715.73 49.1
1 15 13 735.83 51.19
-3 -15 -13 190.78 19.7
3 -15 13 141.49 19.6
-3 -15 -13 143.79 17.8
3 15 13 156.28 19.3
-3 15 -13 128.49 16.9
-3 15 -13 172.68 19.4
-5 -15 -13 3320.77 204.38
-5 -15 -13 3300.97 203.48
5 -15 13 3456.65 205.28
-5 15 -13 3481.65 204.08
5 15 13 3408.86 204.38
-5 15 -13 3554.24 205.38
-7 -15 -13 65.59 13.6
-7 15 -13 93.59 15.4
-9 -15 -13 17.4 11.5
-9 15 -13 27.8 13.3
-11 -15 -13 16.8 10.8
-11 15 -13 23.9 13.1
-13 15 -13 29.2 13.6
-12 -16 13 1.5 13.3
-12 16 13 -24.9 18
-10 -16 13 225.18 21.9
-10 16 13 229.68 26.7
-8 -16 13 44.7 13.8
-8 16 13 40.7 17.6
6 -16 -13 244.78 26.6
-6 -16 13 260.57 26
-6 16 13 225.58 26.2
4 -16 -13 19.4 15.1
-4 -16 13 29.5 13.6
-4 -16 13 43 11.2
-4 16 13 17.6 13.4
4 16 -13 29.3 13.2
-4 16 13 5.9 15.7
2 -16 -13 259.67 27.4
2 -16 -13 325.37 28
-2 -16 13 217.58 23.2
-2 -16 13 276.27 27.2
2 16 -13 183.38 21.7
-2 16 13 298.37 29.8
0 -16 13 43.3 14.4
0 -16 13 34.5 11.7
0 -16 -13 13.8 13.9
0 -16 -13 47.3 13.9
0 16 13 2.6 14.2
0 16 -13 54.39 13.7
-2 -16 -13 -12.1 12.2
-2 -16 -13 2.5 13.5
2 -16 13 11.5 13.8
2 16 13 24.6 14.4
-2 16 -13 6 11.5
-2 16 -13 0.7 12
-4 -16 -13 543.75 40.9
4 -16 13 517.05 43
-4 -16 -13 524.15 42
-4 16 -13 667.13 42.9
-4 16 -13 615.34 41.3
4 16 13 524.75 42.3
-6 -16 -13 1223.08 78.49
-6 16 -13 1287.17 79.39
-8 -16 -13 48.2 12.8
-8 16 -13 34.1 13.9
-10 -16 -13 14.6 12.1
-10 16 -13 23.3 13.9
-12 -16 -13 58.99 11.8
-12 16 -13 45.5 14.7
-13 -17 13 14.1 17.9
-13 17 13 9 19.5
-11 -17 13 34.2 14.5
-11 17 13 49.9 20.5
-9 -17 13 16.6 13.5
-9 17 13 19.5 17.9
-7 -17 13 157.98 19.5
-7 17 13 140.09 22
5 -17 -13 163.38 22.6
-5 -17 13 175.78 20.1
-5 17 13 202.88 23.2
-5 17 13 192.38 27.3
-3 -17 13 460.25 34.5
3 -17 -13 502.25 38.6
-3 -17 13 464.65 37.1
-3 17 13 429.36 39.1
3 17 -13 448.96 35.9
1 -17 -13 477.75 40.2
-1 -17 13 463.85 39.4
-1 -17 13 589.24 38.1
1 -17 -13 554.54 40.7
1 17 -13 486.25 38.5
-1 17 13 490.45 41.3
1 -17 13 21.7 11
-1 -17 -13 20.8 13.7
1 -17 13 15.2 14
-1 -17 -13 12.7 13.8
1 17 13 16.7 14.8
-1 17 -13 12.9 12.3
-3 -17 -13 254.97 26.4
3 -17 13 231.98 25.3
3 17 13 168.08 23.5
-3 17 -13 325.87 28.1
-3 17 -13 257.07 25.7
5 -17 13 505.25 39.8
-5 -17 -13 405.66 35.4
-5 17 -13 473.15 36.2
-7 -17 -13 13.2 12.1
-7 17 -13 3.6 13
-9 -17 -13 88.79 15.1
-9 17 -13 107.49 16.9
-11 -17 -13 84.39 13.7
-11 17 -13 71.79 16.4
-13 -17 -13 151.28 15.6
-12 -18 13 511.85 39
-12 18 13 518.75 46.2
-10 -18 13 238.38 25.5
-10 18 13 189.98 27.3
-8 -18 13 313.67 28.9
-8 18 13 284.77 30.5
-6 -18 13 1.6 13.1
-6 18 13 -9.7 16.2
-4 -18 13 493.95 36.5
4 -18 -13 440.66 38.3
-4 18 13 373.26 38.9
2 -18 -13 880.21 64.99
2 -18 -13 944.71 63.19
-2 -18 13 970.6 62.39
-2 18 13 790.72 63.09
2 18 -13 1056.09 62.09
0 -18 -13 4.8 14
0 -18 13 18.4 11.4
0 -18 13 23.5 14.6
0 -18 -13 15.5 14.5
0 18 -13 11.8 13.1
0 18 13 28.3 16
-2 -18 -13 618.84 43.6
2 -18 13 529.35 44.4
-2 18 -13 656.63 43.4
2 18 13 545.15 45.3
4 -18 13 450.45 38.2
-4 -18 -13 407.66 34.7
-4 18 -13 419.66 34.6
-6 -18 -13 152.58 18.7
-6 18 -13 145.39 19.1
-8 -18 -13 479.85 38.1
-8 18 -13 560.44 40.3
-10 -18 -13 -9.9 11.9
-10 18 -13 -2.6 14.2
-12 -18 -13 241.78 24.5
-12 18 -13 326.77 29.6
-11 -19 13 -5.3 14
-11 19 13 -6.9 19.4
-9 -19 13 148.69 18.4
-9 19 13 54.29 21.4
-7 -19 13 40.7 14.7
-7 19 13 14.3 18.2
5 -19 -13 52.49 18.4
-5 -19 13 43.3 15.4
-5 19 13 52.99 18.9
-3 -19 13 52.49 15.6
3 -19 -13 77.49 17.7
-3 19 13 46.1 17.8
1 -19 -13 2.1 14.7
1 -19 -13 18.4 15.5
-1 -19 13 4.6 14.3
1 19 -13 12.7 13.6
-1 19 13 8.9 16.9
-1 -19 -13 21.4 15.3
1 -19 13 28 15.9
1 19 13 11.5 16.7
-1 19 -13 32.7 14.6
-3 -19 -13 -3.9 13.2
3 -19 13 27.4 16.7
-3 19 -13 19 14.4
-5 -19 -13 1209.18 75.09
-5 19 -13 1133.09 75.59
-7 -19 -13 35.5 14.3
-7 19 -13 11 14.2
-9 -19 -13 31.4 13.9
-9 19 -13 38.3 15.8
-11 -19 -13 16.8 12.5
-11 19 -13 35.4 16
-12 20 13 448.96 44.4
-10 -20 13 24.2 15
-10 20 13 17.2 20.5
-8 -20 13 45.1 15.6
-8 20 13 59.59 20.7
-6 -20 13 12.2 15
-6 20 13 8.2 17.6
4 -20 -13 579.74 46.3
-4 -20 13 603.94 43.9
-4 20 13 534.05 46.8
2 -20 -13 103.89 19.4
-2 -20 13 113.59 18.4
-2 20 13 84.79 20.2
0 -20 13 2.1 15.1
0 -20 -13 -7.3 14.2
0 20 -13 -3.2 13.9
0 20 13 2.7 16.6
2 -20 13 402.66 38.2
-2 -20 -13 460.95 36.9
-2 20 -13 410.56 35.8
4 -20 13 13.9 17.1
-4 -20 -13 19.4 14.3
-4 20 -13 17.2 14.5
-6 -20 -13 12.9 14.4
-6 20 -13 2.1 14.3
-8 -20 -13 794.62 54.19
-8 20 -13 797.42 55.69
-10 -20 -13 -3.9 12.9
-10 20 -13 -11 14.5
-12 20 -13 2.2 15.4
-11 21 13 136.69 25.5
-9 -21 13 100.39 17.7
-9 21 13 82.09 23.1
-7 -21 13 26.6 15.9
-7 21 13 74.39 21.6
-5 -21 13 293.47 30
-5 21 13 234.48 29.9
-3 -21 13 3.2 14.8
3 -21 -13 -8.2 15.9
-3 21 13 -16.2 17.5
-1 -21 13 88.69 18.6
1 -21 -13 84.29 18.5
-1 -21 -13 735.33 54.79
1 -21 13 748.43 55.99
-1 21 -13 830.22 54.79
3 -21 13 88.89 19.8
-3 -21 -13 100.59 18.6
-3 21 -13 60.89 16.9
-5 -21 -13 20.4 15.1
-5 21 -13 36.4 15.5
-7 -21 -13 384.36 34.3
-7 21 -13 412.86 35.9
-9 -21 -13 643.34 47.9
-9 21 -13 725.23 50.19
-11 21 -13 7.1 15.2
-12 22 13 165.38 28.2
-10 -22 13 72.89 17.2
-10 22 13 88.09 24
-8 -22 13 24.7 15.9
-8 22 13 13.4 20.7
-6 -22 13 14.5 16
-6 22 13 1.2 20
4 -22 -13 32.2 19.6
-4 -22 13 43 16.5
-4 22 13 28.5 20.3
-2 -22 13 383.26 36.8
2 -22 -13 444.36 38.7
0 -22 -13 12.5 15.6
0 -22 13 -5.5 16.1
-2 -22 -13 271.77 28.3
2 -22 13 242.38 28.6
-2 22 -13 326.07 31.7
-4 -22 -13 339.67 33.4
-4 22 -13 361.96 34.2
-6 -22 -13 405.36 35.6
-6 22 -13 386.66 36.3
-8 -22 -13 632.54 49.2
-8 22 -13 763.32 51.69
-10 -22 -13 -37.5 21.6
-10 22 -13 8.1 16.1
-11 23 13 13.6 21.7
-9 -23 13 234.68 24.7
-9 23 13 185.68 28.9
-7 -23 13 111.29 19.5
-7 23 13 57.29 23.9
-5 -23 13 50.39 17.3
-5 23 13 7.9 21.8
-3 -23 13 23.8 16.3
3 -23 -13 11.3 18.7
1 -23 -13 29.2 18
-1 -23 13 73.49 18.9
1 -23 13 25.3 18.7
-1 -23 -13 11.3 16.3
-3 -23 -13 -18.2 15
-3 23 -13 16 16.2
-5 -23 -13 2056.79 134.59
-5 23 -13 2329.47 135.69
-7 -23 -13 -20.4 14.8
-7 23 -13 16 16.2
-9 -23 -13 10.6 14.5
-9 23 -13 17.7 17.2
-11 23 -13 -10.7 16.1
-10 24 13 40.5 23.2
-8 -24 13 12.3 16.1
-8 24 13 -9.1 21.7
-6 -24 13 75.99 19.2
-6 24 13 80.79 23.8
-4 -24 13 32.8 16.8
2 -24 -13 195.78 25.3
-2 -24 13 146.19 23.4
0 -24 -13 19.7 17.5
0 -24 13 22.3 18.1
2 -24 13 15 18.8
-2 -24 -13 2.2 16.7
-4 -24 -13 224.88 27.2
-4 24 -13 346.17 33.7
-6 -24 -13 125.79 20.8
-6 24 -13 121.39 21.8
-8 -24 -13 49.5 16.7
-8 24 -13 46.4 18.5
-10 24 -13 -13.1 16.5
-11 25 13 3.2 23.5
-9 25 13 42.1 24.1
-7 -25 13 10.3 16.8
-7 25 13 21.3 22.2
-5 -25 13 47.6 18
-3 -25 13 106.99 20.6
1 -25 -13 72.49 21.4
-1 -25 13 102.49 21.2
1 -25 13 66.09 21.3
-1 -25 -13 62.89 20
-3 -25 -13 109.89 21.2
-5 -25 -13 54.49 18
-7 -25 -13 184.28 23.7
-7 25 -13 204.58 25.9
-9 25 -13 8.8 17.8
-10 26 13 -17.4 23.1
-6 -26 13 346.97 36
-4 -26 13 5.4 17.1
-2 -26 13 4.8 17.9
2 -26 -13 22.7 20.1
0 -26 -13 -27.1 17.5
0 -26 13 2.8 19.1
-2 -26 -13 129.39 22.8
-4 -26 -13 20.2 17.8
-6 -26 -13 64.29 19.3
-8 26 -13 78.59 21
-10 26 -13 -3 18.4
-7 -27 13 -9.5 18.4
-5 -27 13 801.42 58.19
-3 -27 13 21.4 18.6
1 -27 -13 -10.2 19.4
-1 -27 13 12.5 18.9
-1 -27 -13 111.59 23.2
-3 -27 -13 90.49 21.6
-5 -27 -13 100.79 21
-9 27 -13 7.3 19.3
-6 -28 13 76.79 21
-4 -28 13 48 20
-2 -28 13 201.38 27.3
0 -28 -13 6.3 19.9
0 -28 13 -27.4 18.1
-2 -28 -13 26.8 19.6
-4 -28 -13 -1.8 18
-5 -29 13 27.4 19.1
-3 -29 13 272.57 31.1
-1 -29 13 138.89 25.9
-1 -29 -13 57.09 21.4
-3 -29 -13 -6.7 18.3
-4 -30 13 -7.9 19.2
-2 -30 13 369.36 40.9
0 -30 -13 1.4 20.3
-2 -30 -13 18.4 20.7
-4 -30 -13 13.3 25.2
-3 -31 13 61.79 22.8
-1 -31 -13 10.2 21.5
-3 -31 -13 -4 19.2
-2 -32 13 174.98 28.7
-2 -32 -13 59.19 22.9
-1 -33 -13 28.2 36.4
-16 0 14 2.3 12.8
-14 0 14 151.78 18.2
-12 0 14 368.56 30.2
10 0 -14 181.18 18.2
-10 0 14 161.78 17.4
-10 0 14 174.88 18.7
-8 0 14 387.06 31.8
8 0 -14 428.46 31.7
-8 0 14 466.65 31.2
6 0 -14 267.47 23.5
-6 0 14 270.97 23.7
-6 0 14 281.57 22.6
2 0 -14 459.75 34.6
-2 0 14 484.95 33.5
2 0 -14 533.25 34.5
0 0 14 192.28 19.6
0 0 14 265.47 22.6
0 0 -14 266.07 20.5
0 0 -14 220.78 21.2
4 0 14 15.8 9.9
-4 0 -14 5.1 8.8
-4 0 -14 16.5 8.5
6 0 14 365.66 25.8
-6 0 -14 327.77 24.7
-6 0 -14 325.57 25.2
-8 0 -14 2797.12 157.58
-8 0 -14 2653.53 157.58
8 0 14 2522.05 157.68
-10 0 -14 526.55 35
-10 0 -14 536.65 35.1
-12 0 -14 140.99 15.5
-12 0 -14 161.08 14.3
-15 -1 14 176.18 18.9
-15 1 14 175.98 19.4
-13 -1 14 335.77 28.5
-13 1 14 343.17 29.4
-11 -1 14 10.6 9.8
-11 -1 14 10.2 11.8
-11 1 14 23 12.7
-11 1 14 8 12.4
-9 -1 14 230.68 21.5
9 -1 -14 245.38 22.8
-9 -1 14 207.18 23.1
-9 1 14 259.47 22.1
-9 1 14 227.08 23.4
9 1 -14 236.98 22.5
7 -1 -14 879.01 57.99
-7 -1 14 917.51 57.49
-7 -1 14 918.81 57.99
-7 1 14 954.4 58.49
-7 1 14 958.7 57.79
7 1 -14 866.01 57.79
-5 -1 14 4182.98 241.18
5 -1 -14 4113.29 241.38
-5 -1 14 4064.09 241.28
5 1 -14 3922.01 241.18
-5 1 14 4156.88 241.38
-5 1 14 4064.39 241.18
-3 -1 14 99.69 13.1
-3 -1 14 70.39 10.8
3 -1 -14 100.99 12.7
3 -1 -14 86.39 12.9
3 1 -14 88.69 13
3 1 -14 94.09 13
-3 1 14 95.69 11.5
-3 1 14 95.69 13.3
-1 -1 14 378.06 29.4
1 -1 -14 382.46 28.7
-1 -1 14 378.76 27.4
1 -1 -14 378.16 28.4
1 1 -14 389.06 28.9
-1 1 14 367.86 27.5
1 1 -14 390.06 28.1
-1 1 14 410.56 29.6
-1 -1 -14 5362.46 304.27
-1 -1 -14 5072.19 304.17
1 -1 14 5152.88 304.27
1 1 14 5160.08 304.27
-1 1 -14 4998.2 304.07
-1 1 -14 5273.97 304.27
-3 -1 -14 -0.5 8.8
3 -1 14 5.3 9.9
3 -1 14 -10.4 8.1
-3 -1 -14 -0.2 8.3
3 1 14 0.6 8
-3 1 -14 -0.8 8.9
-3 1 -14 2 8.4
3 1 14 1.1 9.7
-5 -1 -14 2303.57 145.89
5 -1 14 2488.35 146.39
-5 -1 -14 2484.65 146.09
5 1 14 2513.75 146.39
-5 1 -14 2525.55 146.19
-5 1 -14 2443.66 145.99
-7 -1 -14 548.55 35.9
7 -1 14 556.44 36.8
-7 -1 -14 578.64 36.4
7 1 14 513.35 36.7
-7 1 -14 517.45 36.1
-7 1 -14 587.74 36.4
-9 -1 -14 147.79 16.3
-9 -1 -14 150.08 16.8
9 -1 14 181.08 16.5
9 1 14 192.98 16.2
-9 1 -14 158.58 16.6
-9 1 -14 155.68 17.1
-11 -1 -14 92.19 11.2
-11 -1 -14 88.59 11.6
-11 1 -14 101.09 12
-11 1 -14 93.39 11.6
-13 1 -14 25.9 9.4
-13 1 -14 4.8 11.4
-16 -2 14 71.19 14.1
-16 2 14 91.19 18.1
-14 -2 14 34.9 13
-14 2 14 50.29 14.3
-12 -2 14 0.9 12.3
-12 2 14 22.5 12.9
-10 -2 14 366.86 29.1
10 -2 -14 332.77 29.4
-10 -2 14 345.37 27.3
10 2 -14 380.56 28.5
-10 2 14 366.96 30
-10 2 14 389.96 28.6
-8 -2 14 1554.84 99.29
8 -2 -14 1687.53 99.89
-8 -2 14 1631.64 98.99
8 2 -14 1675.43 99.39
-8 2 14 1721.03 99.59
-8 2 14 1559.84 99.79
-6 -2 14 211.28 21.9
6 -2 -14 241.38 21.6
-6 -2 14 211.08 19.8
-6 2 14 210.68 22.4
6 2 -14 244.08 21.4
-6 2 14 229.88 20.6
-4 -2 14 30.2 10.4
-4 -2 14 20.6 8.8
4 -2 -14 20.4 11.7
4 -2 -14 35 10.9
-4 2 14 17.8 8.7
4 2 -14 31.6 10.5
-4 2 14 24.3 11.2
2 -2 -14 2417.46 150.58
-2 -2 14 2667.23 151.08
2 -2 -14 2455.65 150.78
-2 -2 14 2546.55 150.38
-2 2 14 2590.64 150.98
2 2 -14 2415.06 150.58
-2 2 14 2593.84 150.58
2 2 -14 2565.44 150.78
0 -2 -14 331.27 27.5
0 -2 14 347.87 26
0 -2 14 391.76 28
0 -2 -14 357.16 26.8
0 2 14 415.36 28.4
0 2 -14 330.77 26.9
0 2 -14 358.96 26.9
0 2 14 356.06 26.4
-2 -2 -14 49.6 10.2
2 -2 14 46.4 9.5
-2 -2 -14 59.09 11.3
2 -2 14 24.7 10.5
-2 2 -14 40.7 10.2
2 2 14 73.29 11.2
-2 2 -14 44.1 9.9
2 2 14 55.19 11.3
-4 -2 -14 4490.35 284.47
-4 -2 -14 5085.29 284.87
4 -2 14 4907.01 284.97
4 2 14 5005.8 284.87
-4 2 -14 4570.04 284.57
-4 2 -14 4975.6 284.87
6 -2 14 295.27 24.1
-6 -2 -14 294.97 23.1
-6 -2 -14 301.77 22.8
-6 2 -14 275.57 22.9
6 2 14 323.97 23.9
-6 2 -14 311.07 23.2
-8 -2 -14 116.89 12.6
8 -2 14 115.19 13.9
-8 -2 -14 123.09 13
-8 2 -14 116.69 13.1
8 2 14 122.19 13.6
-8 2 -14 132.99 13.5
-10 -2 -14 -7.4 7.4
-10 -2 -14 6.6 8.5
10 -2 14 3.7 10.1
-10 2 -14 13.4 8.9
-10 2 -14 10.2 9.1
-12 -2 -14 75.89 9.5
-12 2 -14 85.49 11.6
-12 2 -14 63.09 11
-14 2 -14 197.38 18.6
-15 -3 14 119.29 15.8
-15 3 14 78.19 16.6
-13 -3 14 89.89 14.8
-13 3 14 94.99 16.6
-11 -3 14 3.4 8.8
-11 -3 14 7.1 11.3
-11 3 14 -12.9 11.9
9 -3 -14 155.58 17.3
-9 -3 14 132.69 14.7
-9 -3 14 159.48 16.4
-9 3 14 132.99 16
9 3 -14 144.69 16.2
-9 3 14 140.59 17.7
-7 -3 14 171.98 18
7 -3 -14 204.88 19.1
-7 -3 14 182.38 18.3
-7 3 14 206.18 19.7
-7 3 14 197.88 19.7
7 3 -14 187.48 20.1
-5 -3 14 111.99 14.5
5 -3 -14 69.09 13.9
-5 -3 14 128.79 13
-5 3 14 132.99 15.5
5 3 -14 122.79 14.5
-5 3 14 121.89 14.4
-3 -3 14 970 61.39
3 -3 -14 867.51 61.19
-3 -3 14 942.71 60.39
3 -3 -14 1071.29 61.49
-3 3 14 1001.5 61.69
3 3 -14 1029.1 61.29
-3 3 14 892.91 60.59
3 3 -14 1052.59 61.29
1 -3 -14 3311.67 200.18
-1 -3 14 3411.96 200.38
1 -3 -14 3601.94 200.48
-1 -3 14 3455.75 199.98
-1 3 14 3343.67 200.08
-1 3 14 3172.88 200.28
1 3 -14 3436.06 200.18
1 3 -14 3328.37 200.08
-1 -3 -14 2.3 8.9
-1 -3 -14 -6 9.9
1 -3 14 6.7 9.9
1 -3 14 11.5 8.5
1 3 14 13.7 9.4
-1 3 -14 10.4 9.4
1 3 14 3.3 10.4
-1 3 -14 16.6 9.2
3 -3 14 8.7 9.7
-3 -3 -14 21.2 9
-3 -3 -14 24.2 9.5
3 -3 14 21.8 9.2
-3 3 -14 18.6 9.4
3 3 14 35.5 10.2
-3 3 -14 10.9 8.5
-5 -3 -14 1034.3 67.89
-5 -3 -14 1153.68 68.29
5 -3 14 1088.39 68.49
-5 3 -14 1209.48 68.59
5 3 14 1159.58 68.49
-5 3 -14 1018.8 67.99
7 -3 14 206.28 19.2
-7 -3 -14 168.38 17.5
-7 -3 -14 200.08 18.1
-7 3 -14 186.88 18.4
-7 3 -14 173.18 18.1
7 3 14 220.28 18.9
-9 -3 -14 25.5 9
-9 -3 -14 13.7 8.2
9 -3 14 19.8 10
-9 3 -14 16.2 9.5
-9 3 -14 18.3 9.4
-11 -3 -14 276.17 21.2
-11 -3 -14 302.57 21.1
-11 3 -14 270.37 22.9
-11 3 -14 302.67 23.6
-13 3 -14 173.58 16.3
-15 3 -14 10.3 9.7
-16 -4 14 84.19 14.3
-14 -4 14 224.18 23.4
-14 4 14 238.18 26.5
-12 -4 14 -4.3 11.4
-12 4 14 -1.5 13.2
-10 -4 14 31.4 11.8
-10 -4 14 17.2 8.9
-10 4 14 17.4 11.2
10 4 -14 28.7 11.3
-10 4 14 17.4 13
-8 -4 14 73.39 13.2
8 -4 -14 74.89 13.8
-8 -4 14 72.39 11.4
8 4 -14 62.39 12.4
-8 4 14 72.39 14.4
-8 4 14 67.79 12.3
6 -4 -14 134.69 16.1
-6 -4 14 123.19 15.6
-6 -4 14 151.78 14.5
-6 4 14 106.69 16.1
6 4 -14 160.38 15.8
-6 4 14 169.88 16.3
-4 -4 14 494.25 33
4 -4 -14 521.95 34.8
-4 -4 14 491.75 34.2
4 4 -14 470.55 34.2
-4 4 14 458.05 34.9
-4 4 14 494.65 33.8
2 -4 -14 1941.21 114.89
2 -4 -14 1873.51 114.89
-2 -4 14 1934.41 114.39
-2 -4 14 2041.5 114.89
-2 4 14 1660.63 114.79
-2 4 14 1960.4 114.69
2 4 -14 1938.61 114.69
2 4 -14 1924.71 114.59
0 -4 -14 1054.99 67.89
0 -4 14 1110.69 67.19
0 -4 -14 1170.68 67.79
0 -4 14 1070.49 67.99
0 4 -14 1024.2 67.49
0 4 14 1053.09 68.09
0 4 -14 1172.58 67.69
0 4 14 1111.09 67.59
-2 -4 -14 280.67 22.9
2 -4 14 272.27 23.2
2 -4 14 229.48 21.7
-2 -4 -14 283.17 22.3
-2 4 -14 291.87 22.4
2 4 14 296.47 23.5
2 4 14 253.57 22.2
-2 4 -14 287.77 22.9
4 -4 14 41.8 10.5
-4 -4 -14 47.1 10
-4 -4 -14 49.7 10.3
-4 4 -14 41.2 9.9
4 4 14 65.59 11.1
-4 4 -14 18.4 9.2
-6 -4 -14 178.98 17.4
-6 -4 -14 183.98 17.2
6 -4 14 160.38 16.3
-6 4 -14 174.98 17.5
6 4 14 173.38 17.8
-6 4 -14 154.18 15.3
-8 -4 -14 19.5 8.5
-8 -4 -14 5.5 8.7
8 -4 14 6.7 10.1
-8 4 -14 3.7 9.2
8 4 14 -1.7 8.7
-8 4 -14 2.8 8.8
-10 -4 -14 60.99 10
-10 -4 -14 46.8 9.1
10 -4 14 65.89 12.5
-10 4 -14 68.09 11.2
-10 4 -14 38.7 10.8
-12 4 -14 529.55 35.7
-14 4 -14 4.7 9.6
-16 4 -14 24.2 10
-15 -5 14 301.07 25.1
-15 5 14 254.97 29.3
-13 -5 14 77.79 14.3
-13 5 14 100.69 17.2
-11 -5 14 345.77 29.6
-11 -5 14 454.95 28.5
-11 5 14 339.57 32.1
-9 -5 14 54.59 12.9
9 -5 -14 59.49 14
-9 -5 14 53.39 10.7
-9 5 14 36.1 13.7
9 5 -14 65.89 12.3
-9 5 14 49.1 13
-7 -5 14 109.89 12.6
7 -5 -14 90.09 14.8
-7 -5 14 104.89 14.5
-7 5 14 80.29 13.4
7 5 -14 94.99 13.5
-7 5 14 99.09 15.4
-5 -5 14 737.63 50.39
5 -5 -14 814.72 51.19
-5 -5 14 752.62 49.4
-5 5 14 852.61 51.59
5 5 -14 763.22 50.09
-5 5 14 784.22 50.49
-3 -5 14 450.35 33.1
3 -5 -14 465.95 33.9
-3 -5 14 497.45 32.1
3 -5 -14 469.05 33.7
-3 5 14 500.95 33.1
3 5 -14 462.75 33.1
-3 5 14 461.35 34.3
3 5 -14 453.35 32.9
1 -5 -14 1733.53 108.49
1 -5 -14 1889.21 108.59
-1 -5 14 1790.32 108.59
-1 -5 14 1798.62 108.09
-1 5 14 1821.42 108.89
1 5 -14 1660.23 108.19
-1 5 14 1832.82 108.39
1 5 -14 1886.11 108.49
1 -5 14 1187.38 72.99
-1 -5 -14 1247.18 73.59
-1 -5 -14 1241.28 73.79
1 -5 14 1184.58 73.79
1 5 14 1139.19 73.19
1 5 14 1246.08 73.99
-1 5 -14 1225.88 73.49
-1 5 -14 1110.79 73.29
-3 -5 -14 1039.1 61.59
3 -5 14 998.8 61.29
-3 -5 -14 979.5 61.59
3 -5 14 979.4 62.09
-3 5 -14 967.8 61.59
-3 5 -14 1003.2 61.69
3 5 14 973.8 61.89
-5 -5 -14 3837.62 225.28
5 -5 14 3979.1 225.88
-5 -5 -14 3660.93 224.98
-5 5 -14 3625.84 225.18
-5 5 -14 3879.71 225.68
5 5 14 3915.51 225.28
-7 -5 -14 200.58 18.2
-7 -5 -14 187.08 18.2
7 -5 14 185.58 20.3
-7 5 -14 184.88 17.4
7 5 14 189.38 18.4
-7 5 -14 180.68 18.8
-9 -5 -14 34.9 8.8
9 -5 14 -6.9 10.6
-9 -5 -14 9.6 8.1
-9 5 -14 9.7 9.6
-9 5 -14 18.1 10
-11 -5 -14 369.66 24.9
-11 -5 -14 342.87 24.6
-11 5 -14 374.76 27.3
-13 5 -14 497.85 34.4
-15 5 -14 549.25 37.1
-16 -6 14 126.49 15.4
-14 -6 14 16.7 11.8
-14 6 14 -17.1 14.2
-12 -6 14 1166.38 71.09
-12 6 14 1108.39 73.09
-10 -6 14 58.99 10.6
-10 -6 14 31.7 12.7
10 6 -14 62.09 12.8
-10 6 14 25.8 14.3
8 -6 -14 1278.17 76.39
-8 -6 14 1150.08 74.79
-8 -6 14 1275.67 74.19
8 6 -14 1141.99 74.59
-8 6 14 1267.37 75.89
-8 6 14 1145.79 75.99
-6 -6 14 1577.64 95.49
-6 -6 14 1517.15 94.79
6 -6 -14 1587.84 96.49
-6 6 14 1615.44 96.69
6 6 -14 1540.65 95.19
-6 6 14 1593.94 96.09
-4 -6 14 284.37 22.4
4 -6 -14 207.38 22.7
-4 -6 14 191.58 19.8
-4 6 14 243.88 24.3
4 6 -14 236.68 21.5
-4 6 14 263.87 21.9
2 -6 -14 301.97 23.9
-2 -6 14 265.47 21.6
2 -6 -14 292.27 24.7
-2 -6 14 252.07 23.4
2 6 -14 274.17 23.6
2 6 -14 274.07 23.4
-2 6 14 281.67 23.2
-2 6 14 277.97 25
0 -6 -14 51.99 11.5
0 -6 -14 68.49 11
0 -6 14 70.99 10.3
0 -6 14 84.59 12.7
0 6 14 53.19 12.6
0 6 -14 68.69 11.3
0 6 -14 54.79 10.7
0 6 14 71.89 11.4
-2 -6 -14 3134.39 188.88
2 -6 14 3096.49 189.18
2 -6 14 3367.46 188.88
-2 -6 -14 3126.19 189.08
-2 6 -14 3406.06 189.28
2 6 14 3048.6 189.08
-2 6 -14 3140.39 188.88
4 -6 14 103.29 14
-4 -6 -14 94.39 12.7
-4 -6 -14 144.49 14
-4 6 -14 86.89 12.6
4 6 14 134.59 14.1
-4 6 -14 91.19 13.1
6 -6 14 45.6 11.4
-6 -6 -14 35.1 9.7
-6 -6 -14 44.9 10.1
-6 6 -14 42.6 11
-6 6 -14 22.6 9.8
6 6 14 27.4 10.6
-8 -6 -14 100.79 11.6
8 -6 14 78.29 13.6
-8 -6 -14 84.09 11.7
8 6 14 86.09 12
-8 6 -14 90.49 13.4
-8 6 -14 95.69 12.8
-10 -6 -14 87.29 11.1
-10 -6 -14 110.29 11.5
-10 6 -14 100.99 13.3
-10 6 -14 83.09 13.5
-12 6 -14 42.2 11.3
-14 6 -14 185.38 19.6
-15 -7 14 139.79 16.6
-15 7 14 125.59 20.1
-13 -7 14 245.08 23.5
-13 7 14 226.98 24.4
-11 -7 14 334.07 27.9
-11 7 14 328.57 30.7
9 -7 -14 89.09 16.6
-9 -7 14 141.89 15.9
-9 -7 14 106.59 12.5
-9 7 14 75.89 16.2
9 7 -14 112.89 15
-9 7 14 110.69 16
-7 -7 14 39.8 11.8
-7 -7 14 30.4 9
7 -7 -14 33.9 12.8
-7 7 14 32.4 12.1
-7 7 14 45 13.7
7 7 -14 57.99 11.5
-5 -7 14 1939.21 115.49
-5 -7 14 1896.61 116.09
5 -7 -14 1824.22 116.89
-5 7 14 1935.81 116.99
5 7 -14 2030.2 115.99
-5 7 14 1918.91 116.69
-3 -7 14 34.1 9
3 -7 -14 18.3 11
3 -7 -14 22.6 11.7
-3 -7 14 12.5 10.2
-3 7 14 24.1 9.9
-3 7 14 21.2 12
3 7 -14 32.8 10.6
1 -7 -14 57.89 12.1
-1 -7 14 43.6 9.9
1 -7 -14 67.29 12.1
-1 -7 14 67.49 12
1 7 -14 41.1 10.8
1 7 -14 50.09 11.2
-1 7 14 44.4 10.5
-1 7 14 65.59 12.5
1 -7 14 197.58 18.4
1 -7 14 194.48 21
-1 -7 -14 191.48 20.2
-1 -7 -14 214.28 19.8
1 7 14 206.58 18.9
1 7 14 200.88 19.9
-1 7 -14 194.58 20.2
-1 7 -14 186.08 19.5
-3 -7 -14 2005 127.19
3 -7 14 2086.99 127.89
-3 -7 -14 2166.68 127.39
-3 7 -14 2156.98 127.39
-3 7 -14 2154.68 127.59
3 7 14 2188.78 127.59
-5 -7 -14 599.94 39.1
5 -7 14 578.64 40.3
-5 -7 -14 548.05 38.7
5 7 14 566.94 39.2
-5 7 -14 599.14 39.7
-5 7 -14 627.54 39.4
-7 -7 -14 152.88 17.2
-7 -7 -14 159.28 17.6
7 -7 14 171.98 17.6
7 7 14 174.48 16
-7 7 -14 159.78 16.7
-7 7 -14 153.88 16.2
-9 -7 -14 -15.9 8.7
9 -7 14 10 11.9
-9 -7 -14 6.1 8.8
-9 7 -14 -10.6 10.1
-9 7 -14 0.7 9.6
-11 -7 -14 -1.6 7.7
-11 -7 -14 -8 7.7
-11 7 -14 12.7 10.5
-13 7 -14 2.2 10.7
-15 7 -14 786.12 50.69
-14 -8 14 191.28 20.9
-14 8 14 145.89 21.1
-12 -8 14 20.2 12
-12 8 14 10.9 15
-10 -8 14 19.8 8.9
-10 -8 14 -2.7 11.4
-10 8 14 -9.6 13.2
8 -8 -14 -5.4 12.4
-8 -8 14 15.2 8.6
-8 -8 14 -5.1 10.9
-8 8 14 -17.7 10.6
-8 8 14 -9.9 12.4
8 8 -14 1.9 10.5
6 -8 -14 227.38 24
-6 -8 14 219.68 21.7
-6 -8 14 204.48 18.9
-6 8 14 196.58 20.7
6 8 -14 184.98 20.5
-6 8 14 228.28 22.4
-4 -8 14 99.29 13.4
4 -8 -14 77.49 14.2
-4 -8 14 98.29 11.9
-4 8 14 78.29 15
-4 8 14 96.39 13
4 8 -14 108.79 13.2
-2 -8 14 1529.05 90.39
2 -8 -14 1422.56 91.39
-2 -8 14 1424.36 90.89
2 -8 -14 1522.25 91.29
2 8 -14 1432.66 90.69
-2 8 14 1521.25 90.99
2 8 -14 1525.65 91.29
-2 8 14 1544.75 91.79
0 -8 -14 9.2 11.2
0 -8 14 7.3 10.4
0 -8 14 11.4 8.5
0 -8 -14 8.1 9.8
0 8 14 -8.2 11
0 8 -14 -4.6 10.1
0 8 14 3.2 9.8
0 8 -14 6.2 9.5
2 -8 14 3.6 8.8
2 -8 14 4.9 10.6
-2 -8 -14 14.3 10.3
-2 -8 -14 11.7 10.1
-2 8 -14 9.7 9.3
2 8 14 13.1 11.4
-2 8 -14 0.1 9.6
-4 -8 -14 261.37 21.3
4 -8 14 263.57 23.4
-4 -8 -14 220.68 21.1
-4 8 -14 221.38 21.7
4 8 14 213.88 22
-4 8 -14 219.18 21.7
6 -8 14 365.16 30.2
-6 -8 -14 411.76 28.4
-6 -8 -14 381.56 28.3
6 8 14 360.06 28.7
-6 8 -14 377.96 28.8
-6 8 -14 413.26 29.7
-8 -8 -14 542.85 35.8
8 -8 14 584.84 38.7
-8 -8 -14 529.05 36.3
8 8 14 531.75 36.2
-8 8 -14 498.45 36.7
-8 8 -14 541.05 37.9
-10 -8 -14 131.69 13.1
-10 -8 -14 129.59 13.8
-10 8 -14 130.49 15.2
-12 8 -14 713.33 46.8
-14 8 -14 8.9 11.4
-15 -9 14 325.57 27
-15 9 14 299.27 40.1
-13 -9 14 4.3 12
-13 9 14 13.7 15.5
-11 -9 14 254.67 24.9
-11 9 14 277.37 29.2
-9 -9 14 74.19 13.9
-9 -9 14 90.69 11.6
9 9 -14 55.39 13.6
-9 9 14 53.09 15.6
7 -9 -14 443.76 34.2
-7 -9 14 417.96 31.8
-7 -9 14 437.96 29.9
7 9 -14 393.46 31
-7 9 14 409.06 34.6
-7 9 14 430.66 32.7
5 -9 -14 16.4 12.3
-5 -9 14 44.6 9.5
-5 -9 14 30.8 11.3
-5 9 14 14.6 12.9
-5 9 14 38.7 11.4
5 9 -14 30.6 10.9
-3 -9 14 854.01 58.09
3 -9 -14 889.91 58.89
-3 -9 14 949.71 57.49
3 -9 -14 861.51 59.09
-3 9 14 1019.9 58.79
3 9 -14 914.91 58.09
-3 9 14 902.01 59.59
-1 -9 14 5.4 8.4
1 -9 -14 -7.6 10.9
-1 -9 14 -1.6 10.7
1 -9 -14 14.7 10.7
1 9 -14 5.3 10.1
-1 9 14 -6.1 11.1
-1 9 14 21.1 10
1 9 -14 5.1 10.5
-1 -9 -14 266.77 23.2
1 -9 14 264.07 21.6
1 -9 14 238.08 23.9
-1 -9 -14 245.88 23.7
-1 9 -14 287.97 23.3
-1 9 -14 252.37 23.1
1 9 14 215.58 24.1
-3 -9 -14 1616.94 103.19
-3 -9 -14 1856.31 103.69
3 -9 14 1702.93 103.89
-3 9 -14 1771.92 103.69
-3 9 -14 1628.64 103.09
3 9 14 1655.53 103.49
5 -9 14 284.07 26.3
-5 -9 -14 288.07 24.3
-5 -9 -14 268.57 24.2
5 9 14 263.47 24.8
-5 9 -14 340.87 25.4
-5 9 -14 322.77 25.7
7 -9 14 7.8 12
-7 -9 -14 17.8 10.1
-7 -9 -14 5.4 9.7
-7 9 -14 3.2 10.9
-7 9 -14 3.8 10.5
7 9 14 8.2 9.9
-9 -9 -14 97.79 12.2
-9 -9 -14 92.19 13
-9 9 -14 110.79 14.5
-11 -9 -14 114.89 11.9
-11 -9 -14 109.39 12.5
-11 9 -14 100.39 14.1
-13 9 -14 86.59 14
-14 -10 14 93.89 14.3
-14 10 14 40.1 18.1
-12 -10 14 -11.3 12
-12 10 14 -12.4 15.2
-10 -10 14 102.79 15.3
-10 10 14 83.59 17.8
-8 -10 14 17.5 11.7
8 -10 -14 20.8 14.5
-8 -10 14 13.4 8.8
8 10 -14 20.8 11.3
-8 10 14 12.2 12.3
-8 10 14 16.8 13.8
-6 -10 14 123.29 13.1
-6 -10 14 87.89 14.3
6 -10 -14 97.39 16.5
6 10 -14 100.99 14.5
-6 10 14 122.99 16.2
-6 10 14 111.19 17.4
-4 -10 14 89.49 12.1
-4 -10 14 83.99 14.2
4 -10 -14 83.09 15.2
4 10 -14 90.39 13.9
-4 10 14 112.59 15
-4 10 14 83.39 15.5
2 -10 -14 525.75 34.5
-2 -10 14 390.56 32.2
-2 -10 14 437.36 33.9
2 -10 -14 439.56 34.9
-2 10 14 478.95 34
2 10 -14 447.76 33.6
-2 10 14 534.65 36.2
0 -10 14 164.48 17.7
0 -10 14 162.28 17.8
0 -10 -14 157.88 17.3
0 -10 -14 162.48 17.1
0 10 14 190.08 18.6
0 10 -14 174.68 17.3
0 10 14 190.48 18.1
0 10 -14 146.29 16.4
-2 -10 -14 105.49 14.8
2 -10 14 97.49 15.7
-2 -10 -14 121.39 15
2 -10 14 129.89 13.8
-2 10 -14 125.09 15
-2 10 -14 108.99 14.3
2 10 14 146.89 16.4
-4 -10 -14 -6.5 10
-4 -10 -14 15.2 10.2
4 -10 14 13.3 11.9
-4 10 -14 19.1 10.7
4 10 14 16.8 11.1
-4 10 -14 14.8 10.7
-6 -10 -14 308.57 25.3
-6 -10 -14 310.17 25.7
6 -10 14 315.27 28.4
6 10 14 331.87 26.4
-6 10 -14 327.87 27.3
-6 10 -14 291.37 26
8 -10 14 -7.2 12.4
-8 -10 -14 17.5 10.4
-8 -10 -14 19.8 10.2
8 10 14 16.2 10.8
-8 10 -14 23.4 14.2
-8 10 -14 7.3 10.8
-10 -10 -14 26.5 9.6
-10 -10 -14 33.4 10.5
-10 10 -14 23.4 12
-12 10 -14 193.38 21.5
-14 10 -14 -0.7 11.6
-15 -11 14 1083.89 67.79
-13 -11 14 -13.9 11.9
-13 11 14 -11.5 16.2
-11 -11 14 -7.9 12.6
-11 11 14 0.9 15.4
-9 -11 14 475.15 35.5
-9 11 14 496.95 39.2
-7 -11 14 106.49 12.4
7 -11 -14 101.49 17
-7 -11 14 59.79 13.6
-7 11 14 66.89 15
7 11 -14 73.39 13.6
-7 11 14 73.09 16.4
-5 -11 14 192.48 18.6
5 -11 -14 174.48 19.9
-5 -11 14 171.18 18.8
-5 11 14 211.48 20.5
5 11 -14 184.08 18.5
-5 11 14 169.38 21.4
3 -11 -14 1396.26 91.79
-3 -11 14 1525.85 90.69
-3 -11 14 1515.85 91.39
3 -11 -14 1486.35 92.29
-3 11 14 1443.26 91.69
3 11 -14 1463.15 91.19
-3 11 14 1584.74 92.89
-1 -11 14 18.8 9.4
1 -11 -14 4.7 11
-1 -11 14 12.4 11.7
1 -11 -14 15.7 11.6
-1 11 14 27.1 11.3
-1 11 14 8.8 12.7
1 11 -14 5.8 10.9
-1 -11 -14 504.95 34.8
1 -11 14 425.36 35
1 -11 14 470.45 33.1
-1 -11 -14 447.96 34.5
-1 11 -14 510.35 34.4
1 11 14 455.65 35.4
-1 11 -14 462.15 34.2
-3 -11 -14 150.58 16.1
-3 -11 -14 177.28 17.7
3 -11 14 114.99 16.6
-3 11 -14 145.89 15.8
-3 11 -14 141.99 16.3
3 11 14 121.39 16.6
-5 -11 -14 950.5 59.19
-5 -11 -14 946.01 59.89
5 -11 14 921.01 60.99
-5 11 -14 960 60.49
5 11 14 834.92 59.69
-5 11 -14 992 59.89
-7 -11 -14 614.24 41.8
7 -11 14 605.74 44.6
-7 -11 -14 659.33 41.5
-7 11 -14 665.63 43.9
-7 11 -14 584.84 42.2
7 11 14 581.54 42.2
-9 -11 -14 18.4 10
-9 -11 -14 6.5 10.4
-9 11 -14 21.8 11.3
-11 -11 -14 625.64 39.7
-11 -11 -14 609.04 40.3
-11 11 -14 601.84 42.1
-13 11 -14 34.5 12.6
-14 -12 14 202.48 20.2
-14 12 14 197.88 25.6
-12 -12 14 104.09 16.5
-12 12 14 119.99 20.5
-10 -12 14 156.98 18.1
-10 12 14 141.79 21
-8 -12 14 7.8 9.3
-8 -12 14 -0.6 11.6
-8 12 14 -24.4 14.1
-6 -12 14 220.98 23.4
-6 -12 14 222.78 20.9
6 -12 -14 231.88 23
6 12 -14 203.78 20.6
-6 12 14 229.38 23.4
-6 12 14 226.18 24.8
-4 -12 14 794.42 48.4
-4 -12 14 681.33 49
4 -12 -14 782.62 51.29
-4 12 14 784.52 50.19
-4 12 14 631.84 51.19
4 12 -14 749.23 49.2
-2 -12 14 688.23 47
-2 -12 14 735.23 48.8
2 -12 -14 761.42 49
2 -12 -14 728.13 49.3
-2 12 14 754.32 48.6
-2 12 14 692.93 49.8
2 12 -14 686.73 47.7
0 -12 -14 231.58 23.8
0 -12 14 192.78 20.7
0 -12 -14 227.38 23.1
0 -12 14 226.58 20.6
0 12 14 197.68 21.7
0 12 -14 199.98 22.6
0 12 -14 218.18 22.5
2 -12 14 1356.26 76.59
2 -12 14 1263.17 77.59
-2 -12 -14 1215.28 76.59
-2 -12 -14 1177.68 76.89
-2 12 -14 1200.98 76.39
2 12 14 1147.29 77.19
-2 12 -14 1223.18 76.99
4 -12 14 6.3 12.4
-4 -12 -14 26.3 12.2
-4 -12 -14 12.6 11.3
-4 12 -14 22.1 11.4
4 12 14 36.6 12.8
-4 12 -14 21.6 11.3
-6 -12 -14 1148.09 72.39
-6 -12 -14 1190.68 73.29
6 -12 14 1133.59 74.59
-6 12 -14 1187.38 74.39
6 12 14 1111.29 73.19
-6 12 -14 1222.28 73.29
-8 -12 -14 184.48 21.2
-8 -12 -14 191.78 20.6
-8 12 -14 179.48 19.4
8 12 14 240.08 20.2
-10 -12 -14 14.4 9.7
-10 -12 -14 6.9 10.7
-10 12 -14 14 11.7
-12 -12 -14 608.14 39.6
-12 12 -14 626.34 42.9
-14 12 -14 175.48 19
-13 -13 14 69.69 15
-13 13 14 46.8 18.8
-11 -13 14 311.57 28.5
-11 13 14 335.57 33.9
-9 -13 14 27.8 13
-9 13 14 6.1 16.5
7 -13 -14 250.97 27.3
-7 -13 14 316.67 27.1
-7 -13 14 347.37 25.1
-7 13 14 283.07 31.5
7 13 -14 307.47 27.6
-5 -13 14 1380.16 93.09
-5 -13 14 1581.74 92.89
5 -13 -14 1468.65 94.99
-5 13 14 1526.85 95.49
-5 13 14 1616.24 94.99
5 13 -14 1538.15 93.49
-3 -13 14 22.2 12.8
-3 -13 14 55.99 10.8
3 -13 -14 39.8 13.9
-3 13 14 32.3 14.8
-3 13 14 36.9 12.6
3 13 -14 33.9 12.5
-1 -13 14 12.4 12.4
-1 -13 14 22.5 9.4
1 -13 -14 30.9 13.1
1 -13 -14 23.8 12.8
1 13 -14 15.4 12.1
-1 13 14 24 14.1
-1 -13 -14 22.1 12.6
1 -13 14 16.7 13.2
-1 -13 -14 41 13
1 -13 14 6.1 9.2
1 13 14 25.3 13.6
-1 13 -14 0.7 11.2
-1 13 -14 6.7 11.3
-3 -13 -14 2631.84 151.68
-3 -13 -14 2521.45 150.98
3 -13 14 2416.86 151.68
3 13 14 2542.55 151.58
-3 13 -14 2484.05 151.48
-3 13 -14 2482.15 150.88
-5 -13 -14 689.23 47.8
5 -13 14 710.33 49.99
-5 -13 -14 693.13 48.6
-5 13 -14 741.13 49.5
-5 13 -14 793.72 48.6
5 13 14 680.73 48.7
-7 -13 -14 2.8 10.9
-7 -13 -14 5.1 11.5
-7 13 -14 -8.2 11.7
7 13 14 0.8 12
-9 -13 -14 -3.3 10.3
-9 13 -14 -1.9 11.4
-11 -13 -14 46 11.2
-11 13 -14 35.3 13.3
-13 13 -14 12.5 12.7
-14 -14 14 56.49 14.1
-14 14 14 43.5 22.5
-12 -14 14 279.97 27.3
-12 14 14 286.07 29.9
-10 -14 14 -7.2 12.8
-10 14 14 6.8 16.5
-8 -14 14 105.29 16
-8 14 14 105.49 20.2
-6 -14 14 1512.55 90.29
-6 -14 14 1355.96 90.89
6 -14 -14 1503.65 93.29
-6 14 14 1333.47 92.99
6 14 -14 1583.14 91.49
-6 14 14 1539.45 93.09
-4 -14 14 151.88 18.1
-4 -14 14 155.58 16
4 -14 -14 137.59 18.7
-4 14 14 146.79 18.7
4 14 -14 158.48 17.9
-4 14 14 141.99 19.7
2 -14 -14 -2 12.1
2 -14 -14 -2.7 12.6
-2 -14 14 -0.5 9
-2 -14 14 6.2 12.8
-2 14 14 -17.1 13.3
2 14 -14 -9.2 11.5
0 -14 -14 453.65 35.8
0 -14 14 476.35 36.1
0 -14 -14 470.25 35.7
0 -14 14 439.66 33.2
0 14 -14 444.26 34.3
0 14 14 456.45 36.8
-2 -14 -14 352.46 31.3
2 -14 14 366.76 31.8
-2 -14 -14 334.57 30.8
-2 14 -14 441.26 30.7
2 14 14 298.77 32
-2 14 -14 394.06 30.8
-4 -14 -14 6.2 12.3
-4 -14 -14 -9.7 11.2
4 -14 14 -1.8 12.8
-4 14 -14 3.1 11.6
4 14 14 -1.5 12.8
-4 14 -14 -0.2 11.5
-6 -14 -14 82.99 14.4
6 -14 14 76.49 17.3
-6 -14 -14 102.29 15.7
6 14 14 118.79 17.1
-6 14 -14 87.39 15.4
-8 -14 -14 141.59 16.4
-8 14 -14 118.49 16.6
-10 -14 -14 95.09 13.3
-10 14 -14 62.89 14.6
-12 -14 -14 39.2 10.7
-12 14 -14 48.4 14
-13 -15 14 152.58 18.7
-13 15 14 141.39 23.9
-11 -15 14 88.59 15.7
-11 15 14 75.19 20.6
-9 -15 14 12.2 12.8
-9 15 14 17 16.7
-7 -15 14 -2.2 12.4
-7 15 14 -10.2 15.1
-5 -15 14 12.9 12.9
-5 -15 14 0 9.9
5 -15 -14 0 13.9
-5 15 14 1.2 12.5
-5 15 14 11.5 15.2
5 15 -14 6.6 12.4
-3 -15 14 630.24 48
3 -15 -14 701.63 49.4
-3 -15 14 762.42 46.7
-3 15 14 711.63 48.5
-3 15 14 679.73 50.09
3 15 -14 664.23 47.4
1 -15 -14 16.8 12.9
-1 -15 14 17.4 13.5
-1 -15 14 9.7 10.2
1 -15 -14 6.5 13.4
1 15 -14 19.2 11.8
-1 15 14 2.3 14.5
-1 -15 -14 851.21 58.29
1 -15 14 906.11 58.89
1 -15 14 931.91 57.19
-1 -15 -14 931.01 59.19
1 15 14 821.12 59.09
-1 15 -14 834.12 57.59
-3 -15 -14 61.99 15
3 -15 14 57.89 15.4
-3 -15 -14 47.1 13.8
-3 15 -14 41.6 13.1
-3 15 -14 33.7 13.5
3 15 14 54.39 15
-5 -15 -14 559.04 42.2
-5 -15 -14 558.74 43.5
5 -15 14 600.94 44.9
-5 15 -14 689.63 43.5
-5 15 -14 653.63 44.5
5 15 14 565.94 43.8
-7 -15 -14 263.47 24.3
-7 15 -14 236.58 26
-9 -15 -14 0.7 11.4
-9 15 -14 11.2 12.9
-11 -15 -14 173.48 17.4
-11 15 -14 168.68 19.6
-13 -15 -14 123.69 13.7
-13 15 -14 156.08 18.5
-12 -16 14 19.2 14.2
-12 16 14 62.29 20.4
-10 -16 14 10.2 13.3
-10 16 14 13.8 17.4
-8 -16 14 83.39 15.6
-8 16 14 49.7 18.3
6 -16 -14 13.8 15.5
-6 -16 14 10.7 13
-6 16 14 8.4 15.8
-4 -16 14 159.98 20.3
4 -16 -14 180.78 21.7
-4 -16 14 158.08 19.8
-4 16 14 161.18 21.9
4 16 -14 177.68 19.9
-4 16 14 198.68 21.5
2 -16 -14 -5.7 13.9
-2 -16 14 1.7 9.9
2 -16 -14 4.8 13.7
-2 -16 14 5.2 13.7
-2 16 14 14.4 15.2
2 16 -14 -7.9 12.2
0 -16 -14 383.16 33.4
0 -16 14 413.26 30.6
0 -16 -14 349.67 32.8
0 -16 14 393.56 33.1
0 16 -14 389.66 31.4
0 16 14 335.97 34.3
2 -16 14 217.98 23.1
-2 -16 -14 221.78 22.3
-2 -16 -14 239.78 23.6
2 16 14 216.28 23.8
-2 16 -14 214.18 25.5
-2 16 -14 192.28 21.2
4 -16 14 163.98 20.3
-4 -16 -14 202.28 26.2
-4 -16 -14 142.79 18.2
-4 16 -14 131.09 18.4
4 16 14 174.48 20.4
-4 16 -14 111.99 17.9
-6 -16 -14 165.98 19.1
-6 16 -14 207.18 21.1
-8 -16 -14 37.8 13.1
-8 16 -14 9.3 13.2
-10 -16 -14 21.7 12.5
-10 16 -14 44.9 14.7
-12 -16 -14 109.49 15
-12 16 -14 157.18 18.8
-13 17 14 6.2 20.4
-11 -17 14 21.8 14
-11 17 14 6.8 18.7
-9 -17 14 12.5 13.5
-9 17 14 36.8 18.2
-7 -17 14 354.26 30.3
-7 17 14 308.97 35
5 -17 -14 14.3 15.7
-5 -17 14 13.2 13.4
-5 17 14 -1.9 15.7
3 -17 -14 32.5 14.9
-3 -17 14 41.1 14.7
3 17 -14 27.4 13.7
-3 17 14 23 16.2
1 -17 -14 1438.56 92.49
-1 -17 14 1717.13 91.79
-1 -17 14 1394.46 91.89
1 -17 -14 1458.85 92.89
-1 17 14 1281.97 92.79
1 17 -14 1484.35 91.49
-1 -17 -14 18.8 13.8
1 -17 14 -11.3 10.6
1 -17 14 5.5 14.2
-1 -17 -14 24.4 14.1
1 17 14 -12 14.5
-1 17 -14 9.6 12.4
3 -17 14 10.2 14.8
-3 -17 -14 1 13
3 17 14 -15.2 14.9
-3 17 -14 7.5 13.7
-3 17 -14 4.4 12.6
5 -17 14 2001.5 124.09
-5 -17 -14 1985.4 121.69
-5 17 -14 2003.2 122.19
-7 -17 -14 39.9 13.7
-7 17 -14 55.59 15.3
-9 -17 -14 25.3 13.4
-9 17 -14 40.2 14.8
-11 -17 -14 9.7 11.5
-11 17 -14 -2.2 13.8
-13 -17 -14 454.85 32.3
-12 -18 14 8.4 14.2
-12 18 14 -7.7 19.4
-10 -18 14 47.8 15.2
-10 18 14 50.49 19.8
-8 -18 14 426.36 34
-8 18 14 378.36 39.7
-6 -18 14 -3.5 13.4
-6 18 14 6.5 16.4
-4 -18 14 374.66 32
4 -18 -14 322.87 33.9
-4 18 14 324.77 35.3
-2 -18 14 170.38 20.1
2 -18 -14 112.49 18.8
-2 18 14 126.59 21.3
2 18 -14 125.39 18.5
0 -18 -14 110.79 17.5
0 -18 14 104.09 15.5
0 -18 14 85.29 17.2
0 -18 -14 88.89 17.9
0 18 14 92.39 19.1
0 18 -14 77.79 16.1
2 -18 14 206.88 23.5
-2 -18 -14 201.88 22.4
-2 18 -14 202.38 22.4
2 18 14 210.88 24.5
4 -18 14 989.8 65.29
-4 -18 -14 931.81 62.29
-4 18 -14 927.71 62.59
-6 -18 -14 299.37 26.6
-6 18 -14 203.88 23.3
-8 -18 -14 85.09 15.8
-8 18 -14 106.89 17.3
-10 -18 -14 3.2 12.6
-10 18 -14 -5.7 13.9
-12 -18 -14 185.38 19.4
-12 18 -14 258.97 26.7
-11 -19 14 16.5 14.5
-11 19 14 -14.8 19
-9 -19 14 118.19 17.9
-9 19 14 67.39 21.5
-7 -19 14 69.79 16.6
-7 19 14 69.29 19.9
5 -19 -14 2031.2 117.89
-5 -19 14 1859.71 115.09
-5 19 14 1708.13 117.19
3 -19 -14 166.38 21.8
-3 -19 14 169.38 21
-3 19 14 138.69 22.7
-1 -19 14 65.39 16.4
1 -19 -14 34.2 16.3
-1 19 14 24.5 17.3
1 19 -14 47.6 15.1
1 -19 14 737.23 53.59
-1 -19 -14 815.72 53.19
1 19 14 706.13 55.99
-1 19 -14 731.13 52.19
3 -19 14 31.9 16.6
-3 -19 -14 31.7 14.7
-3 19 -14 3.9 13.9
-5 -19 -14 123.29 18.2
-5 19 -14 159.38 19.6
-7 -19 -14 15.6 13.9
-7 19 -14 34.4 15.1
-9 -19 -14 9.9 13.5
-9 19 -14 7 14.7
-11 -19 -14 -2.6 12.6
-11 19 -14 21.6 15.3
-12 20 14 75.39 23.1
-10 -20 14 -7.5 14.2
-10 20 14 8.7 20.1
-8 -20 14 3.4 14.3
-8 20 14 -13.2 18.5
-6 -20 14 105.79 18.2
-6 20 14 63.09 20.7
4 -20 -14 1286.97 79.99
-4 -20 14 1190.68 77.19
-4 20 14 1084.09 79.59
-2 -20 14 21.7 15
2 -20 -14 -1.7 15.2
-2 20 14 -12.7 16.9
0 -20 14 4.4 14.9
0 -20 -14 -8.9 14.9
0 20 -14 2.9 14.1
2 -20 14 209.78 24.9
-2 -20 -14 212.08 23.3
-2 20 -14 218.68 23.4
-4 -20 -14 -1 14
-4 20 -14 -1.8 14.1
-6 -20 -14 311.97 30.8
-6 20 -14 352.46 32.1
-8 -20 -14 494.15 39
-8 20 -14 529.95 41.1
-10 -20 -14 235.48 26.6
-10 20 -14 277.07 29.5
-12 20 -14 -6.7 15.9
-11 21 14 113.19 25.3
-9 -21 14 17.6 15.3
-9 21 14 -3.9 20
-7 -21 14 49.99 16.5
-7 21 14 31.4 20.7
-5 -21 14 151.58 21
-5 21 14 135.59 24.5
3 -21 -14 6.9 17.1
-3 -21 14 42.8 16.6
-3 21 14 36.1 19.2
-1 -21 14 -2 15.2
1 -21 -14 14.6 15.6
1 -21 14 27.9 16.6
-1 -21 -14 26.1 15.8
-1 21 -14 31.4 15.9
3 -21 14 31.4 18.4
-3 -21 -14 24.4 16.1
-3 21 -14 54.89 16.5
-5 -21 -14 467.55 40.4
-5 21 -14 569.84 41.9
-7 -21 -14 24.1 14.6
-7 21 -14 15.8 15.3
-9 -21 -14 8 14
-9 21 -14 9 15.4
-11 21 -14 5.2 15.6
-12 22 14 13.6 21.5
-10 -22 14 108.79 19.3
-10 22 14 115.49 25.1
-8 -22 14 129.79 19.9
-8 22 14 66.89 23.8
-6 -22 14 8.7 15.6
-6 22 14 21.6 20.9
-4 -22 14 172.38 21.9
-4 22 14 122.29 25.2
-2 -22 14 2.1 15.4
2 -22 -14 9.9 17
0 -22 -14 -27.5 14.7
0 -22 14 1 15.4
-2 -22 -14 7.8 15.7
2 -22 14 11.8 17.6
-2 22 -14 -8.6 14.7
-4 -22 -14 292.37 32.3
-4 22 -14 359.46 33.6
-6 -22 -14 54.39 17.1
-6 22 -14 62.59 18.1
-8 -22 -14 56.59 16.4
-8 22 -14 49.6 17.2
-10 22 -14 4.7 16.1
-11 23 14 -3 21
-9 -23 14 38.1 16.9
-9 23 14 29.2 22.7
-7 -23 14 10.8 16
-7 23 14 12.1 21.2
-5 -23 14 157.68 21.5
-5 23 14 107.39 25.3
-3 -23 14 98.19 19.6
3 -23 -14 116.49 21.8
-1 -23 14 18.4 16.5
1 -23 -14 2.8 16.8
1 -23 14 42.4 19.3
-1 -23 -14 38.1 17.1
-3 -23 -14 61.29 17.8
-3 23 -14 43.5 17.2
-5 -23 -14 149.79 21.2
-5 23 -14 127.29 20.6
-7 -23 -14 6.8 15.6
-7 23 -14 30.9 16.8
-9 -23 -14 -12.4 14.6
-9 23 -14 -4.5 16.3
-11 23 -14 59.39 18.8
-10 24 14 45.1 23.4
-8 -24 14 215.08 24.1
-8 24 14 164.88 28.8
-6 -24 14 0.3 16.1
-6 24 14 4.8 21.9
-4 -24 14 34.5 17.4
2 -24 -14 185.58 25.9
-2 -24 14 187.58 23.9
0 -24 -14 -1 17.1
0 -24 14 -3.8 17.4
2 -24 14 28 20
-2 -24 -14 36.4 17.5
-4 -24 -14 365.86 36.9
-4 24 -14 426.56 38.5
-6 -24 -14 292.47 33.5
-6 24 -14 347.87 33.8
-8 -24 -14 18.3 16
-8 24 -14 -10.3 16.3
-10 24 -14 -6.1 16.7
-11 25 14 -9.9 22.9
-9 25 14 22 21.8
-7 -25 14 57.49 18.7
-5 -25 14 362.56 36.5
-3 -25 14 38.3 17.9
1 -25 -14 142.39 23.7
-1 -25 14 90.59 21.2
1 -25 14 -13.7 18.5
-1 -25 -14 -1.2 17.7
-3 -25 -14 99.79 20.8
-5 -25 -14 489.45 43.4
-5 25 -14 616.14 62.49
-7 -25 -14 70.09 18.6
-7 25 -14 43.1 19.7
-9 25 -14 32.2 18.9
-10 26 14 4.5 23.3
-6 -26 14 340.17 36.1
-4 -26 14 200.78 25.7
-2 -26 14 -16.9 16.8
2 -26 -14 6.9 20.4
0 -26 -14 20.4 18.7
0 -26 14 -10.3 18.7
-2 -26 -14 204.28 26.1
-4 -26 -14 47.1 19.2
-6 -26 -14 72.99 19.8
-8 26 -14 26.4 19.7
-10 26 -14 40.1 19.8
-5 -27 14 71.89 20.4
-3 -27 14 6.7 18.3
1 -27 -14 2.6 19.6
-1 -27 14 -5.7 18.6
-1 -27 -14 32.2 20.1
-3 -27 -14 -2.6 18.1
-5 -27 -14 27.4 18.4
-9 27 -14 7 19
-6 -28 14 193.28 25.9
-4 -28 14 5.7 18.5
-2 -28 14 68.99 20.8
0 -28 14 -14.2 19.8
0 -28 -14 9.7 20
-2 -28 -14 58.99 21.1
-4 -28 -14 27.2 19
-5 -29 14 56.19 20.9
-3 -29 14 -0.3 18.7
-1 -29 14 32.2 21.3
-1 -29 -14 -5.9 19.7
-3 -29 -14 61.29 21
-4 -30 14 2.6 19.5
-2 -30 14 114.09 24.6
0 -30 -14 38.8 22.2
-2 -30 -14 32.4 20.2
-3 -31 14 79.19 23.9
-1 -31 -14 27.3 21.6
-3 -31 -14 3.7 28.3
-2 -32 14 55.19 23.8
-2 -32 -14 89.19 25.1
-16 0 15 -4.3 14.9
-14 0 15 -13.3 12.5
-12 0 15 -6.2 12.7
-10 0 15 7.7 10.1
10 0 -15 4.8 11.5
-10 0 15 2.8 12
8 0 -15 -2.2 10.8
-8 0 15 3.6 11.4
-8 0 15 -5.3 9.2
-6 0 15 14.5 9.1
-6 0 15 14.8 10.8
6 0 -15 10.1 10.8
-4 0 15 9.7 11.2
4 0 -15 10.2 10.6
-4 0 15 13.8 8.6
-2 0 15 6 9.7
2 0 -15 1.1 10.4
2 0 -15 6.4 9.3
-2 0 15 -7 8
0 0 15 -7.4 10.6
0 0 -15 -5.6 10.2
0 0 15 10.1 8.6
0 0 -15 -5 8.6
2 0 15 2 9.1
-2 0 -15 13.9 10.2
-2 0 -15 -2.7 8.9
2 0 15 1 10.4
4 0 15 6 10.1
-4 0 -15 3.2 9.4
-4 0 -15 6.4 8.5
6 0 15 -8.4 9.3
-6 0 -15 5 9.1
-6 0 -15 -0.1 8.8
-8 0 -15 2.6 9.5
-8 0 -15 -1 8.3
8 0 15 10.1 9.9
-10 0 -15 14.6 8.7
-10 0 -15 15 9.3
-12 0 -15 6.7 8.7
-12 0 -15 8.3 8.9
-15 -1 15 148.29 18.7
-15 1 15 165.38 19.4
-13 -1 15 18 12.7
-13 1 15 16.1 13.1
-11 -1 15 134.49 17.1
-11 1 15 143.49 18
-9 -1 15 121.69 16.1
9 -1 -15 116.79 15.8
-9 -1 15 146.09 15.3
9 1 -15 120.09 15.8
-9 1 15 148.79 15.6
-9 1 15 97.79 15.7
-7 -1 15 47.1 10.8
7 -1 -15 37.9 12.1
-7 -1 15 39.9 12.2
-7 1 15 34.1 12.1
-7 1 15 40.8 10.6
7 1 -15 29.7 11.5
-3 -1 15 876.51 56.29
3 -1 -15 845.32 56.19
3 -1 -15 936.61 56.49
-3 -1 15 853.61 55.29
-3 1 15 905.71 55.59
3 1 -15 888.71 56.29
-3 1 15 877.21 56.59
3 1 -15 899.71 56.19
1 -1 -15 4030.4 240.08
-1 -1 15 4138.49 239.88
-1 -1 15 4106.19 240.28
1 -1 -15 4021.4 240.08
-1 1 15 4170.08 240.28
1 1 -15 4106.99 240.08
1 1 -15 4217.78 240.08
-1 1 15 3730.93 239.68
-1 -1 -15 2878.01 159.48
-1 -1 -15 2546.95 159.18
1 -1 15 2674.43 159.48
1 -1 15 2604.04 158.98
-1 1 -15 2631.04 159.18
1 1 15 2708.43 159.48
-1 1 -15 2774.92 159.38
1 1 15 2613.84 159.08
3 -1 15 165.18 15.9
-3 -1 -15 123.49 14
-3 -1 -15 137.49 14.1
-3 1 -15 122.99 13.5
3 1 15 166.68 15.6
-3 1 -15 139.49 14.5
5 -1 15 401.46 30.6
-5 -1 -15 411.96 29.5
-5 -1 -15 423.06 29.8
-5 1 -15 457.75 30.1
5 1 15 433.46 30.7
-5 1 -15 408.06 29.7
-7 -1 -15 36.6 10.1
7 -1 15 45.1 11.1
-7 -1 -15 44.4 10.1
-7 1 -15 59.39 10.2
-7 1 -15 42.4 10.1
7 1 15 34.6 10.7
-9 -1 -15 1509.75 92.29
9 -1 15 1514.85 92.99
-9 -1 -15 1614.64 92.29
9 1 15 1455.75 92.59
-9 1 -15 1570.54 92.59
-9 1 -15 1528.55 92.39
-11 -1 -15 21.6 9.2
-11 -1 -15 22 8.9
-11 1 -15 23.4 9.6
-11 1 -15 21.3 9.3
-13 -1 -15 181.88 17.9
-13 -1 -15 215.08 17.7
-13 1 -15 222.08 19.2
-16 -2 15 74.29 14.8
-14 -2 15 36.2 13.5
-14 2 15 48.1 15.1
-12 -2 15 133.99 17
-12 2 15 137.19 18
-10 -2 15 26.6 12.6
-10 -2 15 39.4 10.5
10 -2 -15 30 14.5
10 2 -15 13.1 11.8
-10 2 15 28.1 13.1
-10 2 15 21.7 10.8
8 -2 -15 46.3 12.8
-8 -2 15 58.59 13.2
-8 -2 15 37.1 10.6
8 2 -15 38.7 12.2
-8 2 15 75.99 12.1
-8 2 15 87.69 14.3
6 -2 -15 521.05 39.3
-6 -2 15 534.25 39.3
-6 -2 15 608.34 38.3
6 2 -15 585.14 39.1
-6 2 15 598.34 38.7
-6 2 15 574.64 39.7
-4 -2 15 3683.93 237.08
-4 -2 15 3928.81 237.48
4 -2 -15 4129.49 237.68
-4 2 15 4275.57 237.78
4 2 -15 4116.89 237.48
-4 2 15 3974.5 237.48
-2 -2 15 99.39 11.7
2 -2 -15 97.49 12.9
2 -2 -15 89.29 12.8
-2 -2 15 73.89 13.2
2 2 -15 91.99 13.3
-2 2 15 78.69 13.1
2 2 -15 105.39 13.3
-2 2 15 124.89 12.7
0 -2 -15 1389.76 83.99
0 -2 15 1476.35 83.59
0 -2 15 1418.46 84.19
0 -2 -15 1349.66 83.79
0 2 -15 1328.27 83.59
0 2 -15 1318.47 83.69
0 2 15 1294.87 84.19
0 2 15 1411.56 83.59
-2 -2 -15 346.67 26
2 -2 15 361.36 27
2 -2 15 367.96 26
-2 -2 -15 336.67 26.3
2 2 15 347.97 26.7
-2 2 -15 341.87 26.3
2 2 15 290.97 25.6
-2 2 -15 348.37 25.8
-4 -2 -15 15.9 9.9
4 -2 15 -0.3 9.5
-4 -2 -15 19.6 9.2
4 2 15 22.4 10
-4 2 -15 23.8 9.4
-4 2 -15 4 9.1
-6 -2 -15 920.61 54.99
6 -2 15 887.51 55.59
-6 -2 -15 869.41 54.79
-6 2 -15 865.01 55.09
-6 2 -15 876.91 54.99
6 2 15 848.42 55.29
-8 -2 -15 30.7 9.8
8 -2 15 32.3 11
-8 -2 -15 36.7 9.5
-8 2 -15 38.8 10.3
8 2 15 42.9 10.6
-8 2 -15 30.4 9.4
-10 -2 -15 846.12 52.09
-10 -2 -15 859.61 52.09
10 -2 15 801.12 53.39
-10 2 -15 853.01 52.99
-10 2 -15 823.72 52.59
-12 -2 -15 79.19 10.1
-12 -2 -15 73.89 10.3
-12 2 -15 56.69 11.4
-14 2 -15 -15.7 9.5
-15 -3 15 386.96 30.9
-15 3 15 381.36 33.3
-13 -3 15 61.39 14.4
-13 3 15 77.09 16.3
-11 -3 15 75.29 13.8
-11 -3 15 58.49 13.6
-11 3 15 47.3 14.1
-9 -3 15 825.62 52.79
-9 -3 15 797.22 51.79
9 -3 -15 845.22 53.69
9 3 -15 771.42 52.59
-9 3 15 837.62 53.89
-9 3 15 797.42 52.89
-7 -3 15 834.12 55.59
7 -3 -15 863.71 55.99
-7 -3 15 858.81 54.69
7 3 -15 886.21 55.39
-7 3 15 842.12 56.19
-7 3 15 905.01 55.59
-5 -3 15 496.35 34.6
5 -3 -15 489.65 35.9
-5 -3 15 567.44 36.1
-5 3 15 518.45 36.8
-5 3 15 464.95 35.1
5 3 -15 521.65 35.7
3 -3 -15 553.74 38.1
-3 -3 15 564.14 36.7
-3 -3 15 555.14 38.3
3 -3 -15 516.25 37.9
-3 3 15 557.34 38.6
-3 3 15 563.04 37.2
3 3 -15 534.75 37.7
3 3 -15 578.64 38
1 -3 -15 733.03 47.8
-1 -3 15 704.93 47.8
-1 -3 15 718.73 46.8
1 -3 -15 754.42 47.4
1 3 -15 791.42 47.4
1 3 -15 678.13 47.3
-1 3 15 768.32 48.3
-1 3 15 689.43 46.8
-1 -3 -15 0.4 9
1 -3 15 5.9 9.5
-1 -3 -15 8.3 10.1
1 -3 15 0.1 8.5
-1 3 -15 -6.2 8.2
1 3 15 -0.7 9.8
-1 3 -15 5.1 9.7
1 3 15 -1.2 9.4
3 -3 15 7 10.2
-3 -3 -15 -0.7 9.3
-3 -3 -15 6.2 9.1
-3 3 -15 12.4 9.1
-3 3 -15 -4.7 9.1
3 3 15 -4.7 9.8
5 -3 15 3714.93 211.68
-5 -3 -15 3558.14 211.28
-5 -3 -15 3362.06 210.98
-5 3 -15 3669.33 211.48
-5 3 -15 3465.65 211.18
5 3 15 3677.63 211.38
-7 -3 -15 128.59 13.9
-7 -3 -15 138.99 13.7
7 -3 15 125.59 14.8
7 3 15 143.39 14.9
-7 3 -15 122.29 14
-7 3 -15 112.79 13.6
-9 -3 -15 20.5 9.1
-9 -3 -15 18.6 8.8
9 -3 15 22.1 10.7
-9 3 -15 16 9.7
-9 3 -15 16.5 9.6
9 3 15 24.3 10.1
-11 -3 -15 448.96 29.9
-11 -3 -15 449.46 30
-11 3 -15 446.06 31.3
-11 3 -15 436.86 31.8
-13 3 -15 1255.17 76.49
-15 3 -15 81.49 12.2
-16 -4 15 23 12.7
-14 -4 15 37.8 13.7
-14 4 15 72.99 16.4
-12 -4 15 65.39 14
-12 4 15 63.99 15.7
-10 -4 15 4.9 8.9
-10 -4 15 1.1 11.3
10 4 -15 4.3 11.3
-10 4 15 -13.3 12
-8 -4 15 3945.61 222.08
8 -4 -15 3924.71 223.08
-8 -4 15 3424.76 221.98
8 4 -15 3621.94 222.08
-8 4 15 3671.63 222.88
-8 4 15 3921.81 222.88
6 -4 -15 62.49 13.1
-6 -4 15 66.59 13.1
-6 -4 15 73.89 11.3
-6 4 15 82.19 14.6
-6 4 15 96.89 13.2
6 4 -15 67.79 12.7
4 -4 -15 38.1 11.6
-4 -4 15 18.9 11
-4 -4 15 57.49 10.2
-4 4 15 19.7 11.4
-4 4 15 45.8 10.6
4 4 -15 51.49 11.9
2 -4 -15 2687.53 148.39
2 -4 -15 2401.86 148.29
-2 -4 15 2532.15 148.19
-2 -4 15 2425.36 147.69
2 4 -15 2380.06 147.89
2 4 -15 2496.65 147.99
-2 4 15 2466.05 147.99
-2 4 15 2465.35 148.49
0 -4 15 276.27 23.9
0 -4 15 235.38 21.3
0 -4 -15 273.87 22.4
0 -4 -15 235.88 22.9
0 4 15 249.28 23.5
0 4 -15 278.17 22.2
0 4 15 264.07 21.7
0 4 -15 265.07 22.7
2 -4 15 2473.15 150.98
-2 -4 -15 2477.55 150.78
-2 -4 -15 2473.55 150.88
2 -4 15 2608.24 150.68
-2 4 -15 2561.14 150.88
2 4 15 2440.16 150.58
-2 4 -15 2532.85 150.88
2 4 15 2701.63 151.18
-4 -4 -15 1708.03 106.39
4 -4 15 1767.72 107.09
-4 -4 -15 1862.91 106.89
4 4 15 1846.02 106.89
-4 4 -15 1857.21 106.89
-4 4 -15 1599.74 106.49
6 -4 15 610.04 40.3
-6 -4 -15 571.34 39.3
-6 -4 -15 617.74 39.2
6 4 15 584.14 39.5
-6 4 -15 576.24 39.6
-6 4 -15 616.74 39.5
-8 -4 -15 4 9
8 -4 15 7 10.4
-8 -4 -15 11.7 8.9
8 4 15 2.7 9.5
-8 4 -15 5 9.2
-8 4 -15 9 9.6
-10 -4 -15 64.99 10.7
-10 -4 -15 56.69 10
10 -4 15 60.69 21.4
-10 4 -15 70.79 11.6
-10 4 -15 58.39 11.5
-12 -4 -15 1576.04 92.09
-12 -4 -15 1498.85 91.99
-12 4 -15 1555.54 93.39
-14 4 -15 110.99 13.8
-15 -5 15 83.89 14.5
-15 5 15 77.19 17.7
-13 -5 15 49.4 13.5
-13 5 15 50.09 15.8
-11 -5 15 -6 11.8
-11 5 15 14.8 14
9 -5 -15 995.5 65.39
-9 -5 15 1035.6 62.99
-9 -5 15 994.3 64.09
9 5 -15 1024.9 63.89
-9 5 15 1091.79 65.09
-9 5 15 912.91 64.79
-7 -5 15 92.39 12.5
-7 -5 15 74.39 13.7
7 -5 -15 102.49 15.1
-7 5 15 61.29 14.4
7 5 -15 94.39 13.5
-7 5 15 85.09 13.8
5 -5 -15 541.15 38.1
-5 -5 15 517.45 35.8
-5 -5 15 524.35 37.3
-5 5 15 545.15 37
-5 5 15 549.74 38.2
5 5 -15 522.75 37.1
3 -5 -15 1376.86 83.69
3 -5 -15 1369.66 83.59
-3 -5 15 1339.77 82.69
-3 -5 15 1306.57 83.29
3 5 -15 1404.36 83.19
-3 5 15 1306.07 83.79
-3 5 15 1409.56 83.39
1 -5 -15 3114.99 187.48
1 -5 -15 3213.98 187.58
-1 -5 15 3153.48 187.48
-1 -5 15 3170.28 187.08
-1 5 15 3054.79 187.68
-1 5 15 3363.96 187.48
1 5 -15 2913.81 187.08
1 5 -15 3277.87 187.48
1 -5 15 1329.77 79.59
-1 -5 -15 1356.76 80.09
1 -5 15 1286.77 80.19
-1 -5 -15 1313.17 80.29
1 5 15 1334.77 80.49
-1 5 -15 1257.87 79.79
-1 5 -15 1260.27 79.89
1 5 15 1312.27 79.89
-3 -5 -15 1109.19 66.99
-3 -5 -15 970.6 66.79
3 -5 15 1136.49 67.69
-3 5 -15 1122.09 67.29
-3 5 -15 1084.59 67.09
3 5 15 1085.69 67.39
-5 -5 -15 236.78 20.7
5 -5 15 213.38 22
-5 -5 -15 260.07 21.3
-5 5 -15 221.48 21.2
-5 5 -15 242.18 21.2
5 5 15 230.58 21.5
-7 -5 -15 283.87 22.8
7 -5 15 275.67 24.7
-7 -5 -15 311.57 23.2
-7 5 -15 272.67 23.4
7 5 15 266.67 23.3
-7 5 -15 286.97 23.8
-9 -5 -15 61.39 10.7
-9 -5 -15 73.19 10.7
9 -5 15 59.89 13
-9 5 -15 66.59 11.7
-9 5 -15 44.2 11.5
-11 -5 -15 235.38 18.9
-11 -5 -15 229.48 18.7
-11 5 -15 227.08 21.5
-13 5 -15 341.67 26.5
-15 5 -15 208.78 20.6
-16 -6 15 12.4 12.1
-14 -6 15 32.6 13
-14 6 15 58.69 16.9
-12 -6 15 131.49 16.5
-12 6 15 135.89 19.1
-10 -6 15 78.79 11.5
-10 -6 15 59.19 14
-10 6 15 48.6 14.9
-8 -6 15 1.7 9
-8 -6 15 7.2 11.6
8 -6 -15 13 12.7
-8 6 15 5.4 12.4
-8 6 15 4.6 10.9
8 6 -15 14.6 10.9
-6 -6 15 193.68 21.8
-6 -6 15 216.38 19.7
6 -6 -15 214.08 23.1
-6 6 15 215.98 24
6 6 -15 210.58 21.4
-6 6 15 218.38 21.8
-4 -6 15 1940.11 118.49
-4 -6 15 1954.9 118.89
4 -6 -15 2016.8 119.59
-4 6 15 2209.38 119.59
4 6 -15 1861.01 118.69
-4 6 15 1876.71 119.49
-2 -6 15 70.19 11
-2 -6 15 77.19 12.7
2 -6 -15 62.09 12.5
2 -6 -15 34.2 11.2
-2 6 15 56.89 12.7
-2 6 15 67.09 11.4
2 6 -15 54.09 11.7
2 6 -15 72.59 11.7
0 -6 15 931.11 59.79
0 -6 -15 917.71 59.29
0 -6 -15 936.71 59.59
0 -6 15 893.51 58.69
0 6 -15 888.71 59.19
0 6 15 1008.9 59.49
0 6 -15 980.2 59.39
0 6 15 997.4 60.39
2 -6 15 318.17 26.7
-2 -6 -15 314.77 27.3
2 -6 15 362.16 28.1
-2 -6 -15 416.36 27.8
2 6 15 408.56 28.5
-2 6 -15 317.07 27.4
-2 6 -15 384.96 27.4
-4 -6 -15 28.6 10.3
4 -6 15 37.2 11.6
-4 -6 -15 32.1 10.1
-4 6 -15 32.8 10.5
-4 6 -15 43.5 10.6
4 6 15 19.7 10.5
-6 -6 -15 -5.8 9.1
6 -6 15 -7.6 10.7
-6 -6 -15 5 9.7
-6 6 -15 10.8 9.6
-6 6 -15 -11.7 9.6
6 6 15 2.6 9.8
-8 -6 -15 0.9 9.4
-8 -6 -15 8 9
8 -6 15 16.1 11.5
8 6 15 17.1 9.8
-8 6 -15 -5.6 9.9
-8 6 -15 4.8 10.2
-10 -6 -15 799.52 49.7
-10 -6 -15 790.12 49.6
-10 6 -15 792.12 50.89
-12 6 -15 22.3 10.9
-14 6 -15 6.8 10.9
-15 -7 15 5.2 12.2
-15 7 15 -9.6 15.1
-13 -7 15 217.88 21.1
-13 7 15 232.08 24.2
-11 -7 15 726.33 49.4
-11 7 15 764.92 52.09
-9 -7 15 346.57 25.3
-9 -7 15 331.27 28
9 -7 -15 365.96 33
9 7 -15 311.37 27.2
-9 7 15 290.97 29.7
-7 -7 15 81.89 11.7
-7 -7 15 68.59 13.5
7 -7 -15 83.79 14.8
-7 7 15 70.29 15.3
-7 7 15 61.79 13.1
7 7 -15 61.39 12.5
5 -7 -15 142.29 17.7
-5 -7 15 154.78 16.5
-5 -7 15 132.19 15.6
-5 7 15 157.18 16.6
-5 7 15 114.59 17.4
5 7 -15 161.38 15.9
3 -7 -15 121.39 15.8
3 -7 -15 102.89 15.2
-3 -7 15 121.99 15.1
-3 -7 15 149.29 14.3
-3 7 15 123.29 16.4
3 7 -15 131.39 15
-3 7 15 168.08 16.1
1 -7 -15 342.57 28.2
1 -7 -15 335.57 27.3
-1 -7 15 341.17 28.1
-1 -7 15 356.16 26.1
-1 7 15 352.16 27.3
1 7 -15 348.27 27.3
-1 7 15 340.27 28.9
1 7 -15 372.56 27.7
-1 -7 -15 959.7 61.39
-1 -7 -15 993.2 61.29
1 -7 15 1024.4 60.79
1 -7 15 919.21 61.59
1 7 15 978.5 61.89
-1 7 -15 964.9 61.19
1 7 15 1001.6 61.29
-1 7 -15 941.91 61.19
3 -7 15 4908.21 298.77
-3 -7 -15 5056.99 298.67
-3 -7 -15 4796.62 298.27
-3 7 -15 5154.28 298.87
-3 7 -15 5049.49 298.57
3 7 15 5426.46 298.87
-5 -7 -15 95.49 12.4
5 -7 15 67.79 13.6
-5 -7 -15 99.99 13.1
-5 7 -15 108.29 13.6
-5 7 -15 105.89 13.3
5 7 15 80.09 13.1
-7 -7 -15 2.2 9.6
-7 -7 -15 3.2 10.1
7 -7 15 10.7 11.7
7 7 15 11.6 9.9
-7 7 -15 -4.8 10
-7 7 -15 7.6 9.9
-9 -7 -15 822.92 54.89
-9 -7 -15 946.21 54.79
-9 7 -15 848.22 56.69
-9 7 -15 883.61 55.69
-11 -7 -15 21.9 8.8
-11 -7 -15 22.3 8.7
-11 7 -15 36.8 11.4
-13 7 -15 -0.6 10.7
-15 7 -15 101.79 14.6
-14 -8 15 12.8 12.5
-14 8 15 19.2 16.5
-12 -8 15 741.03 48
-12 8 15 685.03 50.69
-10 -8 15 5.5 9.8
-10 -8 15 9.6 11.8
-10 8 15 4.2 13.7
8 -8 -15 50.69 14.9
-8 -8 15 75.89 11.1
-8 -8 15 64.99 13.6
-8 8 15 51.79 14.8
-8 8 15 60.99 13.8
8 8 -15 69.69 13.4
-6 -8 15 254.87 20.7
-6 -8 15 229.78 23
6 -8 -15 215.88 22.1
-6 8 15 235.08 23.7
6 8 -15 211.78 22
-6 8 15 234.98 22.5
-4 -8 15 57.49 10.8
-4 -8 15 56.89 12.5
4 -8 -15 57.29 13.8
-4 8 15 73.39 14.8
4 8 -15 62.49 12.3
-4 8 15 58.59 12.1
-2 -8 15 57.39 10.8
2 -8 -15 63.89 12.6
2 -8 -15 54.99 13.2
-2 -8 15 60.19 12.3
-2 8 15 87.79 12.4
-2 8 15 63.29 13.7
2 8 -15 72.99 12.7
0 -8 -15 71.09 12.5
0 -8 -15 47 12.4
0 -8 15 55.29 13
0 -8 15 71.49 11.2
0 8 -15 59.59 11.7
0 8 15 93.09 14.3
0 8 15 101.99 13.4
0 8 -15 75.09 12.3
2 -8 15 7149.68 390.36
-2 -8 -15 6317.77 390.16
2 -8 15 7097.29 390.86
-2 8 -15 6609.34 390.56
-2 8 -15 6177.98 390.06
2 8 15 6476.25 390.46
-4 -8 -15 -2.8 10.1
4 -8 15 13.1 11.3
-4 -8 -15 8.4 10
4 8 15 15.8 10.8
-4 8 -15 3.2 9.8
-4 8 -15 7.5 10
-6 -8 -15 57.59 11.3
6 -8 15 40.1 12.6
-6 -8 -15 46.2 11
-6 8 -15 61.99 12.4
-6 8 -15 48.8 11.9
6 8 15 63.09 12.2
8 -8 15 36.6 13.6
-8 -8 -15 65.89 11.9
-8 -8 -15 72.99 11.4
-8 8 -15 55.29 13
8 8 15 77.89 12.3
-8 8 -15 53.49 11.7
-10 -8 -15 28.9 10.4
-10 -8 -15 37.1 9.7
-10 8 -15 36 11.3
-12 8 -15 141.99 16.6
-14 8 -15 355.86 28.4
-15 -9 15 1119.09 70.09
-13 -9 15 10 12.6
-13 9 15 1 15.5
-11 -9 15 34.4 12.9
-11 9 15 27.4 15.2
-9 -9 15 -6.1 12.3
-9 -9 15 3.2 8.6
-9 9 15 1.4 14.7
-7 -9 15 169.08 18.5
7 -9 -15 215.28 21.6
-7 -9 15 204.98 19.5
-7 9 15 202.38 21.8
-7 9 15 210.18 20.7
7 9 -15 177.38 18.4
5 -9 -15 676.23 47
-5 -9 15 644.44 44.1
-5 -9 15 647.94 45.2
5 9 -15 693.93 45.3
-5 9 15 702.93 46.2
-5 9 15 707.83 47.6
3 -9 -15 187.78 19.7
-3 -9 15 191.18 19.2
-3 -9 15 189.48 18.9
3 -9 -15 222.58 20
-3 9 15 202.98 21.1
3 9 -15 152.88 17.7
-3 9 15 222.88 21
1 -9 -15 2148.89 136.09
-1 -9 15 2131.39 135.79
1 -9 -15 2305.67 136.19
-1 -9 15 2337.97 135.29
1 9 -15 2176.78 135.59
-1 9 15 2466.25 136.19
-1 9 15 2294.67 136.49
1 9 -15 2222.58 135.69
1 -9 15 125.39 14.7
-1 -9 -15 159.18 16.3
-1 -9 -15 156.28 16.7
1 -9 15 171.88 18.1
1 9 15 153.38 17.6
-1 9 -15 143.19 16
-1 9 -15 163.18 16
3 -9 15 446.76 34.6
-3 -9 -15 456.65 33.7
-3 -9 -15 446.96 33.7
3 9 15 444.06 34.3
-3 9 -15 496.55 34
-3 9 -15 500.85 34.2
-5 -9 -15 2292.77 135.89
-5 -9 -15 2207.58 135.39
5 -9 15 2243.08 136.59
-5 9 -15 2299.47 135.79
5 9 15 2186.48 135.69
-5 9 -15 2350.46 136.59
7 -9 15 323.37 28.7
-7 -9 -15 303.97 25.7
-7 -9 -15 350.46 25.8
-7 9 -15 319.37 27.7
-7 9 -15 330.77 26.8
7 9 15 318.87 26.1
-9 -9 -15 43.4 10.5
-9 -9 -15 37.8 11.4
-9 9 -15 46.8 12.1
-11 -9 -15 566.14 38.8
-11 -9 -15 612.84 38.4
-11 9 -15 598.64 40.8
-13 9 -15 5.4 11.6
-14 -10 15 485.15 36.1
-14 10 15 502.85 41.4
-12 -10 15 137.09 17
-12 10 15 106.29 20.1
-10 -10 15 12 13
-10 10 15 12.8 14.7
8 -10 -15 5.1 14.4
-8 -10 15 24.1 9.3
-8 -10 15 17.8 12.1
-8 10 15 13.1 14.8
8 10 -15 19.5 11.6
-6 -10 15 90.69 14.8
-6 -10 15 126.39 13.7
6 -10 -15 88.19 16.1
6 10 -15 119.89 14.7
-6 10 15 114.39 15.6
-6 10 15 62.99 16.4
-4 -10 15 160.48 17.1
4 -10 -15 123.19 17.5
-4 -10 15 139.49 16.5
-4 10 15 149.09 16.4
4 10 -15 117.99 15.6
-4 10 15 114.99 18.2
-2 -10 15 314.87 28
-2 -10 15 377.26 26
2 -10 -15 284.47 28.3
2 -10 -15 326.57 28
-2 10 15 328.87 27.1
2 10 -15 351.96 27.4
-2 10 15 282.87 28.6
0 -10 15 1373.86 82.69
0 -10 -15 1355.96 83.69
0 -10 15 1373.36 83.79
0 -10 -15 1444.16 83.89
0 10 -15 1243.78 82.89
0 10 -15 1358.06 83.39
0 10 15 1289.17 83.79
-2 -10 -15 3.5 11
2 -10 15 5.3 11.8
-2 -10 -15 -11.2 10.1
2 -10 15 4.4 9.7
2 10 15 -14.8 10.8
-2 10 -15 4.8 10.6
-2 10 -15 -1.7 10.8
-4 -10 -15 24.1 10.9
4 -10 15 30.3 12.8
-4 -10 -15 38.3 11.5
-4 10 -15 29.5 12
-4 10 -15 27.8 11.3
4 10 15 18 11.7
-6 -10 -15 4715.53 267.77
-6 -10 -15 4516.75 267.17
6 -10 15 4352.36 268.37
-6 10 -15 4699.33 268.57
6 10 15 4247.57 267.37
-6 10 -15 4630.84 267.77
-8 -10 -15 -11.1 9.7
-8 -10 -15 1.7 10
8 10 15 8.3 11
-8 10 -15 1.9 10.9
-10 -10 -15 10.7 9.8
-10 -10 -15 7.3 10.4
-10 10 -15 11 11.2
-12 10 -15 314.87 27.1
-14 10 -15 4.5 11.6
-15 -11 15 377.86 30.8
-13 -11 15 61.89 14.1
-13 11 15 61.39 18.1
-11 -11 15 2.7 13.3
-11 11 15 -13.1 14.8
-9 -11 15 25.9 12.7
-9 11 15 44.1 15.9
7 -11 -15 34.8 15.4
-7 -11 15 49.4 10.4
-7 -11 15 41.1 13.2
-7 11 15 26.7 15.3
7 11 -15 50.69 12.9
-7 11 15 35.1 13.1
-5 -11 15 603.14 37.4
-5 -11 15 506.45 38.5
5 -11 -15 547.55 40.4
-5 11 15 566.44 39.5
5 11 -15 536.65 38.2
-5 11 15 448.86 40.8
3 -11 -15 231.38 25
-3 -11 15 257.77 21.6
3 -11 -15 220.18 24.8
-3 -11 15 226.48 24.3
-3 11 15 261.17 24.3
3 11 -15 251.87 24.1
-3 11 15 201.98 23
-1 -11 15 587.24 36.5
1 -11 -15 518.05 38
1 -11 -15 463.95 38.1
-1 -11 15 510.35 38.3
-1 11 15 535.25 37.8
1 11 -15 546.15 37.5
-1 11 15 489.15 39.1
1 -11 15 253.57 25.2
1 -11 15 281.47 23
-1 -11 -15 265.97 25.3
-1 -11 -15 225.88 24.4
-1 11 -15 295.17 24.6
-1 11 -15 264.97 24.5
1 11 15 221.88 23.3
-3 -11 -15 878.51 57.19
-3 -11 -15 859.21 57.39
3 -11 15 892.71 58.29
-3 11 -15 957.1 57.89
3 11 15 847.42 57.69
-3 11 -15 880.11 57.29
5 -11 15 472.95 35.8
-5 -11 -15 430.96 33.7
-5 -11 -15 440.16 33
-5 11 -15 493.75 34.2
5 11 15 397.86 34
-5 11 -15 486.55 35
-7 -11 -15 131.89 16.1
7 -11 15 109.99 17.6
-7 -11 -15 135.69 15.1
-7 11 -15 122.09 15.9
-7 11 -15 98.39 16.3
7 11 15 126.49 16
-9 -11 -15 9.4 10.7
-9 -11 -15 7.4 10.1
-9 11 -15 31.5 11.8
-11 -11 -15 63.89 12.3
-11 -11 -15 77.79 11.2
-11 11 -15 70.19 13.9
-13 11 -15 -12.5 11.5
-14 -12 15 140.19 17.5
-14 12 15 118.79 22.1
-12 -12 15 669.83 45.4
-12 12 15 628.14 49.3
-10 -12 15 14.6 13.1
-10 12 15 5.5 16.2
-8 -12 15 19.2 12.5
-8 12 15 -25.4 14.4
-6 -12 15 292.67 24.4
-6 -12 15 256.77 26.6
6 -12 -15 317.57 29.5
-6 12 15 306.47 27.9
6 12 -15 290.37 26.6
-6 12 15 284.77 30.5
-4 -12 15 8.4 9.5
4 -12 -15 14.1 13.3
-4 -12 15 12.6 12.5
-4 12 15 3.9 14.4
4 12 -15 7.8 11.7
-4 12 15 10.2 11.3
-2 -12 15 17.9 12.7
2 -12 -15 32.9 13.1
-2 -12 15 52.69 10.8
2 -12 -15 47.1 14.1
-2 12 15 24.4 11.4
2 12 -15 22.8 12.2
-2 12 15 28.3 13.9
0 -12 -15 4.5 11.3
0 -12 15 -7.3 9
0 -12 15 -14 11.7
0 -12 -15 -6.8 11.7
0 12 -15 11.1 11.1
0 12 15 2.2 13
0 12 -15 1.6 11.4
-2 -12 -15 2458.25 151.58
2 -12 15 2545.35 152.28
-2 -12 -15 2535.95 152.08
2 12 15 2331.87 151.98
-2 12 -15 2697.23 151.78
-2 12 -15 2584.94 152.18
4 -12 15 379.06 30.2
-4 -12 -15 343.47 28.3
-4 -12 -15 318.37 27.3
-4 12 -15 313.07 27.3
-4 12 -15 288.37 28
4 12 15 294.47 28.5
-6 -12 -15 548.95 39.9
6 -12 15 568.94 42.8
-6 -12 -15 579.14 40.7
-6 12 -15 607.64 42
6 12 15 609.24 41.4
-6 12 -15 555.54 40.6
-8 -12 -15 97.49 14.8
-8 -12 -15 79.39 13.6
-8 12 -15 112.29 15.3
-10 -12 -15 47 11.1
-10 12 -15 24.1 12.7
-12 -12 -15 41.1 10.4
-12 12 -15 46.1 13.3
-13 -13 15 20.3 13.8
-13 13 15 35.5 18.5
-11 -13 15 148.19 17.9
-11 13 15 94.69 20.2
-9 -13 15 15.2 13.4
-9 13 15 31.7 16.6
7 -13 -15 11.7 15.3
-7 -13 15 -0.2 12.2
-7 13 15 2.3 15.3
-5 -13 15 1324.77 84.49
-5 -13 15 1500.95 84.29
5 -13 -15 1277.27 85.89
-5 13 15 1217.68 86.09
5 13 -15 1443.36 84.89
-5 13 15 1375.46 85.79
-3 -13 15 7.8 9.6
-3 -13 15 6.6 12.4
3 -13 -15 -6.6 12.8
-3 13 15 -1.7 13.7
3 13 -15 3.3 12
-3 13 15 -5 11
1 -13 -15 48.2 14.1
1 -13 -15 58.69 14.1
-1 -13 15 75.39 14.9
-1 -13 15 66.29 12.1
1 13 -15 69.59 13.7
-1 13 15 46.2 14.7
1 -13 15 62.89 12
1 -13 15 69.69 15.1
-1 -13 -15 116.19 16.1
-1 -13 -15 112.39 15.8
-1 13 -15 58.09 13.8
1 13 15 98.99 16.2
-1 13 -15 77.89 13.9
-3 -13 -15 441.76 35.7
-3 -13 -15 423.76 36.2
3 -13 15 503.45 37.6
-3 13 -15 510.95 36.4
-3 13 -15 566.34 36.4
3 13 15 401.16 37
5 -13 15 705.23 50.69
-5 -13 -15 684.13 48.3
-5 -13 -15 782.32 49.7
-5 13 -15 688.23 48.9
5 13 15 748.33 49.9
-5 13 -15 758.22 50.19
-7 -13 -15 13.9 11.4
-7 -13 -15 18 12.5
-7 13 -15 23.8 12.1
7 13 15 11.7 16.5
-9 -13 -15 701.83 47.3
-9 13 -15 746.33 49.1
-11 -13 -15 20 10.4
-11 13 -15 10.6 12.4
-13 13 -15 60.09 14.5
-12 -14 15 182.58 20.2
-12 14 15 174.78 25.2
-10 -14 15 18.3 13.5
-10 14 15 24.9 17.2
-8 -14 15 60.19 14.3
-8 14 15 53.39 18.4
6 -14 -15 825.02 59.49
-6 -14 15 890.21 56.89
-6 14 15 875.71 58.69
-6 14 15 803.82 59.39
6 14 -15 929.51 61.29
-4 -14 15 1001.8 59.79
-4 -14 15 842.62 60.49
4 -14 -15 904.81 62.09
-4 14 15 968.4 61.79
-4 14 15 847.62 62.59
4 14 -15 997.3 60.69
-2 -14 15 76.49 14.8
-2 -14 15 74.49 12.5
2 -14 -15 43.1 14.7
2 -14 -15 53.39 15.8
2 14 -15 73.89 14.4
-2 14 15 38.8 15.3
0 -14 -15 321.27 28.5
0 -14 15 321.37 25.9
0 -14 15 311.77 29
0 -14 -15 344.67 29.2
0 14 15 261.47 29.5
0 14 -15 237.68 27.1
-2 -14 -15 1249.47 81.09
2 -14 15 1278.57 81.99
-2 -14 -15 1402.06 82.19
-2 14 -15 1184.88 80.79
2 14 15 1347.97 82.29
-2 14 -15 1292.47 81.49
4 -14 15 6.5 13.7
-4 -14 -15 -17.4 12.1
-4 -14 -15 7.8 11.9
-4 14 -15 -6.1 12.1
4 14 15 3.5 13.2
-4 14 -15 8.6 12.1
-6 -14 -15 69.89 13.7
6 -14 15 47.4 15.5
-6 -14 -15 74.29 15.2
6 14 15 35.5 15.2
-6 14 -15 80.29 14.3
-8 -14 -15 2.3 11.5
-8 14 -15 1.9 12.1
-10 -14 -15 71.19 13
-10 14 -15 66.29 14.5
-12 -14 -15 38.1 10.9
-12 14 -15 19.9 13.1
-13 -15 15 35.1 15.3
-13 15 15 74.79 20.9
-11 -15 15 126.69 17.8
-11 15 15 89.59 21.5
-9 -15 15 379.06 32.1
-9 15 15 413.86 37.9
-7 -15 15 268.07 26.5
-7 15 15 256.27 27.2
5 -15 -15 13.7 15
-5 -15 15 -9.7 12.9
-5 15 15 3 15.3
-5 15 15 4.3 12.8
5 15 -15 8.7 12.9
3 -15 -15 -1.6 12.9
-3 -15 15 15.6 10.2
-3 -15 15 -7.3 12.7
-3 15 15 -5.8 14.1
3 15 -15 7.1 12.4
-1 -15 15 1318.77 85.19
-1 -15 15 1537.95 84.49
1 -15 -15 1429.26 85.79
1 -15 -15 1328.47 85.59
1 15 -15 1332.77 84.49
-1 15 15 1153.28 85.69
-1 -15 -15 611.54 44.7
1 -15 15 702.13 42.9
-1 -15 -15 638.04 44.2
1 -15 15 586.84 44.8
1 15 15 510.25 44.9
-1 15 -15 609.34 43.3
3 -15 15 1404.46 94.19
-3 -15 -15 1521.45 94.19
-3 -15 -15 1534.35 93.39
-3 15 -15 1559.24 94.29
-3 15 -15 1476.35 93.39
3 15 15 1525.85 94.39
-5 -15 -15 249.68 25.2
5 -15 15 238.88 25.3
-5 15 -15 213.38 22.6
5 15 15 301.67 28.3
-5 15 -15 242.98 30.3
-7 -15 -15 37.9 12.9
-7 15 -15 37.8 13.9
-9 -15 -15 127.19 16.5
-9 15 -15 129.59 17.8
-11 -15 -15 9.9 11.2
-11 15 -15 6.8 13
-13 -15 -15 419.86 30
-13 15 -15 439.16 34.5
-12 -16 15 70.09 16
-12 16 15 83.99 21.7
-10 -16 15 -3.9 13.5
-10 16 15 -30.1 16.8
-8 -16 15 1626.44 97.99
-8 16 15 1531.85 101.19
-6 -16 15 -4.9 13.2
6 -16 -15 21.5 16.3
-6 16 15 4.9 15.6
-4 -16 15 118.39 18
4 -16 -15 127.59 19.7
-4 16 15 110.59 20.2
4 16 -15 141.69 18.6
-4 16 15 182.18 20.3
2 -16 -15 260.17 28.3
-2 -16 15 298.27 25.1
2 -16 -15 244.88 25.1
-2 -16 15 254.87 27.5
2 16 -15 267.17 26.8
-2 16 15 215.28 25.2
0 -16 15 -8.7 13.5
0 -16 15 8.1 10.6
0 -16 -15 6 13.7
0 -16 -15 5.4 13.5
0 16 15 1.8 14.8
0 16 -15 -0.1 12.3
2 -16 15 1651.33 104.09
-2 -16 -15 1661.63 104.19
-2 -16 -15 1704.83 103.39
-2 16 -15 1714.03 103.19
2 16 15 1611.54 104.19
-4 -16 -15 684.13 47.9
4 -16 15 626.54 49.9
-4 16 -15 703.53 48.3
-4 16 -15 729.13 49.5
4 16 15 703.83 51.69
-6 -16 -15 84.29 15.3
-6 16 -15 64.89 15
-8 -16 -15 -12.4 12
-8 16 -15 29.6 13.8
-10 -16 -15 332.37 28.2
-10 16 -15 336.77 30.4
-12 -16 -15 896.01 59.39
-12 16 -15 997.3 62.49
-13 17 15 -2.5 20.1
-11 -17 15 4 14.2
-11 17 15 1.3 18.8
-9 -17 15 57.89 15.1
-9 17 15 40.6 19.2
-7 -17 15 131.59 18.2
-7 17 15 89.39 20.3
-5 -17 15 393.66 32.1
5 -17 -15 359.56 35.3
-5 17 15 326.07 35.4
-3 -17 15 69.59 16.3
3 -17 -15 68.29 16.4
3 17 -15 52.79 15.3
-3 17 15 53.69 18.2
1 -17 -15 292.57 30.9
-1 -17 15 312.07 30.5
-1 -17 15 278.07 26.8
1 -17 -15 314.47 30.5
1 17 -15 274.67 28.9
-1 17 15 305.57 32.5
-1 -17 -15 227.48 24.6
1 -17 15 245.08 24.7
-1 -17 -15 251.17 27.6
1 17 15 218.38 25.2
-1 17 -15 285.87 26.8
-3 -17 -15 33 14.1
3 -17 15 -5.9 14.7
3 17 15 -10.3 26.4
-3 17 -15 7.7 13
-3 17 -15 6 13.9
-5 -17 -15 821.12 57.99
5 -17 15 923.01 61.79
-5 17 -15 891.81 58.69
-7 -17 -15 2.4 12.7
-7 17 -15 12 13.5
-9 -17 -15 -6 12.2
-9 17 -15 14.9 13.6
-11 -17 -15 163.78 18.2
-11 17 -15 152.98 20.1
-13 -17 -15 114.59 16
-12 -18 15 11.2 15.1
-12 18 15 0.7 20.2
-10 -18 15 -1.4 14.1
-10 18 15 -6 18.6
-8 -18 15 231.78 23
-8 18 15 192.28 26.9
-6 -18 15 183.28 20.4
-6 18 15 114.49 21.7
-4 -18 15 393.76 33.6
4 -18 -15 393.56 36
-4 18 15 336.97 36.7
-2 -18 15 104.89 18.6
2 -18 -15 101.69 18.5
-2 18 15 126.99 20.9
2 18 -15 142.89 18.3
0 -18 -15 31.3 14.9
0 -18 15 45.4 15.8
0 -18 15 45.6 13.1
0 18 -15 46.7 15.1
0 18 15 57.19 18.4
2 -18 15 34.3 16.1
-2 -18 -15 44.3 14.9
-2 18 -15 26.1 13.9
-4 -18 -15 38.7 14.9
4 -18 15 42 17.6
-4 18 -15 42.6 14.4
-6 -18 -15 444.96 36
-6 18 -15 463.55 37
-8 -18 -15 26.3 13.6
-8 18 -15 12.3 13.8
-10 -18 -15 308.67 28.8
-10 18 -15 343.77 31.5
-12 -18 -15 156.98 17.6
-12 18 -15 144.39 20.1
-11 -19 15 1 14.2
-11 19 15 29.9 21.4
-9 -19 15 355.46 30.4
-9 19 15 255.57 31.2
-7 -19 15 78.89 17.2
-7 19 15 57.09 20.1
-5 -19 15 181.68 21.1
5 -19 -15 155.48 25.8
-5 19 15 153.68 23.1
-3 -19 15 -21.1 13.9
3 -19 -15 6.2 15.2
-3 19 15 -7.4 16.3
-1 -19 15 501.15 40.8
1 -19 -15 517.55 41.5
-1 19 15 483.75 44.2
1 19 -15 551.04 40.6
1 -19 15 8.5 15.6
-1 -19 -15 17.4 14.3
-1 19 -15 24.7 14.5
3 -19 15 53.89 17.5
-3 -19 -15 39.2 15.5
-3 19 -15 37.1 15.6
-5 -19 -15 6.4 13.8
-5 19 -15 21.4 14.2
-7 -19 -15 12.4 13.4
-7 19 -15 -1.7 13.5
-9 -19 -15 75.79 15.9
-9 19 -15 76.99 17.5
-11 -19 -15 37.2 13.7
-11 19 -15 52.59 16.3
-12 20 15 26.7 21.9
-10 -20 15 18.2 15.1
-10 20 15 22.7 20.5
-8 -20 15 49.7 15.9
-8 20 15 48.9 20.6
-6 -20 15 290.27 30
-6 20 15 252.97 29.9
-4 -20 15 888.91 60.69
4 -20 -15 929.31 63.49
-4 20 15 849.72 64.29
-2 -20 15 31.2 16.1
2 -20 -15 -4.2 15.8
-2 20 15 7.5 17.7
0 -20 -15 7.2 14.7
0 -20 15 15.8 15.5
0 20 -15 -13.5 13.8
2 -20 15 25 16.8
-2 -20 -15 19.6 15.5
-2 20 -15 20.1 15
-4 -20 -15 -7.4 14.2
-4 20 -15 8.2 14
-6 -20 -15 -12.5 13.6
-6 20 -15 7.1 14.5
-8 -20 -15 2.2 14.3
-8 20 -15 -5.5 14.3
-10 -20 -15 309.97 29.3
-10 20 -15 306.47 31.6
-11 21 15 17.8 21.5
-9 -21 15 15.9 15.7
-9 21 15 16.6 20.7
-7 -21 15 18.3 15.6
-7 21 15 -3.9 19.7
-5 -21 15 2542.55 154.28
-5 21 15 2518.85 157.08
3 -21 -15 10.5 17
-3 -21 15 18.3 16
-3 21 15 37.1 19.6
-1 -21 15 193.28 23.2
1 -21 -15 166.48 22.6
1 -21 15 295.27 31.9
-1 -21 -15 245.88 26.1
-1 21 -15 226.28 25.4
3 -21 15 10.7 17.8
-3 -21 -15 -4.8 15.1
-3 21 -15 9.6 15.4
-5 -21 -15 113.99 18.8
-5 21 -15 106.69 19.3
-7 -21 -15 69.39 17.2
-7 21 -15 84.59 18.2
-9 -21 -15 573.24 42.8
-9 21 -15 569.14 44.2
-11 21 -15 -9.2 15.5
-12 22 15 24.4 27.5
-10 22 15 4.8 21.3
-8 -22 15 420.96 35
-8 22 15 309.47 36.4
-6 -22 15 31.1 16.9
-6 22 15 20.8 20.1
-4 -22 15 150.68 21.6
-4 22 15 141.99 25.1
-2 -22 15 29.5 16.1
2 -22 -15 42.2 18.2
0 -22 -15 -3.4 15.7
0 -22 15 28.9 17
2 -22 15 18.7 18.3
-2 -22 -15 24.9 17.3
-2 22 -15 36.6 16.5
-4 -22 -15 137.99 19.7
-4 22 -15 80.29 18.8
-6 -22 -15 94.89 18.9
-6 22 -15 128.89 21
-8 -22 -15 5.2 15
-8 22 -15 -5.8 15.6
-10 22 -15 18.3 16.2
-11 23 15 -4.4 22.4
-9 -23 15 273.17 30.5
-9 23 15 257.47 32.8
-7 -23 15 441.76 39.5
-7 23 15 510.65 47.4
-5 -23 15 48.7 17.6
-5 23 15 44.1 21.9
3 -23 -15 155.08 24.1
-3 -23 15 104.79 20.5
-1 -23 15 250.97 27.3
1 -23 -15 237.38 28.3
1 -23 15 4 17.4
-1 -23 -15 19.2 16.7
-3 -23 -15 -31.7 14.9
-3 23 -15 8.3 16.2
-5 -23 -15 248.58 27.6
-5 23 -15 311.57 33.1
-7 -23 -15 38.9 16.8
-7 23 -15 29.5 17.2
-9 23 -15 -4.8 16.7
-11 23 -15 93.69 21.8
-10 24 15 -28.2 22.2
-8 -24 15 581.84 44.4
-8 24 15 503.85 50.99
-6 -24 15 82.99 19.8
-6 24 15 48.5 28.4
-4 -24 15 8.2 16.9
-2 -24 15 261.47 29
2 -24 -15 337.47 36.3
0 -24 -15 33.1 18.1
0 -24 15 17.3 18.1
-2 -24 -15 361.66 36.1
-4 -24 -15 16.9 17.3
-4 24 -15 49 20.6
-6 -24 -15 229.98 27.3
-6 24 -15 307.77 32.4
-8 -24 -15 3.8 16
-8 24 -15 12 17.2
-10 24 -15 -14.6 16.4
-11 25 15 -7.1 22.8
-9 25 15 22.5 23.5
-7 -25 15 27.8 18.4
-5 -25 15 100.29 21
-3 -25 15 47.9 18.9
1 -25 -15 25.7 19.6
-1 -25 15 38.7 19.2
-1 -25 -15 6.9 17.5
1 -25 15 4 19.3
-3 -25 -15 -7 17.5
-5 -25 -15 165.68 24.5
-7 -25 -15 32.8 17.5
-7 25 -15 38.3 19.4
-9 25 -15 53.19 19.8
-10 26 15 26.9 24.2
-6 -26 15 -1.7 17.6
-4 -26 15 36.9 18.6
-2 -26 15 39.6 19.4
2 -26 -15 12.2 20.5
0 -26 -15 27.1 19.2
0 -26 15 5.7 18.9
-2 -26 -15 490.25 43.4
-4 -26 -15 -3.2 17.9
-6 -26 -15 23.1 17.9
-8 26 -15 11 18.7
-10 26 -15 133.69 23.5
-5 -27 15 45.6 19.4
-3 -27 15 11.4 18.5
1 -27 -15 7.1 19.8
-1 -27 15 12.5 19.5
-1 -27 -15 181.48 25.8
-3 -27 -15 689.73 53.79
-5 -27 -15 -3.1 17.7
-9 27 -15 29.9 20.2
-6 -28 15 22.6 16.7
-4 -28 15 37.9 19.7
-2 -28 15 0 19
0 -28 -15 19.1 20.7
-2 -28 -15 379.76 39.9
-4 -28 -15 8.2 18.4
-5 -29 15 94.09 22.4
-3 -29 15 35.9 21
-1 -29 15 145.59 25.9
-1 -29 -15 -15.9 20.3
-3 -29 -15 19.3 19.8
-4 -30 15 20.6 19.9
-2 -30 15 3.9 20.7
0 -30 -15 11.4 21.1
-2 -30 -15 1.1 20.5
-3 -31 15 -7.2 20.4
-1 -31 -15 -29.1 20.3
-14 0 16 -0.4 13.3
-12 0 16 421.56 33.6
-10 0 16 12.4 10.7
-10 0 16 5.3 12.3
8 0 -16 20.7 11.8
-8 0 16 19.2 10.6
-8 0 16 26 12.7
-6 0 16 4321.27 262.77
-6 0 16 4484.15 262.87
6 0 -16 4536.55 263.07
4 0 -16 2433.16 136.59
-4 0 16 2089.49 136.29
-4 0 16 2297.27 136.09
2 0 -16 1041.9 63.39
-2 0 16 1017.7 62.79
2 0 -16 963.3 63.29
-2 0 16 1011.3 63.49
0 0 16 154.98 16.9
0 0 -16 160.98 15.7
0 0 -16 178.88 17.9
0 0 16 102.89 15.4
-2 0 -16 172.18 17.7
-2 0 -16 115.79 14.8
2 0 16 140.99 16.7
2 0 16 152.48 14.9
-4 0 -16 968.4 58.29
-4 0 -16 933.51 58.39
4 0 16 886.81 58.69
6 0 16 202.88 20.8
-6 0 -16 199.58 19.4
-6 0 -16 198.38 19.3
-8 0 -16 1324.27 79.79
8 0 16 1215.48 80.09
-8 0 -16 1382.86 79.79
-10 0 -16 974 61.49
-10 0 -16 1011.1 61.59
-12 0 -16 4.3 9.3
-12 0 -16 5.3 8.9
-14 0 -16 6.6 8.8
-15 -1 16 202.88 21.3
-15 1 16 204.88 21.9
-13 -1 16 165.28 19.1
-13 1 16 153.08 19.3
-11 -1 16 142.29 18
-11 1 16 150.18 18.7
-9 -1 16 336.27 26.6
-9 -1 16 310.37 28.1
9 -1 -16 353.86 28.1
9 1 -16 286.77 27.6
-9 1 16 325.67 28.6
-9 1 16 345.87 27.1
-7 -1 16 193.48 18.7
-7 -1 16 168.78 17
7 -1 -16 149.39 17.9
-7 1 16 175.08 19.6
-7 1 16 169.88 18.4
7 1 -16 211.48 21.1
5 -1 -16 5038.3 291.27
-5 -1 16 4976 290.97
-5 -1 16 4964.6 291.17
-5 1 16 4926.21 291.07
-5 1 16 4891.61 291.17
5 1 -16 4801.42 291.07
-3 -1 16 476.05 35
3 -1 -16 519.85 35.2
3 -1 -16 495.85 35.3
-3 -1 16 505.75 33.8
3 1 -16 521.85 35
-3 1 16 501.75 35.6
-3 1 16 438.36 33.8
3 1 -16 473.75 35.1
1 -1 -16 733.93 48.6
1 -1 -16 750.72 49
-1 -1 16 784.62 48.2
-1 -1 16 721.83 49.4
-1 1 16 797.62 48.3
1 1 -16 760.32 48.5
-1 1 16 754.92 49.2
1 1 -16 708.03 48.9
1 -1 16 24.6 9.8
-1 -1 -16 32.4 11.3
1 -1 16 53.49 12.9
-1 -1 -16 41.2 10.3
-1 1 -16 58.89 11.1
1 1 16 36.5 10.6
1 1 16 45.3 12.4
-1 1 -16 42.2 10.8
-3 -1 -16 281.87 23.3
-3 -1 -16 295.47 23.2
3 -1 16 259.47 24
-3 1 -16 274.17 22.9
-3 1 -16 291.57 23.3
3 1 16 263.27 24
-5 -1 -16 454.25 30.5
5 -1 16 440.46 31.4
-5 -1 -16 353.56 30.1
5 1 16 481.05 31.6
-5 1 -16 403.66 30.4
-5 1 -16 442.86 30.5
-7 -1 -16 10.3 9.3
7 -1 16 1.7 10.4
-7 -1 -16 9.7 9.7
-7 1 -16 7.5 9.2
7 1 16 3.6 10.2
-7 1 -16 -6.5 8.9
-9 -1 -16 1903.91 112.59
-9 -1 -16 2036.7 112.59
9 -1 16 1863.31 113.19
9 1 16 1762.52 112.79
-9 1 -16 1854.21 112.69
-9 1 -16 1843.42 112.49
-11 -1 -16 338.87 24
-11 -1 -16 305.97 24.1
-11 1 -16 319.77 24.8
-11 1 -16 300.47 24.7
-13 -1 -16 338.77 25.4
-13 1 -16 366.66 26.3
-15 1 -16 256.67 21.2
-14 -2 16 309.77 28.7
-14 2 16 323.67 30.3
-12 -2 16 32.9 13.5
-12 2 16 27.3 13.8
-10 -2 16 111.19 15.7
-10 -2 16 95.29 13.6
-10 2 16 81.99 18.2
-10 2 16 79.79 15.9
-8 -2 16 2574.54 165.58
-8 -2 16 2804.92 165.58
8 -2 -16 2858.81 166.18
-8 2 16 2873.91 166.08
-8 2 16 2677.23 166.08
8 2 -16 2871.41 165.98
-6 -2 16 70.69 11.7
-6 -2 16 68.49 13.3
6 -2 -16 66.49 13.2
-6 2 16 74.69 13.7
6 2 -16 43.8 12.7
-6 2 16 72.49 12.1
-4 -2 16 346.37 25.9
4 -2 -16 345.67 27.6
-4 -2 16 344.27 27.5
-4 2 16 334.37 26.1
4 2 -16 350.56 27.4
-4 2 16 299.07 27.6
-2 -2 16 4659.73 266.97
-2 -2 16 4535.35 267.27
2 -2 -16 4326.97 267.07
2 -2 -16 4862.11 267.37
-2 2 16 4280.37 267.17
2 2 -16 4601.44 267.17
2 2 -16 4543.45 267.07
-2 2 16 4391.86 266.87
0 -2 -16 553.34 36.7
0 -2 16 514.15 37.1
0 -2 -16 572.34 37.1
0 -2 16 522.35 35.5
0 2 -16 510.85 36.3
0 2 16 521.45 37.4
0 2 16 541.55 36.1
0 2 -16 506.65 36.5
-2 -2 -16 225.28 21.9
2 -2 16 238.78 21.3
-2 -2 -16 257.57 21.4
2 -2 16 244.88 22.7
2 2 16 221.08 21
2 2 16 238.98 22.3
-2 2 -16 219.68 21.1
-2 2 -16 257.17 21.9
-4 -2 -16 263.67 21.8
-4 -2 -16 231.18 21.9
4 -2 16 249.38 23
4 2 16 271.67 22.6
-4 2 -16 270.17 21.9
-4 2 -16 229.38 21.9
-6 -2 -16 272.77 22.9
6 -2 16 266.47 23.9
-6 -2 -16 292.87 23.1
-6 2 -16 291.27 23.2
6 2 16 278.27 23.8
-6 2 -16 272.27 23.2
-8 -2 -16 32.8 10.5
8 -2 16 34.9 11.2
-8 -2 -16 46.4 10.9
-8 2 -16 57.29 10.9
8 2 16 37.2 11.3
-8 2 -16 42.2 10.5
-10 -2 -16 14.7 9.6
10 -2 16 9.5 11.2
-10 -2 -16 1.2 8.8
-10 2 -16 18.7 10.2
-10 2 -16 -9.6 9.2
-12 -2 -16 2606.64 154.08
-12 -2 -16 2556.14 153.88
-12 2 -16 2641.74 154.48
-14 2 -16 60.69 11.7
-16 2 -16 27.5 9.8
-15 -3 16 21.9 13.6
-15 3 16 25.6 15.3
-13 -3 16 -11.9 12.3
-13 3 16 -9 13.4
-11 -3 16 13.1 12.9
-11 3 16 5.1 13.1
-9 -3 16 1725.03 109.19
9 -3 -16 1862.41 110.09
-9 -3 16 1891.51 108.99
9 3 -16 1784.12 109.29
-9 3 16 1873.01 109.79
-9 3 16 1659.53 109.89
7 -3 -16 172.28 18.4
-7 -3 16 160.98 18.3
-7 -3 16 183.48 16.9
7 3 -16 176.08 18
-7 3 16 198.48 18.1
-7 3 16 128.89 18.4
-5 -3 16 881.41 54.19
-5 -3 16 723.23 54.79
5 -3 -16 881.81 55.49
-5 3 16 922.01 54.69
-5 3 16 897.41 55.59
5 3 -16 811.72 54.69
3 -3 -16 504.95 37.6
3 -3 -16 541.65 37.4
-3 -3 16 530.55 38
-3 -3 16 551.44 36.3
-3 3 16 554.84 38.2
3 3 -16 522.85 37.6
-3 3 16 562.34 36.8
3 3 -16 548.65 37.6
1 -3 -16 2084.59 129.79
-1 -3 16 2066.89 129.29
-1 -3 16 2293.87 130.09
1 -3 -16 2309.37 129.89
1 3 -16 2266.47 129.69
1 3 -16 2088.19 129.59
-1 3 16 2142.19 129.49
-1 3 16 2049.2 129.79
1 -3 16 5.5 10.4
1 -3 16 -1.9 8.7
-1 -3 -16 6.6 9.5
-1 -3 -16 7.3 10.8
-1 3 -16 6.8 9.9
1 3 16 13.3 9.7
-1 3 -16 10.9 9.4
1 3 16 7.3 10.1
3 -3 16 155.88 15.6
-3 -3 -16 122.89 14.3
-3 -3 -16 128.39 14.3
-3 3 -16 95.19 13.8
-3 3 -16 144.99 14.7
3 3 16 153.88 15.4
-5 -3 -16 2137.79 122.79
5 -3 16 2070.09 123.09
-5 -3 -16 1988.9 122.39
5 3 16 2073.39 122.89
-5 3 -16 2078.69 122.89
-5 3 -16 1932.81 122.39
7 -3 16 4.3 10.3
-7 -3 -16 5.8 9.7
-7 -3 -16 9 9.4
-7 3 -16 7.6 9.7
7 3 16 -0.2 10
-7 3 -16 9.2 9.5
9 -3 16 271.17 24.4
-9 -3 -16 267.87 22.2
-9 -3 -16 307.87 22.4
-9 3 -16 277.87 23
-9 3 -16 270.77 22.8
9 3 16 236.98 22.9
-11 -3 -16 186.08 17.5
-11 -3 -16 153.08 16.8
-11 3 -16 208.48 19.2
-13 -3 -16 714.23 44.6
-13 3 -16 715.73 46.2
-15 3 -16 -6.3 10
-14 -4 16 74.09 15.4
-14 4 16 100.49 17.7
-12 -4 16 10.7 13.1
-12 4 16 33.6 14.5
-10 -4 16 35.4 13.1
-10 -4 16 33.2 10.7
-10 4 16 31.9 13.8
-8 -4 16 478.65 36.5
8 -4 -16 519.75 37.2
-8 -4 16 507.35 35
-8 4 16 531.85 36.7
8 4 -16 489.25 36.1
-8 4 16 477.35 37.4
-6 -4 16 483.65 30.9
-6 -4 16 399.66 32.1
6 -4 -16 426.26 32.5
6 4 -16 423.96 32
-6 4 16 399.76 33
-6 4 16 410.86 31.7
-4 -4 16 74.29 11.7
4 -4 -16 80.29 13.6
-4 -4 16 86.09 14.1
4 4 -16 86.89 13.5
-4 4 16 84.79 14.2
-4 4 16 67.69 12.4
2 -4 -16 857.81 55.99
-2 -4 16 804.92 55.89
2 -4 -16 838.82 55.59
-2 -4 16 917.41 55.09
2 4 -16 907.91 55.59
2 4 -16 854.01 55.69
-2 4 16 896.21 55.29
-2 4 16 897.91 56.49
0 -4 16 644.44 43
0 -4 -16 681.33 42.3
0 -4 -16 648.94 42.6
0 -4 16 614.04 41.6
0 4 -16 671.23 42.1
0 4 -16 569.54 42.1
0 4 16 655.63 42.9
0 4 16 602.04 41.7
-2 -4 -16 599.54 39.8
2 -4 16 555.04 39.3
-2 -4 -16 610.94 39.6
2 -4 16 627.34 40.6
-2 4 -16 627.24 39.7
-2 4 -16 572.74 39.7
2 4 16 543.25 40.2
-4 -4 -16 1613.94 98.89
-4 -4 -16 1614.34 98.59
4 -4 16 1608.14 99.09
4 4 16 1686.63 98.89
-4 4 -16 1604.74 98.89
-4 4 -16 1661.23 98.79
-6 -4 -16 57.49 11.1
6 -4 16 73.89 12.3
-6 -4 -16 47.4 11
-6 4 -16 60.99 11
6 4 16 54.79 11.6
-6 4 -16 51.99 11.2
8 -4 16 190.48 20.2
-8 -4 -16 154.48 18
-8 -4 -16 187.78 18.5
-8 4 -16 184.18 19.1
8 4 16 191.48 17.1
-8 4 -16 172.08 19.2
-10 -4 -16 170.18 14.6
-10 -4 -16 143.19 16.1
-10 4 -16 121.19 15.4
-10 4 -16 141.59 15.4
-12 -4 -16 209.08 18.2
-12 -4 -16 219.68 18
-12 4 -16 202.68 20.7
-14 4 -16 20.6 10.7
-15 -5 16 136.69 17.2
-15 5 16 114.39 19.8
-13 -5 16 67.69 14.5
-13 5 16 47.8 16
-11 -5 16 53.59 13.6
-11 5 16 40.9 14.9
-9 -5 16 1267.57 82.49
9 -5 -16 1444.06 85.09
-9 -5 16 1317.87 83.59
9 5 -16 1334.37 83.39
-9 5 16 1365.36 84.29
-9 5 16 1382.16 84.69
-7 -5 16 842.72 54.09
7 -5 -16 848.42 55.89
-7 -5 16 857.61 55.19
-7 5 16 828.62 56.19
-7 5 16 897.11 55.69
7 5 -16 827.42 54.89
-5 -5 16 536.05 34.2
-5 -5 16 471.15 35.3
5 -5 -16 442.16 35.8
-5 5 16 522.85 35.2
5 5 -16 524.75 35.6
-5 5 16 439.36 36.2
-3 -5 16 350.26 29.8
-3 -5 16 387.56 28.3
3 -5 -16 342.47 29.9
3 -5 -16 391.26 30.3
-3 5 16 406.36 31.2
3 5 -16 440.46 29.7
-3 5 16 399.76 29.1
-1 -5 16 83.89 11.2
1 -5 -16 92.49 12.8
1 -5 -16 85.79 13.7
-1 -5 16 81.89 13.4
-1 5 16 54.79 13.2
1 5 -16 55.09 11.8
1 5 -16 73.59 12.4
-1 5 16 87.29 12
1 -5 16 1925.11 112.39
-1 -5 -16 1860.31 112.69
-1 -5 -16 1884.81 112.79
1 5 16 1847.22 112.49
1 5 16 1833.22 112.89
-1 5 -16 1878.71 112.59
-1 5 -16 1847.72 112.59
-3 -5 -16 901.01 59.09
-3 -5 -16 992.7 59.39
3 -5 16 932.31 59.99
-3 5 -16 956.5 59.39
-3 5 -16 933.61 59.29
3 5 16 934.71 59.49
5 -5 16 186.88 21.6
-5 -5 -16 192.58 20.4
-5 -5 -16 210.18 20
-5 5 -16 239.58 21.1
5 5 16 231.18 20.8
-5 5 -16 191.98 20.4
-7 -5 -16 122.19 13.8
-7 -5 -16 102.49 13.1
7 -5 16 111.09 15
-7 5 -16 100.79 14.1
7 5 16 110.29 13.9
-7 5 -16 94.49 13.3
-9 -5 -16 643.24 39
-9 -5 -16 563.14 39.1
9 -5 16 564.14 41.3
-9 5 -16 622.04 40
-9 5 -16 574.94 40.6
-11 -5 -16 472.35 33.2
-11 -5 -16 515.15 33.2
-11 5 -16 521.15 35.2
-13 5 -16 801.22 51.39
-15 5 -16 -12.2 10.6
-14 -6 16 3.3 12.4
-14 6 16 -1.3 14.9
-12 -6 16 350.86 29.6
-12 6 16 368.16 33.1
-10 -6 16 46.5 11
-10 -6 16 41.7 13.3
-10 6 16 19.1 14
8 -6 -16 1897.71 116.69
-8 -6 16 1725.03 115.09
-8 -6 16 2033.9 114.99
-8 6 16 2024.3 116.39
8 6 -16 1916.41 115.39
-8 6 16 1831.32 116.29
-6 -6 16 25.3 9.9
-6 -6 16 12.6 11.7
6 -6 -16 16.8 12
-6 6 16 19.6 13.1
6 6 -16 11.6 11.4
-6 6 16 3.4 10.7
-4 -6 16 149.99 16.8
-4 -6 16 182.88 16.3
4 -6 -16 131.49 17
-4 6 16 171.98 18.8
-4 6 16 176.88 19.3
4 6 -16 155.18 16.4
2 -6 -16 748.93 46.2
2 -6 -16 632.04 46.1
-2 -6 16 715.33 46.3
-2 -6 16 630.74 44.6
-2 6 16 709.13 45.7
2 6 -16 722.53 46
2 6 -16 657.33 45.7
-2 6 16 731.73 47.1
0 -6 16 239.58 20.7
0 -6 -16 228.88 22.8
0 -6 -16 185.18 21.8
0 -6 16 250.57 23
0 6 -16 251.47 21.9
0 6 16 248.98 22.1
0 6 16 226.08 23.3
0 6 -16 247.88 22.2
-4 -6 -16 89.69 13.2
-4 -6 -16 99.29 12.9
4 -6 16 105.99 14.2
-4 6 -16 95.39 13.6
4 6 16 98.29 14
-4 6 -16 88.19 13
-6 -6 -16 74.79 12.4
6 -6 16 59.59 13
-6 -6 -16 47.4 11
-6 6 -16 54.99 11.8
-6 6 -16 36.5 11.4
6 6 16 72.49 12.4
-8 -6 -16 102.09 12.2
8 -6 16 86.09 14.7
-8 -6 -16 86.39 12.7
8 6 16 65.79 12.4
-8 6 -16 68.79 13.1
-8 6 -16 91.59 13.4
-10 -6 -16 128.59 13.6
-10 -6 -16 119.59 13.4
-10 6 -16 123.39 14.7
-12 -6 -16 686.23 42.3
-12 -6 -16 663.73 42.4
-12 6 -16 662.03 44.4
-14 6 -16 38.1 11.8
-15 -7 16 31.6 13.6
-15 7 16 37.1 17.9
-13 -7 16 36.6 13.5
-13 7 16 54.29 16.5
-11 -7 16 208.58 20.9
-11 7 16 211.78 23.2
-9 -7 16 163.08 18.5
-9 -7 16 155.28 18.6
9 7 -16 216.28 19.5
-9 7 16 181.18 20.5
-7 -7 16 149.88 14.7
7 -7 -16 124.29 17.8
-7 -7 16 110.19 15.9
-7 7 16 100.09 16.7
-7 7 16 119.59 16.3
7 7 -16 130.69 16.2
-5 -7 16 1526.15 88.99
5 -7 -16 1407.76 89.79
-5 -7 16 1431.76 88.19
-5 7 16 1398.06 89.99
-5 7 16 1454.85 89.39
5 7 -16 1461.15 88.69
-3 -7 16 241.48 20.3
3 -7 -16 238.48 23.7
3 -7 -16 214.78 23.3
-3 -7 16 190.68 19.9
3 7 -16 242.58 22.4
-3 7 16 216.18 21
-3 7 16 234.78 22.2
1 -7 -16 94.89 14.1
-1 -7 16 103.59 12.5
1 -7 -16 81.29 13.2
-1 -7 16 100.29 13.9
-1 7 16 99.49 15.4
1 7 -16 97.39 13.8
-1 7 16 109.89 13.7
1 7 -16 77.49 13
1 -7 16 2201.68 130.29
1 -7 16 2163.78 130.89
-1 -7 -16 2121.49 130.59
-1 -7 -16 2203.78 130.69
1 7 16 2133.79 130.99
-1 7 -16 2220.38 130.59
-1 7 -16 2172.58 130.49
-3 -7 -16 2747.53 166.88
-3 -7 -16 2704.63 166.58
3 -7 16 2766.12 167.28
-3 7 -16 2948.8 166.98
-3 7 -16 2805.92 167.08
3 7 16 2826.72 167.08
5 -7 16 279.07 25
-5 -7 -16 268.97 23.1
-5 -7 -16 266.17 23
5 7 16 253.27 23.8
-5 7 -16 238.08 23.7
-5 7 -16 296.77 24.3
7 -7 16 40.8 12.7
-7 -7 -16 20.6 11
-7 -7 -16 45.5 11
-7 7 -16 38 11.5
-7 7 -16 36.4 11.9
7 7 16 38.2 11.5
-9 -7 -16 257.27 21.2
-9 -7 -16 252.57 22
-9 7 -16 220.58 22.7
-11 -7 -16 -2.6 8.6
-11 -7 -16 -5.1 8.7
-11 7 -16 20.8 11
-13 7 -16 15.9 11.5
-14 -8 16 158.68 17.7
-14 8 16 107.79 20.5
-12 -8 16 364.76 29.5
-12 8 16 312.27 32.8
-10 -8 16 139.99 17
-10 8 16 109.99 18.9
8 -8 -16 358.16 32.7
-8 -8 16 396.16 27.9
-8 -8 16 376.26 30.3
-8 8 16 373.96 31.1
-8 8 16 349.67 31.9
8 8 -16 332.57 29.6
-6 -8 16 520.95 35.4
6 -8 -16 514.25 38.7
-6 -8 16 508.85 36.9
-6 8 16 465.55 38.5
-6 8 16 546.35 38.1
6 8 -16 521.85 36.5
4 -8 -16 36.8 13.4
-4 -8 16 49.7 12.7
-4 -8 16 59.29 10.9
-4 8 16 36 13.9
-4 8 16 70.59 12.6
4 8 -16 35.5 11.5
2 -8 -16 2869.11 170.08
-2 -8 16 2766.82 169.08
-2 -8 16 2847.42 169.68
2 -8 -16 2780.62 169.88
-2 8 16 2794.72 170.28
2 8 -16 2872.51 169.48
-2 8 16 2967.1 169.98
0 -8 16 241.58 20.7
0 -8 -16 203.28 23
0 -8 -16 245.48 22.7
0 -8 16 222.08 23.6
0 8 -16 257.87 22.5
0 8 -16 242.68 22.9
0 8 16 228.28 22.6
0 8 16 219.88 24.2
-2 -8 -16 589.24 40.8
-2 -8 -16 701.93 41.2
2 -8 16 553.04 41.3
2 -8 16 563.14 40.1
-2 8 -16 543.95 40.8
-2 8 -16 596.34 40.6
2 8 16 621.74 41.5
-4 -8 -16 622.24 40.7
-4 -8 -16 626.64 40.8
4 -8 16 578.64 41.8
-4 8 -16 581.54 41.1
-4 8 -16 615.14 41
4 8 16 572.34 41
-6 -8 -16 792.12 52.09
6 -8 16 821.32 53.69
-6 -8 -16 773.32 51.49
6 8 16 764.82 52.09
-6 8 -16 839.02 53.29
-6 8 -16 868.61 52.59
8 -8 16 433.06 33.1
-8 -8 -16 387.16 30.4
-8 -8 -16 464.65 30
-8 8 -16 400.66 31.7
-8 8 -16 401.46 30.8
8 8 16 370.06 30.4
-10 -8 -16 2.2 9.2
-10 -8 -16 -13 9.8
-10 8 -16 3 10.9
-12 -8 -16 5.3 8.4
-12 8 -16 9.3 11.5
-14 8 -16 42.3 12.4
-15 -9 16 382.36 31.2
-13 -9 16 213.38 23.7
-13 9 16 198.68 24.3
-11 -9 16 10.1 13
-11 9 16 6.6 15.6
-9 -9 16 43.6 13.5
-9 9 16 45 15.5
-7 -9 16 457.45 36.7
-7 -9 16 555.14 35.4
7 -9 -16 542.45 39.7
-7 9 16 495.85 38.3
7 9 -16 531.35 36.7
-7 9 16 458.65 39.1
-5 -9 16 314.17 24.3
-5 -9 16 256.97 25.7
5 -9 -16 293.67 28.1
-5 9 16 242.48 27.8
-5 9 16 312.87 26.6
5 9 -16 311.27 25.9
3 -9 -16 118.29 16.2
-3 -9 16 81.29 14.5
3 -9 -16 112.19 15.7
-3 -9 16 83.19 12.5
-3 9 16 115.69 14.3
3 9 -16 94.59 14.2
-3 9 16 89.19 15.5
-1 -9 16 658.03 46.4
1 -9 -16 636.14 46.5
1 -9 -16 629.04 46
-1 -9 16 747.63 45.1
1 9 -16 690.83 46
1 9 -16 724.33 46.2
-1 9 16 732.33 46.3
-1 9 16 648.94 47.2
-1 -9 -16 1830.82 109.59
-1 -9 -16 1739.73 109.39
1 -9 16 1830.82 108.79
1 -9 16 1792.32 109.59
1 9 16 1851.81 109.99
-1 9 -16 1807.42 109.19
-1 9 -16 1745.53 109.19
3 -9 16 797.62 52.49
-3 -9 -16 770.52 51.59
-3 -9 -16 838.02 51.79
-3 9 -16 792.72 51.89
-3 9 -16 761.12 51.59
3 9 16 789.92 52.19
-5 -9 -16 931.31 58.89
-5 -9 -16 909.31 58.49
5 -9 16 876.91 59.99
5 9 16 882.91 59.09
-5 9 -16 949.11 59.09
-5 9 -16 972.2 59.59
7 -9 16 6 12.4
-7 -9 -16 11.1 10.5
-7 -9 -16 -2.9 10.3
-7 9 -16 7.4 11.2
-7 9 -16 3.5 11.3
7 9 16 8.5 10.9
-9 -9 -16 316.67 27
-9 -9 -16 368.76 26.2
-9 9 -16 315.47 27.4
-11 -9 -16 19.9 9.6
-11 -9 -16 5.7 10.2
-11 9 -16 18.1 11.7
-13 9 -16 12.8 12.1
-14 -10 16 31.7 13.4
-14 10 16 1.8 17
-12 -10 16 45.6 14.2
-12 10 16 35.5 17.2
-10 -10 16 67.39 15.5
-10 10 16 63.49 16.7
8 -10 -16 106.29 28.2
-8 -10 16 80.29 14.9
-8 -10 16 84.59 12.4
-8 10 16 59.19 17.7
8 10 -16 82.09 14.9
-6 -10 16 124.89 16.9
-6 -10 16 164.58 16.1
6 -10 -16 138.19 18.7
-6 10 16 116.89 18.4
-6 10 16 147.99 17.9
6 10 -16 162.18 17.1
-4 -10 16 73.39 13.8
-4 -10 16 81.39 12.1
4 -10 -16 74.59 15.2
-4 10 16 69.39 15.7
-4 10 16 77.09 14.1
4 10 -16 112.69 14.6
-2 -10 16 234.68 22.6
2 -10 -16 285.47 25.6
2 -10 -16 282.57 26.2
-2 -10 16 242.68 25.3
-2 10 16 302.47 26.9
-2 10 16 261.67 24.6
2 10 -16 231.18 24.6
0 -10 16 61.79 13.9
0 -10 16 37.9 10.7
0 -10 -16 72.89 14.1
0 -10 -16 87.69 14.2
0 10 -16 56.09 12.1
0 10 -16 52.39 13.2
0 10 16 61.79 14
2 -10 16 116.09 16.3
-2 -10 -16 103.19 15.8
-2 -10 -16 113.59 15.4
2 10 16 126.69 16.9
-2 10 -16 88.09 14.8
-2 10 -16 135.89 15.7
4 -10 16 62.59 14.5
-4 -10 -16 78.69 13.6
-4 -10 -16 81.49 13.6
-4 10 -16 78.89 13.7
-4 10 -16 65.39 13.2
4 10 16 80.09 14.4
6 -10 16 64.29 15.3
-6 -10 -16 136.09 15.2
-6 -10 -16 98.99 13.9
-6 10 -16 80.59 14.2
-6 10 -16 79.79 14.7
6 10 16 118.89 15.1
-8 -10 -16 -8.7 10
-8 -10 -16 0.1 10.4
8 10 16 3.1 11.2
-8 10 -16 -1.6 10.8
-10 -10 -16 -5.6 10.7
-10 -10 -16 13.5 10
-10 10 -16 -5.8 11.3
-12 -10 -16 12.4 8.8
-12 10 -16 -3.5 11.5
-14 10 -16 24.5 12.6
-13 -11 16 116.19 16.3
-13 11 16 81.49 20.1
-11 -11 16 115.79 17.4
-11 11 16 132.89 20.8
-9 -11 16 14.2 12.8
-9 11 16 22.1 15.9
-7 -11 16 1485.85 99.39
7 -11 -16 1753.32 101.99
-7 -11 16 1723.53 99.19
-7 11 16 1544.55 101.59
-7 11 16 1700.73 101.39
7 11 -16 1559.04 99.59
5 -11 -16 349.96 30.6
-5 -11 16 318.77 26.1
-5 -11 16 311.97 28.3
5 11 -16 303.47 28.1
-5 11 16 321.77 28.8
-5 11 16 365.66 31.2
3 -11 -16 71.99 15.5
-3 -11 16 69.59 14.9
-3 -11 16 81.39 12.6
-3 11 16 44.5 15.2
3 11 -16 82.19 14
-3 11 16 85.29 13.8
1 -11 -16 1817.32 112.09
-1 -11 16 1823.02 111.79
1 -11 -16 1839.02 112.09
-1 -11 16 1880.11 110.99
-1 11 16 1875.31 112.49
1 11 -16 1753.92 111.19
1 -11 16 225.88 21.1
-1 -11 -16 202.98 20.7
1 -11 16 191.68 20.8
-1 -11 -16 227.08 23.9
-1 11 -16 239.78 23.6
1 11 16 205.78 21.2
-1 11 -16 208.78 20.4
-3 -11 -16 11.9 11.7
-3 -11 -16 1.6 11.6
3 -11 16 -1.2 11.9
-3 11 -16 30.6 11.7
-3 11 -16 7.2 11.7
3 11 16 17.4 12.6
-5 -11 -16 3154.18 175.68
5 -11 16 2768.72 176.08
-5 -11 -16 2962.3 175.08
5 11 16 2915.21 175.48
-5 11 -16 2971.7 176.18
-5 11 -16 2837.22 175.28
7 -11 16 46.6 15.1
-7 -11 -16 50.39 12.4
-7 -11 -16 59.19 12.7
-7 11 -16 53.19 13.3
7 11 16 62.89 13.7
-9 -11 -16 260.47 23.1
-9 -11 -16 261.07 24
-9 11 -16 244.98 24.8
-11 -11 -16 177.38 18.4
-11 11 -16 152.38 17.9
-13 11 -16 8.1 11.8
-14 -12 16 8.1 13.7
-14 12 16 5.2 17.4
-12 -12 16 -0.1 14
-12 12 16 17.1 17.2
-10 -12 16 96.09 15.7
-10 12 16 56.79 17.8
-8 -12 16 114.89 16.7
-8 12 16 89.49 18.7
-6 -12 16 83.99 14.8
6 -12 -16 82.09 17.1
-6 -12 16 61.69 12.4
-6 12 16 94.09 17.7
-6 12 16 97.29 16
6 12 -16 69.89 14.3
4 -12 -16 229.48 22.8
-4 -12 16 243.98 24.7
-4 -12 16 205.48 21.6
-4 12 16 195.78 22.8
4 12 -16 219.68 23.8
-4 12 16 251.27 23
-2 -12 16 954.9 55.59
-2 -12 16 798.22 56.49
2 -12 -16 864.01 57.19
2 -12 -16 834.62 56.79
2 12 -16 905.31 56.19
-2 12 16 782.32 57.59
-2 12 16 840.52 56.39
0 -12 -16 10.6 11.9
0 -12 16 7.5 9.7
0 -12 16 7 12.7
0 -12 -16 28.1 13.3
0 12 16 1.6 12.7
0 12 -16 11.1 11.9
2 -12 16 561.94 41.1
-2 -12 -16 584.34 40.5
-2 -12 -16 522.65 39.8
2 12 16 619.94 41.2
-2 12 -16 498.75 39.7
-2 12 -16 539.95 40
4 -12 16 18.9 13.3
-4 -12 -16 -5.8 11.3
-4 -12 -16 -7.9 11.7
-4 12 -16 2.2 11.6
4 12 16 4.5 12.7
-4 12 -16 -2.8 11.7
-6 -12 -16 917.31 60.69
-6 -12 -16 927.51 59.89
6 -12 16 930.41 62.29
-6 12 -16 968.3 61.89
6 12 16 948.91 61.19
-6 12 -16 940.01 60.69
-8 -12 -16 7.6 11.3
-8 -12 -16 33 12.2
-8 12 -16 25.9 12.3
-10 -12 -16 50.09 11.8
-10 12 -16 46.1 13.6
-12 -12 -16 9.9 9.5
-12 12 -16 7.7 12.2
-13 -13 16 268.27 26.6
-13 13 16 216.18 27.2
-11 -13 16 10 13.5
-11 13 16 1.6 16.9
-9 -13 16 52.79 14.6
-9 13 16 58.89 17.7
7 -13 -16 18.4 15.8
-7 -13 16 -6.9 12.2
-7 13 16 3.5 15.5
-5 -13 16 216.98 21.7
-5 -13 16 208.18 21.4
5 -13 -16 202.98 23
-5 13 16 184.68 22.9
-5 13 16 216.58 22.7
5 13 -16 239.58 24.3
-3 -13 16 245.18 22.4
3 -13 -16 206.48 22.6
-3 -13 16 194.58 21.1
3 13 -16 228.58 23.9
-3 13 16 196.18 23.3
-3 13 16 220.18 21.7
-1 -13 16 10.6 10
1 -13 -16 15.9 12.7
1 -13 -16 16.1 13.3
-1 -13 16 29.6 13.3
-1 13 16 5.8 14.1
1 13 -16 25.1 12.7
-1 -13 -16 2918.11 172.78
1 -13 16 2722.13 172.38
1 -13 16 3070.09 171.98
-1 -13 -16 2843.92 172.28
1 13 16 2863.01 172.88
-1 13 -16 2815.22 172.28
-1 13 -16 2869.81 172.18
3 -13 16 2869.91 179.98
-3 -13 -16 2931.01 179.78
-3 -13 -16 3054.99 179.18
3 13 16 2910.51 179.78
-3 13 -16 3110.79 180.08
-3 13 -16 3093.79 179.38
-5 -13 -16 188.78 20.4
-5 -13 -16 191.58 21.1
5 -13 16 216.28 23.8
-5 13 -16 219.68 24
5 13 16 255.87 25.7
-5 13 -16 243.38 25.1
-7 -13 -16 25.9 12.3
-7 -13 -16 33.4 15.6
-7 13 -16 35 12.9
-9 -13 -16 11.8 11.5
-9 13 -16 21.2 12.7
-11 -13 -16 6.7 10.6
-11 13 -16 1.7 12.5
-13 13 -16 32.8 13.5
-12 -14 16 286.57 28
-12 14 16 264.07 29.7
-10 -14 16 83.29 15.9
-10 14 16 111.99 20.6
-8 -14 16 652.83 44.9
-8 14 16 621.64 48.6
-6 -14 16 222.38 24.6
6 -14 -16 216.68 23.8
-6 14 16 206.28 24.4
-4 -14 16 3.1 12.9
-4 -14 16 2 10
4 -14 -16 9 13.9
4 14 -16 21.8 13.5
-4 14 16 5.9 14.9
-4 14 16 14.5 13
2 -14 -16 116.39 17.8
2 -14 -16 133.69 18.5
-2 -14 16 94.49 17
-2 -14 16 139.59 16.1
2 14 -16 132.59 17.6
-2 14 16 134.39 19.7
0 -14 16 182.08 21
0 -14 -16 159.78 19.9
0 -14 16 192.18 19.9
0 -14 -16 143.79 19.2
0 14 -16 179.78 19
0 14 16 128.19 19.7
2 -14 16 4672.13 297.97
-2 -14 -16 4953.4 298.17
-2 -14 -16 4880.41 297.57
2 14 16 5124.39 298.37
-2 14 -16 5159.08 297.67
-2 14 -16 5365.76 298.37
4 -14 16 98.89 17.6
-4 -14 -16 107.79 16.3
-4 -14 -16 93.29 16.8
-4 14 -16 103.79 15.7
4 14 16 108.09 17.6
-4 14 -16 106.89 16.7
6 -14 16 8.3 15.1
-6 -14 -16 -3 11.6
-6 14 -16 8.3 12.4
-8 -14 -16 437.96 32.7
-8 14 -16 403.86 33.8
-10 -14 -16 4.5 11.1
-10 14 -16 -0.2 12.6
-12 -14 -16 379.46 29.3
-12 14 -16 421.86 33
-13 -15 16 3.7 14.7
-13 15 16 11.1 19.3
-11 -15 16 23.3 14.7
-11 15 16 11.5 18.3
-9 -15 16 41.5 14.5
-9 15 16 43.6 18.6
-7 -15 16 275.87 27.3
-7 15 16 259.17 27.6
-5 -15 16 425.16 36.6
5 -15 -16 528.55 40.1
-5 15 16 417.56 39.6
-5 15 16 522.55 38.4
-3 -15 16 19.1 13.6
3 -15 -16 31.5 14.7
-3 -15 16 6.8 10.3
3 15 -16 15.6 13.3
-3 15 16 -5.2 14.5
1 -15 -16 436.96 34.5
-1 -15 16 442.16 31.6
1 -15 -16 428.76 34.4
-1 -15 16 395.16 34.4
1 15 -16 354.66 32.7
-1 15 16 333.77 34.9
1 -15 16 60.79 15.8
1 -15 16 83.29 13.8
-1 -15 -16 41.1 14.8
-1 -15 -16 70.19 15.9
1 15 16 50.79 15.9
-1 15 -16 86.29 14.9
-3 -15 -16 32.3 13.8
-3 -15 -16 55.99 14.9
3 -15 16 49.6 15.7
3 15 16 55.19 16.4
-3 15 -16 40.4 14.2
-3 15 -16 58.49 14
5 -15 16 302.27 32.9
-5 -15 -16 358.66 29.6
-5 15 -16 329.27 29.9
-7 -15 -16 9.1 12.2
-7 15 -16 33.8 13.6
-9 -15 -16 431.86 33.3
-9 15 -16 448.06 35.4
-11 -15 -16 44.9 12.4
-11 15 -16 13.5 13.5
-13 -15 -16 92.09 12.8
-13 15 -16 88.49 16.7
-12 -16 16 20.2 14.7
-12 16 16 5.9 19.2
-10 -16 16 58.39 15.5
-10 16 16 44.4 19.3
-8 -16 16 385.66 32.9
-8 16 16 377.46 37.6
6 -16 -16 12.5 17
-6 -16 16 -4.1 13.7
-6 16 16 13.1 16.3
-4 -16 16 24.5 14.4
4 -16 -16 -16.5 14.4
4 16 -16 20 13.8
-4 16 16 7.2 13.9
-4 16 16 -14.2 15.3
2 -16 -16 1208.08 77.79
-2 -16 16 1133.29 76.59
2 -16 -16 1192.08 77.49
-2 -16 16 1236.18 75.59
2 16 -16 1287.87 76.79
-2 16 16 1111.39 77.89
0 -16 -16 5.3 13.9
0 -16 16 20.6 14.6
0 -16 -16 27.1 14.5
0 -16 16 -1 10.6
0 16 16 19.9 15.6
0 16 -16 11.9 12.8
-2 -16 -16 392.76 33.3
2 -16 16 394.06 34.6
-2 -16 -16 384.06 33.8
2 16 16 387.66 35.5
-2 16 -16 354.26 32.4
4 -16 16 335.17 33.9
-4 -16 -16 347.07 30.7
-4 16 -16 339.07 30.6
-4 16 -16 364.16 32.3
-6 -16 -16 227.98 24.4
-6 16 -16 187.48 21.2
-8 -16 -16 -17.5 11.6
-8 16 -16 13.2 13.3
-10 -16 -16 7.5 12
-10 16 -16 10.5 13.9
-12 -16 -16 343.67 27
-12 16 -16 286.97 29.8
-13 17 16 22.7 20.7
-11 -17 16 -4.2 14.5
-11 17 16 -0.2 18.6
-9 -17 16 1181.28 73.39
-9 17 16 1086.89 76.99
-7 -17 16 191.58 21.8
-7 17 16 187.28 25.3
-5 -17 16 102.49 17.9
5 -17 -16 139.59 21.3
-5 17 16 130.99 22.2
3 -17 -16 88.79 18
-3 -17 16 106.49 18.4
3 17 -16 114.29 17.9
-3 17 16 104.29 20.1
1 -17 -16 358.46 32.7
-1 -17 16 324.77 32.1
1 -17 -16 327.87 32.5
-1 -17 16 446.36 30.4
1 17 -16 346.97 31.3
-1 17 16 234.08 29.3
-1 -17 -16 -9.8 13.4
1 -17 16 12.6 14.6
1 17 16 14.9 15.6
-1 17 -16 6.1 13.1
3 -17 16 17 14.7
-3 -17 -16 -13.8 13.3
-3 17 -16 1.8 13
-3 17 -16 11 14
-5 -17 -16 130.49 18
-5 17 -16 135.29 18.8
-7 -17 -16 -16.5 12.6
-7 17 -16 22.1 13.9
-9 -17 -16 104.49 16.5
-9 17 -16 132.19 18.8
-11 -17 -16 274.47 25.7
-11 17 -16 267.47 28.7
-12 18 16 48.9 21.7
-10 -18 16 33.4 14.7
-10 18 16 3.8 19.3
-8 -18 16 557.84 40.8
-8 18 16 495.75 45.4
-6 -18 16 18 15
-6 18 16 38.4 18.1
-4 -18 16 87.59 17.3
4 -18 -16 62.59 18.1
-4 18 16 97.79 20.3
-2 -18 16 40.6 15.3
2 -18 -16 38.1 16
2 18 -16 32.1 15.1
-2 18 16 28.4 17.4
0 -18 16 303.27 26.1
0 -18 -16 234.48 25.2
0 -18 16 243.88 26
0 18 16 209.98 26.4
0 18 -16 256.37 28.2
-2 -18 -16 89.39 17.4
2 -18 16 111.69 19
-2 18 -16 100.39 17.4
4 -18 16 58.09 18.3
-4 -18 -16 81.89 16
-4 18 -16 47.5 15.7
-6 -18 -16 -15.8 12.7
-6 18 -16 8.4 14.1
-8 -18 -16 40.9 14.1
-8 18 -16 54.89 16.1
-10 -18 -16 60.89 14.8
-10 18 -16 46.4 15.7
-12 -18 -16 1033.7 76.59
-12 18 -16 1204.58 73.89
-11 -19 16 105.39 18.7
-11 19 16 132.69 24.9
-9 -19 16 7.4 14.5
-9 19 16 29 19.5
-7 -19 16 -6.8 14.6
-7 19 16 -2.5 17.7
-5 -19 16 2145.19 127.29
-5 19 16 1985.9 129.49
3 -19 -16 6.1 15.9
-3 -19 16 -5.7 14.7
-3 19 16 1.4 17.2
1 -19 -16 774.42 55.99
-1 -19 16 777.92 55.99
1 19 -16 832.12 55.69
-1 19 16 792.42 58.59
1 -19 16 26.6 15.9
-1 -19 -16 75.69 16.8
-1 19 -16 60.19 16.3
-3 -19 -16 196.88 22.8
3 -19 16 228.18 25.6
-3 19 -16 209.88 22.5
-5 -19 -16 129.19 18.7
-5 19 -16 134.19 19.9
-7 -19 -16 1.4 13.2
-7 19 -16 -3.6 14
-9 -19 -16 1153.98 74.29
-9 19 -16 1178.48 75.89
-11 -19 -16 3.2 13.1
-11 19 -16 8.8 15.1
-12 20 16 89.39 24.6
-10 -20 16 6.9 15.1
-10 20 16 17.7 20.3
-8 -20 16 -5.6 14.9
-8 20 16 32.9 20
-6 -20 16 711.63 50.19
-6 20 16 673.33 54.79
-4 -20 16 316.97 30.4
4 -20 -16 250.57 28.7
-4 20 16 214.68 28.7
-2 -20 16 41.1 17.3
2 -20 -16 40.6 18.2
-2 20 16 37.3 19.2
0 -20 16 -14.7 15.1
0 -20 -16 16.5 15.6
0 20 -16 8.4 15.1
-2 -20 -16 32.8 15.4
2 -20 16 46.2 17.5
-2 20 -16 30.8 15.2
-4 -20 -16 30.9 15.3
-4 20 -16 32.8 15.3
-6 -20 -16 109.09 18.1
-6 20 -16 130.19 19.5
-8 -20 -16 217.48 23.4
-8 20 -16 232.48 24.5
-10 -20 -16 375.86 32.5
-10 20 -16 367.46 34.2
-11 21 16 0.4 21.2
-9 -21 16 -8.1 15.6
-9 21 16 32.3 20.5
-7 -21 16 62.59 17.4
-7 21 16 46.4 20.9
-5 -21 16 79.79 18.7
3 -21 -16 62.59 19.4
-3 -21 16 63.79 18.4
-3 21 16 56.59 20.2
-1 -21 16 -4.5 15.5
1 -21 -16 13.6 16.1
-1 -21 -16 34.7 16.6
1 -21 16 3.8 17
-1 21 -16 37.5 16.2
3 -21 16 24.9 18.4
-3 -21 -16 -0.6 14.9
-3 21 -16 6.5 15.3
-5 -21 -16 130.49 19.9
-5 21 -16 128.59 20.9
-7 -21 -16 12.5 15.3
-7 21 -16 19.4 15.8
-9 -21 -16 33.2 15.5
-9 21 -16 56.29 17.4
-11 21 -16 109.49 19.7
-10 22 16 -13.9 21.2
-8 -22 16 221.88 24.1
-8 22 16 171.88 28.2
-6 -22 16 301.07 30.8
-6 22 16 220.98 30.1
-4 -22 16 95.99 19.3
-4 22 16 91.59 23.3
-2 -22 16 426.16 39
2 -22 -16 451.85 41.1
0 -22 -16 24.2 17.2
0 -22 16 46.9 18
-2 -22 -16 -6.2 15.5
2 -22 16 9.6 17.4
-2 22 -16 0.7 15.6
-4 -22 -16 61.79 17.4
-4 22 -16 39.8 17.6
-6 -22 -16 15.6 15.8
-6 22 -16 23.2 16.4
-8 -22 -16 135.19 19.6
-8 22 -16 104.69 20.1
-10 22 -16 49.8 17.6
-11 23 16 -16.1 22
-9 -23 16 23.8 16.7
-9 23 16 49.7 22.9
-7 -23 16 88.59 18.9
-7 23 16 47.9 23.3
-5 -23 16 404.86 37.2
-5 23 16 365.46 43.4
-3 -23 16 8.2 16.5
3 -23 -16 9.9 18.6
1 -23 -16 219.98 26.2
-1 -23 16 191.38 25.4
-1 -23 -16 -2.4 15.9
1 -23 16 2.9 17.8
-3 -23 -16 -9.3 15.5
-3 23 -16 -8.2 19.4
-5 -23 -16 348.57 34.8
-7 -23 -16 -6.1 15.4
-7 23 -16 -9.4 16
-9 23 -16 107.39 20.6
-10 24 16 -10.2 23.1
-8 -24 16 533.45 43.6
-8 24 16 535.55 51.79
-6 -24 16 64.59 18.7
-4 -24 16 20.6 17.5
2 -24 -16 30.2 19.2
-2 -24 16 34 18
0 -24 -16 78.79 20.8
0 -24 16 108.19 22.6
-2 -24 -16 174.58 23.9
-4 -24 -16 86.59 19.8
-6 -24 -16 22.9 16.9
-6 24 -16 32.3 18.1
-8 -24 -16 -4.2 21
-8 24 -16 18 17.2
-10 24 -16 5.5 17.1
-11 25 16 7.8 23.5
-9 25 16 161.28 29.4
-7 -25 16 91.69 20.8
-5 -25 16 23.1 18.1
-3 -25 16 2.7 17.5
1 -25 -16 -11.6 18.4
-1 -25 16 17.6 19.2
-1 -25 -16 167.68 24
1 -25 16 118.69 24
-3 -25 -16 214.08 27
-5 -25 -16 -2.3 17.2
-7 -25 -16 -15.4 16.7
-7 25 -16 14.5 18
-9 25 -16 11.5 18
-10 26 16 12.8 24.1
-6 -26 16 110.29 22
-4 -26 16 108.29 21.6
-2 -26 16 59.29 20.2
0 -26 -16 -6.2 18.9
0 -26 16 34.7 19.9
-2 -26 -16 698.53 53.79
-4 -26 -16 35.6 18.6
-6 -26 -16 29.8 18.7
-8 26 -16 36.8 19.1
-10 26 -16 167.88 34.9
-5 -27 16 169.78 25.1
-3 -27 16 3.3 18.2
-1 -27 16 39.9 20.6
1 -27 -16 18.1 20.3
-1 -27 -16 35.4 20
-3 -27 -16 38.8 19.1
-5 -27 -16 28.7 19
-9 27 -16 128.39 24
-4 -28 16 -0.4 18.5
-2 -28 16 0.4 19.6
0 -28 -16 11 20.2
-2 -28 -16 457.35 43.5
-4 -28 -16 41.3 20.9
-5 -29 16 -8.9 18.2
-3 -29 16 3.2 19.9
-1 -29 16 23 20.9
-1 -29 -16 175.38 27.3
-3 -29 -16 39.3 21.4
-4 -30 16 4.4 20.6
-2 -30 16 135.29 26
0 -30 -16 4.6 22.4
-2 -30 -16 13.6 21.1
-3 -31 16 6.2 21.4
-1 -31 -16 -8.4 20.9
-14 0 17 12.8 13.9
-12 0 17 2.9 13.6
-10 0 17 2.3 12.7
-8 0 17 13.6 10.4
8 0 -17 2.6 11.5
-8 0 17 -16.3 11.5
6 0 -17 -6.8 11.2
-6 0 17 -7.5 9.4
-6 0 17 -7.9 11.4
4 0 -17 3.4 11.1
-4 0 17 8.2 9.3
-4 0 17 -20.4 11.4
-2 0 17 -6 8.9
2 0 -17 0.2 10.7
-2 0 17 -3.3 10.9
2 0 -17 3.9 11
0 0 -17 2.4 10.1
0 0 17 7.2 8.9
0 0 17 2.7 11
0 0 -17 -1.2 9.4
-2 0 -17 18.7 10.4
2 0 17 -5 9.6
2 0 17 -2.9 11.5
-2 0 -17 9.4 9.7
-4 0 -17 5.6 9.5
-4 0 -17 0.6 9.6
4 0 17 -10.2 10.6
-6 0 -17 7.3 9.3
-6 0 -17 2.4 10
6 0 17 -10.7 10.6
8 0 17 21.3 11.3
-8 0 -17 18 10.3
-8 0 -17 15.6 9.5
10 0 17 0.8 11.6
-10 0 -17 0.1 9.8
-10 0 -17 -1.5 9
-12 0 -17 5 9.9
-14 0 -17 0.6 9.1
-15 -1 17 55.89 15.2
-15 1 17 39.7 15.6
-13 -1 17 79.79 16.2
-13 1 17 69.29 15.6
-11 -1 17 -4.2 12.9
-11 1 17 12.5 13.5
9 -1 -17 729.93 51.19
-9 -1 17 729.03 51.19
-9 -1 17 779.62 50.49
-9 1 17 834.32 51.19
9 1 -17 792.72 51.39
-9 1 17 747.63 51.49
7 -1 -17 59.29 13.2
-7 -1 17 43.6 13.2
-7 -1 17 71.19 12.2
-7 1 17 44.3 12.1
7 1 -17 66.19 13.4
-7 1 17 50.59 13.5
-5 -1 17 1339.87 81.09
5 -1 -17 1370.86 81.89
-5 -1 17 1261.87 81.69
-5 1 17 1344.37 81.79
-5 1 17 1332.17 81.29
5 1 -17 1261.37 81.39
-3 -1 17 14 11.9
3 -1 -17 32.8 12.3
-3 -1 17 -12.6 8.8
3 -1 -17 13.4 11.2
3 1 -17 -26.2 10.5
-3 1 17 18.3 10
3 1 -17 14.8 11
-3 1 17 21.9 11.7
1 -1 -17 124.69 14.3
1 -1 -17 79.29 13.5
-1 -1 17 86.69 11.9
-1 -1 17 72.09 14
1 1 -17 72.29 13.1
-1 1 17 74.29 13
1 1 -17 91.29 12.7
-1 1 17 105.99 12.5
-1 -1 -17 42.1 10.9
1 -1 17 54.09 11.1
-1 -1 -17 79.29 13
1 -1 17 55.49 12.8
-1 1 -17 65.79 12.3
1 1 17 47.2 12.5
1 1 17 44.2 11
-1 1 -17 69.59 11.7
-3 -1 -17 2442.06 151.68
3 -1 17 2610.14 152.08
-3 -1 -17 2607.24 151.88
-3 1 -17 2491.85 151.68
3 1 17 2509.05 152.08
-3 1 -17 2608.54 151.88
-5 -1 -17 447.06 33.4
5 -1 17 479.15 34.3
-5 -1 -17 469.45 33.5
-5 1 -17 503.05 33.6
5 1 17 495.25 34.4
-5 1 -17 471.95 33.3
-7 -1 -17 38.6 10.7
-7 -1 -17 16.4 10.1
7 -1 17 21.8 11.3
-7 1 -17 23.9 10.1
7 1 17 43.2 11.5
-7 1 -17 24.7 10.5
-9 -1 -17 1905.71 112.99
9 -1 17 1844.32 113.49
-9 -1 -17 1985.2 112.89
-9 1 -17 1876.31 112.79
-9 1 -17 1843.42 113.09
9 1 17 1817.82 113.29
-11 -1 -17 110.39 13.2
-11 -1 -17 89.49 12.5
-11 1 -17 106.39 13.5
-11 1 -17 91.69 15.2
-13 -1 -17 16 9.7
-13 1 -17 13.3 10.6
-15 1 -17 131.29 14.3
-14 -2 17 21.8 14
-14 2 17 15.6 14.8
-12 -2 17 48.1 14.6
-12 2 17 62.29 15.2
-10 -2 17 151.08 18.9
-10 -2 17 127.89 17.5
-10 2 17 154.38 18.5
8 -2 -17 476.55 35.3
-8 -2 17 500.85 35.5
-8 -2 17 475.15 34
8 2 -17 442.96 35
-8 2 17 456.05 34.5
-8 2 17 476.25 35.7
6 -2 -17 592.74 43.5
-6 -2 17 664.93 43.5
-6 -2 17 618.04 42.2
6 2 -17 643.84 43.1
-6 2 17 643.84 43.6
-6 2 17 627.64 42.6
-4 -2 17 168.28 15.6
4 -2 -17 124.69 16.2
-4 -2 17 144.29 16.7
-4 2 17 151.08 15.2
4 2 -17 139.09 16.3
-4 2 17 109.69 15.7
2 -2 -17 314.37 28.7
-2 -2 17 379.56 27.2
-2 -2 17 390.96 29.5
2 -2 -17 359.46 28.5
-2 2 17 374.96 29.5
2 2 -17 376.36 28.5
2 2 -17 353.86 28.7
-2 2 17 340.77 27.1
0 -2 -17 67.59 12.4
0 -2 17 62.99 10.7
0 -2 17 80.79 13.4
0 -2 -17 64.89 12.4
0 2 -17 57.19 12.2
0 2 17 51.89 11.3
0 2 -17 68.19 12.2
0 2 17 70.99 14.1
2 -2 17 544.65 36.9
2 -2 17 475.25 35.7
-2 -2 -17 493.65 36.2
-2 -2 -17 551.44 36.2
-2 2 -17 539.35 35.9
-2 2 -17 505.55 35.9
2 2 17 538.25 36.8
-4 -2 -17 39.9 10.5
-4 -2 -17 41.7 10.7
4 -2 17 19.9 10.9
-4 2 -17 22.7 10.3
-4 2 -17 34.9 10.9
4 2 17 20 10.8
-6 -2 -17 17.6 10.3
-6 -2 -17 29.6 10.5
6 -2 17 33.8 11.4
-6 2 -17 24.4 10.5
6 2 17 15.8 11.1
-6 2 -17 20.9 10.4
-8 -2 -17 512.55 34.8
-8 -2 -17 558.14 35.1
8 -2 17 465.05 35.8
-8 2 -17 536.45 35.4
8 2 17 456.05 35.2
-8 2 -17 517.75 35.1
-10 -2 -17 22.3 10.1
-10 -2 -17 22 9.6
-10 2 -17 37.1 10.9
-10 2 -17 27.4 10.6
-12 -2 -17 105.99 12.4
-12 -2 -17 99.49 12.4
-12 2 -17 104.79 13.6
-14 2 -17 -15 10.2
-15 -3 17 377.76 31.4
-15 3 17 360.16 33.4
-13 -3 17 55.19 14.8
-13 3 17 43.1 15.7
-11 -3 17 112.29 16.4
-11 3 17 107.19 17.2
-9 -3 17 1136.89 77.19
-9 -3 17 1232.48 76.89
9 -3 -17 1322.97 78.49
9 3 -17 1225.18 77.59
-9 3 17 1255.97 77.79
-9 3 17 1277.67 78.29
-7 -3 17 763.22 49.1
-7 -3 17 694.53 47.5
7 -3 -17 696.23 48.7
7 3 -17 710.83 48.4
-7 3 17 721.63 49.3
-7 3 17 779.32 48.6
5 -3 -17 91.09 15.2
-5 -3 17 81.49 12.6
-5 -3 17 97.09 15.1
-5 3 17 97.99 15
-5 3 17 104.29 13.4
5 3 -17 70.49 13.4
3 -3 -17 132.59 16.3
-3 -3 17 190.18 18.7
-3 -3 17 145.69 15.1
3 -3 -17 121.79 15.8
-3 3 17 126.19 15
-3 3 17 189.48 17.5
3 3 -17 159.08 17
1 -3 -17 2531.65 144.79
-1 -3 17 2364.46 144.79
1 -3 -17 2433.06 144.79
-1 -3 17 2419.16 144.29
-1 3 17 2440.36 144.89
1 3 -17 2420.86 144.59
-1 3 17 2343.27 144.29
1 3 -17 2381.56 144.49
1 -3 17 45 12.2
-1 -3 -17 34.2 11.7
1 -3 17 27.6 10
-1 -3 -17 60.59 11.3
-1 3 -17 50.39 10.9
1 3 17 41.8 11.7
-1 3 -17 36.8 11
1 3 17 44.6 11
-3 -3 -17 339.57 26.3
3 -3 17 335.27 26.8
-3 -3 -17 314.07 26
3 3 17 313.87 27
-3 3 -17 298.17 25.9
-3 3 -17 334.87 25.8
5 -3 17 70.19 13.1
-5 -3 -17 80.39 12.1
-5 -3 -17 61.29 11.9
-5 3 -17 74.39 12.4
-5 3 -17 50.69 11.6
5 3 17 76.99 12.7
7 -3 17 23 11.4
-7 -3 -17 35.5 11
-7 -3 -17 18.5 10.4
-7 3 -17 28.9 10.6
7 3 17 24.9 10.9
-7 3 -17 25.1 10.4
9 -3 17 113.09 15.6
-9 -3 -17 102.89 13.3
-9 -3 -17 100.49 13.6
9 3 17 115.59 14.4
-9 3 -17 109.69 14.3
-9 3 -17 104.99 13.7
-11 -3 -17 965.8 58.19
-11 -3 -17 910.61 58.19
-11 3 -17 936.11 58.89
-13 -3 -17 520.95 34.1
-13 3 -17 508.25 35.5
-15 3 -17 106.59 13.9
-14 -4 17 326.27 29.4
-14 4 17 327.97 31.9
-12 -4 17 -3.9 12.8
-12 4 17 -0.9 13.6
-10 -4 17 6.5 12.3
-10 4 17 -6.5 13.1
-8 -4 17 609.14 42.6
8 -4 -17 661.83 45.2
-8 -4 17 624.84 44.2
-8 4 17 670.83 44.3
-8 4 17 669.33 45.2
8 4 -17 614.84 43.9
6 -4 -17 50.89 13
-6 -4 17 43.9 11
-6 -4 17 22.8 12.7
-6 4 17 42.4 12.1
-6 4 17 38.2 14
6 4 -17 48.4 12.6
-4 -4 17 82.39 15.1
-4 -4 17 109.09 13.2
4 -4 -17 67.99 14.3
-4 4 17 115.99 13.8
4 4 -17 84.79 14.3
-4 4 17 96.69 15.7
-2 -4 17 312.57 26.1
2 -4 -17 315.07 25.2
-2 -4 17 303.07 24
2 -4 -17 286.67 25.5
-2 4 17 257.77 23.9
-2 4 17 283.37 26.5
2 4 -17 272.47 24.8
2 4 -17 321.07 25.5
0 -4 17 5123.69 289.27
0 -4 17 5035 289.57
0 -4 -17 4810.82 289.47
0 -4 -17 4985.1 289.57
0 4 -17 4985.7 289.47
0 4 17 4280.27 289.27
0 4 -17 4975 289.37
0 4 17 5046.7 289.27
-2 -4 -17 2328.37 138.69
2 -4 17 2284.77 138.79
2 -4 17 2352.66 138.29
-2 -4 -17 2305.17 138.49
-2 4 -17 2248.18 138.49
-2 4 -17 2293.27 138.39
2 4 17 2379.46 138.89
-4 -4 -17 153.78 16.2
4 -4 17 144.09 16.7
-4 -4 -17 132.29 15.5
-4 4 -17 147.79 15.6
4 4 17 159.58 16.7
-4 4 -17 169.58 18.4
-6 -4 -17 35.3 10.9
6 -4 17 17 11
-6 -4 -17 19.8 10.3
-6 4 -17 37.9 10.7
-6 4 -17 13.8 10.7
6 4 17 15.4 10.9
-8 -4 -17 61.59 11.5
8 -4 17 31.6 11.9
-8 -4 -17 36.2 10.7
-8 4 -17 29.5 11
-8 4 -17 27.7 10.9
8 4 17 60.09 11.7
-10 -4 -17 242.98 21.2
-10 -4 -17 241.68 20.9
-10 4 -17 252.67 22.6
-12 -4 -17 2746.43 156.88
-12 -4 -17 2559.44 156.88
-12 4 -17 2642.94 157.78
-14 4 -17 94.79 13.6
-15 -5 17 39.9 14.4
-15 5 17 29.1 16.2
-13 -5 17 12.5 13.2
-13 5 17 4.5 14.5
-11 -5 17 203.48 20
-11 5 17 162.58 21
-9 -5 17 155.28 18.1
-9 -5 17 132.39 15.1
-9 5 17 141.99 18.5
9 5 -17 119.79 17
7 -5 -17 218.18 22.2
-7 -5 17 229.88 21.8
-7 -5 17 218.98 21.6
-7 5 17 256.97 23.1
7 5 -17 255.17 23.6
-7 5 17 215.88 21.4
-5 -5 17 166.58 18.8
-5 -5 17 195.78 19.5
5 -5 -17 180.98 19.3
-5 5 17 181.18 18.4
5 5 -17 221.88 19.4
-5 5 17 189.08 19.8
3 -5 -17 1473.55 90.09
-3 -5 17 1511.75 89.19
3 -5 -17 1483.35 90.09
-3 -5 17 1374.36 89.79
-3 5 17 1440.46 89.49
3 5 -17 1502.65 89.69
-3 5 17 1448.56 90.19
-1 -5 17 612.14 41.9
-1 -5 17 689.83 40.7
1 -5 -17 587.44 41.8
1 -5 -17 565.94 41
-1 5 17 621.84 40.9
1 5 -17 627.74 41
1 5 -17 638.84 41.2
-1 5 17 493.35 41.7
-1 -5 -17 526.95 37.1
1 -5 17 569.24 36.8
-1 -5 -17 485.25 37.3
1 -5 17 549.15 38.1
-1 5 -17 502.95 37.2
1 5 17 537.95 37
-1 5 -17 546.55 37
1 5 17 579.64 38.5
-3 -5 -17 2043.8 125.39
3 -5 17 2087.59 125.79
-3 -5 -17 2191.98 125.79
-3 5 -17 2060.19 125.69
-3 5 -17 2187.88 125.59
3 5 17 1963.5 125.59
-5 -5 -17 269.47 23.5
-5 -5 -17 246.58 22.8
5 -5 17 275.17 24.5
5 5 17 273.17 23.5
-5 5 -17 263.47 23.6
-5 5 -17 252.67 23.2
-7 -5 -17 186.88 20.2
7 -5 17 207.18 22.2
-7 -5 -17 196.38 20
-7 5 -17 192.38 20.9
7 5 17 197.88 20.5
-7 5 -17 206.88 20.8
-9 -5 -17 611.94 39.5
-9 -5 -17 621.54 39.4
-9 5 -17 591.04 40.7
-9 5 -17 570.14 39.9
9 5 17 559.24 39.7
-11 -5 -17 53.69 10.2
-11 -5 -17 42.2 10.3
-11 5 -17 51.19 12
-13 5 -17 59.19 12.4
-15 5 -17 23.6 11.3
-14 -6 17 17.2 13.3
-14 6 17 1.6 14.9
-12 -6 17 -1.1 12.7
-12 6 17 25 15.4
-10 -6 17 9.1 13
-10 6 17 10.9 13.9
-8 -6 17 155.68 17.7
8 -6 -17 120.09 18.7
-8 -6 17 132.99 15.5
-8 6 17 126.99 19
8 6 -17 132.89 16.9
-8 6 17 142.89 17.5
6 -6 -17 1019.3 63.49
-6 -6 17 974.4 61.69
-6 -6 17 932.31 62.69
-6 6 17 988.3 63.89
6 6 -17 990.4 62.59
-6 6 17 974.5 62.89
-4 -6 17 681.23 44.3
4 -6 -17 687.43 46.2
-4 -6 17 644.04 45.2
-4 6 17 666.13 45.1
4 6 -17 677.33 45.2
-4 6 17 675.53 46.5
-2 -6 17 120.79 13.8
-2 -6 17 116.29 15.9
2 -6 -17 112.59 14.9
2 -6 -17 91.09 14.6
2 6 -17 100.79 14.1
2 6 -17 102.69 14.8
-2 6 17 113.79 14.2
-2 6 17 113.09 15.9
0 -6 -17 4.8 10.6
0 -6 17 34.4 11
0 -6 17 14.7 9
0 -6 -17 27.1 11.5
0 6 -17 16.5 10.3
0 6 17 29.3 12.4
0 6 17 17.3 10.2
0 6 -17 13.4 10.5
-2 -6 -17 165.58 16.2
-2 -6 -17 103.89 14.5
2 -6 17 94.99 14.8
2 -6 17 175.88 17.8
-2 6 -17 124.99 14.8
2 6 17 137.49 16
-2 6 -17 126.29 15.5
4 -6 17 721.43 48
-4 -6 -17 683.13 47
-4 -6 -17 709.33 47
-4 6 -17 726.73 47.2
4 6 17 675.23 47.3
-4 6 -17 782.62 47.6
6 -6 17 -7.1 11.4
-6 -6 -17 10.8 10.6
-6 -6 -17 24.7 10.8
-6 6 -17 7.5 10.5
6 6 17 4.8 10.8
-6 6 -17 4.6 10.5
-8 -6 -17 610.94 39
8 -6 17 567.44 40.7
-8 -6 -17 597.94 38.5
-8 6 -17 559.74 40
8 6 17 570.64 39.1
-8 6 -17 530.65 39
-10 -6 -17 25.8 9.8
-10 -6 -17 10 9.9
-10 6 -17 19.3 11.1
-12 -6 -17 38.9 9.6
-12 -6 -17 14.4 9
-12 6 -17 27.1 11.7
-14 6 -17 5.7 11.3
-15 -7 17 3.1 13.3
-13 -7 17 131.09 17.2
-13 7 17 120.39 19.7
-11 -7 17 948.71 59.59
-11 7 17 871.01 61.69
-9 -7 17 48.7 13.7
-9 -7 17 26.8 10.5
-9 7 17 44.5 15.1
7 -7 -17 4.8 13.3
-7 -7 17 -13.2 12.4
-7 -7 17 -3 9.1
-7 7 17 -20.3 10.4
7 7 -17 6.5 11.9
-7 7 17 -20.2 13.1
-5 -7 17 466.85 30.6
5 -7 -17 387.46 32.9
-5 -7 17 383.86 31.9
-5 7 17 420.86 32
-5 7 17 387.76 33.8
5 7 -17 405.96 31.6
-3 -7 17 910.81 52.19
3 -7 -17 764.72 53.09
3 -7 -17 798.82 53.49
-3 -7 17 833.92 53.29
-3 7 17 822.22 52.79
3 7 -17 838.02 52.69
-3 7 17 678.13 53.39
-1 -7 17 413.86 30.3
1 -7 -17 391.06 31.4
1 -7 -17 398.86 32.4
-1 -7 17 411.16 32.1
-1 7 17 382.46 32.7
-1 7 17 413.16 31.4
1 7 -17 464.35 31.8
1 7 -17 448.96 31.7
1 -7 17 3489.95 217.68
-1 -7 -17 3608.74 218.08
-1 -7 -17 3670.23 218.28
1 -7 17 3828.02 218.48
1 7 17 3704.53 218.48
-1 7 -17 3459.65 217.88
-1 7 -17 3985.4 218.38
-3 -7 -17 14.6 10.7
-3 -7 -17 -8.8 10.4
3 -7 17 8.3 11.3
-3 7 -17 5.2 10.3
3 7 17 26.2 11.9
-3 7 -17 4.7 11.1
5 -7 17 55.49 13.1
-5 -7 -17 32.1 11.4
-5 -7 -17 34.8 11.1
5 7 17 58.19 12.7
-5 7 -17 31.2 11.5
-5 7 -17 34.7 11.7
-7 -7 -17 0.9 10.1
-7 -7 -17 19.4 11
7 -7 17 -5.9 12.1
7 7 17 0.2 10.7
-7 7 -17 5.8 11.2
-7 7 -17 -3.1 10.4
-9 -7 -17 98.69 12.8
-9 -7 -17 88.69 13.8
-9 7 -17 88.39 13.9
-11 -7 -17 158.38 14.8
-11 -7 -17 142.69 14.9
-11 7 -17 145.19 16.5
-13 7 -17 5.3 11.5
-14 -8 17 13.2 13.2
-14 8 17 2.3 16.1
-12 -8 17 22.1 14
-12 8 17 40.7 16.2
-10 -8 17 711.93 48.6
-10 8 17 723.33 51.09
-8 -8 17 257.57 23.2
8 -8 -17 268.57 29
-8 -8 17 270.07 26.7
8 8 -17 322.27 26.8
-8 8 17 248.88 28.2
-8 8 17 277.67 33.9
-6 -8 17 207.28 23.2
6 -8 -17 202.98 21.9
-6 -8 17 188.28 20.2
-6 8 17 232.08 23.7
6 8 -17 204.08 22.7
-6 8 17 226.18 22.9
-4 -8 17 1434.36 85.19
4 -8 -17 1184.28 86.09
-4 -8 17 1456.55 85.89
-4 8 17 1467.65 86.39
4 8 -17 1493.55 85.89
-4 8 17 1279.97 86.69
-2 -8 17 205.58 23.7
2 -8 -17 262.27 23.7
-2 -8 17 237.88 21.3
2 -8 -17 232.38 24.2
-2 8 17 247.28 25.5
2 8 -17 209.88 23.2
-2 8 17 241.58 23
0 -8 -17 238.88 25.1
0 -8 17 266.27 23.1
0 -8 17 331.27 26.2
0 -8 -17 276.37 24.6
0 8 17 266.47 24.5
0 8 -17 302.57 24.5
0 8 17 274.37 26.3
0 8 -17 234.88 24.7
-2 -8 -17 3652.23 238.48
2 -8 17 4479.95 240.88
2 -8 17 3974.4 238.98
-2 -8 -17 4187.78 238.98
-2 8 -17 3832.92 238.48
2 8 17 4073.19 239.08
-2 8 -17 4031 238.88
-4 -8 -17 136.49 15.7
4 -8 17 152.08 17.7
-4 -8 -17 126.99 15.4
-4 8 -17 119.79 15.8
-4 8 -17 141.99 16.4
4 8 17 135.79 16.5
6 -8 17 38.3 13.3
-6 -8 -17 31.4 11.2
-6 -8 -17 36.4 11.7
-6 8 -17 42.1 12.2
6 8 17 33.1 11.9
-6 8 -17 46 12.5
-8 -8 -17 19.2 11.1
-8 -8 -17 14.9 10.7
8 -8 17 8.1 14.6
8 8 17 21.1 11.8
-8 8 -17 8 11.6
-10 -8 -17 1594.34 98.99
-10 -8 -17 1694.03 98.69
-10 8 -17 1616.34 99.69
-12 -8 -17 3 8.8
-12 -8 -17 4.4 10
-12 8 -17 -6.5 11.4
-14 8 -17 -16.1 11.3
-13 -9 17 20.6 13.7
-13 9 17 37.3 16.7
-11 -9 17 293.97 27.7
-11 9 17 297.67 28.6
-9 -9 17 74.79 15.5
-9 9 17 73.79 17.4
-7 -9 17 1850.31 119.19
7 -9 -17 2051.59 121.19
-7 -9 17 1966.4 118.79
-7 9 17 2056.69 120.99
7 9 -17 2005 119.49
-7 9 17 1891.41 120.69
-5 -9 17 763.12 51.89
-5 -9 17 785.02 50.79
5 -9 -17 776.32 53.39
-5 9 17 781.02 52.69
5 9 -17 794.82 51.69
-5 9 17 798.62 53.59
3 -9 -17 506.75 37.2
-3 -9 17 439.16 35.8
3 -9 -17 485.85 36.4
-3 -9 17 500.75 34.3
-3 9 17 501.05 37.5
-3 9 17 507.55 36
3 9 -17 437.36 35.4
1 -9 -17 843.72 54.69
-1 -9 17 798.52 52.89
-1 -9 17 813.62 54.39
1 -9 -17 851.91 54.39
1 9 -17 867.51 54.69
-1 9 17 857.91 54.19
1 9 -17 726.23 53.49
-1 9 17 859.01 55.39
-1 -9 -17 209.58 23.2
1 -9 17 244.78 25
1 -9 17 233.78 21.5
-1 -9 -17 211.38 23.7
-1 9 -17 231.88 23.1
-1 9 -17 237.58 23.8
1 9 17 251.87 25.2
3 -9 17 21.3 12.5
-3 -9 -17 46.4 12.1
-3 -9 -17 35.3 12.1
-3 9 -17 20.9 12.1
-3 9 -17 31.9 11.7
3 9 17 27.5 13
-5 -9 -17 1662.13 100.89
-5 -9 -17 1707.63 100.39
5 -9 17 1681.93 101.79
-5 9 -17 1681.13 101.39
5 9 17 1578.94 100.79
-5 9 -17 1591.44 100.69
-7 -9 -17 381.86 28.1
7 -9 17 356.16 31
-7 -9 -17 341.67 28.3
-7 9 -17 359.76 30.1
7 9 17 336.27 28.9
-7 9 -17 359.46 28.7
-9 -9 -17 97.99 14.7
-9 -9 -17 107.89 13.9
-9 9 -17 96.79 14.7
-11 -9 -17 9.6 13.9
-11 -9 -17 -6.7 9.1
-11 9 -17 -12.8 11.3
-13 9 -17 122.59 16.2
-14 -10 17 17.2 13.8
-14 10 17 20.6 17.4
-12 -10 17 251.87 25.9
-12 10 17 240.08 26.4
-10 -10 17 95.09 16.7
-10 10 17 72.69 18
-8 -10 17 3156.08 189.28
-8 10 17 3186.48 190.98
-6 -10 17 84.69 12.4
-6 -10 17 31 13.7
6 -10 -17 86.89 16.4
-6 10 17 71.59 15
6 10 -17 98.99 14.4
-6 10 17 68.89 16.2
4 -10 -17 65.79 15.5
-4 -10 17 74.89 12
-4 -10 17 66.39 14.2
4 10 -17 60.39 13.4
-4 10 17 61.89 13.3
-4 10 17 29.2 14.2
-2 -10 17 1922.91 115.49
2 -10 -17 1967.1 116.69
-2 -10 17 1803.92 115.99
2 -10 -17 1956.9 116.89
2 10 -17 1890.41 115.99
-2 10 17 2018 116.49
-2 10 17 1813.22 116.79
0 -10 -17 132.79 17
0 -10 17 117.59 14.8
0 -10 17 134.29 17
0 -10 -17 121.09 16.8
0 10 -17 105.59 15.7
0 10 17 156.88 17.7
0 10 -17 119.09 16
-2 -10 -17 3.5 11.6
-2 -10 -17 -11.6 11.2
2 -10 17 3.2 12.5
2 10 17 -1.3 12.4
-2 10 -17 -31 10.3
-2 10 -17 -10.7 10.8
-4 -10 -17 311.27 24.9
4 -10 17 239.08 23.2
-4 -10 -17 234.38 24.4
-4 10 -17 237.68 24.8
-4 10 -17 232.68 24.5
4 10 17 264.37 25.5
-6 -10 -17 40.4 12.7
6 -10 17 23.3 14.1
-6 -10 -17 74.79 13.2
-6 10 -17 33.7 12.6
-6 10 -17 54.29 13.7
6 10 17 55.69 13.3
-8 -10 -17 58.89 12.1
-8 -10 -17 48 12.4
8 10 17 27.1 12.8
-8 10 -17 58.99 13.2
-10 -10 -17 -11.7 9.9
-10 10 -17 -7 11.2
-12 -10 -17 41 10.4
-12 10 -17 44.8 13.1
-14 10 -17 281.57 26.3
-13 -11 17 3.6 13.5
-13 11 17 16.7 17
-11 -11 17 168.98 19.6
-11 11 17 138.59 21.5
-9 -11 17 9.3 13.2
-9 11 17 15.8 15.6
-7 -11 17 721.23 54.69
7 -11 -17 845.62 57.39
-7 -11 17 939.51 53.89
7 11 -17 955.3 55.29
-7 11 17 656.53 56.79
-5 -11 17 269.87 27.9
-5 -11 17 337.47 26.1
5 -11 -17 284.87 29.9
-5 11 17 336.47 28.7
-5 11 17 271.97 30.6
5 11 -17 348.97 28.4
-3 -11 17 21.2 10.3
-3 -11 17 16.5 12.6
3 -11 -17 4 12.9
-3 11 17 16.1 11.3
3 11 -17 21.8 12.6
-3 11 17 4.9 13.6
-1 -11 17 52.69 13.9
1 -11 -17 63.19 14.1
1 -11 -17 45.1 13.8
-1 -11 17 52.69 11.8
-1 11 17 51.99 14.1
1 11 -17 32.7 12.9
1 -11 17 843.42 52.99
1 -11 17 747.93 54.39
-1 -11 -17 802.92 54.19
-1 -11 -17 808.12 54.19
-1 11 -17 861.51 54.09
1 11 17 783.32 54.49
-1 11 -17 849.12 53.99
-3 -11 -17 703.63 44.5
-3 -11 -17 627.44 44.7
3 -11 17 660.43 45.4
-3 11 -17 652.53 44.4
3 11 17 618.94 44.9
-3 11 -17 579.74 44.2
5 -11 17 240.18 25.5
-5 -11 -17 193.88 20.1
-5 -11 -17 151.48 18.5
-5 11 -17 226.38 23.9
5 11 17 200.98 20.6
-5 11 -17 236.88 23.2
-7 -11 -17 130.89 17
-7 -11 -17 143.29 16.4
-7 11 -17 172.58 17.6
7 11 17 113.89 17
-9 -11 -17 386.66 29.4
-9 11 -17 386.56 31.3
-11 -11 -17 93.79 13
-11 11 -17 92.79 15.4
-13 -11 -17 65.29 10.7
-13 11 -17 79.99 14.8
-14 -12 17 97.39 16.8
-14 12 17 103.79 21.5
-12 -12 17 36.3 15.2
-12 12 17 26.4 17.9
-10 -12 17 15.5 13.4
-10 12 17 -10.8 15.9
-8 -12 17 57.39 14.6
-8 12 17 39 17
-6 -12 17 1.3 9.8
6 -12 -17 9.9 14.6
-6 -12 17 -12.1 11.9
-6 12 17 9.8 15.3
6 12 -17 -15.5 12
-6 12 17 -1.9 12.2
-4 -12 17 1006.5 68.49
-4 -12 17 1137.69 67.89
4 -12 -17 1078.89 70.09
-4 12 17 1015.6 70.29
-4 12 17 1087.29 69.39
4 12 -17 1108.19 68.89
-2 -12 17 287.67 27.9
2 -12 -17 296.07 28.7
-2 -12 17 295.87 24.9
2 -12 -17 317.97 28
-2 12 17 309.37 29.9
-2 12 17 252.97 26.2
2 12 -17 264.17 27
0 -12 -17 304.47 29.9
0 -12 17 358.76 28.3
0 -12 -17 358.36 30.9
0 -12 17 338.57 30.8
0 12 17 329.57 31.2
0 12 -17 402.36 30.2
-2 -12 -17 2028.1 123.99
-2 -12 -17 2031.1 123.59
2 -12 17 1923.71 124.09
2 12 17 2060.59 124.19
-2 12 -17 2047.9 123.59
-2 12 -17 2109.59 123.99
4 -12 17 15.4 13.6
-4 -12 -17 3.3 12
-4 -12 -17 -8.3 11.9
-4 12 -17 12.3 12.2
4 12 17 24.7 13.4
-4 12 -17 2.7 11.8
-6 -12 -17 -8 11.7
-6 -12 -17 6.8 11.5
6 -12 17 -13.8 14.2
-6 12 -17 6.3 12.3
6 12 17 -5.1 12.9
-8 -12 -17 68.09 13.3
-8 12 -17 67.49 14.6
-10 -12 -17 608.94 42.4
-10 12 -17 660.93 44.2
-12 -12 -17 4.8 10
-12 12 -17 34.1 13.1
-13 -13 17 117.99 17.7
-13 13 17 118.19 21.8
-11 -13 17 62.89 15.6
-11 13 17 31 18.5
-9 -13 17 13.5 13.6
-9 13 17 33.2 17.3
-7 -13 17 64.89 14.6
-7 13 17 52.59 17.2
-5 -13 17 119.09 16.8
-5 -13 17 90.69 14.3
5 -13 -17 118.09 18.8
5 13 -17 97.29 16.4
-5 13 17 130.29 17.9
-5 13 17 113.69 19.3
-3 -13 17 26.4 10.9
3 -13 -17 7.1 13.5
-3 -13 17 9.3 13
-3 13 17 -1.8 14.5
-3 13 17 23.5 13.1
3 13 -17 -17.1 12.5
1 -13 -17 64.89 16.4
-1 -13 17 88.59 15.7
1 -13 -17 89.49 16.3
-1 -13 17 88.29 13.9
-1 13 17 86.69 16.9
1 13 -17 106.29 16.1
1 -13 17 413.66 34.5
1 -13 17 494.65 32.2
-1 -13 -17 404.56 33.9
-1 -13 -17 376.66 33.9
-1 13 -17 445.76 33.4
-1 13 -17 408.36 33.3
1 13 17 331.37 34.5
-3 -13 -17 817.62 52.59
-3 -13 -17 787.32 51.99
3 -13 17 688.63 52.69
3 13 17 704.13 52.79
-3 13 -17 777.92 52.09
-3 13 -17 839.02 52.79
-5 -13 -17 315.87 27.2
-5 -13 -17 284.77 28.2
5 -13 17 285.07 30.3
5 13 17 258.57 29.1
-5 13 -17 338.97 28.2
-5 13 -17 300.97 28.7
-7 -13 -17 55.19 13.7
-7 13 -17 63.99 14.4
-9 -13 -17 302.57 26.3
-9 13 -17 290.17 28
-11 -13 -17 16.3 11.1
-11 13 -17 32.2 13.7
-13 -13 -17 90.29 12.4
-13 13 -17 85.99 16.1
-12 -14 17 -1.7 14.4
-12 14 17 15.9 18.4
-10 -14 17 104.29 16.7
-10 14 17 81.99 20.2
-8 -14 17 29 14.3
-8 14 17 25.3 17.1
6 -14 -17 476.15 37.2
-6 -14 17 357.36 33.5
-6 14 17 408.26 37
-4 -14 17 6 13.2
4 -14 -17 40 15.7
-4 -14 17 5.4 10.6
-4 14 17 8.4 12.7
4 14 -17 10.3 13.4
-4 14 17 34.2 16.3
-2 -14 17 254.27 27.3
2 -14 -17 263.67 28
-2 -14 17 298.87 24.4
2 -14 -17 232.18 24.5
-2 14 17 229.38 25.5
2 14 -17 246.98 26.1
0 -14 17 10.9 13.9
0 -14 -17 9.6 13.2
0 -14 -17 -3 13.4
0 -14 17 4.8 10.6
0 14 17 12.9 13.9
0 14 -17 24.3 12.6
2 -14 17 1129.29 73.99
-2 -14 -17 1089.29 72.99
-2 -14 -17 1224.08 74.09
-2 14 -17 1206.18 73.69
2 14 17 1142.69 74.49
-2 14 -17 1077.99 72.89
-4 -14 -17 100.39 17.4
4 -14 17 106.99 18.9
-4 -14 -17 123.99 16.7
4 14 17 83.79 17.3
-4 14 -17 115.79 16.2
-4 14 -17 120.69 17.3
-6 -14 -17 33.2 12.9
-6 14 -17 20.9 12.9
-8 -14 -17 817.72 52.69
-8 14 -17 771.92 53.69
-10 -14 -17 211.88 22.1
-10 14 -17 187.38 21.1
-12 -14 -17 17.9 11.5
-12 14 -17 32.7 14.1
-13 -15 17 8.3 16.1
-13 15 17 -5.7 18.4
-11 -15 17 473.75 37.9
-11 15 17 508.75 43.9
-9 -15 17 353.96 32
-9 15 17 387.06 37.6
-7 -15 17 55.79 14.9
-7 15 17 30.1 17.1
5 -15 -17 2 15.4
-5 -15 17 6 14.3
-5 15 17 -25.7 12.3
-5 15 17 4.9 15.6
-3 -15 17 4.7 10.5
-3 -15 17 4.8 13.8
3 -15 -17 -1.2 13.8
3 15 -17 9 13.6
-3 15 17 4.6 15.3
-1 -15 17 262.17 27.7
1 -15 -17 213.78 24.2
1 -15 -17 239.08 24.8
-1 -15 17 315.87 24.7
-1 15 17 224.48 25.2
1 15 -17 241.48 26.3
-1 -15 -17 1200.58 74.59
1 -15 17 1156.48 74.39
-1 -15 -17 1198.48 74.19
1 15 17 1097.19 74.79
-1 15 -17 1088.89 73.39
-3 -15 -17 198.28 21.6
-3 -15 -17 168.18 20
3 -15 17 198.08 21.8
-3 15 -17 159.08 19.6
3 15 17 111.99 20.4
-3 15 -17 210.38 21.6
-5 -15 -17 3.2 12.1
5 -15 17 -3.7 15.4
-5 15 -17 -6.6 12.5
-7 -15 -17 136.79 18.1
-7 15 -17 169.38 19.3
-9 -15 -17 77.19 14.4
-9 15 -17 58.59 14.7
-11 -15 -17 10.7 11.5
-11 15 -17 -21.5 12.9
-13 -15 -17 114.19 14.5
-12 -16 17 9.2 15
-12 16 17 14.3 19.5
-10 -16 17 40 15.1
-10 16 17 -3.3 17.9
-8 -16 17 827.32 56.09
-8 16 17 827.32 59.99
-6 -16 17 293.47 27.8
-6 16 17 231.88 27.7
4 -16 -17 70.49 18
-4 -16 17 76.49 17
-4 16 17 63.09 17.8
2 -16 -17 25.8 15.3
-2 -16 17 70.59 15.6
2 -16 -17 42.5 16.4
-2 -16 17 43.8 12.3
-2 16 17 49.5 16.9
2 16 -17 39.6 15.2
0 -16 17 1160.28 75.79
0 -16 -17 1229.38 75.89
0 -16 -17 1073.59 75.79
0 16 17 1057.79 76.49
0 16 -17 1325.47 75.69
2 -16 17 548.35 45.2
-2 -16 -17 635.84 44.5
-2 16 -17 640.84 44.2
2 16 17 591.84 46.4
-4 -16 -17 219.38 21.6
4 -16 17 196.18 23.3
-4 16 -17 176.88 21.1
-6 -16 -17 55.99 14.5
-6 16 -17 46.5 15
-8 -16 -17 59.39 14.4
-8 16 -17 79.79 16.1
-10 -16 -17 56.49 13.9
-10 16 -17 31.8 14.8
-12 -16 -17 1210.68 77.99
-12 16 -17 1316.77 80.59
-13 17 17 -9.9 17.2
-11 -17 17 106.79 17.9
-11 17 17 63.69 21.6
-9 -17 17 61.09 16
-9 17 17 68.09 20.3
-7 -17 17 367.06 33.1
-7 17 17 387.36 38
5 -17 -17 14.7 16.8
-5 -17 17 53.49 15.5
-5 17 17 34.9 17.8
3 -17 -17 20.1 16.1
-3 -17 17 29.4 15.2
-3 17 17 39.4 17.5
1 -17 -17 830.42 61.19
-1 -17 17 1088.09 60.19
-1 -17 17 864.41 60.79
1 -17 -17 884.71 61.19
1 17 -17 904.71 60.49
-1 17 17 774.32 61.79
1 -17 17 5.2 15
-1 -17 -17 -9.9 13.8
-1 17 -17 10.9 13.9
1 17 17 0.7 15.4
-3 -17 -17 47.1 15.6
3 -17 17 55.79 17.4
-3 17 -17 29.3 15.4
-3 17 -17 71.79 15.9
-5 -17 -17 143.99 18.2
-5 17 -17 111.99 18
-7 -17 -17 59.99 14.6
-7 17 -17 27.2 14.6
-9 -17 -17 65.99 15.2
-9 17 -17 100.49 17
-11 -17 -17 68.69 14.7
-11 17 -17 72.79 16.4
-12 18 17 7.9 20.2
-10 -18 17 194.28 21.5
-10 18 17 159.28 25.7
-8 -18 17 18.5 14.6
-8 18 17 20.7 18.6
-6 -18 17 153.88 20
-6 18 17 131.49 22.8
4 -18 -17 13.6 17
-4 -18 17 25.3 15.2
-4 18 17 4.5 17.2
2 -18 -17 129.39 21
-2 -18 17 174.28 22
-2 18 17 131.09 22.3
2 18 -17 190.18 23.6
0 -18 17 322.57 33.2
0 -18 17 411.66 37
0 -18 -17 339.77 33.1
0 18 17 326.07 35.8
0 18 -17 309.67 31.7
-2 -18 -17 329.37 34
2 -18 17 378.66 35.9
-2 18 -17 439.26 34.7
4 -18 17 24.9 17.1
-4 -18 -17 -1.4 13.9
-4 18 -17 6.2 13.6
-6 -18 -17 22.6 14.5
-6 18 -17 30.9 15
-8 -18 -17 116.29 17.2
-8 18 -17 105.39 18.5
-10 -18 -17 42.8 14.2
-10 18 -17 40.3 15.8
-12 18 -17 122.19 19.4
-11 -19 17 10.5 15.1
-11 19 17 -9.8 20
-9 -19 17 339.97 30.8
-9 19 17 261.57 31.4
-7 -19 17 14.8 15.2
-7 19 17 14.6 19.3
-5 -19 17 14.8 16.1
-5 19 17 32.2 18.9
3 -19 -17 55.39 17.2
-3 -19 17 41.1 17
-3 19 17 6.5 18
-1 -19 17 115.79 19.9
1 -19 -17 86.19 18.3
1 19 -17 124.19 20.7
-1 19 17 113.49 21.7
1 -19 17 28.8 16.7
-1 -19 -17 44 16.2
-1 19 -17 36.1 15.9
-3 -19 -17 53.29 16.1
3 -19 17 63.99 18.4
-3 19 -17 56.19 16.5
-5 -19 -17 173.38 21.8
-5 19 -17 213.48 22.8
-7 -19 -17 105.69 18
-7 19 -17 125.49 18.9
-9 -19 -17 57.59 15.1
-9 19 -17 51.19 16.6
-11 -19 -17 181.68 21
-11 19 -17 175.28 22.4
-12 20 17 10.2 21.5
-10 -20 17 24.7 15.8
-10 20 17 -8 19.9
-8 -20 17 19.2 15.9
-8 20 17 -20.4 18.9
-6 -20 17 500.75 39.8
-6 20 17 463.85 44.2
4 -20 -17 39.5 18.3
-4 -20 17 37.8 16.5
-4 20 17 35.5 19.9
2 -20 -17 7.9 16.3
-2 -20 17 -7.6 15.1
-2 20 17 -4.8 18.1
0 -20 17 56.49 17.5
0 -20 -17 25.3 16.3
0 20 -17 17.1 15.9
2 -20 17 151.28 22.3
-2 -20 -17 173.38 21.3
-2 20 -17 117.89 20
-4 -20 -17 300.47 31.2
-4 20 -17 329.17 32.6
-6 -20 -17 6.6 14.3
-6 20 -17 3.8 14.8
-8 -20 -17 270.97 29.2
-8 20 -17 322.27 32
-10 -20 -17 51.09 15.5
-10 20 -17 62.39 17.2
-11 21 17 9.4 21.9
-9 -21 17 -18 15.3
-9 21 17 4.7 20.4
-7 -21 17 17.8 16.1
-7 21 17 -4.5 19.7
-5 -21 17 458.55 40.9
-5 21 17 541.65 46.2
3 -21 -17 58.99 19.2
-3 -21 17 13.8 16.6
-3 21 17 11.1 19.1
-1 -21 17 70.09 18.4
1 -21 -17 47.1 17.7
1 -21 17 39.8 18.2
-1 -21 -17 29 16.6
-1 21 -17 55.99 21.5
-3 -21 -17 1157.88 77.39
-3 21 -17 1206.68 77.99
-5 -21 -17 -5.5 14.7
-5 21 -17 26.5 16.2
-7 -21 -17 0 14.3
-7 21 -17 18.3 15.8
-9 -21 -17 558.44 43.5
-9 21 -17 611.84 45.4
-11 21 -17 8.6 16
-10 22 17 41.2 23.3
-8 -22 17 500.65 39.8
-8 22 17 442.06 46.5
-6 -22 17 61.59 18.1
-6 22 17 62.79 22.2
-4 -22 17 -16 16.4
-4 22 17 -15 31.1
2 -22 -17 39.6 18.8
-2 -22 17 19.3 16.6
0 -22 -17 200.38 25.6
0 -22 17 211.58 25.6
-2 -22 -17 197.88 25.2
2 -22 17 234.58 27.4
-4 -22 -17 20.1 16.4
-4 22 -17 5.4 16.2
-6 -22 -17 -0.4 15.6
-6 22 -17 13.3 16.3
-8 -22 -17 192.88 22.9
-8 22 -17 215.98 24.7
-10 22 -17 8.2 16.2
-11 23 17 29.7 23.9
-9 -23 17 562.74 45.1
-9 23 17 485.25 50.09
-7 -23 17 80.49 19.5
-7 23 17 91.99 24.3
-5 -23 17 16.8 17
3 -23 -17 122.39 23.2
-3 -23 17 93.79 20.4
1 -23 -17 290.37 30.4
-1 -23 17 268.77 29.5
-1 -23 -17 28 17
1 -23 17 10.4 19
-3 -23 -17 39.9 18
-5 -23 -17 -2 15.9
-5 23 -17 3.1 16.5
-7 -23 -17 19.4 16.7
-7 23 -17 18.3 16.7
-9 23 -17 14.3 16.8
-10 24 17 -3.1 23.4
-8 -24 17 20.5 18
-8 24 17 42.4 24.1
-6 -24 17 -6.6 16.8
-4 -24 17 1.7 17
2 -24 -17 216.58 26.6
-2 -24 17 134.29 23.5
0 -24 17 258.47 31
0 -24 -17 358.56 36.1
-2 -24 -17 156.48 23.1
-4 -24 -17 26.6 17.1
-6 -24 -17 13.8 17.1
-6 24 -17 -12.9 16.7
-8 24 -17 22.9 18.2
-10 24 -17 73.39 20
-11 25 17 -0.9 25.1
-9 25 17 8.8 23.9
-7 -25 17 185.28 24.6
-5 -25 17 -13.6 17.5
-3 -25 17 87.39 21
1 -25 -17 21.9 18.6
-1 -25 17 -3.7 17.7
-1 -25 -17 8.1 17.7
-3 -25 -17 47.9 18.5
-5 -25 -17 51.59 19.3
-7 -25 -17 54.79 21.3
-7 25 -17 87.39 20.4
-9 25 -17 112.49 21.6
-10 26 17 5.9 24.7
-6 -26 17 47.8 20
-4 -26 17 60.59 19.8
-2 -26 17 -4.9 18
0 -26 -17 10.2 19
0 -26 17 26.8 20.3
-2 -26 -17 201.78 26.4
-4 -26 -17 7.2 18.3
-6 -26 -17 3.2 18.2
-8 26 -17 35.8 19.5
-5 -27 17 26.7 19.2
-3 -27 17 -0.2 18.3
1 -27 -17 41.3 21.4
-1 -27 17 17.6 19.5
-1 -27 -17 539.35 47.2
-3 -27 -17 44.6 20
-5 -27 -17 -0.2 18.4
-9 27 -17 45.8 21.1
-4 -28 17 29 19.9
-2 -28 17 7.9 20.3
0 -28 -17 9.4 20.5
-2 -28 -17 468.95 44.4
-4 -28 -17 9.1 19.3
-5 -29 17 24.5 20.7
-3 -29 17 -10.7 20
-1 -29 17 114.29 29.1
-1 -29 -17 -13.2 20
-3 -29 -17 34 20.6
-4 -30 17 17.1 20.6
-2 -30 17 48.4 22.1
0 -30 -17 -1.5 22.9
-2 -30 -17 28.4 22.5
-3 -31 17 -10.1 20.5
-1 -31 -17 14.5 22.6
-14 0 18 68.79 15.9
-12 0 18 14.3 14.4
-10 0 18 627.24 44.4
8 0 -18 1230.68 77.79
-8 0 18 1084.99 77.49
-8 0 18 1402.76 77.69
-6 0 18 409.76 30.4
6 0 -18 376.96 31.7
-6 0 18 398.76 31.6
4 0 -18 5043.1 297.67
-4 0 18 5185.98 297.77
-4 0 18 4887.51 297.27
2 0 -18 531.45 39.1
-2 0 18 611.14 38.7
-2 0 18 571.24 39.9
2 0 -18 542.25 39.7
0 0 -18 297.97 24.7
0 0 18 246.88 26
0 0 18 334.27 24.1
0 0 -18 265.07 25.4
2 0 18 7872.31 462.65
-4 0 -18 624.64 42.4
-4 0 -18 679.63 42.7
4 0 18 598.34 43.2
-6 0 -18 410.66 29.2
-6 0 -18 390.36 29
6 0 18 348.07 29.8
-8 0 -18 2710.13 159.58
-8 0 -18 2762.32 159.88
8 0 18 2568.64 159.98
-10 0 -18 37.7 10.8
-10 0 -18 56.09 11.7
-12 0 -18 334.27 26
-14 0 -18 18.9 9.9
-15 -1 18 30.1 15.1
-15 1 18 10.6 15.1
-13 -1 18 6.5 14.2
-13 1 18 -9 13.8
-11 -1 18 158.68 18.8
-11 1 18 138.59 19.1
-9 -1 18 -3.6 10.3
9 -1 -18 4.8 12.6
-9 -1 18 12.6 12.9
-9 1 18 9.2 13.2
9 1 -18 -7.9 12.4
-9 1 18 7.6 10.8
7 -1 -18 233.58 22.1
-7 -1 18 230.58 22.2
-7 -1 18 224.58 21.9
7 1 -18 214.18 23.7
-7 1 18 210.98 24.1
-7 1 18 223.58 22.7
5 -1 -18 144.59 17.5
-5 -1 18 120.19 17.1
-5 -1 18 153.58 16.1
-5 1 18 135.09 17
5 1 -18 134.89 17.1
-5 1 18 173.98 17
3 -1 -18 297.27 26.2
3 -1 -18 327.17 26.8
-3 -1 18 278.17 26.5
-3 -1 18 277.67 24.2
-3 1 18 323.47 24.7
3 1 -18 275.77 26
-3 1 18 284.37 27
-1 -1 18 2426.06 145.49
1 -1 -18 2478.95 145.79
-1 -1 18 2508.85 146.19
1 -1 -18 2461.95 145.89
1 1 -18 2352.66 145.79
1 1 -18 2438.46 145.69
-1 1 18 2372.36 145.39
-1 -1 -18 61.59 13
-1 -1 -18 84.89 12.8
1 -1 18 91.49 13
1 -1 18 67.89 14.5
1 1 18 87.69 12.9
-1 1 -18 65.59 13.3
-1 1 -18 73.49 13
1 1 18 87.59 14.5
-3 -1 -18 3841.12 231.48
3 -1 18 3872.61 231.68
-3 -1 -18 3834.32 231.28
3 1 18 3986.1 231.78
-3 1 -18 4143.49 231.68
-3 1 -18 3783.22 231.18
5 -1 18 4.9 11
-5 -1 -18 12.4 10.6
-5 -1 -18 -3.8 10.1
-5 1 -18 -8.1 10.4
-5 1 -18 1.4 9.7
5 1 18 3.3 11.3
-7 -1 -18 134.49 14.6
7 -1 18 114.29 15.5
-7 -1 -18 122.09 14.6
-7 1 -18 127.99 14.9
7 1 18 136.09 15.9
-7 1 -18 110.59 14.6
-9 -1 -18 246.88 21.6
-9 -1 -18 205.58 21.8
9 -1 18 216.28 23.5
-9 1 -18 230.68 22.3
9 1 18 272.17 23.7
-9 1 -18 256.27 22
-11 -1 -18 265.07 22.5
-11 -1 -18 257.67 24.2
-11 1 -18 252.97 22.9
-13 -1 -18 133.69 14.6
-13 1 -18 135.19 15.2
-15 1 -18 100.49 13.3
-14 -2 18 140.99 19.2
-14 2 18 159.08 20.5
-12 -2 18 33.7 14.2
-12 2 18 41.1 15
-10 -2 18 25.8 13.6
-10 2 18 32.5 13.9
-8 -2 18 19.6 12.9
8 -2 -18 22.9 12.7
-8 -2 18 6.5 10.5
-8 2 18 13 11
-8 2 18 -5.6 13
8 2 -18 14.2 12.5
6 -2 -18 299.37 27
-6 -2 18 261.57 27
-6 -2 18 324.27 25.3
-6 2 18 310.97 25.9
-6 2 18 266.87 27.5
6 2 -18 302.17 26.4
-4 -2 18 76.89 12.4
4 -2 -18 72.99 14.3
-4 -2 18 59.29 13.1
-4 2 18 44.1 13.3
4 2 -18 62.29 13.5
-4 2 18 90.39 13.1
2 -2 -18 1801.72 109.79
2 -2 -18 1694.83 109.49
-2 -2 18 1819.12 110.09
-2 -2 18 1958 109.39
-2 2 18 1784.72 109.99
2 2 -18 1662.83 109.39
2 2 -18 1806.92 109.79
-2 2 18 1935.91 109.49
0 -2 -18 6854.81 399.56
0 -2 18 6600.64 399.56
0 -2 -18 6573.04 399.36
0 2 18 6611.94 399.26
0 2 -18 7227.18 399.66
0 2 18 6877.81 399.66
2 -2 18 12.8 11.7
-2 -2 -18 7.5 9.9
-2 -2 -18 4.3 10.6
2 -2 18 9.3 10.5
2 2 18 0.5 10.8
-2 2 -18 5.9 10.6
-2 2 -18 3.4 9.2
-4 -2 -18 116.09 15.4
4 -2 18 143.29 16.3
-4 -2 -18 157.78 15.6
4 2 18 133.79 15.7
-4 2 -18 134.19 15.4
-4 2 -18 113.79 14.8
-6 -2 -18 748.93 47.6
-6 -2 -18 691.63 47.1
6 -2 18 725.53 48
-6 2 -18 726.03 47.6
6 2 18 716.13 47.8
-6 2 -18 739.13 47.3
8 -2 18 37.3 12.5
-8 -2 -18 34.5 11.3
-8 -2 -18 33.2 11.3
-8 2 -18 30.1 11.1
8 2 18 27.2 11.5
-8 2 -18 34.8 11.3
-10 -2 -18 4.4 9.7
-10 -2 -18 12.3 10
-10 2 -18 11.5 11.6
-10 2 -18 8.6 10.3
-12 -2 -18 558.54 37.6
-12 2 -18 575.14 38.5
-14 -2 -18 194.28 18
-14 2 -18 182.98 20
-15 -3 18 534.35 39
-15 3 18 489.85 40.6
-13 -3 18 -5.5 13.5
-13 3 18 14.4 14.5
-11 -3 18 90.69 16.4
-11 3 18 89.79 16.9
-9 -3 18 19.7 10.6
-9 -3 18 4.6 13.1
9 -3 -18 23.9 20.2
-9 3 18 26.1 13.6
-9 3 18 7.5 16.2
9 3 -18 26.6 13.2
-7 -3 18 296.77 27.4
-7 -3 18 308.97 25.2
7 -3 -18 304.57 27.4
7 3 -18 331.17 27.1
-7 3 18 240.88 27.6
-7 3 18 283.87 25.7
-5 -3 18 38 12.9
-5 -3 18 9 10
5 -3 -18 25.2 12.8
-5 3 18 11.9 12.6
5 3 -18 15.7 11.9
-5 3 18 1.2 10.3
-3 -3 18 5.1 9.1
-3 -3 18 12.9 12.1
3 -3 -18 -1.7 11.4
3 -3 -18 8.1 11.7
3 3 -18 -11 11.2
-3 3 18 9.7 9.7
-3 3 18 27 12.3
1 -3 -18 6385.86 370.16
1 -3 -18 6232.08 370.16
-1 -3 18 5807.62 369.96
1 3 -18 6269.07 370.06
1 3 -18 6421.16 370.06
-1 3 18 6595.54 370.06
1 -3 18 429.46 32.9
-1 -3 -18 456.15 32.5
1 -3 18 411.06 31.4
-1 -3 -18 472.55 32.5
-1 3 -18 450.55 32
1 3 18 420.26 31.9
-1 3 -18 423.66 32.3
1 3 18 426.16 33.3
3 -3 18 535.15 40.6
-3 -3 -18 595.84 40.4
-3 -3 -18 577.34 40.3
-3 3 -18 620.04 40.3
3 3 18 565.24 41.1
-3 3 -18 639.84 40.3
-5 -3 -18 230.38 21.7
-5 -3 -18 196.98 21.3
5 -3 18 213.38 22.6
-5 3 -18 225.18 21.4
-5 3 -18 261.97 21.5
5 3 18 203.18 20.3
-7 -3 -18 1095.39 69.79
7 -3 18 1098.49 70.49
-7 -3 -18 1124.29 69.49
7 3 18 1090.29 70.09
-7 3 -18 1147.29 69.79
-7 3 -18 1180.58 70.39
-9 -3 -18 25.2 10.9
9 -3 18 31 12.8
-9 -3 -18 30.2 10.8
-9 3 -18 32.6 10.9
-9 3 -18 20.1 11
9 3 18 13.2 11.7
-11 -3 -18 255.27 22.7
-11 -3 -18 279.67 22.9
-11 3 -18 288.77 23.9
-13 -3 -18 321.17 23.4
-13 3 -18 272.17 24.9
-15 3 -18 -11.7 10.7
-14 -4 18 9.3 13.7
-14 4 18 11.7 15.4
-12 -4 18 2.4 13.1
-12 4 18 9 14.5
-10 -4 18 2.1 12.7
-10 4 18 -6.4 13.6
-8 -4 18 2009.4 115.59
-8 -4 18 1805.92 115.79
8 -4 -18 2008.2 116.79
-8 4 18 1743.53 116.19
8 4 -18 1857.71 115.89
-8 4 18 2009.6 116.49
-6 -4 18 55.39 14.3
-6 -4 18 64.29 12.2
6 -4 -18 43.3 13.3
6 4 -18 56.29 13.2
-6 4 18 53.19 12.7
-6 4 18 59.49 14.2
4 -4 -18 15.8 12.5
-4 -4 18 4 11.9
-4 -4 18 8.9 9.6
4 4 -18 -0.1 11.9
-4 4 18 -18.5 11.9
-4 4 18 0.1 10
2 -4 -18 209.48 21.3
-2 -4 18 175.78 19.6
-2 -4 18 221.98 22.5
2 -4 -18 191.68 19
-2 4 18 226.28 23.5
-2 4 18 166.88 17.7
2 4 -18 161.88 18
2 4 -18 214.28 21.2
0 -4 -18 186.38 20.1
0 -4 18 158.18 17.6
0 -4 18 195.08 18.6
0 -4 -18 128.69 17.2
0 4 -18 159.58 17.1
0 4 18 180.58 19.7
0 4 -18 218.28 20.2
0 4 18 189.88 19.2
-2 -4 -18 -0.7 11
2 -4 18 -4.8 11.2
2 -4 18 -32.8 10.8
-2 -4 -18 -3.6 10.2
-2 4 -18 3.8 10.2
2 4 18 -6.5 11.9
-2 4 -18 -4.1 10.8
-4 -4 -18 117.49 14.9
4 -4 18 142.79 15.8
-4 -4 -18 141.59 15.2
4 4 18 155.48 16.4
-4 4 -18 121.59 15.1
-4 4 -18 92.29 14
6 -4 18 1407.96 90.59
-6 -4 -18 1476.65 90.19
-6 -4 -18 1509.45 89.99
6 4 18 1353.46 90.09
-6 4 -18 1562.34 90.69
-6 4 -18 1539.25 90.19
-8 -4 -18 186.78 19.4
8 -4 18 191.68 19.2
-8 -4 -18 181.28 17.2
-8 4 -18 169.38 17.3
-8 4 -18 184.68 20.4
8 4 18 151.88 17.4
-10 -4 -18 5.2 9.8
-10 -4 -18 -4.6 9.5
-10 4 -18 6.9 10.8
-12 -4 -18 102.59 13
-12 4 -18 101.29 14.1
-14 4 -18 99.09 14.3
-15 -5 18 99.59 16.7
-15 5 18 87.39 28.7
-13 -5 18 -12.4 13.2
-13 5 18 -20.2 14.4
-11 -5 18 741.43 49.6
-11 5 18 718.43 51.19
-9 -5 18 307.17 28
-9 -5 18 312.97 25.4
-9 5 18 265.37 29.2
-7 -5 18 214.18 21.7
-7 -5 18 191.78 21.5
7 -5 -18 234.98 22.5
-7 5 18 213.18 23.4
7 5 -18 219.18 21.3
-7 5 18 245.58 23.4
-5 -5 18 612.84 41.6
-5 -5 18 600.64 40.1
5 -5 -18 573.34 41.7
5 5 -18 567.94 41.4
-5 5 18 595.54 42.5
-5 5 18 575.94 40.7
-3 -5 18 226.48 23.9
-3 -5 18 232.08 21
3 -5 -18 220.28 23.4
3 -5 -18 224.88 23.6
-3 5 18 249.18 24.6
-3 5 18 195.88 21.7
3 5 -18 222.88 22.9
1 -5 -18 5198.58 313.47
-1 -5 18 5282.47 312.97
-1 -5 18 5574.24 313.57
1 -5 -18 5478.15 313.47
-1 5 18 5225.48 313.57
-1 5 18 5180.28 313.17
1 5 -18 5016.3 313.07
1 5 -18 5525.95 313.37
1 -5 18 21.4 12.3
1 -5 18 7.4 9.7
-1 -5 -18 5.9 10.4
-1 -5 -18 1 11.7
-1 5 -18 11.2 10.8
1 5 18 16.4 12.1
-1 5 -18 6.9 10.9
3 -5 18 975.4 64.59
-3 -5 -18 995.8 63.99
-3 -5 -18 1059.89 64.59
3 5 18 992.2 64.39
-3 5 -18 1009 64.29
-3 5 -18 1086.69 64.59
-5 -5 -18 -3.1 10.6
5 -5 18 1.9 11.1
-5 -5 -18 18 10.7
-5 5 -18 -2.4 10.4
-5 5 -18 0.3 10.5
5 5 18 21.5 11.4
7 -5 18 126.99 16.2
-7 -5 -18 123.09 15.1
-7 -5 -18 131.69 15
-7 5 -18 150.48 15.9
-7 5 -18 131.39 15.3
7 5 18 113.79 14.9
-9 -5 -18 929.41 55.19
-9 -5 -18 831.92 55.29
-9 5 -18 915.71 55.79
9 5 18 804.12 55.59
-11 -5 -18 43.3 10.6
-11 -5 -18 34.7 10.8
-11 5 -18 22.5 11.6
-13 -5 -18 8 8.7
-13 5 -18 16.7 11.4
-14 -6 18 32.3 13.9
-14 6 18 -0.1 15.8
-12 -6 18 627.74 45.9
-12 6 18 709.23 48.7
-10 -6 18 845.02 53.39
-10 6 18 739.13 54.29
-8 -6 18 -2.3 10
8 -6 -18 19.6 14.1
-8 -6 18 -0.4 12.5
-8 6 18 6.5 11.8
8 6 -18 3.2 12.4
-8 6 18 7.5 13.5
-6 -6 18 273.47 24.2
-6 -6 18 295.27 27.1
6 -6 -18 255.87 27
-6 6 18 302.17 26.5
-6 6 18 293.57 27.8
6 6 -18 246.38 26.2
4 -6 -18 877.91 57.29
-4 -6 18 820.22 55.59
-4 -6 18 897.81 56.99
-4 6 18 846.62 56.49
-4 6 18 882.11 57.79
4 6 -18 909.51 56.69
2 -6 -18 45.5 12.8
2 -6 -18 63.99 13.2
-2 -6 18 69.49 13.5
-2 -6 18 37.4 10.5
-2 6 18 42.8 11.5
2 6 -18 34 11.8
-2 6 18 40.5 13.8
0 -6 -18 850.81 54.49
0 -6 -18 815.42 54.29
0 -6 18 832.02 54.79
0 -6 18 884.71 53.59
0 6 -18 839.12 54.39
0 6 -18 823.12 53.99
0 6 18 771.42 54.89
0 6 18 857.91 54.19
2 -6 18 1293.47 76.99
-2 -6 -18 1237.68 76.49
-2 -6 -18 1262.27 76.49
-2 6 -18 1259.27 76.49
-2 6 -18 1112.39 76.09
2 6 18 1211.58 76.79
-4 -6 -18 14 11.2
4 -6 18 13.1 11.6
-4 -6 -18 4.9 10.5
-4 6 -18 12.8 10.7
-4 6 -18 -11.2 10.3
4 6 18 13 11.5
6 -6 18 245.78 25.7
-6 -6 -18 256.57 23.9
-6 -6 -18 255.67 24.4
-6 6 -18 260.27 24.2
6 6 18 263.57 24.3
-6 6 -18 308.57 24.4
-8 -6 -18 246.18 22.1
-8 -6 -18 227.08 21.5
8 -6 18 229.18 21.9
8 6 18 227.08 20.7
-8 6 -18 221.98 22.8
-8 6 -18 211.48 22.4
-10 -6 -18 3321.97 198.08
-10 -6 -18 3260.87 198.38
-10 6 -18 3466.65 198.98
-12 -6 -18 156.78 15
-12 6 -18 159.38 17.1
-14 6 -18 -4.8 11.2
-15 -7 18 6 13.5
-13 -7 18 -5.5 12.7
-13 7 18 -7 15.6
-11 -7 18 735.73 49.7
-11 7 18 710.13 51.69
-9 -7 18 127.39 17.1
-9 7 18 121.69 18.6
-7 -7 18 50.49 11.6
-7 -7 18 59.39 14.5
7 -7 -18 39.8 15
7 7 -18 50.49 13.7
-7 7 18 56.69 13.7
-7 7 18 45.2 15
-5 -7 18 450.75 31.4
-5 -7 18 388.36 33
5 -7 -18 434.26 34
-5 7 18 395.86 32.6
5 7 -18 421.46 32.2
-5 7 18 418.96 34.7
-3 -7 18 19.5 12.2
-3 -7 18 13.8 9.6
3 -7 -18 5.5 12.5
3 -7 -18 4.3 11.8
-3 7 18 32.2 10.8
-3 7 18 1 12.6
3 7 -18 16.3 11.8
-1 -7 18 552.54 40.3
-1 -7 18 633.54 39.2
1 -7 -18 628.04 40.6
1 -7 -18 581.14 40.8
1 7 -18 525.45 39.9
-1 7 18 534.05 39.7
-1 7 18 504.75 40.9
1 7 -18 616.04 40.3
1 -7 18 968.9 61.49
-1 -7 -18 1042.6 62.59
-1 -7 -18 933.81 62.29
1 -7 18 988.1 62.89
1 7 18 908.01 62.79
-1 7 -18 977.7 62.19
-1 7 -18 1022.8 62.49
-3 -7 -18 627.24 43.5
3 -7 18 639.94 44.3
-3 -7 -18 646.74 43.2
-3 7 -18 651.83 43.6
-3 7 -18 617.34 43.4
3 7 18 649.54 43.9
-5 -7 -18 59.39 12.7
-5 -7 -18 85.59 13.5
5 -7 18 75.29 14.7
-5 7 -18 58.99 12.9
5 7 18 67.89 13.5
-5 7 -18 46.7 12.5
-7 -7 -18 -2.9 10.8
7 -7 18 6.6 12.6
-7 -7 -18 -9.5 10.4
-7 7 -18 9.4 11
-7 7 -18 1.1 10.8
7 7 18 3.4 11.4
-9 -7 -18 1269.87 78.59
-9 -7 -18 1290.87 78.09
-9 7 -18 1349.16 78.99
9 7 18 1182.38 78.69
-11 -7 -18 109.29 15.3
-11 -7 -18 110.49 13.4
-11 7 -18 110.19 15
-13 7 -18 135.59 16.6
-14 -8 18 15.1 13.8
-14 8 18 26.8 17.1
-12 -8 18 55.19 15.5
-12 8 18 76.69 18
-10 -8 18 5.9 13
-10 8 18 22.9 15.6
-8 -8 18 2149.58 146.29
-8 -8 18 2695.83 146.29
8 -8 -18 2561.24 149.19
8 8 -18 2637.34 147.19
-8 8 18 2135.19 147.29
6 -8 -18 -4.8 13.1
-6 -8 18 17.9 12.9
-6 -8 18 14.6 9.8
-6 8 18 4.2 13.6
6 8 -18 -1 11.6
-6 8 18 18 11.7
-4 -8 18 1794.12 111.39
4 -8 -18 1763.22 112.79
-4 -8 18 1847.12 112.19
-4 8 18 1888.31 112.49
-4 8 18 1862.21 113.39
4 8 -18 1893.11 112.09
2 -8 -18 778.22 48.9
-2 -8 18 714.43 47.3
2 -8 -18 718.53 49.3
-2 -8 18 725.93 48.8
2 8 -18 703.63 48.4
-2 8 18 709.23 48.3
-2 8 18 724.73 49.99
0 -8 18 265.57 26.4
0 -8 -18 266.07 25.4
0 -8 18 280.47 23.7
0 -8 -18 283.37 26.4
0 8 -18 269.77 25.1
0 8 -18 282.67 25.1
0 8 18 284.57 27
-2 -8 -18 260.67 24.5
2 -8 18 252.87 25.5
-2 -8 -18 240.58 24.3
2 8 18 238.68 25.4
-2 8 -18 258.57 24.4
-2 8 -18 257.97 24.6
4 -8 18 15.5 13.1
-4 -8 -18 27.5 11.6
-4 -8 -18 13 11.1
4 8 18 10 12.2
-4 8 -18 11.8 11.6
-4 8 -18 10.8 11
6 -8 18 924.11 58.49
-6 -8 -18 890.31 56.59
-6 -8 -18 852.61 56.89
-6 8 -18 864.11 57.69
6 8 18 839.02 56.99
-6 8 -18 931.61 57.19
-8 -8 -18 36.7 11.2
-8 -8 -18 37.8 12.2
-8 8 -18 19.2 11.9
8 8 18 22.7 12.3
-10 -8 -18 109.29 14.2
-10 -8 -18 184.98 19.1
-10 8 -18 95.39 15.2
-12 -8 -18 67.49 11.4
-12 8 -18 74.99 13.7
-14 8 -18 88.59 14.8
-13 -9 18 -7.5 13.3
-13 9 18 -15.2 15.3
-11 -9 18 163.88 20
-11 9 18 207.58 23.4
-9 -9 18 197.28 21.5
-9 9 18 203.28 23.6
-7 -9 18 87.99 12.9
7 -9 -18 84.49 16.8
-7 -9 18 89.69 15.8
7 9 -18 77.09 14.9
-7 9 18 67.39 15.1
-7 9 18 48 16
-5 -9 18 1006.1 64.69
-5 -9 18 1025.1 65.99
5 -9 -18 991.4 67.29
-5 9 18 1006.3 67.29
5 9 -18 1054.59 65.69
-5 9 18 1082.59 66.79
3 -9 -18 118.99 17.2
-3 -9 18 80.29 15.8
-3 -9 18 149.29 15.4
-3 9 18 130.59 16.2
3 9 -18 108.39 15.4
-3 9 18 93.89 16.8
1 -9 -18 28.5 12.7
-1 -9 18 8.1 12.2
1 -9 -18 19.7 11.7
-1 -9 18 9.7 9.7
-1 9 18 17.3 11.5
1 9 -18 15.7 11.8
-1 9 18 -9.3 13.5
1 -9 18 284.37 23.3
-1 -9 -18 214.18 24.8
-1 -9 -18 274.17 24.3
1 -9 18 248.88 25.6
-1 9 -18 217.48 24.8
1 9 18 230.18 26
-1 9 -18 263.87 24.3
-3 -9 -18 288.57 26
3 -9 18 275.07 27.1
-3 -9 -18 270.37 25.6
-3 9 -18 305.37 25.6
3 9 18 276.27 26.7
-3 9 -18 247.38 25.8
5 -9 18 1.1 12.9
-5 -9 -18 6.1 11
-5 -9 -18 -3.8 11.1
5 9 18 3.1 11.9
-5 9 -18 -7.3 11.7
-5 9 -18 5.7 11.6
-7 -9 -18 380.86 28.4
7 -9 18 360.26 31.2
-7 -9 -18 330.57 28.8
-7 9 -18 375.26 29.2
-7 9 -18 325.97 30.2
7 9 18 343.57 29.5
-9 -9 -18 360.96 28.4
-9 -9 -18 371.06 29.7
-9 9 -18 360.26 29.9
-11 -9 -18 51.49 11.1
-11 9 -18 44.7 13.2
-13 -9 -18 172.88 17.5
-13 9 -18 180.38 19.1
-14 -10 18 -1.2 13.8
-14 10 18 -7.4 16.7
-12 -10 18 11.7 13.8
-12 10 18 -7 16.3
-10 -10 18 -8.7 13.5
-10 10 18 15.4 15.9
-8 -10 18 765.52 53.49
-8 10 18 836.02 56.09
-6 -10 18 9.8 10
6 -10 -18 12.4 13.9
-6 -10 18 48.3 13.5
-6 10 18 39.2 15.5
6 10 -18 28.1 12.9
-6 10 18 27.9 13.4
-4 -10 18 26.9 13.5
4 -10 -18 48.5 15.4
-4 -10 18 51.79 11.6
-4 10 18 43.6 13.2
-4 10 18 34.3 15.1
4 10 -18 24.7 12.5
2 -10 -18 -4.6 11.6
-2 -10 18 6.8 9.8
2 -10 -18 19.8 13.3
-2 -10 18 15.2 12.9
-2 10 18 -9.3 13.5
2 10 -18 15.8 12.2
-2 10 18 -1.9 11
0 -10 -18 19 11.9
0 -10 18 23.5 10.5
0 -10 18 13.3 13
0 -10 -18 18.8 13.3
0 10 18 23.9 13.7
0 10 -18 39.3 12.3
0 10 -18 42.5 12.7
-2 -10 -18 23.2 12.5
-2 -10 -18 25.5 12.8
2 -10 18 58.49 14.7
2 10 18 56.29 14.8
-2 10 -18 52.29 13.2
-2 10 -18 49.7 13.8
4 -10 18 27.5 14.1
-4 -10 -18 39 12.5
-4 -10 -18 39 12.9
4 10 18 48.1 13.9
-4 10 -18 46.3 13.2
-4 10 -18 35 12.6
-6 -10 -18 323.17 27.7
6 -10 18 344.87 30.2
-6 -10 -18 318.87 27.1
6 10 18 277.87 28
-6 10 -18 291.47 27.5
-6 10 -18 316.07 28.5
-8 -10 -18 49.6 13.4
-8 -10 -18 58.89 12.8
-8 10 -18 75.99 13.9
-10 -10 -18 4.5 10.6
-10 10 -18 -1.2 11.9
-12 -10 -18 25.1 10.6
-12 10 -18 43.3 13.4
-13 -11 18 -10.3 13.4
-13 11 18 -8.4 17
-11 -11 18 0.2 14.3
-11 11 18 30.8 17
-9 -11 18 604.44 44.3
-9 11 18 652.63 47.8
7 -11 -18 2650.93 156.38
-7 -11 18 2495.45 154.28
-7 11 18 2554.84 156.08
-5 -11 18 87.69 15.8
-5 -11 18 151.08 15.6
5 -11 -18 112.09 18.4
5 11 -18 104.59 16.4
-5 11 18 94.39 17.8
-5 11 18 118.49 17.2
3 -11 -18 161.28 19.7
-3 -11 18 204.58 19.8
-3 -11 18 123.99 18.1
-3 11 18 124.19 19
3 11 -18 162.68 18.1
-3 11 18 163.18 18.3
-1 -11 18 83.39 15.9
-1 -11 18 82.09 13.2
1 -11 -18 49 15.3
1 -11 -18 94.09 15.6
1 11 -18 65.69 14.6
-1 11 18 88.99 16.5
1 -11 18 14.9 12.8
-1 -11 -18 16.6 12.2
1 -11 18 7.2 10
-1 -11 -18 29.6 13.9
-1 11 -18 19 12.4
-1 11 -18 27.9 12.6
1 11 18 7.1 13.8
-3 -11 -18 171.48 19
-3 -11 -18 177.18 18.9
3 -11 18 180.58 20.4
-3 11 -18 176.58 19.2
-3 11 -18 141.79 18.3
3 11 18 188.98 20.2
-5 -11 -18 39.2 13.1
5 -11 18 12.5 13.8
-5 -11 -18 29.8 12.4
-5 11 -18 14.2 12.7
5 11 18 28.5 14.1
-5 11 -18 21.5 12.9
-7 -11 -18 1295.47 83.99
-7 -11 -18 1369.86 83.39
-7 11 -18 1379.46 84.29
-9 -11 -18 9.3 11.5
-9 11 -18 62.19 13.6
-11 -11 -18 132.99 14.8
-11 11 -18 103.89 16.3
-13 -11 -18 852.81 52.99
-13 11 -18 837.72 55.69
-12 -12 18 99.89 17.8
-12 12 18 92.29 20.5
-10 -12 18 204.38 22
-10 12 18 228.88 25.3
-8 -12 18 2306.97 134.69
-8 12 18 2126.49 136.69
-6 -12 18 -3 13
6 -12 -18 4 14.8
6 12 -18 5.6 12.9
-6 12 18 -1.6 14.8
-6 12 18 19.2 12.7
-4 -12 18 486.35 30.7
-4 -12 18 327.27 31.8
4 -12 -18 358.46 33.6
-4 12 18 384.06 32.1
-4 12 18 289.97 33.8
4 12 -18 411.16 32.1
-2 -12 18 454.15 35.8
2 -12 -18 468.35 36.3
-2 -12 18 512.25 34.1
2 -12 -18 411.96 35.5
-2 12 18 411.26 36.9
2 12 -18 439.46 34.8
0 -12 -18 1.7 13.3
0 -12 18 14.8 10.7
0 -12 18 4.9 13.3
0 -12 -18 3.6 12.4
0 12 18 8.6 13.2
0 12 -18 -4.8 12.2
2 -12 18 952.4 66.09
-2 -12 -18 1062.89 65.59
-2 -12 -18 970.9 65.49
-2 12 -18 1006.8 65.59
2 12 18 1028.8 66.19
-2 12 -18 1041.1 65.39
4 -12 18 33.5 14.5
-4 -12 -18 18.1 13
-4 -12 -18 24.2 12.4
-4 12 -18 36.3 13.3
-4 12 -18 34.5 13.2
4 12 18 36.7 14.3
-6 -12 -18 926.51 60.19
-6 -12 -18 970 61.09
6 -12 18 950.7 62.79
-6 12 -18 918.01 60.69
6 12 18 896.21 61.19
-8 -12 -18 251.57 23.7
-8 12 -18 217.28 22.6
-10 -12 -18 287.17 25.6
-10 12 -18 304.17 28.1
-12 -12 -18 165.88 17
-12 12 -18 179.08 19.4
-13 -13 18 28.9 15.5
-13 13 18 2.9 18
-11 -13 18 1526.35 92.99
-11 13 18 1452.05 96.19
-9 -13 18 13.8 13.9
-9 13 18 16.7 16.9
-7 -13 18 53.19 14.8
-7 13 18 16.4 16.3
5 -13 -18 646.54 46.2
-5 -13 18 614.24 42.7
-5 -13 18 573.14 43.6
-5 13 18 547.45 46.2
-5 13 18 626.54 44.8
5 13 -18 656.73 44.4
-3 -13 18 192.08 21.4
3 -13 -18 192.58 21.9
-3 -13 18 173.88 20.9
3 13 -18 191.68 20.3
-3 13 18 208.18 21.3
-3 13 18 168.08 21.8
-1 -13 18 177.68 17.3
1 -13 -18 92.29 17.8
1 -13 -18 102.19 18.2
-1 -13 18 122.19 17.9
-1 13 18 105.49 18.3
1 13 -18 142.39 18
1 -13 18 1540.75 89.99
-1 -13 -18 1495.05 90.49
1 -13 18 1332.27 90.09
-1 -13 -18 1428.56 90.09
1 13 18 1424.06 90.69
-1 13 -18 1363.76 89.49
-1 13 -18 1484.15 90.69
-3 -13 -18 33.9 13.3
3 -13 18 40.2 14.7
-3 -13 -18 39.2 14.2
-3 13 -18 10.6 13.1
3 13 18 12 13.9
-3 13 -18 27.8 13.1
-5 -13 -18 2.8 12.9
-5 -13 -18 -10 12.2
5 -13 18 2.6 14.7
-5 13 -18 0.2 12.7
-5 13 -18 -2.5 12.7
5 13 18 -0.3 13.5
-7 -13 -18 33 12.7
-7 13 -18 18.6 13.5
-9 -13 -18 2152.08 126.49
-9 13 -18 2037.3 127.39
-11 -13 -18 194.18 21.8
-11 13 -18 228.68 24.8
-13 -13 -18 64.59 12
-13 13 -18 53.69 14.5
-12 -14 18 488.15 39.4
-12 14 18 525.25 44.9
-10 -14 18 242.18 26.8
-10 14 18 239.28 27.7
-8 -14 18 -6 13.6
-8 14 18 -3.1 15.8
-6 -14 18 5.5 13.9
6 -14 -18 15.8 16
-6 14 18 7.2 16.5
-4 -14 18 1696.33 97.49
4 -14 -18 1605.54 99.29
-4 -14 18 1456.15 97.49
4 14 -18 1639.74 98.09
-4 14 18 1342.97 98.89
-4 14 18 1697.53 99.09
-2 -14 18 19 11.3
2 -14 -18 8.7 14.3
-2 -14 18 5.3 13.8
2 -14 -18 19.2 13.7
-2 14 18 27.7 15.3
2 14 -18 -6.1 13.2
0 -14 -18 220.18 23.1
0 -14 18 198.98 23.2
0 -14 18 269.77 23.7
0 -14 -18 220.78 22.6
0 14 18 189.08 23.2
0 14 -18 218.38 22
2 -14 18 26.2 15
-2 -14 -18 6.9 13.2
-2 -14 -18 16.4 13.6
-2 14 -18 19.6 13.1
2 14 18 19.6 14.6
-2 14 -18 -2.9 13.1
-4 -14 -18 336.37 30.3
4 -14 18 367.26 33.5
-4 -14 -18 365.66 39
-4 14 -18 336.57 30.9
4 14 18 366.86 33
-4 14 -18 322.67 31
-6 -14 -18 57.19 14.1
-6 14 -18 1.3 13.3
-8 -14 -18 27.4 12.8
-8 14 -18 19.9 13.8
-10 -14 -18 1394.26 90.59
-10 14 -18 1566.74 92.39
-12 -14 -18 103.59 14.8
-12 14 -18 98.79 16.9
-13 15 18 22.9 19.8
-11 -15 18 208.78 22.7
-11 15 18 200.38 27.2
-9 -15 18 285.07 30
-9 15 18 326.97 35.2
-7 -15 18 210.68 21.7
-7 15 18 170.58 24
5 -15 -18 189.88 23.1
-5 -15 18 230.08 22.4
-5 15 18 139.79 22.5
-3 -15 18 67.09 13.8
-3 -15 18 81.29 16.5
3 -15 -18 43.1 16
-3 15 18 90.99 19.4
3 15 -18 79.19 15.9
1 -15 -18 341.87 33.5
-1 -15 18 418.26 30.7
-1 -15 18 388.96 33.3
1 -15 -18 329.97 33.2
1 15 -18 368.36 32.5
-1 15 18 346.27 35.2
1 -15 18 72.79 17.1
-1 -15 -18 81.59 17
-1 -15 -18 82.49 16.8
1 15 18 75.49 17.8
-1 15 -18 53.49 15.2
3 -15 18 959.9 65.09
-3 -15 -18 943.61 63.89
3 15 18 905.91 65.29
-3 15 -18 988.7 64.59
-3 15 -18 1040.6 64.09
5 -15 18 15.6 15.7
-5 -15 -18 -1.9 12.8
-5 15 -18 -0.5 13.2
-7 -15 -18 778.32 51.59
-7 15 -18 753.82 52.59
-9 -15 -18 32.9 13.3
-9 15 -18 70.79 16
-11 -15 -18 -5.5 11.8
-11 15 -18 0.8 13.7
-13 -15 -18 6.9 11.3
-12 -16 18 15.7 15.2
-12 16 18 2.9 19
-10 -16 18 -4 14.4
-10 16 18 -3.6 17.9
-8 -16 18 425.66 34.6
-8 16 18 379.86 39.5
-6 -16 18 6.5 14.1
-6 16 18 -11.7 16.1
-4 -16 18 52.29 16.1
4 -16 -18 41.2 16.5
-4 16 18 16.2 17.8
-2 -16 18 15.7 12.4
-2 -16 18 -2.6 14.3
2 -16 -18 2.9 14.6
-2 16 18 38 16.3
2 16 -18 3 14.4
0 -16 -18 438.06 36.1
0 -16 18 434.36 32.8
0 -16 -18 415.16 35.5
0 -16 18 386.56 35.5
0 16 18 393.16 37
0 16 -18 354.06 34.1
-2 -16 -18 -2.7 13.3
2 -16 18 11.8 15
-2 16 -18 9.6 13.7
2 16 18 14.1 16
-4 -16 -18 127.69 17.9
4 -16 18 116.59 20.8
-4 16 -18 116.29 17.7
-6 -16 -18 708.33 48.1
-6 16 -18 667.83 48.7
-8 -16 -18 -2 12.9
-8 16 -18 20.2 14
-10 -16 -18 68.59 14.8
-10 16 -18 75.79 16.5
-12 -16 -18 18.9 12.7
-12 16 -18 19.7 15.1
-13 17 18 14.5 33.4
-11 -17 18 85.39 17.7
-11 17 18 82.59 21.9
-9 -17 18 65.09 16.2
-9 17 18 107.09 22
-7 -17 18 -7.1 14.4
-7 17 18 5 17.2
-5 -17 18 53.59 15.9
5 -17 -18 32 17.7
-5 17 18 31.4 17.4
3 -17 -18 54.89 16.8
-3 -17 18 66.89 16.2
-3 17 18 25.2 17.5
1 -17 -18 3887.21 232.58
1 -17 -18 3649.03 231.58
-1 -17 18 3741.83 231.48
-1 17 18 3729.83 232.48
1 17 -18 4343.67 231.88
1 -17 18 -8.6 15.1
-1 -17 -18 3.1 14.2
-1 17 -18 11.1 13.9
1 17 18 18.3 16.9
3 -17 18 76.39 18.8
-3 -17 -18 126.99 17.8
-3 17 -18 76.09 16.3
-5 -17 -18 2.7 13.6
-5 17 -18 25.3 13.8
-7 -17 -18 148.99 18.8
-7 17 -18 130.19 19
-9 -17 -18 74.99 15.2
-9 17 -18 69.89 17.1
-11 -17 -18 257.17 24.9
-11 17 -18 215.58 24
-12 18 18 -34.6 19.2
-10 -18 18 16 15.3
-10 18 18 23 19.6
-8 -18 18 163.98 21
-8 18 18 158.88 24.8
-6 -18 18 2.3 15.2
-6 18 18 12.5 17.6
4 -18 -18 112.49 20.4
-4 -18 18 115.79 18.9
-4 18 18 87.89 21.1
-2 -18 18 585.04 47.2
2 -18 -18 709.43 49.2
-2 18 18 626.44 49.7
0 -18 -18 1188.38 83.99
0 -18 18 1291.07 84.59
0 18 -18 1493.25 84.59
0 18 18 1267.87 85.89
-2 -18 -18 311.07 31
2 -18 18 268.47 28.5
-2 18 -18 299.87 30.2
-4 -18 -18 71.59 16.9
-4 18 -18 79.69 16.7
-6 -18 -18 15.4 14.7
-6 18 -18 48.9 15.8
-8 -18 -18 56.89 15.1
-8 18 -18 49.8 16.2
-10 -18 -18 12.8 13.4
-10 18 -18 16.5 15.2
-12 18 -18 217.68 26.2
-11 -19 18 70.69 19.5
-11 19 18 110.69 23.9
-9 -19 18 0.8 15.2
-9 19 18 14.8 18.9
-7 -19 18 58.59 16.9
-7 19 18 28.1 20.3
-5 -19 18 18.2 16.3
-5 19 18 -21.7 17.5
3 -19 -18 226.18 26.7
-3 -19 18 233.78 24.4
-3 19 18 196.78 26.5
1 -19 -18 156.78 22
-1 -19 18 157.98 21.9
-1 19 18 146.19 23.8
-1 -19 -18 110.89 19.8
1 -19 18 148.29 22
-1 19 -18 140.59 20.5
-3 -19 -18 1888.81 117.29
3 -19 18 1858.31 118.99
-3 19 -18 1922.11 117.29
-5 -19 -18 -0.2 14.5
-5 19 -18 -5.2 14.5
-7 -19 -18 -1.2 14
-7 19 -18 -5.8 14.3
-9 -19 -18 203.78 21.9
-9 19 -18 174.28 22.1
-11 19 -18 57.19 17
-12 20 18 4 20.6
-10 -20 18 141.59 20.1
-10 20 18 95.69 24.3
-8 -20 18 86.89 18.2
-8 20 18 76.79 22.3
-6 -20 18 83.29 18.6
-6 20 18 68.99 21.8
-4 -20 18 480.35 40.9
4 -20 -18 579.74 44.6
-4 20 18 428.56 44.8
2 -20 -18 22.5 17.4
-2 -20 18 28.7 16.9
-2 20 18 14.9 21.8
0 -20 -18 -3.8 15.3
0 -20 18 28.9 16.5
-2 -20 -18 1335.47 86.59
2 -20 18 1269.47 88.09
-2 20 -18 1421.26 86.89
-4 -20 -18 12.1 15.4
-4 20 -18 12.5 15.6
-6 -20 -18 162.38 20.5
-6 20 -18 122.19 20.4
-8 -20 -18 337.77 31.7
-8 20 -18 321.87 32.9
-10 -20 -18 22.1 14.7
-10 20 -18 0.6 15.3
-11 21 18 -26.5 20.7
-9 -21 18 17.7 16.9
-9 21 18 31.2 21.6
-7 -21 18 20.8 16.2
-7 21 18 26.6 21.2
-5 -21 18 16 16.8
-5 21 18 24.4 20
-3 -21 18 9.7 16.2
3 -21 -18 20.3 18.4
-1 -21 18 211.88 26
1 -21 -18 300.47 32.1
-1 -21 -18 88.39 18.5
1 -21 18 56.69 20.1
-3 -21 -18 13.6 16.2
-3 21 -18 41.3 16.8
-5 -21 -18 -4.8 15.2
-5 21 -18 -19 15
-7 -21 -18 20.3 15.2
-7 21 -18 -2.1 15.5
-9 -21 -18 -2.9 14.6
-9 21 -18 23.6 16.4
-11 21 -18 81.99 18.7
-10 22 18 67.19 23.8
-8 -22 18 36.1 17.8
-8 22 18 42 22.2
-6 -22 18 113.19 20.8
-6 22 18 107.69 25.3
-4 -22 18 97.69 19.6
2 -22 -18 43 19
-2 -22 18 32.9 17.3
0 -22 -18 432.86 39.3
0 -22 18 412.46 40.6
-2 -22 -18 106.59 20.2
2 -22 18 135.89 22.9
-4 -22 -18 14 16.3
-4 22 -18 17.3 17.3
-6 -22 -18 119.09 20.5
-6 22 -18 141.19 21.7
-8 -22 -18 59.89 17.3
-8 22 -18 50.89 18.1
-10 22 -18 1.3 16.1
-11 23 18 13.1 23.3
-9 23 18 66.59 24.3
-7 -23 18 126.99 21.4
-7 23 18 89.09 25.4
-5 -23 18 -1 17
-3 -23 18 34.8 17.9
1 -23 -18 45 19.1
-1 -23 -18 7.8 16.9
1 -23 18 28.2 19.3
-3 -23 -18 109.49 20.7
-5 -23 -18 11.2 16.4
-5 23 -18 -8 16.4
-7 -23 -18 43.3 17.2
-7 23 -18 38.4 17.7
-9 23 -18 -0.2 16.4
-10 24 18 11.3 24.2
-8 -24 18 190.68 24
-8 24 18 163.68 29.4
-6 -24 18 -10 17.1
-4 -24 18 38.8 19.2
-2 -24 18 277.17 31.5
2 -24 -18 380.66 38.3
0 -24 18 661.63 53.19
0 -24 -18 661.93 51.99
-2 -24 -18 72.59 19.5
-4 -24 -18 8.8 17.3
-6 -24 -18 17.8 17.1
-6 24 -18 19.6 17.9
-8 24 -18 -13.2 17.1
-10 24 -18 30 18.5
-9 25 18 2.2 24.6
-7 -25 18 0.4 17.8
-5 -25 18 92.89 21
-3 -25 18 35.1 19.2
-1 -25 18 889.31 66.99
1 -25 -18 996 68.29
-1 -25 -18 40.5 19.2
-3 -25 -18 13 17.3
-5 -25 -18 9.3 17.6
-7 25 -18 46.6 19.4
-9 25 -18 441.06 40.2
-6 -26 18 32.8 19.1
-4 -26 18 26.8 19
-2 -26 18 0.2 19
0 -26 18 76.59 21.8
0 -26 -18 33.3 20.2
-2 -26 -18 216.08 27.4
-4 -26 -18 -1.9 18.3
-6 -26 -18 55.29 19.9
-8 26 -18 74.49 21.6
-5 -27 18 5.8 19
-3 -27 18 94.19 22.2
-1 -27 18 8.3 20.3
1 -27 -18 74.89 22.4
-1 -27 -18 56.39 21.2
-3 -27 -18 156.88 24.9
-5 -27 -18 -28.5 17.2
-9 27 -18 22.4 20.1
-4 -28 18 220.18 28.5
-2 -28 18 9.9 20.1
0 -28 -18 12.1 20.9
-2 -28 -18 88.89 22.6
-4 -28 -18 -13.5 18.7
-3 -29 18 -11.4 19.7
-1 -29 -18 19 20.7
-3 -29 -18 20 20.4
-4 -30 18 32.4 21.8
-2 -30 18 51.99 23.6
-2 -30 -18 -5.4 20.7
-3 -31 18 -28 20.7
-1 -31 -18 -8.9 21.9
-14 0 19 6.5 14.7
-12 0 19 7 14.2
-10 0 19 20.7 13.8
-8 0 19 -5.7 10.7
-8 0 19 13.3 13.1
8 0 -19 -6.3 12.8
-6 0 19 12.3 11
-6 0 19 2.4 12.6
6 0 -19 4.2 12.6
-4 0 19 -3.2 11.8
-4 0 19 1.4 10.3
4 0 -19 18.2 12.1
2 0 -19 1.8 11.2
-2 0 19 -21.4 11.8
2 0 -19 0 11.8
-2 0 19 -0.5 9.7
0 0 19 3.8 11.9
0 0 -19 -8.6 9.9
0 0 -19 -14.7 11
0 0 19 5.7 9.7
-2 0 -19 26.8 11.4
2 0 19 23.6 12.1
-2 0 -19 27.6 11.1
4 0 19 -1.2 11.8
-4 0 -19 -0.6 10.7
-4 0 -19 -1.8 10.2
-6 0 -19 -7.8 9.8
-6 0 -19 -13 10.2
6 0 19 17.3 12
-8 0 -19 11.3 10.4
-8 0 -19 2.4 10.5
8 0 19 1.7 12.1
-10 0 -19 -9.1 10.6
-10 0 -19 4.6 11.8
-12 0 -19 3 10.6
-14 0 -19 -7.3 9.9
-15 -1 19 259.17 25.2
-15 1 19 260.17 29
-13 -1 19 -4.8 14.2
-13 1 19 29.2 14.9
-11 -1 19 146.69 19.2
-11 1 19 157.78 19.7
-9 -1 19 -4.3 12.4
-9 -1 19 10.2 13
-9 1 19 15.2 13.4
-7 -1 19 41.5 14.1
7 -1 -19 48.6 14.1
-7 -1 19 49.2 12.1
7 1 -19 48.8 14.2
-7 1 19 45.1 12.5
-7 1 19 37.1 14.1
5 -1 -19 1130.59 77.69
-5 -1 19 1286.77 77.19
-5 -1 19 1266.27 77.99
-5 1 19 1282.87 77.99
-5 1 19 1238.58 77.29
5 1 -19 1231.08 77.79
3 -1 -19 139.89 17.3
-3 -1 19 125.89 14.9
-3 -1 19 159.98 17.3
-3 1 19 129.79 14.9
3 1 -19 120.99 16
-3 1 19 105.79 16.1
1 -1 -19 691.13 43.7
1 -1 -19 640.24 43.7
-1 -1 19 639.34 42.7
-1 -1 19 639.74 44.2
-1 1 19 611.24 43.7
1 1 -19 655.63 43.3
-1 1 19 669.53 42.9
1 1 -19 544.45 43.2
-1 -1 -19 1461.25 89.29
1 -1 19 1350.26 89.69
-1 -1 -19 1467.25 89.59
1 -1 19 1395.16 88.89
1 1 19 1480.15 89.89
-1 1 -19 1438.16 89.39
-1 1 -19 1501.65 89.49
1 1 19 1545.65 89.19
-3 -1 -19 1549.24 94.39
-3 -1 -19 1508.55 94.09
3 -1 19 1513.25 94.69
-3 1 -19 1618.04 94.39
-3 1 -19 1512.05 94.19
3 1 19 1556.64 94.69
-5 -1 -19 412.46 30.8
-5 -1 -19 415.56 30.8
5 -1 19 419.16 31.8
5 1 19 375.76 31.7
-5 1 -19 411.26 30.8
-5 1 -19 413.76 30.9
-7 -1 -19 177.58 19.6
-7 -1 -19 157.28 17.4
7 -1 19 184.58 18.8
7 1 19 207.98 19.1
-7 1 -19 185.58 17.9
-7 1 -19 164.18 17.6
-9 -1 -19 2.6 10.1
-9 -1 -19 7.1 10.9
9 -1 19 18.9 12.4
9 1 19 0.9 11.9
-9 1 -19 4.6 10.3
-9 1 -19 0.2 10.8
-11 -1 -19 88.49 13.4
-11 1 -19 100.99 13.9
-13 -1 -19 260.87 22.4
-13 1 -19 256.87 23.2
-15 -1 -19 55.29 11.3
-15 1 -19 71.69 12.2
-14 -2 19 38.8 16
-14 2 19 56.29 16.4
-12 -2 19 -9.9 13.7
-12 2 19 18.3 14.8
-10 -2 19 919.41 58.89
-10 2 19 862.21 59.19
-8 -2 19 818.42 57.59
8 -2 -19 903.71 58.09
-8 -2 19 919.61 56.99
8 2 -19 871.91 57.79
-8 2 19 894.41 57.49
-8 2 19 854.61 57.99
6 -2 -19 120.89 17
-6 -2 19 89.89 16.5
-6 -2 19 149.99 16.1
6 2 -19 146.79 17.1
-6 2 19 125.09 17.6
-6 2 19 144.39 16.7
-4 -2 19 2486.35 160.28
-4 -2 19 2784.62 160.18
4 -2 -19 2741.93 160.68
-4 2 19 2791.32 160.38
4 2 -19 2740.13 160.48
-4 2 19 2518.15 160.48
2 -2 -19 239.38 24
-2 -2 19 237.98 22.1
-2 -2 19 245.08 25.3
2 -2 -19 229.68 24.4
-2 2 19 247.58 22.5
2 2 -19 217.88 24
-2 2 19 263.97 25.3
2 2 -19 249.48 24.4
0 -2 -19 421.06 33.5
0 -2 19 453.25 32.5
0 -2 -19 497.75 34.5
0 -2 19 453.95 34.7
0 2 19 460.55 33.2
0 2 -19 486.35 34.3
0 2 -19 443.76 33.7
0 2 19 430.96 34.5
2 -2 19 3977.4 232.28
-2 -2 -19 3584.14 231.68
-2 -2 -19 4226.58 232.28
2 2 19 4047.7 232.28
-2 2 -19 4003.7 232.08
-2 2 -19 3659.53 231.58
-4 -2 -19 7.5 10.4
4 -2 19 -3.6 11.5
-4 -2 -19 4.7 11
-4 2 -19 1.3 10.5
4 2 19 12.2 11.5
-4 2 -19 -1.2 10.1
-6 -2 -19 1536.05 90.49
6 -2 19 1440.66 91.09
-6 -2 -19 1551.24 90.89
-6 2 -19 1526.95 90.89
6 2 19 1392.86 90.79
-6 2 -19 1439.16 90.39
-8 -2 -19 106.29 14
-8 -2 -19 86.99 13.8
8 -2 19 82.09 15.2
-8 2 -19 83.59 13.9
-8 2 -19 113.19 14.4
8 2 19 105.99 15
-10 -2 -19 6.1 10.8
-10 -2 -19 12.3 10.5
-10 2 -19 19.4 11.1
-12 -2 -19 196.58 19.6
-12 2 -19 190.38 21.1
-14 -2 -19 9.1 9.6
-14 2 -19 -16.7 10.5
-15 -3 19 35.1 15.5
-15 3 19 21.5 20
-13 -3 19 55.69 15.5
-13 3 19 60.29 16.2
-11 -3 19 258.37 27.4
-11 3 19 301.47 29.3
-9 -3 19 20.5 13.2
-9 3 19 29 14.1
7 -3 -19 624.54 42.6
-7 -3 19 567.24 40.6
-7 -3 19 536.95 41.9
-7 3 19 559.04 42.7
7 3 -19 620.74 42.2
-7 3 19 643.04 41.9
-5 -3 19 20.3 12.5
-5 -3 19 12.3 10.4
5 -3 -19 4.4 12.2
5 3 -19 20.3 12.5
-5 3 19 35.1 11.2
-5 3 19 6.1 13.2
3 -3 -19 17.1 12.2
3 -3 -19 7 11.8
-3 -3 19 4.5 13
-3 -3 19 -3.2 9.3
3 3 -19 15.5 11.9
-3 3 19 -0.3 11.6
-3 3 19 -0.2 9.6
1 3 -19 9533.75 559.64
-1 -3 -19 102.59 14.8
1 -3 19 106.89 13.8
1 -3 19 117.09 16.2
-1 -3 -19 128.49 15.6
1 3 19 109.39 14.9
1 3 19 139.59 15.2
-1 3 -19 121.29 15.1
-1 3 -19 78.99 13.9
-3 -3 -19 -5 9.9
-3 -3 -19 -1.1 11
3 -3 19 7.7 11.4
-3 3 -19 -0.3 10.2
3 3 19 2.5 11.8
-3 3 -19 12.6 10.9
5 -3 19 68.79 13.4
-5 -3 -19 57.89 12.4
-5 -3 -19 54.59 12.5
5 3 19 59.19 13.3
-5 3 -19 56.29 12.4
-5 3 -19 54.09 12.4
-7 -3 -19 618.24 41.1
7 -3 19 603.44 42.2
-7 -3 -19 615.04 41.5
-7 3 -19 635.74 41.3
-7 3 -19 616.04 41.7
7 3 19 559.84 41.7
-9 -3 -19 171.18 16.8
-9 -3 -19 169.08 17
-9 3 -19 150.78 17.3
-9 3 -19 147.49 16.5
9 3 19 187.18 18.3
-11 -3 -19 193.28 17.4
-11 3 -19 163.18 17.5
-13 -3 -19 107.79 13
-13 3 -19 99.69 14.3
-15 3 -19 44.7 12.3
-14 -4 19 17.2 14.8
-14 4 19 7.5 16.1
-12 -4 19 302.17 29.3
-12 4 19 321.37 30.8
-10 -4 19 210.48 21.7
-10 4 19 224.28 23
8 -4 -19 126.99 17.9
-8 -4 19 103.09 16.8
-8 -4 19 113.09 15.1
-8 4 19 110.29 16.2
8 4 -19 118.79 16.9
-8 4 19 82.79 17.1
6 -4 -19 61.09 14.8
-6 -4 19 68.99 15
-6 -4 19 85.19 13.4
-6 4 19 80.89 14.2
-6 4 19 81.49 16
6 4 -19 84.39 14.8
-4 -4 19 36.8 13.4
4 -4 -19 44.4 13.6
-4 -4 19 36.5 11.2
4 4 -19 42.5 13.2
-4 4 19 63.19 12.9
-4 4 19 47 14.6
2 -4 -19 5995.7 344.07
-2 -4 19 5784.32 343.67
2 -4 -19 5752.12 343.97
-2 -4 19 5928.31 344.07
2 4 -19 5844.31 343.77
-2 4 19 5618.24 344.07
-2 4 19 5917.51 343.77
2 4 -19 5811.12 343.77
0 -4 -19 2984.3 189.88
0 -4 19 3146.29 189.58
0 -4 19 3249.18 190.18
0 -4 -19 3403.86 190.18
0 4 19 3270.87 189.78
0 4 -19 3107.89 189.78
0 4 19 3175.28 190.28
0 4 -19 3182.38 189.88
-2 -4 -19 21.2 12.7
2 -4 19 37.7 13
-2 -4 -19 37.9 12
2 4 19 21.2 12.7
-2 4 -19 36.7 11.7
-2 4 -19 19.3 11.8
-4 -4 -19 78.89 13.4
-4 -4 -19 72.49 13.3
4 -4 19 76.49 14.2
-4 4 -19 54.99 12.8
4 4 19 77.59 13.8
-4 4 -19 67.19 13.2
-6 -4 -19 1041.2 64.09
6 -4 19 977 64.59
-6 -4 -19 1015.5 63.49
6 4 19 967.3 64.09
-6 4 -19 1052.09 64.29
-6 4 -19 1002.7 63.69
8 -4 19 83.69 15.5
-8 -4 -19 101.39 13.8
-8 -4 -19 97.39 13.8
-8 4 -19 68.49 13.4
8 4 19 76.89 14.2
-8 4 -19 102.79 14.1
-10 -4 -19 556.44 38.6
-10 -4 -19 589.74 38.3
-10 4 -19 546.95 38.8
-12 -4 -19 20.3 10.3
-12 4 -19 19 11.4
-14 -4 -19 172.58 17.7
-14 4 -19 188.78 18.3
-15 -5 19 104.79 18.3
-13 -5 19 -10.5 13.8
-13 5 19 6.5 15.5
-11 -5 19 609.04 43.9
-11 5 19 625.44 45.4
-9 -5 19 345.17 31.6
-9 5 19 408.76 33.2
7 -5 -19 -15.1 13
-7 -5 19 8.4 12.7
-7 -5 19 -2.4 10.5
-7 5 19 -2.7 11.5
-7 5 19 -1.3 13.3
7 5 -19 -0.1 12.4
5 -5 -19 18.2 12.4
-5 -5 19 -7.7 10
-5 -5 19 2.1 12.8
-5 5 19 0.2 13.1
-5 5 19 2.3 10.7
5 5 -19 -2.5 12.4
-3 -5 19 120.39 14.9
3 -5 -19 137.09 17
3 -5 -19 144.89 18.8
-3 -5 19 125.29 16.5
3 5 -19 103.39 15.7
-3 5 19 152.98 16.5
-3 5 19 147.39 17.9
1 -5 -19 3396.76 216.08
-1 -5 19 3580.64 216.28
1 -5 -19 3356.56 216.18
-1 -5 19 3965.2 216.18
-1 5 19 3842.62 216.88
1 5 -19 3602.94 216.08
-1 5 19 3684.33 216.08
1 5 -19 3687.23 216.18
1 -5 19 2092.19 127.69
-1 -5 -19 2072.09 127.29
-1 -5 -19 2054.49 127.29
1 -5 19 2278.07 127.19
-1 5 -19 2061.69 127.19
1 5 19 2071.39 127.69
-1 5 -19 2141.09 127.39
3 -5 19 60.99 14.3
-3 -5 -19 75.09 13
-3 -5 -19 78.09 13.2
-3 5 -19 32.7 12.3
-3 5 -19 78.89 13.3
3 5 19 85.69 14.1
-5 -5 -19 1402.86 83.49
-5 -5 -19 1358.36 82.89
5 -5 19 1328.37 83.69
-5 5 -19 1296.57 82.99
5 5 19 1293.67 83.19
-5 5 -19 1408.26 83.69
-7 -5 -19 952.7 56.79
-7 -5 -19 877.21 57.09
7 -5 19 880.71 58.09
7 5 19 792.32 56.99
-7 5 -19 932.81 57.29
-7 5 -19 910.71 57.79
-9 -5 -19 1021.1 65.59
-9 -5 -19 1071.59 65.29
-9 5 -19 1045.6 65.79
9 5 19 1043.1 65.99
-11 -5 -19 -3.4 9.8
-11 5 -19 11.4 11.3
-13 -5 -19 216.68 19.6
-13 5 -19 210.58 19.9
-14 -6 19 21.3 14.2
-14 6 19 26 17.3
-12 -6 19 190.08 20.5
-12 6 19 169.18 22
-10 -6 19 125.39 17.9
-10 6 19 134.69 19.3
-8 -6 19 15.1 13.4
8 -6 -19 30 14.9
-8 -6 19 33.8 11.2
-8 6 19 7.8 14.1
8 6 -19 29 13.5
-6 -6 19 108.39 16.8
-6 -6 19 104.79 14.4
6 -6 -19 99.39 16.6
-6 6 19 110.59 15.5
6 6 -19 119.39 16.7
-6 6 19 106.19 17.5
-4 -6 19 2391.06 138.39
4 -6 -19 2212.78 139.09
-4 -6 19 2365.06 138.89
4 6 -19 2287.37 138.59
-4 6 19 2171.48 139.19
-4 6 19 2366.06 138.89
2 -6 -19 -1.3 12.4
2 -6 -19 10.6 11.3
-2 -6 19 3.1 9.8
-2 -6 19 -1.3 11.6
-2 6 19 2.5 10.2
-2 6 19 -6.8 12.9
2 6 -19 0.1 11.2
0 -6 19 33.9 12.6
0 -6 -19 17.6 11.3
0 -6 19 15 10
0 -6 -19 24.3 12.8
0 6 19 20.3 11.2
0 6 19 37.9 13.2
0 6 -19 24.6 11.3
0 6 -19 29.8 11.9
-2 -6 -19 2351.16 143.29
-2 -6 -19 2365.16 143.29
2 -6 19 2364.66 143.49
-2 6 -19 2393.06 143.29
-2 6 -19 2416.26 143.39
2 6 19 2416.66 143.69
4 -6 19 81.19 14.8
-4 -6 -19 71.39 13.9
-4 -6 -19 89.09 14
4 6 19 91.19 14.7
-4 6 -19 70.99 13.7
-4 6 -19 90.39 14
-6 -6 -19 48.6 12.6
6 -6 19 39.1 13.3
-6 -6 -19 24.1 12.1
-6 6 -19 33.5 12.1
-6 6 -19 27 11.9
6 6 19 29.1 12.6
-8 -6 -19 8.1 11.2
-8 -6 -19 18.5 11
-8 6 -19 24.3 11.6
8 6 19 14.8 12
-10 -6 -19 116.19 14.3
-10 -6 -19 88.59 13.1
-10 6 -19 87.69 14.5
-12 -6 -19 36.5 10.4
-12 6 -19 27.7 12.5
-14 6 -19 -8.5 11.5
-13 -7 19 228.38 22.2
-13 7 19 186.18 24.2
-11 -7 19 1285.77 79.39
-11 7 19 1222.68 80.99
-9 -7 19 84.69 15.9
-9 7 19 87.39 17.8
-7 -7 19 28.7 13.9
-7 -7 19 46.5 11.7
7 -7 -19 44.9 15.1
-7 7 19 5.4 14.2
7 7 -19 49.6 14.8
-7 7 19 49.3 13.6
-5 -7 19 3771.02 224.88
-5 -7 19 4009.3 224.58
5 -7 -19 3606.04 225.28
5 7 -19 3869.01 224.78
-5 7 19 3760.02 225.28
-5 7 19 3660.83 225.38
-3 -7 19 73.09 15.4
-3 -7 19 111.99 13.9
3 -7 -19 82.19 15.5
-3 7 19 96.89 16.4
3 7 -19 87.19 14.5
-3 7 19 97.69 14.3
-1 -7 19 1058.49 65.89
1 -7 -19 1088.49 67.29
1 -7 -19 1076.29 67.09
-1 -7 19 1012 67.19
1 7 -19 1040.6 66.59
1 7 -19 1011.9 66.59
-1 7 19 966 67.39
-1 7 19 1147.19 66.99
1 -7 19 5.7 11.8
-1 -7 -19 -7 12.3
-1 -7 -19 16.5 11.1
1 -7 19 -6.4 9.3
-1 7 -19 1.1 11
-1 7 -19 15.2 11.4
1 7 19 14.3 12.4
-3 -7 -19 642.34 44.6
3 -7 19 657.93 45.7
-3 -7 -19 695.53 44.8
3 7 19 615.44 45.1
-3 7 -19 676.23 44.9
-3 7 -19 654.53 44.9
-5 -7 -19 76.69 13.2
5 -7 19 62.59 14.8
-5 -7 -19 92.89 14
5 7 19 61.49 13.9
-5 7 -19 37.3 12.4
-5 7 -19 51.89 13.5
7 -7 19 81.99 15.7
-7 -7 -19 72.09 13
-7 -7 -19 82.19 14.1
-7 7 -19 79.69 14.4
-7 7 -19 109.49 14.7
7 7 19 67.29 14
-9 -7 -19 4107.39 245.28
-9 -7 -19 4230.48 244.78
-9 7 -19 4091.49 245.38
-11 -7 -19 8 10.2
-11 7 -19 1.8 11.3
-13 -7 -19 10.4 9.4
-13 7 -19 15.9 12.2
-14 -8 19 7 14.2
-14 8 19 -4.9 16.5
-12 -8 19 950.2 62.19
-12 8 19 946.91 64.69
-10 -8 19 225.68 22.6
-10 8 19 261.77 28.7
-8 -8 19 15.3 14
-8 8 19 33.2 15.1
6 -8 -19 454.35 38.8
-6 -8 19 511.05 35.5
-6 -8 19 493.25 37.6
-6 8 19 499.05 39
6 8 -19 557.34 37.5
-6 8 19 463.55 37.5
4 -8 -19 0.3 12.7
-4 -8 19 9.2 9.9
-4 -8 19 -3.5 12.3
-4 8 19 14.5 14.5
-4 8 19 5.8 10.9
4 8 -19 -4.8 11.4
-2 -8 19 39.9 11.1
2 -8 -19 8.9 11.8
-2 -8 19 31.3 13.7
2 -8 -19 25.8 13.8
-2 8 19 27.9 11.3
-2 8 19 34.6 14.3
2 8 -19 38 12.3
0 -8 19 11.1 12.1
0 -8 19 15.6 10.2
0 -8 -19 14 11.9
0 -8 -19 12.5 12.6
0 8 -19 13.9 12
0 8 19 5.1 12.3
0 8 -19 7.3 11.3
2 -8 19 450.55 37.3
-2 -8 -19 506.75 36.8
-2 -8 -19 517.75 37
-2 8 -19 528.65 37
-2 8 -19 509.95 37
2 8 19 497.35 37.7
-4 -8 -19 91.89 14.6
4 -8 19 68.19 14.9
-4 -8 -19 67.19 13.6
4 8 19 78.59 15
-4 8 -19 86.99 14.5
-4 8 -19 68.89 14.1
-6 -8 -19 65.89 13.6
-6 -8 -19 101.59 14.4
6 -8 19 80.49 15.9
-6 8 -19 87.19 14.7
6 8 19 107.39 15.3
-6 8 -19 51.49 14.1
-8 -8 -19 775.32 47.1
-8 -8 -19 610.24 47.4
8 8 19 687.33 47.8
-8 8 -19 765.32 47.9
-10 -8 -19 2671.73 164.38
-10 8 -19 2860.21 165.38
-12 -8 -19 10.5 10.1
-12 8 -19 27.1 12.2
-14 8 -19 64.19 14.4
-13 -9 19 -1.9 14.1
-13 9 19 15.2 17
-11 -9 19 188.28 20.8
-11 9 19 166.38 22.6
-9 -9 19 1283.87 80.09
-9 9 19 1245.78 81.59
7 -9 -19 599.64 44.8
-7 -9 19 565.34 42.6
-7 -9 19 599.04 41.1
-7 9 19 617.44 50.19
7 9 -19 577.24 42.7
-7 9 19 628.14 44.6
5 -9 -19 94.49 17.2
-5 -9 19 144.39 15.3
-5 -9 19 95.99 16.4
-5 9 19 93.59 18.1
5 9 -19 73.09 15.1
-5 9 19 102.39 15.2
-3 -9 19 259.47 26.4
-3 -9 19 268.57 23.2
3 -9 -19 242.18 23.8
3 9 -19 264.97 25.4
-3 9 19 229.58 24
-3 9 19 244.88 25.2
1 -9 -19 95.69 15.1
-1 -9 19 75.79 12.9
-1 -9 19 86.99 15.8
1 -9 -19 80.09 15.5
-1 9 19 92.59 16.7
1 9 -19 84.29 14.6
-1 9 19 76.39 18.8
-1 -9 -19 59.89 13.9
-1 -9 -19 78.39 15.1
1 -9 19 100.89 13.4
1 -9 19 64.59 15.5
-1 9 -19 74.29 14.4
-1 9 -19 90.99 14.4
1 9 19 42.5 14.7
-3 -9 -19 31.9 12.7
3 -9 19 39.1 14.5
-3 -9 -19 46.7 13.4
3 9 19 44.4 14.3
-3 9 -19 61.49 13.5
-3 9 -19 54.19 13.1
5 -9 19 1287.37 82.29
-5 -9 -19 1330.87 80.59
-5 -9 -19 1281.07 81.09
-5 9 -19 1284.57 81.49
-5 9 -19 1326.67 81.09
5 9 19 1274.77 81.19
-7 -9 -19 890.01 57.39
7 -9 19 903.21 61.59
-7 -9 -19 915.81 58.29
-7 9 -19 859.31 58.19
7 9 19 911.61 58.59
-9 -9 -19 467.85 35.2
-9 9 -19 515.85 36.4
-11 -9 -19 19.7 10.6
-11 9 -19 28.3 12.8
-13 -9 -19 721.93 45.9
-13 9 -19 718.63 48.5
-14 -10 19 173.28 19.8
-14 10 19 125.49 22.8
-12 -10 19 -25.6 13.5
-12 10 19 6.6 16.6
-10 -10 19 6 14.4
-10 10 19 2.6 15.6
-8 -10 19 3440.96 206.88
-8 10 19 3495.95 208.48
6 -10 -19 19.4 14.6
-6 -10 19 19.4 13.1
-6 -10 19 9.7 10.5
-6 10 19 10 12.3
-6 10 19 15.3 14.7
6 10 -19 7 12.7
-4 -10 19 939.31 55.29
4 -10 -19 797.32 57.39
-4 -10 19 815.12 56.09
-4 10 19 905.81 57.09
4 10 -19 829.02 56.19
-4 10 19 777.72 57.59
-2 -10 19 54.69 14.6
2 -10 -19 58.19 14.8
-2 -10 19 36.3 11.6
2 -10 -19 38.8 13.3
-2 10 19 34 12.2
2 10 -19 31.7 12.8
-2 10 19 32.2 14.5
0 -10 -19 253.67 25.4
0 -10 19 247.18 22.4
0 -10 19 191.98 21.3
0 -10 -19 206.58 21.7
0 10 -19 223.98 24.6
0 10 19 234.18 23.6
0 10 -19 238.18 24.2
-2 -10 -19 90.99 15.3
2 -10 19 86.99 16.8
-2 -10 -19 120.89 16.2
2 10 19 82.49 16.2
-2 10 -19 69.99 15.3
-2 10 -19 109.99 15.2
-4 -10 -19 3.6 12
-4 -10 -19 -2.8 11.9
4 -10 19 -33.2 12.2
-4 10 -19 4.8 11.9
-4 10 -19 0.9 12.3
4 10 19 11.9 13.4
-6 -10 -19 4607.14 274.37
-6 -10 -19 4918.41 273.87
6 -10 19 4622.94 275.07
-6 10 -19 4683.53 274.17
6 10 19 4525.45 274.27
-6 10 -19 4400.76 274.77
-8 -10 -19 4.2 11.6
-8 10 -19 4.4 12.5
-10 -10 -19 30.1 11.7
-10 10 -19 45.6 14
-12 -10 -19 939.21 59.99
-12 10 -19 984.9 62.09
-13 -11 19 8.9 14.3
-13 11 19 32.6 18.2
-11 -11 19 391.46 35.4
-11 11 19 472.75 39.1
-9 -11 19 316.27 29.4
-9 11 19 314.47 33.7
7 -11 -19 7.3 17.9
-7 -11 19 0.4 13.4
-7 11 19 4.3 15.8
5 -11 -19 99.59 17.7
-5 -11 19 96.59 17.2
-5 -11 19 109.39 15
-5 11 19 101.19 18.4
5 11 -19 80.79 15.9
-5 11 19 109.89 16.9
3 -11 -19 69.99 16.1
-3 -11 19 103.69 13.9
-3 -11 19 64.09 15.4
-3 11 19 61.09 16.5
-3 11 19 71.49 14.7
3 11 -19 73.69 14.8
1 -11 -19 8 12.8
1 -11 -19 32.5 14.6
-1 -11 19 34.6 13.9
-1 -11 19 37.5 11.7
1 11 -19 44.3 13.6
-1 11 19 15.4 14.3
1 -11 19 345.07 32
-1 -11 -19 364.76 31.2
1 -11 19 387.16 29
-1 -11 -19 368.96 31.6
-1 11 -19 359.76 30.8
1 11 19 353.36 32
-1 11 -19 327.87 30.2
-3 -11 -19 31.7 13.8
3 -11 19 4.6 13.8
-3 -11 -19 34.5 13.4
3 11 19 44 14.6
-3 11 -19 1.8 12.1
-3 11 -19 37.6 13.7
5 -11 19 370.66 35.3
-5 -11 -19 466.95 33.2
-5 -11 -19 387.86 33.7
-5 11 -19 472.55 34.9
5 11 19 331.37 33.9
-5 11 -19 482.45 34
-7 -11 -19 136.99 17
-7 11 -19 134.79 17.5
-9 -11 -19 890.11 57.29
-9 11 -19 895.11 58.69
-11 -11 -19 9.8 11.3
-11 11 -19 3.6 13.1
-13 -11 -19 294.27 24.2
-13 11 -19 315.87 28.3
-12 -12 19 442.86 36.1
-12 12 19 435.16 40.6
-10 -12 19 54.29 15.3
-10 12 19 42.1 17.8
-8 -12 19 246.68 27.3
-8 12 19 294.67 32
6 -12 -19 281.47 30.3
-6 -12 19 270.97 28
-6 12 19 278.17 30.8
-4 -12 19 311.17 30.3
4 -12 -19 335.67 31.8
-4 -12 19 296.97 27.6
-4 12 19 382.06 31.2
4 12 -19 323.07 30
-4 12 19 385.16 32.9
2 -12 -19 88.19 17.4
-2 -12 19 125.69 15.8
2 -12 -19 110.29 17.3
-2 -12 19 135.19 18.4
-2 12 19 88.39 17.7
2 12 -19 111.69 16.7
0 -12 -19 82.79 16
0 -12 19 73.19 16.1
0 -12 19 84.99 13.4
0 -12 -19 68.09 15.6
0 12 -19 94.69 15.9
0 12 19 58.29 16
2 -12 19 307.97 29.4
-2 -12 -19 287.57 27.6
-2 -12 -19 253.07 27.6
-2 12 -19 243.88 26.9
-2 12 -19 273.87 27.1
2 12 19 285.37 28.5
-4 -12 -19 1.6 12.5
4 -12 19 -6.3 14.2
-4 -12 -19 13.1 12.8
4 12 19 -6.8 13.2
-4 12 -19 -7.5 12.7
-4 12 -19 -10.7 12
-6 -12 -19 179.68 18.8
6 -12 19 200.68 30.8
-6 12 -19 144.19 19.1
-8 -12 -19 591.84 40.3
-8 12 -19 549.45 41.6
-10 -12 -19 1152.48 70.49
-10 12 -19 1095.19 71.79
-12 -12 -19 18.2 11.5
-12 12 -19 3.1 13.1
-13 -13 19 2.9 14.6
-13 13 19 0.5 18.3
-11 -13 19 39.6 15.6
-11 13 19 36.2 18.5
-9 -13 19 94.39 16.8
-9 13 19 60.49 18.5
-7 -13 19 40.8 14.9
-7 13 19 38 17.2
5 -13 -19 1644.94 101.39
-5 -13 19 1527.95 99.59
-5 13 19 1340.17 100.69
-5 13 19 1786.72 101.39
5 13 -19 1747.53 100.29
-3 -13 19 218.28 21.8
3 -13 -19 164.58 21.5
-3 -13 19 184.68 21.1
-3 13 19 250.77 26.1
3 13 -19 197.98 21.1
-3 13 19 127.49 21.7
1 -13 -19 2.4 13.5
1 -13 -19 -12.6 13.9
-1 -13 19 -6 13.7
-1 -13 19 14.3 10.7
1 13 -19 16.3 13.6
-1 13 19 -2.6 14.5
1 -13 19 123.29 18
-1 -13 -19 106.29 16.8
-1 -13 -19 99.89 17.5
1 13 19 99.49 18.3
-1 13 -19 107.69 16.9
-3 -13 -19 592.64 44.1
-3 -13 -19 592.14 43.2
3 -13 19 562.84 44.5
3 13 19 594.34 44.8
-3 13 -19 610.14 43.4
-3 13 -19 633.64 44.2
5 -13 19 133.69 20.4
-5 -13 -19 162.98 18.7
-5 13 -19 135.59 18.7
-7 -13 -19 150.18 18
-7 13 -19 158.78 18.9
-9 -13 -19 555.34 41.2
-9 13 -19 624.14 42.9
-11 -13 -19 18.8 11.9
-11 13 -19 14.7 13.3
-13 -13 -19 178.08 19.3
-13 13 -19 166.68 20.1
-12 -14 19 154.48 21
-12 14 19 167.18 24.6
-10 -14 19 411.96 34.1
-10 14 19 372.16 38.6
-8 -14 19 42.3 15.2
-8 14 19 26.5 17.7
-6 -14 19 21.4 14.2
6 -14 -19 2 16.3
-6 14 19 24.5 16.9
-4 -14 19 689.83 44.8
4 -14 -19 631.14 46.4
-4 14 19 465.65 46.3
-4 14 19 601.94 44.8
4 14 -19 628.34 44.8
2 -14 -19 140.29 19
-2 -14 19 112.29 18.3
2 -14 -19 91.09 18.2
-2 -14 19 166.18 17.5
-2 14 19 77.39 18.5
2 14 -19 148.69 19
0 -14 -19 202.78 22.3
0 -14 19 205.38 22.3
0 -14 -19 192.18 21.3
0 -14 19 170.98 19
0 14 -19 177.08 20.9
0 14 19 203.18 22.9
-2 -14 -19 435.86 34.3
-2 -14 -19 343.87 34.4
2 -14 19 397.06 34.8
2 14 19 401.66 35.6
-2 14 -19 458.65 34.7
-2 14 -19 387.36 33.9
4 -14 19 33.2 15.6
-4 -14 -19 37.1 14
-4 14 -19 3.4 13.7
-4 14 -19 42.7 14.1
-6 -14 -19 30.6 13.4
-6 14 -19 36.2 14.4
-8 -14 -19 373.96 29.7
-8 14 -19 316.47 31.2
-10 -14 -19 429.56 32.7
-10 14 -19 404.96 34.6
-12 -14 -19 11.2 11.4
-12 14 -19 11.3 14.3
-13 15 19 -3.6 19.1
-11 -15 19 971 63.49
-11 15 19 933.31 67.59
-9 -15 19 24.3 15.5
-9 15 19 43.1 18.9
-7 -15 19 13.8 14.3
-7 15 19 43.2 18
-5 -15 19 208.68 22.1
5 -15 -19 195.68 24
-5 15 19 150.88 23.4
-3 -15 19 139.39 19
3 -15 -19 119.49 20.2
-3 15 19 121.09 20.9
3 15 -19 156.68 20.1
-1 -15 19 3530.15 184.98
-1 -15 19 3042.9 185.18
1 -15 -19 2949.9 185.58
1 -15 -19 3094.29 185.48
1 15 -19 3128.89 184.98
-1 15 19 2693.13 185.48
-1 -15 -19 37.6 15.1
1 -15 19 46.6 15.8
-1 -15 -19 59.19 16
-1 15 -19 85.09 16.2
1 15 19 44.6 17
-3 -15 -19 28.8 14.7
3 -15 19 27.7 16.3
-3 15 -19 40.9 14.6
-3 15 -19 41.8 14.5
3 15 19 41.7 17.6
-5 -15 -19 88.19 16.8
-5 15 -19 103.09 17.2
-7 -15 -19 2.7 12.4
-7 15 -19 -1.1 13.5
-9 -15 -19 1374.96 83.69
-9 15 -19 1304.57 84.99
-11 -15 -19 7.5 11.8
-11 15 -19 3.8 14.1
-12 -16 19 184.38 21.8
-12 16 19 165.58 26.5
-10 -16 19 -10.8 14.4
-10 16 19 -8.5 18.2
-8 -16 19 259.27 27.3
-8 16 19 207.08 26.7
-6 -16 19 5.8 14.5
-6 16 19 12.5 17.1
4 -16 -19 -0.9 15.7
-4 -16 19 3.2 14.7
-4 16 19 20.4 17.4
2 -16 -19 1453.65 92.19
-2 -16 19 1381.16 91.19
-2 16 19 1349.96 92.89
2 16 -19 1585.74 91.69
0 -16 19 1421.06 94.69
0 -16 19 1670.83 93.89
0 -16 -19 1455.25 94.79
0 -16 -19 1533.45 96.29
0 16 19 1414.16 95.79
0 16 -19 1499.85 94.29
2 -16 19 103.39 19.1
-2 -16 -19 85.29 17.3
2 16 19 74.19 21.6
-2 16 -19 102.49 17.7
4 -16 19 28.1 17.7
-4 -16 -19 39.6 15.2
-4 16 -19 20.1 14.3
-6 -16 -19 46 15.2
-6 16 -19 73.19 16.2
-8 -16 -19 -1.8 12.8
-8 16 -19 -3.5 13.9
-10 -16 -19 172.78 19.6
-10 16 -19 202.38 22.2
-12 -16 -19 45.1 13.4
-12 16 -19 42.8 16.1
-11 -17 19 67.19 17.3
-11 17 19 70.39 21.6
-9 -17 19 244.38 25.3
-9 17 19 257.37 29.1
-7 -17 19 298.37 30
-7 17 19 261.87 29.2
-5 -17 19 198.48 22.3
5 -17 -19 165.48 23.7
-5 17 19 151.88 23.6
-3 -17 19 1.8 14.8
3 -17 -19 -3.3 15.4
-3 17 19 10.4 17.3
-1 -17 19 363.66 35
1 -17 -19 325.87 34.7
-1 17 19 371.36 37.5
1 17 -19 428.06 35.2
1 -17 19 62.89 17.8
-1 -17 -19 81.89 17.2
-1 17 -19 72.79 17.3
1 17 19 81.59 22.4
-3 -17 -19 113.89 18.6
3 -17 19 124.49 20.9
-3 17 -19 156.58 19.6
-5 -17 -19 214.98 22.7
-5 17 -19 185.98 22.3
-7 -17 -19 188.58 21.3
-7 17 -19 170.18 21.9
-9 -17 -19 13.7 13.5
-9 17 -19 20.8 15
-11 -17 -19 91.09 15.3
-11 17 -19 54.49 17.2
-12 18 19 -22.4 19.8
-10 -18 19 121.09 19.8
-10 18 19 110.39 23.3
-8 -18 19 242.98 23.8
-8 18 19 164.08 25.7
-6 -18 19 55.09 17.2
-6 18 19 47.8 19.7
-4 -18 19 580.64 44.3
4 -18 -19 608.24 46.8
-4 18 19 526.45 47.1
-2 -18 19 818.02 57.39
2 -18 -19 784.32 58.19
-2 18 19 864.11 60.19
0 -18 -19 154.38 20.2
0 -18 19 122.49 20.9
0 18 -19 129.89 20.6
-2 -18 -19 1272.07 84.09
2 -18 19 1230.38 85.19
-2 18 -19 1426.56 84.39
-4 -18 -19 7.4 14.7
-4 18 -19 -5.9 14.7
-6 -18 -19 550.04 42.7
-6 18 -19 582.84 43.4
-8 -18 -19 37.9 15.1
-8 18 -19 33.2 15.9
-10 -18 -19 21.4 13.6
-10 18 -19 2.8 15.1
-11 19 19 18.1 21.1
-9 -19 19 12.7 15.6
-9 19 19 24.4 19.8
-7 -19 19 73.29 17.7
-7 19 19 62.39 21
-5 -19 19 8.9 15.7
-5 19 19 1.8 18.8
3 -19 -19 161.08 22.8
-3 -19 19 168.98 21.6
-3 19 19 110.09 23.6
-1 -19 19 897.51 62.79
1 -19 -19 922.11 63.39
-1 -19 -19 16.6 15.5
1 -19 19 11.8 17
-1 19 -19 -14.9 14.6
-3 -19 -19 44.3 16.7
3 -19 19 64.79 19.6
-3 19 -19 56.19 17.1
-5 -19 -19 22.8 16
-5 19 -19 23.8 15.3
-7 -19 -19 2.8 13.8
-7 19 -19 3.1 14.8
-9 -19 -19 -1.1 13.6
-9 19 -19 -4.8 14.7
-11 19 -19 -13.3 15.6
-12 20 19 12.9 21.5
-10 -20 19 235.18 24.9
-10 20 19 218.88 30
-8 -20 19 3.2 15.7
-8 20 19 -20.5 18.8
-6 -20 19 10.4 16
-6 20 19 -20.3 19.1
4 -20 -19 458.65 47.6
-4 -20 19 432.16 39.1
-4 20 19 451.05 43.5
-2 -20 19 -3.2 15.7
2 -20 -19 12.9 17.2
0 -20 -19 1.6 15.7
0 -20 19 -1.2 16.5
2 -20 19 737.03 56.09
-2 -20 -19 714.93 53.49
-2 20 -19 767.72 53.69
-4 -20 -19 34.2 16.3
-4 20 -19 28.2 16.9
-6 -20 -19 4.1 14.7
-6 20 -19 6.8 15.4
-8 -20 -19 27.2 15.1
-8 20 -19 28.6 15.9
-10 20 -19 9.4 15.9
-11 21 19 54.49 23.8
-9 -21 19 3.8 16.5
-9 21 19 -23.4 19.7
-7 -21 19 -5.3 16.6
-7 21 19 5.5 20.1
-5 -21 19 647.44 47.9
-5 21 19 571.84 52.29
-3 -21 19 86.79 19.4
3 -21 -19 69.89 20.5
-1 -21 19 0.5 16.9
1 -21 -19 -0.6 16.7
1 -21 19 357.16 37.8
-1 -21 -19 363.46 35.7
-3 -21 -19 736.83 54.69
-3 21 -19 778.22 55.49
-5 -21 -19 -14.6 15.1
-5 21 -19 -8.6 16.4
-7 -21 -19 -8.2 14.6
-7 21 -19 12.5 15.9
-9 -21 -19 7.9 15
-9 21 -19 -4 15.5
-11 21 -19 27.5 17.6
-10 22 19 51.29 23.4
-8 -22 19 177.88 23
-8 22 19 107.69 26.1
-6 -22 19 66.19 18.8
-6 22 19 52.89 22.6
-4 -22 19 226.38 26.2
-2 -22 19 294.37 30.3
2 -22 -19 275.87 29.9
0 -22 -19 401.46 38.9
0 -22 19 405.66 40.3
-2 -22 -19 623.94 48.7
-4 -22 -19 6.1 15.8
-4 22 -19 -13.6 16.1
-6 -22 -19 169.48 22.8
-6 22 -19 215.38 25.3
-8 -22 -19 -3.9 15.4
-8 22 -19 0.9 16.1
-10 22 -19 36.5 17.7
-11 23 19 75.69 25.4
-9 23 19 -8.2 22.1
-7 -23 19 41.7 18.5
-7 23 19 47.5 22.9
-5 -23 19 13.3 17.4
-3 -23 19 30.5 19
-1 -23 19 1787.02 117.39
1 -23 -19 1925.51 118.19
1 -23 19 3.5 18.7
-1 -23 -19 0.7 16.6
-3 -23 -19 19.6 17.1
-5 -23 -19 46.8 17.6
-5 23 -19 20.3 17.9
-7 -23 -19 107.69 19.7
-7 23 -19 130.39 22.1
-9 23 -19 96.39 20.6
-10 24 19 37.7 25
-8 -24 19 120.59 22.4
-8 24 19 110.49 26.8
-6 -24 19 3.8 17.9
-4 -24 19 -0.1 16.9
-2 -24 19 255.97 29.4
2 -24 -19 274.17 30.9
0 -24 19 128.89 23.9
0 -24 -19 146.99 24.2
-2 -24 -19 18.8 17.7
-4 -24 -19 9.5 16.9
-6 -24 -19 145.59 22.9
-6 24 -19 167.88 24.2
-8 24 -19 32.7 18.5
-10 24 -19 97.29 21.6
-7 -25 19 64.79 20.4
-5 -25 19 20.6 19.1
-3 -25 19 21.9 19
-1 -25 19 65.39 21.4
1 -25 -19 49.8 20.4
-1 -25 -19 166.88 24.9
-3 -25 -19 13.7 17.9
-5 -25 -19 129.69 22.3
-7 25 -19 61.69 20.4
-9 25 -19 71.39 21
-6 -26 19 32.1 19.6
-4 -26 19 71.99 21.5
-2 -26 19 38.2 20.2
0 -26 19 42.1 24.6
0 -26 -19 62.89 21.2
-2 -26 -19 100.59 22.4
-4 -26 -19 -12.3 17.8
-8 26 -19 69.29 21.2
-5 -27 19 60.29 21
-3 -27 19 55.99 21.2
-1 -27 19 90.89 23.3
1 -27 -19 116.69 24.6
-1 -27 -19 45.3 20.8
-3 -27 -19 6.5 19.3
-5 -27 -19 -13.2 18.4
-9 27 -19 876.11 64.69
-4 -28 19 37.4 21.6
-2 -28 19 -17.5 20
0 -28 -19 8.3 20.8
-2 -28 -19 66.29 21.4
-4 -28 -19 20.4 19.3
-3 -29 19 -3 21.1
-1 -29 -19 21.6 21.4
-3 -29 -19 -9.1 19.4
-4 -30 19 -4 24.6
-2 -30 19 22.7 22
-2 -30 -19 53.89 22.5
-3 -31 19 20.3 21.7
-1 -31 -19 29.9 23.3
-14 0 20 170.88 21.6
-12 0 20 32 15
-10 0 20 2158.38 131.29
-8 0 20 105.79 15.5
8 0 -20 103.49 16.6
-8 0 20 65.99 16
6 0 -20 624.94 43
-6 0 20 572.04 43.1
-6 0 20 602.94 41.9
-4 0 20 1293.07 80.89
-4 0 20 1309.97 81.79
4 0 -20 1307.37 81.59
2 0 -20 324.07 30.8
2 0 -20 429.86 32
-2 0 20 355.86 31.8
-2 0 20 457.25 30.3
0 0 -20 95.29 14.4
0 0 -20 91.19 14.9
0 0 20 66.99 14.5
0 0 20 93.39 13.3
-2 0 -20 2659.93 156.58
-2 0 -20 2430.36 156.18
2 0 20 2749.82 156.98
4 0 20 1172.68 77.09
-4 0 -20 1308.47 76.69
-4 0 -20 1206.48 76.49
6 0 20 354.86 30.6
-6 0 -20 406.46 29.5
-6 0 -20 352.06 29.3
-8 0 -20 141.59 15.6
-8 0 -20 102.19 14.7
8 0 20 112.39 16.4
-10 0 -20 1223.48 75.69
-12 0 -20 80.99 13.5
-14 0 -20 9.9 10.9
-13 -1 20 249.97 28.5
-13 1 20 280.27 26.4
-11 -1 20 812.62 53.99
-11 1 20 774.52 54.19
-9 -1 20 29 14.2
-9 1 20 32.4 14.9
7 -1 -20 122.19 18
-7 -1 20 132.19 18.2
-7 -1 20 165.08 17.6
-7 1 20 148.29 18.3
-7 1 20 149.19 17.5
7 1 -20 155.88 18.6
-5 -1 20 1326.37 80.79
5 -1 -20 1300.07 81.59
-5 -1 20 1325.87 81.59
-5 1 20 1244.78 81.39
5 1 -20 1271.37 81.39
-5 1 20 1323.47 80.99
-3 -1 20 9.8 12.5
3 -1 -20 32.6 13.4
-3 -1 20 26.1 10.8
-3 1 20 40.6 11.5
3 1 -20 22.8 13
-3 1 20 24.8 13.7
-1 -1 20 1067.59 68.59
1 -1 -20 1032.3 68.19
-1 -1 20 1074.09 67.29
1 -1 -20 1164.68 68.19
-1 1 20 1109.59 68.49
1 1 -20 1000.9 67.89
-1 1 20 1085.99 67.49
1 1 -20 1055.99 67.79
1 -1 20 937.11 59.99
-1 -1 -20 882.01 59.29
1 -1 20 951.2 58.79
-1 1 -20 960.4 59.29
1 1 20 940.21 58.89
1 1 20 906.81 59.89
-1 1 -20 849.22 58.99
-3 -1 -20 12.4 11.4
3 -1 20 17.7 12.4
-3 -1 -20 25.3 12
-3 1 -20 12 11.8
-3 1 -20 17.4 11.1
3 1 20 19.4 12.8
-5 -1 -20 10.8 11.2
-5 -1 -20 -12.6 11
5 -1 20 14.6 12.3
-5 1 -20 5.2 11.5
-5 1 -20 -13 10.5
5 1 20 -6.2 12.1
7 -1 20 617.44 44.7
-7 -1 -20 687.33 43.7
-7 -1 -20 653.83 44
-7 1 -20 649.64 44.1
7 1 20 602.64 44.6
-7 1 -20 683.83 43.9
-9 -1 -20 -13.6 10.4
-9 -1 -20 1 11.1
-9 1 -20 10 10.7
-9 1 -20 -15.5 11.2
-11 -1 -20 106.79 14.2
-11 1 -20 93.29 14.3
-13 -1 -20 16.7 10.8
-13 1 -20 13.7 11.3
-15 -1 -20 128.99 14.1
-15 1 -20 119.19 14.8
-14 -2 20 580.34 43.6
-14 2 20 590.44 44.4
-12 -2 20 21.4 14.8
-12 2 20 42.7 15.8
-10 -2 20 18.1 14.1
-10 2 20 24.7 14.7
8 -2 -20 95.79 17
-8 -2 20 104.59 15.8
-8 -2 20 128.09 17.5
-8 2 20 122.69 17.9
-8 2 20 147.29 16.9
8 2 -20 117.59 17.5
-6 -2 20 532.05 38.7
-6 -2 20 524.85 40.4
6 -2 -20 518.85 40
-6 2 20 583.64 39.3
-6 2 20 562.44 40.8
6 2 -20 553.44 39.9
-4 -2 20 133.79 17.8
-4 -2 20 169.68 17.2
4 -2 -20 153.38 18.2
4 2 -20 159.78 18
-4 2 20 103.09 17.3
-4 2 20 194.68 17.6
-2 -2 20 5752.02 321.47
2 -2 -20 5590.64 321.77
-2 -2 20 5571.74 321.87
2 -2 -20 5282.67 321.57
-2 2 20 5370.06 321.47
2 2 -20 5384.76 321.67
-2 2 20 5259.87 321.67
2 2 -20 5357.26 321.57
0 -2 -20 313.77 27.9
0 -2 20 321.47 28.3
0 -2 20 293.37 25.4
0 -2 -20 337.37 27.2
0 2 20 308.07 28.3
0 2 -20 261.77 27
0 2 20 320.57 26
0 2 -20 306.87 26.8
-2 -2 -20 7.1 11.5
-2 -2 -20 20.6 11.1
2 -2 20 20.4 12.6
-2 2 -20 3.5 11.4
-2 2 -20 2.2 10.6
2 2 20 -4.1 12.3
4 -2 20 -6 11.5
-4 -2 -20 17.9 11.5
-4 -2 -20 4.4 11.2
4 2 20 9.9 11.7
-4 2 -20 -1 10.8
-4 2 -20 -0.3 10.6
6 -2 20 302.87 27.4
-6 -2 -20 305.87 25.9
-6 -2 -20 303.87 25.4
6 2 20 237.28 25.8
-6 2 -20 282.37 25.6
-6 2 -20 310.27 25.6
-8 -2 -20 653.03 44.7
8 -2 20 663.93 46.3
-8 -2 -20 655.83 44.4
-8 2 -20 683.03 45.2
-8 2 -20 701.23 44.8
8 2 20 658.73 45.5
-10 -2 -20 14.2 10.9
-10 2 -20 19.3 11.4
-12 -2 -20 249.97 23
-12 2 -20 272.87 24.3
-14 -2 -20 -6.1 9.9
-14 2 -20 6.7 11.6
-13 -3 20 57.49 15.8
-13 3 20 33.9 15.7
-11 -3 20 15.2 14
-11 3 20 6.6 15
-9 -3 20 259.47 24.6
-9 3 20 259.27 25.1
-7 -3 20 1299.97 87.29
7 -3 -20 1453.55 88.19
-7 -3 20 1478.55 87.19
-7 3 20 1242.28 87.59
-7 3 20 1470.25 87.79
7 3 -20 1489.45 87.99
5 -3 -20 46.6 13.7
-5 -3 20 41.7 11.5
-5 -3 20 19.7 13.1
-5 3 20 48.9 12
5 3 -20 37.9 13.7
-5 3 20 24.9 13.8
-3 -3 20 338.37 29.7
3 -3 -20 282.07 28.2
-3 -3 20 306.67 26.1
-3 3 20 307.57 28.7
-3 3 20 334.97 26.9
3 3 -20 340.57 28.6
-1 -3 20 739.23 51.99
-1 -3 20 804.22 50.99
1 -3 -20 735.43 51.79
1 -3 -20 822.82 51.69
1 3 -20 803.02 51.59
1 3 -20 706.03 51.59
-1 3 20 769.82 50.79
-1 3 20 856.21 52.89
-1 -3 -20 162.48 17.4
1 -3 20 193.58 17.3
-1 -3 -20 144.09 17.7
1 -3 20 135.29 18.2
-1 3 -20 150.98 17.1
1 3 20 135.49 18.1
-1 3 -20 152.38 17.1
-3 -3 -20 7.4 11.7
3 -3 20 17.4 12.1
-3 -3 -20 2.9 10.3
-3 3 -20 11.9 10.8
-3 3 -20 -3.5 10.8
3 3 20 2.3 12.4
-5 -3 -20 536.75 36.9
5 -3 20 525.15 37.6
-5 -3 -20 496.85 36.4
-5 3 -20 509.55 36.7
5 3 20 533.85 37.5
-5 3 -20 458.95 36.4
-7 -3 -20 466.15 34.7
-7 -3 -20 476.05 34.3
7 -3 20 445.96 35.6
-7 3 -20 489.05 34.4
7 3 20 468.45 35.4
-7 3 -20 477.85 34.9
-9 -3 -20 40.6 12.2
-9 -3 -20 43.2 12.4
-9 3 -20 64.99 13
-11 -3 -20 -5.6 10.7
-11 3 -20 -6.5 11.1
-13 -3 -20 294.87 24.4
-13 3 -20 318.57 26.1
-14 -4 20 28.2 15.2
-14 4 20 13.6 15.7
-12 -4 20 6.9 14.1
-12 4 20 -1.3 14.8
-10 -4 20 102.99 17.8
-10 4 20 134.79 18.8
-8 -4 20 331.37 27.7
-8 -4 20 292.17 29.7
8 -4 -20 325.37 30.9
-8 4 20 315.07 30.8
-8 4 20 379.76 35.6
8 4 -20 336.97 30
-6 -4 20 254.87 24.3
6 -4 -20 309.47 27.4
-6 -4 20 259.37 26.5
-6 4 20 213.48 24.8
6 4 -20 279.37 26.9
-6 4 20 264.97 25.4
-4 -4 20 199.88 18.6
-4 -4 20 188.38 20.5
4 -4 -20 183.88 20
-4 4 20 180.88 18.2
-4 4 20 135.59 19.1
4 4 -20 189.58 19.7
-2 -4 20 134.59 15.6
-2 -4 20 117.19 16.6
2 -4 -20 124.49 16.9
2 -4 -20 141.99 16.5
-2 4 20 134.49 17.4
2 4 -20 136.19 16.5
-2 4 20 119.79 15.5
0 -4 -20 2929.61 175.08
0 -4 -20 2988.6 175.28
0 -4 20 2997.1 174.78
0 -4 20 2799.22 175.18
0 4 -20 3043.8 175.18
0 4 -20 2651.23 174.68
0 4 20 3104.69 175.68
0 4 20 2933.31 174.78
-2 -4 -20 16.1 11.8
2 -4 20 11 12.3
-2 -4 -20 11 11.7
2 4 20 8.4 12.3
-2 4 -20 23.7 11.7
-2 4 -20 13 11.5
-4 -4 -20 544.85 37.8
4 -4 20 508.65 38.9
-4 -4 -20 506.85 38
-4 4 -20 546.45 38.1
-4 4 -20 575.04 38.1
4 4 20 505.75 38.6
-6 -4 -20 1452.45 89.09
-6 -4 -20 1450.95 88.69
6 -4 20 1534.35 89.89
6 4 20 1421.36 89.19
-6 4 -20 1377.76 88.69
-6 4 -20 1436.26 89.29
-8 -4 -20 -6.5 11.2
-8 -4 -20 24.7 11.8
8 -4 20 17.2 13.8
-8 4 -20 20.8 11.6
8 4 20 25.1 12.7
-8 4 -20 2.7 11.1
-10 -4 -20 -10.4 10.8
-10 4 -20 -9.7 11
-12 -4 -20 173.98 16.6
-12 4 -20 160.88 17.5
-14 -4 -20 139.59 14.3
-14 4 -20 131.79 16
-13 -5 20 -6.3 14
-13 5 20 -31.1 14.4
-11 -5 20 62.19 15.5
-11 5 20 41.3 16
-9 -5 20 171.48 20.2
-9 5 20 158.58 21
-7 -5 20 233.48 23
7 -5 -20 250.27 26.6
-7 -5 20 212.18 21.7
7 5 -20 239.58 22.3
-7 5 20 176.68 22.2
-7 5 20 223.38 24.3
-5 -5 20 179.08 19.1
5 -5 -20 198.88 21.1
-5 -5 20 243.08 22.6
-5 5 20 227.78 21.1
5 5 -20 188.48 20.6
-5 5 20 169.58 21
-3 -5 20 271.07 26.6
3 -5 -20 258.17 26.6
-3 -5 20 285.17 24.2
-3 5 20 293.27 24.9
3 5 -20 248.58 25.6
-3 5 20 240.38 27.2
-1 -5 20 3058.89 184.38
1 -5 -20 3077.89 184.48
1 -5 -20 3139.49 184.28
-1 -5 20 3256.97 183.98
1 5 -20 2774.72 183.78
1 5 -20 3223.08 184.28
-1 5 20 3096.99 184.68
-1 5 20 3057.29 183.98
1 -5 20 384.66 32.8
-1 -5 -20 425.56 31.9
-1 -5 -20 389.96 32.2
1 -5 20 422.46 31.1
-1 5 -20 423.56 31.8
-1 5 -20 392.86 31.9
1 5 20 417.86 32.8
3 -5 20 168.28 19.2
-3 -5 -20 219.78 22.6
-3 -5 -20 199.38 19.8
3 5 20 188.48 19.8
-3 5 -20 171.38 18.3
-3 5 -20 222.58 22.3
5 -5 20 148.79 18
-5 -5 -20 153.08 17.3
-5 -5 -20 157.18 17.2
5 5 20 122.69 17.1
-5 5 -20 163.88 17.7
-5 5 -20 154.18 17.3
-7 -5 -20 198.88 22.5
7 -5 20 238.58 24.7
-7 -5 -20 202.08 21.5
-7 5 -20 239.88 23.1
7 5 20 224.08 21
-7 5 -20 167.58 18.8
-9 -5 -20 1262.97 73.99
-9 -5 -20 1151.08 74.19
-9 5 -20 1162.88 74.39
-11 -5 -20 69.19 12.4
-11 5 -20 70.49 13.6
-13 -5 -20 43.8 10.8
-13 5 -20 41 12.6
-14 -6 20 250.27 24.3
-14 6 20 237.58 26.6
-12 -6 20 849.81 57.29
-12 6 20 863.51 59.09
-10 -6 20 134.29 18.7
-10 6 20 129.89 19.5
-8 -6 20 52.09 14.6
-8 6 20 31 15.5
-6 -6 20 61.29 12.6
6 -6 -20 60.39 15
-6 -6 20 60.09 14.9
6 6 -20 45.1 14.8
-6 6 20 56.99 13.3
-6 6 20 47.6 15.1
-4 -6 20 1385.96 82.39
4 -6 -20 1297.27 83.29
-4 -6 20 1295.47 82.99
4 6 -20 1296.77 82.69
-4 6 20 1303.87 83.79
-4 6 20 1370.66 82.99
-2 -6 20 62.29 14.5
2 -6 -20 51.49 13.6
2 -6 -20 74.19 13.5
-2 -6 20 43.2 11.6
-2 6 20 41.8 12.2
-2 6 20 70.29 15
2 6 -20 49 13
0 -6 -20 11.1 13.1
0 -6 -20 -5.9 10.6
0 -6 20 14.8 10.5
0 -6 20 14.9 13
0 6 -20 13.4 11.5
0 6 -20 -1.2 11.7
0 6 20 2.5 12.9
-2 -6 -20 30.2 13.1
2 -6 20 26.8 12.9
-2 -6 -20 54.29 12.7
-2 6 -20 27.2 11.5
2 6 20 34.2 13.4
-2 6 -20 31.1 12.6
-4 -6 -20 240.78 24.7
4 -6 20 238.58 25.8
-4 -6 -20 287.67 25.3
4 6 20 213.18 22.9
-4 6 -20 308.07 25.4
-4 6 -20 271.57 24.8
-6 -6 -20 135.89 16.8
6 -6 20 115.19 17.1
-6 -6 -20 117.39 15.6
6 6 20 118.19 16.4
-6 6 -20 113.49 15.5
-6 6 -20 121.59 16.2
-8 -6 -20 846.12 57.99
-8 -6 -20 906.41 57.69
-8 6 -20 934.51 58.09
8 6 20 913.41 58.39
-10 -6 -20 853.41 52.89
-10 6 -20 794.42 53.79
-12 -6 -20 9.3 10.1
-12 6 -20 10.3 11.8
-14 6 -20 60.49 13.8
-13 -7 20 30.3 14.4
-13 7 20 -14.9 15.5
-11 -7 20 1051.89 67.99
-11 7 20 1046.6 69.59
-9 -7 20 -17.3 13.2
-9 7 20 -10.3 14.6
-7 -7 20 20.1 11.1
7 -7 -20 11.2 14.4
-7 -7 20 12.1 14
7 7 -20 24.9 14.1
-7 7 20 17.1 12.3
-7 7 20 -13.3 14.4
-5 -7 20 525.65 41.6
5 -7 -20 570.64 42.5
-5 -7 20 587.44 40.2
5 7 -20 615.54 41.5
-5 7 20 577.14 43.1
-5 7 20 569.74 41.5
-3 -7 20 971.4 65.89
3 -7 -20 1019.8 66.49
-3 -7 20 1103.19 65.09
-3 7 20 1075.49 65.89
3 7 -20 999.7 65.49
-3 7 20 954.7 66.69
1 -7 -20 137.29 16.7
-1 -7 20 131.59 17.7
-1 -7 20 153.88 16.2
1 -7 -20 143.49 17.7
-1 7 20 159.08 16.8
-1 7 20 136.79 18.8
1 7 -20 96.39 15.9
1 7 -20 138.89 17.1
-1 -7 -20 87.79 14.6
-1 -7 -20 78.39 15.1
1 -7 20 119.89 16.9
1 -7 20 97.19 13.7
-1 7 -20 100.89 15
1 7 20 95.29 15.7
-1 7 -20 85.39 14.8
3 -7 20 1.3 13
-3 -7 -20 18.8 12.1
-3 -7 -20 19.5 12
-3 7 -20 6.1 12
-3 7 -20 25.4 12.2
3 7 20 5.6 12.4
-5 -7 -20 123.49 16.6
5 -7 20 132.39 17.7
-5 -7 -20 115.39 15.3
-5 7 -20 134.29 16.6
5 7 20 94.89 16
-5 7 -20 117.79 16.3
-7 -7 -20 -4 10.9
-7 -7 -20 -1.5 11.5
7 -7 20 -3.3 13.3
-7 7 -20 -7.7 11.4
-7 7 -20 1.2 12
7 7 20 -2.9 12
-9 -7 -20 1267.27 78.99
-9 7 -20 1294.57 79.79
-11 -7 -20 29.3 10.9
-11 7 -20 19.6 12.1
-13 -7 -20 83.09 13
-13 7 -20 128.39 16
-14 -8 20 40.1 15.3
-14 8 20 48 18.5
-12 -8 20 113.39 18.4
-12 8 20 112.99 20.7
-10 -8 20 49.5 14.9
-10 8 20 36.5 16.8
-8 -8 20 306.67 30
-8 8 20 319.57 31.8
6 -8 -20 24.4 15
-6 -8 20 25.4 13.5
-6 -8 20 49.5 12
-6 8 20 40.1 15.1
6 8 -20 23.1 13.5
-6 8 20 14.3 12.7
4 -8 -20 432.56 36.6
-4 -8 20 465.65 35.9
-4 -8 20 482.25 34
4 8 -20 449.46 35.4
-4 8 20 498.35 35.9
-4 8 20 417.16 37.3
2 -8 -20 -0.3 13.3
-2 -8 20 -15.8 8.9
-2 -8 20 2.5 12.6
2 -8 -20 -6.5 11.8
2 8 -20 11.6 12.2
-2 8 20 8.7 14
-2 8 20 -4.9 10.7
0 -8 -20 1292.87 84.29
0 -8 20 1364.96 84.59
0 -8 20 1531.55 83.79
0 -8 -20 1385.66 84.59
0 8 20 1100.19 84.29
0 8 -20 1320.97 83.99
0 8 -20 1446.86 84.39
-2 -8 -20 132.49 16.7
2 -8 20 139.29 17.6
-2 -8 -20 116.19 16.5
-2 8 -20 90.89 15.8
-2 8 -20 126.39 16.5
2 8 20 142.09 18
-4 -8 -20 187.58 19.3
4 -8 20 181.08 20.7
-4 -8 -20 165.58 18.6
-4 8 -20 204.18 20
4 8 20 159.28 20
-4 8 -20 184.18 18.8
6 -8 20 1543.45 94.19
-6 -8 -20 1533.85 92.49
-6 -8 -20 1543.65 93.29
-6 8 -20 1454.05 92.69
-6 8 -20 1564.54 93.69
6 8 20 1397.76 92.89
-8 -8 -20 32 12.9
-8 -8 -20 14.9 11.7
-8 8 -20 14.6 12.3
-10 -8 -20 45.4 12
-10 8 -20 44.1 13.3
-12 -8 -20 172.38 19.6
-12 8 -20 189.38 19.3
-13 -9 20 143.59 19.4
-13 9 20 152.68 22.5
-11 -9 20 -5.5 13.9
-11 9 20 19.1 17.1
-9 -9 20 434.46 36.2
-9 9 20 451.35 38.2
-7 -9 20 162.48 19.5
7 -9 -20 190.78 22.1
-7 9 20 143.39 20.8
-5 -9 20 107.89 16.4
5 -9 -20 98.59 18.5
-5 -9 20 106.49 14.6
-5 9 20 89.49 18.3
5 9 -20 105.09 16.5
-5 9 20 125.89 17.1
-3 -9 20 673.13 48
3 -9 -20 694.93 48.4
-3 -9 20 746.93 46.5
-3 9 20 652.53 49.1
-3 9 20 676.93 47.4
3 9 -20 676.63 47.6
1 -9 -20 203.18 22.7
-1 -9 20 261.47 26.9
-1 -9 20 315.27 24
1 -9 -20 242.58 26.5
1 9 -20 270.37 26.1
-1 9 20 249.08 24.6
1 -9 20 -3.3 12.8
1 -9 20 -8.6 10
-1 -9 -20 23.8 12.5
-1 -9 -20 6.3 12.4
1 9 20 17.9 13.8
-1 9 -20 1 11.8
-1 9 -20 -4.3 12.2
-3 -9 -20 21.8 12.9
3 -9 20 -2.8 13.4
-3 -9 -20 14.1 12.3
3 9 20 2.5 13.4
-3 9 -20 20.4 13
-3 9 -20 6 12
5 -9 20 459.45 38.3
-5 -9 -20 502.05 36.5
-5 -9 -20 471.65 36
5 9 20 486.85 37.3
-5 9 -20 491.75 36.7
-5 9 -20 525.25 37.5
-7 -9 -20 73.79 14.5
-7 -9 -20 64.19 13.3
-7 9 -20 47.9 14
7 9 20 62.69 18.8
-9 -9 -20 608.94 39.8
-9 9 -20 530.85 40.6
-11 -9 -20 20.1 11.1
-11 9 -20 10 12.5
-13 -9 -20 13.1 10.1
-13 9 -20 13.7 12.9
-14 10 20 8.4 19.5
-12 -10 20 33.9 15.4
-12 10 20 11.5 16.8
-10 -10 20 34.1 15.4
-10 10 20 9.4 16.2
-8 -10 20 54.49 15.7
-8 10 20 79.89 17.8
6 -10 -20 2.3 15
-6 -10 20 14.9 13.7
-6 -10 20 10.7 10.9
6 10 -20 25.7 13.5
-6 10 20 -0.4 12.4
-6 10 20 34.4 15.6
-4 -10 20 344.37 27.8
-4 -10 20 337.27 30.4
4 -10 -20 319.97 31.7
-4 10 20 322.57 32.4
-4 10 20 313.87 29.5
4 10 -20 323.07 29.6
-2 -10 20 13.5 13.8
2 -10 -20 -0.9 12.8
-2 -10 20 -7 10.2
2 -10 -20 -8.5 13.1
2 10 -20 10.1 12.6
-2 10 20 5.2 11.8
-2 10 20 16.6 14.3
0 -10 20 142.19 17.4
0 -10 20 154.38 19.4
0 -10 -20 136.49 18.7
0 -10 -20 201.08 20
0 10 20 183.78 21.1
0 10 -20 147.49 18.9
0 10 -20 218.78 22.2
2 -10 20 84.89 17
-2 -10 -20 106.19 16.1
-2 -10 -20 84.09 16
2 10 20 99.69 17.3
-2 10 -20 80.39 15.5
-2 10 -20 102.39 15.9
4 -10 20 104.29 17.5
-4 -10 -20 91.59 15.9
-4 -10 -20 103.99 15.9
-4 10 -20 76.49 15.2
-4 10 -20 91.89 15.9
4 10 20 86.19 17
-6 -10 -20 513.05 37.2
-6 -10 -20 500.25 36.7
6 -10 20 473.25 39.5
6 10 20 528.35 38.3
-6 10 -20 467.05 37.4
-8 -10 -20 8.1 11.9
-8 10 -20 9.7 12.7
-10 -10 -20 -0.8 11
-10 10 -20 1.4 12.7
-12 -10 -20 40.1 11.6
-12 10 -20 22.3 13.3
-13 -11 20 88.79 17.3
-13 11 20 79.49 20.6
-11 -11 20 19 15.7
-11 11 20 44.6 18.2
-9 -11 20 946.91 64.79
-9 11 20 1041.2 67.69
-7 -11 20 159.88 19.3
-7 11 20 131.29 20.8
5 -11 -20 148.09 21.2
-5 -11 20 207.18 21.5
-5 -11 20 166.38 20.6
-5 11 20 235.38 22.7
5 11 -20 176.98 20.4
-5 11 20 172.68 21.7
-3 -11 20 4.5 13.9
3 -11 -20 9.4 14.5
-3 -11 20 14.9 10.7
-3 11 20 2 14.7
-3 11 20 20.1 12.5
3 11 -20 11.8 13.2
-1 -11 20 1148.69 67.49
1 -11 -20 1089.39 68.99
1 -11 -20 1028.2 68.69
-1 -11 20 1021.5 68.59
-1 11 20 979.6 69.09
1 11 -20 1060.29 68.09
1 -11 20 74.69 16.6
-1 -11 -20 99.49 17.1
-1 -11 -20 64.99 15
1 11 20 95.09 17.1
-1 11 -20 100.29 16.1
-1 11 -20 62.79 14.3
3 -11 20 49.6 15.1
-3 -11 -20 22 13.6
-3 -11 -20 28.1 13.6
-3 11 -20 45 14.4
3 11 20 17.9 14.5
-3 11 -20 40.6 13.8
-5 -11 -20 1839.42 116.19
-5 -11 -20 1904.41 116.89
5 -11 20 1944.51 117.79
-5 11 -20 1888.51 117.39
5 11 20 1853.81 116.99
-5 11 -20 2020.4 116.89
-7 -11 -20 22.1 13
-7 11 -20 51.29 14.3
-9 -11 -20 64.29 13.4
-9 11 -20 59.29 14.8
-11 -11 -20 5.5 11.1
-11 11 -20 19.8 13.7
-13 -11 -20 75.59 12.6
-13 11 -20 79.79 15.9
-12 -12 20 56.19 16.9
-12 12 20 61.69 19.4
-10 -12 20 98.89 17.3
-10 12 20 65.49 19.1
-8 -12 20 318.27 30.6
-8 12 20 339.27 34.5
6 -12 -20 79.99 18.5
-6 -12 20 57.19 16
-6 12 20 78.19 17.8
4 -12 -20 579.34 45.6
-4 -12 20 592.94 44.5
-4 -12 20 631.14 42.9
-4 12 20 649.93 45.1
4 12 -20 614.24 44.5
-4 12 20 601.34 46.3
-2 -12 20 3.7 14.1
2 -12 -20 -10.3 13.6
-2 -12 20 10.4 10.9
2 -12 -20 -4 13.2
-2 12 20 -7.5 14.2
2 12 -20 9.5 13.5
0 -12 20 1422.66 80.69
0 -12 -20 1272.67 81.79
0 -12 20 1217.28 81.49
0 -12 -20 1226.38 81.49
0 12 20 1186.88 81.89
0 12 -20 1350.76 81.19
-2 -12 -20 51.49 14.9
-2 -12 -20 48.8 14.7
2 -12 20 44.6 15.8
-2 12 -20 42.7 14
2 12 20 31 15.7
-2 12 -20 51.59 14.2
-4 -12 -20 43.2 14.6
4 -12 20 49.7 16
-4 -12 -20 29.2 14
4 12 20 48.3 15.7
-4 12 -20 43.5 14.3
-4 12 -20 45.4 14.7
-6 -12 -20 691.23 47.1
-6 12 -20 681.03 48
-8 -12 -20 255.37 24.7
-8 12 -20 224.28 23
-10 -12 -20 439.76 33.6
-10 12 -20 459.25 35.8
-12 -12 -20 315.17 26.4
-12 12 -20 319.57 29.7
-14 -12 -20 72.29 11.9
-13 -13 20 49.6 16.4
-13 13 20 51.79 20.6
-11 -13 20 762.02 53.89
-11 13 20 790.92 57.49
-9 -13 20 3.4 14.1
-9 13 20 12.4 17.1
-7 -13 20 51.19 15.5
-7 13 20 13.5 16.7
-5 -13 20 19.1 14.4
5 -13 -20 3.1 16
-5 13 20 37 16.4
-5 13 20 8.1 13.7
-3 -13 20 951.4 63.69
-3 -13 20 1028.9 62.59
3 -13 -20 876.11 64.19
3 13 -20 1029.3 63.59
-3 13 20 907.81 64.89
-1 -13 20 487.35 33.1
-1 -13 20 408.86 35.7
1 -13 -20 391.06 35
1 -13 -20 424.66 35.4
-1 13 20 359.46 35.9
1 13 -20 394.46 34.5
-1 -13 -20 7.4 13.6
1 -13 20 12.3 14.5
-1 -13 -20 19.4 13.8
-1 13 -20 7.4 13.4
1 13 20 -3.5 14.2
-3 -13 -20 7 13.3
-3 -13 -20 25.7 13.3
3 -13 20 3.7 15.1
3 13 20 10.5 15.1
-3 13 -20 14.6 13.2
-3 13 -20 22.2 13.6
-5 -13 -20 44.9 14.2
5 -13 20 27.3 16.6
-5 13 -20 48.9 14.7
-7 -13 -20 9.9 12.6
-7 13 -20 20.1 14.1
-9 -13 -20 2491.45 145.19
-9 13 -20 2330.57 146.09
-11 -13 -20 -2 11.8
-11 13 -20 7.9 13.4
-13 -13 -20 -14.2 10.9
-12 -14 20 352.26 33.6
-12 14 20 368.36 38.9
-10 -14 20 0.2 14.6
-10 14 20 -7.3 17.1
-8 -14 20 37.2 15.7
-8 14 20 6.4 17
-6 -14 20 405.36 33.7
-6 14 20 366.46 37.2
4 -14 -20 603.14 46.4
-4 -14 20 575.54 44.6
-4 14 20 598.14 45.2
4 14 -20 629.34 44.7
-2 -14 20 154.88 20.6
-2 -14 20 178.48 19.1
2 -14 -20 192.78 23
2 -14 -20 159.38 21.2
-2 14 20 143.39 21.2
2 14 -20 152.68 20
0 -14 -20 136.19 21.2
0 -14 20 150.48 21.1
0 -14 20 220.98 23.4
0 -14 -20 202.88 22
0 14 20 193.58 22.9
0 14 -20 251.37 25.4
-2 -14 -20 605.64 44.1
2 -14 20 516.55 44.9
-2 -14 -20 620.24 44.7
2 14 20 561.14 45.3
-2 14 -20 609.94 44.3
-2 14 -20 649.74 44
4 -14 20 307.77 30.8
-4 -14 -20 207.38 23.3
-4 14 -20 272.47 27.4
-6 -14 -20 179.88 20.2
-6 14 -20 184.18 21.3
-8 -14 -20 588.84 44.3
-8 14 -20 684.33 46.1
-10 -14 -20 164.58 18.6
-10 14 -20 148.19 20.1
-12 -14 -20 -11 11.7
-12 14 -20 -7 13.6
-13 15 20 5.4 19.2
-11 -15 20 79.19 17.2
-11 15 20 87.79 22
-9 -15 20 180.98 22.1
-9 15 20 200.18 25.5
-7 -15 20 33.2 15.5
-7 15 20 51.29 18.4
-5 -15 20 264.17 25.9
5 -15 -20 246.88 27.3
-5 15 20 228.58 26.7
-3 -15 20 99.39 18.7
3 -15 -20 108.89 19.6
3 15 -20 113.89 18.8
-3 15 20 93.69 19.8
1 -15 -20 327.67 35.9
1 -15 -20 363.46 35.4
-1 -15 20 342.67 35.3
-1 -15 20 474.05 33.3
-1 15 20 417.36 37.9
1 15 -20 495.45 35.8
-1 -15 -20 962.2 60.59
1 -15 20 853.21 60.79
1 15 20 819.62 61.29
-1 15 -20 916.11 59.89
3 -15 20 20.7 16.4
-3 -15 -20 4.6 13.7
-3 15 -20 -5.4 14
-3 15 -20 7 14.2
-5 -15 -20 156.48 19.9
-5 15 -20 190.88 20.9
-7 -15 -20 344.17 30
-7 15 -20 308.17 30.5
-9 -15 -20 116.29 16.8
-9 15 -20 104.09 18.1
-11 -15 -20 122.69 16.6
-11 15 -20 115.49 19
-12 16 20 11.2 19.6
-10 -16 20 66.79 17.2
-10 16 20 89.29 21.6
-8 -16 20 64.59 16.8
-8 16 20 22.3 18.5
-6 -16 20 121.09 19.3
-6 16 20 88.09 20.6
-4 -16 20 72.69 16.9
4 -16 -20 47.6 18.8
-4 16 20 74.69 19.6
-2 -16 20 482.95 40.1
2 -16 -20 476.25 41.5
2 16 -20 532.45 40.3
-2 16 20 483.45 42.3
0 -16 20 252.27 23.7
0 -16 20 200.08 23.3
0 -16 -20 137.39 21.7
0 16 -20 208.68 22.6
0 16 20 144.99 23.1
-2 -16 -20 11.2 15.3
2 -16 20 20.7 16.4
-2 16 -20 8.4 14.4
-4 -16 -20 118.09 18.4
4 -16 20 101.49 20.3
-4 16 -20 93.29 17.9
-6 -16 -20 131.09 18.1
-6 16 -20 110.19 18.7
-8 -16 -20 -1.8 13.4
-8 16 -20 10.1 15.1
-10 -16 -20 33.3 13.7
-10 16 -20 17.8 15
-12 16 -20 127.69 19.6
-11 -17 20 19.9 15.7
-11 17 20 11.3 19.5
-9 -17 20 13.5 15.6
-9 17 20 13.7 18.7
-7 -17 20 491.15 38.6
-7 17 20 432.16 42.2
-5 -17 20 9.4 15.7
-5 17 20 16.3 17.8
3 -17 -20 58.49 17.5
-3 -17 20 49 16.6
-3 17 20 33.6 18.1
-1 -17 20 1818.92 119.39
1 -17 -20 1800.32 119.39
-1 17 20 2094.99 121.49
1 17 -20 1998.8 119.49
1 -17 20 -13.5 15.4
-1 -17 -20 -3.2 15
-1 17 -20 -1.1 14.6
-3 -17 -20 -22.8 13.5
3 -17 20 8.8 17.1
-3 17 -20 -16.8 13.9
-5 -17 -20 20.2 14.6
-5 17 -20 27.5 15.2
-7 -17 -20 642.64 47.1
-7 17 -20 682.13 48.6
-9 -17 -20 65.59 15.4
-9 17 -20 41.1 16.1
-11 -17 -20 21.3 13.7
-11 17 -20 -1.1 15.2
-12 18 20 3.9 20.1
-10 -18 20 106.59 19.4
-10 18 20 82.19 23.2
-8 -18 20 113.29 19.9
-8 18 20 112.79 23.8
-6 -18 20 69.49 17.9
-6 18 20 24.5 19.4
-4 -18 20 244.48 25.7
4 -18 -20 222.68 26.8
-4 18 20 268.87 29
-2 -18 20 994.3 68.69
2 -18 -20 1098.19 70.09
-2 18 20 970.4 70.69
0 -18 20 136.19 21.3
0 -18 -20 134.79 21.1
0 18 -20 148.59 21.3
2 -18 20 10.4 17.6
-2 -18 -20 6 15
-2 18 -20 36 16.4
-4 -18 -20 -0.2 15
-4 18 -20 27 15.4
-6 -18 -20 114.29 19.3
-6 18 -20 157.18 20.6
-8 -18 -20 70.99 16.2
-8 18 -20 79.09 17.6
-10 -18 -20 54.49 15.2
-10 18 -20 25.9 16.3
-11 19 20 530.45 48.3
-9 -19 20 29.1 16.3
-9 19 20 28.4 20.7
-7 -19 20 -7.2 15.3
-7 19 20 -4.7 19
-5 -19 20 288.87 32.3
-5 19 20 312.87 32.6
3 -19 -20 22.5 17.7
-3 -19 20 27.6 16.6
-3 19 20 4.5 17.8
1 -19 -20 108.29 20.8
-1 -19 20 160.78 21.6
-1 -19 -20 403.56 38.5
1 -19 20 454.85 41
-1 19 -20 499.85 39.5
-3 -19 -20 14.1 15.6
-3 19 -20 -6 15.3
-5 -19 -20 26.5 16.1
-5 19 -20 32.4 16.9
-7 -19 -20 -17.2 13.8
-7 19 -20 1.7 15.3
-9 -19 -20 71.69 16.3
-9 19 -20 62.09 18
-11 19 -20 46.1 17.3
-12 20 20 33 23.1
-10 -20 20 559.94 42.3
-10 20 20 484.35 48.3
-8 -20 20 -29.8 15.6
-8 20 20 -11.9 19.6
-6 -20 20 13.9 17.3
-6 20 20 0.1 19.5
-4 -20 20 196.28 25.3
-4 20 20 226.68 28.3
-2 -20 20 20.1 16.4
2 -20 -20 0.7 17.3
0 -20 20 54.49 18.9
0 -20 -20 27.2 17.7
-2 -20 -20 584.54 45.8
2 -20 20 534.05 47.5
-2 20 -20 598.04 45.5
-4 -20 -20 204.88 24.7
-4 20 -20 243.08 26.4
-6 -20 -20 51.19 16.9
-6 20 -20 59.69 17.9
-8 -20 -20 25.6 15.5
-8 20 -20 4.6 16
-10 20 -20 154.98 22
-11 21 20 33.8 22.5
-9 -21 20 -0.5 16.3
-9 21 20 -20 20
-7 -21 20 43.5 18
-7 21 20 28.7 21.2
-5 -21 20 37.9 17.8
-5 21 20 16.5 21.6
-3 -21 20 33.5 17.8
3 -21 -20 28.4 19.1
-1 -21 20 453.05 40.6
1 -21 -20 428.36 41
1 -21 20 14.4 18.7
-1 -21 -20 42.6 17.9
-3 -21 -20 4.3 16.5
-3 21 -20 -3.1 16.1
-5 -21 -20 -6.4 15.8
-5 21 -20 18.4 16.8
-7 -21 -20 65.89 17.7
-7 21 -20 82.39 19.1
-9 -21 -20 -10.8 23.6
-9 21 -20 -5.7 16.2
-10 22 20 56.29 23.6
-8 -22 20 -23.7 16.7
-8 22 20 3.1 21
-6 -22 20 15.6 17.2
-6 22 20 -13.3 20.4
-4 -22 20 47.8 18.8
-2 -22 20 332.27 36.1
2 -22 -20 365.46 38.2
0 -22 -20 46.3 18.9
0 -22 20 44.8 19.8
-2 -22 -20 28.9 17.6
-4 -22 -20 7.4 16.3
-4 22 -20 -4 16.4
-6 -22 -20 20.3 16.4
-6 22 -20 18.7 17.5
-8 -22 -20 43.1 16.8
-8 22 -20 46 18.1
-10 22 -20 75.79 19.8
-11 23 20 42.2 24.8
-9 23 20 21.6 23.4
-7 -23 20 44.9 19
-7 23 20 11.6 22.5
-5 -23 20 65.39 19.6
-3 -23 20 1.3 16.9
-1 -23 20 96.99 22.1
1 -23 -20 90.69 21
-1 -23 -20 34.8 18
1 -23 20 5.5 19.8
-3 -23 -20 -8.2 16.9
-5 -23 -20 212.48 25.3
-5 23 -20 203.38 26.1
-7 -23 -20 33.9 17.5
-7 23 -20 16.2 17.7
-9 23 -20 -4.7 16.9
-10 24 20 24.1 24.5
-6 -24 20 10.8 18.3
-4 -24 20 16.2 18.5
2 -24 -20 230.88 29.8
-2 -24 20 277.87 30.1
0 -24 -20 425.06 41.6
0 -24 20 435.06 42.9
-2 -24 -20 -2.4 17.2
-4 -24 -20 -4.3 17
-6 -24 -20 303.37 34
-6 24 -20 309.07 34
-8 24 -20 28.9 18.6
-10 24 -20 87.19 30.6
-7 -25 20 -11.7 17.6
-5 -25 20 10.8 18.2
-3 -25 20 61.79 20.8
-1 -25 20 474.25 44.7
1 -25 -20 468.85 45.6
-1 -25 -20 2.3 18.6
-3 -25 -20 -4 17.5
-5 -25 -20 5.2 17.4
-6 -26 20 13.1 18.9
-4 -26 20 193.78 26.6
-2 -26 20 17.3 20.2
0 -26 -20 22.9 21
-2 -26 -20 28.9 19.4
-4 -26 -20 52.99 20.1
-8 26 -20 118.69 23.7
-5 -27 20 43.1 20.7
-3 -27 20 34.4 20.9
-1 -27 20 -1 20.4
1 -27 -20 -5.5 27.1
-1 -27 -20 53.19 20.9
-3 -27 -20 1.7 18.6
-4 -28 20 36.2 21.1
-2 -28 20 5.6 21.1
0 -28 -20 25 21.5
-2 -28 -20 99.49 23.7
-4 -28 -20 25.7 20.1
-3 -29 20 32 22.4
-1 -29 -20 36.6 21.7
-3 -29 -20 -13.5 19.7
-2 -30 -20 -30.4 20
-3 -31 20 3.6 23
-1 -31 -20 28.5 22.6
-14 0 21 -13.4 14.9
-12 0 21 6.1 15
-10 0 21 2.4 14.2
8 0 -21 23 14
-8 0 21 13.3 13.2
-8 0 21 20.1 13.8
-6 0 21 9.7 13.7
6 0 -21 -2.4 13
-6 0 21 5.4 11.3
-4 0 21 14.6 10.8
4 0 -21 10.5 13.2
-4 0 21 -12.7 13.1
-2 0 21 -7.6 13
-2 0 21 -7.1 9.7
2 0 -21 -2.3 12.3
2 0 -21 16.4 12
0 0 -21 -3.9 12
0 0 21 8.8 10.6
0 0 -21 -13.3 11.2
0 0 21 -15.4 11.7
-2 0 -21 -4 11.3
-2 0 -21 1.8 12
2 0 21 -0.4 12.5
4 0 21 12.7 13.1
-4 0 -21 3.5 11.5
-4 0 -21 -11.3 11.4
6 0 21 12.3 13.2
-6 0 -21 -4.3 11
-6 0 -21 2.2 11.4
-8 0 -21 -11.2 11.1
8 0 21 3 13.2
-8 0 -21 -8.5 11
-10 0 -21 38.6 12.3
-12 0 -21 -7.1 11
-14 0 -21 -3.1 10.6
-13 -1 21 -9.5 14.7
-13 1 21 -12.1 14.9
-11 -1 21 1677.93 100.49
-11 1 21 1550.74 100.39
-9 -1 21 -0.6 13.6
-9 1 21 6.4 13.8
7 -1 -21 749.33 47.7
-7 -1 21 719.03 46
-7 -1 21 561.64 46.7
-7 1 21 684.23 46.4
-7 1 21 579.44 46.8
7 1 -21 720.13 47.5
-5 -1 21 164.58 18.4
-5 -1 21 188.18 20.5
5 -1 -21 186.48 20.2
5 1 -21 191.08 20.5
-5 1 21 151.38 19.9
-5 1 21 215.68 21.9
-3 -1 21 96.89 16.5
3 -1 -21 97.39 16.3
-3 -1 21 146.69 16
-3 1 21 116.59 17.9
-3 1 21 82.29 14.3
3 1 -21 120.79 16.6
-1 -1 21 352.86 30.9
1 -1 -21 361.56 30.4
-1 -1 21 333.87 28.3
1 -1 -21 396.36 29.5
1 1 -21 305.17 28.8
1 1 -21 332.47 29.9
-1 1 21 347.97 28.4
-1 1 21 418.66 31.3
-1 -1 -21 96.59 14.4
1 -1 21 87.19 15.6
-1 -1 -21 118.39 16.7
1 1 21 106.49 16.3
-1 1 -21 124.39 16.3
-1 1 -21 114.29 15.6
3 -1 21 1259.17 81.39
-3 -1 -21 1287.47 80.99
-3 -1 -21 1370.76 80.89
-3 1 -21 1288.97 80.89
-3 1 -21 1316.37 80.79
3 1 21 1268.37 81.29
-5 -1 -21 16.3 12.1
-5 -1 -21 25.7 12.2
5 -1 21 12.1 12.8
-5 1 -21 19.5 12.1
5 1 21 14.4 13
-5 1 -21 15.8 12
7 -1 21 1405.06 84.19
-7 -1 -21 1338.57 83.29
-7 -1 -21 1297.57 82.79
-7 1 -21 1406.16 83.59
7 1 21 1286.97 83.69
-7 1 -21 1328.57 82.99
-9 -1 -21 502.15 34.8
-9 1 -21 452.45 34.6
-11 -1 -21 164.08 17.2
-11 1 -21 163.68 17.5
-13 -1 -21 29.4 11.5
-13 1 -21 -17.1 11.1
-15 -1 -21 157.48 16.1
-14 -2 21 77.59 17.5
-14 2 21 69.79 17.7
-12 -2 21 334.67 30.9
-12 2 21 314.37 32.1
-10 -2 21 750.72 53.59
-10 2 21 829.42 54.49
8 -2 -21 214.58 21.9
-8 -2 21 211.58 22.5
-8 -2 21 167.48 20.6
-8 2 21 164.48 20.6
8 2 -21 171.28 20.8
-6 -2 21 77.59 13.9
6 -2 -21 70.69 15.5
-6 -2 21 67.19 16.3
-6 2 21 50.29 15.6
6 2 -21 65.79 15.2
-6 2 21 67.99 14.1
4 -2 -21 63.39 15.3
-4 -2 21 58.99 12.6
-4 -2 21 55.39 14.4
-4 2 21 47.5 15
-4 2 21 52.09 12.8
4 2 -21 57.49 14.8
2 -2 -21 12.2 12.4
-2 -2 21 -2.1 10.1
2 -2 -21 3.4 12
-2 -2 21 11.9 13.5
2 2 -21 15.1 12.7
-2 2 21 15.4 12.3
-2 2 21 2 10.4
2 2 -21 -8.7 12.4
0 -2 -21 1478.85 89.39
0 -2 21 1390.06 89.49
0 -2 -21 1371.56 88.89
0 -2 21 1512.55 88.59
0 2 -21 1349.47 88.89
0 2 -21 1480.45 89.19
0 2 21 1487.65 88.79
-2 -2 -21 27.3 12.7
-2 -2 -21 15.6 11.4
2 -2 21 31.9 13.3
2 2 21 32 12.7
-2 2 -21 14.6 11.7
-2 2 -21 32.6 12.4
4 -2 21 806.72 53.29
-4 -2 -21 816.62 52.79
-4 -2 -21 774.32 52.19
-4 2 -21 813.12 52.59
-4 2 -21 790.82 52.39
4 2 21 790.02 52.89
-6 -2 -21 155.88 17.3
-6 -2 -21 114.39 15.9
6 -2 21 150.88 18.2
-6 2 -21 134.39 16.4
6 2 21 154.48 17.6
-6 2 -21 114.99 15.8
-8 -2 -21 11.3 11.5
8 -2 21 17.4 20.1
-8 -2 -21 13.9 11.2
-8 2 -21 -0.8 11.1
8 2 21 4.2 12.3
-8 2 -21 3.6 11.5
-10 -2 -21 1358.56 84.29
-10 2 -21 1391.06 84.79
-12 -2 -21 29.5 11.6
-12 2 -21 17 12.3
-14 -2 -21 147.29 16.1
-14 2 -21 169.78 17.5
-13 -3 21 273.07 25.8
-13 3 21 243.58 25.7
-11 -3 21 175.78 21
-11 3 21 176.08 22.1
-9 -3 21 82.99 16.4
-9 3 21 63.19 16.3
-7 -3 21 150.98 18.2
-7 -3 21 106.79 15.3
7 -3 -21 109.09 17.5
-7 3 21 112.29 18
7 3 -21 113.49 17.7
-7 3 21 109.59 16.1
5 -3 -21 14.4 13.1
-5 -3 21 10.4 10.8
-5 -3 21 25.9 13.4
5 3 -21 -10.4 12.9
-5 3 21 13.7 14.2
-5 3 21 6.8 11.4
-3 -3 21 19.3 14.1
-3 -3 21 28.3 11.6
3 -3 -21 43.4 14.2
-3 3 21 33.5 14.8
3 3 -21 49.9 13.9
-3 3 21 47.2 12.2
-1 -3 21 1766.02 109.09
1 -3 -21 1878.91 109.89
1 -3 -21 1707.13 109.79
-1 -3 21 1753.62 109.99
-1 3 21 1813.02 109.29
1 3 -21 1626.34 109.49
-1 3 21 1901.51 110.39
1 3 -21 1927.71 109.89
-1 -3 -21 12.2 12.5
-1 -3 -21 3.7 11.8
1 -3 21 -4.6 12.8
1 -3 21 -4 10.6
-1 3 -21 -4.2 11.4
-1 3 -21 -0.9 10.9
1 3 21 8.8 13.1
3 -3 21 162.98 18.6
-3 -3 -21 117.49 16.6
-3 -3 -21 127.39 16.4
3 3 21 134.89 17.4
-3 3 -21 128.19 16.3
-3 3 -21 110.19 15.7
5 -3 21 183.18 19.5
-5 -3 -21 139.39 17.3
-5 -3 -21 167.38 18.1
-5 3 -21 154.78 17.8
5 3 21 169.88 19.3
-5 3 -21 154.28 17.7
-7 -3 -21 3128.69 185.18
7 -3 21 3086.09 186.08
-7 -3 -21 3112.89 185.78
7 3 21 3121.09 185.88
-7 3 -21 3154.28 185.98
-7 3 -21 3066.99 185.28
-9 -3 -21 182.58 18.1
-9 3 -21 174.58 18.5
-11 -3 -21 34.7 12.1
-11 3 -21 55.09 12.9
-13 -3 -21 175.68 17.1
-13 3 -21 179.58 18.4
-15 -3 -21 3 9.7
-14 -4 21 977.1 64.39
-14 4 21 973.4 65.89
-12 -4 21 49.3 15.9
-12 4 21 44.4 16.7
-10 -4 21 32.5 15.1
-10 4 21 34 16.2
-8 -4 21 735.83 51.39
-8 4 21 766.62 52.39
6 -4 -21 49.9 14.5
-6 -4 21 54.59 12.7
-6 -4 21 72.19 15.2
-6 4 21 63.59 13.9
-6 4 21 70.29 15.7
6 4 -21 54.59 15.1
4 -4 -21 1620.84 96.39
-4 -4 21 1450.15 96.09
-4 -4 21 1552.44 95.29
-4 4 21 1602.14 95.69
-4 4 21 1487.55 96.39
4 4 -21 1579.84 95.99
2 -4 -21 760.82 53.29
-2 -4 21 823.22 53.69
2 -4 -21 859.91 53.39
-2 -4 21 775.22 52.09
-2 4 21 779.92 52.49
2 4 -21 729.83 53.29
-2 4 21 877.11 54.09
0 -4 21 228.28 21.1
0 -4 -21 178.18 19.7
0 -4 21 145.79 18.4
0 -4 -21 202.48 19.5
0 4 -21 155.68 18.3
0 4 21 165.28 19.6
0 4 -21 190.88 18.9
0 4 21 196.88 21
-2 -4 -21 8.1 12.4
2 -4 21 6.9 12.9
-2 -4 -21 3.9 12.1
-2 4 -21 -0.3 11.3
-2 4 -21 14.5 12.1
2 4 21 -3.4 12.8
-4 -4 -21 15.2 12.2
4 -4 21 24.3 13.4
-4 -4 -21 35.6 12.4
-4 4 -21 26.7 12.3
4 4 21 26.4 13
-4 4 -21 15.9 11.8
-6 -4 -21 4460.55 256.97
-6 -4 -21 4458.45 256.37
6 -4 21 4291.27 257.17
-6 4 -21 4491.15 256.47
6 4 21 4002.5 256.57
-6 4 -21 4287.67 256.97
-8 -4 -21 130.39 15.8
-8 -4 -21 97.49 15.3
8 4 21 94.99 16.3
-8 4 -21 96.49 14.6
-10 -4 -21 -7.7 11
-10 4 -21 -2.6 11.3
-12 -4 -21 275.87 23.9
-12 4 -21 270.87 25.2
-14 -4 -21 48.2 11
-14 4 -21 32.3 12.7
-13 -5 21 -11.8 14.2
-13 5 21 0 15.2
-11 -5 21 613.44 43.3
-11 5 21 561.44 44.6
-9 -5 21 15.8 14.7
-9 5 21 7.7 15.5
-7 -5 21 354.36 30
7 -5 -21 389.36 33.2
-7 -5 21 304.97 31.4
7 5 -21 387.56 32.2
-7 5 21 391.16 33.4
-7 5 21 398.56 31.3
-5 -5 21 422.46 33.1
-5 -5 21 486.35 35.6
5 -5 -21 444.76 35.4
-5 5 21 447.66 34.1
5 5 -21 430.36 35.2
-5 5 21 383.06 35.7
-3 -5 21 335.37 31.8
3 -5 -21 401.86 32.6
-3 -5 21 385.96 29.7
-3 5 21 351.86 32.7
-3 5 21 401.46 30.3
3 5 -21 343.67 30.8
-1 -5 21 75.89 12.7
-1 -5 21 33.1 13.3
1 -5 -21 48.2 13.3
1 -5 -21 77.09 15.1
-1 5 21 39.9 14.9
1 5 -21 49.99 13.3
-1 5 21 45 12.2
1 5 -21 32.9 13
-1 -5 -21 227.68 23.8
1 -5 21 201.48 22
-1 -5 -21 157.98 19.8
1 -5 21 242.48 25
-1 5 -21 234.38 23.2
-1 5 -21 227.48 23.9
1 5 21 271.97 25
3 -5 21 43.2 13.9
-3 -5 -21 38.1 13.4
-3 -5 -21 65.59 14.1
-3 5 -21 59.19 13.5
-3 5 -21 39.6 13.4
3 5 21 42.6 14
-5 -5 -21 9.8 12.2
5 -5 21 17 13.7
-5 -5 -21 15.6 12.2
5 5 21 13.2 13.2
-5 5 -21 21 12.1
-5 5 -21 33.8 12.4
7 -5 21 453.25 36.7
-7 -5 -21 459.85 35.1
-7 -5 -21 459.65 34.2
-7 5 -21 448.66 35.5
-7 5 -21 521.25 34.8
7 5 21 446.46 35.7
-9 -5 -21 593.54 40.4
-9 5 -21 587.14 41
-11 -5 -21 34.1 11.6
-11 5 -21 6.3 11.7
-13 -5 -21 100.29 13.4
-13 5 -21 98.79 15.1
-14 -6 21 -17.4 14.5
-14 6 21 0 16.6
-12 -6 21 96.89 17.7
-12 6 21 90.39 19.4
-10 -6 21 416.56 36.4
-10 6 21 495.65 38.3
-8 -6 21 20.4 14
-8 6 21 2.3 15.4
-6 -6 21 0.6 13.6
6 -6 -21 -15.2 13.2
-6 -6 21 5 10.4
-6 6 21 -15 13.9
-6 6 21 17.4 12.4
6 6 -21 10.2 14.1
-4 -6 21 98.49 14.5
-4 -6 21 122.09 17.4
4 -6 -21 105.79 16.8
-4 6 21 89.29 17.1
-4 6 21 117.99 16.4
4 6 -21 107.19 16.2
-2 -6 21 20.8 11
2 -6 -21 21.4 13.1
2 -6 -21 3.6 12.1
-2 -6 21 21.5 13.2
-2 6 21 13.8 11.2
-2 6 21 -7 13.7
2 6 -21 13.9 12.5
0 -6 21 101.39 14.3
0 -6 -21 132.89 15.9
0 -6 21 88.69 16.1
0 -6 -21 120.19 17.1
0 6 21 120.99 16.9
0 6 -21 111.99 16.1
0 6 -21 105.69 15.7
2 -6 21 105.09 16.3
-2 -6 -21 114.69 15.9
-2 -6 -21 91.69 15.9
-2 6 -21 110.59 15.8
-2 6 -21 118.19 16
2 6 21 115.29 17.9
4 -6 21 946.31 65.29
-4 -6 -21 1023.7 64.39
-4 -6 -21 1063.29 65.09
4 6 21 966.2 64.99
-4 6 -21 999.9 64.49
-4 6 -21 1037.8 64.89
-6 -6 -21 96.39 15.6
-6 -6 -21 84.19 14.6
6 -6 21 82.09 15.9
6 6 21 105.29 16.5
-6 6 -21 88.79 15.1
-6 6 -21 58.79 14
-8 -6 -21 55.29 13.5
-8 -6 -21 46.6 13.1
-8 6 -21 35.7 12.9
-10 -6 -21 201.78 21.1
-10 6 -21 202.68 20.1
-12 -6 -21 9.4 10.6
-12 6 -21 6.5 12
-14 -6 -21 57.29 11.4
-14 6 -21 48.2 13.5
-13 -7 21 58.29 16.4
-13 7 21 73.49 19.2
-11 -7 21 118.39 18.6
-11 7 21 118.99 20
-9 -7 21 183.18 20.3
-9 7 21 162.48 22.3
-7 -7 21 60.89 16.7
7 -7 -21 58.19 16.6
-7 -7 21 34.2 15.3
-7 7 21 40.9 17
7 7 -21 70.99 16
-5 -7 21 412.16 35.7
-5 -7 21 473.05 34.2
5 -7 -21 487.95 37.2
-5 7 21 451.85 37.4
5 7 -21 458.05 35.5
-5 7 21 429.76 35
-3 -7 21 3259.97 182.08
3 -7 -21 2741.63 182.28
-3 -7 21 2950.9 182.08
-3 7 21 2932.81 182.78
3 7 -21 3009.5 182.08
-3 7 21 3358.66 182.68
-1 -7 21 -14.5 12.8
1 -7 -21 8.5 13.1
-1 -7 21 -3.4 9.9
1 -7 -21 2.3 11.9
-1 7 21 8 13.8
-1 7 21 -5.1 11.1
1 7 -21 -10.5 11.9
-1 -7 -21 -1 12.2
1 -7 21 7.4 13.1
-1 -7 -21 20.2 11.8
-1 7 -21 -1.1 12
1 7 21 -3.7 13.5
-1 7 -21 9.3 11.4
-3 -7 -21 2202.28 131.89
-3 -7 -21 2239.68 131.69
3 -7 21 2035.5 131.89
-3 7 -21 2171.28 131.99
-3 7 -21 2260.17 131.79
3 7 21 2141.79 132.09
-5 -7 -21 -2.2 12.5
-5 -7 -21 19.4 12.5
5 -7 21 9.1 13.4
5 7 21 20.6 13.7
-5 7 -21 38 12.7
-5 7 -21 14.9 12.6
-7 -7 -21 95.39 15.5
-7 -7 -21 94.09 14.5
-7 7 -21 85.19 14.9
7 7 21 87.59 15.9
-9 -7 -21 460.55 31.9
-9 7 -21 374.76 32.8
-11 -7 -21 341.47 27.7
-11 7 -21 361.96 29.5
-13 -7 -21 77.09 12.7
-13 7 -21 59.99 14.3
-14 -8 21 94.79 17.4
-14 8 21 101.69 20.2
-12 -8 21 85.39 17.8
-12 8 21 84.49 19
-10 -8 21 45.6 14.9
-10 8 21 19.8 16.3
-8 -8 21 308.87 30.5
-8 8 21 316.07 32.1
6 -8 -21 142.89 19.6
-6 -8 21 176.88 17.6
-6 -8 21 118.39 18
-6 8 21 149.69 19
6 8 -21 132.19 18.2
-6 8 21 118.49 19.7
4 -8 -21 4665.33 300.87
-4 -8 21 5373.66 300.47
-4 -8 21 5138.09 300.57
4 8 -21 5100.89 300.57
-4 8 21 4820.82 301.07
-4 8 21 5347.67 301.27
-2 -8 21 181.68 20.3
2 -8 -21 172.48 20.5
-2 -8 21 204.18 19.8
2 -8 -21 206.68 20.9
-2 8 21 180.78 19.6
2 8 -21 174.58 20.1
-2 8 21 186.28 21.8
0 -8 21 76.89 13.4
0 -8 21 78.69 15.8
0 -8 -21 70.59 14.3
0 -8 -21 87.49 15.5
0 8 -21 83.79 14.4
0 8 -21 69.79 14.9
0 8 21 76.49 16.4
2 -8 21 -0.1 13.5
-2 -8 -21 9.7 12.5
-2 -8 -21 4.5 12.5
-2 8 -21 -4.7 11.6
-2 8 -21 3.9 12.5
2 8 21 4.1 13.3
4 -8 21 30.6 14
-4 -8 -21 37.7 13.2
-4 -8 -21 39.8 13.4
-4 8 -21 38.9 13.6
-4 8 -21 66.19 13.9
4 8 21 59.29 15
6 -8 21 188.18 21.8
-6 -8 -21 214.78 19.9
-6 -8 -21 229.68 24.4
6 8 21 219.88 21.4
-6 8 -21 172.28 20.5
-6 8 -21 182.68 19.7
-8 -8 -21 623.34 41.9
-8 8 -21 590.74 42.6
-10 -8 -21 15.5 11.4
-10 8 -21 1.7 12.5
-12 -8 -21 18.4 11.2
-12 8 -21 5.1 12.6
-14 -8 -21 10.1 9.8
-13 -9 21 194.38 21.3
-13 9 21 126.99 22.7
-11 -9 21 258.27 25.4
-11 9 21 274.37 27.6
-9 -9 21 42.2 15.7
-9 9 21 50.69 17.2
-7 -9 21 922.71 60.89
7 -9 -21 981.5 65.99
-7 9 21 865.41 62.19
-5 -9 21 258.87 27.7
5 -9 -21 286.77 29.6
-5 -9 21 269.97 24.9
-5 9 21 290.67 27.8
-5 9 21 236.68 25.8
5 9 -21 274.67 27.8
-3 -9 21 261.37 27.1
3 -9 -21 227.28 23.5
-3 -9 21 237.68 23.2
-3 9 21 218.28 24.9
-3 9 21 217.18 24.2
3 9 -21 236.28 25.3
-1 -9 21 2121.79 121.29
-1 -9 21 1878.91 121.69
1 -9 -21 2014.2 121.99
1 -9 -21 1959.6 122.09
-1 9 21 1955.1 122.49
1 9 -21 2040.6 121.79
-1 -9 -21 258.47 26.7
1 -9 21 254.37 27.5
-1 -9 -21 261.57 26.7
-1 9 -21 249.28 25.9
-1 9 -21 246.88 26.3
1 9 21 261.47 28.1
-3 -9 -21 94.89 16.3
3 -9 21 126.09 18.5
-3 -9 -21 103.89 16.6
-3 9 -21 99.19 16.3
-3 9 -21 133.39 17.5
3 9 21 131.89 18
-5 -9 -21 645.04 46
5 -9 21 663.03 48.3
-5 -9 -21 684.63 46.8
-5 9 -21 662.23 47
5 9 21 769.62 48.1
-5 9 -21 619.44 46.4
-7 -9 -21 10.8 11.7
-7 9 -21 5.9 12.7
-9 -9 -21 130.89 15.9
-9 9 -21 101.89 16.4
-11 -9 -21 9.3 11.5
-11 9 -21 12.8 12.8
-13 -9 -21 216.18 21.2
-13 9 -21 225.18 24.7
-12 -10 21 51.29 16.3
-12 10 21 34.5 18.5
-10 -10 21 3.9 15.2
-10 10 21 -5.6 16.7
-8 -10 21 66.59 15.9
-8 10 21 47.6 18
6 -10 -21 372.16 35
-6 -10 21 355.26 32
6 10 -21 371.46 33.5
-6 10 21 344.97 34.2
-6 10 21 406.36 39.8
-4 -10 21 -4.2 10.5
-4 -10 21 15.4 13.9
4 -10 -21 3.7 14.2
4 10 -21 17.8 13.4
-4 10 21 0.4 12.2
-4 10 21 6.1 15.2
-2 -10 21 655.33 43.1
2 -10 -21 608.64 45.2
-2 -10 21 608.94 44.8
2 -10 -21 589.84 44.4
2 10 -21 655.73 44.6
-2 10 21 601.74 46.3
0 -10 -21 3029 179.48
0 -10 -21 2874.31 179.18
0 -10 21 2936.61 179.38
0 -10 21 3198.08 178.78
0 10 -21 3101.29 179.18
0 10 21 2759.92 179.48
-2 -10 -21 5.7 13.2
-2 -10 -21 -13.4 12.5
2 -10 21 15.7 14.1
2 10 21 30.1 15.4
-2 10 -21 15.6 12.3
-2 10 -21 12.5 13.2
-4 -10 -21 20.2 13.5
4 -10 21 27.7 15.2
-4 -10 -21 19.4 13.4
-4 10 -21 9.7 12.9
-4 10 -21 33.5 13.6
4 10 21 20.1 14.7
6 -10 21 276.77 30.4
-6 -10 -21 245.98 25.2
-6 10 -21 252.37 26.6
-8 -10 -21 -7.9 11.8
-8 10 -21 3.9 12.8
-10 -10 -21 468.45 35
-10 10 -21 490.65 36.6
-12 -10 -21 56.39 12.8
-12 10 -21 76.49 15.3
-14 -10 -21 836.22 52.69
-13 -11 21 32.4 15.9
-13 11 21 26.8 18.8
-11 -11 21 205.58 23.7
-11 11 21 257.67 27.7
-9 -11 21 -5.4 14
-9 11 21 16.6 16.6
-7 -11 21 183.98 21.1
-7 11 21 190.88 23.4
-5 -11 21 168.08 21.5
5 -11 -21 240.58 24.8
-5 11 21 152.18 22.6
-5 11 21 222.38 22.6
5 11 -21 253.07 22.9
-3 -11 21 680.63 44.4
3 -11 -21 639.54 47.1
-3 -11 21 601.44 45.6
-3 11 21 627.94 47.5
3 11 -21 609.94 45.6
-3 11 21 668.23 46.1
1 -11 -21 816.22 58.99
-1 -11 21 1010 58.19
1 -11 -21 854.51 59.49
-1 -11 21 912.31 59.59
-1 11 21 782.42 59.89
1 11 -21 895.91 58.79
-1 -11 -21 -9.1 13
-1 -11 -21 -9.8 12.8
1 -11 21 -13.6 13.7
1 11 21 5.4 14.7
-1 11 -21 -1.8 12.9
-1 11 -21 -14.1 12.1
3 -11 21 -19 13.7
-3 -11 -21 3 13.2
-3 -11 -21 -8.3 13
-3 11 -21 5.9 12.9
3 11 21 -4 14.6
-3 11 -21 -0.3 13.2
5 -11 21 179.28 22
-5 -11 -21 141.59 18.3
5 11 21 134.89 20.3
-5 11 -21 199.08 20.4
-7 -11 -21 -2.5 12.4
-7 11 -21 1.5 13.5
-9 -11 -21 310.37 27.4
-9 11 -21 312.47 29.4
-11 -11 -21 59.69 13.3
-11 11 -21 47.3 14.8
-13 -11 -21 20.5 11.8
-13 11 -21 42 14.3
-12 -12 21 18.7 16.1
-12 12 21 10.5 18.1
-10 -12 21 6.6 14.7
-10 12 21 -4.6 17.4
-8 -12 21 -0.9 14.3
-8 12 21 11.9 16.2
-6 -12 21 15 14.6
6 -12 -21 -13.5 15.6
-6 12 21 11.9 15.7
-4 -12 21 4181.88 227.98
-4 -12 21 3480.85 227.48
4 -12 -21 3639.64 228.78
-4 12 21 4004.2 228.98
4 12 -21 3796.22 228.08
-2 -12 21 320.17 25.9
-2 -12 21 254.97 25.8
2 -12 -21 255.77 29.2
2 -12 -21 291.17 29.4
-2 12 21 228.18 26.1
2 12 -21 275.97 27.7
0 -12 -21 566.24 41.6
0 -12 21 517.05 41.6
0 -12 -21 544.05 42
0 -12 21 571.94 39.8
0 12 -21 566.34 41.3
0 12 21 498.25 42.3
-2 -12 -21 2.8 12.9
-2 -12 -21 7.6 13.9
2 -12 21 6.3 15.1
-2 12 -21 9.6 13.6
2 12 21 -1.4 14.5
-2 12 -21 2.5 13.3
-4 -12 -21 43.9 14.1
4 -12 21 22.3 16
4 12 21 46.1 16.1
-4 12 -21 55.39 15
-4 12 -21 23.3 13.9
-6 -12 -21 -5.8 12.7
-6 12 -21 -1.5 13.6
-8 -12 -21 425.06 33.1
-8 12 -21 413.06 34.7
-10 -12 -21 115.19 16.3
-10 12 -21 121.39 18
-12 -12 -21 -7.6 11.2
-12 12 -21 -5.6 13.3
-13 13 21 7.5 18.7
-11 -13 21 636.64 46
-11 13 21 589.54 49.4
-9 -13 21 30 15.6
-9 13 21 14.6 17.9
-7 -13 21 75.09 16.6
-7 13 21 53.79 18.1
5 -13 -21 51.19 17.7
-5 -13 21 57.19 15.6
-5 13 21 66.79 17.8
-3 -13 21 263.07 29.4
3 -13 -21 259.17 26.2
-3 -13 21 301.57 26.7
-3 13 21 237.78 26.7
3 13 -21 295.97 28.8
1 -13 -21 254.47 30.6
1 -13 -21 341.47 31.3
-1 -13 21 336.57 31.7
-1 -13 21 348.67 28.4
1 13 -21 296.87 30.6
-1 13 21 327.57 32.7
-1 -13 -21 -14.3 13.8
1 -13 21 7.6 14.5
-1 -13 -21 6 14
-1 13 -21 5 13.9
1 13 21 -1.7 14.3
-3 -13 -21 1103.79 73.09
3 -13 21 1102.39 74.39
3 13 21 1024.7 73.79
-3 13 -21 1164.28 73.79
-3 13 -21 1277.07 73.69
5 -13 21 122.99 31
-5 -13 -21 93.59 16.2
-5 13 -21 111.99 17.1
-7 -13 -21 93.89 16
-7 13 -21 83.79 16.3
-9 -13 -21 0.7 12.7
-9 13 -21 -3.4 13.7
-11 -13 -21 153.18 17.7
-11 13 -21 162.58 20.3
-13 -13 -21 44.9 12.8
-12 -14 21 138.39 21.1
-12 14 21 150.18 24.7
-10 -14 21 356.06 32.7
-10 14 21 340.47 37.2
-8 -14 21 -13.6 14.6
-8 14 21 23.2 18.2
-6 -14 21 142.59 20
-6 14 21 149.49 22.7
-4 -14 21 1085.49 69.19
4 -14 -21 1054.49 70.29
-4 14 21 995.2 70.49
-2 -14 21 417.56 38.1
-2 -14 21 532.95 36.3
2 -14 -21 449.76 38.9
-2 14 21 376.76 39
2 14 -21 514.35 38.3
0 -14 -21 35.4 15.3
0 -14 -21 49.8 16.7
0 -14 21 65.39 14
0 -14 21 49.4 16.3
0 14 21 24.3 16.5
0 14 -21 49.5 15.6
-2 -14 -21 39.9 15.8
2 -14 21 44.5 17.2
-2 14 -21 56.49 18.2
2 14 21 53.19 17.3
-2 14 -21 88.09 16.9
-4 -14 -21 240.68 25.6
4 -14 21 190.78 24.3
-4 14 -21 186.28 21.9
-6 -14 -21 25.5 13.8
-6 14 -21 9.6 14
-8 -14 -21 106.79 16.6
-8 14 -21 117.09 18.5
-10 -14 -21 106.89 17
-10 14 -21 149.09 19.2
-12 -14 -21 -4.9 12
-12 14 -21 -3.6 14.2
-13 15 21 40.1 21.1
-11 -15 21 46.5 16.6
-11 15 21 47.3 21.1
-9 -15 21 0.5 14.9
-9 15 21 15.6 18.3
-7 -15 21 140.69 19.4
-7 15 21 89.79 21.5
5 -15 -21 478.65 40.5
-5 -15 21 488.35 37.6
-5 15 21 352.56 39.8
-3 -15 21 788.32 59.19
3 -15 -21 876.81 60.39
-3 15 21 882.51 61.49
3 15 -21 927.71 59.99
-1 -15 21 76.49 17.6
-1 -15 21 70.89 15.3
1 -15 -21 115.09 18.8
1 -15 -21 56.69 17.4
1 15 -21 57.19 17.2
-1 15 21 123.69 20.2
-1 -15 -21 6 14
1 -15 21 -4.5 15.6
1 15 21 13.1 16.3
-1 15 -21 -9.1 13.8
-3 -15 -21 259.97 29
3 -15 21 272.37 27.7
-3 15 -21 262.57 28.6
-5 -15 -21 78.39 16.2
-5 15 -21 77.19 16.7
-7 -15 -21 982.5 67.29
-7 15 -21 1100.69 68.69
-9 -15 -21 206.48 21
-9 15 -21 190.88 22.9
-11 -15 -21 34.7 13.5
-11 15 -21 14.2 15.3
-12 16 21 15.1 20.3
-10 -16 21 51.19 17
-10 16 21 72.19 20.8
-8 -16 21 165.98 21.2
-8 16 21 127.79 23.9
-6 -16 21 5.3 14.8
-6 16 21 25.9 17.7
-4 -16 21 1089.19 72.99
4 -16 -21 1215.68 75.79
-4 16 21 1037.8 75.59
2 -16 -21 334.07 33.7
-2 -16 21 331.47 33.2
-2 16 21 338.47 36.1
2 16 -21 334.47 33.2
0 -16 21 113.49 19.8
0 -16 -21 105.69 19
0 16 -21 97.89 19
0 16 21 172.78 23
2 -16 21 28.1 17.3
-2 -16 -21 10.7 14.7
-2 16 -21 30.1 15.7
-4 -16 -21 206.78 21.7
-4 16 -21 156.78 21
-6 -16 -21 2182.58 133.39
-6 16 -21 2191.98 133.89
-8 -16 -21 64.89 15.7
-8 16 -21 56.89 16.5
-10 -16 -21 21.8 13.9
-10 16 -21 17.9 15.6
-12 16 -21 22.1 25.6
-11 -17 21 56.59 17.4
-11 17 21 36.7 20.8
-9 -17 21 38.6 17.1
-9 17 21 50.19 20.7
-7 -17 21 126.39 20
-7 17 21 110.79 22.3
-5 -17 21 106.59 19.6
-5 17 21 98.39 21.5
-3 -17 21 59.29 18
3 -17 -21 102.19 19.5
-3 17 21 73.49 20.7
1 -17 -21 422.66 38.4
-1 -17 21 406.16 37.9
1 17 -21 473.95 38.3
-1 17 21 429.96 41.3
1 -17 21 3.9 16.1
-1 -17 -21 15.3 15.4
-1 17 -21 -4.2 15.5
-3 -17 -21 12.2 15.9
3 -17 21 -7.4 16.7
-3 17 -21 14.1 15.6
-5 -17 -21 173.78 21.4
-5 17 -21 195.98 22.2
-7 -17 -21 145.09 21.2
-7 17 -21 275.77 27.6
-9 -17 -21 55.99 15.4
-9 17 -21 47.1 16.5
-11 -17 -21 4.6 14.5
-11 17 -21 14.3 15.8
-12 18 21 26.9 20.9
-10 -18 21 136.39 20.8
-10 18 21 97.59 23.5
-8 -18 21 178.68 21.8
-8 18 21 130.19 25.5
-6 -18 21 80.79 18.6
-6 18 21 77.39 21.5
4 -18 -21 46.7 18.9
-4 -18 21 48.5 17.6
-4 18 21 46.7 19.9
-2 -18 21 96.29 19.1
2 -18 -21 87.29 19.4
-2 18 21 101.39 21.8
0 -18 -21 360.66 32.4
0 -18 21 248.48 29
0 18 -21 276.17 29.1
2 -18 21 1.9 17.7
-2 -18 -21 17.6 15.7
-2 18 -21 8.5 15.9
-4 -18 -21 96.19 18.5
-4 18 -21 82.69 18.8
-6 -18 -21 130.09 19
-6 18 -21 107.99 19.6
-8 -18 -21 53.89 15.6
-8 18 -21 70.19 17.8
-10 -18 -21 129.39 18.4
-10 18 -21 137.49 20.2
-11 19 21 62.39 22.6
-9 -19 21 17.7 16.4
-9 19 21 -9.5 19.4
-7 -19 21 177.08 23.2
-7 19 21 152.08 25.6
-5 -19 21 19.8 17.3
-5 19 21 -9.5 18.7
3 -19 -21 65.29 19.9
-3 -19 21 65.99 18.4
-3 19 21 74.99 21.4
1 -19 -21 24 17.5
-1 -19 21 18.2 16.8
-1 -19 -21 15.7 16.8
1 -19 21 14.4 17.5
-1 19 -21 23 16.8
-3 -19 -21 38.1 17
-3 19 -21 40.6 17.4
-5 -19 -21 24.1 15.6
-5 19 -21 23.2 16.7
-7 -19 -21 432.26 36.6
-7 19 -21 425.26 37.9
-9 -19 -21 8.1 14.6
-9 19 -21 19.2 16.5
-11 19 -21 5.4 16.6
-10 20 21 169.58 27.7
-8 -20 21 3.1 16.8
-8 20 21 4.1 21
-6 -20 21 -3 16.9
-6 20 21 20 20.3
-4 -20 21 26.9 17.7
-4 20 21 39.9 21.6
2 -20 -21 -12.6 16.9
-2 -20 21 -12.5 16.5
0 -20 21 27.6 18.2
0 -20 -21 16.8 16.8
2 -20 21 5.9 18.8
-2 -20 -21 -9.8 16.1
-2 20 -21 11.2 17.2
-4 -20 -21 291.37 31.3
-4 20 -21 221.58 26.7
-6 -20 -21 26.7 16.4
-6 20 -21 54.19 17.7
-8 -20 -21 -12.8 14.2
-8 20 -21 -12.4 15.9
-10 20 -21 302.77 33.5
-11 21 21 842.52 65.39
-9 -21 21 -16.2 16.8
-9 21 21 15.4 21
-7 -21 21 98.59 19.9
-7 21 21 55.79 23.5
-5 -21 21 197.28 23.7
-5 21 21 119.19 25.9
3 -21 -21 -2.7 19.1
-3 -21 21 48.4 18.4
1 -21 -21 47.6 18.9
-1 -21 21 65.09 19.9
-1 -21 -21 65.59 19
1 -21 21 20.4 20
-3 -21 -21 759.92 60.49
-3 21 -21 985.5 62.39
-5 -21 -21 -19.9 15.6
-5 21 -21 -15.3 16.1
-7 -21 -21 5.9 15.4
-7 21 -21 -10.3 16.5
-9 21 -21 149.29 22.9
-10 22 21 87.59 25.5
-8 -22 21 -2.9 17.5
-8 22 21 13.1 21.5
-6 -22 21 -11.7 17.3
-4 -22 21 -23.3 16.8
-2 -22 21 34 18.8
2 -22 -21 27.7 19.7
0 -22 21 78.69 21.3
0 -22 -21 76.89 20.7
-2 -22 -21 8.4 17
-4 -22 -21 82.39 19.3
-4 22 -21 64.69 19.4
-6 -22 -21 427.56 38.6
-6 22 -21 449.76 40.5
-8 -22 -21 124.99 20
-8 22 -21 110.39 21.6
-10 22 -21 381.56 37.2
-11 23 21 21.2 23.6
-9 23 21 34.1 23.6
-7 -23 21 142.69 23.6
-5 -23 21 17.5 18.2
-3 -23 21 -8 17.3
1 -23 -21 138.09 24.3
-1 -23 21 128.99 24.1
-1 -23 -21 32.1 18.5
-3 -23 -21 8.5 17.2
-5 -23 -21 68.29 18.9
-5 23 -21 54.09 20
-7 -23 -21 1294.77 90.69
-7 23 -21 1553.94 92.89
-9 23 -21 74.09 19.9
-10 24 21 1.4 23.1
-6 -24 21 25.3 18.5
-4 -24 21 178.58 25.8
2 -24 -21 21.4 20.2
-2 -24 21 5.3 18.9
0 -24 -21 242.78 28.3
0 -24 21 237.08 29.8
-2 -24 -21 15.9 18.4
-4 -24 -21 50.19 19.1
-6 -24 -21 343.87 37.4
-6 24 -21 435.56 39.7
-8 24 -21 16.4 18.7
-7 -25 21 27.6 19.6
-5 -25 21 32.9 19.5
-3 -25 21 45.7 20.2
-1 -25 21 189.78 28.4
1 -25 -21 234.38 29.3
-1 -25 -21 35.8 20
-3 -25 -21 46.3 19.3
-5 -25 -21 130.59 23.4
-7 25 -21 33 19.1
-9 25 -21 36.2 19.5
-6 -26 21 9.1 19.1
-4 -26 21 277.17 31.8
-2 -26 21 -10.2 19.9
0 -26 -21 -1.6 19.8
-2 -26 -21 -10 17.9
-4 -26 -21 156.58 24.6
-5 -27 21 123.49 24
-3 -27 21 381.96 40.6
-1 -27 21 0.4 24
-1 -27 -21 2.1 19.8
-3 -27 -21 99.29 22.8
-4 -28 21 268.77 32.2
-2 -28 21 -2.2 21.3
0 -28 -21 52.09 22.3
-2 -28 -21 -0.7 19.6
-3 -29 21 -4.1 21.6
-1 -29 -21 62.69 23.2
-3 -29 -21 111.29 25.2
-2 -30 -21 6.7 21.6
-3 -31 21 45 33.6
-1 -31 -21 6.8 23.1
-14 0 22 12.4 16.1
-12 0 22 1133.59 73.69
-10 0 22 262.27 28.8
-8 0 22 895.11 59.69
6 0 -22 242.68 27.2
-6 0 22 200.88 23.2
-6 0 22 316.97 25.8
4 0 -22 263.57 24.2
-4 0 22 225.18 23.7
-4 0 22 249.48 24.3
-2 0 22 1260.67 84.69
2 0 -22 1342.07 84.49
-2 0 22 1418.16 84.09
2 0 -22 1388.76 84.69
0 0 -22 313.17 28.1
0 0 -22 312.97 27.4
0 0 22 292.27 28.7
0 0 22 307.47 26.5
-2 0 -22 1981.3 118.99
-2 0 -22 1917.91 119.09
2 0 22 1971.7 119.49
4 0 22 1127.99 74.19
-4 0 -22 1219.78 73.89
-4 0 -22 1146.79 73.29
-6 0 -22 18.8 12.4
-6 0 -22 20.4 12
6 0 22 13.8 13.7
-8 0 -22 4.7 11.7
-10 0 -22 2503.45 149.88
-12 0 -22 32.2 12.4
-14 0 -22 53.19 12.9
-13 -1 22 14.7 15.6
-13 1 22 22.7 16.2
-11 -1 22 622.54 47
-11 1 22 678.83 47.6
-9 -1 22 62.09 15.9
-9 1 22 58.69 16.2
-7 -1 22 77.29 17
-7 -1 22 149.79 16.9
7 -1 -22 134.79 18.8
-7 1 22 82.79 17.6
7 1 -22 112.09 18.5
-7 1 22 162.48 17.8
-5 -1 22 1.9 13.8
-5 -1 22 8.1 11.1
5 -1 -22 2.1 13.7
-5 1 22 -3.8 11.2
5 1 -22 5.9 13.9
-5 1 22 1.6 14.5
-3 -1 22 390.26 33.2
-3 -1 22 455.25 31.3
3 -1 -22 359.66 32.8
-3 1 22 415.26 31.6
-3 1 22 356.96 33.6
3 1 -22 379.76 33
-1 -1 22 627.74 41.5
1 -1 -22 577.14 42.7
-1 -1 22 560.64 43.4
1 -1 -22 668.93 42.7
1 1 -22 577.44 42.7
1 1 -22 654.13 42.5
-1 1 22 549.74 41.4
-1 1 22 577.74 43.4
-1 -1 -22 37.8 12.4
1 -1 22 51.39 14.8
-1 -1 -22 51.39 13.4
1 1 22 49.6 14.8
-1 1 -22 38.1 13.5
-1 1 -22 33.8 12.3
3 -1 22 1367.46 84.49
-3 -1 -22 1314.07 83.69
-3 -1 -22 1475.65 84.09
3 1 22 1266.87 83.99
-3 1 -22 1293.77 83.49
-3 1 -22 1350.76 83.69
5 -1 22 162.88 19.1
-5 -1 -22 134.69 17.2
-5 -1 -22 198.08 18.8
5 1 22 131.19 18.1
-5 1 -22 151.98 17.6
-5 1 -22 137.79 17.5
-7 -1 -22 861.51 54.89
7 -1 22 825.12 56.29
-7 -1 -22 843.72 55.29
-7 1 -22 867.01 55.49
-7 1 -22 838.82 55.09
7 1 22 809.92 56.09
-9 -1 -22 1112.69 69.59
-9 1 -22 1099.79 69.59
-11 -1 -22 10.8 11.8
-11 1 -22 21.2 12.3
-13 -1 -22 111.99 15.2
-13 1 -22 109.99 15.4
-14 -2 22 736.23 52.29
-14 2 22 738.73 52.59
-12 -2 22 109.69 18.1
-12 2 22 86.09 18.8
-10 -2 22 187.28 22.1
-10 2 22 215.58 23.1
-8 -2 22 657.53 47.5
-8 2 22 674.13 48
-6 -2 22 498.35 37.1
6 -2 -22 518.45 38.8
-6 -2 22 480.05 38.7
6 2 -22 502.85 38.9
-6 2 22 515.15 37.6
-6 2 22 477.65 38.9
-4 -2 22 197.68 19.9
-4 -2 22 196.98 21.4
4 -2 -22 192.58 21.3
4 2 -22 225.48 21.7
-4 2 22 168.18 21
-4 2 22 201.88 20.2
2 -2 -22 46 14.2
-2 -2 22 43 12.4
-2 -2 22 56.69 15.3
2 -2 -22 73.99 15.2
-2 2 22 71.19 15.1
2 2 -22 21.1 13.7
-2 2 22 69.79 13
0 -2 22 169.48 19.3
0 -2 22 168.88 17.7
0 -2 -22 160.38 19.7
0 -2 -22 232.38 20.4
0 2 -22 177.58 19.1
0 2 22 151.98 17.6
0 2 22 132.69 18.4
0 2 -22 209.48 19.7
-2 -2 -22 0.1 11
2 -2 22 17 13
-2 -2 -22 1.7 12.7
-2 2 -22 2.3 11.5
-2 2 -22 16.5 12.7
2 2 22 18.9 12.8
4 -2 22 0.9 12.9
-4 -2 -22 11.3 11.9
-4 -2 -22 3.6 12.2
4 2 22 -9.1 12.4
-4 2 -22 15.2 12.3
-4 2 -22 8.9 11.9
-6 -2 -22 5439.86 319.27
6 -2 22 5522.05 320.07
-6 -2 -22 5437.76 319.87
-6 2 -22 5647.14 319.97
6 2 22 5224.98 319.67
-6 2 -22 5195.18 319.17
-8 -2 -22 97.49 15.7
-8 -2 -22 108.79 15.1
-8 2 -22 91.59 14.7
-10 -2 -22 92.69 15.1
-10 2 -22 129.99 15.8
-12 -2 -22 92.09 14.1
-12 2 -22 59.09 14.1
-14 -2 -22 33.1 11.4
-14 2 -22 37.5 13.1
-13 -3 22 10.2 15.2
-13 3 22 1.9 16.1
-11 -3 22 255.97 24.9
-11 3 22 233.88 25.5
-9 -3 22 150.98 20.2
-9 3 22 179.58 21.2
-7 -3 22 501.55 38.6
-7 -3 22 500.35 36.7
7 -3 -22 514.75 39.1
7 3 -22 498.45 38.9
-7 3 22 450.75 37.2
-7 3 22 471.65 38.7
-5 -3 22 9.5 13.5
-5 -3 22 7.1 11
5 -3 -22 23.2 13.8
-5 3 22 3.1 11.5
5 3 -22 0 13.3
-5 3 22 10.7 14.1
3 -3 -22 61.39 15.2
-3 -3 22 49 14.8
-3 -3 22 68.49 13.2
-3 3 22 59.19 16.1
3 3 -22 51.89 15
-3 3 22 70.49 13.4
-1 -3 22 1492.15 91.79
-1 -3 22 1411.46 90.39
1 -3 -22 1442.56 91.19
1 -3 -22 1396.86 91.29
-1 3 22 1540.75 91.99
1 3 -22 1515.15 91.39
-1 3 22 1424.66 90.59
1 3 -22 1533.65 91.19
1 -3 22 34.6 14.2
-1 -3 -22 30.4 12.6
-1 -3 -22 54.79 14.3
-1 3 -22 40.6 12.5
1 3 22 17 13.4
-1 3 -22 49.7 13.7
-3 -3 -22 489.35 36
-3 -3 -22 460.25 35.9
3 -3 22 456.55 37.1
-3 3 -22 508.15 36.1
-3 3 -22 483.05 35.9
3 3 22 467.35 37
-5 -3 -22 231.58 25.2
-5 -3 -22 240.88 25.6
5 -3 22 285.07 27.8
-5 3 -22 306.87 25.8
-5 3 -22 259.37 25.6
5 3 22 232.28 26.7
-7 -3 -22 1394.16 89.09
7 -3 22 1435.36 90.49
-7 -3 -22 1459.65 89.79
7 3 22 1431.36 89.99
-7 3 -22 1513.95 89.99
-7 3 -22 1449.55 89.19
-9 -3 -22 142.29 17.1
-9 3 -22 154.48 17.6
-11 -3 -22 13.2 11.5
-11 3 -22 -0.2 11.8
-13 -3 -22 221.98 21.9
-13 3 -22 236.28 24
-14 -4 22 249.78 25.3
-14 4 22 224.08 26
-12 -4 22 52.39 16.6
-12 4 22 46.8 17.4
-10 -4 22 19.7 15.1
-10 4 22 47.8 16.7
-8 -4 22 431.86 37
-8 4 22 491.55 37.8
6 -4 -22 56.49 15.9
-6 -4 22 68.69 13.9
-6 -4 22 70.19 15.1
6 4 -22 79.49 16
-6 4 22 79.29 15
-6 4 22 68.39 16.4
-4 -4 22 37 15.2
4 -4 -22 36 14.4
-4 -4 22 17.6 11.7
4 4 -22 13.9 14.1
-4 4 22 15.8 14.6
-4 4 22 31.9 12.5
2 -4 -22 9.3 12.1
-2 -4 22 2.5 13.3
2 -4 -22 4.1 13.1
-2 -4 22 6.3 10.7
2 4 -22 25.8 13.3
-2 4 22 28.3 13.8
-2 4 22 11.5 11.3
0 -4 -22 190.38 19.6
0 -4 22 144.09 18.2
0 -4 22 150.78 16.7
0 -4 -22 173.28 19.1
0 4 -22 149.29 17.4
0 4 22 194.98 20.1
0 4 -22 110.59 17.5
-2 -4 -22 224.88 25
-2 -4 -22 231.88 22.3
2 -4 22 237.78 25.6
-2 4 -22 223.78 24.2
2 4 22 194.68 21.4
-2 4 -22 224.08 23.8
4 -4 22 6 13.2
-4 -4 -22 23.6 12.6
-4 -4 -22 42.8 12.9
4 4 22 14.1 13.8
-4 4 -22 8.2 12.2
-4 4 -22 25.1 12.5
-6 -4 -22 306.37 27.5
6 -4 22 362.06 29.9
-6 -4 -22 317.67 28.5
-6 4 -22 288.97 27.4
-6 4 -22 319.07 28.5
6 4 22 296.47 29.3
-8 -4 -22 229.48 23.6
-8 4 -22 236.88 23.7
-10 -4 -22 0.2 11.4
-10 4 -22 -9.5 11.5
-12 -4 -22 52.39 12.8
-12 4 -22 77.69 14.1
-14 -4 -22 479.05 34.6
-14 4 -22 525.75 36.6
-13 -5 22 281.77 30
-13 5 22 290.67 31.9
-11 -5 22 130.29 19.7
-11 5 22 148.09 21.1
-9 -5 22 16.1 15.1
-9 5 22 33.6 16.3
-7 -5 22 14.7 12.2
-7 -5 22 -5.1 13.1
7 -5 -22 -4.8 14.4
-7 5 22 -21.4 14.8
7 5 -22 -7.5 13.9
-5 -5 22 1096.29 69.49
-5 -5 22 1056.99 70.49
5 -5 -22 1103.39 70.79
5 5 -22 1107.39 70.39
-5 5 22 1116.49 69.99
-5 5 22 1044.7 70.69
-3 -5 22 799.12 51.59
3 -5 -22 730.83 53.09
-3 -5 22 718.63 52.69
-3 5 22 789.22 51.79
3 5 -22 792.52 52.79
-3 5 22 814.82 53.69
-1 -5 22 111.69 17.8
-1 -5 22 163.28 16.6
1 -5 -22 169.08 19.2
1 -5 -22 120.99 17.3
-1 5 22 164.88 17.3
-1 5 22 145.19 18.9
1 5 -22 143.69 17.6
1 5 -22 127.69 16.5
1 -5 22 37.9 14
-1 -5 -22 34 13.1
-1 -5 -22 48.5 13.8
-1 5 -22 28.8 12.7
-1 5 -22 34.4 13.6
1 5 22 44.7 14.6
3 -5 22 573.44 43.3
-3 -5 -22 648.84 43.4
-3 -5 -22 574.44 42.5
-3 5 -22 614.94 42.4
3 5 22 562.54 43.1
-3 5 -22 622.84 42.7
5 -5 22 632.54 46.5
-5 -5 -22 644.14 45.1
-5 -5 -22 663.93 45.8
5 5 22 624.04 46
-5 5 -22 649.54 45.1
-5 5 -22 731.13 46.1
-7 -5 -22 1518.95 94.39
-7 -5 -22 1602.94 93.89
7 -5 22 1605.74 102.09
7 5 22 1441.66 94.49
-7 5 -22 1485.65 93.89
-9 -5 -22 72.99 14
-9 5 -22 82.39 14.5
-11 -5 -22 32.9 12.3
-11 5 -22 24.7 12.4
-13 -5 -22 75.59 12.9
-13 5 -22 93.79 15.4
-14 -6 22 548.55 41.4
-14 6 22 517.85 44.1
-12 -6 22 -15.4 14.5
-12 6 22 -13.1 15.5
-10 -6 22 12.4 15.1
-10 6 22 10.2 15.5
-8 -6 22 103.49 17.7
-8 6 22 124.19 19.6
-6 -6 22 9.2 14.6
6 -6 -22 4.8 14.6
-6 -6 22 -5.2 10.8
-6 6 22 -4.7 12.3
6 6 -22 8.8 14.2
-6 6 22 -9.6 14.6
-4 -6 22 6598.44 389.86
4 -6 -22 6517.15 390.26
-4 -6 22 6914.41 389.76
-4 6 22 6470.85 390.36
-4 6 22 6757.42 390.16
4 6 -22 6377.96 389.76
2 -6 -22 300.27 28.4
-2 -6 22 343.27 26.9
2 -6 -22 285.47 28.5
-2 -6 22 309.87 29.4
-2 6 22 299.77 30
-2 6 22 313.27 27.4
2 6 -22 259.67 27.7
0 -6 22 46.8 14.4
0 -6 22 33.6 11.4
0 -6 -22 50.59 14.5
0 -6 -22 40 13.6
0 6 -22 39.4 12.9
0 6 22 38.4 14.3
0 6 -22 42.1 13.7
2 -6 22 195.38 22.9
-2 -6 -22 210.48 21.9
-2 -6 -22 206.98 21.9
-2 6 -22 275.47 25.1
-2 6 -22 259.07 24.9
2 6 22 245.48 23.4
4 -6 22 688.53 49.3
-4 -6 -22 682.93 48.7
-4 -6 -22 702.53 48.2
-4 6 -22 756.22 48.7
-4 6 -22 741.43 48.4
4 6 22 660.43 48.9
-6 -6 -22 3341.77 193.98
6 -6 22 3298.87 194.48
-6 -6 -22 3186.38 193.08
6 6 22 3132.29 193.78
-6 6 -22 3171.98 194.18
-6 6 -22 3322.97 193.58
-8 -6 -22 42.1 12.7
-8 6 -22 29 12.9
-10 -6 -22 287.97 25.4
-10 6 -22 292.47 26.9
-12 -6 -22 10.1 11.1
-12 6 -22 11.8 12.3
-14 -6 -22 23.5 10.8
-13 -7 22 25.6 15.7
-13 7 22 50.79 17.9
-11 -7 22 558.24 41.1
-11 7 22 490.55 42.5
-9 -7 22 8.3 14.2
-9 7 22 -16.8 15.3
-7 -7 22 264.07 25.2
7 -7 -22 240.48 25.9
-7 7 22 274.67 30.3
5 -7 -22 980.8 64.09
-5 -7 22 952.2 62.99
-5 -7 22 976.3 62.09
5 7 -22 963.8 62.99
-5 7 22 836.62 63.59
-5 7 22 1022.5 63.19
-3 -7 22 1262.77 81.39
3 -7 -22 1257.27 81.69
-3 -7 22 1315.17 80.59
3 7 -22 1252.17 81.09
-3 7 22 1268.87 82.19
-3 7 22 1356.46 81.29
1 -7 -22 84.29 16.5
1 -7 -22 114.39 15.9
-1 -7 22 114.29 14.9
-1 -7 22 70.49 16.2
1 7 -22 98.99 15.6
-1 7 22 62.59 16.5
-1 -7 -22 15.3 13.1
1 -7 22 10.4 14.1
-1 -7 -22 -3.6 12.1
-1 7 -22 -2.4 12.2
-1 7 -22 9.9 12.7
1 7 22 6.8 14
3 -7 22 1037.7 67.89
-3 -7 -22 1007.6 67.29
-3 -7 -22 1032.7 67.19
-3 7 -22 1065.59 67.29
3 7 22 1018.5 67.89
-3 7 -22 1090.39 67.29
-5 -7 -22 18.8 12.9
-5 -7 -22 -3.7 12.8
5 -7 22 -2.2 13.1
5 7 22 5.5 13.7
-5 7 -22 6 12.5
-5 7 -22 7.1 12.7
-7 -7 -22 52.59 13.2
-7 7 -22 27.8 13.1
-9 -7 -22 238.78 23.5
-9 7 -22 240.58 25
-11 -7 -22 72.19 13.5
-11 7 -22 81.39 15.1
-13 -7 -22 7.9 11
-13 7 -22 4.7 12.5
-14 8 22 100.09 31.2
-12 -8 22 -12.8 15.2
-12 8 22 8.1 16.7
-10 -8 22 6.1 14.7
-10 8 22 32.8 16.3
-8 -8 22 299.67 30.8
-8 8 22 327.07 32.7
6 -8 -22 266.57 28.8
-6 -8 22 227.38 25.8
-6 -8 22 247.38 24.4
6 8 -22 265.77 27.5
-6 8 22 245.68 26.8
-6 8 22 220.48 25
-4 -8 22 431.66 32.9
4 -8 -22 433.76 36.1
-4 -8 22 425.66 35.2
-4 8 22 427.86 36.7
4 8 -22 428.56 34.6
-4 8 22 398.56 34.2
-2 -8 22 60.29 15.7
2 -8 -22 30.8 14.3
-2 -8 22 55.99 12.5
2 -8 -22 78.49 15.6
-2 8 22 60.09 16.2
-2 8 22 46.8 13.6
2 8 -22 80.59 15.4
0 -8 22 768.62 50.69
0 -8 22 708.53 52.29
0 -8 -22 785.92 52.19
0 -8 -22 744.03 51.89
0 8 -22 786.82 52.19
0 8 -22 841.12 52.09
0 8 22 692.83 52.69
-2 -8 -22 644.84 44.4
-2 -8 -22 565.94 43.6
2 -8 22 611.54 44.5
-2 8 -22 629.14 44
2 8 22 583.54 45
-2 8 -22 659.03 44.1
4 -8 22 141.79 19.1
-4 -8 -22 128.49 17.4
-4 -8 -22 148.19 18.6
-4 8 -22 163.78 18.8
-4 8 -22 135.39 17.9
4 8 22 108.39 18.2
6 -8 22 6.3 14.9
-6 -8 -22 30.7 12.7
-6 -8 -22 19.1 13.7
-6 8 -22 23.2 12.9
6 8 22 -1.3 13.8
-8 -8 -22 19.3 12.3
-8 8 -22 10.1 12.7
-10 -8 -22 589.94 39.4
-10 8 -22 528.15 40.6
-12 -8 -22 15.6 11.5
-12 8 -22 0 13
-14 -8 -22 519.55 35.5
-13 -9 22 76.89 17.8
-13 9 22 138.49 22.4
-11 -9 22 76.59 17.3
-11 9 22 70.49 19.4
-9 -9 22 47.7 16.3
-9 9 22 25.9 17
-7 -9 22 364.16 33.6
-7 9 22 407.76 35.7
5 -9 -22 1126.59 80.99
-5 -9 22 1238.48 80.09
-5 -9 22 1405.56 79.69
-5 9 22 1480.75 81.49
5 9 -22 1254.17 80.39
-5 9 22 1067.49 81.09
3 -9 -22 241.08 25
-3 -9 22 239.18 24.8
-3 -9 22 270.47 28.2
3 9 -22 263.07 27.3
-3 9 22 296.27 29.8
-3 9 22 258.67 26.6
-1 -9 22 987 67.39
-1 -9 22 1171.18 66.39
1 -9 -22 953.2 66.99
1 -9 -22 1060.39 67.59
1 9 -22 1079.69 67.09
-1 9 22 921.31 67.49
-1 -9 -22 30.9 14.6
1 -9 22 42 15.4
-1 -9 -22 41.9 14.6
-1 9 -22 55.79 14.6
1 9 22 43.9 14.9
-1 9 -22 22.7 13.1
-3 -9 -22 740.13 51.79
-3 -9 -22 782.62 52.69
3 -9 22 715.33 52.89
3 9 22 752.42 52.99
-3 9 -22 766.22 52.49
-3 9 -22 826.92 52.19
-5 -9 -22 362.06 31.3
-5 -9 -22 414.56 32.5
5 -9 22 372.26 34.3
5 9 22 365.56 33.4
-5 9 -22 367.76 31.9
-5 9 -22 389.36 32
-7 -9 -22 35 13.1
-7 9 -22 35.4 13.9
-9 -9 -22 96.79 15.4
-9 9 -22 106.49 16.3
-11 -9 -22 42.8 12.9
-11 9 -22 56.29 14.6
-13 -9 -22 462.85 34
-13 9 -22 492.75 36.7
-12 -10 22 32.6 16
-12 10 22 19.2 18.5
-10 -10 22 -15.2 14.9
-10 10 22 -12.8 16
-8 -10 22 130.89 19
-8 10 22 134.19 20.6
6 -10 -22 -16.2 15.4
-6 -10 22 6.3 14
-6 10 22 15.7 15.6
-4 -10 22 34.8 12.5
4 -10 -22 31.3 15.6
-4 -10 22 52.59 15.6
-4 10 22 22.3 13.6
-4 10 22 31.9 16.1
4 10 -22 8.4 13.6
2 -10 -22 387.56 34.7
-2 -10 22 383.36 34.4
2 -10 -22 391.86 34.3
-2 -10 22 481.85 32.8
-2 10 22 389.76 36.2
2 10 -22 394.46 34.1
0 -10 22 420.56 32.2
0 -10 -22 464.35 34.6
0 -10 -22 358.06 34.2
0 -10 22 437.96 35.4
0 10 -22 397.96 33.9
0 10 22 368.86 35.5
-2 -10 -22 22.8 14
-2 -10 -22 17.2 14.2
2 -10 22 28.7 15.4
-2 10 -22 17.2 13.9
-2 10 -22 17.7 13.1
2 10 22 17.6 15.1
-4 -10 -22 63.59 15.2
-4 -10 -22 34.3 14.4
4 -10 22 41.8 15.7
-4 10 -22 52.99 14.3
-4 10 -22 69.99 15.1
4 10 22 69.29 16.5
-6 -10 -22 18.3 12.9
-6 10 -22 -10.5 13.2
-8 -10 -22 40.5 13.2
-8 10 -22 17.5 13.6
-10 -10 -22 -13.2 11.8
-10 10 -22 -6.2 12.9
-12 -10 -22 29.2 12.1
-12 10 -22 35.5 14.2
-13 -11 22 446.76 37.5
-13 11 22 448.76 41.7
-11 -11 22 159.28 21.3
-11 11 22 155.58 24
-9 -11 22 -4.1 14.8
-9 11 22 15.6 16.7
-7 -11 22 1077.09 68.79
-7 11 22 1020.6 70.39
5 -11 -22 5.1 15.5
-5 -11 22 20 15.1
5 11 -22 12.5 14.3
-5 11 22 29.3 13.4
-5 11 22 28.5 16.4
-3 -11 22 172.08 18
3 -11 -22 145.49 20.3
-3 -11 22 92.99 18.1
-3 11 22 164.78 21.7
3 11 -22 161.98 19.8
-3 11 22 165.88 19.9
-1 -11 22 4639.94 249.88
-1 -11 22 4249.57 250.17
1 -11 -22 4191.18 250.17
1 -11 -22 3927.91 250.07
1 11 -22 4144.99 249.78
-1 11 22 4017.2 250.57
-1 -11 -22 71.89 15.7
-1 -11 -22 46.6 15.1
1 -11 22 77.49 17.5
-1 11 -22 50.19 14.6
1 11 22 95.39 18.4
-1 11 -22 51.99 15
3 -11 22 374.06 34
-3 -11 -22 379.96 31.8
-3 -11 -22 353.26 32.4
3 11 22 356.76 33.7
-3 11 -22 363.56 32.2
-3 11 -22 359.66 32.2
-5 -11 -22 154.68 19.3
5 -11 22 173.58 22.2
-5 11 -22 193.48 20.6
-7 -11 -22 5.7 13
-7 11 -22 23.6 14
-9 -11 -22 76.09 15.2
-9 11 -22 62.79 16
-11 -11 -22 -1.5 11.8
-11 11 -22 9.4 13.8
-13 -11 -22 1088.19 67.79
-12 -12 22 34 16.4
-12 12 22 30 19.5
-10 -12 22 68.69 17.2
-10 12 22 56.79 20.5
-8 -12 22 487.85 38.6
-8 12 22 458.55 40.8
-6 -12 22 -23.5 14.1
6 -12 -22 -6.6 18.6
-6 12 22 9.6 16.1
4 -12 -22 1031.2 68.39
-4 -12 22 954 66.69
-4 12 22 1012.8 68.39
-4 12 22 1066.69 67.79
4 12 -22 1009.1 67.29
-2 -12 22 76.09 16.9
2 -12 -22 71.39 20.4
2 -12 -22 43.7 16.4
-2 -12 22 70.99 13.9
2 12 -22 60.09 16.2
-2 12 22 82.19 18.1
0 -12 -22 568.14 42.3
0 -12 -22 597.24 42.9
0 -12 22 587.64 40.4
0 -12 22 540.15 42.5
0 12 22 450.85 42.7
0 12 -22 550.84 41.5
-2 -12 -22 106.89 17.8
2 -12 22 117.99 19.5
-2 -12 -22 118.39 18.2
-2 12 -22 93.59 17.2
-2 12 -22 112.29 17.8
2 12 22 109.89 19.2
-4 -12 -22 107.29 17.3
4 -12 22 84.69 19
-4 12 -22 93.19 17.1
-6 -12 -22 0.1 13.3
-6 12 -22 10.8 14.5
-8 -12 -22 15.4 12.8
-8 12 -22 -10.8 14.1
-10 -12 -22 103.89 15.7
-10 12 -22 98.49 17.3
-12 -12 -22 51.89 13.6
-12 12 -22 65.49 16.2
-13 13 22 32.7 20.2
-11 -13 22 146.49 20.7
-11 13 22 92.79 21.7
-9 -13 22 97.89 18.3
-9 13 22 105.09 21.4
-7 -13 22 30.8 15.6
-7 13 22 48.4 18.4
5 -13 -22 2009.2 118.89
-5 -13 22 1864.11 116.59
-5 13 22 1805.42 118.09
-3 -13 22 1620.04 106.89
3 -13 -22 1780.02 108.29
-3 13 22 1595.64 107.99
3 13 -22 1892.51 107.49
1 -13 -22 36.1 16
-1 -13 22 58.19 13.6
1 -13 -22 40.8 16.1
-1 -13 22 55.19 16.4
-1 13 22 42.1 16.6
1 13 -22 23.3 15.1
1 -13 22 81.59 17.8
-1 -13 -22 79.29 17.5
-1 -13 -22 77.79 17.1
1 13 22 53.49 17.6
-1 13 -22 92.39 17.2
3 -13 22 -5.1 15.8
-3 -13 -22 2.5 14.1
-3 13 -22 36 15.2
3 13 22 4.7 15.8
-3 13 -22 6.1 14.1
-5 -13 -22 28.1 14.1
-5 13 -22 26.7 14.9
-7 -13 -22 69.99 14.9
-7 13 -22 59.39 16
-9 -13 -22 4 12.8
-9 13 -22 7 14.5
-11 -13 -22 121.59 16.8
-11 13 -22 128.49 19.4
-12 -14 22 70.19 18.4
-12 14 22 74.69 21.5
-10 -14 22 30.1 16.2
-10 14 22 47.2 19.6
-8 -14 22 -13.2 14.7
-8 14 22 16.4 17.9
-6 -14 22 -14.6 15
-6 14 22 22.1 17.2
4 -14 -22 3345.57 192.08
-4 -14 22 3315.37 190.78
-4 14 22 2835.22 191.28
-2 -14 22 138.09 20.2
2 -14 -22 112.19 19.9
2 14 -22 140.49 20.1
-2 14 22 138.39 21.3
0 -14 -22 15.3 14.9
0 -14 -22 2.6 14.6
0 -14 22 -4.8 15.9
0 14 -22 -4.3 14.2
0 14 22 -12.2 15.9
2 -14 22 582.44 46.5
-2 -14 -22 638.04 45.5
-2 14 -22 656.83 45.6
2 14 22 550.04 46.9
-4 -14 -22 46.2 15
4 -14 22 12.5 17.3
-4 14 -22 21.9 15
-6 -14 -22 1002.8 67.69
-6 14 -22 1092.09 68.89
-8 -14 -22 13.9 13.5
-8 14 -22 33.5 15.5
-10 -14 -22 485.25 37.7
-10 14 -22 521.55 39.6
-12 -14 -22 -3.9 12.4
-12 14 -22 -1 14.7
-11 -15 22 158.48 21.3
-11 15 22 155.98 25.2
-9 -15 22 7.9 14.9
-9 15 22 7.1 18.3
-7 -15 22 148.29 20.7
-7 15 22 155.48 24.6
-5 -15 22 39.3 16.5
5 -15 -22 50.59 18.8
-5 15 22 37.2 18.8
3 -15 -22 29.7 17.1
-3 -15 22 37.7 16.2
-3 15 22 8.5 16.8
1 -15 -22 465.75 47.7
1 -15 -22 504.75 39.2
-1 -15 22 371.26 38.4
-1 15 22 401.16 40
1 15 -22 524.25 38.9
-1 -15 -22 26.1 15.5
1 -15 22 11.9 16
1 15 22 13.2 17
-1 15 -22 42 15.6
3 -15 22 442.76 37.7
-3 -15 -22 373.66 34.4
-3 15 -22 345.27 33.8
-5 -15 -22 114.69 18.2
-5 15 -22 106.19 18.4
-7 -15 -22 148.79 18.7
-7 15 -22 124.39 19.7
-9 -15 -22 79.29 15.9
-9 15 -22 82.49 17.3
-11 -15 -22 -3.3 13.2
-11 15 -22 -11 14.7
-12 16 22 -21.1 19.1
-10 -16 22 -18.1 15.2
-10 16 22 -3.3 18.1
-8 -16 22 420.26 36
-8 16 22 372.86 39.9
-6 -16 22 22.1 16.3
-6 16 22 37.6 19.3
4 -16 -22 496.85 41.8
-4 -16 22 457.25 38.8
-4 16 22 413.76 42.2
2 -16 -22 243.08 26.7
-2 -16 22 249.38 26.4
-2 16 22 233.18 27.6
0 -16 -22 306.97 31.7
0 -16 22 296.87 29.7
0 16 -22 334.87 31.8
0 16 22 263.17 29.5
2 -16 22 62.39 18.5
-2 -16 -22 26.3 16
-2 16 -22 16.3 16.1
-4 -16 -22 27.2 15.5
-4 16 -22 22.2 15.7
-6 -16 -22 791.82 54.09
-6 16 -22 759.32 54.79
-8 -16 -22 -0.9 13.7
-8 16 -22 6.3 15.5
-10 -16 -22 18.5 13.7
-10 16 -22 26.4 15.7
-11 -17 22 6.7 16.1
-11 17 22 3.3 19.6
-9 -17 22 83.89 19
-9 17 22 79.29 22.2
-7 -17 22 44.4 16.8
-7 17 22 12.6 18.9
-5 -17 22 38 16.7
-5 17 22 46.5 20
3 -17 -22 -1.9 16.7
-3 -17 22 -8.3 15.4
-3 17 22 17.7 19.1
1 -17 -22 185.08 23.5
-1 -17 22 186.78 23.7
-1 17 22 113.59 24
1 17 -22 229.38 24.8
1 -17 22 18.6 17.5
-1 -17 -22 40.6 16.6
-1 17 -22 51.39 16.9
3 -17 22 124.39 22.6
-3 -17 -22 111.89 20.7
-3 17 -22 210.28 22.5
-5 -17 -22 882.01 61.39
-5 17 -22 937.41 62.29
-7 -17 -22 1337.97 89.19
-7 17 -22 1502.05 90.59
-9 -17 -22 12.9 14.1
-9 17 -22 34.3 16.6
-11 17 -22 8.2 15.8
-12 18 22 33.1 21.5
-10 -18 22 -1.4 16.5
-10 18 22 12.3 19.8
-8 -18 22 60.39 17.7
-8 18 22 33 20.8
-6 -18 22 253.47 26.3
-6 18 22 212.48 28.7
-4 -18 22 155.68 22.2
4 -18 -22 143.39 23.2
-4 18 22 139.59 25.1
-2 -18 22 35 17.2
2 -18 -22 36.1 17.6
-2 18 22 37.3 19.5
0 -18 -22 -13.3 15.7
0 -18 22 10.7 17.2
0 18 -22 -13 16.5
2 -18 22 100.79 21.8
-2 -18 -22 118.49 19.5
-2 18 -22 120.89 20.6
-4 -18 -22 18.6 15.6
-4 18 -22 11.5 15.8
-6 -18 -22 1415.26 91.99
-6 18 -22 1493.95 92.79
-8 -18 -22 -18 13.9
-8 18 -22 -8.1 15.1
-10 -18 -22 46.7 16.3
-10 18 -22 57.79 17.1
-11 19 22 696.13 57.19
-9 -19 22 -25.7 16.1
-9 19 22 12.9 20.2
-7 -19 22 252.87 26.2
-7 19 22 174.18 28.3
-5 -19 22 9.1 17.1
-5 19 22 7.5 19.7
-3 -19 22 106.79 19.8
3 -19 -22 89.39 21.1
-3 19 22 88.39 23
1 -19 -22 349.96 36.3
-1 -19 22 388.86 37.3
1 -19 22 11.2 18.3
-1 -19 -22 -24.2 15
-1 19 -22 12 17.5
-3 -19 -22 1554.04 104.79
-3 19 -22 1783.52 105.69
-5 -19 -22 4.6 15.6
-5 19 -22 45.8 17.7
-7 -19 -22 24.3 15.7
-7 19 -22 22.6 16.9
-9 -19 -22 581.54 45.4
-9 19 -22 661.83 47.5
-11 19 -22 22.2 17.6
-10 20 22 72.19 24.2
-8 -20 22 115.89 21.1
-8 20 22 139.29 26.3
-6 -20 22 15 17.6
-6 20 22 13.1 20.5
-4 -20 22 56.99 19.1
-2 -20 22 5.4 17.3
2 -20 -22 0.7 18
0 -20 22 92.99 21.1
0 -20 -22 82.29 19.7
-2 -20 -22 518.35 45.1
-2 20 -22 613.04 45.8
-4 -20 -22 527.85 43.2
-4 20 -22 546.35 44.4
-6 -20 -22 8.7 15.7
-6 20 -22 -11.4 16.3
-8 -20 -22 3.6 14.9
-8 20 -22 -0.2 16.7
-10 20 -22 442.56 39.4
-11 21 22 15.5 22.6
-9 -21 22 20.1 17.5
-9 21 22 -26.6 20.5
-7 -21 22 28.5 17.7
-7 21 22 29.5 21.9
-5 -21 22 -12.6 16.7
-3 -21 22 12.4 17.7
3 -21 -22 16.2 20.2
1 -21 -22 61.09 20.3
-1 -21 22 55.69 20.3
-1 -21 -22 -19.2 16.2
1 -21 22 -4.6 18.8
-3 -21 -22 50.69 18.2
-3 21 -22 77.09 19.9
-5 -21 -22 99.99 20.4
-5 21 -22 151.18 23.2
-7 -21 -22 203.58 24.4
-7 21 -22 221.48 26.1
-9 21 -22 56.09 18.7
-10 22 22 45.6 24.3
-8 -22 22 190.28 24.8
-8 22 22 184.68 30
-6 -22 22 36.1 18.6
-4 -22 22 -2.2 17.6
2 -22 -22 64.59 21.5
-2 -22 22 96.09 21.7
0 -22 22 39.6 20.4
0 -22 -22 26.6 18.9
-2 -22 -22 126.99 22.4
-4 -22 -22 173.68 23
-4 22 -22 154.58 24.3
-6 -22 -22 438.76 42.1
-6 22 -22 612.74 45
-8 22 -22 -17.5 16.9
-10 22 -22 108.79 21.7
-11 23 22 60.29 26
-9 23 22 -6 22.9
-7 -23 22 141.89 24.4
-5 -23 22 -4.9 17.6
-3 -23 22 13.8 19.1
-1 -23 22 190.48 27.5
1 -23 -22 214.88 28.3
-1 -23 -22 5.1 17.5
-3 -23 -22 171.38 24.2
-5 -23 -22 33.9 18
-5 23 -22 21.1 18.4
-7 -23 -22 24.1 17.4
-7 23 -22 45.7 19.2
-9 23 -22 64.09 19.5
-10 24 22 -10 23.8
-6 -24 22 23.4 18.8
-4 -24 22 83.39 21.8
-2 -24 22 55.99 21.5
0 -24 22 42.8 22.1
0 -24 -22 53.49 20.3
-2 -24 -22 -24.1 17.1
-4 -24 -22 18.9 17.9
-6 -24 -22 827.72 59.29
-8 24 -22 -4.9 18.9
-5 -25 22 162.08 25.7
-3 -25 22 179.18 26.1
1 -25 -22 47.5 21
-1 -25 22 56.89 22.2
-1 -25 -22 3 18.7
-3 -25 -22 -12.7 17.4
-5 -25 -22 66.39 20.4
-9 25 -22 2.5 19.8
-6 -26 22 40.7 19.9
-4 -26 22 483.15 45
-2 -26 22 100.99 23.9
0 -26 -22 61.69 22.4
-2 -26 -22 -6.8 18.6
-4 -26 -22 191.88 26.4
-5 -27 22 33.7 21
-3 -27 22 15.8 20.5
-1 -27 -22 -13.9 19.6
-3 -27 -22 283.77 31.9
-4 -28 22 235.88 30.3
-2 -28 22 60.39 23.9
0 -28 -22 62.09 23.1
-2 -28 -22 88.99 22.7
-3 -29 22 43.2 22.6
-1 -29 -22 27.6 21.6
-2 -30 -22 -19.8 29.8
-14 0 23 -3.1 15.8
-12 0 23 13.5 15.4
-10 0 23 4.2 15.2
-8 0 23 22.9 14.9
6 0 -23 -17.1 13.5
-6 0 23 -1.6 12.2
-6 0 23 -10.6 14.1
4 0 -23 6.7 13.9
-4 0 23 11.3 14.2
-4 0 23 1 11.3
-2 0 23 -4.2 10.6
2 0 -23 -28.1 12.9
-2 0 23 -0.7 13.5
0 0 -23 -7.7 12.5
0 0 -23 10.9 11.9
0 0 23 -1.3 11
0 0 23 12.2 13.8
2 0 23 9.6 13.6
-2 0 -23 2.7 12.6
-2 0 -23 3.9 12.7
4 0 23 -9.1 13.3
-4 0 -23 -3.4 12.1
-4 0 -23 1.3 12.4
6 0 23 -28.1 13
-6 0 -23 -2.6 12.5
-6 0 -23 -5 12.1
-8 0 -23 -1.6 11.9
-10 0 -23 -3.4 11.9
-12 0 -23 -6.7 12
-14 0 -23 -8.4 11.5
-13 -1 23 13.5 15.8
-13 1 23 26.1 17.2
-11 -1 23 516.15 42.9
-11 1 23 620.94 44
-9 -1 23 18.2 14.7
-9 1 23 23.3 15.3
7 -1 -23 9.6 14.6
-7 -1 23 -4.9 14.2
-7 -1 23 -7.7 11.7
-7 1 23 3.6 12.8
-7 1 23 6.7 14.3
7 1 -23 15.3 14.9
-5 -1 23 186.68 21.7
-5 -1 23 231.58 23.5
5 -1 -23 186.58 22.1
5 1 -23 195.28 22.3
-5 1 23 191.88 22.8
-5 1 23 235.08 21.7
-3 -1 23 1023.1 59.89
3 -1 -23 866.31 60.49
-3 -1 23 904.41 60.79
-3 1 23 904.41 61.19
-3 1 23 895.31 59.59
3 1 -23 889.11 60.59
-1 -1 23 228.28 22.5
1 -1 -23 194.88 20.1
-1 -1 23 207.18 20.1
1 -1 -23 196.08 20.7
-1 1 23 166.78 20.1
-1 1 23 217.78 19.9
1 1 -23 160.68 20
1 1 -23 159.48 19
-1 -1 -23 -2.2 12.2
-1 -1 -23 26.3 13.7
1 -1 23 11.1 14.2
1 1 23 32.8 13.4
-1 1 -23 4.5 12
-1 1 -23 21.5 13.3
3 -1 23 800.32 56.29
-3 -1 -23 908.71 55.59
-3 -1 -23 806.72 55.29
-3 1 -23 871.91 55.49
3 1 23 807.22 56.19
-3 1 -23 806.62 55.19
5 -1 23 78.49 16.8
-5 -1 -23 74.19 15
-5 -1 -23 59.39 14.2
-5 1 -23 87.29 15
5 1 23 86.29 16.2
-5 1 -23 70.29 14.9
-7 -1 -23 8.6 12.1
7 -1 23 5.7 14.2
-7 -1 -23 10.1 12.2
7 1 23 15.4 13.9
-7 1 -23 17.1 12.7
-7 1 -23 14.5 12.2
-9 -1 -23 570.24 39.5
-9 1 -23 540.55 39.5
-11 -1 -23 479.55 34.8
-11 1 -23 465.45 35.3
-13 -1 -23 90.99 14.6
-13 1 -23 82.09 14.7
-14 -2 23 189.28 22.9
-14 2 23 188.88 23.6
-12 -2 23 321.57 31.4
-12 2 23 297.97 32.2
-10 -2 23 65.79 16.7
-10 2 23 78.29 17.6
-8 -2 23 1232.38 79.29
-8 2 23 1241.58 79.49
6 -2 -23 136.99 19
-6 -2 23 137.29 17.4
-6 -2 23 118.29 19.1
-6 2 23 125.49 17.5
-6 2 23 127.89 18.9
6 2 -23 128.09 18.7
-4 -2 23 329.17 28.1
-4 -2 23 278.67 30.3
4 -2 -23 305.87 30.1
-4 2 23 295.07 30.5
4 2 -23 295.87 29.8
-4 2 23 380.96 28.7
-2 -2 23 70.89 13.4
2 -2 -23 56.49 14
-2 -2 23 46.7 15.5
2 -2 -23 37.9 14.8
-2 2 23 37 15.3
2 2 -23 46.5 14.8
-2 2 23 34.9 12
0 -2 -23 81.69 14.5
0 -2 23 129.49 15.2
0 -2 -23 92.39 16.6
0 -2 23 75.09 17.1
0 2 -23 105.59 16.7
0 2 -23 101.49 16.2
0 2 23 91.39 16.6
-2 -2 -23 1496.75 91.29
2 -2 23 1359.66 91.59
-2 -2 -23 1456.65 91.29
-2 2 -23 1525.95 91.39
-2 2 -23 1504.65 91.19
2 2 23 1463.35 91.69
4 -2 23 92.39 16.5
-4 -2 -23 84.29 15.8
-4 -2 -23 106.29 16.3
-4 2 -23 94.09 15.2
-4 2 -23 79.09 15.5
4 2 23 93.79 16.6
-6 -2 -23 240.18 25.4
6 -2 23 244.38 24.1
-6 -2 -23 244.58 24.6
-6 2 -23 246.08 25.2
-6 2 -23 218.08 22.2
6 2 23 262.97 26.6
-8 -2 -23 -6.7 11.9
-8 2 -23 -4.9 12.2
-10 -2 -23 39.1 13.1
-10 2 -23 47.5 13.4
-12 -2 -23 -2.6 11.6
-12 2 -23 1.9 12.3
-14 -2 -23 157.28 16.5
-14 2 -23 139.59 17.1
-13 -3 23 244.38 25.5
-13 3 23 267.67 26.9
-11 -3 23 29.6 15.4
-11 3 23 4.2 15.8
-9 -3 23 173.28 21.2
-9 3 23 179.28 22.1
-7 -3 23 1822.02 122.99
7 -3 -23 1994.6 123.89
-7 3 23 1935.41 123.39
7 3 -23 2294.87 123.89
5 -3 -23 11.6 14
-5 -3 23 8.3 11.7
-5 -3 23 21.1 14.3
-5 3 23 25.6 14.8
5 3 -23 4 14.2
-5 3 23 18.5 12.5
3 -3 -23 87.09 16.9
-3 -3 23 129.69 15.7
-3 -3 23 110.19 17.7
3 3 -23 83.29 16.3
-3 3 23 105.89 15.7
-3 3 23 97.79 17.7
-1 -3 23 8.1 13.6
1 -3 -23 31.5 14.1
1 -3 -23 17.9 13
-1 -3 23 21.4 11.8
1 3 -23 12.7 12.6
1 3 -23 19.7 13.8
-1 3 23 28.6 14.9
-1 3 23 33.8 12.2
-1 -3 -23 7.6 12.3
1 -3 23 -12.2 13.3
-1 -3 -23 5.9 13.1
1 3 23 -4.5 12.6
-1 3 -23 6.9 12.2
-1 3 -23 13.8 13.1
-3 -3 -23 263.27 26.4
-3 -3 -23 284.17 26.6
3 -3 23 276.77 27.8
3 3 23 240.38 27.8
-3 3 -23 249.68 26.1
-3 3 -23 284.97 26.6
-5 -3 -23 1718.13 103.09
5 -3 23 1656.73 103.69
-5 -3 -23 1647.44 102.49
5 3 23 1689.43 103.49
-5 3 -23 1637.64 102.49
-5 3 -23 1681.63 102.99
-7 -3 -23 1631.44 97.59
-7 -3 -23 1554.64 96.79
7 3 23 1620.54 99.49
-7 3 -23 1507.05 96.69
-9 -3 -23 107.49 15.5
-9 3 -23 88.69 15.1
-11 -3 -23 7.7 12
-11 3 -23 31.4 12.9
-13 -3 -23 437.86 33.3
-13 3 -23 476.15 34.8
-14 -4 23 192.48 23.1
-14 4 23 198.48 24.4
-12 -4 23 45 16.4
-12 4 23 49.2 17.5
-10 -4 23 -0.6 14.6
-10 4 23 11.8 15.6
-8 -4 23 61.39 16.4
-8 4 23 44.5 16.6
6 -4 -23 1222.38 77.19
-6 -4 23 1201.18 75.79
-6 -4 23 1111.19 76.29
6 4 -23 1306.27 77.09
-6 4 23 1211.48 76.39
-6 4 23 1119.49 76.89
4 -4 -23 1146.99 73.89
-4 -4 23 1145.39 72.69
-4 -4 23 1124.19 74.09
-4 4 23 1163.18 73.09
-4 4 23 1205.48 74.59
4 4 -23 1083.79 73.59
-2 -4 23 276.37 29.5
-2 -4 23 284.77 26.5
2 -4 -23 302.17 29.5
2 -4 -23 300.97 28
-2 4 23 325.37 27.1
2 4 -23 277.87 28.7
-2 4 23 328.67 30
0 -4 23 121.69 15.1
0 -4 -23 91.39 16.8
0 -4 -23 116.39 17
0 -4 23 87.39 16.5
0 4 23 79.99 17.3
0 4 -23 110.89 15.7
0 4 -23 90.69 15.6
2 -4 23 22.8 14.6
-2 -4 -23 22.8 14.1
-2 -4 -23 24 13.2
-2 4 -23 20.8 12.7
2 4 23 8.1 14.3
-2 4 -23 25.9 12.9
-4 -4 -23 273.57 27.1
4 -4 23 265.47 28.2
-4 -4 -23 294.57 27.2
-4 4 -23 272.47 26.8
4 4 23 251.67 28.4
-4 4 -23 323.87 27.2
-6 -4 -23 5132.59 300.27
-6 -4 -23 5046.1 299.57
6 -4 23 5146.39 300.57
-6 4 -23 5247.18 300.57
6 4 23 4919.61 300.17
-6 4 -23 4923.01 299.57
-8 -4 -23 67.39 13.9
-8 4 -23 34.4 13.2
-10 -4 -23 101.19 15
-10 4 -23 65.99 14.5
-12 -4 -23 10.3 11.6
-12 4 -23 -7.3 12
-14 -4 -23 218.78 21.5
-13 -5 23 72.89 17.5
-13 5 23 58.49 18.4
-11 -5 23 136.49 19.8
-11 5 23 147.79 22.1
-9 -5 23 305.17 30.8
-9 5 23 311.47 31.7
-7 -5 23 65.69 16.3
7 -5 -23 88.59 18.4
-7 5 23 58.29 17.1
5 -5 -23 945.91 68.19
-5 -5 23 1152.98 67.59
-5 -5 23 1006.4 68.49
5 5 -23 1053.49 68.49
-5 5 23 1136.29 67.99
-5 5 23 964.5 68.69
3 -5 -23 810.32 56.79
-3 -5 23 812.62 56.69
-3 -5 23 852.81 55.39
3 5 -23 823.22 56.19
-3 5 23 833.52 57.19
-3 5 23 877.11 55.59
1 -5 -23 241.48 27
-1 -5 23 221.08 24
1 -5 -23 260.87 25.9
-1 -5 23 256.97 27.2
1 5 -23 251.77 26.4
-1 5 23 251.37 24.2
1 5 -23 226.78 25.7
-1 5 23 261.57 24.6
-1 -5 -23 633.14 43.6
-1 -5 -23 602.64 43.2
1 -5 23 515.45 43.3
-1 5 -23 636.94 43.1
-1 5 -23 619.94 43.1
1 5 23 589.34 43.7
-3 -5 -23 375.86 30.2
-3 -5 -23 303.17 29.3
3 -5 23 295.97 29.7
-3 5 -23 313.97 29.1
3 5 23 314.87 30.6
-3 5 -23 336.17 29.1
-5 -5 -23 128.29 17.3
-5 -5 -23 143.99 18.6
5 -5 23 145.49 19.5
5 5 23 136.49 18.8
-5 5 -23 177.48 19.1
-5 5 -23 129.99 17.3
-7 -5 -23 17.7 12.7
-7 5 -23 31.7 12.9
-9 -5 -23 14 12.5
-9 5 -23 47.3 13.4
-11 -5 -23 100.69 14.8
-11 5 -23 81.39 14.9
-13 -5 -23 310.07 25.4
-13 5 -23 275.37 27.1
-14 6 23 16.4 20.2
-12 -6 23 204.98 22.5
-12 6 23 181.28 23.7
-10 -6 23 104.59 18.6
-10 6 23 92.59 19.1
-8 -6 23 55.49 16.1
-8 6 23 34.1 16.6
-6 -6 23 14.9 16
6 -6 -23 26.9 15.2
-6 -6 23 14.2 11.7
-6 6 23 46.2 14
6 6 -23 15.5 14.8
-6 6 23 17.6 15.6
4 -6 -23 191.48 22.2
-4 -6 23 172.18 21.8
-4 -6 23 270.67 24
-4 6 23 232.98 24.9
4 6 -23 249.08 23.4
-4 6 23 181.28 22.7
2 -6 -23 54.39 15.8
-2 -6 23 69.19 13.8
-2 -6 23 65.99 15.7
2 -6 -23 55.39 13.9
-2 6 23 73.59 14.3
2 6 -23 48.1 14.4
-2 6 23 53.39 15.9
0 -6 -23 7.3 12.1
0 -6 23 -13.2 10.3
0 -6 -23 -7.8 13.3
0 -6 23 14.1 13.9
0 6 -23 6.8 12.7
0 6 -23 7.7 12.6
0 6 23 -0.9 13.7
2 -6 23 1430.86 88.59
-2 -6 -23 1396.16 88.19
-2 -6 -23 1492.65 88.09
-2 6 -23 1376.36 87.79
2 6 23 1373.66 88.49
-2 6 -23 1367.16 87.59
-4 -6 -23 30.2 14.2
-4 -6 -23 18 12.7
4 -6 23 28.8 14.9
4 6 23 43.3 14.7
-4 6 -23 6.3 12.4
-4 6 -23 45.5 14
-6 -6 -23 59.29 14.2
6 -6 23 51.19 15.9
-6 -6 -23 56.89 14.4
-6 6 -23 50.09 14.2
6 6 23 75.09 16
-8 -6 -23 229.68 24.8
-8 6 -23 262.87 25.3
-10 -6 -23 34.1 12.9
-10 6 -23 33.5 13.1
-12 -6 -23 230.98 23.2
-12 6 -23 261.27 25.2
-14 -6 -23 26.2 11.3
-13 -7 23 13.1 15.3
-13 7 23 -3.9 16.4
-11 -7 23 63.59 17
-11 7 23 63.89 17.9
-9 -7 23 110.49 18.7
-9 7 23 111.29 19.8
-7 -7 23 41.8 15.9
-7 7 23 13.7 16.1
-5 -7 23 2312.87 141.49
5 -7 -23 2265.37 142.19
-5 -7 23 2390.76 141.19
5 7 -23 2221.38 141.59
-5 7 23 2340.77 142.39
-5 7 23 2450.95 142.09
-3 -7 23 82.59 17.4
3 -7 -23 62.39 16.2
-3 -7 23 146.19 16.6
-3 7 23 103.29 16
3 7 -23 114.49 17
-3 7 23 52.19 17.1
-1 -7 23 74.69 14
1 -7 -23 68.99 15.9
-1 -7 23 74.79 16.4
1 -7 -23 63.09 15.7
-1 7 23 80.59 16.8
1 7 -23 66.89 15.4
-1 -7 -23 10.8 14
-1 -7 -23 13.6 12.7
1 -7 23 29.4 14.5
-1 7 -23 22.2 13.4
-1 7 -23 13.4 12.6
1 7 23 10.6 14.7
-3 -7 -23 11.8 13
3 -7 23 -23.5 13.6
-3 -7 -23 9.1 13.7
-3 7 -23 11.4 13.5
3 7 23 14.5 14.3
-3 7 -23 -3.9 12.1
-5 -7 -23 406.56 35.1
-5 -7 -23 483.85 34.6
5 -7 23 429.56 36.2
5 7 23 413.36 35
-5 7 -23 407.46 34.8
-5 7 -23 421.66 34.2
-7 -7 -23 -12.4 11.8
-7 7 -23 6.1 13
-9 -7 -23 220.28 21.1
-9 7 -23 221.18 24.5
-11 -7 -23 13.8 11.9
-11 7 -23 19.3 13.2
-13 -7 -23 41.6 12.6
-13 7 -23 55.59 14.4
-12 -8 23 4 15.6
-12 8 23 7.6 16.9
-10 -8 23 260.77 29.3
-10 8 23 277.57 28.2
-8 -8 23 47.4 16.5
-8 8 23 54.69 17.8
6 -8 -23 55.49 17.6
-6 -8 23 57.59 16
6 8 -23 70.09 17
-6 8 23 78.19 18.6
4 -8 -23 2059.29 128.49
-4 -8 23 2171.98 127.29
-4 -8 23 2010.9 127.69
-4 8 23 2057.99 127.79
4 8 -23 2119.49 127.79
-4 8 23 2122.19 128.79
-2 -8 23 -1.1 10.6
2 -8 -23 12.2 14.6
2 -8 -23 12.6 13.6
-2 -8 23 -20.2 13.7
-2 8 23 3.1 14.7
2 8 -23 14 13.1
-2 8 23 -4.9 12.1
0 -8 23 6.7 11
0 -8 -23 2.6 13.3
0 -8 23 7 14.2
0 -8 -23 -4.6 13.1
0 8 -23 26.5 13.5
0 8 -23 -5.9 12
0 8 23 2.4 15
-2 -8 -23 -7 12.2
-2 -8 -23 3.2 14
2 -8 23 14.8 14.6
2 8 23 12 14.6
-2 8 -23 2.6 12.9
-2 8 -23 6.2 12.7
-4 -8 -23 2419.26 142.09
4 -8 23 2231.08 141.89
-4 -8 -23 2283.47 141.19
-4 8 -23 2463.15 142.29
4 8 23 2161.68 141.79
-4 8 -23 2456.75 141.59
-6 -8 -23 30.6 13.5
-6 8 -23 43.1 14.3
-8 -8 -23 18.1 12.4
-8 8 -23 10.9 13
-10 -8 -23 349.96 28.2
-10 8 -23 306.57 29.2
-12 -8 -23 26.2 12.2
-12 8 -23 36 13.9
-14 -8 -23 30.4 13
-13 -9 23 518.05 41.3
-13 9 23 517.95 44.6
-11 -9 23 92.79 18.2
-11 9 23 75.89 19.8
-9 -9 23 129.39 19.6
-9 9 23 112.49 20.3
-7 -9 23 789.02 52.89
-7 9 23 719.73 54.49
-5 -9 23 123.69 24.3
5 -9 -23 114.59 18.9
-5 -9 23 88.99 17.6
-5 9 23 76.89 18.6
-5 9 23 82.89 16.8
5 9 -23 45.3 16
3 -9 -23 182.78 22
-3 -9 23 141.29 20
-3 -9 23 184.18 19.4
-3 9 23 154.58 21.3
-3 9 23 199.68 20.6
3 9 -23 168.98 20.3
-1 -9 23 712.83 49.7
1 -9 -23 747.73 49.4
1 -9 -23 688.83 49.5
-1 -9 23 695.73 47.3
1 9 -23 662.53 48.7
-1 9 23 640.24 49.9
1 -9 23 421.16 35
-1 -9 -23 400.76 34.5
-1 -9 -23 435.76 34.8
1 9 23 394.16 35.6
-1 9 -23 374.66 33.7
-1 9 -23 452.85 34.7
3 -9 23 765.42 56.29
-3 -9 -23 817.22 55.09
-3 -9 -23 869.31 55.89
-3 9 -23 897.81 55.69
-3 9 -23 769.62 55.39
3 9 23 784.02 56.49
-5 -9 -23 123.39 16.5
5 -9 23 75.29 18.3
-5 9 -23 95.09 16.8
5 9 23 88.29 17.8
-7 -9 -23 599.44 41.9
-7 9 -23 573.64 42.2
-9 -9 -23 0.6 12
-9 9 -23 13 13.2
-11 -9 -23 34.3 12.9
-11 9 -23 4.4 13.6
-13 -9 -23 1353.56 85.59
-13 9 -23 1448.66 87.79
-12 -10 23 12.3 15.6
-12 10 23 -19.2 17
-10 -10 23 31.6 16.3
-10 10 23 26.9 17.9
-8 -10 23 671.93 47.7
-8 10 23 639.54 49.4
-6 -10 23 142.89 20.6
6 -10 -23 172.58 23.1
-6 10 23 179.08 22.9
-4 -10 23 180.08 22.4
-4 -10 23 187.88 20.7
4 -10 -23 216.28 23.6
-4 10 23 191.58 24
-4 10 23 240.18 25.6
4 10 -23 204.18 22
-2 -10 23 1427.06 82.39
-2 -10 23 1243.08 83.09
2 -10 -23 1308.67 85.89
2 -10 -23 1251.57 83.29
-2 10 23 1201.58 83.79
2 10 -23 1389.46 83.09
0 -10 23 49.7 12.8
0 -10 23 35.1 15.8
0 -10 -23 49.4 15.9
0 -10 -23 29.7 14.7
0 10 23 16.2 15.8
0 10 -23 48.7 14.7
-2 -10 -23 150.78 19.5
-2 -10 -23 137.59 19.1
2 -10 23 143.29 20.1
-2 10 -23 167.78 19.3
-2 10 -23 101.09 17.4
2 10 23 104.59 19
-4 -10 -23 -5.4 13.5
4 -10 23 -0.9 14.7
-4 10 -23 27.3 13.6
4 10 23 10.9 15.1
-4 10 -23 24.3 14.2
-6 -10 -23 71.89 15
-6 10 -23 76.29 15.7
-8 -10 -23 367.36 30.4
-8 10 -23 360.46 31.4
-10 -10 -23 15.7 12.8
-10 10 -23 25.4 14
-12 -10 -23 826.92 53.69
-12 10 -23 819.82 55.39
-13 11 23 60.49 20.5
-11 -11 23 49.5 17.2
-11 11 23 55.89 19.8
-9 -11 23 33.4 16.3
-9 11 23 30.4 17.7
-7 -11 23 62.39 16.6
-7 11 23 56.19 18.3
-5 -11 23 430.56 36.5
5 -11 -23 479.45 38.9
-5 11 23 379.36 37.9
-3 -11 23 60.39 14
-3 -11 23 76.09 16.8
3 -11 -23 73.29 17
3 11 -23 79.09 16.8
-3 11 23 73.69 18.9
-1 -11 23 232.98 24.7
1 -11 -23 261.57 25.3
1 -11 -23 260.37 28.6
-1 -11 23 277.07 25.2
1 11 -23 232.78 24
-1 11 23 216.68 25.6
-1 -11 -23 202.78 22.6
-1 -11 -23 186.98 22.5
1 -11 23 213.18 23.8
-1 11 -23 247.38 26.1
1 11 23 209.38 24.8
-1 11 -23 251.57 27.4
-3 -11 -23 255.77 27.6
-3 -11 -23 295.87 28.9
3 -11 23 291.57 30.7
-3 11 -23 282.97 27.9
-3 11 -23 293.87 28
3 11 23 214.38 26
-5 -11 -23 34.6 14.1
-5 11 -23 27.6 14.5
-7 -11 -23 174.98 19.5
-7 11 -23 173.68 20.6
-9 -11 -23 6.5 13.1
-9 11 -23 -4.9 13.8
-11 -11 -23 63.89 13.8
-11 11 -23 66.19 15.7
-13 -11 -23 206.38 22.4
-12 -12 23 5.1 16.2
-12 12 23 6.4 18.2
-10 -12 23 239.18 25
-10 12 23 213.98 26.8
-8 -12 23 46.5 16.4
-8 12 23 44.2 18.3
-6 -12 23 125.59 19.5
-6 12 23 141.79 22
4 -12 -23 1320.97 89.99
-4 -12 23 1347.17 88.79
-4 12 23 1253.47 89.69
4 12 -23 1471.15 89.29
-4 12 23 1616.34 90.19
2 -12 -23 96.29 19.2
-2 -12 23 130.09 17.2
-2 -12 23 107.79 19.4
-2 12 23 103.89 19.6
2 12 -23 118.39 18.8
0 -12 23 171.68 21.8
0 -12 -23 174.18 21.5
0 -12 -23 150.68 21.4
0 12 -23 177.08 20.5
0 12 23 165.08 23.1
-2 -12 -23 122.59 28.7
2 -12 23 95.89 19.6
-2 -12 -23 120.09 18.2
-2 12 -23 101.09 17.6
2 12 23 85.29 18.9
-2 12 -23 68.19 16.7
-4 -12 -23 522.75 39.7
4 -12 23 470.05 42.2
-4 12 -23 541.85 40.1
-6 -12 -23 5.5 13.7
-6 12 -23 3.2 14.1
-8 -12 -23 6 13.1
-8 12 -23 24 14.8
-10 -12 -23 285.17 28.2
-10 12 -23 337.67 30.6
-12 -12 -23 22.6 12.8
-12 12 -23 5.6 14.3
-13 13 23 27.5 18.3
-11 -13 23 15.5 16.8
-11 13 23 24.8 19.5
-9 -13 23 -17 15
-9 13 23 0.3 18
-7 -13 23 12.1 15.2
-7 13 23 18 17.2
5 -13 -23 326.97 33.1
-5 -13 23 218.98 24.4
-5 13 23 220.68 26.8
-3 -13 23 159.18 21.8
3 -13 -23 119.49 20.5
-3 13 23 145.29 21.4
3 13 -23 164.68 20.9
-1 -13 23 150.48 21.9
1 -13 -23 142.19 21.6
1 -13 -23 159.88 21.6
-1 -13 23 237.78 24
-1 13 23 137.79 22.4
1 13 -23 196.98 21.6
1 -13 23 -1.8 15
-1 -13 -23 18.2 15.6
1 13 23 -1.4 16.1
-1 13 -23 -0.9 14.1
3 -13 23 144.79 21.5
-3 -13 -23 140.49 19.9
-3 13 -23 111.99 18.9
-5 -13 -23 -13.6 13.3
-5 13 -23 0.5 14.6
-7 -13 -23 25.2 13.7
-7 13 -23 4.4 14.9
-9 -13 -23 305.47 28.9
-9 13 -23 318.87 30.6
-11 -13 -23 76.49 15.4
-11 13 -23 89.59 17.4
-12 -14 23 86.19 21.4
-12 14 23 76.49 21.9
-10 -14 23 -13.2 15.3
-10 14 23 7.4 18.8
-8 -14 23 17 15.6
-8 14 23 24.7 18.4
-6 -14 23 -3.7 15.5
-6 14 23 -22.7 16.3
-4 -14 23 791.72 56.69
4 -14 -23 812.72 58.19
-4 14 23 811.72 58.19
2 -14 -23 337.47 32.9
-2 -14 23 276.07 28.5
-2 14 23 285.67 30.6
2 14 -23 373.76 32.7
0 -14 23 13.7 16.6
0 -14 -23 25.9 15.4
0 14 -23 -9.1 14.9
0 14 23 12.8 17.1
2 -14 23 454.35 39.5
-2 -14 -23 427.56 37.7
-2 14 -23 484.15 38.6
-4 -14 -23 318.07 30
-4 14 -23 249.08 27
-6 -14 -23 80.79 16.3
-6 14 -23 78.79 17.5
-8 -14 -23 36.6 14.7
-8 14 -23 54.49 16.5
-10 -14 -23 25.1 14.5
-10 14 -23 37.2 16.4
-12 14 -23 -15.9 14.9
-11 -15 23 17.9 16.6
-11 15 23 16.2 19.8
-9 -15 23 28.1 16.3
-9 15 23 30.7 19.4
-7 -15 23 227.98 24.8
-7 15 23 217.38 27.7
-5 -15 23 504.95 40.1
-5 15 23 447.86 42.3
3 -15 -23 183.08 24.2
-3 -15 23 159.28 22.4
-3 15 23 131.49 22.8
1 -15 -23 32.2 16.4
-1 -15 23 6.9 16.2
-1 15 23 42.4 18.3
1 15 -23 32 16.8
1 -15 23 9.3 16.6
-1 -15 -23 54.79 16.8
-1 15 -23 35.5 16.5
3 -15 23 427.36 39.9
-3 -15 -23 420.96 37.2
-3 15 -23 462.15 37.5
-5 -15 -23 194.58 21.7
-5 15 -23 157.68 20.9
-7 -15 -23 257.07 26.9
-7 15 -23 215.78 24.4
-9 -15 -23 91.69 16.9
-9 15 -23 88.69 18.4
-11 -15 -23 5.1 13.5
-11 15 -23 3.6 15.8
-12 16 23 74.29 22.9
-10 -16 23 29.5 16.5
-10 16 23 -3.3 18.9
-8 -16 23 -1.4 16.2
-8 16 23 1.6 18.8
-6 -16 23 381.46 34.2
-6 16 23 311.17 33.5
4 -16 -23 262.47 28
-4 -16 23 227.48 25.9
-4 16 23 236.58 28.3
-2 -16 23 1.7 16.1
2 -16 -23 39.9 17.1
-2 16 23 38.8 18.3
0 -16 23 -8.2 16
0 -16 -23 5.6 15.7
0 16 -23 -6.3 16.2
2 -16 23 225.68 26
-2 -16 -23 187.78 23.3
-2 16 -23 191.48 23.2
-4 -16 -23 251.97 24.9
-4 16 -23 224.98 25
-6 -16 -23 1921.51 120.89
-6 16 -23 2013.6 121.89
-8 -16 -23 12.8 14.1
-8 16 -23 -19.7 15.3
-10 -16 -23 21.6 14.6
-10 16 -23 11.4 16
-11 17 23 32.2 21.3
-9 -17 23 22.8 16.7
-9 17 23 -0.4 19
-7 -17 23 299.77 31.2
-7 17 23 222.78 29.3
-5 -17 23 0.5 16.2
-5 17 23 -25.8 18.3
3 -17 -23 36.4 18.1
-3 -17 23 -20.9 16
-3 17 23 7.1 18.5
-1 -17 23 158.88 23
1 -17 -23 158.78 22.6
1 -17 23 220.48 27.1
-1 -17 -23 248.38 25.7
-1 17 -23 228.28 25.2
-3 -17 -23 63.59 17.6
-3 17 -23 86.99 18.4
-5 -17 -23 103.19 19.5
-5 17 -23 126.99 20.1
-7 -17 -23 117.89 18.9
-7 17 -23 100.79 19.5
-9 -17 -23 30 15.2
-9 17 -23 36.9 16.7
-11 17 -23 2.3 16
-12 18 23 45.4 22.9
-10 -18 23 2.9 16.5
-10 18 23 -2.7 20.2
-8 -18 23 93.39 19.7
-8 18 23 80.99 22.6
-6 -18 23 107.39 19.8
-6 18 23 97.19 23.4
-4 -18 23 45.6 17.8
-4 18 23 58.99 20.9
-2 -18 23 42.9 17.7
2 -18 -23 62.19 18.9
0 -18 23 26.1 17.9
0 -18 -23 37.3 17.4
-2 -18 -23 278.77 28.8
2 -18 23 227.58 29.8
-2 18 -23 374.46 33.9
-4 -18 -23 158.18 21
-4 18 -23 124.59 21.6
-6 -18 -23 283.97 29.5
-6 18 -23 215.08 25.7
-8 -18 -23 11.2 14.9
-8 18 -23 -6.5 15.9
-10 18 -23 10.2 16.7
-11 19 23 30.2 22
-9 -19 23 24 17.7
-9 19 23 15.4 21.2
-7 -19 23 116.59 21.1
-7 19 23 89.09 23.6
-5 -19 23 25.4 17.4
-5 19 23 54.19 21.6
-3 -19 23 9.6 17.7
3 -19 -23 35 18.8
-1 -19 23 45.1 18.7
1 -19 -23 37.7 18.3
1 -19 23 39.8 19.7
-1 -19 -23 64.49 18.1
-1 19 -23 64.09 25.4
-3 -19 -23 119.39 20.8
-3 19 -23 198.78 23.7
-5 -19 -23 203.38 24.7
-5 19 -23 244.88 26.5
-7 -19 -23 18.5 15.5
-7 19 -23 12.7 16.4
-9 -19 -23 18.6 15.1
-9 19 -23 19.8 16.7
-10 20 23 20.4 21.8
-8 -20 23 22.7 18.1
-8 20 23 39.9 22.2
-6 -20 23 0.5 17.1
-6 20 23 27.6 21.6
-4 -20 23 219.68 26.1
2 -20 -23 126.39 23.1
-2 -20 23 104.09 21.6
0 -20 -23 0.9 16.8
0 -20 23 -4 18.8
-2 -20 -23 465.15 42
-2 20 -23 521.25 44
-4 -20 -23 109.89 20.1
-4 20 -23 104.19 21
-6 -20 -23 11.2 16.5
-6 20 -23 19.7 17.7
-8 -20 -23 3 15
-8 20 -23 21.7 17
-10 20 -23 -2.8 16.8
-11 21 23 94.39 25.1
-9 -21 23 -4.7 25
-9 21 23 29.2 22.8
-7 -21 23 82.49 20.5
-7 21 23 74.99 24.1
-5 -21 23 -7.2 17.4
-3 -21 23 1033 70.89
1 -21 -23 4.6 18.2
-1 -21 23 -14.6 18.4
1 -21 23 -0.6 19
-1 -21 -23 8 17.6
-3 -21 -23 907.81 64.49
-3 21 -23 944.31 66.99
-5 -21 -23 5.7 16.6
-5 21 -23 8.2 18.3
-7 -21 -23 36.8 17.4
-7 21 -23 57.49 19.2
-9 21 -23 324.67 34.9
-10 22 23 14.7 23.3
-8 -22 23 73.09 20.5
-8 22 23 60.09 24.4
-6 -22 23 122.19 22.4
-4 -22 23 98.69 21.1
-2 -22 23 12.8 19.3
2 -22 -23 45.9 20.7
0 -22 -23 25.2 19.4
0 -22 23 3.9 19.5
-2 -22 -23 146.59 23.2
-4 -22 -23 -2.8 17.3
-4 22 -23 14.6 22.4
-6 -22 -23 395.16 38.4
-6 22 -23 442.16 40.4
-8 22 -23 2.5 18.2
-10 22 -23 -15.7 18.7
-9 23 23 12.2 22.9
-7 -23 23 142.19 24
-5 -23 23 4.8 18.4
-3 -23 23 48.5 20.8
-1 -23 23 -15 18.9
1 -23 -23 8.3 19.5
-1 -23 -23 18.7 18
-3 -23 -23 20.8 17.7
-5 -23 -23 412.86 38.8
-7 23 -23 177.78 26
-9 23 -23 15.8 18.9
-10 24 23 -15.7 24.3
-6 -24 23 138.59 23.7
-4 -24 23 187.78 26.2
-2 -24 23 43 21.6
0 -24 -23 -11.4 18.5
-2 -24 -23 7.6 18.3
-4 -24 -23 47.7 19.2
-6 -24 -23 321.67 35
-8 24 -23 78.89 21.6
-5 -25 23 0.2 18.9
-3 -25 23 39.6 21.3
-1 -25 23 18.1 21
1 -25 -23 42.6 20.9
-1 -25 -23 63.49 20.9
-3 -25 -23 129.19 23.3
-5 -25 -23 39.4 19.2
-9 25 -23 5.6 19.5
-6 -26 23 16.5 19.9
-4 -26 23 143.89 25.9
-2 -26 23 -11.6 20
0 -26 -23 -10.6 19.2
-2 -26 -23 35.5 20.3
-4 -26 -23 39.7 19.4
-5 -27 23 242.88 30.7
-3 -27 23 70.89 23.5
-1 -27 -23 3.4 20.2
-3 -27 -23 102.29 23.1
-4 -28 23 128.29 26
-2 -28 23 5.1 25.1
0 -28 -23 8.9 20.8
-2 -28 -23 18.3 20.8
-3 -29 23 16.6 22.1
-1 -29 -23 25.9 22.3
-14 0 24 77.09 18.9
-12 0 24 113.79 19.8
-10 0 24 1273.57 81.89
-8 0 24 229.58 23.8
-6 0 24 188.88 20.4
-6 0 24 169.98 21.8
6 0 -24 186.98 22.1
4 0 -24 4266.97 252.97
-4 0 24 4634.34 252.87
-4 0 24 3840.22 252.57
-2 0 24 193.88 22.6
2 0 -24 277.77 27.4
-2 0 24 281.57 24.7
0 0 24 800.32 56.39
0 0 -24 839.62 55.39
0 0 -24 854.71 56.09
2 0 24 896.31 61.79
-2 0 -24 989.8 61.49
-2 0 -24 903.01 60.99
-4 0 -24 1.2 12.6
-4 0 -24 0.5 12.7
4 0 24 -11.3 14
-6 0 -24 61.39 14.3
-6 0 -24 85.59 15.3
6 0 24 79.29 16.9
-8 0 -24 45.1 13.5
-10 0 -24 1570.54 96.39
-12 0 -24 127.99 16.7
-13 -1 24 21.7 16.1
-13 1 24 -1.5 16
-11 -1 24 241.38 25.2
-11 1 24 234.68 25.2
-9 -1 24 72.79 17
-9 1 24 83.29 18
-7 -1 24 789.42 55.39
7 -1 -24 844.12 56.29
7 1 -24 754.82 57.09
-7 1 24 820.92 55.29
-5 -1 24 61.29 16.2
-5 -1 24 69.59 14.5
5 -1 -24 75.09 17
-5 1 24 54.49 16.8
5 1 -24 86.79 16.9
-5 1 24 65.19 14.4
-3 -1 24 1159.48 79.29
3 -1 -24 1237.38 79.69
-3 -1 24 1254.67 78.49
-3 1 24 1287.07 78.79
3 1 -24 1301.17 79.49
-3 1 24 1234.08 79.89
1 -1 -24 -6.9 13.9
-1 -1 24 -6.3 11
-1 -1 24 -0.6 14.2
1 -1 -24 0.4 12.2
1 1 -24 -3.2 12.7
1 1 -24 17.7 13.9
-1 1 24 -10.8 14
-1 1 24 -0.3 11.2
-1 -1 -24 178.28 18.9
1 -1 24 114.19 18.5
-1 -1 -24 150.38 18.4
-1 1 -24 124.69 18
1 1 24 140.29 19.6
-1 1 -24 126.09 18.4
-3 -1 -24 96.09 16.2
-3 -1 -24 89.69 15.8
3 -1 24 124.79 18.4
-3 1 -24 68.39 15.4
-3 1 -24 118.99 16.8
3 1 24 80.99 17.3
-5 -1 -24 136.59 17.5
-5 -1 -24 129.19 17.9
5 -1 24 138.09 19.2
-5 1 -24 106.99 16.8
-5 1 -24 152.18 18.4
5 1 24 153.68 19.3
-7 -1 -24 54.89 14
-7 1 -24 38.3 14.1
-9 -1 -24 84.89 15.2
-9 1 -24 84.29 15
-11 -1 -24 936.01 58.79
-11 1 -24 885.61 58.99
-13 -1 -24 308.57 27.6
-13 1 -24 336.47 28.1
-14 -2 24 19.9 17.9
-14 2 24 23.5 17.1
-12 -2 24 199.18 23.3
-12 2 24 182.18 23.4
-10 -2 24 72.19 17.2
-10 2 24 61.59 17.4
-8 -2 24 635.34 48.4
-8 2 24 690.33 48.4
-6 -2 24 2129.49 132.49
-6 -2 24 2152.48 131.89
6 -2 -24 2144.99 132.69
-6 2 24 2053.49 132.29
6 2 -24 2295.37 132.79
-6 2 24 2229.48 132.39
4 -2 -24 12.9 14.7
-4 -2 24 12 11.8
-4 -2 24 10 14.1
-4 2 24 -6 14.4
-4 2 24 4.8 12
4 2 -24 16.3 14.2
-2 -2 24 8.8 11.3
2 -2 -24 15.4 14.5
-2 -2 24 -11.6 14.4
2 2 -24 -3.6 13.3
-2 2 24 16 14.8
-2 2 24 -13.7 11.3
0 -2 -24 598.74 44.8
0 -2 -24 661.43 44.6
0 -2 24 600.84 45.5
0 -2 24 639.54 46.5
0 2 -24 649.54 44.6
0 2 -24 605.84 44.5
0 2 24 594.74 45.5
-2 -2 -24 14 14
-2 -2 -24 -0.9 12.1
2 -2 24 24.6 15.1
-2 2 -24 15.9 13.5
2 2 24 13.4 13.9
-2 2 -24 4.9 12.6
-4 -2 -24 33.8 13.7
4 -2 24 35.1 14.6
-4 -2 -24 17.4 13.3
4 2 24 21.5 14.1
-4 2 -24 11 13
-4 2 -24 21.6 13.6
-6 -2 -24 742.53 51.49
6 -2 24 761.42 52.39
-6 -2 -24 702.83 50.39
-6 2 -24 842.12 51.99
6 2 24 759.02 52.19
-6 2 -24 725.73 50.69
-8 -2 -24 407.96 32
-8 2 -24 395.16 32.3
-10 -2 -24 6.4 12.7
-10 2 -24 9.8 13.2
-12 -2 -24 37.2 13.3
-12 2 -24 54.49 14.1
-14 -2 -24 817.82 53.89
-13 -3 24 15.3 16
-13 3 24 50.39 17.6
-11 -3 24 -0.5 15.4
-11 3 24 6 15.8
-9 -3 24 12.7 15.2
-9 3 24 -6.1 15.1
-7 -3 24 1668.23 103.89
7 -3 -24 1715.13 107.79
-7 3 24 1618.44 103.99
-5 -3 24 208.18 21.3
5 -3 -24 203.78 22.9
-5 -3 24 210.08 22.8
5 3 -24 206.48 22.7
-5 3 24 207.98 23.1
-5 3 24 222.78 24.3
-3 -3 24 12.4 11.4
-3 -3 24 5.3 14.7
3 -3 -24 -2.8 14.1
-3 3 24 -8.2 14.9
3 3 -24 6.7 13.7
-3 3 24 -5.7 11.2
1 -3 -24 139.69 19.6
-1 -3 24 172.88 21.3
-1 -3 24 167.58 18.5
1 -3 -24 146.89 19.1
-1 3 24 164.68 18.5
1 3 -24 171.18 19.3
-1 3 24 112.89 18.9
1 3 -24 186.48 20.5
-1 -3 -24 391.06 32.4
-1 -3 -24 401.86 31.8
1 -3 24 357.56 32.7
-1 3 -24 382.66 32
-1 3 -24 332.17 30.6
1 3 24 330.67 32.7
-3 -3 -24 16.9 13.6
-3 -3 -24 0 11.9
3 -3 24 -1.1 13.1
-3 3 -24 -3.1 13.2
-3 3 -24 1 12
3 3 24 -13.9 13.9
-5 -3 -24 421.96 34.2
-5 -3 -24 386.46 33.5
5 -3 24 468.35 36
-5 3 -24 440.66 34.4
5 3 24 460.15 35.9
-5 3 -24 374.36 33.4
-7 -3 -24 1025.2 62.69
-7 3 -24 913.81 62.39
-9 -3 -24 -13.4 12.2
-9 3 -24 3.3 12.3
-11 -3 -24 138.59 17.2
-11 3 -24 146.39 17.9
-13 -3 -24 41.8 12.7
-13 3 -24 29.4 13.7
-14 4 24 541.15 55.49
-12 -4 24 14.7 15.6
-12 4 24 31.8 17.4
-10 -4 24 -4.5 15.3
-10 4 24 21 16.1
-8 -4 24 261.17 26.2
-8 4 24 269.57 27.1
-6 -4 24 29.6 12.7
6 -4 -24 24.4 15.7
-6 -4 24 30.7 14.8
-6 4 24 21.3 13
6 4 -24 22.1 15.5
-6 4 24 26.7 16.4
-4 -4 24 372.56 35.6
-4 -4 24 464.35 33.3
4 -4 -24 415.46 35.5
-4 4 24 405.26 33.2
-4 4 24 382.46 36.1
4 4 -24 412.76 35.2
-2 -4 24 5.3 11.4
2 -4 -24 26.7 15.8
-2 -4 24 -7.9 13.6
2 -4 -24 -18.6 13.5
2 4 -24 11.1 13.8
-2 4 24 1.8 11.4
-2 4 24 -3 14.1
0 -4 -24 1258.77 78.89
0 -4 24 1154.28 78.79
0 -4 24 1374.26 78.09
0 -4 -24 1192.78 78.79
0 4 -24 1266.27 78.49
0 4 -24 1228.38 78.39
0 4 24 1172.08 78.99
-2 -4 -24 2.4 13.2
-2 -4 -24 19.4 13.2
2 -4 24 12.9 14.5
2 4 24 28.5 15.4
-2 4 -24 15.9 12.6
-2 4 -24 19.7 13.2
-4 -4 -24 42.4 13.8
4 -4 24 20.5 15
-4 -4 -24 47.8 13.9
-4 4 -24 45.7 14.2
4 4 24 15.5 14.5
-4 4 -24 38.8 14.5
-6 -4 -24 371.46 32.4
-6 -4 -24 441.76 33.5
6 -4 24 428.86 35
6 4 24 416.46 34.3
-6 4 -24 348.47 32.1
-8 -4 -24 198.98 20.6
-8 4 -24 220.08 21
-10 -4 -24 2.5 12.5
-10 4 -24 7.5 12.5
-12 -4 -24 296.47 25.8
-12 4 -24 276.37 26.9
-14 -4 -24 49.3 14
-13 -5 24 169.68 21.9
-13 5 24 174.08 23.6
-11 -5 24 270.97 25.6
-11 5 24 195.78 26
-9 -5 24 31.3 16.3
-9 5 24 46.5 17.1
-7 -5 24 1554.74 95.09
-7 5 24 1474.25 95.79
5 -5 -24 65.89 16.8
-5 -5 24 119.49 18.9
-5 -5 24 117.39 16.2
-5 5 24 90.49 18.3
5 5 -24 63.59 17.1
-5 5 24 121.29 17.1
-3 -5 24 114.39 19
-3 -5 24 173.08 18.8
3 -5 -24 179.58 20.6
-3 5 24 217.48 20.2
-3 5 24 113.49 20
3 5 -24 144.19 19.6
1 -5 -24 118.59 17.6
-1 -5 24 123.39 16.1
-1 -5 24 116.99 18.3
1 -5 -24 146.69 18.5
-1 5 24 126.39 18.8
1 5 -24 122.29 17.8
-1 -5 -24 97.39 16.5
1 -5 24 82.99 15.8
-1 -5 -24 79.99 16.3
-1 5 -24 107.49 16.4
-1 5 -24 65.29 15.4
1 5 24 66.39 16.4
-3 -5 -24 1507.05 89.09
-3 -5 -24 1367.06 89.29
3 -5 24 1357.26 89.39
-3 5 -24 1489.55 88.79
3 5 24 1365.16 89.39
-3 5 -24 1434.66 89.09
-5 -5 -24 227.08 21.9
5 -5 24 217.88 22.8
-5 -5 -24 181.38 20.9
-5 5 -24 186.38 21
5 5 24 219.18 22.9
-5 5 -24 192.98 21.2
-7 -5 -24 84.19 15.4
-7 5 -24 80.89 15.2
-9 -5 -24 37.4 12.8
-9 5 -24 27.4 13.2
-11 -5 -24 261.47 24.7
-11 5 -24 242.18 23.2
-13 -5 -24 457.95 33.4
-13 5 -24 448.66 34.9
-12 -6 24 17 15.9
-12 6 24 12.9 16.5
-10 -6 24 133.49 20.1
-10 6 24 151.08 21.8
-8 -6 24 47.6 15.9
-8 6 24 33.6 17.5
6 -6 -24 38.1 16.4
-6 -6 24 54.79 16.6
6 6 -24 40.8 16.4
-6 6 24 15.1 15.7
-4 -6 24 619.74 45.1
-4 -6 24 608.54 43
4 -6 -24 539.05 44.7
-4 6 24 655.13 45.9
4 6 -24 603.84 44.8
-4 6 24 611.04 43.7
2 -6 -24 174.48 20.6
-2 -6 24 117.69 19.1
2 -6 -24 139.99 20.4
-2 -6 24 175.08 18
-2 6 24 191.08 18.9
-2 6 24 107.09 19.2
2 6 -24 125.59 18
0 -6 -24 269.97 27.3
0 -6 -24 268.27 28.7
0 -6 24 291.77 25.7
0 -6 24 308.17 29
0 6 24 216.38 24.7
0 6 -24 255.17 27.2
0 6 -24 250.37 27.2
-2 -6 -24 308.87 30.3
-2 -6 -24 314.97 30.8
2 -6 24 326.77 31.4
-2 6 -24 366.36 30.5
2 6 24 337.87 31.9
-2 6 -24 360.46 30.5
4 -6 24 5257.07 309.57
-4 -6 -24 5343.97 309.57
-4 -6 -24 5239.98 308.77
-4 6 -24 5144.29 309.37
4 6 24 5026.2 309.27
-4 6 -24 5292.47 308.87
-6 -6 -24 384.16 31.4
-6 6 -24 364.16 31.2
-8 -6 -24 4.5 12.5
-8 6 -24 14.2 13.1
-10 -6 -24 98.49 15.7
-10 6 -24 96.29 16.1
-12 -6 -24 -0.5 11.7
-12 6 -24 11.9 12.8
-13 -7 24 12.5 16.3
-13 7 24 -19.7 17.1
-11 -7 24 43.7 16.5
-11 7 24 17.4 17.2
-9 -7 24 32.5 15.9
-9 7 24 55.39 18
-7 -7 24 192.98 23.4
-7 7 24 224.38 24.5
5 -7 -24 334.27 32.2
-5 -7 24 285.67 31.3
-5 -7 24 330.57 28.9
5 7 -24 305.67 31.5
-5 7 24 350.66 30.1
-5 7 24 296.17 32.2
-3 -7 24 379.56 34.2
-3 -7 24 415.46 31.8
3 -7 -24 346.67 33.6
-3 7 24 383.16 35.4
-3 7 24 381.06 32.4
3 7 -24 363.46 33.2
-1 -7 24 -3.5 11.1
1 -7 -24 -10.4 13.4
-1 -7 24 1.9 14
1 -7 -24 31.2 13.6
1 7 -24 1.5 13
-1 7 24 2.6 15
1 -7 24 219.18 23.9
-1 -7 -24 261.27 26.4
-1 -7 -24 284.27 28.1
-1 7 -24 199.68 22.3
1 7 24 217.78 23.9
-1 7 -24 269.47 26.6
3 -7 24 2057.89 121.89
-3 -7 -24 1939.31 121.19
-3 -7 -24 1941.71 120.89
-3 7 -24 1994.9 120.69
3 7 24 1877.51 121.49
-3 7 -24 2047 121.39
5 -7 24 143.49 21.4
-5 -7 -24 203.68 20.8
-5 -7 -24 186.38 21.7
5 7 24 193.98 22.1
-5 7 -24 193.78 20.5
-7 -7 -24 17.7 13.5
-7 7 -24 41.4 14
-9 -7 -24 38.1 13
-9 7 -24 26.1 13.6
-11 -7 -24 275.67 25.6
-11 7 -24 265.87 26.5
-13 -7 -24 88.69 14.5
-13 7 -24 85.59 16
-12 -8 24 -23 15.7
-12 8 24 14.1 17.6
-10 -8 24 302.97 32.1
-10 8 24 370.36 35.1
-8 -8 24 133.89 20.3
-8 8 24 126.99 21.5
-6 -8 24 130.49 18.8
6 -8 -24 119.99 20.4
-6 8 24 111.89 20.6
-4 -8 24 248.98 25
-4 -8 24 226.28 25.1
4 -8 -24 253.77 25.7
4 8 -24 266.57 24.9
-4 8 24 227.58 25.4
-4 8 24 252.17 26.7
-2 -8 24 88.89 14.5
2 -8 -24 93.89 17.5
-2 -8 24 49.8 15.9
-2 8 24 50.79 16.9
2 8 -24 76.39 15.8
0 -8 24 1310.47 86.69
0 -8 -24 1418.56 86.59
0 -8 -24 1426.16 86.59
0 8 -24 1431.76 86.19
0 8 24 1232.38 86.79
2 -8 24 92.19 17.8
-2 -8 -24 78.49 16.2
-2 -8 -24 101.89 17.4
-2 8 -24 64.29 16
-2 8 -24 111.69 16.7
2 8 24 99.49 18.5
-4 -8 -24 472.65 37.5
4 -8 24 504.75 39.6
-4 -8 -24 524.25 38.4
-4 8 -24 461.75 37.9
-4 8 -24 465.85 38.5
4 8 24 507.35 39.4
-6 -8 -24 105.89 17
-6 8 -24 145.09 18.5
-8 -8 -24 104.99 15.7
-8 8 -24 91.29 16.7
-10 -8 -24 91.09 15.3
-10 8 -24 91.59 16.4
-12 -8 -24 121.19 15.6
-12 8 -24 75.29 16
-13 -9 24 92.99 19.1
-13 9 24 110.59 21.9
-11 -9 24 133.39 20
-11 9 24 131.39 22.2
-9 -9 24 22.7 16.2
-9 9 24 -5 16.3
-7 -9 24 9.3 15.5
-7 9 24 45.3 17.7
-5 -9 24 306.57 31.7
5 -9 -24 363.26 33.8
-5 9 24 368.56 31.3
5 9 -24 272.37 31.5
-5 9 24 329.47 34.2
-3 -9 24 109.59 15.9
-3 -9 24 128.79 18.3
3 -9 -24 96.59 18.1
-3 9 24 118.39 16.6
3 9 -24 82.89 16.8
-3 9 24 69.09 18.4
-1 -9 24 113.69 15.8
-1 -9 24 101.29 18.2
1 -9 -24 86.19 16.6
1 -9 -24 99.49 18.2
1 9 -24 83.59 16.8
-1 9 24 111.89 19.6
-1 -9 -24 185.88 21.1
-1 -9 -24 127.09 19.6
1 -9 24 165.48 20.8
-1 9 -24 180.98 20.2
1 9 24 158.78 21.4
-1 9 -24 202.78 20.6
-3 -9 -24 34.4 14.4
3 -9 24 21.4 15.2
-3 -9 -24 39 14.8
-3 9 -24 10.3 14.1
-3 9 -24 48.6 15
3 9 24 31.3 16.2
5 -9 24 230.78 24.6
-5 -9 -24 190.98 21.2
-5 9 -24 197.08 21.9
-7 -9 -24 342.87 30.5
-7 9 -24 361.96 31.4
-9 -9 -24 90.59 15.4
-9 9 -24 91.09 16.9
-11 -9 -24 100.29 15.3
-11 9 -24 82.19 16.1
-13 -9 -24 150.68 16.8
-12 -10 24 27 16.2
-12 10 24 37.9 19.1
-10 -10 24 39 16.5
-10 10 24 13.7 18.3
-8 -10 24 42.7 16.4
-8 10 24 11 16.6
-6 -10 24 -7 14.4
6 -10 -24 26.6 29
-6 10 24 1.2 16.3
4 -10 -24 -7.1 14.6
-4 -10 24 1.2 14.5
-4 10 24 16.3 16.3
-4 10 24 -4.5 12.7
4 10 -24 -15.1 13.7
-2 -10 24 45.4 13.2
2 -10 -24 15.3 15.3
-2 -10 24 23.1 15.9
2 10 -24 41.6 15.5
-2 10 24 15.9 16.1
0 -10 24 295.87 32.5
0 -10 -24 361.56 33.4
0 -10 -24 419.26 33.4
0 10 24 361.76 34.1
0 10 -24 339.27 32.4
-2 -10 -24 -2.9 14
2 -10 24 10.2 15.9
-2 -10 -24 0 14
-2 10 -24 3.7 13.7
-2 10 -24 4.3 14.2
2 10 24 -1.8 15.8
4 -10 24 10.5 15.6
-4 -10 -24 3.7 13.6
-4 10 -24 -12.6 13.5
-6 -10 -24 62.29 15.2
-6 10 -24 75.39 16.2
-8 -10 -24 316.47 28.5
-8 10 -24 316.57 30.3
-10 -10 -24 27.3 13.3
-10 10 -24 17.2 14
-12 -10 -24 40.6 13.5
-12 10 -24 61.29 15.7
-13 11 24 443.06 42.1
-11 -11 24 115.29 20.1
-11 11 24 88.19 21.7
-9 -11 24 14.6 16
-9 11 24 -6.5 17.1
-7 -11 24 33.4 16
-7 11 24 16.4 17.3
-5 -11 24 -1 14.6
5 -11 -24 16.9 16.9
-5 11 24 12.3 16.4
-3 -11 24 65.19 14.2
-3 -11 24 55.19 16.9
3 -11 -24 62.89 17.6
3 11 -24 78.09 16.9
-3 11 24 48.2 17.4
1 -11 -24 120.39 19.1
-1 -11 24 160.28 18.1
-1 -11 24 60.09 17.1
1 -11 -24 88.39 18
1 11 -24 132.79 18.4
-1 11 24 81.79 20
-1 -11 -24 907.01 60.69
-1 -11 -24 873.21 60.99
1 -11 24 913.41 61.49
-1 11 -24 916.81 60.39
1 11 24 870.71 61.79
3 -11 24 22.5 17
-3 -11 -24 14.9 14.2
3 11 24 8.4 16.4
-3 11 -24 40.8 15.4
-3 11 -24 42.8 14.9
-5 -11 -24 55.99 15.7
-5 11 -24 57.69 15.5
-7 -11 -24 1833.22 111.89
-7 11 -24 1816.12 112.49
-9 -11 -24 28.1 13.9
-9 11 -24 22.4 15
-11 -11 -24 70.79 14.3
-11 11 -24 40.4 15.3
-12 -12 24 22.1 16.2
-12 12 24 4.5 18.9
-10 -12 24 122.99 20.2
-10 12 24 89.29 22.5
-8 -12 24 45.4 16.5
-8 12 24 16.8 17.9
-6 -12 24 5.2 15.2
-6 12 24 8.1 16.4
-4 -12 24 708.53 51.09
4 -12 -24 724.73 52.69
-4 12 24 689.03 52.49
-2 -12 24 9.4 15.6
-2 -12 24 43.1 13.2
2 -12 -24 28.4 16.1
-2 12 24 2.9 15.4
2 12 -24 18.5 15.5
0 -12 24 1315.47 86.99
0 -12 -24 1383.66 87.29
0 -12 -24 1360.96 86.99
0 12 24 1289.77 87.89
0 12 -24 1447.26 86.99
2 -12 24 250.87 25.6
-2 -12 -24 193.78 22.6
2 12 24 200.18 24.9
-2 12 -24 192.28 22.3
-2 12 -24 195.08 22.1
4 -12 24 407.56 36.9
-4 -12 -24 367.06 33.1
-4 12 -24 363.56 33.6
-6 -12 -24 523.05 41.5
-6 12 -24 584.44 42.5
-8 -12 -24 182.28 20.6
-8 12 -24 184.78 21.7
-10 -12 -24 183.48 20
-10 12 -24 191.98 22.2
-12 -12 -24 198.08 20.9
-12 12 -24 245.58 26.7
-11 -13 24 151.68 22.1
-11 13 24 143.19 25.2
-9 -13 24 14.7 15.7
-9 13 24 10.6 17.7
-7 -13 24 115.09 19.5
-7 13 24 86.79 20.3
-5 -13 24 365.66 34.6
5 -13 -24 391.06 37.3
-5 13 24 338.17 36.5
3 -13 -24 -26 15.7
-3 -13 24 31.6 15.7
-3 13 24 10.9 16.2
3 13 -24 31.6 15.4
1 -13 -24 -6.3 14.4
-1 -13 24 -10.7 11.7
-1 -13 24 2.6 15.8
1 -13 -24 -22.7 14.4
-1 13 24 9.6 16.7
1 13 -24 -1.9 15.3
-1 -13 -24 36.7 16.4
1 -13 24 21.8 15.8
1 13 24 26.6 16.7
-1 13 -24 21.9 15.2
-3 -13 -24 2879.11 171.08
3 -13 24 2852.11 172.18
-3 13 -24 2749.52 170.78
-5 -13 -24 262.37 25.8
-5 13 -24 269.07 29.2
-7 -13 -24 92.29 16.7
-7 13 -24 96.49 17.9
-9 -13 -24 229.98 26.4
-9 13 -24 288.87 28.8
-11 -13 -24 29.1 14
-11 13 -24 43.2 16.4
-12 14 24 24.6 19.8
-10 -14 24 199.48 23.4
-10 14 24 177.88 26.5
-8 -14 24 59.99 17.5
-8 14 24 71.79 21.1
-6 -14 24 72.39 18.3
-6 14 24 62.29 19.6
-4 -14 24 2.9 15.5
4 -14 -24 19.8 17.6
-4 14 24 6.1 17.1
-2 -14 24 20.8 16
2 -14 -24 34.1 16.5
-2 14 24 30.7 17.8
2 14 -24 3.2 16.1
0 -14 -24 0 15.2
0 -14 24 3.2 16.2
0 14 -24 29.5 16
0 14 24 2.5 17
-2 -14 -24 9.5 15.7
2 -14 24 32.8 17.5
-2 14 -24 36.7 16.3
-4 -14 -24 2293.77 142.79
-4 14 -24 2392.96 143.19
-6 -14 -24 154.78 19.4
-6 14 -24 103.29 19.5
-8 -14 -24 8.2 14
-8 14 -24 21.9 15.9
-10 -14 -24 23.5 14
-10 14 -24 10.8 15.4
-11 -15 24 50.59 18
-11 15 24 47.3 20.7
-9 -15 24 23.9 16.6
-9 15 24 41.4 20.4
-7 -15 24 161.88 21.2
-7 15 24 107.79 23
-5 -15 24 57.59 17.9
-5 15 24 74.29 20
3 -15 -24 555.34 42.9
-3 -15 24 463.45 40.8
-3 15 24 450.35 43
1 -15 -24 15.2 16.1
-1 -15 24 -5 15.6
-1 15 24 13.1 17.8
1 15 -24 17.5 16.7
-1 -15 -24 456.25 40.2
1 -15 24 489.45 42
-1 15 -24 528.05 41.2
-3 -15 -24 223.08 23.8
3 -15 24 200.78 25.7
-3 15 -24 207.58 24.3
-5 -15 -24 41.2 16
-5 15 -24 57.39 16.7
-7 -15 -24 1.3 14.2
-7 15 -24 33 16.7
-9 -15 -24 19.5 14.1
-9 15 -24 -6.4 15.8
-11 -15 -24 345.97 34.5
-11 15 -24 390.66 35.1
-12 16 24 22.3 21.3
-10 -16 24 -9.9 15.9
-10 16 24 -27.7 18.5
-8 -16 24 52.59 18.3
-8 16 24 70.09 21.5
-6 -16 24 131.79 20.8
-6 16 24 81.09 21.9
4 -16 -24 271.47 29.2
-4 -16 24 254.77 27.5
-4 16 24 267.17 29.8
2 -16 -24 70.79 18.9
-2 -16 24 43.7 17.5
-2 16 24 37.3 18.8
0 -16 24 571.24 47
0 -16 -24 567.84 46.2
0 16 -24 641.14 46.8
2 -16 24 161.48 23.7
-2 -16 -24 138.19 20.9
-2 16 -24 151.08 22.2
-4 -16 -24 138.09 20.6
-4 16 -24 171.08 21.9
-6 -16 -24 19.1 15.3
-6 16 -24 13.9 16.1
-8 -16 -24 91.59 18.1
-8 16 -24 89.69 18.9
-10 -16 -24 37.5 15.2
-10 16 -24 31.4 16.8
-11 17 24 -0.4 20.4
-9 -17 24 13.5 17.1
-9 17 24 -10.1 19
-7 -17 24 1767.82 106.99
-7 17 24 1622.24 109.59
-5 -17 24 -1.4 16.6
-5 17 24 17.8 20.4
3 -17 -24 35 18.8
-3 -17 24 26 17.3
-3 17 24 42 20.1
-1 -17 24 43.5 18.2
1 -17 -24 34.9 17.7
-1 -17 -24 74.79 18.3
1 -17 24 43.8 18.8
-1 17 -24 86.89 19.4
-3 -17 -24 55.79 17.3
-3 17 -24 34.5 17.4
-5 -17 -24 417.76 37.1
-5 17 -24 446.46 38.5
-7 -17 -24 151.68 20.3
-7 17 -24 128.09 20.7
-9 -17 -24 -26.3 13.8
-9 17 -24 -2.6 16
-11 17 -24 7.3 16.4
-12 18 24 26.8 25.8
-10 -18 24 66.99 18.4
-10 18 24 25.1 21.9
-8 -18 24 257.67 26.3
-8 18 24 180.08 28
-6 -18 24 526.15 44.1
-6 18 24 535.75 47.9
-4 -18 24 45.3 18.9
-4 18 24 85.59 22.5
-2 -18 24 50.19 18.8
2 -18 -24 53.89 19.9
0 -18 -24 -2.7 16.8
0 -18 24 7.9 18
2 -18 24 11.8 19.1
-2 -18 -24 3.6 16
-2 18 -24 6.4 16.8
-4 -18 -24 -6 15.7
-4 18 -24 -13.4 16.4
-6 -18 -24 296.47 31.8
-6 18 -24 315.97 33.3
-8 -18 -24 59.99 16.8
-8 18 -24 61.79 18.7
-10 18 -24 6.1 16.8
-11 19 24 27.3 22
-9 -19 24 13 17.8
-9 19 24 12.2 20.9
-7 -19 24 109.59 20.8
-7 19 24 103.29 23.7
-5 -19 24 122.59 22.8
-5 19 24 178.18 27
-3 -19 24 866.01 64.79
3 -19 -24 1017.3 67.19
1 -19 -24 3.8 17.9
-1 -19 24 17 18.2
-1 -19 -24 19.9 17.3
1 -19 24 18.6 19.9
-3 -19 -24 201.88 24.4
-3 19 -24 173.88 24.6
-5 -19 -24 34.4 16.8
-5 19 -24 14.7 17.6
-7 -19 -24 96.39 19.3
-7 19 -24 129.99 21.3
-9 19 -24 20.4 17.4
-10 20 24 170.08 28.6
-8 -20 24 64.99 19.4
-8 20 24 60.49 23.3
-6 -20 24 -7.4 18.1
-6 20 24 -20.8 20
-4 -20 24 1011.5 69.69
-2 -20 24 36.1 19.2
2 -20 -24 50.89 20.5
0 -20 -24 105.19 21.8
0 -20 24 139.99 24.4
-2 -20 -24 448.36 40.5
-4 -20 -24 23.5 17.6
-4 20 -24 9.3 18.2
-6 -20 -24 49.1 17.6
-6 20 -24 58.69 19.1
-8 -20 -24 -2.2 15.2
-8 20 -24 0.5 17.2
-10 20 -24 336.87 35.7
-11 21 24 21.8 23.1
-9 21 24 -0.4 22
-7 -21 24 193.08 24.7
-7 21 24 118.29 26.8
-5 -21 24 -3.4 18.3
-3 -21 24 59.29 19.9
-1 -21 24 12.9 19.5
1 -21 -24 13.6 18.2
-1 -21 -24 -12.4 17.1
-3 -21 -24 -5.3 16.8
-5 -21 -24 104.59 20.3
-5 21 -24 102.49 21.2
-7 -21 -24 35.2 17.1
-7 21 -24 -1.2 17.9
-9 21 -24 5.3 17.4
-10 22 24 -3.2 22.6
-8 -22 24 29.5 19
-8 22 24 -4 22.9
-6 -22 24 136.09 23.5
-4 -22 24 96.99 22
-2 -22 24 81.89 22.7
2 -22 -24 119.49 24.4
0 -22 24 98.69 23.2
0 -22 -24 92.29 22.3
-2 -22 -24 121.39 22.6
-4 -22 -24 7 17.7
-6 -22 -24 16 17.7
-6 22 -24 15.1 19
-8 22 -24 94.39 21.7
-7 -23 24 33.9 19.7
-5 -23 24 13.5 19.3
-3 -23 24 36.8 20
1 -23 -24 25.8 19.9
-1 -23 24 -0.7 20.5
-1 -23 -24 51.99 20
-3 -23 -24 10.8 18.1
-5 -23 -24 0 17.4
-7 23 -24 191.68 27.5
-9 23 -24 -6.1 18.4
-6 -24 24 212.08 28
-4 -24 24 31.4 20.3
-2 -24 24 17.7 20.6
0 -24 -24 81.99 22.4
-2 -24 -24 5 18.5
-4 -24 -24 47.5 19.7
-8 24 -24 4.7 20
-5 -25 24 14.8 20
-3 -25 24 7.5 20
1 -25 -24 3.6 21.1
-1 -25 24 3.8 21.2
-1 -25 -24 -6.1 19.2
-3 -25 -24 582.94 48.4
-5 -25 -24 -2.3 18.6
-4 -26 24 107.99 24.3
-2 -26 24 10 21.3
0 -26 -24 39.5 21.9
-2 -26 -24 171.58 26.7
-4 -26 -24 392.96 40.2
-5 -27 24 29.2 21.1
-3 -27 24 79.19 24.2
-1 -27 -24 9.6 20.5
-3 -27 -24 53.99 21.2
-4 -28 24 22.8 21.9
-2 -28 -24 17.9 20.8
-3 -29 24 35.5 23.2
-1 -29 -24 15.4 21.5
-12 0 25 -2.7 15.6
-10 0 25 23.5 16.2
-8 0 25 -14.5 14.7
-6 0 25 0.4 14.9
-6 0 25 -6.4 11.8
6 0 -25 13.2 15
-4 0 25 21.5 15.3
-4 0 25 5.6 12.4
4 0 -25 23.1 14.8
-2 0 25 6.9 11.1
2 0 -25 12.1 14.7
-2 0 25 -4.1 14.7
0 0 -25 -19.3 12.5
0 0 25 6.5 14.3
0 0 -25 10.5 14.5
2 0 25 3.1 14.6
-2 0 -25 0.3 13.2
-2 0 -25 14.3 13.6
-4 0 -25 -0.1 13.1
4 0 25 6.6 15.1
-4 0 -25 7.1 13
6 0 25 5.8 15.2
-6 0 -25 1.3 12.6
-8 0 -25 16.9 13.2
-10 0 -25 30.6 13.4
-12 0 -25 11 12.8
-13 -1 25 36.2 17.1
-13 1 25 -4.1 16.8
-11 -1 25 168.18 22.7
-11 1 25 178.88 22.7
-9 -1 25 208.98 23.4
-9 1 25 213.48 23.8
-7 -1 25 522.85 41.2
-7 1 25 511.15 41.2
5 -1 -25 1058.29 69.39
-5 -1 25 1001.4 69.19
-5 -1 25 1027.8 67.89
5 1 -25 1125.49 69.59
-5 1 25 1030.1 69.19
-5 1 25 1051.69 68.09
-3 -1 25 482.35 35.8
3 -1 -25 389.56 37.2
-3 -1 25 478.65 37.7
-3 1 25 490.25 36.1
3 1 -25 447.16 37.3
-3 1 25 449.06 38.4
-1 -1 25 581.14 41.6
1 -1 -25 519.35 39.7
-1 -1 25 546.15 38.8
1 -1 -25 493.25 40.1
-1 1 25 534.85 38.6
-1 1 25 514.25 41.6
1 1 -25 531.75 39.8
1 1 -25 527.15 40.6
-1 -1 -25 29.8 14.2
-1 -1 -25 14.5 13.4
1 -1 25 13.9 14.7
1 1 25 29.2 14.9
-1 1 -25 -5.5 12.5
-1 1 -25 26.2 14.3
3 -1 25 37.5 15.5
-3 -1 -25 43 14.8
-3 -1 -25 37.6 14.4
3 1 25 12.9 15.2
-3 1 -25 39.9 15.2
-3 1 -25 30.5 14
-5 -1 -25 321.67 29.5
5 -1 25 286.77 30.8
-5 -1 -25 295.27 28.6
5 1 25 269.97 30.6
-5 1 -25 330.07 28.6
-5 1 -25 323.27 29
-7 -1 -25 343.77 30.1
-7 1 -25 352.46 30.3
-9 -1 -25 194.78 19.8
-9 1 -25 164.78 19.3
-11 -1 -25 1049.49 66.69
-11 1 -25 1050.39 67.09
-13 -1 -25 105.29 15.7
-13 1 -25 71.79 15.5
-12 -2 25 -6.6 15.9
-12 2 25 -14.4 16
-10 -2 25 583.04 42.6
-10 2 25 501.35 42.7
-8 -2 25 14.7 15.6
-8 2 25 -6.3 15.4
-6 -2 25 94.29 19.1
6 -2 -25 88.89 18.6
6 2 -25 91.19 18.5
-6 2 25 99.89 18.2
-6 2 25 114.29 18
4 -2 -25 1822.92 113.69
-4 -2 25 1985.7 112.99
-4 -2 25 1700.03 112.99
-4 2 25 1874.71 112.89
4 2 -25 1890.31 113.59
-4 2 25 1722.53 113.29
2 -2 -25 -0.9 14.6
-2 -2 25 5.7 12
-2 -2 25 19.2 15.5
-2 2 25 10.5 15.4
2 2 -25 0.2 13.8
-2 2 25 -0.5 11.8
0 -2 -25 1106.29 72.79
0 -2 -25 1164.38 72.59
0 -2 25 1038.8 72.99
0 2 25 1071.59 73.29
0 2 -25 1173.18 72.69
0 2 -25 1205.98 73.19
-2 -2 -25 8.8 14.2
-2 -2 -25 12.2 13.4
2 -2 25 28.7 15.1
-2 2 -25 18.6 13.7
-2 2 -25 36.6 14.7
2 2 25 37.8 15.1
4 -2 25 16.6 15.1
-4 -2 -25 5.2 13.2
-4 -2 -25 33.9 14.2
4 2 25 11.3 15
-4 2 -25 52.79 15.1
-4 2 -25 16.6 13.3
6 -2 25 322.27 33.8
-6 -2 -25 331.47 29.3
6 2 25 369.46 38.5
-6 2 -25 311.97 29.6
-8 -2 -25 20.5 13.2
-8 2 -25 13.4 13.3
-10 -2 -25 1240.18 79.09
-10 2 -25 1288.67 79.39
-12 -2 -25 26.9 13.1
-12 2 -25 9.4 13.3
-13 -3 25 140.49 21.1
-13 3 25 121.29 21.7
-11 -3 25 98.89 18.9
-11 3 25 101.89 19.7
-9 -3 25 50.59 17.1
-9 3 25 43.7 17.6
-7 -3 25 3928.41 228.58
-7 3 25 3710.53 228.58
5 -3 -25 33.7 15.9
-5 -3 25 9.2 12.5
-5 -3 25 -4.3 14.4
-5 3 25 -5.1 15.2
-5 3 25 45.1 13.7
5 3 -25 11.6 15.1
3 -3 -25 75.09 16.8
-3 -3 25 52.69 17.1
-3 -3 25 65.99 14.6
-3 3 25 65.89 14.7
3 3 -25 65.89 16.2
-3 3 25 76.19 17.8
-1 -3 25 15.3 14.7
1 -3 -25 -13.6 13.7
-1 -3 25 10.5 11.7
1 -3 -25 1.4 13.9
1 3 -25 7.1 14.2
1 3 -25 4.6 15.2
-1 3 25 14.2 14.4
1 -3 25 113.29 18.6
-1 -3 -25 176.78 19.6
-1 -3 -25 142.99 18.6
-1 3 -25 149.59 18.1
1 3 25 123.09 18.9
-1 3 -25 189.68 20.6
-3 -3 -25 209.98 21.3
-3 -3 -25 156.18 19.9
3 -3 25 191.68 22.1
-3 3 -25 237.98 22.3
3 3 25 155.68 21.2
-3 3 -25 182.98 21
-5 -3 -25 51.09 14.8
5 -3 25 56.99 16.2
-5 -3 -25 34.4 14.4
-5 3 -25 29.1 14.2
5 3 25 91.79 17.2
-5 3 -25 55.59 15.2
-7 -3 -25 42.2 14.3
-7 3 -25 55.79 14.5
-9 -3 -25 6 12.7
-9 3 -25 3.6 13
-11 -3 -25 7.6 12.9
-11 3 -25 30.1 13.6
-13 -3 -25 1309.17 80.29
-13 3 -25 1276.67 80.89
-12 -4 25 17.9 16.3
-12 4 25 47.3 18.1
-10 -4 25 12.7 15.9
-10 4 25 16.7 16.1
-8 -4 25 2705.83 161.88
-8 4 25 2634.24 162.28
6 -4 -25 1557.64 96.99
-6 -4 25 1449.95 95.69
-6 4 25 1547.75 96.69
6 4 -25 1557.74 96.59
4 -4 -25 170.98 21.1
-4 -4 25 197.38 20.2
-4 -4 25 159.48 21.4
-4 4 25 152.78 19.3
4 4 -25 202.78 21.9
-4 4 25 111.29 20.2
2 -4 -25 46.7 16.2
-2 -4 25 78.19 14.6
-2 -4 25 67.19 17
2 4 -25 64.29 16.7
-2 4 25 58.39 14.2
-2 4 25 63.59 16.9
0 -4 25 466.35 40.2
0 -4 -25 536.95 40.5
0 -4 -25 580.94 40.2
0 4 -25 513.35 38.9
0 4 -25 500.95 39.9
0 4 25 499.25 40.5
-2 -4 -25 24.9 14.3
-2 -4 -25 26 14.4
2 -4 25 19.2 14.9
2 4 25 6.4 15.2
-2 4 -25 -1.2 13.3
-2 4 -25 20.3 13.7
-4 -4 -25 723.93 50.39
-4 -4 -25 719.13 50.49
4 -4 25 658.13 51.29
4 4 25 732.83 51.79
-4 4 -25 774.52 50.79
-4 4 -25 763.42 50.49
-6 -4 -25 118.49 17.8
-6 4 -25 170.98 18.8
-8 -4 -25 31.7 13.6
-8 4 -25 33.3 13.6
-10 -4 -25 -5.8 12.8
-10 4 -25 2.6 12.5
-12 -4 -25 69.09 14.3
-12 4 -25 81.99 15.3
-13 -5 25 0 16.4
-13 5 25 -1.7 16.6
-11 -5 25 6 16.1
-11 5 25 0.9 16.9
-9 -5 25 -3 15.4
-9 5 25 -10.3 16.4
-7 -5 25 936.11 64.29
-7 5 25 984 65.39
-5 -5 25 343.97 30.9
5 -5 -25 391.76 34.1
-5 -5 25 354.66 33.9
-5 5 25 343.37 34.5
-5 5 25 374.96 32
5 5 -25 361.16 33.7
-3 -5 25 -10.4 15.8
3 -5 -25 13.3 15.3
-3 -5 25 20.1 12.2
-3 5 25 25 13.1
3 5 -25 22.3 15.7
-3 5 25 5.8 15.6
1 -5 -25 418.16 35.5
1 -5 -25 455.85 36.1
-1 -5 25 430.26 33.9
-1 -5 25 419.26 36.3
-1 5 25 421.06 36.7
1 5 -25 424.46 35.2
-1 -5 -25 38 15.2
1 -5 25 21.1 15
-1 -5 -25 31 15.2
-1 5 -25 32.2 13.6
-1 5 -25 35.3 14.5
1 5 25 34.4 15.6
-3 -5 -25 1636.44 97.19
-3 -5 -25 1591.84 96.59
3 -5 25 1414.26 96.79
-3 5 -25 1588.14 96.49
3 5 25 1481.55 97.19
-3 5 -25 1579.14 96.79
5 -5 25 -12.7 14.6
-5 -5 -25 2 13.4
-5 -5 -25 1.6 13.6
-5 5 -25 -8.7 12.3
5 5 25 -1.6 15
-7 -5 -25 798.62 56.19
-7 5 -25 903.41 56.39
-9 -5 -25 214.68 24
-9 5 -25 222.28 22.1
-11 -5 -25 301.37 27.3
-11 5 -25 294.97 27.9
-13 -5 -25 166.38 18.6
-13 5 -25 203.48 20.3
-12 -6 25 36.3 16.9
-12 6 25 64.19 19.4
-10 -6 25 285.57 27.5
-10 6 25 264.37 29.3
-8 -6 25 -6.5 14.7
-8 6 25 -1.8 16.1
6 -6 -25 423.26 36.6
-6 -6 25 378.06 35.8
-6 6 25 380.76 36.1
-4 -6 25 1470.25 99.09
4 -6 -25 1582.24 99.79
-4 -6 25 1793.02 98.89
4 6 -25 1612.94 99.49
-4 6 25 1611.44 98.89
-4 6 25 1439.36 99.59
-2 -6 25 5.4 14.9
2 -6 -25 25.7 15.3
-2 -6 25 -13.5 11.5
-2 6 25 18.7 13.6
-2 6 25 8.5 15.1
2 6 -25 8.9 13.2
0 -6 -25 41.9 15.7
0 -6 -25 26.6 14.5
0 -6 25 36.8 15.4
0 6 -25 7 14.1
0 6 25 18.3 15.8
0 6 -25 2.9 13.4
-2 -6 -25 29 14.6
-2 -6 -25 12.8 14.2
2 -6 25 2.1 14.7
-2 6 -25 18.8 13.3
2 6 25 51.69 16.1
-2 6 -25 -12.2 13.3
-4 -6 -25 124.09 18
4 -6 25 87.29 18.3
-4 -6 -25 87.09 16.6
-4 6 -25 94.69 17.2
4 6 25 113.29 18.4
-4 6 -25 94.19 16.6
-6 -6 -25 11.7 13.2
-6 6 -25 6.1 13.3
-8 -6 -25 7.7 13.1
-8 6 -25 -7.1 12.7
-10 -6 -25 624.04 43.1
-10 6 -25 591.04 43.3
-12 -6 -25 87.49 15
-12 6 -25 88.09 15.8
-13 -7 25 116.39 20.6
-13 7 25 155.48 23
-11 -7 25 627.74 48.3
-11 7 25 687.33 50.59
-9 -7 25 55.59 17
-9 7 25 34.7 18.4
-7 -7 25 267.37 25.8
-7 7 25 204.88 26.1
5 -7 -25 27.9 16.9
-5 -7 25 33.9 16.3
-5 7 25 41.2 15
-5 7 25 34.3 16.9
5 7 -25 39.5 16.4
-3 -7 25 772.62 48.8
3 -7 -25 679.33 50.29
-3 -7 25 634.64 49.7
-3 7 25 626.14 50.79
3 7 -25 681.13 49.6
-3 7 25 770.12 49
1 -7 -25 8.9 14.1
-1 -7 25 7 14.3
1 -7 -25 -4.3 13.7
-1 -7 25 41.9 14.2
1 7 -25 16.8 13.6
-1 7 25 -7.3 15.3
1 -7 25 70.89 17.4
-1 -7 -25 80.09 16.2
-1 -7 -25 65.99 17
1 7 25 83.89 17.1
-1 7 -25 103.79 16.6
-1 7 -25 85.99 16.1
-3 -7 -25 5186.18 305.17
3 -7 25 5058.29 305.17
-3 -7 -25 5091.69 304.57
-3 7 -25 5384.66 305.27
3 7 25 5062.09 305.17
-3 7 -25 5048.19 304.47
5 -7 25 127.09 20.1
-5 -7 -25 106.89 18
-5 7 -25 135.59 18
-7 -7 -25 246.38 24.6
-7 7 -25 318.37 27.9
-9 -7 -25 14.9 12.8
-9 7 -25 19.4 13.7
-11 -7 -25 145.49 17.6
-11 7 -25 154.18 18.9
-13 -7 -25 37.2 13.1
-12 -8 25 172.68 22.2
-12 8 25 151.98 24
-10 -8 25 16.2 15.7
-10 8 25 -0.1 17.1
-8 -8 25 16.1 16.3
-8 8 25 -0.5 17
-6 -8 25 27.4 16.2
6 -8 -25 4.6 16.5
-6 8 25 27 16.6
4 -8 -25 204.68 24.4
-4 -8 25 228.18 24.4
-4 -8 25 257.57 25.6
-4 8 25 159.58 23.3
-4 8 25 249.88 26.8
4 8 -25 256.27 24.8
-2 -8 25 4.5 14.9
2 -8 -25 14.8 14.6
-2 -8 25 3.9 11.7
-2 8 25 17.4 15.6
2 8 -25 36.8 15
0 -8 -25 94.19 18
0 -8 25 105.49 18.1
0 -8 -25 106.19 17.7
0 8 25 119.29 19.3
0 8 -25 76.69 16.7
-2 -8 -25 1570.64 107.09
-2 -8 -25 1870.91 107.49
2 -8 25 1677.93 107.69
2 8 25 1643.14 107.69
-2 8 -25 1844.12 107.59
-2 8 -25 1763.32 106.99
-4 -8 -25 2749.82 167.88
4 -8 25 2647.44 168.98
-4 8 -25 3007.9 171.78
-4 8 -25 2790.02 168.28
4 8 25 2784.22 168.98
-6 -8 -25 54.69 14.9
-6 8 -25 51.09 15
-8 -8 -25 106.39 16.3
-8 8 -25 104.49 17.3
-10 -8 -25 24.8 13.3
-10 8 -25 12.5 13.6
-12 -8 -25 10.1 12.2
-12 8 -25 5.6 13.3
-13 9 25 22.8 19.6
-11 -9 25 56.19 17.2
-11 9 25 37.1 19.2
-9 -9 25 73.79 18.3
-9 9 25 49.4 19.7
-7 -9 25 43.7 17
-7 9 25 59.89 18.6
-5 -9 25 211.78 23.8
5 -9 -25 234.88 25.7
-5 9 25 197.48 31
-3 -9 25 16.3 12.5
-3 -9 25 -12.1 14.9
3 -9 -25 28.7 15.5
3 9 -25 11.5 14.6
-3 9 25 33.8 16.3
1 -9 -25 869.91 59.09
-1 -9 25 1005.4 58.19
1 -9 -25 837.32 59.19
-1 -9 25 755.42 59.09
1 9 -25 873.91 58.89
-1 9 25 845.22 60.19
-1 -9 -25 824.22 58.99
-1 -9 -25 923.41 59.69
1 -9 25 804.82 59.59
1 9 25 900.21 60.79
-1 9 -25 935.81 59.39
-1 9 -25 858.71 58.99
-3 -9 -25 121.89 18.8
3 -9 25 142.49 20.5
3 9 25 108.99 20
-3 9 -25 141.79 19.5
-3 9 -25 133.19 18.6
-5 -9 -25 -1.4 13.5
-5 9 -25 7.4 13.5
-7 -9 -25 1641.24 102.09
-7 9 -25 1668.33 102.59
-9 -9 -25 14.8 12.8
-9 9 -25 12.2 13.6
-11 -9 -25 94.79 15.6
-11 9 -25 95.69 17.2
-12 -10 25 3.1 16.2
-12 10 25 17.7 19
-10 -10 25 392.26 34.9
-10 10 25 325.77 37.3
-8 -10 25 6.2 16.2
-8 10 25 -4.2 16.3
-6 -10 25 633.54 46.6
-6 10 25 602.84 48.4
-4 -10 25 491.75 41.7
4 -10 -25 575.74 43.6
-4 10 25 543.65 41.8
-4 10 25 502.45 44.1
4 10 -25 559.54 42.5
-2 -10 25 1.8 11.9
-2 -10 25 -4.3 14.9
2 -10 -25 -9.6 15.1
2 10 -25 -8.5 14.2
-2 10 25 2.3 15.5
0 -10 -25 5013.7 276.07
0 -10 -25 4816.72 275.57
0 -10 25 4420.16 275.17
0 10 -25 4491.75 274.97
0 10 25 4378.96 275.67
-2 -10 -25 4.8 14.7
2 -10 25 6.9 15.2
-2 -10 -25 5.9 15
-2 10 -25 -10.7 13.9
2 10 25 -13 15.3
-2 10 -25 6.9 14.3
4 -10 25 61.69 17.5
-4 -10 -25 81.79 17.2
-4 10 -25 86.99 17.2
-6 -10 -25 1787.22 114.09
-6 10 -25 1934.41 114.79
-8 -10 -25 15.6 13.5
-8 10 -25 -17.5 13.7
-10 -10 -25 354.06 30.2
-10 10 -25 329.87 31.7
-12 -10 -25 295.87 27.8
-12 10 -25 326.47 30
-13 11 25 4.5 19.5
-11 -11 25 3 16.3
-11 11 25 19.2 19.5
-9 -11 25 130.89 21.4
-9 11 25 179.18 24.1
-7 -11 25 19 16.1
-7 11 25 41 18.2
5 -11 -25 17.2 17.5
-5 -11 25 31.7 16.3
-5 11 25 28.9 17.4
3 -11 -25 -8.7 15.5
-3 -11 25 -11.6 15
-3 11 25 -2.2 16.7
3 11 -25 24 15.5
-1 -11 25 264.17 28.2
1 -11 -25 286.47 31.6
1 -11 -25 282.77 31.5
-1 -11 25 360.76 29.2
1 11 -25 331.27 31.7
-1 11 25 313.77 30.8
-1 -11 -25 118.89 19.3
-1 -11 -25 66.19 17.2
1 -11 25 79.69 18.8
-1 11 -25 101.09 18.5
1 11 25 120.09 20
-3 -11 -25 1143.89 73.29
3 -11 25 1134.29 75.19
-3 11 -25 1111.29 73.89
-5 -11 -25 55.59 15.5
-5 11 -25 27.5 15
-7 -11 -25 250.27 26.9
-7 11 -25 255.57 28.4
-9 -11 -25 26.3 13.7
-9 11 -25 20.9 15.1
-11 -11 -25 71.59 15.3
-11 11 -25 76.29 16.6
-12 -12 25 105.49 19.7
-12 12 25 110.99 23.5
-10 -12 25 40.2 17.8
-10 12 25 16.8 18.8
-8 -12 25 21.7 16.3
-8 12 25 25.7 17.8
-6 -12 25 38.1 16.8
-6 12 25 47.7 18.1
4 -12 -25 206.58 24.1
-4 -12 25 169.68 22.5
-4 12 25 136.19 22.7
-2 -12 25 26.5 15.2
2 -12 -25 39.4 16.5
-2 12 25 47.1 18.3
2 12 -25 33.6 16.3
0 -12 -25 230.18 25
0 -12 -25 238.08 28.8
0 12 25 258.97 26.6
0 12 -25 198.88 23.8
-2 -12 -25 603.04 46.4
2 -12 25 647.74 48.4
-2 12 -25 623.14 46.4
2 12 25 587.74 59.79
-2 12 -25 636.34 46.4
-4 -12 -25 1368.66 88.19
-4 12 -25 1417.16 88.49
-6 -12 -25 28.9 15
-6 12 -25 27.2 15
-8 -12 -25 -1.2 13.7
-8 12 -25 10.1 14.8
-10 -12 -25 27.4 14.2
-10 12 -25 46.2 15.9
-12 12 -25 52.89 17.9
-11 -13 25 248.18 27
-11 13 25 265.07 29.8
-9 -13 25 14.8 16.2
-9 13 25 3.2 17.7
-7 -13 25 14.5 16
-7 13 25 6.6 17.6
-5 -13 25 16.4 16.6
-5 13 25 47.9 17.9
-3 -13 25 125.49 20.1
3 -13 -25 137.09 22
-3 13 25 114.49 21.7
1 -13 -25 8.2 15.8
-1 -13 25 0.4 15.4
-1 -13 25 -1.5 14.2
1 13 -25 -9.8 14.9
-1 13 25 8.2 16.4
1 -13 25 6.9 16.5
-1 -13 -25 29.6 15.9
1 13 25 29.1 17.7
-1 13 -25 10.8 15.3
-3 -13 -25 638.34 48.7
3 -13 25 638.14 51.09
-3 13 -25 701.93 49
-5 -13 -25 -5.7 14.4
-5 13 -25 18.2 15.5
-7 -13 -25 111.99 18.2
-7 13 -25 136.39 19.9
-9 -13 -25 9.6 13.5
-9 13 -25 9.4 15.4
-11 -13 -25 257.67 25.8
-11 13 -25 209.48 24
-12 14 25 0.2 19.6
-10 -14 25 34.4 17.1
-10 14 25 6.2 19.3
-8 -14 25 53.79 17.7
-8 14 25 28.8 18.6
-6 -14 25 44.5 17.5
-6 14 25 31.4 18.6
-4 -14 25 298.47 32.3
4 -14 -25 369.86 35.8
-4 14 25 269.87 30.3
-2 -14 25 3.5 15.4
2 -14 -25 9.4 16.1
2 14 -25 19.6 16.7
-2 14 25 -1.8 16.8
0 -14 25 -27.2 15.4
0 -14 -25 42.4 16.7
0 14 25 -7.7 16.7
0 14 -25 4.6 15.9
-2 -14 -25 420.56 37.7
2 -14 25 419.86 39.1
-2 14 -25 447.26 37.9
-4 -14 -25 742.63 52.99
-4 14 -25 747.43 53.09
-6 -14 -25 5.2 14.5
-6 14 -25 11.4 15.7
-8 -14 -25 -23.5 13.2
-8 14 -25 -15.1 14.9
-10 -14 -25 291.57 29.7
-10 14 -25 339.27 31.9
-11 -15 25 38.2 17.9
-11 15 25 30.5 20.5
-9 -15 25 9.3 16.7
-9 15 25 -18.4 18.8
-7 -15 25 1128.09 73.59
-7 15 25 1079.09 76.09
-5 -15 25 2.9 16.2
-5 15 25 30.1 18.9
3 -15 -25 8.3 18
-3 -15 25 26.4 16.8
-3 15 25 -9.9 17.4
1 -15 -25 155.48 22.3
-1 -15 25 140.79 23.1
-1 15 25 147.39 24.7
1 15 -25 178.08 23
-1 -15 -25 14 16.1
1 -15 25 58.29 18.3
-1 15 -25 30.9 17.2
-3 -15 -25 3227.08 194.48
-3 15 -25 3222.88 194.68
-5 -15 -25 11.6 15.1
-5 15 -25 2.2 15.8
-7 -15 -25 335.87 32.5
-7 15 -25 370.76 34.8
-9 -15 -25 15.1 14.3
-9 15 -25 -6.2 15.6
-11 15 -25 58.59 18.1
-12 16 25 46.2 21.4
-10 -16 25 36.2 17.5
-10 16 25 27.8 21
-8 -16 25 569.24 44.9
-8 16 25 541.45 49.2
-6 -16 25 669.33 51.09
-6 16 25 689.13 54.69
4 -16 -25 232.28 28.6
-4 -16 25 272.57 28.5
-4 16 25 230.48 29
2 -16 -25 0.7 17
-2 -16 25 0.4 16.6
-2 16 25 -8.9 17.7
0 -16 25 155.88 23
0 -16 -25 107.79 21.2
0 16 -25 138.49 21.5
-2 -16 -25 -7.3 15.4
2 -16 25 6.5 18.5
-2 16 -25 3.6 17
-4 -16 -25 230.68 24.8
-4 16 -25 215.18 24.9
-6 -16 -25 12.8 15.6
-6 16 -25 0.2 16.4
-8 -16 -25 63.79 16.6
-8 16 -25 72.09 18.1
-10 -16 -25 60.29 15.9
-10 16 -25 37.9 18.3
-11 17 25 2 19.9
-9 -17 25 25.7 17.7
-9 17 25 7 20
-7 -17 25 202.18 24.7
-7 17 25 193.08 28.1
-5 -17 25 11.5 17.7
-5 17 25 -4.2 19.6
-3 -17 25 25.6 17.1
3 -17 -25 -16.6 17.9
-3 17 25 -21.4 18.7
1 -17 -25 150.08 22.6
-1 -17 25 134.19 22.5
1 -17 25 275.37 31.8
-1 -17 -25 340.67 34.2
-1 17 -25 375.16 35.5
-3 -17 -25 -6.2 16.1
-3 17 -25 -8.9 17
-5 -17 -25 166.68 21.8
-5 17 -25 146.79 22.5
-7 -17 -25 65.79 17.4
-7 17 -25 37.2 17.6
-9 -17 -25 -1.5 14.8
-9 17 -25 -9.8 15.9
-10 -18 25 109.39 29.4
-10 18 25 80.39 23.7
-8 -18 25 203.08 24.9
-8 18 25 161.98 27.2
-6 -18 25 218.68 25.2
-6 18 25 189.08 28.3
-4 -18 25 518.75 44.1
-4 18 25 542.75 49.3
-2 -18 25 22.2 18.4
2 -18 -25 32.5 19.2
0 -18 -25 470.45 40.9
0 -18 25 411.36 41.6
-2 -18 -25 49.2 18.4
-2 18 -25 50.49 19.1
-4 -18 -25 -2.2 16
-4 18 -25 -6.2 16.4
-6 -18 -25 240.78 25.9
-6 18 -25 253.87 27.1
-8 -18 -25 6.4 15.2
-8 18 -25 13 16.8
-10 18 -25 327.77 34.1
-11 19 25 12.5 21.6
-9 -19 25 -9.8 17.7
-9 19 25 4.2 21
-7 -19 25 233.38 26.9
-7 19 25 249.58 30.9
-5 -19 25 23.4 18.6
-5 19 25 14 21.3
3 -19 -25 11.9 19.3
-3 -19 25 -1.4 17.9
1 -19 -25 157.88 24.3
-1 -19 25 153.78 24.8
-1 -19 -25 4.9 17.1
1 -19 25 -8.2 19.2
-3 -19 -25 5.9 16.9
-3 19 -25 -15.1 17
-5 -19 -25 3.7 15.9
-5 19 -25 8.7 17.6
-7 -19 -25 212.18 24.5
-7 19 -25 195.38 25.2
-9 19 -25 9.6 17.4
-10 20 25 71.99 23.8
-8 -20 25 -0.3 17.7
-8 20 25 8.5 22.2
-6 -20 25 10.1 18
-6 20 25 28.5 22.1
-4 -20 25 824.12 59.89
2 -20 -25 55.09 20.3
-2 -20 25 19.6 19.6
0 -20 -25 19.9 17.8
0 -20 25 22.3 20.1
-2 -20 -25 26.7 17.9
-4 -20 -25 12.5 17.3
-4 20 -25 9.6 18.6
-6 -20 -25 -11.4 15.8
-6 20 -25 -15.9 17.5
-8 -20 -25 -10.1 15.9
-8 20 -25 -6 17.6
-10 20 -25 420.66 39
-11 21 25 145.99 28.9
-9 21 25 8.2 22.5
-7 -21 25 15.6 19
-5 -21 25 182.08 25
-3 -21 25 416.96 40.9
1 -21 -25 124.99 22.4
-1 -21 25 35.2 20.7
-1 -21 -25 24.5 18.2
-3 -21 -25 -21.7 16.7
-5 -21 -25 33.5 18.2
-5 21 -25 35.7 19.8
-7 -21 -25 66.49 19.2
-7 21 -25 118.29 22.4
-9 21 -25 135.39 24.2
-10 22 25 103.79 27.3
-8 -22 25 121.49 25.3
-6 -22 25 275.67 30
-4 -22 25 253.77 29.3
-2 -22 25 -8.8 19.4
2 -22 -25 9.7 20.1
0 -22 -25 200.78 27.1
0 -22 25 191.28 27.7
-2 -22 -25 19 18.3
-4 -22 -25 -27.4 16.8
-6 -22 -25 36 18.5
-6 22 -25 35.2 20.1
-8 22 -25 29.4 19.4
-7 -23 25 725.63 55.69
-5 -23 25 -27.5 18
-3 -23 25 2.1 19.1
1 -23 -25 48.7 21.2
-1 -23 25 10.7 21.2
-1 -23 -25 38.6 20.6
-3 -23 -25 64.29 20
-5 -23 -25 5.7 18.1
-7 23 -25 183.78 26.1
-9 23 -25 21.9 20.3
-6 -24 25 16.7 19.5
-4 -24 25 -12.6 19.7
-2 -24 25 4.3 20.5
0 -24 -25 174.78 27.4
-2 -24 -25 10.4 18.8
-4 -24 -25 70.99 21
-8 24 -25 49 21.2
-5 -25 25 60.99 22.7
-3 -25 25 15.5 20.9
-1 -25 -25 44.5 20.9
-3 -25 -25 67.49 20.5
-4 -26 25 99.59 24.6
-2 -26 25 41 22.3
0 -26 -25 -22.3 19.7
-2 -26 -25 22 19.9
-4 -26 -25 215.98 27.9
-5 -27 25 20.9 22.4
-3 -27 25 27.3 22.7
-1 -27 -25 2.8 19.9
-3 -27 -25 841.92 63.19
-4 -28 25 26.1 22.7
-2 -28 -25 56.79 22.8
-1 -29 -25 199.58 30
-12 0 26 104.59 20.4
-10 0 26 361.56 34.7
-8 0 26 50.59 17.4
6 0 -26 245.88 24.8
-6 0 26 160.48 22.6
-4 0 26 2678.33 171.58
4 0 -26 2869.61 171.88
-4 0 26 2968.9 171.38
2 0 -26 564.04 44.1
-2 0 26 624.84 42.9
-2 0 26 593.04 44.9
0 0 -26 261.47 28.1
0 0 -26 299.67 27.6
0 0 26 195.18 23.9
2 0 26 10.8 15.1
-2 0 -26 3.3 13.8
-2 0 -26 6.9 13.7
4 0 26 356.16 34.3
-4 0 -26 334.97 32.2
-4 0 -26 432.96 32.6
-6 0 -26 65.89 15.5
-8 0 -26 6 13
-10 0 -26 2949.7 176.48
-12 0 -26 91.29 15.9
-13 -1 26 -8.5 16.7
-13 1 26 1.4 16.9
-11 -1 26 262.27 26.9
-11 1 26 247.88 27
-9 -1 26 -21.8 14.7
-9 1 26 -5.8 15.5
-7 -1 26 405.56 35.1
-7 1 26 324.87 33.9
5 -1 -26 818.22 57.89
-5 -1 26 809.22 57.79
-5 -1 26 862.81 56.29
-5 1 26 747.33 57.49
5 1 -26 836.92 57.99
-5 1 26 911.11 56.89
3 -1 -26 1.1 14.9
-3 -1 26 5.5 12.1
-3 -1 26 -5.6 14.6
-3 1 26 9.5 12.3
-3 1 26 -8.8 15.1
3 1 -26 -0.3 14.9
1 -1 -26 75.79 15.6
-1 -1 26 80.29 14.6
1 -1 -26 69.99 17
-1 -1 26 23.7 16.4
1 1 -26 63.79 16.1
-1 1 26 57.99 16.8
1 1 -26 31.2 14.7
-1 -1 -26 464.75 36.4
-1 -1 -26 491.85 36.9
1 -1 26 393.86 37.3
-1 1 -26 518.75 37.1
1 1 26 375.46 36.7
-1 1 -26 419.56 36.1
-3 -1 -26 23.6 13.9
3 -1 26 3.1 14.9
-3 -1 -26 26.9 14.3
-3 1 -26 16.1 14.5
-3 1 -26 15.9 13.9
3 1 26 50.29 16.4
-5 -1 -26 198.18 30.1
-5 -1 -26 219.98 22
5 -1 26 181.18 22.6
-5 1 -26 184.48 20.6
5 1 26 195.08 23.3
-7 -1 -26 88.69 16.1
-7 1 -26 77.59 15.9
-9 -1 -26 272.37 27.3
-9 1 -26 294.37 27.8
-11 -1 -26 360.86 29.9
-11 1 -26 333.97 30
-13 -1 -26 267.27 26.1
-13 1 -26 262.47 26.6
-12 -2 26 57.39 18
-12 2 26 69.09 18.9
-10 -2 26 0.2 15.8
-10 2 26 2.4 16.3
-8 -2 26 1223.18 79.99
-8 2 26 1237.68 80.29
-6 -2 26 230.38 24.8
6 -2 -26 193.18 23.6
6 2 -26 170.38 23.3
-6 2 26 215.98 23.9
-4 -2 26 42.5 14.2
-4 -2 26 20.4 16.2
4 -2 -26 22.4 16.6
-4 2 26 -1.9 12.9
-4 2 26 18.9 16.3
4 2 -26 27.4 15.7
-2 -2 26 345.57 34
-2 -2 26 395.56 31.3
2 -2 -26 358.16 33.6
-2 2 26 414.46 31.8
-2 2 26 323.07 33.9
2 2 -26 334.17 32.8
0 -2 26 284.37 30.9
0 -2 -26 271.27 28.6
0 -2 -26 344.57 30.2
0 2 -26 318.67 30.1
0 2 26 220.08 26
0 2 -26 309.57 29.2
-2 -2 -26 502.15 37
-2 -2 -26 427.56 36.3
2 -2 26 425.56 38.1
-2 2 -26 521.65 37
-2 2 -26 452.15 36.2
2 2 26 377.16 37.4
4 -2 26 13.9 15.6
-4 -2 -26 -0.9 13.6
-4 -2 -26 -1.3 13.3
4 2 26 15.8 14.8
-4 2 -26 10.3 13.4
-4 2 -26 -4.3 13.5
-6 -2 -26 676.83 46.9
-6 2 -26 670.13 47.5
-8 -2 -26 104.89 16.8
-8 2 -26 124.99 17.7
-10 -2 -26 17.8 13.5
-10 2 -26 44.3 14.1
-12 -2 -26 160.08 19
-12 2 -26 174.38 19.7
-13 -3 26 181.08 23.8
-13 3 26 198.18 25.3
-11 -3 26 38.3 17
-11 3 26 21.9 17.3
-9 -3 26 210.08 23.5
-9 3 26 179.18 24.1
-7 -3 26 478.55 40.8
-7 3 26 495.35 40.7
-5 -3 26 85.79 15.6
5 -3 -26 59.09 16.9
-5 -3 26 50.69 16.4
-5 3 26 55.19 15.5
5 3 -26 84.39 18.6
-5 3 26 102.69 18.8
-3 -3 26 191.38 22.2
3 -3 -26 128.99 20.7
-3 -3 26 169.68 19.5
3 3 -26 147.39 20.8
-3 3 26 176.98 22
-3 3 26 173.58 20.2
-1 -3 26 1628.14 99.19
-1 -3 26 1687.43 97.99
1 -3 -26 1567.74 98.69
-1 3 26 1411.76 98.69
1 3 -26 1576.24 98.59
-1 -3 -26 499.65 39.9
-1 -3 -26 553.94 40.5
1 -3 26 539.25 41.5
-1 3 -26 553.14 40.4
1 3 26 458.95 40.6
3 -3 26 12.7 16.1
-3 -3 -26 44.3 15
-3 -3 -26 28.2 14.1
-3 3 -26 38.5 14.9
3 3 26 37.1 15.8
-3 3 -26 21.8 13.9
-5 -3 -26 46.9 14.7
5 -3 26 26.6 16.3
-5 3 -26 54.99 14.7
5 3 26 28.7 16.3
-7 -3 -26 454.75 36.2
-7 3 -26 481.65 36.7
-9 -3 -26 2.2 13.2
-9 3 -26 -9.5 13.3
-11 -3 -26 0.7 12.7
-11 3 -26 29 13.8
-13 -3 -26 358.46 30.6
-13 3 -26 385.96 31.7
-12 -4 26 23.3 16.6
-12 4 26 17.8 18
-10 -4 26 26.3 16.9
-10 4 26 27.3 17.5
-8 -4 26 25.7 16.6
-8 4 26 21.5 17.8
-6 -4 26 607.94 46.8
6 -4 -26 627.74 48.2
-6 4 26 640.14 47.8
-4 -4 26 29.2 16.4
4 -4 -26 40.8 16.9
-4 -4 26 22.4 13.5
-4 4 26 31.6 16.4
-4 4 26 33.4 13.5
4 4 -26 18.6 16
2 -4 -26 54.59 17.1
-2 -4 26 79.69 15
-2 -4 26 60.69 17.1
-2 4 26 53.19 16.2
2 4 -26 37.2 15.5
-2 4 26 75.49 15.1
0 -4 -26 1377.56 86.09
0 -4 -26 1483.25 86.29
0 -4 26 1345.47 86.39
0 4 -26 1363.16 85.39
0 4 26 1281.77 86.19
0 4 -26 1259.97 85.49
2 -4 26 21.6 15.8
-2 -4 -26 35.3 13.9
-2 -4 -26 22.1 14.7
-2 4 -26 41.3 14.3
2 4 26 25.7 15.9
-2 4 -26 31.1 13.8
-4 -4 -26 18.9 14.4
4 -4 26 32.7 16.1
-4 -4 -26 27.4 14
-4 4 -26 22 14.5
-4 4 -26 31.5 14
4 4 26 50.09 16
-6 -4 -26 278.57 28
-6 4 -26 274.77 27.8
-8 -4 -26 107.29 16.4
-8 4 -26 81.79 16
-10 -4 -26 11.7 13.6
-10 4 -26 6 13.3
-12 -4 -26 37.7 13.6
-12 4 -26 55.39 15
-13 -5 26 6.7 16.3
-13 5 26 17 18.2
-11 -5 26 -17.2 16.2
-11 5 26 32.4 18.5
-9 -5 26 77.69 18.5
-9 5 26 70.79 18.5
-7 -5 26 1124.49 75.99
-7 5 26 1211.58 77.09
-5 -5 26 802.12 57.49
5 -5 -26 842.42 58.39
-5 5 26 925.01 57.09
5 5 -26 805.22 57.79
-5 5 26 759.52 57.99
-3 -5 26 -12 14.6
-3 -5 26 1.6 12.3
3 -5 -26 -2.9 14.5
-3 5 26 12.7 12.9
3 5 -26 9.5 14.5
-3 5 26 12.4 15.5
-1 -5 26 36.9 16
1 -5 -26 33.2 15.6
-1 -5 26 57.49 13.3
1 -5 -26 46.2 15.7
1 5 -26 43.4 15.1
-1 5 26 39.3 16.8
-1 -5 -26 1250.77 78.29
1 -5 26 1091.39 77.99
-1 -5 -26 1202.28 78.19
-1 5 -26 1296.57 77.99
1 5 26 1080.49 78.29
-1 5 -26 1347.47 78.19
3 -5 26 1548.05 96.09
-3 -5 -26 1579.24 95.69
-3 -5 -26 1489.35 94.89
-3 5 -26 1520.05 95.29
3 5 26 1561.94 96.09
-3 5 -26 1422.66 94.59
5 -5 26 -0.3 15.5
-5 -5 -26 16 13.9
-5 5 -26 6.4 14.1
-7 -5 -26 169.98 19.5
-7 5 -26 139.79 19.1
-9 -5 -26 90.39 15.9
-9 5 -26 89.99 16.3
-11 -5 -26 24.4 13.5
-11 5 -26 3.5 13.2
-13 -5 -26 283.97 26.1
-12 -6 26 24.7 17
-12 6 26 17.5 17.9
-10 -6 26 830.92 56.29
-10 6 26 754.62 57.29
-8 -6 26 132.99 20.2
-8 6 26 128.99 22.1
6 -6 -26 34.2 17.7
-6 -6 26 13.5 16.4
-6 6 26 55.69 17.8
-4 -6 26 111.09 19.8
4 -6 -26 100.49 19.3
-4 -6 26 133.59 18.2
-4 6 26 110.09 20.5
-4 6 26 150.18 18.8
4 6 -26 146.99 21
-2 -6 26 -16.6 11.9
-2 -6 26 10.2 15.3
2 -6 -26 5.1 14.9
-2 6 26 6.9 15.2
2 6 -26 -9.3 13.9
0 -6 26 268.47 29.7
0 -6 -26 271.37 28.8
0 -6 -26 288.67 29.4
0 6 -26 233.68 24.5
0 6 26 221.78 26.2
0 6 -26 254.07 28
-2 -6 -26 2217.38 131.29
2 -6 26 2111.89 131.29
-2 -6 -26 2114.89 130.59
2 6 26 2135.89 131.39
-2 6 -26 2115.59 130.49
-2 6 -26 2132.49 130.89
4 -6 26 1396.56 88.49
-4 -6 -26 1406.66 87.29
-4 6 -26 1282.87 87.09
-4 6 -26 1504.25 90.39
4 6 26 1356.16 88.19
-6 -6 -26 145.39 18.7
-6 6 -26 118.09 17.9
-8 -6 -26 59.69 14.9
-8 6 -26 76.99 15.6
-10 -6 -26 138.39 18.1
-10 6 -26 140.09 18.5
-12 -6 -26 58.39 14.5
-12 6 -26 63.79 15.3
-13 -7 26 31.5 18.9
-13 7 26 38 18.8
-11 -7 26 45.3 18
-11 7 26 75.89 20
-9 -7 26 405.16 38.9
-9 7 26 534.05 41.7
-7 -7 26 51.69 17.9
-7 7 26 50.99 18.3
5 -7 -26 33 16.9
-5 -7 26 8.1 15.2
-5 7 26 22.6 17.3
5 7 -26 19.9 16.7
-3 -7 26 36.7 16.4
-3 -7 26 31.6 13.3
3 -7 -26 33.2 16.6
-3 7 26 33.6 17.2
-3 7 26 44.8 14.6
3 7 -26 34.3 15.5
-1 -7 26 22.9 15.2
1 -7 -26 -6.6 13.7
-1 -7 26 27 13.2
1 -7 -26 -1.5 15
1 7 -26 11.2 14.1
-1 7 26 9.5 16.3
-1 -7 -26 84.89 17.2
-1 -7 -26 51.49 17.3
1 -7 26 112.09 19.3
1 7 26 85.09 18.7
-1 7 -26 113.59 17.3
-1 7 -26 82.09 16.8
-3 -7 -26 2233.08 137.29
3 -7 26 2302.07 138.29
-3 -7 -26 2308.17 137.99
3 7 26 2117.59 137.99
-3 7 -26 2302.47 137.89
-3 7 -26 2246.38 137.09
-5 -7 -26 9.3 13.7
-5 7 -26 -1.3 13.8
-7 -7 -26 14 14.5
-7 7 -26 4 13.8
-9 -7 -26 261.37 26.3
-9 7 -26 263.57 27.3
-11 -7 -26 587.74 41
-11 7 -26 561.34 41.8
-12 -8 26 4.3 16.7
-12 8 26 -25.9 17.3
-10 -8 26 58.29 17.5
-10 8 26 47.8 19.2
-8 -8 26 -24.6 15.9
-8 8 26 -3.8 16.6
-6 -8 26 478.05 38
-6 8 26 368.66 38.1
-4 -8 26 278.07 27.4
4 -8 -26 239.38 27.2
-4 8 26 300.27 28.8
-4 8 26 243.88 27.3
4 8 -26 303.17 30.5
2 -8 -26 173.08 21.7
-2 -8 26 214.88 21.4
-2 -8 26 141.69 21.4
2 8 -26 207.58 22.5
-2 8 26 168.38 22.8
0 -8 -26 1774.92 106.39
0 -8 -26 1762.32 106.39
0 -8 26 1629.94 106.39
0 8 -26 1761.92 105.99
0 8 26 1579.84 106.59
-2 -8 -26 157.08 20.3
2 -8 26 154.28 21.5
-2 -8 -26 132.79 19
-2 8 -26 98.59 18.5
-2 8 -26 142.09 19.8
2 8 26 218.28 23
4 -8 26 104.19 19.9
-4 -8 -26 128.69 18.6
-4 8 -26 85.39 17.1
-6 -8 -26 520.95 39.7
-6 8 -26 534.85 40.4
-8 -8 -26 105.49 16.6
-8 8 -26 82.79 16.8
-10 -8 -26 519.85 39.1
-10 8 -26 531.95 39.7
-12 -8 -26 102.39 15.6
-12 8 -26 81.29 16.7
-13 9 26 19.8 19.3
-11 -9 26 19.4 16.6
-11 9 26 23.1 19
-9 -9 26 143.39 21.4
-9 9 26 123.89 22.9
-7 -9 26 83.99 18.4
-7 9 26 69.29 19.6
-5 -9 26 27.6 16.3
5 -9 -26 25.8 17.3
-5 9 26 36.6 17.5
3 -9 -26 32.4 16.8
-3 -9 26 54.39 16.8
-3 -9 26 37 13.5
3 9 -26 60.49 16.6
-3 9 26 27.9 17.9
1 -9 -26 496.85 39.8
1 -9 -26 470.55 39.3
-1 -9 26 550.24 37.6
-1 -9 26 448.56 39.7
-1 9 26 401.26 40.4
1 9 -26 465.95 38.5
-1 -9 -26 299.07 30.8
1 -9 26 301.97 31.7
-1 -9 -26 284.47 30.3
-1 9 -26 280.97 29.9
1 9 26 324.17 32.9
-1 9 -26 279.47 30.2
-3 -9 -26 539.75 40.6
3 -9 26 526.45 42.6
-3 9 -26 561.04 41.9
-3 9 -26 490.85 40.4
3 9 26 486.55 42.9
-5 -9 -26 10.9 13.8
-5 9 -26 4.6 14.6
-7 -9 -26 8.6 13.8
-7 9 -26 -11.2 14.2
-9 -9 -26 4 13
-9 9 -26 -22 13.9
-11 -9 -26 45.7 14
-11 9 -26 36.5 15.1
-12 -10 26 -8.3 16.1
-12 10 26 -9.6 18.7
-10 -10 26 101.69 19.2
-10 10 26 73.79 21
-8 -10 26 4 16.2
-8 10 26 4.8 17.3
-6 -10 26 289.07 32
-6 10 26 316.27 34.5
-4 -10 26 14.2 16
4 -10 -26 15.1 16.6
-4 10 26 -9.2 13.6
-4 10 26 0.3 16.9
2 -10 -26 52.79 17.5
-2 -10 26 63.79 17.5
-2 -10 26 84.49 15.4
-2 10 26 60.79 18.6
2 10 -26 62.39 16.9
0 -10 26 378.76 36.6
0 -10 -26 354.86 35.2
0 -10 -26 447.46 35.8
0 10 -26 393.26 35.4
0 10 26 402.96 37.6
-2 -10 -26 14.9 15.4
2 -10 26 -6.8 15.2
2 10 26 31.2 17.4
-2 10 -26 -13.1 14.3
-2 10 -26 8.9 14.6
-4 -10 -26 -4.5 14
4 -10 26 31.3 17.1
-4 10 -26 1.2 14.7
-6 -10 -26 79.19 16.4
-6 10 -26 89.29 17
-8 -10 -26 21.7 14
-8 10 -26 18.1 15.3
-10 -10 -26 22.5 14.1
-10 10 -26 27.8 14.9
-12 -10 -26 0.6 13.3
-12 10 -26 6.6 14.7
-11 -11 26 220.38 24.8
-11 11 26 192.08 26.8
-9 -11 26 -5.1 16.6
-9 11 26 25 18.5
-7 -11 26 440.66 36.8
-7 11 26 345.77 38
5 -11 -26 58.79 19.2
-5 -11 26 49.5 16.8
-5 11 26 72.89 19.6
3 -11 -26 53.99 17.6
-3 -11 26 7.1 16.2
3 11 -26 36.1 16.8
-3 11 26 32.3 18
1 -11 -26 1803.42 113.49
1 -11 -26 1922.61 113.99
-1 -11 26 1739.03 113.39
1 11 -26 1850.71 113.29
-1 11 26 1776.12 114.39
1 -11 26 93.09 18.1
-1 -11 -26 115.99 18.7
-1 11 -26 83.89 17.9
1 11 26 109.89 20.4
3 -11 26 34.3 17.9
-3 -11 -26 53.59 16
-3 11 -26 42.9 16.1
-5 -11 -26 63.89 16.3
-5 11 -26 107.49 18.7
-7 -11 -26 28.6 14.8
-7 11 -26 30.1 15.7
-9 -11 -26 69.79 15.6
-9 11 -26 81.99 17.1
-11 -11 -26 -6.5 13.7
-11 11 -26 8.6 14.8
-12 12 26 28.4 20.8
-10 -12 26 288.27 28.8
-10 12 26 272.97 30.2
-8 -12 26 4.1 15.9
-8 12 26 9.3 18.4
-6 -12 26 620.94 48.1
-6 12 26 660.33 50.29
-4 -12 26 68.39 18
4 -12 -26 59.99 19.1
-4 12 26 37.9 18.8
-2 -12 26 70.79 18.6
2 -12 -26 41.3 17.3
2 12 -26 26.9 17.2
-2 12 26 36 18.6
0 -12 26 774.62 53.69
0 -12 -26 688.23 52.79
0 12 -26 740.63 52.79
0 12 26 739.63 54.99
2 -12 26 262.67 27.3
-2 -12 -26 236.48 25.2
-2 12 -26 240.88 25.6
-4 -12 -26 442.46 36.8
-4 12 -26 413.76 36.8
-6 -12 -26 704.03 50.19
-6 12 -26 709.43 50.79
-8 -12 -26 204.68 22.7
-8 12 -26 218.48 23.6
-10 -12 -26 407.96 33.7
-10 12 -26 393.86 35.3
-11 -13 26 21.6 18.4
-11 13 26 -16.4 19.4
-9 -13 26 563.74 44.2
-9 13 26 531.95 47
-7 -13 26 107.79 20.5
-7 13 26 135.99 23.4
-5 -13 26 106.99 19.9
-5 13 26 122.69 21.7
-3 -13 26 18.2 16.6
3 -13 -26 29.1 18.1
-3 13 26 9.3 18
1 -13 -26 27.5 16.8
-1 -13 26 -1.1 15.6
-1 13 26 27.6 18.6
1 13 -26 20.2 16.1
1 -13 26 4 16.5
-1 -13 -26 3.2 15.3
-1 13 -26 -6.8 15.8
-3 -13 -26 3278.17 194.08
3 -13 26 3275.47 195.48
-3 13 -26 3103.39 193.78
-5 -13 -26 13.8 15.2
-5 13 -26 17.8 15.4
-7 -13 -26 5.7 15
-7 13 -26 20.3 16.4
-9 -13 -26 10.9 14.1
-9 13 -26 -9.2 15.1
-11 -13 -26 478.95 38
-11 13 -26 524.95 40.2
-12 14 26 110.19 23.5
-10 -14 26 183.28 23.5
-10 14 26 198.08 26.8
-8 -14 26 46 17.6
-8 14 26 32.8 19.2
-6 -14 26 152.98 22.1
-6 14 26 130.89 23.5
-4 -14 26 284.17 28.4
4 -14 -26 259.17 29.7
-4 14 26 272.67 29.9
-2 -14 26 96.09 20.5
2 -14 -26 102.19 20.7
-2 14 26 122.19 21.9
0 -14 -26 148.09 22.9
0 -14 26 177.08 23.7
0 14 -26 216.08 23.9
-2 -14 -26 692.93 50.69
2 -14 26 657.73 52.39
-2 14 -26 701.63 50.69
-4 -14 -26 309.57 32.2
-4 14 -26 285.07 31.7
-6 -14 -26 1 14.7
-6 14 -26 -1.5 16
-8 -14 -26 20.5 15.2
-8 14 -26 8.9 15.6
-10 -14 -26 11.4 14.5
-10 14 -26 10.3 15.9
-11 15 26 16.3 20.6
-9 -15 26 5.5 17
-9 15 26 -12.9 18.7
-7 -15 26 270.67 28.5
-7 15 26 268.77 30.7
-5 -15 26 339.57 33.1
-5 15 26 251.27 30.5
3 -15 -26 10.1 18.2
-3 -15 26 -2.2 16.8
-3 15 26 -12.6 17.9
-1 -15 26 369.76 37.4
1 -15 -26 375.66 36.5
1 15 -26 373.16 37.3
1 -15 26 185.18 26.2
-1 -15 -26 192.38 24.3
-1 15 -26 243.88 25.8
-3 -15 -26 158.08 21.5
-3 15 -26 131.59 21.5
-5 -15 -26 202.58 22.8
-5 15 -26 170.08 23.2
-7 -15 -26 2.6 14.9
-7 15 -26 -2.6 16.5
-9 -15 -26 232.58 24.7
-9 15 -26 298.07 30.8
-11 15 -26 68.69 18.3
-12 16 26 76.09 23.3
-10 -16 26 -28 16.3
-10 16 26 3.2 19.8
-8 -16 26 69.89 19.4
-8 16 26 110.09 23.2
-6 -16 26 24.6 18.3
-6 16 26 15.1 19.8
-4 -16 26 9.5 16.4
-4 16 26 5.5 19.3
2 -16 -26 48.3 19.2
-2 -16 26 32.7 18.7
0 -16 26 50.19 19.4
0 -16 -26 37.9 17.9
0 16 -26 49.2 18.6
2 -16 26 18.2 19.1
-2 -16 -26 23 17
-2 16 -26 17.7 17.1
-4 -16 -26 179.38 22.4
-4 16 -26 145.79 22.2
-6 -16 -26 407.96 35.2
-6 16 -26 344.87 36.1
-8 -16 -26 10.4 15
-8 16 -26 32.5 17.6
-10 16 -26 102.89 20.1
-11 17 26 10.3 21.1
-9 -17 26 58.79 18.9
-9 17 26 51.89 22
-7 -17 26 636.64 51.49
-7 17 26 721.93 55.89
-5 -17 26 43.4 18.6
-5 17 26 66.39 21.9
3 -17 -26 -8.2 18.7
-3 -17 26 -3.1 17
-1 -17 26 81.29 20.3
1 -17 -26 92.99 20.7
-1 -17 -26 1009.4 67.99
1 -17 26 908.01 69.09
-1 17 -26 1045.2 68.69
-3 -17 -26 97.29 19.4
-3 17 -26 95.79 21
-5 -17 -26 25.2 16.5
-5 17 -26 25.8 18
-7 -17 -26 295.97 30.6
-7 17 -26 253.57 28.3
-9 -17 -26 -9.3 14.8
-9 17 -26 4.9 17.5
-10 18 26 27.9 22.2
-8 -18 26 336.47 35.4
-8 18 26 281.07 33.5
-6 -18 26 62.99 19.3
-6 18 26 72.99 23.5
-4 -18 26 5.2 17.7
2 -18 -26 37.2 19.5
-2 -18 26 3.6 17.6
0 -18 -26 194.98 26
0 -18 26 228.38 27.6
-2 -18 -26 51.19 18.7
-2 18 -26 97.19 21.5
-4 -18 -26 70.69 19.2
-4 18 -26 83.09 20.9
-6 -18 -26 69.09 18.6
-6 18 -26 67.19 19.8
-8 -18 -26 -5.1 15.5
-8 18 -26 20.2 17.1
-10 18 -26 116.79 21.7
-11 19 26 155.78 28.3
-9 -19 26 26.9 18.8
-9 19 26 39 23
-7 -19 26 63.59 19.6
-7 19 26 45.8 22.4
-5 -19 26 285.27 29.6
-3 -19 26 -3.4 17.6
-1 -19 26 42.5 20.4
1 -19 -26 50.49 20.5
-1 -19 -26 28.1 18.4
1 -19 26 45.1 27.7
-3 -19 -26 29 17.5
-3 19 -26 53.99 20.6
-5 -19 -26 103.79 20.1
-5 19 -26 77.29 20.5
-7 -19 -26 -8.9 15.4
-7 19 -26 23.2 18.1
-9 19 -26 218.78 26.6
-10 20 26 105.99 26.2
-8 -20 26 2.7 18.7
-8 20 26 18 21.7
-6 -20 26 36.2 19.3
-4 -20 26 245.18 28.6
2 -20 -26 178.58 25.4
-2 -20 26 107.79 23.5
0 -20 -26 60.69 20.5
0 -20 26 87.69 22.4
-2 -20 -26 9.7 17.3
-4 -20 -26 250.87 27.8
-4 20 -26 258.17 29.4
-6 -20 -26 21.9 17.4
-6 20 -26 12.8 18.3
-8 20 -26 42 19.1
-10 20 -26 911.51 70.69
-11 21 26 26.9 25.8
-9 21 26 36.6 24
-7 -21 26 167.98 25.2
-5 -21 26 8.8 18.7
-3 -21 26 33.5 20.2
1 -21 -26 21.2 19.8
-1 -21 26 18.5 20.5
-1 -21 -26 99.89 21.7
-3 -21 -26 -1.6 17.2
-5 -21 -26 11.8 18
-5 21 -26 21.3 19.6
-7 -21 -26 13.9 17.3
-7 21 -26 27.3 19.3
-9 21 -26 25.8 18.8
-10 22 26 31.7 24.1
-6 -22 26 1.4 19.4
-4 -22 26 71.89 21.4
-2 -22 26 -23.2 19
0 -22 -26 -7.5 18.6
-2 -22 -26 51.09 20.1
-4 -22 -26 22.9 19
-6 -22 -26 63.89 19.4
-6 22 -26 63.39 21.5
-8 22 -26 4.6 19.6
-7 -23 26 20.8 19.3
-5 -23 26 8.8 20.1
-3 -23 26 36.5 21.5
-1 -23 26 127.29 25.2
1 -23 -26 96.89 24.3
-1 -23 -26 30.9 20.2
-3 -23 -26 9.3 18.6
-5 -23 -26 36.4 19.1
-7 23 -26 -3.5 19.7
-9 23 -26 64.39 21.8
-6 -24 26 179.98 26.6
-4 -24 26 11.1 20.6
-2 -24 26 -3.8 20.5
0 -24 -26 234.18 30.1
-2 -24 -26 15.3 19.2
-4 -24 -26 82.79 21.6
-8 24 -26 34.1 20.8
-5 -25 26 17.8 20.9
-3 -25 26 -7 21.2
-1 -25 -26 194.08 28.4
-3 -25 -26 518.45 46.4
-4 -26 26 7.5 21.1
-2 -26 26 -21.7 23.9
0 -26 -26 11.3 21.2
-2 -26 -26 111.79 24.2
-3 -27 26 18.8 22.3
-1 -27 -26 29 21.6
-3 -27 -26 11.6 20.4
-4 -28 26 -7 22.3
-2 -28 -26 104.99 25.4
-1 -29 -26 9 21.7
-12 0 27 -27.6 17.2
-10 0 27 -16 15.7
-8 0 27 3 15.6
-6 0 27 4 15.9
4 0 -27 16.5 16.2
-4 0 27 7.8 12.7
-4 0 27 -3.6 16.1
-2 0 27 18.6 12.9
-2 0 27 -9.4 15.4
2 0 -27 2.7 15.2
0 0 -27 -11.2 14.1
0 0 27 26.8 16.1
0 0 -27 5.7 13.7
-2 0 -27 24.1 14.7
-2 0 -27 4.3 14.4
2 0 27 -4.9 15
-4 0 -27 -10 14
4 0 27 -6 16
-4 0 -27 22.6 14.5
-6 0 -27 -2.9 13.4
-8 0 -27 -5.1 13.1
-10 0 -27 2.8 13.3
-12 0 -27 2.8 13.5
-13 -1 27 237.88 26.8
-13 1 27 237.18 27
-11 -1 27 35.6 17.9
-11 1 27 51.99 19
-9 -1 27 85.89 18.9
-9 1 27 70.19 18.6
-7 -1 27 13 16.3
-7 1 27 -12.3 15.6
-5 -1 27 25.6 16.2
5 -1 -27 24.4 16.8
-5 -1 27 38.1 16.8
-5 1 27 34.5 17.3
-5 1 27 35 14.5
5 1 -27 34.5 16.9
-3 -1 27 1333.47 91.19
-3 -1 27 1475.75 90.59
3 -1 -27 1390.66 91.39
-3 1 27 1635.44 90.99
-3 1 27 1283.27 91.29
3 1 -27 1517.05 91.59
1 -1 -27 54.59 16.5
-1 -1 27 48.1 16.8
1 -1 -27 48.4 15.1
-1 1 27 37.4 17.6
1 1 -27 74.49 17
-1 -1 -27 314.27 31
-1 -1 -27 344.57 31
1 -1 27 266.97 28.6
-1 1 -27 315.87 30.9
-1 1 -27 356.76 31.6
1 1 27 313.87 31.9
3 -1 27 176.68 22.2
-3 -1 -27 121.89 18.7
-3 -1 -27 163.88 20.7
3 1 27 112.39 20.1
-3 1 -27 173.48 20.4
-3 1 -27 145.79 19.3
-5 -1 -27 388.66 33.3
5 -1 27 415.76 46.4
-5 1 -27 385.46 33.3
-7 -1 -27 19.1 13.9
-7 1 -27 -0.6 13.7
-9 -1 -27 245.18 26.4
-9 1 -27 248.78 26.4
-11 -1 -27 16.3 13.7
-11 1 -27 5.3 13.2
-12 -2 27 2.9 16.3
-12 2 27 -14.9 16.3
-10 -2 27 26.2 16.9
-10 2 27 36.7 17.5
-8 -2 27 23.4 17.4
-8 2 27 58.29 17.8
-6 -2 27 318.77 33.8
-6 2 27 321.57 32.6
4 -2 -27 76.29 18.6
-4 -2 27 46.1 16.6
-4 -2 27 97.39 16.4
-4 2 27 60.49 17.7
4 2 -27 84.09 17.6
-4 2 27 84.59 16.1
-2 -2 27 499.85 41.8
2 -2 -27 470.75 41
-2 -2 27 591.74 39.7
-2 2 27 488.85 42
2 2 -27 521.35 41.2
-2 2 27 549.65 39.6
0 -2 27 286.17 32.4
0 -2 -27 305.77 30.3
0 -2 -27 297.47 31.4
0 2 -27 349.47 30.9
0 2 27 330.67 32.3
0 2 -27 272.67 30.6
-2 -2 -27 3.2 13.5
2 -2 27 10.9 15.5
-2 -2 -27 6.6 14.5
2 2 27 -1.9 15.6
-2 2 -27 -5.4 13.5
-2 2 -27 -0.7 14.6
-4 -2 -27 1691.13 104.89
-4 -2 -27 1757.92 106.59
4 -2 27 1581.94 106.09
4 2 27 1569.74 105.69
-4 2 -27 1772.22 105.19
-4 2 -27 1795.92 105.79
-6 -2 -27 0 14
-6 2 -27 -3.6 13.7
-8 -2 -27 110.89 17.2
-8 2 -27 122.99 17.5
-10 -2 -27 469.95 34.4
-10 2 -27 384.06 34.2
-12 -2 -27 73.19 15.5
-12 2 -27 70.59 16
-13 -3 27 15.5 16.9
-13 3 27 24.4 18.7
-11 -3 27 10.5 16.9
-11 3 27 40.3 18
-9 -3 27 27.3 16.8
-9 3 27 41.3 17.5
-7 -3 27 834.72 58.39
-7 3 27 830.02 58.89
-5 -3 27 13.5 16
5 -3 -27 22.7 16.4
5 3 -27 -3.7 16.3
-5 3 27 10.9 16.1
-5 3 27 5.6 16
-3 -3 27 128.79 19.9
-3 -3 27 151.58 17.9
3 -3 -27 79.99 18.4
-3 3 27 104.69 17.3
3 3 -27 132.49 19.8
-3 3 27 86.49 19.3
1 -3 -27 532.85 38.9
1 -3 -27 458.95 39
-1 -3 27 543.15 39.3
-1 -3 27 447.96 40
-1 3 27 419.46 39.6
1 3 -27 451.25 38.7
-1 -3 -27 3619.04 207.18
1 -3 27 3366.16 207.18
-1 -3 -27 3433.96 206.68
1 3 27 3308.67 207.08
-1 3 -27 3518.25 206.78
-3 -3 -27 306.57 30.9
3 -3 27 337.27 33.4
-3 -3 -27 367.16 31.8
-3 3 -27 326.77 31.4
-3 3 -27 311.57 31.2
3 3 27 313.57 33
-5 -3 -27 50.69 15.2
-5 3 -27 23 14.7
-7 -3 -27 741.23 49
-7 3 -27 661.83 49
-9 -3 -27 9.2 13.7
-9 3 -27 3 13.7
-11 -3 -27 16.6 13.6
-11 3 -27 -0.5 13.9
-12 -4 27 6.5 16.5
-12 4 27 15.4 18.4
-10 -4 27 532.85 42.8
-10 4 27 500.55 43.4
-8 -4 27 313.27 33.6
-8 4 27 329.47 34.1
-6 -4 27 11.4 15.8
-6 4 27 24.2 16.8
-4 -4 27 44.6 16.9
-4 -4 27 72.09 15.2
4 -4 -27 51.89 17.1
-4 4 27 46.8 15.2
-4 4 27 56.79 17.6
4 4 -27 84.29 17.9
2 -4 -27 215.98 24.5
-2 -4 27 197.58 24.8
-2 -4 27 258.37 23.5
-2 4 27 237.68 25.3
2 4 -27 265.57 25.4
0 -4 -27 3394.66 200.78
0 -4 27 3158.58 200.68
0 -4 -27 3504.35 201.18
0 4 27 2917.31 200.58
0 4 -27 3537.75 200.78
0 4 -27 3533.65 200.78
2 -4 27 42.7 16.9
-2 -4 -27 26.7 15.1
-2 -4 -27 27.4 15.1
-2 4 -27 24.7 14.8
-2 4 -27 52.59 15.6
2 4 27 3.9 16
-4 -4 -27 4.5 14.3
4 -4 27 -4.8 15.4
-4 4 -27 7.2 13.5
4 4 27 8 15.8
-6 -4 -27 575.54 42.7
-6 4 -27 579.74 42.6
-8 -4 -27 21.6 13.8
-8 4 -27 16.3 13.9
-10 -4 -27 246.08 27.1
-10 4 -27 285.37 27.6
-12 -4 -27 32 13.9
-12 4 -27 62.29 15.5
-13 -5 27 48.5 18.7
-13 5 27 47.7 19.9
-11 -5 27 84.29 20.3
-11 5 27 125.49 22.2
-9 -5 27 209.48 24
-9 5 27 161.18 23.9
-7 -5 27 295.47 31.3
-7 5 27 286.07 28.9
5 -5 -27 117.29 20.4
-5 -5 27 100.49 19.4
5 5 -27 119.09 20.4
-5 5 27 92.59 19.7
-3 -5 27 227.18 26.5
3 -5 -27 261.17 26.5
-3 -5 27 283.07 27.3
3 5 -27 277.57 26.6
-3 5 27 224.18 26.2
-3 5 27 264.37 27.4
1 -5 -27 722.03 50.09
1 -5 -27 703.03 49.9
-1 -5 27 647.24 49.9
-1 -5 27 717.43 48.1
-1 5 27 642.64 49.8
1 5 -27 679.73 49.6
-1 -5 -27 1031.1 68.69
-1 -5 -27 1083.59 68.69
1 -5 27 1020.4 68.69
-1 5 -27 1109.19 68.39
-1 5 -27 1070.19 68.09
1 5 27 890.71 68.79
3 -5 27 701.33 52.99
-3 -5 -27 757.52 51.79
-3 -5 -27 776.12 52.39
3 5 27 719.13 53.09
-3 5 -27 704.53 51.29
-3 5 -27 759.22 52.19
-5 -5 -27 46.6 15.5
-5 5 -27 59.09 15.6
-7 -5 -27 17.7 14.4
-7 5 -27 20.6 14
-9 -5 -27 240.48 26
-9 5 -27 242.38 23.8
-11 -5 -27 494.45 36.8
-11 5 -27 468.95 37.3
-12 -6 27 15.8 17.1
-12 6 27 32.6 18.9
-10 -6 27 65.49 19
-10 6 27 65.89 20
-8 -6 27 -19.5 15.7
-8 6 27 18.7 17.1
-6 -6 27 219.68 25
-6 6 27 213.48 25
-4 -6 27 82.89 18.1
4 -6 -27 50.69 16.8
4 6 -27 70.29 18
-4 6 27 59.99 16
-4 6 27 40.9 17.2
2 -6 -27 367.96 35.1
-2 -6 27 364.16 34.6
-2 -6 27 392.06 32.4
2 6 -27 317.67 34
-2 6 27 395.96 35.8
0 -6 -27 22.6 15.9
0 -6 27 19.7 15.9
0 -6 -27 1.3 14.6
0 6 27 -6.8 15.4
0 6 -27 4.8 14.6
2 -6 27 21.4 16.2
-2 -6 -27 18.1 15.1
-2 -6 -27 46.1 15.3
-2 6 -27 11.5 14.4
-2 6 -27 26.3 14.9
2 6 27 19.8 15.7
4 -6 27 914.11 62.49
-4 -6 -27 914.61 60.69
-4 6 -27 896.21 60.59
-6 -6 -27 -0.7 13.5
-6 6 -27 -10.5 13.6
-8 -6 -27 57.19 15.2
-8 6 -27 68.59 15.6
-10 -6 -27 288.97 26.7
-10 6 -27 218.38 23.5
-12 -6 -27 54.99 14.4
-12 6 -27 38.3 15.1
-13 7 27 33.1 19.6
-11 -7 27 179.68 23.7
-11 7 27 182.18 25.7
-9 -7 27 628.04 47.3
-9 7 27 623.74 49.9
-7 -7 27 87.59 19.6
-7 7 27 90.99 20.3
5 -7 -27 5.1 16.5
-5 -7 27 5.8 16.4
-5 7 27 32.5 17.4
3 -7 -27 700.43 49.5
-3 -7 27 589.64 48.2
3 7 -27 706.33 48.5
-3 7 27 631.34 49.6
1 -7 -27 3.1 14.5
-1 -7 27 2.2 15.3
1 -7 -27 15 15.6
-1 -7 27 -0.4 12.6
-1 7 27 12.4 16.4
1 7 -27 10.6 14.8
1 -7 27 34.5 16.3
-1 -7 -27 16.3 15.1
-1 -7 -27 31.2 16
1 7 27 30.4 17.3
-1 7 -27 23.7 14.6
-1 7 -27 19.8 15.1
3 -7 27 149.09 21.4
-3 -7 -27 159.98 21.7
3 7 27 216.98 24.4
-3 7 -27 220.38 22.5
-3 7 -27 156.28 20.8
-5 -7 -27 558.74 41
-5 7 -27 497.45 40.4
-7 -7 -27 -3.8 13.9
-7 7 -27 1.9 14.4
-9 -7 -27 23.1 14.1
-9 7 -27 10.2 14.5
-11 -7 -27 958.8 62.09
-11 7 -27 955.7 63.09
-12 -8 27 19.3 17.8
-12 8 27 6.7 18.8
-10 -8 27 1411.66 88.89
-10 8 27 1352.46 90.59
-8 -8 27 46 18
-8 8 27 35.4 18.8
-6 -8 27 116.09 20.9
-6 8 27 79.19 19.7
4 -8 -27 38.9 18.5
-4 -8 27 41 17.3
4 8 -27 61.29 16.8
-4 8 27 53.49 15.8
-4 8 27 53.79 18.7
2 -8 -27 16.9 15.8
-2 -8 27 3 15.3
-2 -8 27 5.9 12.8
2 8 -27 -4.9 14.9
-2 8 27 -14.4 16.1
0 -8 27 259.97 26.5
0 -8 -27 272.67 29.7
0 -8 -27 287.97 29.4
0 8 27 190.28 25.2
0 8 -27 241.88 25.6
2 -8 27 1492.35 104.69
-2 -8 -27 1715.13 104.39
2 8 27 1691.73 105.69
-2 8 -27 1785.82 105.09
-2 8 -27 1678.93 104.29
-4 -8 -27 15.1 14.8
4 -8 27 5 16.8
-4 8 -27 15.7 14.8
-6 -8 -27 3.8 14.2
-6 8 -27 23.7 14.8
-8 -8 -27 6.2 13.7
-8 8 -27 37.8 14.9
-10 -8 -27 582.94 42.2
-10 8 -27 578.14 43
-12 -8 -27 157.28 18.9
-12 8 -27 167.88 20.5
-13 9 27 166.78 34.8
-11 -9 27 96.49 20.1
-11 9 27 91.19 21.5
-9 -9 27 165.98 22.8
-9 9 27 171.18 25.2
-7 -9 27 1473.95 90.59
-7 9 27 1337.57 91.39
-5 -9 27 181.98 24
5 -9 -27 247.38 27.1
-5 9 27 223.78 26.4
-3 -9 27 133.09 20.6
3 -9 -27 147.49 22
3 9 -27 144.39 21.1
-3 9 27 126.29 22.3
-1 -9 27 597.24 49.6
1 -9 -27 796.82 50.29
-1 -9 27 664.53 47.9
1 -9 -27 659.93 50.09
1 9 -27 620.34 48.8
-1 9 27 714.83 51.29
-1 -9 -27 38.8 15.5
1 -9 27 66.99 18.5
-1 9 -27 56.69 16.6
1 9 27 41 18.7
3 -9 27 536.85 43.6
-3 -9 -27 497.25 40.7
-3 9 -27 529.95 41.1
-5 -9 -27 169.48 21
-5 9 -27 169.38 21.6
-7 -9 -27 567.34 43.9
-7 9 -27 642.34 45.2
-9 -9 -27 5.7 13.6
-9 9 -27 6.8 14.4
-11 -9 -27 71.89 15.6
-11 9 -27 79.59 17
-12 -10 27 10.5 16.7
-12 10 27 -6.5 19
-10 -10 27 60.29 18.7
-10 10 27 9.6 19.1
-8 -10 27 89.29 19.7
-8 10 27 60.59 19.7
-6 -10 27 2243.08 131.49
-6 10 27 2009.7 132.29
-4 -10 27 62.59 18.2
4 -10 -27 73.69 19.8
-4 10 27 105.69 20.6
-2 -10 27 98.29 19.8
2 -10 -27 94.29 19.6
-2 -10 27 70.29 18.6
2 10 -27 50.49 18.1
-2 10 27 86.39 19.8
0 -10 -27 445.26 37.6
0 -10 -27 504.25 40.8
0 -10 27 379.06 37.7
0 10 27 419.86 39.2
0 10 -27 394.86 36.4
-2 -10 -27 -0.1 15.1
2 -10 27 -5.3 17.1
-2 10 -27 12.1 15.3
2 10 27 -10.9 19.8
-2 10 -27 22.7 15.6
-4 -10 -27 357.86 32.8
-4 10 -27 317.17 32.4
-6 -10 -27 173.28 20.6
-6 10 -27 131.49 19.9
-8 -10 -27 2024.4 132.39
-8 10 -27 2343.27 133.79
-10 -10 -27 143.29 19
-10 10 -27 146.69 20.5
-11 -11 27 41.7 18
-11 11 27 42.4 20.6
-9 -11 27 215.18 25.6
-9 11 27 212.48 27.1
-7 -11 27 146.79 20.8
-7 11 27 87.99 21.7
-5 -11 27 13.7 16.5
-5 11 27 17.2 17.8
-3 -11 27 35 16.8
3 -11 -27 27.7 17.6
3 11 -27 10.4 17.7
-3 11 27 25.7 18.6
1 -11 -27 145.49 20.7
1 -11 -27 139.69 23
-1 -11 27 112.49 21.1
1 11 -27 88.69 19.5
-1 11 27 59.69 20
-1 -11 -27 58.39 16.9
1 -11 27 30.6 17.7
1 11 27 39.4 18.7
-1 11 -27 39.6 16.4
-3 -11 -27 187.38 22.9
3 -11 27 164.88 23.7
-3 11 -27 200.08 22.9
-5 -11 -27 202.98 22.5
-5 11 -27 173.28 22.8
-7 -11 -27 215.38 24.3
-7 11 -27 289.67 29.9
-9 -11 -27 5.3 13.7
-9 11 -27 14.2 15.5
-11 -11 -27 183.38 20.9
-11 11 -27 195.68 22.2
-12 12 27 -4.7 19.9
-10 -12 27 677.73 50.69
-10 12 27 651.13 53.09
-8 -12 27 42 18.3
-8 12 27 52.99 19.7
-6 -12 27 131.69 20.9
-6 12 27 132.59 23
-4 -12 27 36.2 17.3
4 -12 -27 27.7 18.5
-4 12 27 44 19.2
-2 -12 27 5.1 15.8
2 -12 -27 34.2 17.4
-2 12 27 50.89 19.3
2 12 -27 16.9 16.8
0 -12 -27 -0.9 15.3
0 -12 27 18 16.3
0 12 27 30.8 18.8
0 12 -27 -8.8 16.2
-2 -12 -27 571.94 45.3
2 -12 27 561.34 47.2
-2 12 -27 651.03 46.4
-4 -12 -27 87.69 17.5
-4 12 -27 52.69 17.2
-6 -12 -27 93.49 18.3
-6 12 -27 135.09 19.9
-8 -12 -27 176.78 21.3
-8 12 -27 203.48 23.1
-10 -12 -27 248.08 28.7
-10 12 -27 305.97 30.6
-11 -13 27 4.4 18.3
-11 13 27 38.7 20.7
-9 -13 27 82.89 19.7
-9 13 27 88.69 21.4
-7 -13 27 52.59 17.9
-7 13 27 51.59 19.8
-5 -13 27 1.3 17.2
-5 13 27 28.4 18.4
3 -13 -27 528.85 43
-3 -13 27 478.25 41
-3 13 27 426.16 42.9
1 -13 -27 77.19 18.8
-1 -13 27 41.7 18.2
-1 13 27 59.09 20.1
1 13 -27 63.79 19
-1 -13 -27 37.7 16.8
1 -13 27 31 18.9
-1 13 -27 30.8 17.3
-3 -13 -27 9.6 16
-3 13 -27 23.4 16.5
-5 -13 -27 93.79 18.1
-5 13 -27 91.89 18.7
-7 -13 -27 199.88 22
-7 13 -27 141.39 21.3
-9 -13 -27 25.9 15.2
-9 13 -27 59.39 17.4
-11 13 -27 99.29 19.2
-12 14 27 6.3 20.1
-10 -14 27 178.98 23.8
-10 14 27 160.88 26.6
-8 -14 27 -0.3 17.4
-8 14 27 -18.3 18.4
-6 -14 27 11 17.2
-6 14 27 -3.2 19
4 -14 -27 -5.3 17.9
-4 -14 27 25.3 17.2
-4 14 27 23.8 18.7
2 -14 -27 304.07 30.2
-2 -14 27 298.77 32.5
-2 14 27 226.38 29.2
0 -14 -27 33.7 17.8
0 -14 27 56.59 19.6
0 14 -27 36.9 18.3
-2 -14 -27 78.79 18.8
2 -14 27 93.99 21.8
-2 14 -27 65.29 18.6
-4 -14 -27 151.98 21.8
-4 14 -27 146.89 21.1
-6 -14 -27 -4.6 14.9
-6 14 -27 -8.4 15.7
-8 -14 -27 68.99 17.1
-8 14 -27 75.29 18.6
-10 -14 -27 577.64 44.5
-10 14 -27 641.94 46.6
-11 15 27 152.08 26.5
-9 -15 27 203.18 24.7
-9 15 27 157.48 26.9
-7 -15 27 60.49 18.9
-7 15 27 46.9 21.8
-5 -15 27 33.7 18.1
-5 15 27 -8.5 18.7
3 -15 -27 7 18.2
-3 -15 27 38.6 17
-3 15 27 17.8 19.6
1 -15 -27 23.5 17.3
-1 -15 27 -3.8 16.9
1 -15 27 1256.47 90.59
-1 -15 -27 1382.96 89.59
-1 15 -27 1500.95 89.99
-3 -15 -27 307.27 33.2
-3 15 -27 310.37 34
-5 -15 -27 33.9 16.6
-5 15 -27 33.9 17.2
-7 -15 -27 49.7 16.6
-7 15 -27 46 17.8
-9 -15 -27 63.19 17.1
-9 15 -27 128.69 20.1
-10 -16 27 375.06 36.7
-10 16 27 336.77 36.1
-8 -16 27 193.08 25.1
-8 16 27 203.78 28.5
-6 -16 27 76.89 20.2
-6 16 27 88.79 23.1
-4 -16 27 -13.6 17
-4 16 27 -2.3 20
2 -16 -27 25 19
-2 -16 27 17.5 17.3
0 -16 -27 2012 123.89
0 -16 27 1936.31 124.09
-2 -16 -27 54.99 18.2
-2 16 -27 41.4 18.7
-4 -16 -27 142.99 21.4
-4 16 -27 142.19 22.3
-6 -16 -27 87.39 19.1
-6 16 -27 120.99 21
-8 -16 -27 64.69 17.2
-8 16 -27 63.49 18.4
-10 16 -27 141.19 21.8
-11 17 27 15 20.9
-9 -17 27 42 18.5
-9 17 27 3.8 21
-7 -17 27 200.08 25.8
-7 17 27 238.88 30.6
-5 -17 27 31.9 18.5
-5 17 27 13.2 21.2
3 -17 -27 15 19.1
-3 -17 27 29.3 18.7
-1 -17 27 99.59 22
1 -17 -27 52.79 20.1
-1 -17 -27 205.38 25.6
1 -17 27 169.98 26.1
-1 17 -27 231.28 26.5
-3 -17 -27 -12.8 16.3
-3 17 -27 -17.2 16.9
-5 -17 -27 8.8 16.9
-5 17 -27 16.8 17.7
-7 -17 -27 166.18 22.2
-7 17 -27 157.18 23.1
-9 -17 -27 20.8 18.3
-9 17 -27 2.3 17.4
-10 18 27 31.6 21.8
-8 -18 27 36.3 18.9
-8 18 27 3.9 20.8
-6 -18 27 21.2 18.3
-6 18 27 5.5 21.2
-4 -18 27 27.1 18.9
-2 -18 27 54.89 19.8
2 -18 -27 49.5 20.3
0 -18 -27 157.98 24.3
0 -18 27 148.29 24.3
-2 -18 -27 54.99 18.6
-2 18 -27 53.29 20.2
-4 -18 -27 166.58 23.9
-4 18 -27 203.78 25.9
-6 -18 -27 37.9 17.6
-6 18 -27 39.6 18.8
-8 -18 -27 131.29 20.5
-8 18 -27 111.59 22.2
-10 18 -27 117.19 22.2
-11 19 27 6.3 22.5
-9 -19 27 38.4 19.8
-9 19 27 14.7 22.4
-7 -19 27 -23.5 17.9
-7 19 27 -9.1 20.9
-5 -19 27 17.8 19
-3 -19 27 44.6 20.9
-1 -19 27 -17.5 18.4
1 -19 -27 -4 19
-1 -19 -27 337.77 36.5
-3 -19 -27 0.9 16.8
-3 19 -27 -2 18.9
-5 -19 -27 -10.7 16.9
-5 19 -27 -4.3 18.6
-7 -19 -27 -1.5 16.1
-7 19 -27 30.6 18.9
-9 19 -27 32 18.9
-10 20 27 21.9 23.3
-8 -20 27 -12.3 18.6
-8 20 27 12.4 22.1
-6 -20 27 15.5 18.9
-4 -20 27 5.6 19.5
2 -20 -27 187.38 27.4
-2 -20 27 201.28 27.6
0 -20 27 51.29 22.3
0 -20 -27 75.49 21.4
-2 -20 -27 -2.6 18.3
-4 -20 -27 427.76 38.9
-4 20 -27 385.56 40.6
-6 -20 -27 8.6 16.8
-6 20 -27 18.9 18.9
-8 20 -27 -18 17.6
-9 21 27 30.6 23.6
-7 -21 27 27.7 19.3
-5 -21 27 60.39 21.3
-3 -21 27 704.33 55.09
-1 -21 27 19.5 21.4
1 -21 -27 18.1 20.1
-1 -21 -27 7.4 18.5
-3 -21 -27 225.68 27.3
-5 -21 -27 150.38 23.9
-5 21 -27 162.98 25.2
-7 21 -27 28.3 19.8
-9 21 -27 217.68 27.5
-10 22 27 11.5 24.6
-6 -22 27 70.29 21.7
-4 -22 27 -1.6 19.9
-2 -22 27 67.29 22.9
0 -22 -27 578.44 49.99
-2 -22 -27 31.4 18.9
-4 -22 -27 359.36 37.9
-6 -22 -27 -9.4 16.8
-6 22 -27 15.6 20.4
-8 22 -27 34.3 20.3
-7 -23 27 63.19 23.2
-5 -23 27 -11 19.1
-3 -23 27 11.5 20.8
-1 -23 27 109.29 35.5
1 -23 -27 159.08 26.3
-1 -23 -27 991.5 70.89
-3 -23 -27 48.3 20.2
-5 -23 -27 4.1 18.2
-7 23 -27 -0.6 20.4
-9 23 -27 2.1 29.3
-6 -24 27 128.39 24.8
-4 -24 27 -14.9 20.3
-2 -24 27 2.8 21
0 -24 -27 290.07 32.9
-2 -24 -27 1.4 19.3
-4 -24 -27 32.4 19.7
-8 24 -27 116.59 25.2
-5 -25 27 58.09 22.6
-3 -25 27 45.9 22
-1 -25 -27 10.4 20.7
-3 -25 -27 10.9 19.8
-4 -26 27 -14.9 21.6
0 -26 -27 57.69 23.4
-2 -26 -27 -3.6 20
-3 -27 27 28.6 23.8
-1 -27 -27 24.2 21.7
-4 -28 27 -13.8 25.2
-2 -28 -27 48.3 26.3
-1 -29 -27 -12.9 35.3
-12 0 28 31 18.6
-10 0 28 143.09 22
-8 0 28 150.78 22.2
-6 0 28 -11.4 15.7
4 0 -28 1947.21 123.79
-4 0 28 2184.48 123.39
-4 0 28 1860.71 123.69
-2 0 28 1867.71 121.59
2 0 -28 1859.51 121.39
-2 0 28 2174.08 121.29
0 0 28 -4 16.2
0 0 -28 -3.4 14
0 0 -28 -1.5 15
-2 0 -28 831.62 56.99
2 0 28 796.02 57.99
-2 0 -28 863.21 57.59
4 0 28 1866.11 115.09
-4 0 -28 1826.42 113.69
-6 0 -28 19.7 14.4
-8 0 -28 61.49 15.7
-10 0 -28 54.79 15.3
-12 0 -28 12.6 13.9
-13 -1 28 114.09 22
-13 1 28 114.19 21.6
-11 -1 28 -15.3 16.4
-11 1 28 -7.1 17.2
-9 -1 28 104.49 20.5
-9 1 28 126.79 21.6
-7 -1 28 45.1 17.6
-7 1 28 12.4 16.1
-5 -1 28 -4.7 16.7
5 -1 -28 18.5 17.2
-5 1 28 10.6 16.5
5 1 -28 0.4 16.6
-3 -1 28 2282.97 150.58
3 -1 -28 2430.46 150.98
-3 -1 28 2730.33 150.68
3 1 -28 2583.34 151.08
-3 1 28 2697.93 150.68
-3 1 28 2121.79 150.48
1 -1 -28 612.04 46.1
-1 -1 28 574.24 46.5
-1 1 28 664.33 47.4
1 1 -28 602.44 46.2
1 -1 28 610.44 48.9
-1 -1 -28 701.33 48.3
-1 -1 -28 692.63 48
-1 1 -28 631.74 47.8
1 1 28 636.44 48.6
-1 1 -28 664.13 48.1
-3 -1 -28 766.32 55.69
-3 -1 -28 828.72 55.59
3 -1 28 737.03 56.69
-3 1 -28 825.02 55.79
3 1 28 733.93 56.39
-3 1 -28 919.91 55.79
-5 -1 -28 -13.5 13.9
-5 1 -28 4.7 14.4
-7 -1 -28 282.37 29
-7 1 -28 302.97 28.9
-9 -1 -28 64.99 15.4
-9 1 -28 58.69 15.9
-11 -1 -28 24 14.3
-11 1 -28 39.4 14.7
-12 -2 28 24.1 18
-12 2 28 54.59 19.5
-10 -2 28 17.8 17
-10 2 28 41.7 18.5
-8 -2 28 -11.9 16.3
-8 2 28 -12.5 16.3
-6 -2 28 31.8 17.5
-6 2 28 58.59 17.8
-4 -2 28 20.1 13.3
4 -2 -28 32.7 17.6
-4 -2 28 19.9 15.8
-4 2 28 11.3 14.3
4 2 -28 29.6 17.1
-4 2 28 11.5 16.5
-2 -2 28 169.08 22.4
-2 -2 28 186.88 20.1
2 -2 -28 133.19 21.2
-2 2 28 126.69 21.6
2 2 -28 169.88 21.8
0 -2 28 6904.31 446.76
0 -2 -28 8196.38 447.36
0 -2 -28 7660.83 446.86
0 2 -28 7707.73 446.86
0 2 -28 7573.04 446.96
0 2 28 7369.76 447.06
-2 -2 -28 215.98 23.1
2 -2 28 185.98 24.9
-2 -2 -28 204.28 22.8
-2 2 -28 198.48 22.4
2 2 28 220.88 24.2
-2 2 -28 157.18 21.4
-4 -2 -28 2.6 14.2
4 -2 28 39.9 17.9
-4 2 -28 7.7 15
4 2 28 -0.3 16.2
-6 -2 -28 85.69 16.8
-6 2 -28 71.99 16.7
-8 -2 -28 6.1 13.9
-8 2 -28 -1.1 13.9
-10 -2 -28 12.2 14
-10 2 -28 36.6 14.9
-12 -2 -28 24 14.3
-12 2 -28 21.1 14.4
-13 -3 28 145.79 24.3
-13 3 28 132.19 23.3
-11 -3 28 -6.8 16.6
-11 3 28 13.5 17.9
-9 -3 28 0.8 16.7
-9 3 28 18.8 17.6
-7 -3 28 729.03 53.59
-7 3 28 726.03 53.69
-5 -3 28 21.4 16.8
5 -3 -28 19.1 16.8
5 3 -28 21.1 17
-5 3 28 22.4 16.8
-3 -3 28 399.46 31.6
-3 -3 28 330.07 34.1
3 -3 -28 292.77 33.9
3 3 -28 366.56 34.1
-3 3 28 352.76 31.7
-3 3 28 319.37 31
-1 -3 28 415.86 38.5
1 -3 -28 469.25 37.4
1 -3 -28 480.55 38.2
1 3 -28 449.26 37.6
-1 3 28 388.96 38.6
1 -3 28 1305.97 82.79
-1 -3 -28 1325.27 81.69
-1 -3 -28 1251.97 81.59
-1 3 -28 1238.88 81.49
1 3 28 1227.18 82.39
3 -3 28 152.78 21
-3 -3 -28 162.78 23.9
-3 -3 -28 137.39 19.9
3 3 28 95.09 20.7
-3 3 -28 128.19 20
-3 3 -28 149.99 20.1
-5 -3 -28 44.9 15.7
-5 3 -28 54.19 16.2
-7 -3 -28 1107.09 70.39
-7 3 -28 1065.49 70.19
-9 -3 -28 4.5 13.8
-9 3 -28 25.7 14.7
-11 -3 -28 96.59 16.4
-11 3 -28 61.59 15.9
-12 -4 28 3.1 16.6
-12 4 28 19.7 19.2
-10 -4 28 51.49 18.8
-10 4 28 54.19 19.5
-8 -4 28 420.96 38.4
-8 4 28 414.96 38.5
-6 -4 28 171.38 23
-6 4 28 181.88 23.6
-4 -4 28 1.8 15.6
4 -4 -28 5.4 16.2
-4 4 28 -2.4 16
4 4 -28 4.3 16.2
-4 4 28 17.2 14
-2 -4 28 82.89 19.2
2 -4 -28 75.99 18.8
-2 -4 28 66.69 15.5
-2 4 28 74.89 19.2
2 4 -28 80.69 18.5
0 -4 28 214.38 24.5
0 -4 -28 215.08 23
0 -4 -28 155.48 22.3
0 4 -28 187.88 21.8
0 4 28 238.08 25
0 4 -28 149.49 21.4
-2 -4 -28 39.8 15.5
2 -4 28 29.4 16.9
-2 -4 -28 37.3 15.8
2 4 28 50.79 17.6
-2 4 -28 54.89 16
-2 4 -28 53.59 16.6
-4 -4 -28 5.7 14.8
4 -4 28 -20.1 15.6
-4 4 -28 20.2 14.1
-6 -4 -28 643.84 46.1
-6 4 -28 625.54 45.9
-8 -4 -28 198.68 22.2
-8 4 -28 251.47 26.6
-10 -4 -28 9.2 13.8
-10 4 -28 -1.8 14.4
-12 -4 -28 4.9 13.8
-12 4 -28 16.6 14.5
-13 5 28 1.4 18.6
-11 -5 28 419.76 39.5
-11 5 28 483.55 41.9
-9 -5 28 76.49 19.5
-9 5 28 97.49 20.2
-7 -5 28 7.5 16.6
-7 5 28 -9.4 16.9
5 -5 -28 48.3 18.5
-5 -5 28 40.8 17.4
-5 5 28 18.1 17.1
-3 -5 28 412.06 31.6
3 -5 -28 289.97 32.8
-3 -5 28 284.67 33.3
3 5 -28 354.26 33.4
-3 5 28 363.86 31.5
-3 5 28 262.57 29.9
1 -5 -28 124.49 20.2
-1 -5 28 122.79 20.3
1 -5 -28 101.59 19.2
-1 5 28 152.08 21.1
1 5 -28 124.89 20.2
-1 -5 -28 1722.63 102.99
1 -5 28 1535.15 102.79
-1 -5 -28 1606.34 102.49
-1 5 -28 1736.33 102.69
-1 5 -28 1644.34 102.19
1 5 28 1558.34 102.99
-3 -5 -28 262.97 28.7
3 -5 28 232.08 26.2
-3 5 -28 252.27 28.1
3 5 28 242.48 26.8
-5 -5 -28 92.19 17.7
-5 5 -28 80.89 17.6
-7 -5 -28 104.49 18
-7 5 -28 125.39 18.2
-9 -5 -28 10.1 13.8
-9 5 -28 -26.6 13.3
-11 -5 -28 636.04 43
-11 5 -28 546.85 43.1
-12 -6 28 -23.4 16.5
-12 6 28 13 19
-10 -6 28 2278.87 141.19
-10 6 28 2312.77 142.39
-8 -6 28 180.08 23.5
-8 6 28 168.48 24.2
-6 -6 28 105.29 20.7
-6 6 28 100.39 20.6
4 -6 -28 421.36 38.5
-4 -6 28 400.16 38.2
4 6 -28 488.75 38.9
-4 6 28 363.56 38.5
-4 6 28 454.05 36.6
-2 -6 28 269.47 27.4
-2 -6 28 301.97 29.1
2 -6 -28 300.07 32.1
2 6 -28 332.77 32.2
-2 6 28 265.67 28.7
0 -6 -28 2361.96 147.49
0 -6 -28 2663.43 148.39
0 -6 28 2222.28 147.49
0 6 -28 2502.15 147.49
0 6 28 2338.77 148.29
-2 -6 -28 113.69 18.8
2 -6 28 93.19 19.9
-2 6 -28 143.59 18.9
2 6 28 98.29 19.9
-2 6 -28 128.99 19.5
-4 -6 -28 1103.79 72.49
4 -6 28 1127.09 86.89
-4 6 -28 1117.69 72.49
-6 -6 -28 2.2 13.8
-6 6 -28 -3.1 14.1
-8 -6 -28 6.1 14.1
-8 6 -28 10.1 14.3
-10 -6 -28 1538.45 97.29
-10 6 -28 1604.04 97.89
-12 -6 -28 33 13.9
-12 6 -28 22.8 14.5
-13 7 28 55.29 28.1
-11 -7 28 291.87 29.4
-11 7 28 297.97 31
-9 -7 28 486.35 40.2
-9 7 28 440.06 42.3
-7 -7 28 24.4 18.3
-7 7 28 49.8 18.5
-5 -7 28 9.8 15.9
5 -7 -28 28.8 18.2
-5 7 28 -9.5 16.6
-3 -7 28 425.66 37.1
3 -7 -28 439.66 37.8
3 7 -28 379.56 37.1
-3 7 28 418.86 38.4
-1 -7 28 5.6 15.7
1 -7 -28 -8.9 14.9
1 -7 -28 5.1 16.5
-1 7 28 -21.5 16
1 7 -28 -10.5 14.5
-1 -7 -28 -4.4 15
-1 -7 -28 1.5 15.9
1 -7 28 4.3 15
-1 7 -28 -0.3 14.1
-1 7 -28 -1.8 14.4
1 7 28 -2.8 16.1
-3 -7 -28 232.78 25.2
3 -7 28 240.08 26.4
-3 7 -28 269.27 28.4
-5 -7 -28 197.98 22.3
-5 7 -28 182.08 22.3
-7 -7 -28 213.48 22.8
-7 7 -28 186.98 22.1
-9 -7 -28 215.28 22.5
-9 7 -28 222.28 23.1
-11 -7 -28 399.46 33.2
-11 7 -28 403.66 34.1
-12 -8 28 49.99 18.8
-12 8 28 68.89 20.4
-10 -8 28 74.19 19.1
-10 8 28 73.49 21.3
-8 -8 28 201.78 24.6
-8 8 28 190.78 26.1
-6 -8 28 418.26 38.7
-6 8 28 420.36 39.3
4 -8 -28 593.24 44.2
-4 -8 28 502.15 42.6
-4 8 28 473.25 43.9
-2 -8 28 35.8 14.3
2 -8 -28 0 15.7
-2 -8 28 46.3 17.7
2 8 -28 57.29 17.9
-2 8 28 28.7 17.5
0 -8 -28 20.2 15.2
0 -8 -28 33.4 16.5
0 -8 28 11.4 16.5
0 8 -28 16.2 15
0 8 28 -20.1 16
2 -8 28 2.2 17
-2 -8 -28 16.2 15.3
2 8 28 7.7 17.3
-2 8 -28 25.4 15.3
-2 8 -28 5.6 14.9
-4 -8 -28 711.73 50.89
-4 8 -28 712.43 50.99
-6 -8 -28 98.89 18
-6 8 -28 137.89 19.7
-8 -8 -28 448.46 35.9
-8 8 -28 429.76 36.8
-10 -8 -28 16 14.2
-10 8 -28 14.3 15
-11 -9 28 213.78 25.8
-11 9 28 235.28 28
-9 -9 28 149.39 22.4
-9 9 28 166.28 24.3
-7 -9 28 625.34 48.5
-7 9 28 610.84 49.99
-5 -9 28 -5.1 16.2
-5 9 28 -0.3 17.1
3 -9 -28 521.35 42.4
-3 -9 28 431.36 40.6
3 9 -28 492.45 41.1
-3 9 28 510.45 42.9
-1 -9 28 71.09 18.9
1 -9 -28 106.39 18.7
1 -9 -28 76.99 19.1
-1 9 28 78.19 19.8
1 9 -28 88.49 17.7
-1 -9 -28 22.2 15.6
1 -9 28 18.1 16.7
1 9 28 -15.9 17.5
-1 9 -28 9.9 15.5
-3 -9 -28 133.89 19.5
3 -9 28 143.99 22.7
-3 9 -28 111.69 18.8
-5 -9 -28 51.59 15.7
-5 9 -28 16.7 15.6
-7 -9 -28 640.94 46.7
-7 9 -28 655.23 47.6
-9 -9 -28 52.59 15.5
-9 9 -28 48.5 16.4
-11 -9 -28 332.07 30.9
-11 9 -28 361.66 32.2
-12 10 28 -13.7 18.9
-10 -10 28 15.2 17.2
-10 10 28 -2.7 18.6
-8 -10 28 27.6 17.9
-8 10 28 46.2 19.9
-6 -10 28 203.38 23.8
-6 10 28 163.28 24.4
4 -10 -28 13.1 17.7
-4 -10 28 9.9 15.6
-4 10 28 15 18.4
-2 -10 28 13.2 16.1
2 -10 -28 9.8 17.2
2 10 -28 0.7 15.6
-2 10 28 -18.5 17.2
0 -10 28 -2.5 16.7
0 -10 -28 8.9 15.9
0 10 28 -5.8 17
0 10 -28 13.5 16.2
-2 -10 -28 30.2 15.8
2 -10 28 5.8 17.5
-2 10 -28 61.19 17.3
-4 -10 -28 43.2 16.3
-4 10 -28 31 16.4
-6 -10 -28 127.29 19.1
-6 10 -28 118.99 19.8
-8 -10 -28 313.37 28.9
-8 10 -28 230.78 25.9
-10 -10 -28 -10.5 13.7
-10 10 -28 -8.4 14.9
-11 -11 28 22.2 17.6
-11 11 28 8.1 19.7
-9 -11 28 7 18.2
-9 11 28 52.89 20.2
-7 -11 28 1352.76 84.89
-7 11 28 1250.87 86.39
-5 -11 28 -7.1 16
-5 11 28 -15.5 17.7
3 -11 -28 546.65 42.8
-3 -11 28 476.35 40.8
-3 11 28 413.16 42.9
-1 -11 28 21.4 17.1
1 -11 -28 16.6 16.4
-1 11 28 29.9 18.2
1 11 -28 41.1 17.3
-1 -11 -28 65.49 17.7
1 -11 28 38.5 18.5
-1 11 -28 92.39 18.6
-3 -11 -28 150.78 20.5
-3 11 -28 90.89 18.9
-5 -11 -28 15.5 15.3
-5 11 -28 14 15.6
-7 -11 -28 2843.92 170.78
-7 11 -28 2815.52 171.28
-9 -11 -28 21.6 14.6
-9 11 -28 5.2 15.8
-11 -11 -28 64.69 16.2
-11 11 -28 67.89 17.8
-12 12 28 14.3 20.7
-10 -12 28 167.78 24.3
-10 12 28 159.18 25.2
-8 -12 28 15 17.8
-8 12 28 19.3 19.4
-6 -12 28 192.58 24.7
-6 12 28 166.38 25.2
4 -12 -28 195.38 25.3
-4 -12 28 140.09 22.3
-4 12 28 143.99 24
2 -12 -28 398.16 37.6
-2 -12 28 312.17 36
2 12 -28 398.66 36.5
-2 12 28 366.66 39.2
0 -12 28 -17.8 16.9
0 -12 -28 -9.1 16.1
0 12 28 -26.1 21.1
0 12 -28 -2.5 15.9
-2 -12 -28 21.1 16
2 -12 28 -7.9 17.4
-2 12 -28 -15.2 15.2
-4 -12 -28 24.8 16.1
-4 12 -28 26.5 16.6
-6 -12 -28 212.98 23.7
-6 12 -28 210.58 24.2
-8 -12 -28 622.74 46.6
-8 12 -28 663.43 48.2
-10 -12 -28 468.15 37.1
-10 12 -28 435.66 38.9
-11 -13 28 515.45 44.8
-11 13 28 579.54 48.5
-9 -13 28 536.95 44.1
-9 13 28 505.15 46.5
-7 -13 28 -28.1 16.9
-7 13 28 -3.1 18.4
-5 -13 28 -3.4 16.5
-5 13 28 12.4 19.4
3 -13 -28 71.59 20.7
-3 -13 28 74.59 19.1
-3 13 28 49.3 20.9
-1 -13 28 69.59 19.3
1 -13 -28 64.39 19
1 13 -28 48 18.6
-1 13 28 27.1 19.9
-1 -13 -28 22.4 16.9
1 -13 28 12.2 17.5
-1 13 -28 7.4 17.2
-3 -13 -28 10.2 16
-3 13 -28 1.5 15.7
-5 -13 -28 119.59 19.6
-5 13 -28 89.99 19.4
-7 -13 -28 179.68 22
-7 13 -28 171.98 22.9
-9 -13 -28 285.97 30.4
-9 13 -28 317.57 32.5
-11 13 -28 1022.7 68.59
-12 14 28 -12.8 20.6
-10 -14 28 1058.89 69.49
-10 14 28 947.91 71.69
-8 -14 28 -14.3 16.6
-8 14 28 -0.7 19.4
-6 -14 28 -13.1 16.6
-6 14 28 3 18.6
-4 -14 28 164.28 23.9
-4 14 28 218.08 27
2 -14 -28 18.6 18.7
-2 -14 28 0.6 17.5
-2 14 28 34.1 20.5
0 -14 -28 962.1 70.99
0 -14 28 1007.1 72.09
0 14 -28 1194.38 72.49
-2 -14 -28 26.3 16.9
2 -14 28 -6.4 24.2
-2 14 -28 -10.8 16.4
-4 -14 -28 915.11 63.19
-4 14 -28 909.51 63.09
-6 -14 -28 25.4 16.8
-6 14 -28 5.8 16
-8 -14 -28 1.2 14.8
-8 14 -28 4.1 16.2
-10 -14 -28 758.02 65.29
-10 14 -28 1008.3 62.29
-11 15 28 -14.5 20.6
-9 -15 28 24.4 18.2
-9 15 28 42.1 22
-7 -15 28 147.59 22.8
-7 15 28 158.38 25.9
-5 -15 28 20.2 18.2
-5 15 28 25.5 20.9
3 -15 -28 190.48 25.8
-3 -15 28 186.68 24.5
-3 15 28 160.68 26.2
1 -15 -28 59.09 20
-1 -15 28 103.19 22
-1 -15 -28 116.29 21.1
1 -15 28 84.19 21.8
-1 15 -28 144.69 22
-3 -15 -28 251.87 28.1
-3 15 -28 325.87 33.8
-5 -15 -28 19.9 16.8
-5 15 -28 5.9 16.7
-7 -15 -28 108.89 18.6
-7 15 -28 74.59 20
-9 -15 -28 147.99 20.3
-9 15 -28 135.39 21.5
-10 -16 28 89.59 20.7
-10 16 28 56.19 24.1
-8 -16 28 209.68 25
-8 16 28 155.68 27.7
-6 -16 28 83.89 20.6
-6 16 28 35 21.7
-4 -16 28 51.29 18.5
-4 16 28 55.39 21.6
2 -16 -28 19.6 19
-2 -16 28 -11.9 18.7
0 -16 28 772.12 59.19
0 -16 -28 774.52 57.19
-2 -16 -28 21.3 16.7
-2 16 -28 -19.9 17.4
-4 -16 -28 24.1 17.3
-4 16 -28 9.1 17.9
-6 -16 -28 98.19 19.3
-6 16 -28 75.69 19.9
-8 -16 -28 247.28 25.6
-8 16 -28 247.38 27.5
-10 16 -28 62.79 19.2
-11 17 28 30.8 22.1
-9 -17 28 18.7 17.9
-9 17 28 -10.7 21.1
-7 -17 28 82.59 20.8
-7 17 28 65.19 23.4
-5 -17 28 25.2 19.1
-5 17 28 10.4 21.6
-3 -17 28 17 19
3 -17 -28 20 21.2
1 -17 -28 365.46 39.4
-1 -17 28 403.06 40.4
-1 -17 -28 1462.15 96.59
1 -17 28 1561.44 113.39
-3 -17 -28 -5.9 16.8
-3 17 -28 5.8 18.5
-5 -17 -28 -28.4 15.3
-5 17 -28 5.7 17.8
-7 -17 -28 40.9 17.3
-7 17 -28 45.6 18.7
-9 17 -28 -13.4 17.3
-10 18 28 23.8 22.5
-8 -18 28 21.7 19.2
-8 18 28 30.1 22.3
-6 -18 28 -2.9 18.5
-6 18 28 -0.8 21.9
-4 -18 28 15.9 19
2 -18 -28 69.69 21.7
-2 -18 28 36.9 21
0 -18 -28 1524.05 98.19
0 -18 28 1489.25 98.89
-2 -18 -28 3.5 17.6
-4 -18 -28 99.29 20.5
-4 18 -28 95.39 21.9
-6 -18 -28 43 17.8
-6 18 -28 58.29 19.5
-8 -18 -28 154.98 21.7
-8 18 -28 129.69 22.7
-10 18 -28 57.69 20.4
-11 19 28 7.7 22.5
-9 19 28 63.89 22.7
-7 -19 28 83.29 21.3
-7 19 28 34.9 23.3
-5 -19 28 6.8 18.4
-3 -19 28 1330.17 88.49
-1 -19 28 4.9 20.1
1 -19 -28 14.7 19.1
-1 -19 -28 37.6 19.3
-3 -19 -28 563.04 48.2
-3 19 -28 670.63 53.69
-5 -19 -28 3 17.6
-5 19 -28 30.5 19.9
-7 -19 -28 223.88 27.6
-7 19 -28 359.76 35.7
-9 19 -28 39.1 19.7
-10 20 28 20.5 23.9
-8 -20 28 5.8 19.3
-8 20 28 9.5 22.4
-6 -20 28 35.5 19.2
-4 -20 28 418.06 41.8
2 -20 -28 213.48 28.5
-2 -20 28 160.98 26.5
0 -20 -28 -12.8 19.3
-2 -20 -28 34.6 19.2
-4 -20 -28 526.25 44.8
-6 -20 -28 -1.2 16.7
-6 20 -28 -12 18.8
-8 20 -28 37.4 19.7
-9 21 28 2.7 27.9
-7 -21 28 52.89 20.3
-5 -21 28 21.4 19.4
-3 -21 28 87.89 22.8
1 -21 -28 146.79 25.1
-1 -21 28 108.79 25.5
-1 -21 -28 162.98 25.3
-3 -21 -28 39.6 18.7
-5 -21 -28 9.6 18
-5 21 -28 -11.5 19.4
-7 21 -28 51.59 20.8
-9 21 -28 35.6 20.6
-6 -22 28 26.3 20.3
-4 -22 28 76.79 22.4
-2 -22 28 51.49 22.5
0 -22 -28 528.25 47.5
-2 -22 -28 58.29 20.8
-4 -22 -28 197.48 26.5
-6 22 -28 6.9 20
-8 22 -28 1.2 20.1
-5 -23 28 0 20
-3 -23 28 88.69 23.8
1 -23 -28 51.19 22.7
-1 -23 -28 48.2 21.9
-3 -23 -28 70.19 21.5
-5 -23 -28 3 18.8
-7 23 -28 207.78 29.5
-6 -24 28 -5.6 20.1
-4 -24 28 10.4 21.5
-2 -24 28 5.8 22.2
0 -24 -28 806.52 62.59
-2 -24 -28 25.5 20.7
-4 -24 -28 24.8 19.9
-8 24 -28 71.89 26.9
-5 -25 28 23.6 21.6
-3 -25 28 -6.7 22.2
-1 -25 -28 261.17 31.7
-3 -25 -28 -19.5 19.3
-4 -26 28 2.4 22.1
-2 -26 -28 44.2 21.7
-1 -27 -28 12.1 21.8
-12 0 29 -2.7 17.4
-10 0 29 18.3 17.8
-8 0 29 1.6 16.6
-6 0 29 15.2 17.4
-4 0 29 -2.7 16.7
4 0 -29 -7.8 16.3
-4 0 29 18.8 16.3
2 0 -29 -15.1 15.4
-2 0 29 -10.7 15.8
0 0 -29 -10.4 14.5
0 0 -29 -11.5 15.6
0 0 29 -20.5 15.1
2 0 29 -6.7 15.9
-2 0 -29 10.9 15.7
-2 0 -29 8.9 15.2
-4 0 -29 -17.8 14.6
-6 0 -29 16.9 14.9
-8 0 -29 -6.7 14.2
-10 0 -29 -7.2 14
-12 0 -29 4.1 13.9
-11 -1 29 9.4 17.5
-11 1 29 15.1 18
-9 -1 29 354.16 35.3
-9 1 29 317.37 36.1
-7 -1 29 -1.1 17.1
-7 1 29 18.4 16.7
5 -1 -29 28 17.9
-5 -1 29 -20.6 15.9
-5 1 29 7.6 17
5 1 -29 27.1 17.8
-3 -1 29 1506.35 87.99
3 -1 -29 1359.56 88.89
-3 -1 29 1255.77 88.09
-3 1 29 1482.95 87.89
-3 1 29 1248.48 88.49
3 1 -29 1405.66 88.69
-1 -1 29 574.94 45.8
1 -1 -29 561.04 45.2
-1 1 29 602.54 46.5
1 1 -29 607.14 45.5
-1 -1 -29 68.09 17.6
1 -1 29 94.29 19.7
-1 -1 -29 108.19 18.5
-1 1 -29 66.79 17.8
1 1 29 57.99 17
-1 1 -29 94.49 18.5
3 -1 29 749.82 54.09
-3 -1 -29 742.43 52.09
-3 1 -29 717.63 51.79
3 1 29 726.33 53.59
-5 -1 -29 378.86 33.2
-5 1 -29 334.57 32.6
-7 -1 -29 280.77 28.5
-7 1 -29 251.47 28.5
-9 -1 -29 84.99 16.8
-9 1 -29 101.09 17.1
-11 -1 -29 10.5 14
-11 1 -29 -2.6 14
-12 -2 29 51.49 19
-12 2 29 76.19 20.4
-10 -2 29 317.07 34.4
-10 2 29 334.87 35.5
-8 -2 29 23.3 17.6
-8 2 29 38.3 18.5
-6 -2 29 49.3 18.2
-6 2 29 48.2 18.1
4 -2 -29 1550.64 97.99
-4 -2 29 1492.05 97.09
-4 2 29 1675.83 97.59
-4 2 29 1392.16 96.99
4 2 -29 1539.55 97.49
-2 -2 29 47.6 17.8
-2 -2 29 41.9 14.8
2 -2 -29 69.29 17.6
-2 2 29 32.4 16.5
2 2 -29 57.49 17.4
0 -2 -29 71.79 17.6
0 -2 29 48 17.8
0 -2 -29 64.69 16.7
0 2 -29 77.39 17.7
0 2 -29 51.69 17.2
0 2 29 70.09 18.7
2 -2 29 159.38 22.8
-2 -2 -29 134.79 20.4
-2 -2 -29 131.39 20
2 2 29 136.49 21.6
-2 2 -29 157.38 20.6
-2 2 -29 197.98 21.9
-4 -2 -29 52.59 15.6
-4 2 -29 25 16
-6 -2 -29 237.88 23.4
-6 2 -29 187.28 22.6
-8 -2 -29 170.48 20.7
-8 2 -29 173.08 20.8
-10 -2 -29 1.5 13.8
-10 2 -29 20.5 14.8
-12 -2 -29 56.69 15.6
-12 2 -29 52.59 15.7
-11 -3 29 6.8 17.1
-11 3 29 -21.4 17.7
-9 -3 29 37.7 18.2
-9 3 29 13.6 18
-7 -3 29 9.5 17
-7 3 29 -4.2 17.2
-5 -3 29 7.9 15.8
5 -3 -29 21.3 17.2
-5 3 29 23 16.5
-3 -3 29 93.19 19.8
-3 -3 29 82.49 17.2
3 -3 -29 110.49 20.3
-3 3 29 138.09 18.7
-3 3 29 72.69 20
3 3 -29 86.19 19.8
1 -3 -29 1260.07 79.99
-1 -3 29 1204.28 80.09
-1 3 29 1167.18 80.29
1 3 -29 1254.77 79.79
-1 -3 -29 1079.69 73.39
1 -3 29 1099.29 74.59
-1 -3 -29 1117.39 73.59
-1 3 -29 1225.68 73.79
-1 3 -29 1112.79 73.49
1 3 29 1083.69 74.39
-3 -3 -29 43.1 16.7
3 -3 29 61.39 18.9
3 3 29 45.5 17.7
-3 3 -29 82.89 17.6
-5 -3 -29 137.09 19.9
-5 3 -29 147.89 20.8
-7 -3 -29 1021.1 67.39
-7 3 -29 1042.6 67.89
-9 -3 -29 115.39 18.2
-9 3 -29 133.59 18.9
-11 -3 -29 46.2 15.2
-11 3 -29 5.2 14.4
-12 -4 29 395.26 36.7
-12 4 29 350.16 38.6
-10 -4 29 241.48 27.6
-10 4 29 273.27 29.1
-8 -4 29 228.68 26.4
-8 4 29 233.18 26.3
-6 -4 29 45.9 18.4
-6 4 29 42.8 17.3
-4 -4 29 3.7 16.4
4 -4 -29 -3.1 16
4 4 -29 -5.4 16.4
-4 4 29 -24.6 15.4
2 -4 -29 206.68 24
-2 -4 29 269.37 25.7
-2 -4 29 153.88 22.6
-2 4 29 152.98 23.5
2 4 -29 157.38 22
0 -4 -29 4260.67 261.57
0 -4 -29 4683.93 262.17
0 -4 29 4150.98 261.77
0 4 29 4226.98 261.97
0 4 -29 4590.44 261.77
-2 -4 -29 23 15.3
2 -4 29 4.3 16.2
-2 4 -29 19.4 14.9
-2 4 -29 6.4 15.9
2 4 29 17.2 17.7
-4 -4 -29 204.18 22.7
-4 4 -29 186.98 22.4
-6 -4 -29 3.2 14.7
-6 4 -29 2.9 14.8
-8 -4 -29 489.85 41.4
-8 4 -29 629.64 42.8
-10 -4 -29 424.36 33.8
-10 4 -29 366.96 34.2
-12 -4 -29 2.2 13.7
-12 4 -29 -14.7 14.2
-11 -5 29 155.38 23.4
-11 5 29 122.09 23.2
-9 -5 29 442.36 39.8
-9 5 29 439.96 41
-7 -5 29 409.76 36.5
-7 5 29 330.87 36.7
-5 -5 29 181.28 25.4
5 -5 -29 373.36 34.5
-5 5 29 266.67 28.2
3 -5 -29 392.66 36.4
-3 -5 29 427.56 34.1
-3 -5 29 338.37 36
3 5 -29 368.06 36
-3 5 29 323.47 36.6
1 -5 -29 48.4 16.8
1 -5 -29 44 28
-1 -5 29 25.8 17.4
-1 5 29 32.9 17.9
1 5 -29 4.5 15.4
1 -5 29 9.6 16.6
-1 -5 -29 -8.7 15.3
-1 -5 -29 9.9 16.2
-1 5 -29 1.5 14.6
-1 5 -29 -4.7 14.7
1 5 29 -4.7 17
3 -5 29 13.2 16.6
-3 -5 -29 35.5 16.3
-3 5 -29 40.4 16
-5 -5 -29 246.28 25
-5 5 -29 208.48 23.5
-7 -5 -29 225.58 23.5
-7 5 -29 224.48 23.9
-9 -5 -29 42.3 14.9
-9 5 -29 -2.5 14.3
-11 -5 -29 130.89 18.5
-11 5 -29 159.98 19.8
-12 -6 29 -10.7 17.3
-12 6 29 20.5 19.5
-10 -6 29 52.19 18.8
-10 6 29 17.2 19.5
-8 -6 29 33 17.9
-8 6 29 26.8 18.8
-6 -6 29 38.9 18.4
-6 6 29 35.4 18.1
4 -6 -29 637.14 48.2
-4 -6 29 583.44 47.5
-4 6 29 555.64 48
4 6 -29 643.44 47.9
-2 -6 29 0.7 15.6
-2 -6 29 4.6 12.8
2 -6 -29 40.8 17.7
2 6 -29 12.1 15.4
-2 6 29 9 17.3
0 -6 -29 91.29 18.6
0 -6 29 85.19 19.1
0 -6 -29 104.69 19.5
0 6 -29 73.19 18.2
0 6 29 93.69 20
-2 -6 -29 117.19 18.5
2 -6 29 113.49 20.8
-2 6 -29 109.69 18.5
-2 6 -29 119.29 21.6
2 6 29 110.69 20.6
-4 -6 -29 10.2 15.1
-4 6 -29 -4.2 15.1
-6 -6 -29 318.97 31.2
-6 6 -29 322.17 31.2
-8 -6 -29 29.2 14.9
-8 6 -29 12.1 15.2
-10 -6 -29 85.79 16.9
-10 6 -29 89.99 17.5
-11 -7 29 494.15 42.1
-11 7 29 459.35 43.9
-9 -7 29 11.3 17.3
-9 7 29 34.3 19.1
-7 -7 29 309.47 34
-7 7 29 335.07 35.7
-5 -7 29 128.69 22.2
-5 7 29 155.88 22.9
3 -7 -29 201.68 25
-3 -7 29 201.68 24.1
-3 7 29 125.79 23.2
3 7 -29 226.08 25.2
1 -7 -29 80.39 18.8
-1 -7 29 59.99 18.4
1 -7 -29 108.59 22.8
1 7 -29 111.49 18.7
-1 7 29 91.09 20.5
1 -7 29 76.79 18.4
-1 -7 -29 64.39 17.7
-1 7 -29 84.29 18
-1 7 -29 54.69 17.2
1 7 29 94.99 20.4
-3 -7 -29 1459.85 90.29
3 -7 29 1402.06 91.59
-3 7 -29 1382.06 89.89
-5 -7 -29 31 15.6
-5 7 -29 23.5 15
-7 -7 -29 49.1 16.1
-7 7 -29 44.9 16.5
-9 -7 -29 267.77 29.2
-9 7 -29 295.37 29.5
-11 -7 -29 280.17 28.4
-11 7 -29 282.27 29.5
-12 -8 29 41.7 18.8
-12 8 29 25.8 19.7
-10 -8 29 474.45 43
-10 8 29 573.74 46.3
-8 -8 29 -4.9 17.3
-8 8 29 28.4 19.1
-6 -8 29 19.6 17.8
-6 8 29 15.9 18.3
4 -8 -29 -9 17.4
-4 -8 29 11.3 16.7
-4 8 29 10.3 18.3
-2 -8 29 1211.88 85.59
2 -8 -29 1305.17 86.19
2 8 -29 1451.05 85.99
0 -8 29 28.7 17.4
0 -8 -29 35.1 16.8
0 8 29 7.7 18.2
0 8 -29 29.8 16.5
2 -8 29 145.79 22.9
-2 -8 -29 155.98 21
-2 8 -29 115.49 20
-4 -8 -29 296.07 30.5
-4 8 -29 226.58 25.2
-6 -8 -29 46.3 16.4
-6 8 -29 69.89 17.3
-8 -8 -29 -16.6 14
-8 8 -29 14.8 15.3
-10 -8 -29 946.71 63.89
-10 8 -29 1010.2 64.99
-11 -9 29 0.7 17.4
-11 9 29 -23.8 18.5
-9 -9 29 4 17.7
-9 9 29 2 19
-7 -9 29 537.65 44.1
-7 9 29 509.45 45.7
-5 -9 29 261.17 26.7
-5 9 29 195.68 26.6
3 -9 -29 561.04 44.3
-3 -9 29 472.75 42.5
-3 9 29 441.46 44
3 9 -29 571.34 43.7
-1 -9 29 56.79 18.4
1 -9 -29 62.99 18.1
1 9 -29 63.99 17.9
-1 9 29 57.49 19.6
1 -9 29 291.07 30
-1 -9 -29 296.37 32.4
-1 9 -29 340.47 32.7
1 9 29 318.57 31.4
-3 -9 -29 36.9 16.7
-3 9 -29 2.1 15.3
-5 -9 -29 -15.9 15.1
-5 9 -29 10.7 15.4
-7 -9 -29 1661.13 104.09
-7 9 -29 1690.63 104.89
-9 -9 -29 50.49 15.7
-9 9 -29 62.99 17.1
-11 -9 -29 29.5 14.6
-11 9 -29 3 15.2
-12 10 29 50.99 20.9
-10 -10 29 6.1 17.8
-10 10 29 3 18.5
-8 -10 29 303.47 29.4
-8 10 29 257.27 30.7
-6 -10 29 46.5 18.7
-6 10 29 88.59 21.3
-4 -10 29 205.98 25.4
4 -10 -29 257.27 28.5
-4 10 29 263.17 28.9
-2 -10 29 51.69 18.2
2 -10 -29 111.59 20.8
2 10 -29 44.9 17.5
-2 10 29 64.19 20.7
0 -10 -29 50.19 17.4
0 -10 29 49.9 18.7
0 10 -29 37.1 17.8
0 10 29 24.3 19.2
-2 -10 -29 437.56 38.4
2 -10 29 371.36 40.4
-2 10 -29 474.95 38
-4 -10 -29 16.8 15.5
-4 10 -29 13.9 15.4
-6 -10 -29 1132.29 72.29
-6 10 -29 1068.99 72.79
-8 -10 -29 586.44 43.4
-8 10 -29 560.54 44.5
-10 -10 -29 9.7 14.6
-10 10 -29 54.69 16.9
-11 -11 29 61.09 19.2
-11 11 29 47 21.3
-9 -11 29 73.29 20.6
-9 11 29 67.09 21
-7 -11 29 17.2 17.2
-7 11 29 12.6 19
-5 -11 29 129.69 20.9
-5 11 29 110.09 23.3
-3 -11 29 520.65 44.5
3 -11 -29 576.44 46.1
-3 11 29 547.25 46.8
-1 -11 29 91.89 20.3
1 -11 -29 107.49 20.3
1 11 -29 98.79 20.1
-1 11 29 91.29 21.6
-1 -11 -29 203.68 23.9
1 -11 29 204.78 26.4
-1 11 -29 216.58 24.8
-3 -11 -29 34 16.8
-3 11 -29 17.5 16.6
-5 -11 -29 29.9 16.1
-5 11 -29 11.5 16.3
-7 -11 -29 616.24 46.3
-7 11 -29 633.94 47.7
-9 -11 -29 139.99 19.9
-9 11 -29 170.98 21.9
-11 11 -29 80.19 18.2
-12 12 29 66.29 22.9
-10 -12 29 347.17 36.9
-10 12 29 316.37 33.7
-8 -12 29 130.49 21.6
-8 12 29 123.69 23.2
-6 -12 29 26.6 18.1
-6 12 29 35.8 20.4
-4 -12 29 92.99 20.2
4 -12 -29 132.39 24.1
-4 12 29 105.09 22.6
-2 -12 29 796.82 58.79
2 -12 -29 931.31 59.89
-2 12 29 710.53 60.49
0 -12 -29 -6.8 16.1
0 -12 29 -8.7 17.8
0 12 -29 -15.9 16.2
2 -12 29 -8.4 17.5
-2 -12 -29 -0.6 16.1
-2 12 -29 18.4 17.5
-4 -12 -29 146.19 21.5
-4 12 -29 133.59 20.5
-6 -12 -29 43.3 16.6
-6 12 -29 54.49 17.4
-8 -12 -29 57.09 16.3
-8 12 -29 9.2 15.9
-10 -12 -29 613.94 46.4
-10 12 -29 667.43 48
-11 13 29 68.39 22.5
-9 -13 29 57.79 19.6
-9 13 29 20.9 20.2
-7 -13 29 61.99 19.4
-7 13 29 38.5 20.5
-5 -13 29 48 19.1
-5 13 29 34.7 20.6
3 -13 -29 134.19 23.7
-3 -13 29 109.89 21.3
-3 13 29 138.79 24.7
1 -13 -29 -7.5 17.2
-1 -13 29 12 18.5
1 13 -29 23.6 18.4
-1 -13 -29 19.3 17.1
1 -13 29 8 18.6
-1 13 -29 -8.6 16.6
-3 -13 -29 192.18 24.4
-3 13 -29 245.38 26.5
-5 -13 -29 4.6 16
-5 13 -29 22.1 17
-7 -13 -29 298.67 32.1
-7 13 -29 325.57 33.3
-9 -13 -29 16.3 15.4
-9 13 -29 13.2 16.8
-10 -14 29 526.25 44.2
-10 14 29 489.45 47.3
-8 -14 29 101.39 21.4
-8 14 29 80.19 22.5
-6 -14 29 0.6 17
-6 14 29 -7.4 19.3
-4 -14 29 161.48 23.7
-4 14 29 143.69 25.5
-2 -14 29 323.37 35.4
2 -14 -29 297.17 31.9
0 -14 29 46.1 20.2
0 -14 -29 58.99 18.8
0 14 -29 30.6 18.8
-2 -14 -29 16.5 17.2
-2 14 -29 28.6 18.2
-4 -14 -29 33.7 17.7
-4 14 -29 65.39 18.9
-6 -14 -29 0.2 16.1
-6 14 -29 15.4 17.4
-8 -14 -29 34.9 16.4
-8 14 -29 9 17
-10 14 -29 157.38 22.3
-11 15 29 239.68 30.6
-9 -15 29 113.69 21.7
-9 15 29 97.29 24.5
-7 -15 29 37.7 18.9
-7 15 29 55.89 21.9
-5 -15 29 -4.4 17.5
-5 15 29 -8.8 19.9
3 -15 -29 54.69 21.1
-3 -15 29 60.99 20.3
-1 -15 29 72.69 20.5
1 -15 -29 106.19 22.1
1 -15 29 193.48 27.3
-1 -15 -29 165.68 24.4
-1 15 -29 163.88 24.2
-3 -15 -29 131.89 21.6
-3 15 -29 117.49 21.4
-5 -15 -29 28.4 17.7
-5 15 -29 52.59 18.3
-7 -15 -29 14.2 16.1
-7 15 -29 27.5 17.2
-9 -15 -29 44.6 16
-9 15 -29 23.8 17.6
-10 16 29 100.99 25.5
-8 -16 29 29.8 19
-8 16 29 22.9 21.8
-6 -16 29 2.8 18.2
-6 16 29 -24.9 20.3
-4 -16 29 82.59 21.3
2 -16 -29 39.7 20.4
-2 -16 29 62.69 19.6
0 -16 -29 1772.22 108.79
0 -16 29 1620.74 108.99
-2 -16 -29 31.7 17.9
-2 16 -29 7.2 18.3
-4 -16 -29 118.69 20.7
-4 16 -29 92.29 20.9
-6 -16 -29 114.89 19.8
-6 16 -29 97.29 21
-8 -16 -29 496.45 41.2
-8 16 -29 515.35 42.8
-10 16 -29 294.07 32.9
-11 17 29 -4.2 21.7
-9 -17 29 -11.5 18.3
-9 17 29 6.1 22.1
-7 -17 29 24.3 19
-7 17 29 42.4 23.2
-5 -17 29 40.5 19.5
-3 -17 29 82.29 21.2
-1 -17 29 55.29 21.6
1 -17 -29 66.29 21.1
-1 -17 -29 133.79 22.9
-3 -17 -29 5.2 17.4
-3 17 -29 -10.9 18.4
-5 -17 -29 36 18.1
-5 17 -29 13.6 18.7
-7 -17 -29 486.85 41.5
-7 17 -29 510.85 43.4
-9 17 -29 36.3 18.4
-10 18 29 44.5 23.7
-8 -18 29 80.79 20.9
-8 18 29 11.2 22.9
-6 -18 29 28.2 19.5
-4 -18 29 223.38 28.4
-2 -18 29 35.9 20.8
2 -18 -29 74.79 22.3
0 -18 -29 240.88 28.4
0 -18 29 196.68 28.2
-2 -18 -29 8.6 17.7
-4 -18 -29 -10.6 17.7
-4 18 -29 -6.3 19.1
-6 -18 -29 47.5 18.4
-6 18 -29 44.4 20
-8 18 -29 -15.6 17.9
-11 19 29 -12 23.2
-9 19 29 8.8 23.4
-7 -19 29 52.99 21
-5 -19 29 25.6 19.4
-3 -19 29 25.7 20.3
-1 -19 29 204.78 28.4
1 -19 -29 221.38 28.5
-1 -19 -29 25.8 18.9
-3 -19 -29 20.4 18.2
-5 -19 -29 19.2 17.8
-5 19 -29 16.6 20.2
-7 -19 -29 0.2 17.6
-7 19 -29 -16.5 18.2
-9 19 -29 74.99 21.1
-10 20 29 22.6 23.6
-8 -20 29 74.19 22.2
-6 -20 29 21.5 19.4
-4 -20 29 402.46 41.2
-2 -20 29 2.7 21
0 -20 -29 -0.1 19
-2 -20 -29 5.4 18.6
-4 -20 -29 9.1 18.3
-6 -20 -29 34.6 18.6
-6 20 -29 17.1 20.3
-8 20 -29 -18.6 19
-7 -21 29 -11.7 19.2
-5 -21 29 19 21
-3 -21 29 611.04 51.69
-1 -21 29 -5.3 21.1
1 -21 -29 -8.4 19.8
-1 -21 -29 -2.3 18.9
-3 -21 -29 295.57 31.7
-5 -21 -29 169.18 24.4
-7 21 -29 59.99 22
-9 21 -29 28.2 22
-6 -22 29 49.4 20.4
-4 -22 29 151.78 25.9
-2 -22 29 4.1 21.3
0 -22 -29 511.35 47.6
-2 -22 -29 24.1 19.5
-4 -22 -29 -8.6 18.5
-8 22 -29 111.09 24.7
-5 -23 29 6.7 20.9
-3 -23 29 28.8 22.2
-1 -23 -29 162.88 26.2
-3 -23 -29 -4.7 19.1
-6 -24 29 27.3 23.1
-4 -24 29 6.5 21.7
0 -24 -29 243.68 31.4
-2 -24 -29 122.99 24.4
-4 -24 -29 -4.6 19.1
-5 -25 29 30.3 22.7
-3 -25 29 34.5 24
-1 -25 -29 93.79 24.5
-3 -25 -29 24.8 20.4
-4 -26 29 36.2 23.3
-2 -26 -29 6.1 20.8
-1 -27 -29 -24.8 20.7
-12 0 30 0.4 18.1
-10 0 30 2070.59 129.09
-8 0 30 15.9 17.5
-6 0 30 493.55 42.5
4 0 -30 519.35 44.2
-4 0 30 525.15 43.6
-2 0 30 47.1 18.5
2 0 -30 46.3 18.1
0 0 -30 30.5 17.2
0 0 30 37.2 16.6
0 0 -30 23.5 16.2
2 0 30 287.57 29.2
-2 0 -30 291.97 31
-4 0 -30 1188.88 77.09
-6 0 -30 95.99 17.9
-8 0 -30 33.4 15.6
-10 0 -30 10.9 14.6
-11 -1 30 12.4 18.4
-11 1 30 44.4 19.4
-9 -1 30 414.36 40.4
-9 1 30 488.85 41.2
-7 -1 30 24.1 18.7
-7 1 30 -3.5 17.2
-5 -1 30 6.5 16.9
-5 1 30 15.6 18
-3 -1 30 82.69 18.6
3 -1 -30 63.99 19.2
-3 -1 30 67.39 16.5
-3 1 30 69.29 16.3
3 1 -30 71.69 18.5
-3 1 30 85.79 19.6
1 -1 -30 375.56 36.1
-1 -1 30 359.66 36.2
-1 1 30 391.16 37.3
1 1 -30 402.76 36.2
-1 -1 -30 -12.3 14.5
1 -1 30 -3.4 16.6
-1 -1 -30 2.6 15.4
-1 1 -30 -26.3 14.4
1 1 30 -2.2 16.5
-1 1 -30 4.6 15.6
-3 -1 -30 8.6 15.8
3 -1 30 20.7 17.7
3 1 30 12.8 17.5
-3 1 -30 10.7 15.6
-5 -1 -30 1422.06 89.99
-5 1 -30 1413.06 89.79
-7 -1 -30 443.86 39.2
-7 1 -30 561.04 40
-9 -1 -30 53.99 15.9
-9 1 -30 54.99 15.9
-11 -1 -30 129.69 18.7
-11 1 -30 127.69 18.9
-12 -2 30 334.37 36
-12 2 30 345.57 36.8
-10 -2 30 -8.8 17.1
-10 2 30 16.4 18.3
-8 -2 30 -2.2 17.2
-8 2 30 13.5 18.1
-6 -2 30 234.68 26.6
-6 2 30 221.58 26.3
4 -2 -30 -22.4 17.3
-4 -2 30 3.4 16.1
-4 2 30 19.5 17.3
4 2 -30 -12.8 16.5
-2 -2 30 71.99 19.6
2 -2 -30 55.09 18.4
-2 2 30 71.19 18.8
2 2 -30 91.69 19.1
0 -2 -30 336.47 32.6
0 -2 30 306.17 33.9
0 -2 -30 318.07 33.3
0 2 -30 304.27 33
0 2 -30 364.46 34.3
0 2 30 308.67 30.7
-2 -2 -30 83.69 18.6
2 -2 30 88.99 19.4
-2 2 -30 70.89 18.1
2 2 30 40.9 19
-4 -2 -30 25.9 16.3
-4 2 -30 17.6 15.8
-6 -2 -30 13.7 15.3
-6 2 -30 36 16.3
-8 -2 -30 1493.55 94.39
-8 2 -30 1520.85 94.69
-10 -2 -30 1.1 14.5
-10 2 -30 -12.2 14.2
-11 -3 30 3.3 17.8
-11 3 30 14.4 18.8
-9 -3 30 53.19 19.5
-9 3 30 22.3 18.4
-7 -3 30 83.49 20.9
-7 3 30 67.89 20.2
-5 -3 30 116.49 20
-5 3 30 105.69 20.2
3 -3 -30 -16.8 16.7
-3 -3 30 1.7 16.7
-3 -3 30 4.8 15.3
-3 3 30 24.7 17.1
-3 3 30 29.6 18.1
3 3 -30 25.5 18.1
1 -3 -30 289.47 28.6
-1 -3 30 297.37 29.1
-1 3 30 230.38 27.5
1 3 -30 298.97 32
1 -3 30 1174.58 77.59
-1 -3 -30 1272.17 76.79
-1 -3 -30 1226.48 76.49
-1 3 -30 1180.68 75.89
1 3 30 989.3 76.39
-1 3 -30 1126.29 75.89
-3 -3 -30 18.7 15.6
3 -3 30 7.3 18.1
-3 3 -30 0.8 15
-5 -3 -30 199.78 22.6
-5 3 -30 162.88 21.5
-7 -3 -30 64.29 16.6
-7 3 -30 61.79 17
-9 -3 -30 179.78 21.2
-9 3 -30 176.48 21.4
-11 -3 -30 40.5 15.5
-11 3 -30 33.8 15.5
-12 -4 30 52.59 19.7
-12 4 30 89.79 21.8
-10 -4 30 -1 18.4
-10 4 30 -1 18.5
-8 -4 30 2.8 18.1
-8 4 30 9.8 17.8
-6 -4 30 582.54 45.3
-6 4 30 554.84 46.7
4 -4 -30 -4.6 17.1
-4 -4 30 4.5 16.3
4 4 -30 -11.8 16.4
-4 4 30 3.1 17
-2 -4 30 16 14.1
-2 -4 30 -0.3 16.9
2 -4 -30 -1.7 16.5
2 4 -30 -5.4 16.5
-2 4 30 -11.2 16.1
0 -4 -30 726.73 53.79
0 -4 -30 765.62 53.69
0 -4 30 684.53 54.49
0 4 30 776.42 54.99
2 -4 30 295.17 29.4
-2 -4 -30 259.17 26.2
2 4 30 240.28 28.4
-2 4 -30 238.58 26.2
-4 -4 -30 -6.5 15.5
-4 4 -30 6.8 15.6
-6 -4 -30 955.4 67.09
-6 4 -30 1084.79 67.79
-8 -4 -30 50.29 16.7
-8 4 -30 83.39 17.2
-10 -4 -30 41.5 15.7
-10 4 -30 24.3 15.7
-11 -5 30 -2.5 18.1
-11 5 30 4.3 18.8
-9 -5 30 31.1 18.3
-9 5 30 -4.8 17.8
-7 -5 30 60.79 18
-7 5 30 30.8 18.2
-5 -5 30 210.68 24.5
-5 5 30 181.88 24.1
-3 -5 30 738.03 61.19
3 -5 -30 937.21 61.89
3 5 -30 1036.6 62.69
-3 5 30 796.62 61.59
1 -5 -30 103.89 20.1
-1 -5 30 70.29 19.8
-1 5 30 102.09 19.8
1 5 -30 114.89 20.4
-1 -5 -30 14.3 16.4
1 -5 30 10.2 17.7
-1 5 -30 28.5 16
-1 5 -30 30.6 15.4
1 5 30 18.4 18.1
3 -5 30 150.58 23.4
-3 -5 -30 183.18 22.7
-3 5 -30 192.38 22.8
-5 -5 -30 254.17 25.9
-5 5 -30 229.88 24.5
-7 -5 -30 557.74 43.1
-7 5 -30 576.84 43
-9 -5 -30 8.9 14.8
-9 5 -30 3.3 14.7
-11 -5 -30 31.4 15.1
-11 5 -30 14.3 15.3
-12 -6 30 3.1 18.1
-12 6 30 52.49 21
-10 -6 30 100.39 22.1
-10 6 30 149.49 23.8
-8 -6 30 76.19 19.4
-8 6 30 87.59 21.3
-6 -6 30 17.7 17.3
-6 6 30 0.6 17.3
4 -6 -30 415.46 37.9
-4 -6 30 332.07 36.5
-4 6 30 329.17 37.3
-2 -6 30 2619.04 180.78
-2 -6 30 3479.85 181.28
2 -6 -30 3104.49 181.68
-2 6 30 2549.54 180.88
2 6 -30 3186.28 181.58
0 -6 -30 117.19 20.6
0 -6 -30 144.29 32.4
0 -6 30 102.49 20.2
0 6 30 137.69 22
0 6 -30 120.79 20.1
2 -6 30 -28.5 16.3
-2 -6 -30 14.3 15.6
-2 6 -30 11 14.9
-4 -6 -30 372.46 33.6
-4 6 -30 334.77 33.4
-6 -6 -30 19 15.6
-6 6 -30 10.5 15.6
-8 -6 -30 302.67 30.1
-8 6 -30 294.37 30.8
-10 -6 -30 504.35 38.1
-10 6 -30 446.06 38.3
-11 -7 30 157.38 23.9
-11 7 30 146.99 24.6
-9 -7 30 114.09 21.7
-9 7 30 115.39 23
-7 -7 30 -6.8 17.7
-7 7 30 -0.5 18.5
-5 -7 30 -16.5 17
-5 7 30 -6.6 17.7
-3 -7 30 1582.54 105.79
3 -7 -30 1791.62 107.09
-3 7 30 1503.05 106.69
3 7 -30 1832.52 106.69
-1 -7 30 91.79 19.6
1 -7 -30 128.19 21.5
-1 7 30 88.39 20.3
1 7 -30 73.29 18.3
-1 -7 -30 46 17.7
1 -7 30 36.8 18.1
1 7 30 21.6 17.9
-1 7 -30 51.59 17.2
-3 -7 -30 102.99 19
-3 7 -30 147.49 20.4
-5 -7 -30 302.27 30.7
-5 7 -30 249.97 26.3
-7 -7 -30 108.59 18.3
-7 7 -30 40 16.9
-9 -7 -30 33.7 16.1
-9 7 -30 34.4 16.2
-11 -7 -30 76.69 16.2
-11 7 -30 71.59 16.9
-12 8 30 97.79 22.5
-10 -8 30 96.29 21.1
-10 8 30 94.99 23
-8 -8 30 34.8 18.7
-8 8 30 7.8 18.9
-6 -8 30 335.07 34.4
-6 8 30 243.88 29.5
4 -8 -30 40.2 19.1
-4 -8 30 46.8 18.2
-4 8 30 26.6 18.8
2 -8 -30 96.59 21.1
-2 -8 30 103.69 20.6
-2 8 30 119.29 21.8
2 8 -30 95.39 20.6
0 -8 -30 245.58 26
0 -8 30 186.68 25
0 8 -30 294.37 30.1
0 8 30 194.58 26.6
2 -8 30 62.59 19.9
-2 -8 -30 46.4 18.2
-2 8 -30 80.59 17.7
-4 -8 -30 130.09 20.9
-4 8 -30 138.39 20.6
-6 -8 -30 244.88 25.7
-6 8 -30 249.28 25.7
-8 -8 -30 49.3 15.8
-8 8 -30 27.7 15.8
-10 -8 -30 15.9 14.6
-10 8 -30 9.5 15
-11 -9 30 41.1 18.9
-11 9 30 30.5 20.3
-9 -9 30 2.4 17.8
-9 9 30 13.9 19.1
-7 -9 30 3.3 17.8
-7 9 30 23.3 18.8
-5 -9 30 35.6 17.4
-5 9 30 28.8 19.1
-3 -9 30 394.36 37
3 -9 -30 377.76 38.4
-3 9 30 339.47 34.9
1 -9 -30 85.89 19.1
-1 -9 30 118.29 21.2
-1 9 30 106.89 22.2
1 9 -30 135.89 21.3
1 -9 30 399.56 40.5
-1 -9 -30 440.26 39.1
-1 9 -30 466.55 38.7
-3 -9 -30 111.69 20
-3 9 -30 103.59 19.4
-5 -9 -30 11.8 15.6
-5 9 -30 14.2 16.3
-7 -9 -30 199.08 22
-7 9 -30 153.28 21.9
-9 -9 -30 60.09 16.1
-9 9 -30 44.9 17
-11 9 -30 72.09 17.4
-12 10 30 -22.7 19.4
-10 -10 30 5.7 17.6
-10 10 30 3.9 20.3
-8 -10 30 0.6 18.7
-8 10 30 11.3 19.2
-6 -10 30 126.99 21.3
-6 10 30 145.79 24.3
4 -10 -30 20.4 19.1
-4 -10 30 -1.6 15.9
-4 10 30 7.5 19
2 -10 -30 4 17.8
-2 -10 30 10.2 17
-2 10 30 12.8 19.5
2 10 -30 18.8 17.4
0 -10 -30 114.89 21.1
0 -10 30 165.28 23.2
0 10 30 132.39 31
0 10 -30 125.49 21.2
-2 -10 -30 150.58 21.7
2 -10 30 159.58 24.1
-2 10 -30 108.59 20.5
-4 -10 -30 19.6 16.6
-4 10 -30 0.5 15.9
-6 -10 -30 83.29 18
-6 10 -30 69.69 18.2
-8 -10 -30 7.1 15
-8 10 -30 10.6 16.1
-10 -10 -30 11.1 14.8
-10 10 -30 12.7 16
-11 -11 30 13.4 18.7
-11 11 30 32.1 20.4
-9 -11 30 -2.9 19
-9 11 30 28 20.3
-7 -11 30 22.6 18.6
-7 11 30 20.1 20
-5 -11 30 435.06 39.5
-5 11 30 400.36 42.8
3 -11 -30 5.2 18.4
-3 -11 30 23.4 18.1
-3 11 30 8.9 19.2
-1 -11 30 32.6 18.9
1 -11 -30 38.2 17.9
1 11 -30 52.39 18.7
-1 11 30 20 20
1 -11 30 1690.73 109.59
-1 -11 -30 1611.44 108.49
-1 11 -30 1867.31 109.09
-3 -11 -30 9.9 16.2
-3 11 -30 -9.3 15.6
-5 -11 -30 54.49 17.3
-5 11 -30 45.1 17.6
-7 -11 -30 492.35 39
-7 11 -30 443.26 39.8
-9 -11 -30 27.5 15.7
-9 11 -30 57.19 18
-12 12 30 26.1 18.7
-10 -12 30 157.48 24.7
-10 12 30 175.78 26.6
-8 -12 30 -1.4 18.3
-8 12 30 6.8 19
-6 -12 30 558.84 47
-6 12 30 607.54 50.29
-4 -12 30 97.19 20.1
-4 12 30 86.29 22.6
2 -12 -30 436.06 40.6
-2 -12 30 422.56 40.5
-2 12 30 421.46 42.8
0 -12 30 434.66 41.8
0 -12 -30 395.46 38.9
0 12 -30 457.25 39.9
-2 -12 -30 180.88 23.4
-2 12 -30 175.48 23.5
-4 -12 -30 173.38 23.3
-4 12 -30 249.08 26
-6 -12 -30 102.99 19.5
-6 12 -30 127.39 21
-8 -12 -30 42.1 16.4
-8 12 -30 31 18
-10 -12 -30 67.79 23.3
-10 12 -30 79.79 19.1
-11 13 30 170.08 26.4
-9 -13 30 -6.5 18.3
-9 13 30 30.2 21
-7 -13 30 48.6 19.2
-7 13 30 51.99 21.2
-5 -13 30 139.19 22.4
-5 13 30 80.89 22.9
3 -13 -30 2200.58 125.89
-3 -13 30 1872.71 123.79
-3 13 30 1869.51 125.39
-1 -13 30 161.98 25.5
1 -13 -30 193.18 25.2
-1 -13 -30 71.09 18.9
1 -13 30 43.2 20.4
-1 13 -30 91.09 20.4
-3 -13 -30 152.88 22.1
-3 13 -30 126.99 21.7
-5 -13 -30 36 17.5
-5 13 -30 62.39 18.6
-7 -13 -30 59.49 17.6
-7 13 -30 62.99 18.5
-9 -13 -30 71.59 18
-9 13 -30 49.4 17.8
-10 -14 30 57.89 20.5
-10 14 30 28.6 21.4
-8 -14 30 7.5 18.1
-8 14 30 10.4 20.6
-6 -14 30 20.9 18.8
-6 14 30 0.5 19.8
-4 -14 30 43.4 19.7
-4 14 30 3.6 20.7
2 -14 -30 1587.64 95.09
-2 -14 30 1293.07 93.09
0 -14 30 121.19 22.7
0 -14 -30 143.59 23
0 14 -30 113.99 30.3
-2 -14 -30 3.4 17
-2 14 -30 29.4 18.7
-4 -14 -30 -24.9 16.6
-4 14 -30 -9.6 16.8
-6 -14 -30 27.7 17.1
-6 14 -30 35.5 17.8
-8 -14 -30 291.47 31
-8 14 -30 238.18 27.3
-10 14 -30 172.18 23.7
-11 15 30 22.4 22.2
-9 -15 30 249.18 27.9
-9 15 30 209.38 30.6
-7 -15 30 3.3 18.2
-7 15 30 10 20.8
-5 -15 30 141.19 23.1
-5 15 30 142.39 25.9
3 -15 -30 81.69 23.6
-3 -15 30 60.79 20.2
-1 -15 30 52.29 21.2
1 -15 -30 79.79 21.7
-1 -15 -30 27.3 18.8
-1 15 -30 -9.1 18.7
-3 -15 -30 -13 17.2
-3 15 -30 13.9 18.4
-5 -15 -30 507.05 43.8
-5 15 -30 530.95 44.2
-7 -15 -30 240.98 25.8
-7 15 -30 229.78 26.7
-9 15 -30 19.3 17.7
-10 16 30 14.6 22.6
-8 -16 30 39.2 19.5
-8 16 30 32.4 22.3
-6 -16 30 112.79 22.1
-6 16 30 103.29 25.1
-4 -16 30 -25 18.1
2 -16 -30 64.09 22
-2 -16 30 31.1 19.9
0 -16 -30 -1.2 18.2
0 -16 30 29.2 21.7
-2 -16 -30 93.69 20.7
-2 16 -30 87.39 22.3
-4 -16 -30 72.89 19.6
-4 16 -30 93.89 21
-6 -16 -30 114.69 20.6
-6 16 -30 127.69 22.4
-8 -16 -30 121.29 20.1
-8 16 -30 77.99 19.8
-10 16 -30 11.8 18.9
-11 17 30 10.5 22
-9 -17 30 -15.4 18.2
-9 17 30 -3 21.9
-7 -17 30 4.6 18.1
-7 17 30 -14.4 21.5
-5 -17 30 17.4 18.7
-3 -17 30 16.8 20.1
1 -17 -30 299.77 31.5
-1 -17 30 230.18 29.4
-1 -17 -30 134.89 22.9
-3 -17 -30 3.2 17.5
-3 17 -30 30 19.8
-5 -17 -30 24.4 18.1
-5 17 -30 10 18.7
-7 -17 -30 479.35 40.9
-7 17 -30 461.05 42.1
-9 17 -30 157.48 23.5
-10 18 30 15 23.1
-8 -18 30 -0.3 18.9
-8 18 30 19.2 23.3
-6 -18 30 -6.4 18.6
-4 -18 30 19.2 19.3
-2 -18 30 -11.1 19.3
2 -18 -30 -14.2 20.1
0 -18 -30 113.09 23.7
-2 -18 -30 12.8 18.3
-4 -18 -30 24.1 18.6
-4 18 -30 43.1 20.6
-6 -18 -30 23.4 18.1
-6 18 -30 12.5 19.2
-8 18 -30 683.93 53.09
-9 19 30 203.18 31
-7 -19 30 -7.6 19.3
-5 -19 30 -12.8 18.8
-3 -19 30 190.38 28.1
-1 -19 30 1.7 21.6
1 -19 -30 1.8 19.9
-1 -19 -30 34.2 19.8
-3 -19 -30 18.1 18.4
-5 -19 -30 796.22 59.29
-5 19 -30 854.81 61.49
-7 19 -30 95.99 22.4
-9 19 -30 3.8 19.4
-10 20 30 208.58 31.1
-6 -20 30 96.39 23.1
-4 -20 30 154.18 26.3
-2 -20 30 -11.4 20.4
0 -20 -30 12.6 20
-2 -20 -30 22 19
-4 -20 -30 468.15 42.8
-6 -20 -30 10.5 18.5
-6 20 -30 6.8 20.2
-8 20 -30 -1.6 19.3
-7 -21 30 -19 19
-5 -21 30 8.1 20.2
-3 -21 30 18.6 22.2
1 -21 -30 83.99 23.7
-1 -21 -30 6.8 20.4
-3 -21 -30 -5.4 18.6
-5 -21 -30 26.6 18.7
-7 21 -30 122.59 24.9
-6 -22 30 39.9 20.5
-4 -22 30 70.89 23.8
-2 -22 30 -4.2 21.4
0 -22 -30 12.2 20.4
-2 -22 -30 2.4 19.1
-4 -22 -30 19.2 19.5
-8 22 -30 236.28 30.6
-5 -23 30 -5.3 20.6
-3 -23 30 8.2 21.3
-1 -23 -30 153.38 26.3
-3 -23 -30 -11.1 19.3
-4 -24 30 -13.2 21.3
0 -24 -30 160.48 28.1
-2 -24 -30 32.9 21.8
-5 -25 30 -15 22.2
-3 -25 30 252.37 33.4
-1 -25 -30 20.5 21.8
-3 -25 -30 37.3 21.8
-4 -26 30 28.9 23.4
-2 -26 -30 22.6 22.6
-1 -27 -30 -22.2 21.7
-12 0 31 6 18.9
-10 0 31 7 18.9
-8 0 31 12.1 17.9
-6 0 31 -15.1 17.8
4 0 -31 -19.7 17.6
-4 0 31 -1.1 16.5
-2 0 31 8 17.1
2 0 -31 19.5 17
0 0 -31 -10.8 16
0 0 -31 8.9 16.2
0 0 31 -4.6 16.5
-2 0 -31 -6.2 15.6
2 0 31 -11.3 17.7
-4 0 -31 14.2 15.9
-6 0 -31 10 15.5
-8 0 -31 17.3 15.3
-10 0 -31 -3 14.6
-11 -1 31 159.48 24.6
-11 1 31 154.28 24.5
-9 -1 31 320.07 34.8
-9 1 31 278.97 30.2
-7 -1 31 101.79 21.1
-7 1 31 105.09 21.9
-5 -1 31 11.9 18.5
-5 1 31 21.9 18.2
3 -1 -31 11.2 17.5
-3 -1 31 -11.8 16.7
3 1 -31 -0.2 17
-3 1 31 -3.1 16.3
-3 1 31 -8.5 20.7
-1 -1 31 58.19 18.4
1 -1 -31 35.2 18.4
1 1 -31 80.59 18.7
-1 1 31 64.69 20.2
-1 -1 -31 435.96 38.1
1 -1 31 418.96 40
-1 1 -31 475.95 49.6
1 1 31 428.96 40
-1 1 -31 430.96 37.7
-3 -1 -31 554.54 43.9
-3 1 -31 562.64 43.9
-5 -1 -31 1476.35 91.89
-5 1 -31 1415.76 91.59
-7 -1 -31 113.09 19.1
-7 1 -31 134.79 19.9
-9 -1 -31 53.69 16.1
-9 1 -31 43.2 16
-11 -1 -31 260.57 28.6
-11 1 -31 301.17 29.6
-12 -2 31 102.59 21.6
-12 2 31 70.99 21.3
-10 -2 31 746.33 55.19
-10 2 31 735.93 55.89
-8 -2 31 -7.9 18.5
-8 2 31 -14.3 18.3
-6 -2 31 1001.4 68.09
-6 2 31 958 67.49
-4 -2 31 -8.5 15.8
4 -2 -31 -10.1 18.3
4 2 -31 6.9 18
-4 2 31 -5.2 17.1
-2 -2 31 -19.6 17.1
2 -2 -31 25.7 17.9
-2 2 31 1.1 17.7
2 2 -31 -2 16.6
0 -2 31 280.17 28
0 -2 -31 268.17 27
0 -2 -31 215.18 25.1
0 2 31 227.48 27.1
0 2 -31 253.07 26.5
2 -2 31 16.8 18.7
-2 -2 -31 3.4 15.6
-2 2 -31 0.2 15.3
2 2 31 8.3 17.9
-4 -2 -31 2926.21 177.58
-4 2 -31 2948 177.68
-6 -2 -31 27.5 15.7
-6 2 -31 30.3 16.6
-8 -2 -31 25.3 15.4
-8 2 -31 -12.8 15.2
-10 -2 -31 160.88 19.9
-10 2 -31 98.99 18.8
-11 -3 31 46 19.6
-11 3 31 22.5 19.8
-9 -3 31 0.5 18.4
-9 3 31 11 18.3
-7 -3 31 8.7 17.7
-7 3 31 26.7 18.3
-5 -3 31 537.25 45.4
-5 3 31 598.24 46.3
3 -3 -31 170.48 24.5
-3 -3 31 185.08 24.3
-3 3 31 164.88 24.3
3 3 -31 191.58 24.6
1 -3 -31 124.29 21.4
-1 -3 31 117.49 21.9
-1 3 31 99.39 21.7
1 3 -31 102.19 20
-1 -3 -31 222.78 24.5
1 -3 31 190.68 25.5
-1 3 -31 242.98 26
1 3 31 237.48 27.8
-3 -3 -31 72.19 18.3
-3 3 -31 78.49 18.1
-5 -3 -31 119.39 20.2
-5 3 -31 124.49 19.6
-7 -3 -31 1710.93 105.99
-7 3 -31 1689.63 105.89
-9 -3 -31 51.39 16.4
-9 3 -31 54.59 16.7
-11 -3 -31 9.2 14.9
-11 3 -31 28.3 15.5
-12 -4 31 291.67 29.4
-12 4 31 260.37 30.4
-10 -4 31 24.7 19.6
-10 4 31 -8.8 18.9
-8 -4 31 40.4 18.8
-8 4 31 19.8 18.8
-6 -4 31 52.69 18.4
-6 4 31 35.4 18.4
-4 -4 31 6.2 16.5
4 -4 -31 10 18.2
-4 4 31 5.4 18.4
-2 -4 31 428.06 42.8
2 -4 -31 531.05 42.8
2 4 -31 529.45 42.7
0 -4 31 138.29 23.1
0 -4 -31 165.38 22.6
0 4 31 124.79 22.7
0 4 -31 172.78 22.7
2 -4 31 217.48 26.8
-2 -4 -31 258.67 26.7
-2 4 -31 306.67 31.1
-4 -4 -31 -3.7 15.8
-4 4 -31 -6.2 15.6
-6 -4 -31 161.58 21.4
-6 4 -31 199.08 23.1
-8 -4 -31 1970.8 122.89
-8 4 -31 2028.7 123.19
-10 -4 -31 -12.9 14.3
-10 4 -31 -12.5 15.3
-11 -5 31 119.19 22.1
-11 5 31 68.19 21.9
-9 -5 31 26.3 19.2
-9 5 31 24.7 19.1
-7 -5 31 136.79 23
-7 5 31 117.59 22.6
-5 -5 31 4 16.7
-5 5 31 7 17.8
3 -5 -31 863.71 61.59
-3 -5 31 824.62 61.29
-3 5 31 860.51 62.19
3 5 -31 903.21 61.99
-1 -5 31 235.48 27.2
1 -5 -31 347.17 32.5
1 5 -31 213.48 25.9
-1 5 31 241.08 27.2
1 -5 31 924.11 68.09
-1 -5 -31 1039.1 67.49
-1 5 -31 1093.89 67.69
1 5 31 899.01 68.49
-3 -5 -31 173.88 22.6
-3 5 -31 147.29 21.7
-5 -5 -31 599.84 47.4
-5 5 -31 676.33 47.6
-7 -5 -31 517.65 43.2
-7 5 -31 617.74 44
-9 -5 -31 1.5 14.7
-9 5 -31 12.1 15.6
-11 -5 -31 40.7 15.2
-11 5 -31 32.3 16.4
-12 6 31 85.69 22.4
-10 -6 31 367.56 38.1
-10 6 31 360.26 38.9
-8 -6 31 5.7 17.4
-8 6 31 26.2 19.1
-6 -6 31 14.3 17.8
-6 6 31 27.8 19
-4 -6 31 60.59 20.3
4 -6 -31 107.59 22.1
-4 6 31 113.49 22.2
-2 -6 31 22.4 17.1
2 -6 -31 26.3 18.3
2 6 -31 53.49 18.9
-2 6 31 17.7 19.2
0 -6 31 56.79 19.1
0 -6 -31 59.29 18.1
0 6 31 54.79 20.2
0 6 -31 53.79 17.7
2 -6 31 3.3 18.1
-2 -6 -31 -11.6 15.8
-2 6 -31 5.3 15
-4 -6 -31 1755.22 107.79
-4 6 -31 1687.63 107.69
-6 -6 -31 102.79 18.8
-6 6 -31 126.99 20.1
-8 -6 -31 8.5 15.1
-8 6 -31 36.8 16.1
-10 -6 -31 57.59 16.5
-10 6 -31 81.59 17.8
-11 -7 31 134.89 23.5
-11 7 31 118.09 24.9
-9 -7 31 17.6 18.4
-9 7 31 23 19.1
-7 -7 31 5.4 17.5
-7 7 31 21.3 19.5
-5 -7 31 23.1 18.5
-5 7 31 4.2 18.4
-3 -7 31 3575.24 230.98
3 -7 -31 4316.57 232.28
-3 7 31 3651.13 231.68
-1 -7 31 37.5 18.6
1 -7 -31 43.9 18.7
-1 7 31 21.2 19.4
1 7 -31 41.2 17.2
-1 -7 -31 334.37 34.4
1 -7 31 345.57 36.8
-1 7 -31 334.67 34.2
-3 -7 -31 19.1 16.8
-3 7 -31 5.6 15.7
-5 -7 -31 57.09 17.8
-5 7 -31 72.49 17.4
-7 -7 -31 43.6 16.8
-7 7 -31 53.59 17.6
-9 -7 -31 64.09 17.3
-9 7 -31 58.49 17.4
-11 7 -31 1014.6 67.19
-12 8 31 -8.7 19.9
-10 -8 31 27.3 18.8
-10 8 31 -1.7 19.7
-8 -8 31 40.6 19
-8 8 31 43.4 20.1
-6 -8 31 102.99 20.6
-6 8 31 31.9 19.6
-4 -8 31 1158.78 86.19
4 -8 -31 1476.25 88.49
-4 8 31 1359.56 88.09
2 -8 -31 1665.83 105.59
-2 -8 31 1582.34 104.99
-2 8 31 1570.34 105.99
2 8 -31 1796.52 105.39
0 -8 -31 5.3 16.7
0 -8 31 24.9 18
0 8 -31 -16.4 16.2
0 8 31 10.2 19.1
2 -8 31 67.99 19.9
-2 -8 -31 34.6 18.2
-2 8 -31 26.7 16.7
-4 -8 -31 1 16.4
-4 8 -31 6.2 15.8
-6 -8 -31 36.8 16.9
-6 8 -31 38.1 17
-8 -8 -31 9.1 14.9
-8 8 -31 15.7 16.1
-10 -8 -31 -15.5 13.9
-10 8 -31 1.1 15.5
-11 -9 31 -6 18.1
-11 9 31 -11.6 19.4
-9 -9 31 -5.5 17.6
-9 9 31 9.7 19.7
-7 -9 31 586.74 48.2
-7 9 31 566.94 48.8
-5 -9 31 388.16 39.1
-5 9 31 440.16 41.8
-3 -9 31 320.37 35.4
3 -9 -31 356.26 37.6
-3 9 31 331.17 33.9
1 -9 -31 81.19 19.8
-1 -9 31 83.49 20.1
1 9 -31 94.99 20.2
-1 9 31 81.09 21.3
-1 -9 -31 1073.49 75.69
1 -9 31 1165.48 77.39
-1 9 -31 1190.48 76.19
-3 -9 -31 -7.1 16
-3 9 -31 3.7 16.4
-5 -9 -31 39 16.7
-5 9 -31 11.8 16.6
-7 -9 -31 24.4 16.2
-7 9 -31 49.3 17.5
-9 -9 -31 16.7 15.1
-9 9 -31 13.3 16.4
-12 10 31 265.57 31.8
-10 -10 31 36.1 18.9
-10 10 31 23.7 20.5
-8 -10 31 -4.2 18.5
-8 10 31 -1.5 19.1
-6 -10 31 2117.09 129.19
-6 10 31 2017.1 130.49
-4 -10 31 17.7 17.8
-4 10 31 9.6 19.4
-2 -10 31 -8.8 17.2
2 -10 -31 27.8 18.7
-2 10 31 21 20.1
0 -10 -31 2228.88 136.29
0 -10 31 2057.39 136.19
0 10 -31 2296.27 136.19
-2 -10 -31 4.4 16.8
-2 10 -31 -16.1 16.2
-4 -10 -31 367.56 35.2
-4 10 -31 346.57 35
-6 -10 -31 138.09 20.9
-6 10 -31 109.19 20.8
-8 -10 -31 69.89 17.9
-8 10 -31 89.89 18.9
-10 -10 -31 50.09 16.1
-10 10 -31 59.89 17.9
-11 11 31 5 20.1
-9 -11 31 10.9 19.1
-9 11 31 41 20.4
-7 -11 31 192.58 25.8
-7 11 31 220.78 28.6
-5 -11 31 47.6 18.9
-5 11 31 43.2 21.9
3 -11 -31 779.62 54.99
-3 -11 31 638.44 52.69
-3 11 31 670.53 54.99
1 -11 -31 1.5 17.1
-1 -11 31 12.7 18.5
1 11 -31 17 18.2
1 -11 31 376.86 41.3
-1 -11 -31 432.76 39.5
-1 11 -31 491.35 40.6
-3 -11 -31 18.8 17.8
-3 11 -31 -1.6 16.6
-5 -11 -31 101.49 20.1
-5 11 -31 100.19 20.2
-7 -11 -31 6.6 15.9
-7 11 -31 -26.4 15.7
-9 -11 -31 10.3 15.2
-9 11 -31 9 16.5
-10 -12 31 54.99 21
-10 12 31 47.2 21.9
-8 -12 31 28.5 19.1
-8 12 31 26.2 20.7
-6 -12 31 79.29 20.2
-6 12 31 81.89 23.3
-4 -12 31 275.67 30
-4 12 31 346.67 34.4
2 -12 -31 1276.97 80.79
-2 -12 31 1113.89 79.69
0 -12 -31 68.89 19.4
0 -12 31 41.6 21.3
0 12 -31 68.29 19.9
-2 -12 -31 12.6 17.4
-2 12 -31 20.3 18.2
-4 -12 -31 62.39 18.4
-4 12 -31 72.29 18.6
-6 -12 -31 140.19 21
-6 12 -31 95.19 20.4
-8 -12 -31 25.2 16.1
-8 12 -31 20.9 17.3
-10 12 -31 13 17.3
-11 13 31 -18.4 20.5
-9 -13 31 61.39 21.1
-9 13 31 49.9 22.7
-7 -13 31 66.99 20.5
-7 13 31 84.79 23.4
-5 -13 31 -0.5 18.3
-5 13 31 18.4 20.6
3 -13 -31 451.15 40.1
-3 -13 31 371.56 37.8
-3 13 31 246.38 33.9
1 -13 -31 15 18.4
-1 -13 31 -21.5 19.1
-1 -13 -31 103.29 21.5
-1 13 -31 154.98 23.6
-3 -13 -31 69.19 19.5
-3 13 -31 45.6 19.7
-5 -13 -31 298.57 31.4
-5 13 -31 199.18 26.3
-7 -13 -31 50.89 17.7
-7 13 -31 47.3 18.7
-9 -13 -31 53.09 17
-9 13 -31 38.4 18.3
-10 -14 31 141.79 26.3
-10 14 31 135.59 26.1
-8 -14 31 -16 17.8
-8 14 31 -4.7 20.6
-6 -14 31 14.6 17.9
-6 14 31 9.2 20.9
-4 -14 31 157.58 24.1
-4 14 31 147.29 26.1
-2 -14 31 527.35 45.7
2 -14 -31 477.55 45.8
0 -14 -31 23.3 18.7
0 -14 31 -2.1 20.4
-2 -14 -31 4.8 17.7
-2 14 -31 15.2 18.4
-4 -14 -31 471.85 41.7
-4 14 -31 472.95 42.1
-6 -14 -31 102.39 20.3
-6 14 -31 92.29 21.2
-8 -14 -31 62.09 18
-8 14 -31 49.2 18.7
-10 14 -31 29.7 18
-11 15 31 -13.2 21.4
-9 -15 31 26.5 19.8
-9 15 31 23.4 21.9
-7 -15 31 29.4 18.9
-7 15 31 37.7 22
-5 -15 31 3.6 18.4
-5 15 31 -5.1 20.4
-3 -15 31 1241.98 83.59
-1 -15 31 7.5 20.2
1 -15 -31 20.5 20.2
-1 -15 -31 381.76 39
-3 -15 -31 81.29 19.8
-3 15 -31 70.89 20.5
-5 -15 -31 31 18.7
-5 15 -31 62.29 19.6
-7 -15 -31 678.43 51.39
-7 15 -31 709.23 52.69
-9 15 -31 37.5 18.8
-10 16 31 54.89 24
-8 -16 31 -1.6 19.5
-8 16 31 6.6 21.6
-6 -16 31 52.29 19.9
-6 16 31 62.79 23.4
-4 -16 31 9 20.1
-2 -16 31 87.89 23.5
2 -16 -31 126.69 24.2
0 -16 31 33 21.6
0 -16 -31 7.3 19.1
-2 -16 -31 56.39 19.7
-2 16 -31 37.8 20.5
-4 -16 -31 19.9 18.1
-4 16 -31 -4.9 19.1
-6 -16 -31 184.48 24.7
-6 16 -31 220.48 26.6
-8 -16 -31 891.41 70.59
-8 16 -31 954.1 65.49
-11 17 31 23.6 23.2
-9 17 31 -2.4 21.9
-7 -17 31 139.99 23.4
-7 17 31 100.89 26.1
-5 -17 31 196.98 26.6
-3 -17 31 18.9 20.9
-1 -17 31 67.89 23.5
1 -17 -31 91.49 23
-1 -17 -31 -1 17.9
-3 -17 -31 1.5 17.9
-3 17 -31 7.5 19.1
-5 -17 -31 34.5 18.8
-5 17 -31 41.6 20.1
-7 -17 -31 244.18 26.9
-7 17 -31 230.48 27.7
-9 17 -31 -9 17.9
-10 18 31 135.69 28.4
-8 -18 31 31.2 20.1
-8 18 31 39.5 24.5
-6 -18 31 258.97 29.9
-4 -18 31 -2.5 20.3
-2 -18 31 3.8 20.8
0 -18 -31 175.18 26.3
-2 -18 -31 -22.1 17.8
-4 -18 -31 539.75 47.1
-4 18 -31 607.94 49
-6 -18 -31 37.9 18.8
-6 18 -31 33.2 20.2
-8 18 -31 205.28 26.7
-9 19 31 8 23.5
-7 -19 31 19.5 20.2
-5 -19 31 65.59 21.9
-3 -19 31 -9.1 19.2
1 -19 -31 11.5 20.9
-1 -19 31 -2.1 23.2
-1 -19 -31 110.09 23.4
-3 -19 -31 19.3 18.8
-5 -19 -31 10.8 18.3
-5 19 -31 33.1 21.1
-7 19 -31 181.38 26.5
-9 19 -31 31.7 21.1
-10 20 31 143.09 29.2
-6 -20 31 32.6 21.1
-4 -20 31 20.2 21
-2 -20 31 15.2 21.3
0 -20 -31 -9.2 20
-2 -20 -31 35.8 20.7
-4 -20 -31 593.74 49.3
-6 -20 -31 35 19.9
-6 20 -31 27.1 21.3
-8 20 -31 -3.4 19.9
-7 -21 31 21.8 20.7
-5 -21 31 37.2 21.7
-3 -21 31 23.4 22.5
1 -21 -31 -8 25.9
-1 -21 -31 31.6 21.1
-3 -21 -31 276.17 31.4
-5 -21 -31 571.44 48.2
-7 21 -31 11.8 21.1
-6 -22 31 143.09 25.4
-4 -22 31 25.9 22.5
0 -22 -31 94.79 24.6
-2 -22 -31 1.1 19.9
-4 -22 -31 441.56 42.3
-8 22 -31 169.88 27.5
-5 -23 31 20 22.3
-3 -23 31 70.69 24.5
-1 -23 -31 138.19 26.2
-3 -23 -31 0.2 19.3
-4 -24 31 -15.3 21.9
0 -24 -31 65.29 29.8
-2 -24 -31 31.5 21.3
-5 -25 31 66.99 35.4
-1 -25 -31 19.8 22
-4 -26 31 1.7 23.6
-2 -26 -31 -7.4 21.1
-12 0 32 -7.8 18.6
-10 0 32 436.96 41.9
-8 0 32 164.38 23.9
-6 0 32 891.71 63.69
-4 0 32 54.39 20.2
-2 0 32 744.23 58.79
2 0 -32 860.51 58.59
0 0 -32 6.8 16.4
0 0 32 -9.1 17.6
2 0 32 178.28 37.6
-2 0 -32 174.58 23.7
-4 0 -32 4606.44 274.67
-6 0 -32 82.79 18.1
-8 0 -32 30 16.3
-10 0 -32 253.27 25.6
-11 -1 32 47.6 20.2
-11 1 32 64.99 21.1
-9 -1 32 68.19 19.8
-9 1 32 63.89 20.6
-7 -1 32 12.5 17.7
-7 1 32 27.3 18.4
-5 -1 32 533.65 46
-5 1 32 552.64 45.6
-3 -1 32 105.19 21.3
3 -1 -32 119.89 22
-3 1 32 74.59 21
3 1 -32 96.29 21.4
-1 -1 32 213.28 26.8
1 -1 -32 270.47 27.5
-1 1 32 235.58 26.8
1 1 -32 226.38 25.7
1 -1 32 55.19 20.8
-1 -1 -32 101.19 19.6
-1 1 -32 70.89 18.8
1 1 32 98.79 20.8
-3 -1 -32 1136.09 73.49
-3 1 -32 1078.39 72.99
-5 -1 -32 277.47 31.5
-5 1 -32 308.47 31.2
-7 -1 -32 289.37 31.4
-7 1 -32 300.37 31.5
-9 -1 -32 10.2 15.5
-9 1 -32 0.3 15.2
-11 -1 -32 75.99 17.4
-11 1 -32 90.49 17.8
-12 -2 32 36.5 20.1
-12 2 32 83.09 21.7
-10 -2 32 61.59 20.4
-10 2 32 62.89 20.9
-8 -2 32 60.49 20.1
-8 2 32 24.3 19.1
-6 -2 32 157.68 23.7
-6 2 32 162.98 24
-4 -2 32 70.59 20.3
4 -2 -32 94.59 25.5
-4 2 32 76.89 21
2 -2 -32 20.2 18.1
-2 -2 32 -5.6 17.7
-2 2 32 13 17.9
2 2 -32 31.2 18.7
0 -2 32 723.53 54.09
0 -2 -32 744.23 53.09
0 2 32 683.73 53.49
0 2 -32 677.83 52.19
2 -2 32 4.6 19.5
-2 -2 -32 -2.6 16.5
-2 2 -32 -0.9 15.7
-4 -2 -32 9.1 16.4
-4 2 -32 15.3 16.2
-6 -2 -32 648.54 47.5
-6 2 -32 627.84 47.9
-8 -2 -32 458.45 38.9
-8 2 -32 489.95 39.3
-10 -2 -32 98.89 18.5
-10 2 -32 93.19 18.5
-11 -3 32 2.5 18.5
-11 3 32 -11.4 18.9
-9 -3 32 8.9 18.5
-9 3 32 24.5 19.4
-7 -3 32 339.47 37.5
-7 3 32 369.26 37.9
-5 -3 32 435.56 41.4
-5 3 32 498.75 42.3
3 -3 -32 53.39 20
-3 -3 32 52.29 19.7
3 3 -32 70.59 20.1
-3 3 32 59.79 20.5
-1 -3 32 78.59 20.6
1 -3 -32 52.19 19
1 3 -32 54.89 19
-1 3 32 64.79 21.1
-1 -3 -32 214.38 24.7
1 -3 32 242.88 27.2
1 3 32 179.08 25.6
-1 3 -32 189.88 24.3
-3 -3 -32 51.79 17.7
-3 3 -32 37.9 17
-5 -3 -32 -17.1 15.5
-5 3 -32 -3.4 15.6
-7 -3 -32 1431.46 89.09
-7 3 -32 1361.06 89.09
-9 -3 -32 20.4 15.5
-9 3 -32 5.5 15.8
-11 -3 -32 51.39 16.6
-11 3 -32 50.29 16.7
-12 4 32 276.97 31.3
-10 -4 32 12.1 19.1
-10 4 32 -1.4 19.3
-8 -4 32 151.68 24.2
-8 4 32 167.18 25
-6 -4 32 317.17 34.5
-6 4 32 293.67 31.4
4 -4 -32 -4.9 19.2
-4 -4 32 -17.5 16.6
-4 4 32 29 18.8
-2 -4 32 19.7 18.8
2 -4 -32 14.5 18.6
2 4 -32 31 18.4
-2 4 32 15.9 18.1
0 -4 -32 433.26 39.5
0 -4 32 429.76 41.7
0 4 -32 508.85 39.8
0 4 32 360.26 40.4
2 -4 32 255.07 32.5
-2 -4 -32 303.77 33
-2 4 -32 301.47 31.8
-4 -4 -32 32.6 16.9
-4 4 -32 20.4 16.7
-6 -4 -32 15.9 15.8
-6 4 -32 19 16.7
-8 -4 -32 28.7 16.1
-8 4 -32 21.1 16.6
-10 -4 -32 -0.5 15.3
-10 4 -32 -12.6 15.2
-11 -5 32 183.58 25.4
-11 5 32 190.38 26.9
-9 -5 32 -11.8 18.4
-9 5 32 9.2 19.2
-7 -5 32 0.2 17.8
-7 5 32 -0.8 17.9
-5 -5 32 312.57 34.5
-5 5 32 316.17 32.2
-3 -5 32 929.41 71.79
3 -5 -32 1139.79 73.09
-3 5 32 1021.1 73.19
3 5 -32 1148.59 72.99
-1 -5 32 300.97 31.1
1 -5 -32 316.97 33.6
1 5 -32 383.86 35
-1 5 32 204.78 28.3
-1 -5 -32 585.84 45.6
1 -5 32 555.74 47.4
-1 5 -32 568.64 45.7
-3 -5 -32 150.78 21.6
-3 5 -32 109.99 20.2
-5 -5 -32 30.7 17.1
-5 5 -32 56.09 18.3
-7 -5 -32 566.74 44.1
-7 5 -32 567.74 44.7
-9 -5 -32 -2.9 15.1
-9 5 -32 -8.2 15.6
-11 5 -32 413.26 36.7
-12 6 32 35.7 21.4
-10 -6 32 21.5 19.6
-10 6 32 17.2 19.8
-8 -6 32 10.1 18.5
-8 6 32 19.7 19.1
-6 -6 32 227.28 26.1
-6 6 32 119.69 23.3
-4 -6 32 1089.49 73.79
-4 6 32 1065.19 74.19
-2 -6 32 528.25 45.2
2 -6 -32 499.15 44.6
-2 6 32 523.85 45.6
2 6 -32 508.25 44.1
0 -6 32 220.28 26.5
0 -6 -32 142.89 23.8
0 6 32 230.78 28.1
0 6 -32 216.38 25.8
-2 -6 -32 11.2 17
-2 6 -32 5.8 15.5
-4 -6 -32 418.36 38.1
-4 6 -32 451.15 38.3
-6 -6 -32 69.39 17.9
-6 6 -32 82.39 18.5
-8 -6 -32 86.99 18.2
-8 6 -32 98.99 18.8
-10 -6 -32 262.37 29.8
-10 6 -32 292.17 30.5
-11 -7 32 17.7 19.6
-11 7 32 11.6 21.3
-9 -7 32 5.3 18.1
-9 7 32 -7.4 18.9
-7 -7 32 125.09 22.5
-7 7 32 94.19 22.3
-5 -7 32 33.6 19.1
-5 7 32 1.3 19.5
3 -7 -32 1267.77 78.19
-3 -7 32 1064.69 76.59
-3 7 32 1090.69 78.29
-1 -7 32 -8.9 18.4
1 -7 -32 2 18.3
1 7 -32 35 18.8
-1 7 32 -0.2 19.1
1 -7 32 -2.4 18.3
-1 -7 -32 34.5 17.6
-1 7 -32 16 16.9
-3 -7 -32 314.47 32.3
-3 7 -32 248.28 27.2
-5 -7 -32 768.52 54.99
-5 7 -32 758.82 54.69
-7 -7 -32 43.5 17.5
-7 7 -32 48 17.3
-9 -7 -32 -13.5 15.6
-9 7 -32 0.3 16.2
-12 8 32 61.09 22.2
-10 -8 32 38.2 19.5
-10 8 32 56.19 21.5
-8 -8 32 -9.7 17.3
-8 8 32 -3.8 19.6
-6 -8 32 415.46 40.9
-6 8 32 407.06 41.1
-4 -8 32 53.69 19.9
-4 8 32 30.9 20.4
-2 -8 32 2.5 17.4
2 -8 -32 35.4 19.3
-2 8 32 27.5 19.6
2 8 -32 11.3 17.3
0 -8 32 638.84 53.29
0 -8 -32 736.43 52.39
0 8 -32 680.03 51.69
-2 -8 -32 44.7 18.8
-2 8 -32 44.4 17.5
-4 -8 -32 324.27 32.9
-4 8 -32 250.07 27.8
-6 -8 -32 18.3 17
-6 8 -32 0.8 16
-8 -8 -32 26.8 16.1
-8 8 -32 28.2 16.8
-10 -8 -32 162.18 21.3
-10 8 -32 160.28 22
-11 -9 32 22.1 19
-11 9 32 -14.4 20
-9 -9 32 28 19
-9 9 32 42.7 21.3
-7 -9 32 271.27 29.6
-7 9 32 235.18 30
-5 -9 32 -3.1 17.3
-5 9 32 14.4 19.6
-3 -9 32 514.75 45.8
3 -9 -32 608.54 47.7
-3 9 32 514.45 47.9
-1 -9 32 2 17.9
1 -9 -32 32.5 18.4
-1 9 32 -17.6 19.1
1 9 -32 4.6 17.8
-1 -9 -32 24.9 17.5
1 -9 32 30.2 19.6
-1 9 -32 -23.9 16.5
-3 -9 -32 1.8 16.3
-3 9 -32 -16.3 15.2
-5 -9 -32 71.19 19
-5 9 -32 57.79 18
-7 -9 -32 -9.5 15.4
-7 9 -32 9.3 16.5
-9 -9 -32 -4.8 15
-9 9 -32 7.7 16.3
-10 -10 32 19.2 19.1
-10 10 32 8.8 20.8
-8 -10 32 37.8 19.5
-8 10 32 23.3 20.4
-6 -10 32 110.69 22.8
-6 10 32 192.98 26.4
-4 -10 32 7.2 18.3
-4 10 32 12.7 20
2 -10 -32 -5.5 18.5
-2 -10 32 2.4 17.8
-2 10 32 11.2 20.4
0 -10 32 254.77 30.7
0 -10 -32 393.36 36.5
0 10 -32 361.86 36
-2 -10 -32 2.8 17.2
-2 10 -32 -0.2 17.2
-4 -10 -32 -3.1 16.6
-4 10 -32 7.1 16.7
-6 -10 -32 14.4 16
-6 10 -32 0.7 16.7
-8 -10 -32 15.1 15.8
-8 10 -32 2.3 16.2
-10 10 -32 -12.1 16.2
-11 11 32 1.8 19.8
-9 -11 32 19.7 19.8
-9 11 32 25.2 21
-7 -11 32 846.92 61.29
-7 11 32 834.42 63.49
-5 -11 32 128.19 22.9
-5 11 32 146.99 26.4
3 -11 -32 122.49 24.3
-3 -11 32 153.28 24.1
-3 11 32 124.89 25.1
-1 -11 32 155.08 24.9
1 -11 -32 159.48 24.4
-1 -11 -32 -14 17.1
1 -11 32 -32.2 24.6
-1 11 -32 5.1 18
-3 -11 -32 -2.9 16.5
-3 11 -32 -9.2 17.1
-5 -11 -32 9.8 16.8
-5 11 -32 -8.7 16.3
-7 -11 -32 40.5 17.3
-7 11 -32 47.4 18.4
-9 -11 -32 57.69 17.2
-9 11 -32 74.99 18.7
-10 -12 32 2.1 19.2
-10 12 32 -10.9 20.1
-8 -12 32 -3.4 19.1
-8 12 32 -3.7 20.8
-6 -12 32 487.15 44.3
-6 12 32 536.95 47.9
-4 -12 32 96.99 21.3
-4 12 32 131.99 25.3
-2 -12 32 92.89 21.5
2 -12 -32 100.69 22.6
0 -12 32 125.99 24.1
0 -12 -32 166.58 23.9
0 12 -32 133.59 23.4
-2 -12 -32 138.39 22.6
-2 12 -32 196.88 25
-4 -12 -32 822.32 59.69
-4 12 -32 853.71 60.29
-6 -12 -32 35.8 17.7
-6 12 -32 45.2 18.3
-8 -12 -32 -9 16.1
-8 12 -32 4.9 17.3
-10 12 -32 9.3 17.1
-11 13 32 35.1 22
-9 -13 32 9.9 19.6
-9 13 32 4 20.6
-7 -13 32 12.2 19.1
-7 13 32 7.6 21.3
-5 -13 32 -21.4 18.1
-5 13 32 -7.8 20.8
-3 -13 32 1923.11 121.59
1 -13 -32 15.1 18.9
-1 -13 32 7.9 19.3
-1 -13 -32 62.79 19.7
-1 13 -32 29.9 19.2
-3 -13 -32 32.1 18.2
-3 13 -32 71.69 20.1
-5 -13 -32 695.43 54.59
-5 13 -32 808.42 56.39
-7 -13 -32 11.3 16.8
-7 13 -32 15.7 17.2
-9 13 -32 14.1 17.9
-10 14 32 97.49 25.2
-8 -14 32 -10.6 18.7
-8 14 32 13.3 21.1
-6 -14 32 34.8 19.1
-6 14 32 5.5 20.9
-4 -14 32 518.85 45.8
2 -14 -32 90.99 23.3
-2 -14 32 86.99 22.7
0 -14 -32 8.1 19
0 -14 32 16.4 21
-2 -14 -32 37.3 19.1
-2 14 -32 52.89 20.6
-4 -14 -32 44.8 18.6
-4 14 -32 18.9 18.9
-6 -14 -32 -7.4 17
-6 14 -32 -11 17.4
-8 -14 -32 45.4 17.8
-8 14 -32 32.4 18.6
-11 15 32 50.69 23.8
-9 -15 32 -10.4 18.5
-9 15 32 -4.4 21.6
-7 -15 32 52.89 20.2
-7 15 32 58.79 23.8
-5 -15 32 35.2 19.8
-3 -15 32 25 20.9
1 -15 -32 292.37 30.6
-1 -15 32 198.68 28.9
-1 -15 -32 -6.8 18.8
-3 -15 -32 457.35 42.9
-3 15 -32 503.75 44.3
-5 -15 -32 47.5 19.6
-5 15 -32 16.8 19.2
-7 -15 -32 181.58 23.1
-7 15 -32 92.59 22.4
-9 15 -32 -17.5 17.1
-10 16 32 22 23.2
-8 -16 32 42.8 20.7
-8 16 32 75.69 24.8
-6 -16 32 50.29 20.7
-4 -16 32 3.8 19.8
2 -16 -32 127.79 25
-2 -16 32 86.69 23.9
0 -16 -32 293.87 32.5
-2 -16 -32 69.29 21.1
-4 -16 -32 21.6 18.6
-4 16 -32 -4.9 19.1
-6 -16 -32 -13.3 17.1
-6 16 -32 19.7 19.1
-8 16 -32 26.7 18.7
-9 17 32 37.7 24.5
-7 -17 32 39.7 20.5
-5 -17 32 565.54 48.7
-3 -17 32 43.4 21.3
-1 -17 32 9.8 20.8
1 -17 -32 -12.5 19.5
-1 -17 -32 241.08 29.2
-3 -17 -32 -10 17.8
-3 17 -32 -11.3 26.3
-5 -17 -32 1 17.9
-5 17 -32 2.8 19.6
-7 -17 -32 889.11 63.89
-7 17 -32 930.11 65.49
-9 17 -32 14.5 19.3
-10 18 32 -10.5 22.9
-8 -18 32 34.8 19.8
-6 -18 32 290.97 31.9
-4 -18 32 58.19 22.4
-2 -18 32 11.5 21.5
0 -18 -32 149.39 26
-2 -18 -32 22.9 19.2
-4 -18 -32 255.97 28.8
-4 18 -32 236.58 29.5
-6 -18 -32 91.39 21.3
-6 18 -32 120.49 23.3
-8 18 -32 145.89 24.2
-7 -19 32 13.2 20.2
-5 -19 32 81.89 23.3
-3 -19 32 26.1 20.9
1 -19 -32 50.89 22.2
-1 -19 -32 -20 19.1
-3 -19 -32 411.26 41
-5 -19 -32 392.36 40.4
-5 19 -32 455.85 43.2
-7 19 -32 5.9 19.8
-6 -20 32 88.99 23.5
-4 -20 32 8.3 20.6
-2 -20 32 122.99 27.1
0 -20 -32 17.9 20.8
-2 -20 -32 18.2 19.9
-4 -20 -32 862.61 62.89
-6 20 -32 20.6 21.2
-8 20 -32 18 21.2
-5 -21 32 93.99 23.9
-3 -21 32 15.7 21.3
-1 -21 -32 52.99 22
-3 -21 -32 24.2 20.7
-5 -21 -32 23.7 18.8
-7 21 -32 106.79 24.6
-6 -22 32 9.1 21.3
-4 -22 32 56.09 22.6
0 -22 -32 155.48 27.3
-2 -22 -32 45.8 21.6
-4 -22 -32 115.99 23.4
-8 22 -32 28.9 23.1
-5 -23 32 33.2 21.8
-3 -23 32 -6.8 22.9
-1 -23 -32 4 20.8
-3 -23 -32 27 20.8
-4 -24 32 12.9 24.1
-2 -24 -32 52.39 23.4
-1 -25 -32 60.19 24.3
-12 0 33 1.9 24.9
-10 0 33 -3.5 19.2
-8 0 33 -4.6 17.8
-6 0 33 5.1 18
-4 0 33 -6.4 17.4
2 0 -33 -8.6 17.8
-2 0 33 3.9 18.1
0 0 33 -1.9 18.6
0 0 -33 5.4 17.2
-2 0 -33 -24 16.1
-4 0 -33 20.9 17.2
-6 0 -33 20.6 16.9
-8 0 -33 -10.8 15.5
-10 0 -33 3.7 15.4
-11 -1 33 41.3 20.7
-11 1 33 54.69 21.1
-9 -1 33 188.88 26.3
-9 1 33 247.08 28.9
-7 -1 33 29.6 19.9
-7 1 33 -2.8 18.5
-5 -1 33 274.47 30.4
3 -1 -33 658.63 50.39
-3 -1 33 546.45 49.9
3 1 -33 682.03 50.29
-3 1 33 607.54 50.09
-1 -1 33 88.69 21.8
1 -1 -33 114.49 21.2
-1 1 33 128.29 23.5
1 1 -33 98.49 20.9
-1 -1 -33 57.09 18.5
1 -1 33 28.4 20.7
1 1 33 28.5 20.2
-1 1 -33 62.99 18.3
-3 -1 -33 820.32 58.39
-3 1 -33 825.12 58.19
-5 -1 -33 -0.3 16.2
-5 1 -33 4.8 16.1
-7 -1 -33 30.1 16.4
-7 1 -33 4.8 16.2
-9 -1 -33 144.69 21.6
-9 1 -33 213.48 23
-12 2 33 38.5 21.4
-10 -2 33 26.5 19.8
-10 2 33 51.29 21.3
-8 -2 33 92.59 21.3
-8 2 33 66.29 20.7
-6 -2 33 170.48 25.3
-6 2 33 157.18 24.1
-4 -2 33 -6 18.2
-4 2 33 5.6 18.6
-2 -2 33 763.52 58.69
2 -2 -33 891.21 59.59
2 2 -33 877.61 59.39
-2 2 33 683.43 58.49
0 -2 33 53.59 20
0 -2 -33 16.6 17.4
0 2 -33 -10.8 17.1
0 2 33 24.8 19.3
-2 -2 -33 353.26 36.3
-2 2 -33 398.26 36.2
-4 -2 -33 405.66 37.1
-4 2 -33 387.46 36.3
-6 -2 -33 109.79 20.4
-6 2 -33 142.79 20.9
-8 -2 -33 104.99 19.1
-8 2 -33 100.19 19.1
-10 -2 -33 19.6 16.1
-10 2 -33 1.1 15
-11 -3 33 -1 18.7
-11 3 33 19.4 19.9
-9 -3 33 203.18 27.8
-9 3 33 257.97 29.6
-7 -3 33 82.39 21.8
-7 3 33 114.49 23.1
-5 -3 33 1613.74 102.39
-5 3 33 1584.14 102.89
-3 -3 33 162.58 24
3 -3 -33 101.69 22.9
-3 3 33 115.49 23.4
3 3 -33 136.39 23.5
1 -3 -33 2.6 17.7
-1 -3 33 21.4 19.3
-1 3 33 18.7 19.4
1 3 -33 48.3 19
-1 -3 -33 946.61 65.89
1 -3 33 970 67.99
-1 3 -33 949.01 65.69
-3 -3 -33 -1.9 17.2
-3 3 -33 23.9 16.8
-5 -3 -33 -12 16.2
-5 3 -33 7.8 16.5
-7 -3 -33 218.38 25.1
-7 3 -33 224.78 25.4
-9 -3 -33 126.49 19.7
-9 3 -33 106.39 19.7
-12 4 33 9.7 18.3
-10 -4 33 1.5 19.3
-10 4 33 32.6 20.8
-8 -4 33 115.99 22.8
-8 4 33 91.19 23.1
-6 -4 33 1626.14 98.69
-6 4 33 1424.96 98.99
-4 -4 33 -2.5 17
-4 4 33 3.4 18.6
-2 -4 33 3.7 18.4
2 -4 -33 35.2 19.6
-2 4 33 15.1 18.3
2 4 -33 21.4 18.5
0 -4 33 212.28 26.9
0 -4 -33 243.28 27.6
0 4 33 216.38 27.2
0 4 -33 232.28 26.4
-2 -4 -33 -6.8 16.9
-2 4 -33 6.3 16.6
-4 -4 -33 291.67 32.8
-4 4 -33 294.67 32.6
-6 -4 -33 155.28 21.5
-6 4 -33 120.69 21.3
-8 -4 -33 43 17.2
-8 4 -33 40.4 17.3
-10 -4 -33 29.2 16.3
-10 4 -33 18.5 16.4
-11 -5 33 1.6 19.4
-11 5 33 12.4 20.2
-9 -5 33 73.89 21.7
-9 5 33 50.29 20.7
-7 -5 33 36.6 18.6
-7 5 33 -7.3 19.2
-5 -5 33 188.88 24.7
-5 5 33 200.58 26.6
3 -5 -33 303.47 31.7
-3 -5 33 306.87 31.9
-3 5 33 291.97 31.8
1 -5 -33 93.59 20.7
-1 -5 33 88.29 21.9
-1 5 33 84.09 21
1 5 -33 74.69 20
-1 -5 -33 71.89 20.2
1 -5 33 70.09 21.6
-1 5 -33 66.79 19.6
-3 -5 -33 452.95 39
-3 5 -33 404.86 38.2
-5 -5 -33 471.75 40.6
-5 5 -33 472.05 40.4
-7 -5 -33 80.69 18.7
-7 5 -33 76.89 18.8
-9 -5 -33 42.1 17.1
-9 5 -33 63.49 18
-12 6 33 43.4 30.5
-10 -6 33 -7.4 19.4
-10 6 33 -7.4 19.2
-8 -6 33 119.29 23.2
-8 6 33 142.39 24.5
-6 -6 33 -2.1 17.7
-6 6 33 -14.7 19
-4 -6 33 -1.2 18.4
-4 6 33 10 19.2
2 -6 -33 340.07 36.1
-2 -6 33 265.07 30.1
2 6 -33 356.66 35.6
-2 6 33 246.28 30.4
0 -6 -33 7.8 17.5
0 -6 33 16.6 18.1
0 6 -33 -27.1 17.1
-2 -6 -33 58.29 18.9
-2 6 -33 61.69 19.5
-4 -6 -33 175.38 23.7
-4 6 -33 205.48 24.2
-6 -6 -33 35.7 16.9
-6 6 -33 19 17.1
-8 -6 -33 -9 15.4
-8 6 -33 17.4 16.4
-10 -6 -33 95.29 18.6
-10 6 -33 106.89 19.8
-11 -7 33 96.59 22.4
-11 7 33 36.7 22
-9 -7 33 195.08 25.9
-9 7 33 182.68 27.2
-7 -7 33 54.69 20.1
-7 7 33 40.9 20.5
-5 -7 33 -0.4 18.9
-5 7 33 -2.8 19.1
3 -7 -33 124.59 23.4
-3 -7 33 110.39 23.1
-3 7 33 127.89 23.3
1 -7 -33 22.1 19.2
-1 -7 33 32.2 19.3
1 7 -33 26.4 18.9
-1 7 33 38.1 19.9
1 -7 33 -3.2 18.8
-1 -7 -33 17.7 17.5
-1 7 -33 -12.3 15.8
-3 -7 -33 15.6 16.7
-3 7 -33 12 16.3
-5 -7 -33 1375.16 87.09
-5 7 -33 1314.37 86.79
-7 -7 -33 5.6 16.6
-7 7 -33 0.5 16.3
-9 -7 -33 3.7 15.7
-9 7 -33 4.7 16.3
-10 -8 33 24.4 19.1
-10 8 33 16.2 20.3
-8 -8 33 -10.7 17.4
-8 8 33 1.7 19.9
-6 -8 33 42.4 20.6
-6 8 33 16.6 20.8
-4 -8 33 549.25 47.3
-4 8 33 572.94 48.8
-2 -8 33 7.5 18.8
2 -8 -33 -7 17.7
-2 8 33 -3.7 19.7
0 -8 -33 18.1 17.9
0 -8 33 -1.7 19
0 8 -33 21.6 17.9
-2 -8 -33 -6.4 17.6
-2 8 -33 -1.3 16.8
-4 -8 -33 888.41 63.39
-4 8 -33 923.81 63.09
-6 -8 -33 237.98 27.5
-6 8 -33 301.17 32.2
-8 -8 -33 -2.6 15.5
-8 8 -33 4.4 16.4
-10 8 -33 332.27 33.9
-11 9 33 27.1 21.2
-9 -9 33 86.49 21.6
-9 9 33 86.89 23.7
-7 -9 33 172.58 26.3
-7 9 33 185.28 27.5
-5 -9 33 24.5 20.1
-5 9 33 42.5 20.5
3 -9 -33 49.9 21.1
-3 -9 33 30.4 19.7
-3 9 33 55.69 22
-1 -9 33 194.48 26.1
1 -9 -33 219.78 26.9
1 9 -33 188.28 25.4
-1 -9 -33 745.73 55.29
-3 -9 -33 21.7 17.7
-3 9 -33 4.3 16.9
-5 -9 -33 171.38 23.5
-5 9 -33 215.78 24.6
-7 -9 -33 19.3 16.7
-7 9 -33 13.3 16.9
-9 -9 -33 95.79 19.1
-9 9 -33 127.39 20.3
-10 -10 33 2 19.1
-10 10 33 7.4 21.2
-8 -10 33 21.5 20.1
-8 10 33 -7.1 20.6
-6 -10 33 173.48 26.4
-6 10 33 165.48 26.2
-4 -10 33 -14.7 17.6
-4 10 33 1.6 20.3
-2 -10 33 4.4 19
2 -10 -33 13.1 19.6
0 -10 33 17.4 18.8
0 -10 -33 25 18.4
0 10 -33 14 18.6
-2 -10 -33 1209.98 81.99
-2 10 -33 1282.37 82.79
-4 -10 -33 38.3 17.8
-4 10 -33 47.9 18.1
-6 -10 -33 9.3 16.7
-6 10 -33 21.6 17.5
-8 -10 -33 184.88 24.3
-8 10 -33 255.47 26
-10 10 -33 -3.2 16.6
-11 11 33 -11.9 20.3
-9 -11 33 11.6 19.9
-9 11 33 32.9 21.6
-7 -11 33 57.39 20.4
-7 11 33 86.99 24.3
-5 -11 33 15.9 19
-5 11 33 22.4 21.5
-3 -11 33 29.3 19.6
-3 11 33 43.3 22.6
-1 -11 33 19.4 20.3
1 -11 -33 20.9 19.3
-1 -11 -33 370.56 39
-1 11 -33 412.96 39.5
-3 -11 -33 21.4 18.1
-3 11 -33 41.5 19.1
-5 -11 -33 341.97 36.2
-5 11 -33 397.86 36.8
-7 -11 -33 15.2 16.5
-7 11 -33 -0.2 17
-9 -11 -33 81.39 18.5
-9 11 -33 98.39 20.3
-10 -12 33 5 18.3
-10 12 33 -9.2 20.3
-8 -12 33 3.6 19
-8 12 33 -7.5 20.8
-6 -12 33 -5.9 18.2
-6 12 33 13.2 21.6
-4 -12 33 133.59 23.8
-4 12 33 201.98 28.8
2 -12 -33 98.69 23
-2 -12 33 64.39 21.2
0 -12 -33 -34.2 17.6
0 -12 33 -16.8 19.3
-2 -12 -33 17.8 18
-2 12 -33 24.5 19.7
-4 -12 -33 250.07 28.6
-4 12 -33 327.27 34.8
-6 -12 -33 210.18 26.3
-6 12 -33 236.68 27
-8 -12 -33 23.8 17.1
-8 12 -33 13.8 17.8
-11 13 33 2.3 21.5
-9 -13 33 178.48 25.7
-9 13 33 126.19 26.6
-7 -13 33 29.6 19.1
-7 13 33 9.1 21.6
-5 -13 33 -6.7 18.3
-5 13 33 6.9 21.7
-3 -13 33 8.7 19.6
-1 -13 33 78.39 23.4
1 -13 -33 127.59 23.6
-1 -13 -33 187.68 25.9
-1 13 -33 169.18 25.1
-3 -13 -33 93.19 21.1
-3 13 -33 106.69 22.5
-5 -13 -33 106.59 21.3
-5 13 -33 103.39 21.9
-7 -13 -33 25.1 17.7
-7 13 -33 25.6 18.5
-9 13 -33 88.39 20.4
-10 14 33 39.8 23
-8 -14 33 94.79 21.4
-8 14 33 39.2 23
-6 -14 33 32.8 20
-6 14 33 14 22.1
-4 -14 33 94.19 23.2
-2 -14 33 84.99 23.9
2 -14 -33 99.29 24
0 -14 -33 56.39 20.6
-2 -14 -33 9.5 18.9
-2 14 -33 12.8 20
-4 -14 -33 562.74 47.2
-4 14 -33 575.34 48.5
-6 -14 -33 34.8 18.6
-6 14 -33 49.8 20.1
-8 -14 -33 35.1 18.5
-8 14 -33 37.1 19.5
-11 15 33 3.3 24.5
-9 -15 33 22 17.7
-9 15 33 4.8 22.4
-7 -15 33 11.9 19.8
-7 15 33 7.5 21.5
-5 -15 33 148.09 25.1
-3 -15 33 120.49 24.6
1 -15 -33 -9.4 19.9
-1 -15 33 2.7 21
-1 -15 -33 85.89 23
-3 -15 -33 47.6 20.1
-3 15 -33 36.8 21.4
-5 -15 -33 616.44 48.7
-5 15 -33 592.74 49.3
-7 -15 -33 79.19 20.5
-7 15 -33 91.89 21.8
-9 15 -33 15.8 18.4
-10 16 33 -10 23
-8 -16 33 17.8 19.7
-8 16 33 23.2 22.5
-6 -16 33 824.42 61.29
-4 -16 33 -9 20
-2 -16 33 36.3 21.5
0 -16 -33 57.39 22
-2 -16 -33 91.39 22.2
-4 -16 -33 82.99 22.2
-4 16 -33 92.79 22.6
-6 -16 -33 40.7 19.1
-6 16 -33 43.2 20.5
-8 16 -33 -12.3 19
-9 17 33 -12.7 22.8
-7 -17 33 156.78 25.4
-5 -17 33 174.98 26.9
-3 -17 33 7.6 21
1 -17 -33 -16 19.7
-1 -17 -33 99.69 23.5
-3 -17 -33 7.4 19
-5 -17 -33 80.39 20.8
-5 17 -33 57.49 21.7
-7 17 -33 30.8 20.3
-9 17 -33 -6.2 29.8
-10 18 33 25 24.9
-8 -18 33 11.3 25.9
-6 -18 33 94.59 23
-4 -18 33 13.7 21.5
-2 -18 33 86.59 24.2
0 -18 -33 41.6 21.7
-2 -18 -33 158.28 25.1
-4 -18 -33 189.48 25.8
-6 -18 -33 71.39 20.2
-6 18 -33 46.9 22
-8 18 -33 44.2 20.9
-7 -19 33 30.3 20.7
-5 -19 33 220.28 29.9
-3 -19 33 -4.3 21.2
1 -19 -33 65.59 23.8
-1 -19 -33 -14.5 20.1
-3 -19 -33 21.8 20.1
-5 -19 -33 -6.3 18.1
-7 19 -33 78.19 22.4
-6 -20 33 27.7 22.3
-4 -20 33 8 21.3
0 -20 -33 14.4 21.5
-2 -20 -33 -10.3 19.8
-4 -20 -33 165.08 25.4
-6 20 -33 8 24.5
-8 20 -33 18.3 20.6
-5 -21 33 -21.4 20.4
-3 -21 33 120.89 25.7
-1 -21 -33 42.1 22.8
-3 -21 -33 269.47 30.9
-7 21 -33 0.2 21.5
-6 -22 33 245.98 31.9
-4 -22 33 36.7 22.6
0 -22 -33 24 22.8
-2 -22 -33 46.9 22.3
-4 -22 -33 89.89 24.3
-5 -23 33 504.25 47.9
-1 -23 -33 40.8 22.8
-3 -23 -33 -5.9 19.8
-4 -24 33 -7.4 23.8
-2 -24 -33 78.79 23.9
-1 -25 -33 148.99 28
-10 0 34 549.45 47.9
-8 0 34 251.47 29.1
-6 0 34 38.3 20.6
-4 0 34 191.88 26.9
-2 0 34 1445.36 98.19
2 0 -34 1571.14 97.99
0 0 34 26.4 19.2
0 0 -34 -5.5 17.9
-2 0 -34 24.7 17.9
-4 0 -34 66.19 19.8
-6 0 -34 -2.3 15.9
-8 0 -34 260.77 27
-10 0 -34 81.99 18.4
-11 -1 34 -16.7 19.2
-11 1 34 0.1 19.8
-9 -1 34 566.34 48.4
-9 1 34 583.94 49.2
-7 -1 34 51.59 21.8
-7 1 34 84.29 22
-5 -1 34 182.58 26.4
-5 1 34 251.67 28.6
-3 -1 34 398.36 41.3
3 -1 -34 461.55 41.9
-3 1 34 391.46 41.1
-1 -1 34 42.3 20.4
1 -1 -34 7.1 19.4
-1 1 34 42.1 20.3
1 1 -34 22.3 19
-1 -1 -34 484.05 42.4
-1 1 -34 522.15 43.5
-3 -1 -34 12.8 17.6
-3 1 -34 14.4 17.5
-5 -1 -34 21.9 17.3
-5 1 -34 41 17.8
-7 -1 -34 23.6 16.5
-7 1 -34 8.8 16.6
-9 -1 -34 56.19 17.6
-9 1 -34 75.29 18.3
-10 -2 34 11.8 19.2
-10 2 34 21.9 20.6
-8 -2 34 20 20.3
-8 2 34 18 19.9
-6 -2 34 1775.52 111.39
-6 2 34 1709.33 110.99
-4 -2 34 88.59 20.8
-4 2 34 56.19 21
-2 -2 34 140.29 24
2 -2 -34 147.79 24.9
2 2 -34 203.68 25.6
-2 2 34 132.49 25.2
0 -2 34 23.9 20.3
0 -2 -34 37.8 19.3
0 2 -34 26.5 18.1
0 2 34 37.1 20.1
-2 -2 -34 44.8 18.9
-2 2 -34 78.89 19.4
-4 -2 -34 -4.6 16.4
-4 2 -34 -10.2 16.4
-6 -2 -34 59.19 18.3
-6 2 -34 58.49 18.2
-8 -2 -34 696.73 50.09
-8 2 -34 655.43 49.7
-10 -2 -34 51.39 17.3
-10 2 -34 47.4 17.3
-11 -3 34 15.4 19.7
-11 3 34 34.1 20.6
-9 -3 34 155.78 24.8
-9 3 34 94.09 22.8
-7 -3 34 119.69 23.1
-7 3 34 93.79 22.9
-5 -3 34 546.95 47.1
-5 3 34 575.74 47.8
-3 -3 34 240.58 30
3 -3 -34 285.17 30.5
-3 3 34 272.57 30.7
1 -3 -34 5.3 19.2
-1 -3 34 5.4 18.5
-1 3 34 -1 18.8
1 3 -34 -21.1 17.9
-1 -3 -34 972.6 65.99
-1 3 -34 908.11 65.49
-3 -3 -34 -16.4 16.1
-3 3 -34 22.5 18.2
-5 -3 -34 269.27 28.3
-5 3 -34 294.77 32.2
-7 -3 -34 89.59 18.8
-7 3 -34 48.9 18.5
-9 -3 -34 352.46 34.8
-9 3 -34 381.76 35
-10 -4 34 -15.5 19.3
-10 4 34 -3.2 19.9
-8 -4 34 2.9 19.7
-8 4 34 0.7 19.7
-6 -4 34 48.1 20.1
-6 4 34 93.39 22.2
-4 -4 34 81.19 20.7
-4 4 34 92.99 22.4
2 -4 -34 52.59 20.8
-2 -4 34 -0.2 19.1
-2 4 34 43.7 20.3
2 4 -34 41.3 19.7
0 -4 -34 120.79 22.9
0 -4 34 111.89 23.8
0 4 -34 161.08 23.7
-2 -4 -34 752.02 57.29
-2 4 -34 818.82 57.19
-4 -4 -34 20 17.6
-4 4 -34 7.8 16.3
-6 -4 -34 21 17.1
-6 4 -34 -1.5 16.4
-8 -4 -34 56.99 18.2
-8 4 -34 92.29 19.3
-10 -4 -34 -5.7 15.6
-10 4 -34 -3.7 16.4
-11 -5 34 20.2 20.4
-11 5 34 -8.1 20.2
-9 -5 34 29.8 20.5
-9 5 34 25 19.7
-7 -5 34 85.79 21.3
-7 5 34 104.79 22.5
-5 -5 34 750.42 57.19
-5 5 34 794.42 59.19
-3 -5 34 134.69 24.6
3 -5 -34 177.68 25.6
-3 5 34 118.19 24.4
-1 -5 34 29 20.2
1 -5 -34 30.3 19
1 5 -34 44.8 19.6
-1 5 34 -20.2 18.2
-1 -5 -34 107.59 22.1
-1 5 -34 151.38 22.7
-3 -5 -34 20.2 17.9
-3 5 -34 5.5 18.4
-5 -5 -34 1078.89 73.19
-5 5 -34 1103.69 73.29
-7 -5 -34 -0.7 16.6
-7 5 -34 14.1 17.2
-9 -5 -34 -14.9 15.2
-9 5 -34 8.9 17
-10 -6 34 9.8 19.8
-10 6 34 -1.2 19.6
-8 -6 34 114.59 22.1
-8 6 34 104.59 24.5
-6 -6 34 697.53 52.69
-6 6 34 655.73 54.09
-4 -6 34 -0.8 19.1
-4 6 34 9.3 20.5
-2 -6 34 202.08 27.4
2 -6 -34 209.98 27
-2 6 34 143.79 26
0 -6 -34 -4.5 17.7
0 -6 34 -3.7 20.3
0 6 -34 -8 18.3
-2 -6 -34 -1.4 17.5
-2 6 -34 -2.5 18.3
-4 -6 -34 2265.17 137.39
-4 6 -34 2180.98 137.19
-6 -6 -34 56.59 18
-6 6 -34 72.49 19.1
-8 -6 -34 146.99 22.6
-8 6 -34 214.38 24.5
-10 6 -34 131.59 21.5
-11 -7 34 18.9 29.8
-11 7 34 -1 20.5
-9 -7 34 387.96 39.2
-9 7 34 352.06 36.1
-7 -7 34 6.1 18.5
-7 7 34 0.2 20.1
-5 -7 34 -22.8 18
-5 7 34 32.7 20.8
3 -7 -34 60.89 21.3
-3 -7 34 68.09 21.2
-3 7 34 67.09 22.2
1 -7 -34 25.7 19.4
-1 -7 34 7.4 19.9
1 7 -34 44.6 19.6
-1 -7 -34 136.99 23.1
-1 7 -34 127.79 22.7
-3 -7 -34 215.08 25
-3 7 -34 187.48 23.9
-5 -7 -34 416.86 38.4
-5 7 -34 396.06 37.7
-7 -7 -34 -15.6 16.3
-7 7 -34 14.1 16.9
-9 -7 -34 21.6 16.8
-9 7 -34 24.4 17
-10 -8 34 234.88 28.3
-10 8 34 210.98 29.9
-8 -8 34 12.4 18.8
-8 8 34 16.3 19.6
-6 -8 34 -5.7 18.5
-6 8 34 9.9 20.6
-4 -8 34 9.5 20.5
-4 8 34 11.2 21.1
2 -8 -34 177.38 26
-2 -8 34 133.69 24.6
-2 8 34 190.38 27.1
0 -8 34 131.79 25.2
0 -8 -34 188.48 25.3
0 8 -34 206.18 25.7
-2 -8 -34 330.87 33.3
-2 8 -34 365.76 36.3
-4 -8 -34 81.09 20.5
-4 8 -34 89.59 19.9
-6 -8 -34 10.6 18.1
-6 8 -34 13.6 17.1
-8 -8 -34 193.78 23.9
-8 8 -34 212.28 24.8
-10 8 -34 14.6 17.2
-11 9 34 -9.5 20.9
-9 -9 34 103.89 22.7
-9 9 34 162.88 26.9
-7 -9 34 94.29 22.1
-7 9 34 82.59 23.2
-5 -9 34 -1.9 18.4
-5 9 34 -10.3 20.7
-3 -9 34 89.09 22.1
-3 9 34 84.29 23.6
-1 -9 34 29.4 20.2
1 -9 -34 36.1 19.7
-1 -9 -34 663.63 52.49
-1 9 -34 684.53 52.59
-3 -9 -34 120.59 21.9
-3 9 -34 88.69 20.6
-5 -9 -34 269.97 27.2
-5 9 -34 206.28 26.2
-7 -9 -34 38.6 18
-7 9 -34 39.7 18.1
-9 -9 -34 -4.8 15.6
-9 9 -34 -9.4 17.2
-10 -10 34 -12.1 19.1
-10 10 34 -20 20.4
-8 -10 34 24.6 20.1
-8 10 34 -5.6 20.6
-6 -10 34 19 18.9
-6 10 34 -16 20.4
-4 -10 34 7.7 19.3
-4 10 34 11.1 21.7
2 -10 -34 -14.6 19.6
-2 -10 34 11.3 19.6
0 -10 34 111.79 23
0 -10 -34 132.89 23.6
0 10 -34 113.09 22.4
-2 -10 -34 222.18 26.5
-2 10 -34 200.18 26.2
-4 -10 -34 -3.6 17.7
-4 10 -34 -25.4 16.8
-6 -10 -34 22.9 17.6
-6 10 -34 1 17.2
-8 -10 -34 48 17.9
-8 10 -34 41.2 18.7
-11 11 34 15.2 21.3
-9 -11 34 214.68 27.5
-9 11 34 167.98 28.2
-7 -11 34 41.4 21.2
-7 11 34 0.1 21.5
-5 -11 34 3.8 18.8
-5 11 34 16.1 21.5
-3 -11 34 4.8 19
1 -11 -34 5.4 18.7
-1 -11 34 1.6 20.3
-1 -11 -34 2912.71 187.18
-1 11 -34 3233.88 187.78
-3 -11 -34 61.49 20
-3 11 -34 35.2 18.9
-5 -11 -34 110.29 21.3
-5 11 -34 85.69 20.7
-7 -11 -34 82.49 19.5
-7 11 -34 76.09 20
-9 11 -34 20.3 18.3
-10 12 34 77.29 23.9
-8 -12 34 94.99 23.3
-8 12 34 132.19 25.8
-6 -12 34 -9.8 18.2
-6 12 34 1.2 22.1
-4 -12 34 -11.7 19.5
2 -12 -34 25.9 20.8
-2 -12 34 29.4 20.5
0 -12 -34 517.65 46.7
-2 -12 -34 435.66 41.1
-2 12 -34 437.26 42.1
-4 -12 -34 231.58 27.2
-4 12 -34 225.18 27.9
-6 -12 -34 -10.2 16.8
-6 12 -34 11.4 18.4
-8 -12 -34 351.16 35.9
-8 12 -34 393.06 37.6
-11 13 34 25.6 22.9
-9 -13 34 88.39 22.9
-9 13 34 53.39 23.9
-7 -13 34 6.7 19.4
-7 13 34 13.1 22.2
-5 -13 34 9.8 19.4
-5 13 34 13.2 40.1
-3 -13 34 -5.6 20.4
-1 -13 34 55.29 22.2
1 -13 -34 104.49 22.8
-1 -13 -34 193.38 26.4
-3 -13 -34 243.18 28.6
-3 13 -34 338.67 36.3
-5 -13 -34 1087.79 73.29
-5 13 -34 1068.19 73.99
-7 -13 -34 -0.2 17.3
-7 13 -34 -18 17.7
-9 13 -34 -4 17.9
-10 14 34 77.69 24.4
-8 -14 34 -4.9 20
-8 14 34 6.1 21.4
-6 -14 34 258.07 29.7
-6 14 34 194.98 31
-4 -14 34 -12.5 20.2
2 -14 -34 639.84 56.69
-2 -14 34 630.34 53.09
0 -14 -34 17.8 20.5
-2 -14 -34 14.9 19.1
-2 14 -34 20 20
-4 -14 -34 851.51 64.99
-4 14 -34 994 66.59
-6 -14 -34 0.1 17.5
-6 14 -34 10.7 18.7
-8 14 -34 89.09 21.1
-9 15 34 69.09 25.1
-7 -15 34 42.9 20.4
-7 15 34 19.8 22.9
-5 -15 34 39.9 21.3
-3 -15 34 195.28 28.4
-1 -15 34 -14.5 30.1
1 -15 -34 8 20.9
-1 -15 -34 128.79 24
-3 -15 -34 145.39 24
-3 15 -34 150.58 25
-5 -15 -34 168.38 24.6
-5 15 -34 123.89 24.9
-7 -15 -34 8.7 18.5
-7 15 -34 11 19.2
-9 15 -34 16.5 19
-10 16 34 -18.1 22.8
-8 -16 34 -15.3 19.1
-8 16 34 -2.8 22.1
-6 -16 34 252.47 30.5
-4 -16 34 4.5 20.6
-2 -16 34 15.3 21.8
0 -16 -34 20 21.1
-2 -16 -34 219.68 28.4
-4 -16 -34 42.2 20.2
-4 16 -34 12.2 20.9
-6 -16 -34 -20.3 17.8
-6 16 -34 11.2 20
-8 16 -34 254.27 29.8
-9 17 34 -9.2 23.6
-7 -17 34 223.18 29.4
-5 -17 34 693.43 55.49
-3 -17 34 61.39 22.9
1 -17 -34 -28.4 20.3
-1 -17 -34 8.1 20.1
-3 -17 -34 20 19
-5 -17 -34 53.59 20.7
-5 17 -34 101.69 23.9
-7 17 -34 47.6 21.5
-10 18 34 34.5 25.9
-6 -18 34 678.83 54.49
-4 -18 34 29.5 22.3
-2 -18 34 13.1 23.8
0 -18 -34 85.39 23.5
-2 -18 -34 125.79 24.3
-4 -18 -34 29.1 19.6
-6 18 -34 27.4 21
-8 18 -34 50.59 21.6
-7 -19 34 10.6 20.4
-5 -19 34 -20.8 20.8
-3 -19 34 285.97 33.8
-1 -19 -34 342.17 35.8
-3 -19 -34 103.19 23.6
-5 -19 -34 4.9 19.1
-7 19 -34 -2 20.6
-6 -20 34 -5.6 21.3
-4 -20 34 -1.7 20.2
0 -20 -34 3.8 21.6
-2 -20 -34 27.6 21.4
-4 -20 -34 8.3 19.7
-8 20 -34 9 22.3
-5 -21 34 95.29 25.2
-3 -21 34 -13.1 23.1
-1 -21 -34 7.9 20.7
-3 -21 -34 9.6 19.9
-4 -22 34 6.3 22.1
-2 -22 -34 -16.1 20.6
-5 -23 34 4.7 22.7
-1 -23 -34 246.58 32.4
-3 -23 -34 3.9 22
-2 -24 -34 137.89 26.8
-10 0 35 6 20.2
-8 0 35 14.1 19.2
-6 0 35 -18.7 19.1
-4 0 35 3 18.9
2 0 -35 -3.2 19.2
-2 0 35 -16.8 19.9
0 0 35 0.3 20
0 0 -35 -5.3 18.3
-2 0 -35 3.9 17.6
-4 0 -35 7.6 17.5
-6 0 -35 1.7 16.9
-8 0 -35 -25.7 16.1
-10 0 -35 -7.9 15.5
-11 -1 35 -5.6 20
-11 1 35 3.4 20.2
-9 -1 35 436.16 42.4
-9 1 35 416.96 42.5
-7 -1 35 129.69 24.6
-7 1 35 153.88 25.2
-5 -1 35 46.9 21.3
-5 1 35 51.69 21.1
-3 -1 35 794.32 61.59
-3 1 35 841.52 61.69
1 -1 -35 149.09 24
-1 -1 35 142.69 24.6
-1 1 35 93.09 24.1
1 1 -35 192.08 25
-1 -1 -35 351.86 37.1
-3 -1 -35 -5.8 17.1
-3 1 -35 0 17.5
-5 -1 -35 52.29 19.1
-5 1 -35 53.19 18.6
-7 -1 -35 83.09 19.8
-7 1 -35 142.79 21.3
-9 -1 -35 -3.8 16.2
-9 1 -35 25.2 17
-10 -2 35 413.76 40.5
-10 2 35 378.36 41.8
-8 -2 35 96.39 23.1
-8 2 35 67.69 22.3
-6 -2 35 4.8 19.5
-6 2 35 4 19.2
-4 -2 35 34.9 20.1
-4 2 35 71.39 21.2
2 -2 -35 16.2 19
-2 -2 35 4.8 18.9
-2 2 35 35.9 20.3
2 2 -35 -6.7 19.4
0 -2 -35 27.4 18.7
0 -2 35 31.9 20.9
0 2 -35 31.5 18.6
-2 -2 -35 316.27 34.2
-2 2 -35 271.17 29.5
-4 -2 -35 56.19 18.6
-4 2 -35 20.4 17.3
-6 -2 -35 17.2 17.5
-6 2 -35 54.79 18.1
-8 -2 -35 62.19 18.7
-8 2 -35 60.59 18.7
-10 -2 -35 96.29 19.5
-10 2 -35 74.89 18.9
-11 -3 35 13.8 19.9
-11 3 35 23.7 20.9
-9 -3 35 190.78 27.1
-9 3 35 183.38 27.4
-7 -3 35 432.36 41.6
-7 3 35 385.56 41.9
-5 -3 35 371.46 38.6
-5 3 35 335.97 34.6
-3 -3 35 22.5 20.4
-3 3 35 29.7 20.3
-1 -3 35 -15.1 18.7
1 -3 -35 27.5 19.9
1 3 -35 -6 19.2
-1 3 35 9.1 20.6
-1 -3 -35 1058.79 73.49
-1 3 -35 1091.39 73.49
-3 -3 -35 240.08 26.1
-3 3 -35 163.98 23.8
-5 -3 -35 5.4 17.2
-5 3 -35 -6.6 17.2
-7 -3 -35 118.39 21.1
-7 3 -35 114.39 21.2
-9 -3 -35 173.58 22.5
-9 3 -35 157.38 22.2
-10 -4 35 -2.9 19.9
-10 4 35 17 20.4
-8 -4 35 20.1 20
-8 4 35 -5.1 19
-6 -4 35 1508.95 96.39
-6 4 35 1436.96 96.99
-4 -4 35 -12.2 18.2
-4 4 35 -12.7 19.3
-2 -4 35 125.29 24.2
2 -4 -35 158.78 25.3
2 4 -35 142.89 37.8
-2 4 35 122.49 24.6
0 -4 35 16.7 20.7
0 -4 -35 -11.1 18.5
0 4 -35 54.09 19.6
-2 -4 -35 582.84 47.3
-2 4 -35 565.34 46.9
-4 -4 -35 493.65 42.1
-4 4 -35 457.95 41.7
-6 -4 -35 -11.1 17
-6 4 -35 16.3 17.3
-8 -4 -35 1087.59 72.39
-8 4 -35 1080.59 72.59
-10 4 -35 -20.9 16.2
-11 -5 35 14.6 22.6
-11 5 35 19.4 20.9
-9 -5 35 178.68 26.4
-9 5 35 135.49 25.8
-7 -5 35 55.09 20.8
-7 5 35 27.5 21.3
-5 -5 35 25.7 19.1
-5 5 35 34.6 21.5
-3 -5 35 -17.8 19.3
-3 5 35 26.6 21
-1 -5 35 272.47 32
1 -5 -35 273.67 30.4
1 5 -35 261.87 30.4
-1 -5 -35 75.89 21.3
-1 5 -35 76.79 21
-3 -5 -35 23.1 18.2
-3 5 -35 9 17.7
-5 -5 -35 63.59 19.5
-5 5 -35 59.19 20.1
-7 -5 -35 357.56 35.3
-7 5 -35 315.57 34.9
-9 -5 -35 7.2 16.4
-9 5 -35 -13.1 17.1
-10 -6 35 199.48 27.5
-10 6 35 179.38 27.4
-8 -6 35 -10.6 18.4
-8 6 35 15.7 20
-6 -6 35 132.49 23.7
-6 6 35 118.19 24.5
-4 -6 35 231.88 29.3
-4 6 35 234.68 30.1
2 -6 -35 11.4 19.6
-2 -6 35 23.2 20.6
-2 6 35 21.6 21.1
0 -6 -35 76.99 21.1
0 -6 35 33.9 20.9
0 6 -35 101.29 22.7
-2 -6 -35 32.2 18.6
-2 6 -35 18 18.2
-4 -6 -35 302.67 30
-4 6 -35 260.77 28.8
-6 -6 -35 38.3 17.9
-6 6 -35 49.8 19
-8 -6 -35 21.6 17.4
-8 6 -35 -5.6 17.6
-10 6 -35 159.88 24.5
-11 7 35 10.2 22.5
-9 -7 35 31.7 21
-9 7 35 20.1 21
-7 -7 35 3.6 19.6
-7 7 35 29.6 21.3
-5 -7 35 22.1 19.8
-5 7 35 35.1 21.5
-3 -7 35 665.63 55.49
-3 7 35 731.83 57.39
1 -7 -35 6.2 19.3
-1 -7 35 9.7 20.1
1 7 -35 19.7 20.5
-1 -7 -35 40.6 19.6
-1 7 -35 45.5 21.1
-3 -7 -35 180.28 24.7
-3 7 -35 231.88 26.2
-5 -7 -35 457.05 40.5
-5 7 -35 438.66 39.7
-7 -7 -35 8 17.2
-7 7 -35 4.3 16.3
-9 -7 -35 21.8 17.4
-9 7 -35 3.6 16.8
-10 -8 35 34.6 20.7
-10 8 35 -17 21
-8 -8 35 418.06 41.1
-8 8 35 393.16 43.1
-6 -8 35 -6.7 19.3
-6 8 35 -2.3 20.8
-4 -8 35 42.2 20.8
-4 8 35 34 21.8
-2 -8 35 208.68 27.8
2 -8 -35 215.38 28.5
0 -8 -35 38.9 20.1
0 8 -35 25.6 20.5
-2 -8 -35 22 19.3
-2 8 -35 9.5 17.7
-4 -8 -35 1109.79 74.29
-4 8 -35 1067.69 73.39
-6 -8 -35 33.8 19.3
-6 8 -35 57.99 18.9
-8 -8 -35 -19 16.1
-8 8 -35 11.2 17
-11 9 35 17 22.1
-9 -9 35 374.06 40.3
-9 9 35 368.46 38.5
-7 -9 35 15 19.9
-7 9 35 38.5 22
-5 -9 35 145.29 25.5
-5 9 35 136.99 25.9
-3 -9 35 -0.9 18.3
-3 9 35 12.6 28
-1 -9 35 -29.9 19.7
1 -9 -35 -4.4 19.7
-1 -9 -35 1723.93 111.39
-1 9 -35 1771.52 111.59
-3 -9 -35 -2 17.7
-3 9 -35 40.1 18.9
-5 -9 -35 48 18.3
-5 9 -35 29.6 18.5
-7 -9 -35 189.28 23.2
-7 9 -35 136.49 22.6
-9 9 -35 9.7 17.8
-10 -10 35 97.39 23.3
-10 10 35 113.49 25.4
-8 -10 35 56.19 21.6
-8 10 35 26.7 23
-6 -10 35 32.6 21.6
-6 10 35 42.5 23.2
-4 -10 35 35.9 21.6
-4 10 35 50.89 22.9
2 -10 -35 -7.5 20.1
-2 -10 35 -14.3 19.8
0 -10 -35 1707.33 109.69
-2 -10 -35 430.46 40.4
-2 10 -35 426.86 41.5
-4 -10 -35 5.1 17.8
-4 10 -35 19.5 18.6
-6 -10 -35 24.6 17.9
-6 10 -35 36.7 18.8
-8 -10 -35 147.19 22
-8 10 -35 118.09 21.5
-11 11 35 26 22.2
-9 -11 35 116.29 24.2
-9 11 35 121.89 26.4
-7 -11 35 27.8 20.3
-7 11 35 20.8 23
-5 -11 35 68.09 21.6
-5 11 35 96.29 25.2
-3 -11 35 2.7 20.1
1 -11 -35 30 20.9
-1 -11 35 23.8 21.8
-1 -11 -35 504.05 45.7
-1 11 -35 508.45 45.6
-3 -11 -35 120.29 23.2
-3 11 -35 122.29 22.6
-5 -11 -35 109.39 21.3
-5 11 -35 80.89 21.2
-7 -11 -35 66.59 19.8
-7 11 -35 82.99 20
-9 11 -35 37.9 19
-10 12 35 22.9 22.4
-8 -12 35 226.28 29.8
-8 12 35 200.88 30.4
-6 -12 35 13 20.1
-6 12 35 13.8 23.1
-4 -12 35 23.6 20.8
2 -12 -35 371.56 40
-2 -12 35 299.37 34.2
0 -12 -35 132.69 24.6
-2 -12 -35 123.49 22.8
-2 12 -35 84.69 22.2
-4 -12 -35 899.21 66.29
-4 12 -35 1002.3 67.59
-6 -12 -35 18.8 18.1
-6 12 -35 10.8 18.4
-8 -12 -35 39.9 20.1
-8 12 -35 9.4 18.1
-9 -13 35 115.99 24.3
-9 13 35 80.99 25.2
-7 -13 35 -22 18.6
-7 13 35 -16.5 21.8
-5 -13 35 -3.2 20.1
-3 -13 35 228.98 29.6
-1 -13 35 39.8 29.9
1 -13 -35 -5.8 20.4
-1 -13 -35 230.78 28.6
-3 -13 -35 23.9 18.8
-3 13 -35 -16.2 19.2
-5 -13 -35 5.5 18
-5 13 -35 8.5 18.8
-7 -13 -35 3.8 17.8
-7 13 -35 5 18.1
-9 13 -35 9.1 18.7
-10 14 35 94.19 25.9
-8 -14 35 122.29 23.8
-8 14 35 99.79 25.5
-6 -14 35 2.1 19.5
-4 -14 35 28.4 21
-2 -14 35 29 21.7
0 -14 -35 49.1 21.5
-2 -14 -35 10.5 19.2
-4 -14 -35 185.88 25
-4 14 -35 165.18 25.7
-6 -14 -35 71.49 20.6
-6 14 -35 64.09 21
-8 14 -35 3.3 18.4
-9 15 35 82.99 25.9
-7 -15 35 96.99 22.9
-5 -15 35 142.89 25.7
-3 -15 35 248.08 31
1 -15 -35 25.6 22.1
-1 -15 -35 21.1 20.2
-3 -15 -35 37.8 19.9
-3 15 -35 30.4 22.4
-5 -15 -35 196.28 26.7
-5 15 -35 194.68 27.6
-7 15 -35 142.19 24.2
-10 16 35 15.3 24.1
-8 -16 35 9.7 20.6
-6 -16 35 730.93 57.49
-4 -16 35 61.19 22.5
-2 -16 35 57.49 23.3
0 -16 -35 33.7 22.6
-2 -16 -35 541.55 48.4
-4 -16 -35 249.08 30.2
-4 16 -35 275.27 32.3
-6 -16 -35 15.2 19.5
-6 16 -35 10.4 20.6
-7 -17 35 61.29 22.6
-5 -17 35 78.79 23.3
-3 -17 35 9.6 22.1
1 -17 -35 14 25.3
-1 -17 -35 577.94 51.09
-3 -17 -35 -6.7 19.2
-5 -17 -35 17.9 19.4
-5 17 -35 33.5 21.2
-7 17 -35 -6.4 19.8
-6 -18 35 101.39 23.8
-4 -18 35 3.8 21.9
0 -18 -35 51.49 22.4
-2 -18 -35 -7.3 19.6
-4 -18 -35 8.1 19.6
-6 18 -35 -0.7 20.6
-8 18 -35 148.99 26.2
-7 -19 35 78.49 27.5
-5 -19 35 23 22.4
-3 -19 35 51.09 24.7
-1 -19 -35 3.1 21.3
-3 -19 -35 65.49 22
-5 -19 -35 -17.5 20.1
-7 19 -35 101.89 24.5
-6 -20 35 -7.9 21.9
-4 -20 35 17.5 22.8
0 -20 -35 25.1 23
-2 -20 -35 -6.1 20.6
-4 -20 -35 19.6 20.5
-5 -21 35 3.6 22.6
-1 -21 -35 140.89 27.1
-3 -21 -35 20.1 20.8
-4 -22 35 24.8 23.7
-2 -22 -35 142.29 26.8
-5 -23 35 85.09 27
-1 -23 -35 91.59 25.8
-2 -24 -35 30.1 26.6
-10 0 36 221.18 29.1
-8 0 36 30.5 20.3
-6 0 36 9.4 19.7
-4 0 36 89.59 23.9
2 0 -36 1727.53 104.09
-2 0 36 1468.25 103.69
0 0 -36 0 19
-2 0 -36 73.49 20.1
-4 0 -36 187.68 25.2
-6 0 -36 476.95 41.8
-8 0 -36 63.19 18.5
-11 -1 36 -26.6 18.4
-11 1 36 -3 20.5
-9 -1 36 28.6 20.6
-9 1 36 11.3 20.2
-7 -1 36 20.7 20.6
-7 1 36 4.4 20.1
-5 -1 36 -4 19.4
-5 1 36 -1.4 19.5
-3 -1 36 9.5 20.4
-3 1 36 23.9 20
-1 -1 36 526.55 53.09
1 -1 -36 755.52 54.49
1 1 -36 794.82 54.69
-1 1 36 640.74 55.09
-1 -1 -36 633.04 50.99
-1 1 -36 649.34 51.19
-3 -1 -36 216.58 26.8
-3 1 -36 257.67 28.2
-5 -1 -36 486.75 44.1
-5 1 -36 567.54 44.3
-7 -1 -36 30.4 18
-7 1 -36 25.7 18.1
-9 -1 -36 52.89 18.8
-9 1 -36 91.89 19.4
-10 -2 36 80.99 22.6
-10 2 36 82.89 23.5
-8 -2 36 49.3 21
-8 2 36 25.2 21.5
-6 -2 36 116.79 24.1
-6 2 36 102.09 23.7
-4 -2 36 38.3 21.4
-4 2 36 33.2 21.2
-2 -2 36 24.8 19.9
2 -2 -36 -27.1 20
-2 2 36 48.7 21.8
0 -2 -36 11.5 19.4
0 2 -36 2.9 18.7
-2 -2 -36 1607.34 103.09
-2 2 -36 1603.44 102.89
-4 -2 -36 12.6 18.2
-4 2 -36 1.7 17.1
-6 -2 -36 24.8 18.5
-6 2 -36 11.7 17.6
-8 -2 -36 252.97 27.6
-8 2 -36 247.48 27.2
-11 -3 36 5.9 29
-11 3 36 -5.4 20.8
-9 -3 36 -2.6 19.9
-9 3 36 -4 20.7
-7 -3 36 130.79 25
-7 3 36 118.29 23.6
-5 -3 36 240.28 29.4
-5 3 36 205.58 28.8
-3 -3 36 7 20
-3 3 36 11.3 21.1
-1 -3 36 11.6 19.8
1 -3 -36 -15.1 19
1 3 -36 -13.7 19.2
-1 -3 -36 97.99 21.8
-1 3 -36 105.09 21.7
-3 -3 -36 102.19 21.2
-3 3 -36 100.59 21.4
-5 -3 -36 -24.8 17
-5 3 -36 2.5 17.4
-7 -3 -36 378.96 37.6
-7 3 -36 401.66 37.8
-9 -3 -36 139.59 21.9
-9 3 -36 169.38 22.8
-10 -4 36 3.9 20.7
-10 4 36 -3.7 20.1
-8 -4 36 3.7 20
-8 4 36 -30.2 20
-6 -4 36 150.68 24.9
-6 4 36 152.48 25.2
-4 -4 36 64.79 21.1
-4 4 36 57.79 22.2
-2 -4 36 9.8 20.9
2 -4 -36 21.6 20.5
-2 4 36 -22.2 20.9
0 -4 -36 103.89 23.3
0 4 -36 111.49 22.4
-2 -4 -36 2.1 18.3
-2 4 -36 51.89 19.8
-4 -4 -36 33.6 19
-4 4 -36 4.8 17.4
-6 -4 -36 56.39 19.9
-6 4 -36 66.39 19.5
-8 -4 -36 98.09 20.4
-8 4 -36 79.19 19.5
-11 5 36 74.49 23.9
-9 -5 36 467.25 45
-9 5 36 439.26 44.8
-7 -5 36 102.49 22.9
-7 5 36 78.89 23.6
-5 -5 36 54.09 20.8
-5 5 36 51.69 22.6
-3 -5 36 144.19 24.7
-3 5 36 162.38 27
-1 -5 36 59.79 22.5
1 -5 -36 58.99 21.7
1 5 -36 47.4 20.8
-1 -5 -36 524.05 48.7
-1 5 -36 665.23 49.5
-3 -5 -36 0.3 17.7
-3 5 -36 20.8 18.9
-5 -5 -36 67.09 19.7
-5 5 -36 24 18.2
-7 -5 -36 99.19 20.8
-7 5 -36 122.09 21.6
-9 -5 -36 174.28 23.5
-9 5 -36 197.58 24.1
-10 -6 36 95.89 23.7
-10 6 36 62.19 23.2
-8 -6 36 622.24 51.39
-8 6 36 639.44 52.89
-6 -6 36 29.5 21
-6 6 36 56.99 23.2
-4 -6 36 22.7 20.6
-4 6 36 -1 21.2
-2 -6 36 152.88 26
2 -6 -36 129.79 24.9
0 -6 -36 20.5 19.6
0 6 -36 0.5 18.8
-2 -6 -36 300.67 31.1
-2 6 -36 305.57 31.9
-4 -6 -36 453.55 40.2
-4 6 -36 410.06 40.5
-6 -6 -36 226.48 25.5
-6 6 -36 197.18 25.8
-8 -6 -36 111.29 20.7
-8 6 -36 118.79 21.2
-11 7 36 36.9 23.3
-9 -7 36 598.94 50.29
-9 7 36 570.74 51.09
-7 -7 36 17.2 20.1
-7 7 36 49.7 22.5
-5 -7 36 6.3 20
-5 7 36 25.8 21.1
-3 -7 36 62.29 22.1
-3 7 36 64.59 24.2
1 -7 -36 268.47 31.3
-1 -7 36 266.17 31.5
-1 -7 -36 87.19 21.8
-1 7 -36 63.39 21.5
-3 -7 -36 100.59 21.2
-3 7 -36 92.99 21.9
-5 -7 -36 12.5 18.1
-5 7 -36 12.5 17.7
-7 -7 -36 9.3 17.5
-7 7 -36 2.7 17.1
-9 7 -36 13.3 18
-10 -8 36 3.5 20.5
-10 8 36 37.8 23.4
-8 -8 36 30.2 20.2
-8 8 36 39.9 21.9
-6 -8 36 76.89 22.3
-6 8 36 112.09 25.5
-4 -8 36 -2 19.8
-4 8 36 -27.7 21
2 -8 -36 104.99 23.7
-2 -8 36 166.28 26.8
0 -8 -36 131.79 24.4
0 8 -36 149.88 24.6
-2 -8 -36 39.2 19.8
-2 8 -36 4.8 18.8
-4 -8 -36 10.9 18.8
-4 8 -36 21.6 19
-6 -8 -36 30.8 19.2
-6 8 -36 3.6 17.7
-8 -8 -36 86.69 20
-8 8 -36 83.99 20.2
-11 9 36 0.2 21.4
-9 -9 36 42.8 21.2
-9 9 36 44.9 23.8
-7 -9 36 0 19.3
-7 9 36 8 21.6
-5 -9 36 214.38 28.3
-5 9 36 182.08 29.4
-3 -9 36 3.1 21.4
1 -9 -36 21.3 20.1
-1 -9 36 5.2 20.9
-1 -9 -36 209.58 27.9
-1 9 -36 240.18 28.9
-3 -9 -36 147.99 23.2
-3 9 -36 109.49 22.4
-5 -9 -36 21.4 18.1
-5 9 -36 33.8 19.1
-7 -9 -36 3.6 17.5
-7 9 -36 5.1 17.3
-9 9 -36 319.57 35.1
-10 10 36 21.9 22.4
-8 -10 36 27.9 20.3
-8 10 36 -22.8 22.9
-6 -10 36 50.09 21.7
-6 10 36 56.39 23.2
-4 -10 36 7.3 19.5
-2 -10 36 4.8 20.3
2 -10 -36 -13 24
0 -10 -36 63.59 21.4
-2 -10 -36 18.1 19
-2 10 -36 16.7 19.8
-4 -10 -36 19.3 19.3
-4 10 -36 -20.4 18.5
-6 -10 -36 13.2 18.1
-6 10 -36 -7 18.3
-8 -10 -36 13.2 18
-8 10 -36 37.6 18.8
-9 -11 36 8.5 20.1
-9 11 36 4.5 23.4
-7 -11 36 62.89 21.9
-7 11 36 11.3 23.8
-5 -11 36 513.25 47.9
-5 11 36 606.54 67.09
-3 -11 36 3.4 20.9
1 -11 -36 -10.4 19.8
-1 -11 -36 579.44 49.5
-3 -11 -36 0.8 18.7
-3 11 -36 12.9 19
-5 -11 -36 28 19
-5 11 -36 3 18.6
-7 -11 -36 -0.4 17.8
-7 11 -36 3 17.7
-9 11 -36 526.15 43.3
-10 12 36 110.29 26.1
-8 -12 36 146.79 25.4
-8 12 36 115.59 26.8
-6 -12 36 121.89 24.2
-6 12 36 117.79 27.5
-4 -12 36 66.69 22
-2 -12 36 174.28 28.4
0 -12 -36 360.96 40.4
-2 -12 -36 18.9 18.8
-2 12 -36 10.5 20.1
-4 -12 -36 43.1 20
-4 12 -36 74.29 21.5
-6 -12 -36 0.1 18.1
-6 12 -36 -6.3 18.9
-8 12 -36 67.79 20.3
-9 -13 36 575.74 63.79
-9 13 36 716.53 57.49
-7 -13 36 61.89 23.2
-7 13 36 38.8 23.7
-5 -13 36 8.5 20.1
-3 -13 36 137.29 25.4
1 -13 -36 56.49 22.9
-1 -13 -36 25.6 20.2
-3 -13 -36 203.68 26.8
-3 13 -36 177.28 27.1
-5 -13 -36 -17.1 17.9
-5 13 -36 1.9 20.1
-7 -13 -36 26 18.5
-7 13 -36 0.6 18.5
-10 14 36 11.6 23.3
-8 -14 36 323.97 33.9
-8 14 36 260.97 34.4
-6 -14 36 7.3 21
-4 -14 36 3.3 20.3
-2 -14 36 19.7 22.5
0 -14 -36 34.1 21.1
-2 -14 -36 156.98 25.7
-4 -14 -36 196.38 25.7
-4 14 -36 144.29 25.8
-6 -14 -36 363.76 38.1
-6 14 -36 350.26 38.5
-8 14 -36 48 20.6
-9 15 36 42.4 25.1
-7 -15 36 17 21.5
-5 -15 36 45.6 22.7
-3 -15 36 13.9 21.4
1 -15 -36 209.28 30
-1 -15 -36 349.57 36
-3 -15 -36 36.9 20.3
-5 -15 -36 121.99 22.4
-5 15 -36 39.7 21.6
-7 15 -36 25.3 20.7
-10 16 36 15.1 24.6
-6 -16 36 16.3 20.9
-4 -16 36 16.9 22.4
0 -16 -36 186.98 28.9
-2 -16 -36 115.19 24
-4 -16 -36 0.3 19.1
-6 -16 -36 14.2 18.2
-8 16 -36 -22.9 19
-7 -17 36 114.29 24.5
-5 -17 36 47.3 22
-3 -17 36 26 23
-1 -17 -36 419.26 44.5
-3 -17 -36 209.38 28.8
-5 -17 -36 12.7 19.4
-5 17 -36 16.4 21.6
-7 17 -36 519.75 47.8
-6 -18 36 57.79 22.8
-4 -18 36 77.49 25.3
0 -18 -36 47.9 23.1
-2 -18 -36 555.54 49.6
-4 -18 -36 1.1 19.3
-6 18 -36 39.3 22.1
-5 -19 36 -14.7 21.5
-1 -19 -36 103.49 24.8
-3 -19 -36 3 20
-7 19 -36 -7.8 21.9
-6 -20 36 25.5 22.2
-4 -20 36 22.2 23.6
-2 -20 -36 19.2 21.4
-4 -20 -36 3.7 20.8
-5 -21 36 10.4 23.1
-1 -21 -36 143.79 27.7
-3 -21 -36 48.6 22.3
-2 -22 -36 142.59 26.6
-1 -23 -36 100.59 28.1
-10 0 37 -24.4 20.3
-8 0 37 13.6 20.1
-6 0 37 0.6 20.4
-4 0 37 2.3 19.7
-2 0 37 25.8 21.7
0 0 -37 -5 19
-2 0 -37 24.1 18.8
-4 0 -37 29.8 19.2
-6 0 -37 -6.1 17.4
-8 0 -37 11.9 17.5
-11 1 37 11.1 21.7
-9 -1 37 24.3 20.6
-9 1 37 2.3 21.1
-7 -1 37 77.09 23.1
-7 1 37 54.89 22
-5 -1 37 141.29 25.7
-5 1 37 143.29 25.6
-3 -1 37 539.85 49.8
-3 1 37 578.44 50.69
1 -1 -37 649.74 53.29
1 1 -37 643.04 52.89
-1 -1 -37 136.49 23.6
-1 1 -37 124.79 23.2
-3 -1 -37 4.2 17.6
-3 1 -37 22.1 19.2
-5 -1 -37 597.64 48.1
-5 1 -37 596.64 48.1
-7 -1 -37 12.9 18.1
-7 1 -37 17 18.2
-9 -1 -37 128.99 21.9
-9 1 -37 125.19 21.6
-10 -2 37 -13 19.6
-10 2 37 25.1 21
-8 -2 37 14.6 20.4
-8 2 37 3.6 20.9
-6 -2 37 45.7 21.9
-6 2 37 17.5 21.6
-4 -2 37 24.2 21.7
-4 2 37 10.2 21.4
-2 2 37 1370.56 92.79
0 -2 -37 16.3 20.3
0 2 -37 14.6 19.6
-2 -2 -37 21.1 19.7
-2 2 -37 28.5 19.5
-4 -2 -37 167.78 24.6
-4 2 -37 174.28 24.2
-6 -2 -37 58.79 19.6
-6 2 -37 37.3 19.4
-8 -2 -37 417.96 38.3
-8 2 -37 381.46 37.4
-11 3 37 212.68 28.8
-9 -3 37 14 21.5
-9 3 37 -0.7 20.9
-7 -3 37 44.4 21.4
-7 3 37 19.7 21
-5 -3 37 150.18 26.3
-5 3 37 128.29 25.2
-3 -3 37 59.19 21.8
-3 3 37 32 22.9
-1 -3 37 41.4 34.9
1 -3 -37 21.4 22.3
1 3 -37 23.3 20.6
-1 -3 -37 1637.74 103.89
-1 3 -37 1568.44 103.19
-3 -3 -37 56.19 20.4
-3 3 -37 80.09 20.8
-5 -3 -37 -3.4 17.7
-5 3 -37 3.9 18.2
-7 -3 -37 148.79 23.2
-7 3 -37 169.28 24
-9 -3 -37 331.07 35
-9 3 -37 350.46 35.4
-10 -4 37 10.7 21
-10 4 37 40.8 21.9
-8 -4 37 86.59 23.1
-8 4 37 82.69 24.4
-6 -4 37 129.89 25
-6 4 37 112.69 25
-4 -4 37 64.39 21.7
-4 4 37 110.19 24.6
-2 -4 37 18.5 21.3
2 -4 -37 10.4 24.1
0 -4 -37 181.88 27.3
0 4 -37 197.58 27.5
-2 -4 -37 1701.73 110.79
-2 4 -37 1764.82 110.89
-4 -4 -37 0.1 18.2
-4 4 -37 -15.1 18.1
-6 -4 -37 10.3 18.7
-6 4 -37 33.8 18.2
-8 -4 -37 25.1 18.1
-8 4 -37 -2.3 17.8
-11 5 37 15.4 21.4
-9 -5 37 390.16 40.2
-9 5 37 266.27 33.4
-7 -5 37 65.39 22.3
-7 5 37 56.49 22.9
-5 -5 37 281.47 31.4
-5 5 37 292.37 33.7
-3 -5 37 85.59 23.1
-3 5 37 74.89 24.3
1 -5 -37 442.56 42.1
-1 -5 37 345.17 46.2
-1 -5 -37 386.76 41.2
-1 5 -37 441.96 42
-3 -5 -37 23.4 19.1
-3 5 -37 16.4 19.1
-5 -5 -37 21.4 18.4
-5 5 -37 34.1 18.7
-7 -5 -37 21.2 18.3
-7 5 -37 0.6 17.9
-9 5 -37 443.76 40.4
-10 -6 37 13.5 21.8
-10 6 37 -9.8 21.1
-8 -6 37 -4.3 20.9
-8 6 37 58.99 22.9
-6 -6 37 10.8 20.4
-6 6 37 27.3 22.5
-4 -6 37 39.8 21.1
-4 6 37 38.5 22
-2 -6 37 658.63 56.49
2 -6 -37 715.13 63.99
0 -6 -37 13.7 20.1
0 6 -37 20.8 21.2
-2 -6 -37 -12.8 18.4
-2 6 -37 20.2 19.7
-4 -6 -37 89.89 21
-4 6 -37 107.89 22.2
-6 -6 -37 154.28 23.5
-6 6 -37 198.98 25.7
-8 -6 -37 50.39 19.1
-8 6 -37 84.39 20.2
-11 7 37 -8.7 31.1
-9 -7 37 961.2 70.79
-9 7 37 1002.3 72.09
-7 -7 37 1.9 20.2
-7 7 37 -1.3 21.4
-5 -7 37 112.79 24.6
-5 7 37 64.29 24
-3 -7 37 27 22.2
1 -7 -37 41.1 21.9
-1 -7 -37 40.2 20.9
-1 7 -37 3.8 20.3
-3 -7 -37 28.2 18.7
-3 7 -37 12.2 19.3
-5 -7 -37 1053.69 74.89
-5 7 -37 1160.38 75.59
-7 -7 -37 27.7 18.6
-7 7 -37 -16.3 18.6
-9 7 -37 29.8 19.3
-10 8 37 273.77 33.4
-8 -8 37 429.56 44.7
-8 8 37 504.35 47.1
-6 -8 37 -7.5 20
-6 8 37 14.8 22.6
-4 -8 37 -8 21.6
-4 8 37 65.99 28.1
-2 -8 37 -0.3 20.5
0 -8 -37 32.5 21.3
-2 -8 -37 4.9 19.4
-2 8 -37 26 20.7
-4 -8 -37 12.1 19.3
-4 8 -37 23.9 19.4
-6 -8 -37 357.76 36.6
-6 8 -37 284.37 31.1
-8 -8 -37 41.5 19.6
-8 8 -37 76.09 19.6
-9 -9 37 195.28 27.4
-9 9 37 138.09 28.5
-7 -9 37 70.09 22.9
-7 9 37 63.39 24.1
-5 -9 37 240.48 29.5
-5 9 37 191.48 30
-3 -9 37 60.89 22.2
1 -9 -37 105.29 24.3
-1 -9 -37 -7.2 19.9
-1 9 -37 -1.5 20.4
-3 -9 -37 -7.3 18.7
-3 9 -37 14 19.8
-5 -9 -37 0 18.1
-5 9 -37 14.6 18.5
-7 -9 -37 107.59 20.9
-7 9 -37 78.49 20.5
-9 9 -37 1267.67 84.09
-10 10 37 0.4 22.2
-8 -10 37 30 21.3
-8 10 37 24.2 23.6
-6 -10 37 691.23 55.99
-6 10 37 698.73 58.79
-4 -10 37 6.5 21.4
-2 -10 37 440.66 44.6
0 -10 -37 119.79 23.9
-2 -10 -37 58.29 21.3
-2 10 -37 52.79 21.7
-4 -10 -37 9.3 19.1
-4 10 -37 -1.4 19.5
-6 -10 -37 -24.1 17.2
-6 10 -37 -3 18.3
-8 10 -37 1495.85 96.69
-9 -11 37 111.69 25.2
-9 11 37 169.08 29.3
-7 -11 37 -37 21
-7 11 37 13.1 24.3
-5 -11 37 40.6 22.1
-3 -11 37 11.7 21.2
1 -11 -37 43.8 23.3
-1 -11 -37 38.1 21.1
-3 -11 -37 9.6 19.1
-3 11 -37 -7.3 19.4
-5 -11 -37 40.1 19.8
-5 11 -37 36.7 20
-7 -11 -37 -9.5 18
-7 11 -37 -7.2 18
-10 12 37 120.69 27.7
-8 -12 37 413.86 41.7
-8 12 37 311.17 37.7
-6 -12 37 2.3 21.8
-4 -12 37 41.1 21.5
-2 -12 37 74.49 24.3
0 -12 -37 93.59 23.7
-2 -12 -37 28.9 20.5
-4 -12 -37 16.9 19.7
-4 12 -37 15.4 20
-6 -12 -37 366.16 35.9
-6 12 -37 221.88 29.1
-8 12 -37 52.49 20
-9 13 37 72.29 25.7
-7 -13 37 -16.6 19.7
-5 -13 37 34.2 21.4
-3 -13 37 75.39 23.6
1 -13 -37 79.89 24
-1 -13 -37 46.5 21.6
-3 -13 -37 -8.6 19.1
-3 13 -37 16.2 20.8
-5 -13 -37 570.54 50.19
-5 13 -37 684.23 52.39
-7 13 -37 -13.6 18.7
-10 14 37 64.59 26.2
-8 -14 37 175.78 27.2
-6 -14 37 23.8 22
-4 -14 37 9.3 21.8
0 -14 -37 89.49 24.3
-2 -14 -37 20.9 20.6
-4 -14 -37 18.3 19.3
-4 14 -37 21.7 20.6
-6 -14 -37 -19.4 18.5
-6 14 -37 2.9 20.4
-8 14 -37 -13.4 19.1
-9 15 37 382.16 51.79
-7 -15 37 -7.5 20.2
-5 -15 37 150.18 26.8
-3 -15 37 19.1 22.2
-1 -15 -37 568.04 50.49
-3 -15 -37 6.4 19.7
-5 -15 -37 414.66 42
-5 15 -37 445.26 43
-7 15 -37 60.19 21.7
-10 16 37 40 28.6
-6 -16 37 60.79 23.5
-4 -16 37 27.9 23.1
0 -16 -37 244.88 31.3
-2 -16 -37 672.13 55.19
-4 -16 -37 36.5 21.2
-6 16 -37 -17.6 20
-8 16 -37 192.58 31.6
-7 -17 37 38 22.6
-5 -17 37 33.2 22.4
-1 -17 -37 236.78 31.4
-3 -17 -37 -8.4 20.3
-5 -17 -37 8.5 20.2
-7 17 -37 90.99 24.1
-6 -18 37 67.39 24.4
-4 -18 37 31.9 23.6
0 -18 -37 43.7 23.6
-2 -18 -37 258.67 31.7
-4 -18 -37 17.9 20.3
-5 -19 37 70.39 24.1
-1 -19 -37 211.98 30.5
-3 -19 -37 34.4 21.8
-7 19 -37 4.9 22.1
-6 -20 37 2.3 29
-4 -20 37 -11.3 26.3
-2 -20 -37 0.9 21.6
-5 -21 37 29.8 24.3
-1 -21 -37 35.7 23.2
-3 -21 -37 -18.4 21.8
-2 -22 -37 101.19 25.8
-10 0 38 -25 20.6
-8 0 38 251.97 31.1
-6 0 38 1.9 21.4
-4 0 38 21.6 22.6
-2 0 38 3491.95 219.88
0 0 -38 -0.8 20.3
-2 0 -38 2.9 18.6
-4 0 -38 671.33 52.09
-6 0 -38 269.27 29.3
-8 0 -38 346.57 36.4
-9 -1 38 -10.3 20.4
-9 1 38 -10 20.9
-7 -1 38 57.79 22.2
-7 1 38 62.99 22.1
-5 -1 38 57.59 23
-5 1 38 57.29 23.3
-3 -1 38 877.41 65.69
-3 1 38 822.12 64.69
1 -1 -38 174.38 26.1
1 1 -38 140.09 25.9
-1 -1 -38 134.79 24.8
-1 1 -38 115.39 23.6
-3 -1 -38 -12.7 18.2
-3 1 -38 -5.6 18.8
-5 -1 -38 47.4 19.9
-5 1 -38 59.29 20.8
-7 -1 -38 16.7 18.5
-7 1 -38 -22.3 17.4
-9 -1 -38 102.69 28.5
-9 1 -38 113.89 22.3
-10 -2 38 111.49 24.4
-10 2 38 95.09 24.3
-8 -2 38 -15.4 20.3
-8 2 38 -8.3 21.2
-6 -2 38 365.46 36.5
-6 2 38 319.07 35.2
-4 -2 38 19.3 21.5
-4 2 38 18.6 22.1
-2 -2 38 18.2 20.9
0 -2 -38 493.25 46.5
0 2 -38 521.05 46.3
-2 -2 -38 431.56 41.2
-2 2 -38 398.56 40.9
-4 -2 -38 29.9 19.6
-4 2 -38 20.2 19.7
-6 -2 -38 -14.8 17.8
-6 2 -38 -9.3 17.7
-8 -2 -38 -8.3 18
-8 2 -38 15.2 18.3
-9 -3 38 90.69 23.6
-9 3 38 43.5 22.5
-7 -3 38 30 20.9
-7 3 38 49.99 22.8
-5 -3 38 138.59 26.3
-5 3 38 174.18 27
-3 -3 38 74.39 22.8
-3 3 38 66.99 24.2
1 -3 -38 -24 19.8
-1 -3 -38 1070.59 75.19
-1 3 -38 1096.09 75.39
-3 -3 -38 2.5 18.6
-3 3 -38 24 19
-5 -3 -38 64.69 20.3
-5 3 -38 43.9 19.4
-7 -3 -38 -10.5 17.5
-7 3 -38 14.9 18.7
-9 3 -38 66.69 17.7
-10 -4 38 23.1 21.8
-10 4 38 32.1 22.9
-8 -4 38 52.79 22.4
-8 4 38 53.59 23.7
-6 -4 38 59.19 23.6
-6 4 38 58.39 23.9
-4 -4 38 64.89 21.7
-4 4 38 25.6 22.7
-2 -4 38 11.4 21.7
0 -4 -38 -28.7 19.4
0 4 -38 0.9 20.2
-2 -4 -38 0.5 20.1
-2 4 -38 14.7 19.8
-4 -4 -38 33.4 19.9
-4 4 -38 12.5 18.8
-6 -4 -38 25 19.4
-6 4 -38 32.4 19.1
-8 -4 -38 780.92 57.59
-8 4 -38 785.12 57.69
-9 -5 38 242.08 30.2
-9 5 38 211.48 30.4
-7 -5 38 14 21.4
-7 5 38 4.1 21.2
-5 -5 38 185.38 26.4
-5 5 38 145.49 27.7
-3 -5 38 112.09 24.6
1 -5 -38 19.2 21
-1 -5 -38 629.84 50.19
-1 5 -38 525.85 49.1
-3 -5 -38 39.1 21.1
-3 5 -38 21.3 20.5
-5 -5 -38 631.74 50.29
-5 5 -38 608.94 49.6
-7 -5 -38 83.89 21.4
-7 5 -38 102.09 21.4
-9 5 -38 262.37 28.6
-10 -6 38 234.48 30.2
-10 6 38 278.87 32.8
-8 -6 38 151.08 26.8
-8 6 38 162.38 28.3
-6 -6 38 109.29 24.1
-6 6 38 54.79 23.3
-4 -6 38 -9.1 20.4
-4 6 38 -26.9 21.3
-2 -6 38 146.89 26.8
0 -6 -38 36.8 21.1
0 6 -38 35.4 22.9
-2 -6 -38 28.1 19.6
-2 6 -38 53.89 21.1
-4 -6 -38 339.57 37.3
-4 6 -38 345.67 37.9
-6 -6 -38 185.18 24.6
-6 6 -38 110.19 22.7
-8 -6 -38 12.1 18.3
-8 6 -38 -5.8 18.8
-9 -7 38 414.96 41.9
-9 7 38 293.57 35.9
-7 -7 38 -10.9 20.1
-7 7 38 -18.4 21.2
-5 -7 38 13.9 21.7
-5 7 38 52.89 23.9
-3 -7 38 287.47 34
1 -7 -38 655.13 55.19
-1 -7 -38 33.7 20.7
-1 7 -38 -1.7 21.1
-3 -7 -38 -12 18.1
-3 7 -38 0.2 19.3
-5 -7 -38 101.39 22
-5 7 -38 143.59 24.3
-7 -7 -38 -22.9 17.9
-7 7 -38 -2.3 18.8
-10 8 38 71.69 24.6
-8 -8 38 20.8 20.3
-8 8 38 -4.5 22.2
-6 -8 38 114.79 25
-6 8 38 84.89 25.4
-4 -8 38 1.5 21
-2 -8 38 598.14 53.59
0 -8 -38 17.4 21.7
-2 -8 -38 33.4 20.3
-2 8 -38 18.8 21.1
-4 -8 -38 124.69 23.8
-4 8 -38 110.49 23.1
-6 -8 -38 1.3 18.6
-6 8 -38 2.7 19.2
-8 8 -38 997.4 69.29
-9 -9 38 89.09 23.3
-9 9 38 85.39 26.3
-7 -9 38 37.2 22.2
-7 9 38 -4 22.8
-5 -9 38 3.5 22.1
-3 -9 38 53.59 24.1
1 -9 -38 58.59 24
-1 -9 -38 -21.6 19.4
-3 -9 -38 0.7 18.6
-3 9 -38 -5.9 19.8
-5 -9 -38 116.59 22.6
-5 9 -38 91.09 21.8
-7 -9 -38 46.2 19.5
-7 9 -38 35 19.6
-10 10 38 7.5 23
-8 -10 38 -30.2 19.9
-8 10 38 -3.1 23.6
-6 -10 38 54.29 23.7
-6 10 38 30.2 24.8
-4 -10 38 28.6 21.2
0 -10 -38 104.29 23.8
-2 -10 -38 6.9 19.6
-2 10 -38 14.5 20.6
-4 -10 -38 -8.3 18.2
-4 10 -38 -5.2 19.6
-6 -10 -38 7.1 18.4
-6 10 -38 36.2 20.5
-8 10 -38 196.88 25.8
-9 -11 38 -2.2 29.8
-9 11 38 14.4 24.3
-7 -11 38 138.59 27
-7 11 38 181.58 30.7
-5 -11 38 -2.3 21.2
-3 -11 38 48.9 23
1 -11 -38 -6.5 21
-1 -11 -38 124.49 25.1
-3 -11 -38 78.29 22.5
-3 11 -38 67.59 21.8
-5 -11 -38 169.78 25.2
-5 11 -38 170.08 26.6
-7 -11 -38 441.96 42.1
-7 11 -38 474.05 42.6
-10 12 38 55.79 25.6
-8 -12 38 1.8 21.6
-8 12 38 -18.7 23.5
-6 -12 38 161.88 27.2
-4 -12 38 95.69 25.8
0 -12 -38 94.29 24.9
-2 -12 -38 15.8 20.3
-4 -12 -38 2.7 19.2
-4 12 -38 -16.3 19.1
-6 -12 -38 34.9 19.6
-6 12 -38 26.9 19.9
-8 12 -38 963 67.89
-9 13 38 546.75 53.59
-7 -13 38 -11.4 21.9
-5 -13 38 160.78 27.8
-3 -13 38 1 22.1
-1 -13 -38 2.7 20.7
-3 -13 -38 12.5 20.3
-5 -13 -38 674.53 54.89
-5 13 -38 734.13 56.39
-7 13 -38 -26.6 18.8
-10 14 38 91.29 27.4
-8 -14 38 47.3 24
-6 -14 38 32 21.8
-4 -14 38 81.19 25.1
0 -14 -38 41.1 22.3
-2 -14 -38 33.2 22.1
-4 -14 -38 436.26 42.7
-6 -14 -38 35.8 20.9
-6 14 -38 44.1 21.7
-8 14 -38 17.5 20.6
-7 -15 38 42.3 22.8
-5 -15 38 21.9 22.1
-1 -15 -38 104.79 25
-3 -15 -38 11.6 20.3
-5 -15 -38 100.99 23.1
-5 15 -38 108.89 24.8
-7 15 -38 178.38 27.3
-6 -16 38 169.28 28.5
-4 -16 38 35.6 23.2
0 -16 -38 77.19 24.6
-2 -16 -38 33.8 22
-4 -16 -38 1.3 19.5
-6 16 -38 21.8 22
-7 -17 38 17.9 33.4
-5 -17 38 74.29 24.8
-1 -17 -38 1043.8 75.79
-3 -17 -38 26.2 21.7
-7 17 -38 0.4 20.7
-6 -18 38 49.3 24.4
-4 -18 38 -30.7 21.6
-2 -18 -38 90.29 25.3
-4 -18 -38 6.1 20.4
-5 -19 38 15.4 22.4
-1 -19 -38 17.3 22.3
-3 -19 -38 37.9 22.1
-2 -20 -38 13.1 22.7
-5 -21 38 14.5 24.5
-1 -21 -38 139.69 29.5
-2 -22 -38 82.59 30.8
-10 0 39 -5.9 21.5
-8 0 39 -14.5 20.2
-6 0 39 46.4 22.3
-4 0 39 -26.1 19.6
0 0 -39 31.9 21.8
-2 0 -39 0.3 19.1
-4 0 -39 -27.9 18.6
-6 0 -39 18.1 18.5
-8 0 -39 5 18.3
-9 -1 39 93.39 24
-9 1 39 116.29 25.2
-7 -1 39 40.9 22.6
-7 1 39 20 21.4
-5 -1 39 30.5 21.7
-5 1 39 44.6 22.6
-3 -1 39 479.75 48.4
-3 1 39 473.85 48.6
1 -1 -39 29.7 26.7
-1 -1 -39 101.29 24.1
-1 1 -39 78.79 22.8
-3 -1 -39 29.5 20.4
-3 1 -39 46.3 20.7
-5 -1 -39 185.98 25.9
-5 1 -39 188.48 26.4
-7 -1 -39 107.69 22.2
-7 1 -39 102.79 21.8
-10 -2 39 -20 20
-10 2 39 -13.3 21.3
-8 -2 39 127.39 25.9
-8 2 39 161.38 27.6
-6 -2 39 6.5 20.8
-6 2 39 -34.5 20.3
-4 -2 39 -2 20.9
-4 2 39 32.3 22.7
0 -2 -39 11.8 21.3
0 2 -39 10.3 20.6
-2 -2 -39 12 20.2
-2 2 -39 20.4 20.7
-4 -2 -39 20.8 20.3
-4 2 -39 33.7 19.7
-6 -2 -39 413.26 39
-6 2 -39 360.06 39
-8 -2 -39 288.27 29.8
-8 2 -39 272.87 29.4
-9 -3 39 11.8 21.7
-9 3 39 -4.7 21.1
-7 -3 39 56.89 23.6
-7 3 39 12.6 21.7
-5 -3 39 113.29 25.6
-5 3 39 114.39 24.9
-3 -3 39 3 21.2
1 -3 -39 8 22.3
-1 -3 -39 277.67 33.2
-1 3 -39 388.96 39.5
-3 -3 -39 35.4 20.6
-3 3 -39 14.5 19.5
-5 -3 -39 30.6 19.9
-5 3 -39 7.9 18.9
-7 -3 -39 80.89 20.8
-7 3 -39 43.7 19.6
-10 -4 39 -7 21.2
-10 4 39 13.6 22.6
-8 -4 39 11 22.5
-8 4 39 -12.2 21.4
-6 -4 39 170.78 27.3
-6 4 39 116.59 26.5
-4 -4 39 18.5 20.9
-4 4 39 1.1 23
0 -4 -39 77.29 23.6
0 4 -39 81.99 22.7
-2 -4 -39 30.8 20.3
-2 4 -39 47.7 21.1
-4 -4 -39 50.29 20.3
-4 4 -39 23.5 19.4
-6 -4 -39 2 19.1
-6 4 -39 18.3 19.3
-8 -4 -39 41.8 19.9
-8 4 -39 59.49 19.6
-9 -5 39 87.89 24.3
-9 5 39 100.39 26.1
-7 -5 39 96.89 24.5
-7 5 39 93.99 25.4
-5 -5 39 16.5 20.7
-5 5 39 43.7 24
-3 -5 39 155.98 27.6
1 -5 -39 205.18 28.5
-1 -5 -39 14.9 21.7
-1 5 -39 36.9 22
-3 -5 -39 178.08 26.1
-3 5 -39 176.68 25.9
-5 -5 -39 169.98 24.8
-5 5 -39 102.29 22.9
-7 -5 -39 194.18 26.1
-7 5 -39 161.38 25.1
-10 6 39 -2.1 22.2
-8 -6 39 95.59 25.2
-8 6 39 141.19 27.2
-6 -6 39 38.3 21.7
-6 6 39 -3.7 22
-4 -6 39 198.48 28.8
0 -6 -39 31.8 20.7
-2 -6 -39 -12.8 18.7
-2 6 -39 12 20.1
-4 -6 -39 106.29 22.7
-4 6 -39 128.49 24.4
-6 -6 -39 378.16 37.5
-6 6 -39 342.17 37.6
-8 6 -39 4.7 18.6
-9 -7 39 10 22.3
-9 7 39 16.9 22.7
-7 -7 39 -13.1 20.6
-7 7 39 4.6 22.5
-5 -7 39 -16 21.2
-5 7 39 -18.4 28.3
-3 -7 39 43.7 22.7
1 -7 -39 1077.59 77.19
-1 -7 -39 -25.1 19.8
-1 7 -39 22.8 21
-3 -7 -39 52.99 20.9
-3 7 -39 84.99 23.8
-5 -7 -39 113.19 22.6
-5 7 -39 121.19 22.9
-7 -7 -39 1.1 18.6
-7 7 -39 0.7 18.3
-10 8 39 93.19 26.1
-8 -8 39 15.2 20.7
-8 8 39 15.9 23.7
-6 -8 39 18.1 21.7
-6 8 39 19.7 23.2
-4 -8 39 61.89 23.6
0 -8 -39 241.68 31
-2 -8 -39 -22.9 19.7
-2 8 -39 -22 19.2
-4 -8 -39 422.76 41.7
-4 8 -39 402.96 42.5
-6 -8 -39 15.4 20.1
-6 8 -39 9.7 19.5
-8 8 -39 39.2 20.7
-9 -9 39 -0.8 21
-9 9 39 25.7 23.7
-7 -9 39 80.29 23.7
-7 9 39 74.99 26.3
-5 -9 39 613.04 53.79
-3 -9 39 17 22.3
1 -9 -39 210.38 39.7
-1 -9 -39 -4.9 20.5
-3 -9 -39 212.08 27.9
-3 9 -39 204.78 28.4
-5 -9 -39 24.7 20
-5 9 -39 45.9 19.9
-7 -9 -39 174.48 25
-7 9 -39 206.18 26.3
-10 10 39 23.7 23.9
-8 -10 39 48.4 22.3
-8 10 39 61.59 25.5
-6 -10 39 -5.8 21.6
-4 -10 39 814.52 64.09
0 -10 -39 6.6 21.8
-2 -10 -39 199.48 27.8
-2 10 -39 166.48 37.9
-4 -10 -39 -29.8 18.5
-4 10 -39 -12.9 19.6
-6 -10 -39 39.1 20.2
-6 10 -39 61.69 21.3
-8 10 -39 983.6 68.89
-9 11 39 15.5 24
-7 -11 39 48.5 23
-5 -11 39 135.99 27
-3 -11 39 9 23
-1 -11 -39 8.2 20.9
-3 -11 -39 74.89 21.9
-3 11 -39 54.49 22.7
-5 -11 -39 142.49 24.2
-5 11 -39 132.09 25
-7 11 -39 46.6 20.5
-10 12 39 106.89 28.3
-8 -12 39 6.7 22.1
-6 -12 39 -7.8 22.8
-4 -12 39 17.3 22.1
0 -12 -39 87.39 24.7
-2 -12 -39 8.4 20.5
-4 -12 -39 222.08 29
-4 12 -39 239.08 30.3
-6 -12 -39 -1.4 18.7
-6 12 -39 -0.4 19.5
-8 12 -39 14.3 20.4
-9 13 39 26.6 25.5
-7 -13 39 40.9 23
-5 -13 39 95.39 24.8
-1 -13 -39 -17.9 20.7
-3 -13 -39 40.2 20.8
-5 -13 -39 14.3 19.7
-5 13 -39 11.7 21.2
-7 13 -39 -8.2 19.4
-6 -14 39 27.2 23.5
-4 -14 39 9.5 22.2
0 -14 -39 9.6 22.5
-2 -14 -39 -17.3 20.6
-4 -14 -39 2.2 20.4
-6 14 -39 372.26 41.2
-7 -15 39 30.6 22.8
-5 -15 39 63.59 24.5
-1 -15 -39 74.39 24.5
-3 -15 -39 42.4 22
-5 -15 -39 196.68 27.6
-7 15 -39 36.2 21.7
-6 -16 39 64.69 23.8
-4 -16 39 93.09 25.1
-2 -16 -39 28.6 22.7
-4 -16 -39 27.8 21.3
-6 16 -39 6.9 21.7
-5 -17 39 159.48 29.1
-1 -17 -39 26.3 24
-3 -17 -39 14.5 21.9
-7 17 -39 44.9 22.7
-6 -18 39 15.2 22.8
-2 -18 -39 16.3 22.5
-5 -19 39 29.6 24.1
-1 -19 -39 20.1 23
-3 -19 -39 38.8 22.6
-2 -20 -39 25.1 22.8
-10 0 40 146.69 27.1
-8 0 40 221.08 29.6
-6 0 40 -4.7 22.1
-4 0 40 -3.2 22.9
0 0 -40 28.9 22.6
-2 0 -40 113.29 23.8
-4 0 -40 98.59 23.3
-6 0 -40 2118.29 132.39
-8 0 -40 0.3 18.7
-9 -1 40 110.99 25.9
-9 1 40 228.98 29.8
-7 -1 40 0.4 21.8
-7 1 40 2.3 22.1
-5 -1 40 178.78 29.1
-5 1 40 136.79 27.3
-1 -1 -40 10.1 20.7
-1 1 -40 -8.5 20.8
-3 -1 -40 66.79 21.7
-3 1 -40 27.9 20.7
-5 -1 -40 946.31 69.59
-5 1 -40 1049.99 69.99
-7 -1 -40 3.5 18.6
-7 1 -40 5.6 18.6
-10 -2 40 47.8 26.6
-10 2 40 21.6 22.4
-8 -2 40 30.9 23.1
-8 2 40 8.3 23
-6 -2 40 8.3 22.7
-6 2 40 28.8 22.1
-4 -2 40 54.39 24.8
-4 2 40 31 24.1
0 -2 -40 12.5 21.3
0 2 -40 30.6 21.8
-2 -2 -40 896.51 67.69
-2 2 -40 971.1 68.29
-4 -2 -40 9.8 19.8
-4 2 -40 4.3 19.2
-6 -2 -40 14 19.7
-6 2 -40 9.5 19.9
-8 -2 -40 313.27 35.1
-8 2 -40 397.86 37.9
-9 -3 40 27.9 22.5
-9 3 40 37.3 23.2
-7 -3 40 4.1 21.4
-7 3 40 7.8 22.5
-5 -3 40 256.67 32
-5 3 40 201.08 30.8
-3 -3 40 -6.8 28.8
-1 -3 -40 112.49 25.3
-1 3 -40 193.88 27.5
-3 -3 -40 388.76 41.2
-3 3 -40 419.66 41.6
-5 -3 -40 20.1 19.9
-5 3 -40 64.29 20.5
-7 -3 -40 -2.5 18.9
-7 3 -40 -15.4 18.5
-10 4 40 35.4 23.6
-8 -4 40 52.39 22.7
-8 4 40 21.7 23.1
-6 -4 40 115.99 25.3
-6 4 40 136.19 26.7
-4 -4 40 259.07 31.4
0 -4 -40 9.1 22.3
-2 -4 -40 55.89 22.8
-2 4 -40 82.59 23.2
-4 -4 -40 47.5 20.7
-4 4 -40 12.4 19.9
-6 -4 -40 25.2 20.5
-6 4 -40 13.8 18.9
-8 4 -40 67.69 20.7
-9 -5 40 210.18 29.2
-9 5 40 142.99 29.1
-7 -5 40 -18.4 21.6
-7 5 40 6.5 23.3
-5 -5 40 156.18 26.9
-5 5 40 153.78 29.1
-3 -5 40 16.5 24.4
-1 -5 -40 -24.2 20.1
-1 5 -40 -14.1 20.9
-3 -5 -40 32.1 21.1
-3 5 -40 98.89 23.5
-5 -5 -40 25 20
-5 5 -40 -3.9 19.1
-7 -5 -40 42.8 20.2
-7 5 -40 14.6 19.3
-10 6 40 18.2 22.9
-8 -6 40 159.18 28
-8 6 40 181.18 29.8
-6 -6 40 -3.6 21.8
-6 6 40 8.4 23.3
-4 -6 40 6.2 22.1
0 -6 -40 8.3 21.8
-2 -6 -40 381.96 41.7
-2 6 -40 433.86 43.2
-4 -6 -40 160.98 25.1
-4 6 -40 120.39 24.1
-6 -6 -40 -14 18
-6 6 -40 10.2 19.3
-8 6 -40 38.9 19.9
-9 -7 40 36.2 23.1
-9 7 40 -14.9 23.1
-7 -7 40 -12.6 21.1
-7 7 40 34.4 24.3
-5 -7 40 108.09 24.9
-3 -7 40 114.09 30.7
-1 -7 -40 -28.7 20.8
-3 -7 -40 39.3 20.9
-3 7 -40 10.2 21.1
-5 -7 -40 562.34 47.7
-5 7 -40 536.05 47.7
-7 -7 -40 5.3 19.2
-7 7 -40 -1.4 19.7
-10 8 40 2.2 23.3
-8 -8 40 39.1 22.1
-8 8 40 18.7 22.7
-6 -8 40 61.09 24
-4 -8 40 434.36 46.9
0 -8 -40 57.29 24.2
-2 -8 -40 149.29 25.9
-2 8 -40 128.19 26.7
-4 -8 -40 26.3 20.7
-4 8 -40 -22.2 20.1
-6 -8 -40 566.74 51.89
-6 8 -40 729.53 53.59
-8 8 -40 70.79 21.9
-9 9 40 36.9 25.2
-7 -9 40 11.9 21.3
-7 9 40 24.8 24.1
-5 -9 40 254.67 32
-1 -9 -40 63.09 23.3
-3 -9 -40 16.8 19.9
-3 9 -40 30.7 21.1
-5 -9 -40 60.59 21.2
-5 9 -40 52.69 21.4
-7 9 -40 64.09 22
-10 10 40 12.3 24.8
-8 -10 40 -8.5 20.8
-8 10 40 4.5 24.2
-6 -10 40 39.4 22.8
-4 -10 40 103.99 26.4
0 -10 -40 11.8 22.4
-2 -10 -40 61.19 22.6
-4 -10 -40 7.5 20
-4 10 -40 -4.2 19.5
-6 -10 -40 28.6 20
-6 10 -40 21.7 20.2
-8 10 -40 14 33.9
-9 11 40 -4.1 24.2
-7 -11 40 7.1 22.3
-5 -11 40 952.6 71.59
-1 -11 -40 288.17 33.8
-3 -11 -40 23.3 20.6
-3 11 -40 24.6 26.4
-5 -11 -40 93.79 23.4
-5 11 -40 117.89 24.5
-7 11 -40 66.09 21.6
-8 -12 40 -4.2 21.7
-6 -12 40 131.09 27.3
-4 -12 40 200.58 31
0 -12 -40 -3.5 22.6
-2 -12 -40 235.38 30.8
-4 -12 -40 53.59 21.8
-4 12 -40 -14.1 20.5
-6 12 -40 243.78 30.1
-7 -13 40 12.7 23.2
-5 -13 40 159.28 29.5
-1 -13 -40 -1.4 21.1
-3 -13 -40 16.1 21.3
-5 -13 -40 225.58 30.3
-5 13 -40 373.06 39
-7 13 -40 -2 19.8
-6 -14 40 -34.7 21.1
-4 -14 40 31.6 23.5
-2 -14 -40 104.89 25.1
-4 -14 -40 12.3 20.5
-6 14 -40 45.8 22.7
-7 -15 40 7.2 22.9
-5 -15 40 49.4 23.8
-1 -15 -40 26.9 22.2
-3 -15 -40 22.6 21.3
-7 15 -40 62.39 23.8
-6 -16 40 61.19 25.3
-2 -16 -40 393.46 44.2
-4 -16 -40 4.5 20.9
-6 16 -40 7.4 38
-5 -17 40 16 23.5
-1 -17 -40 66.89 26
-3 -17 -40 186.38 29.1
-6 -18 40 3.8 28.1
-2 -18 -40 50.49 24.5
-2 -20 -40 47.5 24.4
-8 0 41 5.9 22.1
-6 0 41 9.2 22.5
0 0 -41 -5.3 29.8
-2 0 -41 -9.3 20.5
-4 0 -41 30.6 20.5
-6 0 -41 29.6 19.7
-9 -1 41 113.59 26.2
-9 1 41 147.79 28.3
-7 -1 41 11.6 22.2
-7 1 41 11.1 22.8
-5 -1 41 123.89 25.8
-5 1 41 152.78 28.5
-1 -1 -41 196.38 28.6
-1 1 -41 181.28 28.7
-3 -1 -41 41.1 20.9
-3 1 -41 14.5 20.2
-5 -1 -41 1474.05 96.89
-5 1 -41 1486.25 96.79
-7 -1 -41 59.39 20.5
-7 1 -41 25.1 19.5
-10 2 41 33.6 27.7
-8 -2 41 -10.8 21.3
-8 2 41 18.4 23.3
-6 -2 41 131.19 27.5
-6 2 41 167.78 28.5
-4 -2 41 187.58 30.7
0 -2 -41 -8.8 22.4
-2 -2 -41 62.59 22.6
-2 2 -41 67.79 23.6
-4 -2 -41 193.18 26.7
-4 2 -41 178.38 26.2
-6 -2 -41 565.84 48.4
-6 2 -41 563.64 47.8
-9 -3 41 44.7 23
-9 3 41 17.2 23.9
-7 -3 41 -11.8 21.9
-7 3 41 -5 22.8
-5 -3 41 464.05 50.29
-5 3 41 564.64 51.29
-1 -3 -41 254.47 30.4
-1 3 -41 152.88 28.4
-3 -3 -41 151.38 25.7
-3 3 -41 156.28 26.1
-5 -3 -41 109.69 24
-5 3 -41 146.29 25.2
-7 -3 -41 48.9 20
-7 3 -41 68.39 21.3
-10 4 41 25.8 25.1
-8 -4 41 171.48 27.7
-8 4 41 112.79 27.6
-6 -4 41 27.2 23.3
-6 4 41 57.79 24.2
-4 -4 41 286.77 33.5
0 -4 -41 15.4 22.1
-2 -4 -41 1144.69 79.29
-2 4 -41 1129.89 79.19
-4 -4 -41 -2.5 20
-4 4 -41 15.2 20.1
-6 -4 -41 -12.7 18.9
-6 4 -41 -10.5 19.5
-8 4 -41 252.57 37.8
-9 -5 41 11.7 21.9
-9 5 41 -25 22.4
-7 -5 41 67.29 25.2
-7 5 41 25.8 24.5
-5 -5 41 59.89 23.6
-1 -5 -41 92.99 24
-3 -5 -41 -6.4 20.8
-3 5 -41 8.1 20.1
-5 -5 -41 272.37 31
-5 5 -41 250.67 30.6
-7 -5 -41 18.8 19.7
-7 5 -41 14.8 19.4
-10 6 41 67.29 30.3
-8 -6 41 31.6 23.5
-8 6 41 -12.2 24
-6 -6 41 -2.4 22.1
-6 6 41 0.6 38.6
-4 -6 41 -0.6 22.8
0 -6 -41 30.2 22.9
-2 -6 -41 34.1 22
-2 6 -41 -1 21.6
-4 -6 -41 273.07 31.2
-4 6 -41 296.67 32.7
-6 -6 -41 199.18 27.2
-6 6 -41 263.67 29.2
-9 -7 41 186.18 34
-9 7 41 175.18 30.3
-7 -7 41 -14.2 21.5
-7 7 41 2.4 23.6
-5 -7 41 42.7 23
-1 -7 -41 -22.4 21.7
-3 -7 -41 -28.3 20.1
-3 7 -41 15.9 21.9
-5 -7 -41 187.58 26.6
-5 7 -41 193.98 28.2
-7 7 -41 51.89 21.1
-8 -8 41 39.4 22.3
-8 8 41 24.2 24.5
-6 -8 41 21.5 22.7
-4 -8 41 25.6 23.9
0 -8 -41 48.8 24.3
-2 -8 -41 22.7 22.2
-4 -8 -41 4.1 21.3
-4 8 -41 1 21.8
-6 -8 -41 187.88 27.3
-6 8 -41 211.18 28.2
-9 9 41 -3.5 24.4
-7 -9 41 -10 20.8
-5 -9 41 994.1 73.99
-1 -9 -41 107.39 25.1
-3 -9 -41 72.69 22.6
-3 9 -41 75.29 23.8
-5 -9 -41 541.65 48.2
-5 9 -41 605.44 50.99
-7 9 -41 0.6 20.5
-8 -10 41 18.8 22.2
-6 -10 41 516.75 50.19
-4 -10 41 445.86 47.7
0 -10 -41 21.1 22.1
-2 -10 -41 42.2 22.6
-4 -10 -41 15.1 20.9
-4 10 -41 -7 20.6
-6 -10 -41 94.39 20.4
-6 10 -41 103.29 22.9
-9 11 41 42.7 28.4
-7 -11 41 -9.7 22.6
-5 -11 41 144.09 27.3
-1 -11 -41 71.39 24.4
-3 -11 -41 -10.3 20.4
-5 -11 -41 102.99 22.9
-5 11 -41 58.59 21.1
-7 11 -41 -6.1 19.8
-6 -12 41 63.09 25.1
-2 -12 -41 54.19 23.2
-4 -12 -41 -5.1 19.7
-4 12 -41 21.9 37.2
-6 12 -41 26.3 21.7
-7 -13 41 -19.6 22.7
-5 -13 41 58.89 24.2
-1 -13 -41 49.1 24
-3 -13 -41 9.5 21
-5 -13 -41 404.56 42.4
-5 13 -41 416.86 44.3
-7 13 -41 16 21.7
-6 -14 41 -11.5 23.7
-2 -14 -41 73.69 24.4
-4 -14 -41 155.58 26.6
-6 14 -41 207.28 29.7
-5 -15 41 42.5 24.7
-1 -15 -41 164.68 29.4
-3 -15 -41 103.09 25.1
-6 -16 41 31.3 23.9
-2 -16 -41 478.05 48.3
-1 -17 -41 58.89 27.4
-3 -17 -41 60.89 24.4
-2 -18 -41 48.4 25.1
-8 0 42 714.23 59.39
-6 0 42 27.8 24.4
-2 0 -42 34.2 22.5
-4 0 -42 650.23 52.99
-6 0 -42 114.99 22.9
-9 -1 42 40.5 23.9
-9 1 42 25.1 24
-7 -1 42 150.28 28.3
-7 1 42 124.69 27.1
-5 -1 42 272.47 34.6
-1 -1 -42 85.89 25.2
-1 1 -42 98.79 25.2
-3 -1 -42 10.8 21.2
-3 1 -42 78.89 22.8
-5 -1 -42 511.75 48
-5 1 -42 613.24 49.1
-7 -1 -42 30.7 20.2
-7 1 -42 34.8 20
-8 -2 42 11.3 23.5
-8 2 42 19.9 23.8
-6 -2 42 44.2 23.5
-6 2 42 8.2 22.7
-2 -2 -42 268.07 32.2
-2 2 -42 309.07 33.8
-4 -2 -42 -19.9 20
-4 2 -42 -22.4 19.3
-6 -2 -42 -12.8 18.8
-6 2 -42 -32.4 19.1
-9 -3 42 20 23.4
-9 3 42 -4.6 23.4
-7 -3 42 18.8 24
-7 3 42 23.7 24.3
-5 -3 42 42.2 24.4
-1 -3 -42 147.99 26.5
-3 -3 -42 56.69 22.9
-3 3 -42 80.09 23.7
-5 -3 -42 26.4 20
-5 3 -42 16 20.1
-7 -3 -42 19.1 20.1
-7 3 -42 2.4 19.4
-8 -4 42 29.2 23.1
-8 4 42 -11.9 23.3
-6 -4 42 211.68 32.2
-6 4 42 196.08 39.6
-2 -4 -42 143.19 26.6
-2 4 -42 90.59 24.4
-4 -4 -42 161.48 26.8
-4 4 -42 150.98 25.8
-6 -4 -42 -8.2 19.8
-6 4 -42 14 19.6
-9 -5 42 83.09 25.4
-9 5 42 66.39 26.1
-7 -5 42 -15 22.6
-7 5 42 21.3 24.4
-5 -5 42 159.28 27.8
-1 -5 -42 30.3 22.5
-3 -5 -42 146.59 26.3
-3 5 -42 177.98 26.7
-5 -5 -42 22.1 20.8
-5 5 -42 -0.6 20.1
-7 5 -42 21.8 19.9
-8 -6 42 75.19 26
-8 6 42 85.79 27
-6 -6 42 42.1 23.9
-2 -6 -42 150.58 26.6
-2 6 -42 180.78 28.5
-4 -6 -42 -8.9 19.3
-4 6 -42 26.5 21
-6 -6 -42 344.07 38.1
-6 6 -42 327.77 34.1
-9 7 42 65.79 26
-7 -7 42 41.9 23.8
-5 -7 42 67.49 24.7
-1 -7 -42 47.4 23.3
-3 -7 -42 13.7 21.9
-3 7 -42 -0.3 21.4
-5 -7 -42 597.74 50.39
-7 7 -42 0.9 19.3
-8 -8 42 99.49 25.4
-8 8 42 134.29 29.7
-6 -8 42 4.8 20.9
-2 -8 -42 158.58 28.1
-4 -8 -42 13.2 20.9
-4 8 -42 11.5 21.3
-6 -8 -42 -17.5 20.3
-6 8 -42 -31.6 20.5
-9 9 42 8 24.7
-7 -9 42 5.3 22
-5 -9 42 64.39 25.9
-1 -9 -42 1.5 21.6
-3 -9 -42 158.68 26.6
-5 -9 -42 -1.9 20.1
-5 9 -42 8.4 21.3
-7 9 -42 90.39 23.1
-8 -10 42 7.9 24.3
-6 -10 42 46.5 25.2
-2 -10 -42 53.09 23.7
-4 -10 -42 15.7 21
-4 10 -42 27.9 23.1
-6 10 -42 49.6 22.3
-7 -11 42 13.4 23.2
-5 -11 42 189.18 31.9
-1 -11 -42 21 23.2
-3 -11 -42 745.93 59.49
-5 -11 -42 141.89 24.7
-5 11 -42 70.49 23.4
-7 11 -42 8.1 21
-6 -12 42 41.1 26
-2 -12 -42 108.59 26.5
-4 -12 -42 18.9 21.1
-6 12 -42 60.79 23.4
-7 -13 42 42.5 24.7
-5 -13 42 20 24.8
-1 -13 -42 -29.7 21.9
-3 -13 -42 46.8 23.1
-6 -14 42 -25.5 22.5
-2 -14 -42 92.29 25.4
-4 -14 -42 17.9 21.5
-6 14 -42 221.38 30.5
-1 -15 -42 5.1 23.5
-3 -15 -42 114.39 26.1
-6 -16 42 49.3 24.9
-2 -16 -42 17.7 23.3
-3 -17 -42 13.2 27.3
-2 -18 -42 93.19 27
-8 0 43 49.3 24.2
-6 0 43 -4 23.5
-2 0 -43 4 22.4
-4 0 -43 10.6 21
-6 0 -43 1.3 19.6
-9 -1 43 143.69 27.4
-9 1 43 97.29 27.3
-7 -1 43 262.67 33.4
-7 1 43 280.37 34.5
-1 -1 -43 7.9 22.9
-3 -1 -43 30.5 22.7
-3 1 -43 36.5 22.3
-5 -1 -43 71.29 22.4
-5 1 -43 41.6 21
-7 -1 -43 28.8 31.9
-7 1 -43 9.9 19.4
-8 -2 43 488.85 51.49
-8 2 43 592.14 53.79
-6 -2 43 17.3 24.3
-2 -2 -43 528.95 48.4
-2 2 -43 472.25 48
-4 -2 -43 19.8 21.9
-4 2 -43 4.9 21.4
-6 -2 -43 16.9 20.5
-6 2 -43 0.8 19.5
-9 -3 43 43.4 26
-9 3 43 45.4 25.6
-7 -3 43 -3.5 22.6
-7 3 43 27.7 25.1
-1 -3 -43 242.58 32.2
-3 -3 -43 231.48 29.6
-3 3 -43 200.58 29
-5 -3 -43 52.99 22.3
-5 3 -43 13.4 20.7
-7 3 -43 9.9 20
-8 -4 43 4.8 22.6
-8 4 43 -6.5 24
-6 -4 43 91.19 27.4
-2 -4 -43 31.2 22.7
-2 4 -43 35.9 23
-4 -4 -43 1.1 20.9
-4 4 -43 10.1 21.4
-6 -4 -43 168.88 26.3
-6 4 -43 178.38 26.3
-9 5 43 15 25.3
-7 -5 43 116.39 27
-5 -5 43 134.39 28.6
-1 -5 -43 14.5 22.4
-3 -5 -43 233.38 31.4
-3 5 -43 246.68 31.3
-5 -5 -43 166.28 26.6
-5 5 -43 198.88 28
-7 5 -43 -14.5 19.6
-8 -6 43 185.58 29.2
-8 6 43 122.39 29.7
-6 -6 43 10.1 23.8
-2 -6 -43 49 22.6
-4 -6 -43 78.89 23
-4 6 -43 51.49 23.6
-6 -6 -43 57.29 21.7
-6 6 -43 69.29 23
-9 7 43 52.49 26.1
-7 -7 43 -9.8 23.1
-5 -7 43 19.2 24.1
-1 -7 -43 16.1 22.4
-3 -7 -43 5.6 21.8
-3 7 -43 -0.6 22.9
-5 -7 -43 202.88 29.1
-5 7 -43 295.97 32.3
-7 7 -43 134.39 25.1
-8 -8 43 3.4 22.3
-6 -8 43 34.7 23.7
-2 -8 -43 73.29 25
-4 -8 -43 -15.3 20.8
-4 8 -43 3.3 22.3
-7 -9 43 12.8 23.1
-5 -9 43 -1 30.4
-1 -9 -43 57.59 24.1
-3 -9 -43 1273.97 87.29
-5 -9 -43 136.39 24.9
-5 9 -43 125.29 25.7
-7 9 -43 5.9 30.4
-6 -10 43 19.2 24.3
-2 -10 -43 1617.44 106.89
-4 -10 -43 86.59 24.6
-4 10 -43 91.49 29.3
-6 10 -43 2.4 22.9
-7 -11 43 34.5 24.6
-1 -11 -43 -29.4 21.8
-3 -11 -43 312.47 34.9
-5 11 -43 129.09 26.4
-6 -12 43 55.39 25.6
-2 -12 -43 35.3 24
-4 -12 -43 -7.1 20.7
-6 12 -43 469.75 46.4
-1 -13 -43 10.3 27.3
-3 -13 -43 49.5 24.4
-6 -14 43 27.8 26.6
-2 -14 -43 -17.2 22.3
-3 -15 -43 29.5 23.5
-2 -16 -43 143.09 28.2
-2 -18 -43 94.69 29.5
-8 0 44 1076.89 78.59
-2 0 -44 204.08 30.6
-4 0 -44 19.8 21.9
-6 0 -44 177.08 26.7
-9 -1 44 175.68 43.3
-9 1 44 155.88 29.9
-7 -1 44 24.7 24.9
-7 1 44 20.2 24.4
-3 -1 -44 138.69 27.2
-3 1 -44 101.79 26
-5 -1 -44 2.1 21.2
-5 1 -44 29 21.2
-8 -2 44 21.1 24.6
-8 2 44 35.1 25.5
-6 -2 44 199.58 33.2
-2 -2 -44 2.7 22.2
-2 2 -44 -11.6 22.3
-4 -2 -44 116.29 25.5
-4 2 -44 156.98 26.9
-6 -2 -44 11 20.4
-6 2 -44 -27.1 19.2
-9 3 44 56.99 26.5
-7 -3 44 -10.3 23.4
-3 -3 -44 92.69 25.1
-3 3 -44 41.8 23.2
-5 -3 -44 -21.3 19.9
-5 3 -44 -13.9 20.5
-8 -4 44 2.2 24
-8 4 44 20.7 25.3
-6 -4 44 -11.6 23.5
-2 -4 -44 1213.98 84.79
-4 -4 -44 32.2 22.7
-4 4 -44 49.3 23.3
-6 -4 -44 5.1 20.6
-6 4 -44 -4.9 21.1
-9 5 44 47.9 26.4
-7 -5 44 44.3 24.7
-1 -5 -44 94.29 27
-3 -5 -44 181.08 28.5
-3 5 -44 195.58 28.8
-5 -5 -44 214.58 29.2
-5 5 -44 189.38 28.5
-8 -6 44 31 24.7
-6 -6 44 27.5 24.9
-2 -6 -44 -20.6 22
-4 -6 -44 17.6 21
-4 6 -44 -10.9 21.5
-6 6 -44 391.96 41.9
-9 7 44 61.29 28.5
-7 -7 44 260.67 34.3
-1 -7 -44 6.7 23.3
-3 -7 -44 29 22.6
-5 -7 -44 132.79 25.1
-5 7 -44 120.99 25.5
-6 -8 44 -29.5 22.2
-2 -8 -44 1004.6 74.59
-4 -8 -44 33.3 22.7
-4 8 -44 -14.5 21.4
-6 8 -44 94.69 25
-7 -9 44 17.7 23.8
-1 -9 -44 64.19 34
-3 -9 -44 172.18 28.2
-5 -9 -44 126.89 26.6
-5 9 -44 149.99 28.1
-6 -10 44 -5.2 23.1
-2 -10 -44 230.98 32
-4 -10 -44 -6.9 21.4
-6 10 -44 -39.1 21.4
-7 -11 44 7.4 23.6
-3 -11 -44 680.83 57.09
-5 11 -44 15.8 27.2
-6 -12 44 58.49 27.1
-2 -12 -44 756.22 61.99
-4 -12 -44 15.1 22.7
-6 12 -44 13.3 22.9
-3 -13 -44 -10.6 22
-2 -14 -44 3.9 23.1
-3 -15 -44 80.19 37
-8 0 45 27.7 24.6
-2 0 -45 -28.3 21.9
-4 0 -45 11.8 21.8
-6 0 -45 -13.4 20.7
-7 -1 45 28.1 25.2
-3 -1 -45 25.6 23.3
-3 1 -45 15.9 22.9
-5 -1 -45 31.8 22.3
-5 1 -45 25.6 22.1
-8 -2 45 85.29 27.3
-8 2 45 126.89 29.3
-2 -2 -45 247.48 32
-4 -2 -45 7.2 21.2
-4 2 -45 9.6 22.1
-6 -2 -45 34.6 26.4
-6 2 -45 32 21.7
-7 -3 45 25.7 25.4
-3 -3 -45 625.54 52.99
-3 3 -45 540.85 52.49
-5 -3 -45 28.1 21.6
-5 3 -45 16.6 22.6
-8 -4 45 14.8 25.1
-2 -4 -45 54.99 24.4
-4 -4 -45 97.59 24.6
-4 4 -45 105.69 25.6
-6 4 -45 8.6 21.6
-7 -5 45 133.19 29.5
-3 -5 -45 66.29 24.5
-5 -5 -45 22.2 22.2
-5 5 -45 46.1 22.7
-8 -6 45 41.1 31.3
-2 -6 -45 -2.8 22.3
-4 -6 -45 2.7 21.1
-4 6 -45 12.4 22.1
-6 6 -45 26.6 22.1
-7 -7 45 226.98 33.4
-3 -7 -45 -10.8 22.1
-5 -7 -45 253.17 32.2
-5 7 -45 315.47 34.6
-2 -8 -45 33 25
-4 -8 -45 87.89 25.3
-6 8 -45 27 22.2
-7 -9 45 100.09 26.7
-3 -9 -45 160.58 28.1
-5 9 -45 -15.2 22.2
-2 -10 -45 1029.3 75.99
-4 -10 -45 19 22.7
-6 10 -45 44.7 23.5
-3 -11 -45 3.1 22.7
-2 -12 -45 8.6 24.2
-3 -13 -45 -10.8 21.8
-2 -14 -45 -4.6 23.1
-8 0 46 67.49 26.9
-4 0 -46 30.8 22.5
-3 -1 -46 57.69 24.6
-3 1 -46 43.1 24
-5 -1 -46 5.1 21.8
-5 1 -46 8.3 21.4
-8 -2 46 -3.9 25.1
-4 -2 -46 73.09 24.5
-4 2 -46 80.29 25.6
-3 -3 -46 490.75 50.99
-3 3 -46 569.44 55.19
-5 -3 -46 13.4 22.7
-5 3 -46 31.9 23.1
-8 -4 46 14.5 30
-2 -4 -46 89.29 26.6
-4 -4 -46 51.49 23.9
-4 4 -46 24.9 23.7
-7 -5 46 93.99 43.9
-3 -5 -46 141.29 27.1
-5 -5 -46 22.2 22.9
-5 5 -46 -15 21.8
-2 -6 -46 85.09 26.3
-4 -6 -46 16.1 23.1
-4 6 -46 -0.1 22.8
-7 -7 46 79.39 29
-3 -7 -46 5.7 23.2
-5 7 -46 -14.5 21.9
-2 -8 -46 72.49 26
-4 -8 -46 40.4 24.8
-7 -9 46 99.49 30.3
-3 -9 -46 11.6 23.1
-5 9 -46 -18.8 29
-2 -10 -46 39.8 23.9
-3 -11 -46 23.8 23.7
-4 0 -47 6 22.5
-3 -1 -47 122.69 27.2
-3 1 -47 127.29 32.7
-5 -1 -47 8.4 22.7
-5 1 -47 25.6 22.9
-4 -2 -47 18.5 23.9
-4 2 -47 13.2 23.7
-3 -3 -47 77.19 26.1
-5 -3 -47 14.3 32.2
-5 3 -47 1.5 22.2
-4 -4 -47 -14.5 22
-4 4 -47 42.3 24.2
-3 -5 -47 104.19 26.5
-5 5 -47 13.2 22.6
-4 -6 -47 34 23.4
-3 -7 -47 52.59 24.4
-5 7 -47 287.47 34.4
-4 -8 -47 43.8 36.9
-3 -9 -47 29.8 24.3
-3 -11 -47 52.19 25.9
-4 0 -48 -0.5 23.6
-5 1 -48 23.9 35
-4 -2 -48 229.98 32.3
-4 2 -48 260.87 32.9
-3 -3 -48 17.7 24.7
-5 3 -48 -16.4 23.9
-4 -4 -48 2.3 23.4
-3 -5 -48 8.6 22.7
-5 5 -48 60.89 25.1
-4 -6 -48 1.4 32.3
-3 -7 -48 3.1 24.4
-3 -9 -48 1.9 23.4
-4 0 -49 9.2 24.1
-4 -2 -49 24.4 23.4
