#------------------------------------------------------------------------------
#$Date: 2018-01-17 01:36:11 +0200 (Wed, 17 Jan 2018) $
#$Revision: 205264 $
#$URL: file:///home/coder/svn-repositories/cod/cif/4/12/70/4127026.cif $
#------------------------------------------------------------------------------
#
# This file is available in the Crystallography Open Database (COD),
# http://www.crystallography.net/
#
# All data on this site have been placed in the public domain by the
# contributors.
#
data_4127026
loop_
_publ_author_name
'Zhu, Jie'
'Usov, Pavel M.'
'Xu, Wenqian'
'Celis-Salazar, Paula J'
'Lin, Shaoyang'
'Kessinger, Matthew C.'
'Landaverde-Alvarado, Carlos'
'Cai, Meng'
'May, Ann M.'
'Slebodnick, Carla'
'Zhu, Dunru'
'Senanayake, Sanjaya D.'
'Morris, Amanda J.'
_publ_section_title
;
 A New Class of Metal-Cyclam based Zirconium Metal-Organic Frameworks for
 CO2 Adsorption and Chemical Fixation.
;
_journal_name_full               'Journal of the American Chemical Society'
_journal_paper_doi               10.1021/jacs.7b10643
_journal_year                    2017
_chemical_formula_moiety         'C12 H24 Cl2 N4 Ni O4, 2(C3 H7 N O)'
_chemical_formula_sum            'C18 H38 Cl2 N6 Ni O6'
_chemical_formula_weight         564.15
_space_group_crystal_system      triclinic
_space_group_IT_number           2
_space_group_name_Hall           '-P 1'
_space_group_name_H-M_alt        'P -1'
_symmetry_space_group_name_Hall  '-P 1'
_symmetry_space_group_name_H-M   'P -1'
_atom_sites_solution_hydrogens   mixed
_atom_sites_solution_primary     direct
_audit_creation_date             2017-03-09
_audit_creation_method
;
Olex2 1.2
(compiled 2017.03.02 svn.r3394 for OlexSys, GUI svn.r5324)
;
_cell_angle_alpha                71.886(4)
_cell_angle_beta                 86.219(4)
_cell_angle_gamma                73.762(5)
_cell_formula_units_Z            1
_cell_length_a                   6.5665(3)
_cell_length_b                   8.8382(5)
_cell_length_c                   11.8641(5)
_cell_measurement_reflns_used    4453
_cell_measurement_temperature    100.00(10)
_cell_measurement_theta_max      74.7420
_cell_measurement_theta_min      3.8810
_cell_volume                     628.15(6)
_computing_cell_refinement
;
CrysAlisPro, Agilent Technologies,
Version 1.171.37.35 (release 13-08-2014 CrysAlis171 .NET)
(compiled Aug 13 2014,18:06:01)
;
_computing_data_collection
;
CrysAlisPro, Agilent Technologies,
Version 1.171.37.35 (release 13-08-2014 CrysAlis171 .NET)
(compiled Aug 13 2014,18:06:01)
;
_computing_data_reduction
;
CrysAlisPro, Agilent Technologies,
Version 1.171.37.35 (release 13-08-2014 CrysAlis171 .NET)
(compiled Aug 13 2014,18:06:01)
;
_computing_molecular_graphics    'Olex2 (Dolomanov et al., 2009)'
_computing_publication_material  'Olex2 (Dolomanov et al., 2009)'
_computing_structure_refinement  'ShelXL (Sheldrick, 2015)'
_computing_structure_solution    'ShelXT (Sheldrick, 2015)'
_diffrn_ambient_environment      N~2~
_diffrn_ambient_temperature      100.00(10)
_diffrn_detector                 'CCD plate'
_diffrn_detector_area_resol_mean 4.1587
_diffrn_detector_type            Onyx
_diffrn_measured_fraction_theta_full 0.996
_diffrn_measured_fraction_theta_max 0.990
_diffrn_measurement_details
;
#__ type_ start__ end____ width___ exp.time_
  1 omega  -31.00   69.00   1.0000    1.0000
omega____ theta____ kappa____ phi______ frames
    -       41.9419  -57.0000   90.0000 100

#__ type_ start__ end____ width___ exp.time_
  2 omega  -37.00   76.00   1.0000    1.0000
omega____ theta____ kappa____ phi______ frames
    -       41.9419  -77.0000    0.0000 113

#__ type_ start__ end____ width___ exp.time_
  3 omega  -31.00   69.00   1.0000    1.0000
omega____ theta____ kappa____ phi______ frames
    -       41.9419  -57.0000 -150.0000 100

#__ type_ start__ end____ width___ exp.time_
  4 omega   27.00  115.00   1.0000    1.0000
omega____ theta____ kappa____ phi______ frames
    -      107.0000 -111.0000 -120.0000 88

#__ type_ start__ end____ width___ exp.time_
  5 omega   30.00   69.00   1.0000    1.0000
omega____ theta____ kappa____ phi______ frames
    -      107.0000  -30.0000   60.0000 39

#__ type_ start__ end____ width___ exp.time_
  6 omega   27.00  115.00   1.0000    1.0000
omega____ theta____ kappa____ phi______ frames
    -      107.0000 -111.0000   60.0000 88

#__ type_ start__ end____ width___ exp.time_
  7 omega   34.00  150.00   1.0000    1.0000
omega____ theta____ kappa____ phi______ frames
    -      107.0000  179.0000  -90.0000 116

#__ type_ start__ end____ width___ exp.time_
  8 omega   33.00  136.00   1.0000    1.0000
omega____ theta____ kappa____ phi______ frames
    -      107.0000  -61.0000 -150.0000 103

#__ type_ start__ end____ width___ exp.time_
  9 omega   79.00  178.00   1.0000    1.0000
omega____ theta____ kappa____ phi______ frames
    -      107.0000  111.0000   90.0000 99

#__ type_ start__ end____ width___ exp.time_
 10 omega   27.00  115.00   1.0000    1.0000
omega____ theta____ kappa____ phi______ frames
    -      107.0000 -111.0000 -180.0000 88

#__ type_ start__ end____ width___ exp.time_
 11 omega   33.00   77.00   1.0000    1.0000
omega____ theta____ kappa____ phi______ frames
    -      107.0000  -45.0000  150.0000 44

#__ type_ start__ end____ width___ exp.time_
 12 omega   27.00  115.00   1.0000    1.0000
omega____ theta____ kappa____ phi______ frames
    -      107.0000 -111.0000  -30.0000 88

#__ type_ start__ end____ width___ exp.time_
 13 omega   59.00  178.00   1.0000    1.0000
omega____ theta____ kappa____ phi______ frames
    -      107.0000   15.0000  120.0000 119

#__ type_ start__ end____ width___ exp.time_
 14 omega   30.00   69.00   1.0000    1.0000
omega____ theta____ kappa____ phi______ frames
    -      107.0000  -30.0000  150.0000 39

#__ type_ start__ end____ width___ exp.time_
 15 omega   34.00  150.00   1.0000    1.0000
omega____ theta____ kappa____ phi______ frames
    -      107.0000  179.0000 -120.0000 116

#__ type_ start__ end____ width___ exp.time_
 16 omega   30.00   69.00   1.0000    1.0000
omega____ theta____ kappa____ phi______ frames
    -      107.0000  -30.0000 -150.0000 39

#__ type_ start__ end____ width___ exp.time_
 17 omega   77.00  178.00   1.0000    1.0000
omega____ theta____ kappa____ phi______ frames
    -      107.0000   30.0000   30.0000 101

#__ type_ start__ end____ width___ exp.time_
 18 omega   22.00  109.00   1.0000    1.0000
omega____ theta____ kappa____ phi______ frames
    -      107.0000  -94.0000    0.0000 87

#__ type_ start__ end____ width___ exp.time_
 19 omega   79.00  178.00   1.0000    1.0000
omega____ theta____ kappa____ phi______ frames
    -      107.0000  111.0000 -150.0000 99

#__ type_ start__ end____ width___ exp.time_
 20 omega   33.00  136.00   1.0000    1.0000
omega____ theta____ kappa____ phi______ frames
    -      107.0000  -61.0000   30.0000 103

#__ type_ start__ end____ width___ exp.time_
 21 omega -115.00  -41.00   1.0000    1.0000
omega____ theta____ kappa____ phi______ frames
    -      -41.9419  -57.0000 -150.0000 74
;
_diffrn_measurement_device       'four-circle diffractometer'
_diffrn_measurement_device_type  'Xcalibur, Onyx, Nova'
_diffrn_measurement_method       '\w scans'
_diffrn_orient_matrix_UB_11      -0.1784060000
_diffrn_orient_matrix_UB_12      -0.0711770000
_diffrn_orient_matrix_UB_13      -0.0205947000
_diffrn_orient_matrix_UB_21      -0.1180579000
_diffrn_orient_matrix_UB_22      0.1712904000
_diffrn_orient_matrix_UB_23      -0.0825090000
_diffrn_orient_matrix_UB_31      0.1182181000
_diffrn_orient_matrix_UB_32      -0.0440584000
_diffrn_orient_matrix_UB_33      -0.1069748000
_diffrn_radiation_monochromator  mirror
_diffrn_radiation_probe          x-ray
_diffrn_radiation_type           CuK\a
_diffrn_radiation_wavelength     1.54184
_diffrn_reflns_av_R_equivalents  0.0468
_diffrn_reflns_av_unetI/netI     0.0411
_diffrn_reflns_Laue_measured_fraction_full 0.996
_diffrn_reflns_Laue_measured_fraction_max 0.990
_diffrn_reflns_limit_h_max       8
_diffrn_reflns_limit_h_min       -7
_diffrn_reflns_limit_k_max       10
_diffrn_reflns_limit_k_min       -11
_diffrn_reflns_limit_l_max       12
_diffrn_reflns_limit_l_min       -14
_diffrn_reflns_number            7818
_diffrn_reflns_point_group_measured_fraction_full 0.996
_diffrn_reflns_point_group_measured_fraction_max 0.990
_diffrn_reflns_theta_full        74.260
_diffrn_reflns_theta_max         74.979
_diffrn_reflns_theta_min         3.921
_diffrn_source                   'sealed X-ray tube'
_diffrn_source_type              'Nova (Cu) X-ray Source'
_exptl_absorpt_coefficient_mu    3.462
_exptl_absorpt_correction_T_max  0.892
_exptl_absorpt_correction_T_min  0.747
_exptl_absorpt_correction_type   analytical
_exptl_absorpt_process_details
;
CrysAlisPro, Agilent Technologies,
Version 1.171.37.35 (release 13-08-2014 CrysAlis171 .NET)
(compiled Aug 13 2014,18:06:01)
Analytical numeric absorption correction using a multifaceted crystal
            model based on expressions derived by R.C. Clark & J.S. Reid.
(Clark, R. C. & Reid, J. S. (1995). Acta Cryst. A51, 887-897)
Empirical absorption correction using spherical harmonics,
 implemented in SCALE3 ABSPACK scaling algorithm.
;
_exptl_crystal_colour            'translucent colourless'
_exptl_crystal_density_diffrn    1.491
_exptl_crystal_description       needle
_exptl_crystal_F_000             298
_exptl_crystal_size_max          0.1568
_exptl_crystal_size_mid          0.1092
_exptl_crystal_size_min          0.0477
_refine_diff_density_max         0.300
_refine_diff_density_min         -0.326
_refine_diff_density_rms         0.067
_refine_ls_extinction_method     none
_refine_ls_goodness_of_fit_ref   1.037
_refine_ls_hydrogen_treatment    mixed
_refine_ls_matrix_type           full
_refine_ls_number_parameters     156
_refine_ls_number_reflns         2563
_refine_ls_number_restraints     0
_refine_ls_restrained_S_all      1.037
_refine_ls_R_factor_all          0.0426
_refine_ls_R_factor_gt           0.0356
_refine_ls_shift/su_max          0.001
_refine_ls_shift/su_mean         0.000
_refine_ls_structure_factor_coef Fsqd
_refine_ls_weighting_details
'w=1/[\s^2^(Fo^2^)+(0.0468P)^2^+0.2005P] where P=(Fo^2^+2Fc^2^)/3'
_refine_ls_weighting_scheme      calc
_refine_ls_wR_factor_gt          0.0879
_refine_ls_wR_factor_ref         0.0935
_reflns_Friedel_coverage         0.000
_reflns_number_gt                2195
_reflns_number_total             2563
_reflns_threshold_expression     'I > 2\s(I)'
_cod_data_source_file            ja7b10643_si_002.cif
_cod_data_source_block           xpc39abs
_cod_database_code               4127026
_shelx_shelxl_version_number     2014/7
_chemical_oxdiff_formula         'C12 Ni3 N4 O4 H22'
_chemical_oxdiff_usercomment     'A. Morris Lab Jie Zhu JZ-P-120-8'
_shelx_space_group_comment
;
The symmetry employed for this shelxl refinement is uniquely defined
by the following loop, which should always be used as a source of
symmetry information in preference to the above space-group names.
They are only intended as comments.
;
_olex2_refinement_description
;
1. Fixed Uiso
 At 1.2 times of:
  All C(H) groups, All C(H,H) groups, All N(H) groups
 At 1.5 times of:
  All C(H,H,H) groups, All O(H) groups
2.a Ternary CH refined with riding coordinates:
 N1(H1A), N2(H2), C3(H3)
2.b Secondary CH2 refined with riding coordinates:
 C1(H1B,H1C), C2(H2A,H2B), C4(H4A,H4B), C5(H5A,H5B)
2.c Aromatic/amide H refined with riding coordinates:
 C9(H9)
2.d Idealised Me refined as rotating group:
 C7(H7A,H7B,H7C), C8(H8A,H8B,H8C)
;
_shelx_res_file
;
    xpc39abs.res created by SHELXL-2014/7

TITL xpc39abs_a.res in P-1
REM Old TITL XPC 39Abs in P-1 #2
REM SHELXT solution in P-1
REM R1 0.316, Rweak 0.019, Alpha 0.031, Orientation as input
REM Formula found by SHELXT: C20 N6 O6 Ni
CELL 1.54184 6.566499 8.83821 11.864076 71.8859 86.2193 73.7623
ZERR 1 0.000332 0.000452 0.000529 0.0043 0.0039 0.0045
LATT 1
SFAC C H Cl N Ni O
UNIT 18 38 2 6 1 6

L.S. 4 0 0
PLAN  20
TEMP -173
BOND $H
LIST 6
MORE -1
CONF
fmap 2 53
acta 148.52
REM <olex2.extras>
REM <HklSrc "%.\\XPC%2039Abs.hkl">
REM </olex2.extras>

WGHT    0.046800    0.200500
FVAR       1.01211
NI1   5    0.000000    1.000000    0.500000    10.50000    0.01571    0.01658 =
         0.02171   -0.00787    0.00181   -0.00472
CL1   3   -0.267709    0.997812    0.362106    11.00000    0.01785    0.02667 =
         0.02531   -0.01118    0.00042   -0.00718
O1    6    0.581669    0.683328    0.225409    11.00000    0.03906    0.02733 =
         0.04356   -0.01967    0.02139   -0.01354
H1    2    0.631830    0.617869    0.185248    11.00000   -1.50000
O2    6    0.431808    0.486289    0.324847    11.00000    0.03711    0.02587 =
         0.04147   -0.01895    0.01422   -0.01293
N1    4    0.117596    0.745831    0.553868    11.00000    0.01754    0.01741 =
         0.02277   -0.00800    0.00270   -0.00411
AFIX  13
H1A   2    0.245168    0.717664    0.605842    11.00000   -1.20000
AFIX   0
N2    4    0.215936    1.035301    0.366761    11.00000    0.01866    0.01820 =
         0.02291   -0.00841    0.00138   -0.00514
AFIX  13
H2    2    0.351831    1.027051    0.404666    11.00000   -1.20000
AFIX   0
C1    1   -0.046711    0.682171    0.629962    11.00000    0.02158    0.01857 =
         0.02831   -0.00814    0.00572   -0.00745
AFIX  23
H1B   2    0.015729    0.566708    0.679548    11.00000   -1.20000
H1C   2   -0.162467    0.683323    0.580032    11.00000   -1.20000
AFIX   0
C2    1    0.184167    0.666626    0.459724    11.00000    0.02358    0.01869 =
         0.02539   -0.01058    0.00414   -0.00664
AFIX  23
H2A   2    0.058830    0.684012    0.410414    11.00000   -1.20000
H2B   2    0.243773    0.545980    0.496413    11.00000   -1.20000
AFIX   0
C3    1    0.350942    0.737527    0.380570    11.00000    0.01858    0.02027 =
         0.02660   -0.00954    0.00151   -0.00520
AFIX  13
H3    2    0.462731    0.737624    0.433831    11.00000   -1.20000
AFIX   0
C4    1    0.265086    0.915998    0.298560    11.00000    0.01928    0.02023 =
         0.02288   -0.00941    0.00269   -0.00602
AFIX  23
H4A   2    0.372009    0.943130    0.238502    11.00000   -1.20000
H4B   2    0.135115    0.924835    0.256345    11.00000   -1.20000
AFIX   0
C5    1    0.134589    1.208011    0.290880    11.00000    0.02227    0.01874 =
         0.02570   -0.00680    0.00418   -0.00560
AFIX  23
H5A   2    0.021193    1.215950    0.236594    11.00000   -1.20000
H5B   2    0.250323    1.245095    0.242413    11.00000   -1.20000
AFIX   0
C6    1    0.456349    0.622184    0.307757    11.00000    0.02051    0.02315 =
         0.02692   -0.01013    0.00230   -0.00463

O3    6    0.735692    0.495214    0.094612    11.00000    0.02963    0.02903 =
         0.03466   -0.01536    0.00776   -0.00764
N3    4    0.740815    0.272151    0.037710    11.00000    0.02929    0.02830 =
         0.02756   -0.01191    0.00129   -0.00755
C7    1    0.656326    0.132597    0.050975    11.00000    0.05804    0.03603 =
         0.03157   -0.01350    0.00261   -0.01987
AFIX 137
H7A   2    0.620810    0.130731   -0.027437    11.00000   -1.50000
H7B   2    0.528324    0.143179    0.098572    11.00000   -1.50000
H7C   2    0.762768    0.029604    0.090751    11.00000   -1.50000
AFIX   0
C8    1    0.910376    0.293558   -0.044193    11.00000    0.04929    0.07817 =
         0.06691   -0.05522    0.03189   -0.03329
AFIX 137
H8A   2    1.030923    0.194432   -0.021351    11.00000   -1.50000
H8B   2    0.954694    0.389848   -0.042340    11.00000   -1.50000
H8C   2    0.860714    0.310940   -0.124534    11.00000   -1.50000
AFIX   0
C9    1    0.669448    0.374176    0.101439    11.00000    0.02310    0.02890 =
         0.02637   -0.00881    0.00130   -0.00399
AFIX  43
H9    2    0.560460    0.353624    0.155986    11.00000   -1.20000
AFIX   0
HKLF 4

REM  xpc39abs_a.res in P-1
REM R1 =  0.0356 for    2195 Fo > 4sig(Fo)  and  0.0426 for all    2563 data
REM    156 parameters refined using      0 restraints

END

WGHT      0.0468      0.2004

REM Highest difference peak  0.300,  deepest hole -0.326,  1-sigma level  0.067
Q1    1   0.4640  0.9836  0.2257  11.00000  0.05    0.30
Q2    1   0.2238  0.9782  0.3397  11.00000  0.05    0.29
Q3    1   0.1351  1.0175  0.4120  11.00000  0.05    0.29
Q4    1   0.1176  0.8386  0.5462  11.00000  0.05    0.29
Q5    1   0.3992  0.6959  0.3439  11.00000  0.05    0.29
Q6    1   0.3600  0.5406  0.2716  11.00000  0.05    0.27
Q7    1   0.3125  0.8272  0.3460  11.00000  0.05    0.26
Q8    1   0.0444  0.7236  0.5807  11.00000  0.05    0.25
Q9    1   0.9162  0.2102 -0.1095  11.00000  0.05    0.25
Q10   1  -0.0837  1.0433  0.3469  11.00000  0.05    0.25
Q11   1  -0.1364  1.0612  0.3571  11.00000  0.05    0.24
Q12   1  -0.1454  0.7444  0.4279  11.00000  0.05    0.24
Q13   1  -0.0250  1.1418  0.3022  11.00000  0.05    0.23
Q14   1   0.1946  1.4586  0.1911  11.00000  0.05    0.23
Q15   1   0.0485  1.1215  0.5000  11.00000  0.05    0.23
Q16   1   0.1666  1.1272  0.3299  11.00000  0.05    0.21
Q17   1  -0.3214  0.9572  0.4447  11.00000  0.05    0.21
Q18   1  -0.0909  1.1174  0.2183  11.00000  0.05    0.21
Q19   1   0.4463  0.7946  0.6063  11.00000  0.05    0.21
Q20   1   0.0158  1.0535  0.4124  11.00000  0.05    0.20
;
_shelx_res_checksum              473
_shelx_hkl_file
;
   0   0  -1 2843.61   24.19
   0   0  -1 2801.81   19.94
   0   0  -2  665.29   13.93
   0   0  -2  689.19   16.80
   0   0  -3 2815.87   35.15
   0   0  -3 3066.67   42.70
   0   0   4  115.37    3.34
   0   0  -4  141.73    9.38
   0   0  -4  166.39   12.00
   0   0  -5  631.01   22.44
   0   0  -5  634.02   25.57
   0   0  -6  206.08   14.73
   0   0  -6  178.28   15.21
   0   0  -7 1479.42   42.16
   0   0  -7 1499.55   45.92
   0   0  -8  216.02   16.89
   0   0  -8  219.04   17.31
   0   0  -8  215.12   17.84
   0   0  -8  259.96   17.65
   0   0  -8  212.59   18.89
   0   0  -8  184.36   17.32
   0   0  -9   37.03    7.41
   0   0  -9   32.81    7.34
   0   0  -9   51.56   10.50
   0   0  -9   39.07    7.84
   0   0  -9   78.61   12.56
   0   0  -9   20.55    6.85
   0   0  -9   39.94    9.24
   0   0  -9   37.59    9.74
   0   0 -10    1.11    1.17
   0   0 -10   -5.29    2.93
   0   0 -10   -0.69    4.04
   0   0 -10    0.05    1.67
   0   0 -11   29.95    6.95
   0   0 -11    2.93   11.52
   0   0 -11   22.78    7.43
   0   0 -11   32.16    6.45
   0   0 -11   32.32    8.42
   0   0 -12  161.11   13.86
   0   0 -12  167.35   15.99
   0   0 -12  188.77   17.33
   0   0 -12  180.91   13.09
   0   0 -13    3.23    2.63
   0   0 -13    3.10    2.98
   0   0 -14   38.61    4.64
   0   0 -14   44.68    4.31
   0   1 -13  104.23    8.22
   0   1 -13  101.49    9.54
   0   1 -12   13.16    4.94
   0   1 -12    8.99    4.13
   0   1 -11   -1.19    4.33
   0   1 -11    3.44    2.85
   0   1 -10   23.44    6.75
   0   1 -10   24.96    6.31
   0   1 -10   27.73   10.93
   0   1  -9  383.10   23.96
   0   1  -9  363.14   23.53
   0   1  -9  338.76   27.59
   0   1  -9  351.67   26.49
   0   1  -8  921.76   34.85
   0   1  -8  895.24   35.40
   0   1  -8  843.03   41.46
   0   1  -8  882.84   39.42
   0   1  -7  439.11   24.01
   0   1  -7  396.67   27.42
   0   1  -6  459.52   22.38
   0   1  -6  404.80   25.35
   0   1  -5  101.36   11.87
   0   1  -5  114.63   10.10
   0   1  -4  238.96   12.73
   0   1  -4  217.05   15.61
   0   1  -3  980.44   29.75
   0   1  -3 1018.81   22.22
   0   1  -2  279.80    9.82
   0   1  -2  279.47   14.27
   0  -1   2  320.89    7.76
   0  -1   1 2840.63   24.87
   0  -1   0  508.80   11.17
   0  -1  -1 2688.44   22.15
   0  -1  -1 2726.78   27.32
   0  -1  -2  120.71    6.21
   0  -1  -2  100.51    3.50
   0  -1  -2  110.91    5.86
   0  -1  -3  125.62    6.43
   0  -1  -3  127.76    7.57
   0  -1  -4   59.08    6.14
   0  -1  -4   60.08    5.57
   0  -1  -5   56.01    6.82
   0  -1  -5   61.60    6.72
   0  -1  -6  855.69   28.64
   0  -1  -6  834.25   26.69
   0  -1  -7  803.30   29.06
   0  -1  -7  877.58   32.24
   0  -1  -8  590.60   28.81
   0  -1  -9  719.63   30.85
   0  -1  -9  669.39   30.14
   0  -1  -9  718.03   30.21
   0  -1  -9  698.85   36.34
   0  -1  -9  694.12   33.41
   0  -1  -9  676.57   30.25
   0  -1  -9  784.83   36.92
   0  -1  -9  703.14   35.20
   0  -1 -10   10.54    5.19
   0  -1 -10   36.31   10.02
   0  -1 -10   10.68    6.05
   0  -1 -10   17.60    7.06
   0  -1 -10   12.86    5.52
   0  -1 -10    1.42    4.69
   0  -1 -10   14.83    5.49
   0  -1 -10   12.30    4.92
   0  -1 -11   23.04    7.86
   0  -1 -11   37.31    7.91
   0  -1 -11   33.41    7.46
   0  -1 -11   36.32    9.28
   0  -1 -11   25.90    6.57
   0  -1 -12  133.29   14.93
   0  -1 -12  129.72   16.28
   0  -1 -12  164.59   14.23
   0  -1 -12  178.38   14.30
   0  -1 -12  141.35   15.25
   0  -1 -13   41.75    6.31
   0  -1 -13   38.29    7.38
   0  -1 -13   58.78   12.07
   0  -1 -13   40.54    6.04
   0  -1 -14  305.06   14.52
   0  -1 -14  196.19    9.48
   0  -1 -14  298.20   11.82
   0   2 -13   80.41    6.79
   0   2 -12   17.85    4.42
   0   2 -12   17.82    5.67
   0   2 -11    4.46    3.28
   0   2 -11    7.56    5.80
   0   2 -10   40.08    8.39
   0   2 -10   40.73    8.80
   0   2  -9   10.73    5.00
   0   2  -9    9.02    4.58
   0   2  -8  421.38   23.77
   0   2  -8  415.33   25.13
   0   2  -8  412.61   31.86
   0   2  -8  370.66   26.92
   0   2  -7  440.72   24.53
   0   2  -7  425.56   27.54
   0   2  -7  485.45   33.07
   0   2  -7  490.22   24.22
   0   2  -6 1147.51   47.69
   0   2  -5  307.24   23.11
   0   2  -4  721.84   32.45
   0  -2   3   12.51    2.35
   0   2  -3   11.85    5.05
   0  -2   2   31.55    4.05
   0   2  -2   35.00    6.89
   0  -2   1  536.96   15.89
   0   2  -1  465.87   19.14
   0  -2   0  475.28   15.36
   0  -2  -1 2224.86   25.25
   0  -2  -1 2054.92   33.34
   0  -2  -2   42.84    4.23
   0  -2  -2   46.08    5.87
   0  -2  -3  152.67    9.98
   0  -2  -3  147.60    8.60
   0  -2  -4  727.58   10.85
   0  -2  -4  722.21   21.26
   0  -2  -5 3355.80   50.43
   0  -2  -5 3356.08   31.41
   0  -2  -6  827.13   27.82
   0  -2  -7 2377.55   52.14
   0  -2  -8  779.71   32.86
   0  -2  -9   58.29   10.12
   0  -2  -9   57.95   10.24
   0  -2  -9   61.80    9.48
   0  -2  -9   52.98    8.31
   0  -2  -9   49.30    8.47
   0  -2  -9   67.38   11.26
   0  -2  -9   59.70   11.30
   0  -2  -9   61.72   11.71
   0  -2  -9   66.66    9.60
   0  -2  -9   54.22    9.02
   0  -2 -10   77.82   10.65
   0  -2 -10   75.56   10.28
   0  -2 -10   73.80   10.94
   0  -2 -10   79.25   13.86
   0  -2 -10   82.11   10.84
   0  -2 -10   90.06   13.14
   0  -2 -10   86.14   12.62
   0  -2 -10   75.11   12.49
   0  -2 -10   83.69   13.64
   0  -2 -11   26.85    6.59
   0  -2 -11   33.36    8.78
   0  -2 -11   30.92    9.43
   0  -2 -11   27.51    9.36
   0  -2 -11   33.48    6.93
   0  -2 -11   22.83    6.17
   0  -2 -12  389.99   21.03
   0  -2 -12  397.64   26.04
   0  -2 -12  410.75   25.23
   0  -2 -12  401.61   22.62
   0  -2 -12  409.24   23.14
   0  -2 -13   23.36    4.76
   0  -2 -13   -9.88   13.69
   0  -2 -13   20.56    4.75
   0  -2 -13   20.01    5.40
   0  -2 -14  179.95   12.66
   0  -2 -14  173.11   10.57
   0   3 -12   16.90    3.04
   0   3 -12   22.67    4.31
   0   3 -11   16.21    4.76
   0   3 -11   14.45    3.52
   0   3 -11    8.19    2.72
   0   3 -10   38.63    8.42
   0   3 -10   32.16    6.43
   0   3  -9    8.76    4.24
   0   3  -9    8.95    5.91
   0  -3   8  280.86   20.05
   0   3  -8  272.51   20.24
   0   3  -8  278.54   23.40
   0   3  -7 1478.70   61.77
   0  -3   7 1355.11   44.08
   0   3  -7 1424.21   45.03
   0   3  -7 1336.76   49.54
   0   3  -6  810.00   44.40
   0   3  -6  834.87   32.85
   0  -3   6  826.70   33.18
   0   3  -6  747.66   35.87
   0   3  -5    1.03    5.81
   0   3  -4   13.95    6.80
   0   3  -3   60.45   10.81
   0   3  -2  628.12   29.47
   0  -3   2  591.62   20.11
   0  -3   1 2704.44   45.03
   0   3  -1 2840.37   56.25
   0   3   0 4091.81   60.36
   0  -3   0 4180.20   56.94
   0  -3  -1 2267.14   42.45
   0  -3  -1 2226.96   31.83
   0   3   1 2161.69   37.93
   0   3   2   64.28    5.28
   0  -3  -2   62.00    7.62
   0  -3  -2   62.25    5.69
   0  -3  -3  572.31   18.32
   0  -3  -3  508.73   21.43
   0  -3  -4    3.94    3.89
   0  -3  -4    6.60    2.95
   0  -3  -5 1272.44   32.22
   0  -3  -6    5.89    2.85
   0  -3  -7  444.93   22.97
   0  -3  -8 2053.55   49.79
   0  -3  -8 2011.00   59.25
   0  -3  -8 2236.37   55.76
   0  -3  -9  230.04   21.10
   0  -3  -9  244.41   19.65
   0  -3  -9  247.87   19.96
   0  -3  -9  248.97   18.42
   0  -3  -9  237.45   22.06
   0  -3  -9  245.72   17.96
   0  -3  -9  228.08   17.61
   0  -3  -9  236.93   21.50
   0  -3  -9  245.15   18.01
   0  -3 -10    2.51    3.38
   0  -3 -10    9.38    5.55
   0  -3 -10    7.30    3.84
   0  -3 -10   12.17    4.67
   0  -3 -10    7.96    5.28
   0  -3 -10   10.27    5.73
   0  -3 -10   14.35    5.28
   0  -3 -10    5.93    3.70
   0  -3 -11   49.39    9.46
   0  -3 -11   36.67    8.38
   0  -3 -11   52.93    8.95
   0  -3 -11   54.42    9.47
   0  -3 -11   46.51   10.37
   0  -3 -12   68.70   10.86
   0  -3 -12   54.74    8.83
   0  -3 -12   52.23    9.46
   0  -3 -12   64.80    9.46
   0  -3 -13   63.01    8.49
   0  -3 -13   69.45    8.48
   0  -3 -13   74.79    9.41
   0  -3 -14  219.41   14.60
   0  -3 -14  238.45   12.99
   0   4 -11    4.91    2.18
   0   4 -10   22.25    4.02
   0   4 -10   15.78    4.91
   0   4 -10   21.34    4.24
   0   4  -9    0.23    1.82
   0   4  -9   -1.51    2.59
   0  -4   9    0.83    2.45
   0  -4   8  298.76   20.65
   0   4  -8  329.60   20.41
   0   4  -8  330.71   24.39
   0   4  -7  585.96   32.75
   0  -4   7  592.18   30.22
   0   4  -7  528.62   26.93
   0  -4   6  493.74   28.14
   0   4  -6  470.30   29.64
   0   4  -6  503.39   25.49
   0   4  -6  488.42   37.03
   0   4  -5  119.15   12.25
   0  -4   5  107.88   12.85
   0   4  -5  116.75   14.18
   0   4  -5  106.11   16.39
   0   4  -4   98.23   16.29
   0   4  -3  410.57   29.09
   0  -4   2  253.12   15.94
   0   4  -2  253.93   21.16
   0  -4   1 3332.10   58.75
   0   4  -1 3092.82   67.56
   0  -4   0 4012.86   67.01
   0   4   0 3742.10   66.86
   0  -4  -1  519.71   24.35
   0  -4  -1  469.96   17.60
   0   4   1  453.99   20.91
   0   4   2  646.17   20.20
   0  -4  -2  683.78   28.36
   0  -4  -2  595.46   20.12
   0  -4  -3   39.93    7.97
   0  -4  -3   41.13    5.68
   0  -4  -4  102.84    9.59
   0  -4  -4   90.21   11.46
   0  -4  -5  280.94   16.22
   0  -4  -6   55.08    7.90
   0  -4  -7  676.68   28.83
   0  -4  -8  538.63   26.66
   0  -4  -8  484.08   30.08
   0  -4  -8  511.40   26.83
   0  -4  -8  454.19   22.99
   0  -4  -8  473.48   25.16
   0  -4  -8  491.54   25.02
   0  -4  -8  535.98   31.60
   0  -4  -8  491.76   29.78
   0  -4  -9  204.15   20.91
   0  -4  -9  222.24   18.98
   0  -4  -9  220.23   21.04
   0  -4  -9  200.61   16.80
   0  -4  -9  193.64   16.04
   0  -4  -9  254.28   21.55
   0  -4  -9  189.28   16.43
   0  -4  -9  199.28   16.91
   0  -4 -10    1.28    2.28
   0  -4 -10   -1.25    3.58
   0  -4 -10    4.48    4.84
   0  -4 -10    7.10    3.70
   0  -4 -10    3.10    3.60
   0  -4 -10    0.06    5.14
   0  -4 -10    2.77    2.74
   0  -4 -11   85.62   11.14
   0  -4 -11   76.71   10.74
   0  -4 -11  112.44   12.46
   0  -4 -11   82.57   11.03
   0  -4 -12   23.21    6.20
   0  -4 -12   26.38    6.38
   0  -4 -12   13.98    5.99
   0  -4 -13  115.69   11.07
   0  -4 -13  110.03   10.67
   0  -4 -13  133.78   12.60
   0  -4 -14   91.04   10.85
   0  -4 -14  155.83   10.55
   0   5 -10   15.73    3.02
   0   5  -9   34.86    6.24
   0  -5   9   31.87    4.89
   0   5  -9   22.72    4.75
   0   5  -8  101.89   11.97
   0  -5   8  108.09   11.34
   0   5  -8  110.12    9.64
   0   5  -7    6.63    3.39
   0  -5   7   10.22    4.80
   0   5  -6   75.09   12.12
   0  -5   6  110.85   13.31
   0   5  -5    9.06    3.93
   0  -5   5    4.43    2.93
   0   5  -5    0.08    4.41
   0   5  -4   37.04    8.82
   0   5  -4   22.95    7.63
   0  -5   4   33.21    8.04
   0  -5   3   14.91    5.88
   0   5  -3   21.48    8.21
   0  -5   3    8.06    3.61
   0  -5   2   13.95    4.77
   0   5  -2   12.36    5.40
   0   5  -1  370.58   26.49
   0  -5   1  278.10   21.65
   0  -5   0   11.19    3.75
   0   5   0   15.36    6.26
   0  -5   0    7.99    3.79
   0   5   1 1416.68   41.36
   0  -5  -1 1426.79   35.68
   0  -5  -1 1438.12   47.72
   0  -5  -2  215.05   13.93
   0  -5  -2  207.22   19.00
   0  -5  -3   25.55    7.84
   0  -5  -3   34.77    6.75
   0  -5  -4   -1.17    5.32
   0  -5  -4    4.51    3.71
   0  -5  -5  393.03   20.97
   0  -5  -6  869.45   32.57
   0  -5  -7  785.29   31.98
   0  -5  -7  799.33   39.68
   0  -5  -7  725.42   31.52
   0  -5  -7  790.60   37.59
   0  -5  -7  743.30   31.42
   0  -5  -7  769.19   31.39
   0  -5  -7  791.05   37.18
   0  -5  -8  962.02   37.11
   0  -5  -8  964.73   33.30
   0  -5  -8 1027.53   45.90
   0  -5  -8  983.78   36.66
   0  -5  -8 1005.65   38.81
   0  -5  -8  994.63   44.30
   0  -5  -8  984.08   37.20
   0  -5  -8 1010.39   41.83
   0  -5  -9  251.10   17.97
   0  -5  -9  223.45   19.60
   0  -5  -9  219.33   21.07
   0  -5  -9  218.74   17.83
   0  -5  -9  238.74   18.84
   0  -5  -9  229.02   18.52
   0  -5  -9  262.60   24.04
   0  -5 -10    6.50    3.96
   0  -5 -10    6.92    4.32
   0  -5 -10   -0.86    2.78
   0  -5 -10    3.85    3.78
   0  -5 -10    0.09    2.47
   0  -5 -11   95.37   11.77
   0  -5 -11   90.66   11.24
   0  -5 -11   99.48   11.47
   0  -5 -11   99.11   12.15
   0  -5 -12   -0.03    3.83
   0  -5 -12    6.11    3.57
   0  -5 -12    4.03    2.89
   0  -5 -13   59.17    7.51
   0  -5 -13   67.00    8.46
   0  -5 -13   57.06    8.37
   0  -5 -14  155.80   10.15
   0  -5 -14  161.47   10.00
   0   6  -9    3.84    2.24
   0  -6   8  117.87    9.86
   0   6  -8  112.67   10.37
   0  -6   7  757.03   30.12
   0   6  -7  677.49   27.34
   0  -6   6   84.21   11.60
   0   6  -6   81.24   10.74
   0   6  -5   34.75    7.52
   0  -6   5   40.64    6.98
   0  -6   5   54.22   10.03
   0  -6   4   77.59   12.33
   0  -6   4   76.73   10.04
   0  -6   3   17.35    5.75
   0   6  -3  -11.16    9.05
   0  -6   3    8.03    4.64
   0  -6   3    6.85    3.68
   0  -6   2   41.01    7.60
   0  -6   2   35.36    8.37
   0  -6   2   50.90    9.69
   0   6  -2   59.82   13.22
   0  -6   1  190.92   17.07
   0  -6   1  203.84   15.38
   0  -6   1  190.14   17.38
   0   6  -1  170.17   19.90
   0  -6   0 1102.17   34.91
   0  -6   0 1083.88   40.63
   0  -6   0  995.10   37.24
   0  -6  -1  465.42   22.51
   0  -6  -1  434.27   25.72
   0  -6  -1  475.52   24.73
   0  -6  -2   41.10    8.30
   0  -6  -2   22.94    6.43
   0  -6  -3   -1.14    2.54
   0  -6  -3   -0.14    3.27
   0  -6  -3   -0.93    3.14
   0  -6  -4    2.12    3.61
   0  -6  -4    4.87    3.51
   0  -6  -4   -0.61    1.98
   0  -6  -4    2.20    4.20
   0  -6  -5  129.93   12.97
   0  -6  -5  144.80   14.23
   0  -6  -5  123.52   12.99
   0  -6  -5  118.57   12.60
   0  -6  -5   92.35   13.63
   0  -6  -6  242.51   21.12
   0  -6  -6  272.51   19.33
   0  -6  -6  232.62   17.89
   0  -6  -6  255.90   18.79
   0  -6  -6  252.94   22.84
   0  -6  -7  605.62   29.76
   0  -6  -7  573.68   34.11
   0  -6  -7  574.83   33.25
   0  -6  -7  600.54   29.13
   0  -6  -7  562.38   28.07
   0  -6  -8  596.10   34.38
   0  -6  -8  589.48   34.58
   0  -6  -8  573.66   29.60
   0  -6  -8  552.09   28.36
   0  -6  -8  544.31   28.47
   0  -6  -9   14.19    6.56
   0  -6  -9   12.67    4.48
   0  -6  -9   19.84    7.02
   0  -6  -9   15.78    4.86
   0  -6  -9   20.66    5.68
   0  -6 -10   11.73    5.11
   0  -6 -10   13.85    5.05
   0  -6 -10   15.15    5.54
   0  -6 -10   14.72    5.21
   0  -6 -10   23.15    6.80
   0  -6 -11    3.45    3.17
   0  -6 -11    1.48    2.93
   0  -6 -11    1.87    3.60
   0  -6 -11   -1.57    3.06
   0  -6 -12    8.86    3.56
   0  -6 -12    2.93    2.13
   0  -6 -12    4.75    3.07
   0  -6 -13   12.37    3.32
   0  -6 -13   -0.07    3.50
   0  -6 -13   13.03    3.36
   0  -6 -14   48.94    5.26
   0  -7   7  286.11   14.36
   0   7  -7  324.10   14.75
   0   7  -6  116.01   10.93
   0  -7   6  140.08   12.47
   0  -7   5   13.57    5.27
   0   7  -5    3.62    2.47
   0  -7   4   43.33    8.95
   0  -7   3    2.77    2.13
   0  -7   3    3.90    3.62
   0  -7   3    7.35    4.71
   0  -7   2   21.95    6.06
   0  -7   2   17.82    5.33
   0  -7   2   14.16    6.27
   0  -7   1   71.15    9.78
   0  -7   1  102.84   13.54
   0  -7   1   81.06   12.32
   0  -7   0  165.82   16.94
   0  -7   0  165.70   16.18
   0  -7   0  177.34   14.96
   0  -7  -1  345.45   22.90
   0  -7  -1  363.67   25.41
   0  -7  -1  364.54   22.09
   0  -7  -1  367.74   27.02
   0  -7  -2 1076.88   37.75
   0  -7  -2 1028.40   38.67
   0  -7  -2 1098.11   48.58
   0  -7  -2 1188.52   44.60
   0  -7  -3    2.58    4.78
   0  -7  -3    1.45    4.91
   0  -7  -3    1.04    4.52
   0  -7  -4  142.11   15.42
   0  -7  -4   98.10   11.93
   0  -7  -4  109.71   12.86
   0  -7  -4  114.03   16.49
   0  -7  -5 1266.42   42.70
   0  -7  -5 1412.66   48.13
   0  -7  -5 1191.70   51.33
   0  -7  -5 1327.73   42.51
   0  -7  -5 1158.64   40.98
   0  -7  -6  143.85   14.42
   0  -7  -6  145.70   15.13
   0  -7  -6  125.71   13.88
   0  -7  -6  142.06   17.98
   0  -7  -7  463.21   26.23
   0  -7  -7  452.63   29.22
   0  -7  -7  417.53   24.99
   0  -7  -7  457.88   31.40
   0  -7  -7  489.60   27.46
   0  -7  -8  224.59   18.81
   0  -7  -8  248.88   19.09
   0  -7  -8  245.36   22.17
   0  -7  -8  236.33   18.41
   0  -7  -8  264.97   23.35
   0  -7  -9  153.91   14.59
   0  -7  -9  133.16   14.28
   0  -7  -9  156.54   15.04
   0  -7  -9  165.77   17.64
   0  -7 -10   21.87    6.54
   0  -7 -10   22.08    5.38
   0  -7 -10   26.20    6.81
   0  -7 -10   22.08    5.70
   0  -7 -11   58.25    8.51
   0  -7 -11   67.64    8.71
   0  -7 -11   74.30    9.57
   0  -7 -12   -0.77    1.55
   0  -7 -12    1.13    1.48
   0  -7 -12    4.86    2.21
   0  -7 -13  139.45    9.09
   0  -7 -13  133.51    8.85
   0   8  -5    2.63    1.50
   0  -8   5    5.73    2.61
   0  -8   4   57.64    8.49
   0   8  -4   42.68    6.22
   0  -8   3   19.92    5.36
   0   8  -3   13.22    3.60
   0  -8   2  133.44   13.89
   0  -8   2  137.74   11.58
   0  -8   2  145.14   14.58
   0  -8   1   86.92   12.01
   0  -8   1   88.55   10.05
   0  -8   1   97.84   12.83
   0  -8   0  517.38   25.38
   0  -8   0  526.21   28.51
   0  -8   0  623.99   32.95
   0  -8  -1   90.51   11.11
   0  -8  -1   72.39   10.48
   0  -8  -1   82.43   12.45
   0  -8  -1   80.74   12.09
   0  -8  -2  131.14   13.78
   0  -8  -2  200.57   19.07
   0  -8  -2  184.98   19.22
   0  -8  -2  172.64   15.33
   0  -8  -3   -2.17    2.35
   0  -8  -3    9.00    4.87
   0  -8  -3    1.88    4.53
   0  -8  -3    0.35    2.98
   0  -8  -4   17.00    6.02
   0  -8  -4   23.95    6.42
   0  -8  -4   30.79    7.06
   0  -8  -4   27.73    8.78
   0  -8  -5  400.65   24.16
   0  -8  -5  378.90   23.57
   0  -8  -5  400.72   29.48
   0  -8  -6  124.33   13.71
   0  -8  -6  115.83   12.66
   0  -8  -6  121.44   13.27
   0  -8  -6  136.67   17.18
   0  -8  -7  375.38   21.66
   0  -8  -7  359.62   26.90
   0  -8  -7  356.68   22.85
   0  -8  -7  340.22   21.66
   0  -8  -8   70.97   10.45
   0  -8  -8   65.38    8.92
   0  -8  -8   76.60   10.08
   0  -8  -8   75.55   12.67
   0  -8  -9   42.67    6.99
   0  -8  -9   62.60   10.06
   0  -8  -9   53.01    8.00
   0  -8  -9   55.27    8.75
   0  -8 -10   14.00    4.42
   0  -8 -10    8.89    3.35
   0  -8 -10    8.62    3.64
   0  -8 -10    8.37    3.85
   0  -8 -11    7.17    3.06
   0  -8 -11    5.18    2.89
   0  -8 -11    7.32    2.63
   0  -8 -12   15.63    3.26
   0  -8 -12    7.74    2.09
   0  -9   3    0.91    1.58
   0  -9   2   22.74    5.00
   0  -9   1  100.40   10.18
   0  -9   0   67.61    7.79
   0  -9   0   77.29    9.41
   0  -9  -1  442.23   22.60
   0  -9  -1  359.86   20.29
   0  -9  -1  394.99   19.33
   0  -9  -2    0.33    2.50
   0  -9  -2    8.34    3.93
   0  -9  -2    5.90    2.89
   0  -9  -2    6.35    3.45
   0  -9  -3   66.31    9.84
   0  -9  -3   74.33    9.23
   0  -9  -3   72.62   11.15
   0  -9  -4    8.62    4.37
   0  -9  -4    7.29    4.98
   0  -9  -4   12.23    4.42
   0  -9  -5   45.51    7.40
   0  -9  -5   44.26    7.57
   0  -9  -5   42.74    9.11
   0  -9  -6  125.98   12.74
   0  -9  -6  121.98   12.42
   0  -9  -6  149.58   16.04
   0  -9  -7  410.80   25.56
   0  -9  -7  371.71   20.44
   0  -9  -7  342.93   19.84
   0  -9  -8  359.94   19.49
   0  -9  -8  386.91   23.42
   0  -9  -8  354.49   18.98
   0  -9  -9   45.41    6.96
   0  -9  -9   41.16    6.18
   0  -9  -9   38.35    6.85
   0  -9 -10   96.76    8.62
   0  -9 -10   56.90    6.80
   0  -9 -10   98.89    8.28
   0  -9 -11   33.55    4.54
   0 -10   0  120.88    8.18
   0 -10  -1   52.31    6.08
   0 -10  -2   14.86    3.90
   0 -10  -3   32.61    5.43
   0 -10  -3   10.87    2.34
   0 -10  -4   22.80    4.75
   0 -10  -4   18.18    3.92
   0 -10  -4   28.14    4.82
   0 -10  -5   10.16    3.74
   0 -10  -5   15.30    4.30
   0 -10  -5   10.14    3.48
   0 -10  -6   45.72    7.43
   0 -10  -6   48.65    5.98
   0 -10  -6   49.22    5.89
   0 -10  -7  118.91    9.18
   0 -10  -7  115.35    8.60
   0 -10  -7  104.46   10.06
   0 -10  -8    3.04    1.82
   0 -10  -8    1.23    1.37
   0 -10  -8    0.82    1.30
   1 -10  -6   93.62    7.12
   1 -10  -6   78.08    7.39
   1 -10  -5   34.88    4.63
   1 -10  -5   27.23    4.56
   1 -10  -4    3.79    1.89
   1 -10  -3   12.05    2.77
   1 -10  -2   41.49    4.62
   1  -9 -10  191.77    9.81
   1  -9  -9  182.18   12.54
   1  -9  -9  233.40   11.64
   1  -9  -9  238.05   12.91
   1  -9  -8   23.25    5.42
   1  -9  -8   29.18    4.81
   1  -9  -8   25.70    5.09
   1  -9  -7   10.01    3.38
   1  -9  -7    9.65    3.95
   1  -9  -7    8.94    4.00
   1  -9  -6    0.17    2.25
   1  -9  -6   16.28    4.37
   1  -9  -6    8.08    3.89
   1  -9  -5   -3.32    4.01
   1  -9  -5   -3.59    3.30
   1  -9  -5   -0.13    1.83
   1  -9  -4   13.81    5.40
   1  -9  -4   12.76    4.58
   1  -9  -3   -2.18    3.70
   1  -9  -3    0.39    2.78
   1  -9  -2  175.32   14.11
   1  -9  -2  201.34   14.58
   1  -9  -1  181.84   13.53
   1  -9   0   60.97    7.71
   1  -9   1   46.12    5.65
   1  -9   1   57.13    6.69
   1  -9   2   86.11    7.13
   1  -8 -11    3.46    2.00
   1  -8 -10  147.34   11.27
   1  -8 -10  106.32   10.07
   1  -8 -10  137.67   11.30
   1  -8  -9   42.52    7.41
   1  -8  -9   40.32    7.97
   1  -8  -9   42.41    7.08
   1  -8  -8  423.07   26.43
   1  -8  -8  439.37   23.17
   1  -8  -8  381.42   20.95
   1  -8  -7   50.64    9.77
   1  -8  -7   53.67    8.40
   1  -8  -7   54.48    8.77
   1  -8  -6    4.02    2.39
   1  -8  -6    5.93    2.98
   1  -8  -6   -1.15    3.12
   1  -8  -5    1.57    2.74
   1  -8  -5    4.24    3.57
   1  -8  -5    2.45    4.78
   1  -8  -5    6.82    3.10
   1  -8  -4   33.48    9.84
   1  -8  -4   36.97    7.38
   1  -8  -4   43.98    8.80
   1  -8  -4   49.93    8.83
   1  -8  -3 1366.13   39.85
   1  -8  -3 1505.53   48.71
   1  -8  -3 1330.17   43.26
   1  -8  -3 1347.96   52.72
   1  -8  -2  263.25   20.90
   1  -8  -2  266.46   19.68
   1  -8  -2  259.09   22.55
   1  -8  -1  446.68   23.27
   1  -8  -1  505.95   28.78
   1  -8  -1  441.48   27.23
   1  -8   0    6.24    3.64
   1  -8   0   -2.04    3.08
   1  -8   1    0.96    1.15
   1  -8   1    1.20    1.95
   1  -8   2    1.81    2.75
   1  -8   2   -0.37    3.55
   1  -8   3    4.00    2.21
   1  -8   3    1.34    0.95
   1  -8   4  110.63    9.73
   1  -8   5   29.20    4.28
   1  -7 -13   66.43    5.68
   1  -7 -12    2.44    2.13
   1  -7 -11  103.42   10.37
   1  -7 -11  118.68   10.78
   1  -7 -11  101.37    8.77
   1  -7 -10  148.05   13.71
   1  -7 -10  154.26   11.75
   1  -7 -10  182.24   17.13
   1  -7 -10  158.23   13.94
   1  -7 -10  186.46   15.04
   1  -7  -9  356.78   24.61
   1  -7  -9  384.61   25.78
   1  -7  -9  374.56   22.28
   1  -7  -9  385.82   22.56
   1  -7  -8   53.67    9.11
   1  -7  -8   43.15    9.39
   1  -7  -8   53.67   35.96
   1  -7  -8   67.51   11.80
   1  -7  -7  140.08   18.00
   1  -7  -7  153.71   15.15
   1  -7  -7  130.64   15.60
   1  -7  -7  136.64   14.42
   1  -7  -6    5.37    3.90
   1  -7  -6   13.83    5.40
   1  -7  -6   20.06    6.18
   1  -7  -6   15.52    6.98
   1  -7  -5    6.62    3.99
   1  -7  -5   18.46    5.91
   1  -7  -5   14.04    5.15
   1  -7  -5   10.04    6.57
   1  -7  -4   19.64    7.08
   1  -7  -4   22.80    6.36
   1  -7  -4   20.93    6.91
   1  -7  -4   17.83    6.80
   1  -7  -3   45.09    8.46
   1  -7  -3   46.79   11.24
   1  -7  -3   43.03    8.61
   1  -7  -3   41.80    8.76
   1  -7  -2  330.32   27.42
   1  -7  -2  359.72   25.24
   1  -7  -2  355.84   21.25
   1  -7  -1  612.81   36.57
   1  -7  -1  595.82   28.65
   1  -7  -1  535.73   31.22
   1  -7   0  499.01   30.38
   1  -7   0  524.59   27.72
   1  -7   1    3.23    4.92
   1  -7   1    4.02    4.53
   1  -7   2   27.47    7.32
   1  -7   2   27.96    7.66
   1  -7   3    3.98    2.75
   1  -7   3   -4.36    3.30
   1  -7   4   38.16    7.73
   1  -7   4   40.49    6.74
   1  -7   5   97.28   10.89
  -1   7  -6  223.96   12.98
   1  -7   6  220.58   13.88
   1  -6 -13   -3.86    2.73
   1  -6 -12   33.29    5.65
   1  -6 -12   49.57    7.20
   1  -6 -12   43.47    6.36
   1  -6 -11   32.32    6.53
   1  -6 -11   26.88    7.57
   1  -6 -11   22.59    5.75
   1  -6 -11   15.93    4.66
   1  -6 -11   16.19    4.64
   1  -6 -10  155.04   18.17
   1  -6 -10  145.41   14.40
   1  -6 -10  142.72   13.23
   1  -6 -10  135.56   13.56
   1  -6  -9  690.51   37.39
   1  -6  -9  713.42   32.13
   1  -6  -9  749.83   30.39
   1  -6  -9  720.65   32.57
   1  -6  -9  746.62   36.03
   1  -6  -8  238.85   19.26
   1  -6  -8  255.88   18.03
   1  -6  -8  247.17   22.42
   1  -6  -8  225.02   21.60
   1  -6  -8  242.30   18.87
   1  -6  -7   33.01    9.76
   1  -6  -7   33.53    8.05
   1  -6  -7   36.01    7.96
   1  -6  -7   35.93    7.39
   1  -6  -6    5.88    3.79
   1  -6  -6    9.00    4.68
   1  -6  -6    7.07    3.54
   1  -6  -6   11.18    4.48
   1  -6  -5  121.31   13.08
   1  -6  -5  139.12   14.03
   1  -6  -5  108.00   15.99
   1  -6  -5  130.04   18.53
   1  -6  -5  108.98   12.75
   1  -6  -4  268.52   18.57
   1  -6  -4  235.64   25.40
   1  -6  -4  285.35   19.63
   1  -6  -4  292.84   20.45
   1  -6  -4  258.68   23.90
   1  -6  -3    0.85    5.29
   1  -6  -3   -1.68    3.89
   1  -6  -3   11.79    6.91
   1  -6  -3   -0.07    2.88
   1  -6  -2  884.62   37.06
   1  -6  -2  859.20   43.41
   1  -6  -2  867.61   44.88
   1  -6  -2  924.70   32.43
   1  -6  -1  928.88   34.39
   1  -6  -1  854.61   37.62
   1  -6  -1  900.41   43.93
   1  -6  -1  880.82   45.04
   1  -6   0  198.60   20.41
   1  -6   0  171.72   15.84
   1  -6   0  220.48   22.52
   1  -6   0  191.74   18.17
   1  -6   1   17.50    5.58
   1  -6   1   16.87    5.79
  -1   6  -1    3.48    2.83
  -1   6  -2   47.10    9.24
  -1   6  -2   34.45   10.57
   1  -6   2   51.65    9.99
   1  -6   2   53.82   10.12
  -1   6  -3   -2.48    4.46
   1  -6   3   -0.40    2.17
   1  -6   3    4.98    5.42
  -1   6  -4  339.61   24.66
   1  -6   4  350.68   22.35
   1  -6   4  333.00   23.92
   1  -6   5  174.62   16.96
  -1   6  -5  139.06   15.09
  -1   6  -6  126.27   13.01
   1  -6   6  136.59   13.95
  -1   6  -7   68.71    8.23
   1  -6   7   83.64    9.61
  -1   6  -8   56.42    6.14
   1  -6   8   49.89    6.10
   1  -5 -14   -1.56    4.27
   1  -5 -14    9.77    4.87
   1  -5 -13   26.85    5.33
   1  -5 -13   23.83    5.79
   1  -5 -13   28.61    5.14
   1  -5 -12   -8.05    4.65
   1  -5 -12   -1.22    2.55
   1  -5 -12    2.20    2.89
   1  -5 -11   45.29   10.34
   1  -5 -11   43.44    7.87
   1  -5 -11   43.71    7.69
   1  -5 -11   38.07    9.70
   1  -5 -11   37.85    7.54
   1  -5 -11   41.74    7.57
   1  -5 -10  373.39   23.05
   1  -5 -10  369.08   23.29
   1  -5 -10  397.25   29.26
   1  -5 -10  391.84   28.76
   1  -5 -10  389.88   22.67
   1  -5 -10  352.36   21.23
   1  -5  -9  254.85   23.25
   1  -5  -9  241.07   19.00
   1  -5  -9  266.67   19.05
   1  -5  -9  278.18   24.79
   1  -5  -9  286.19   18.68
   1  -5  -9  249.59   19.78
   1  -5  -8  218.86   22.61
   1  -5  -8  224.33   17.25
   1  -5  -8  206.36   20.66
   1  -5  -8  204.66   17.53
   1  -5  -8  215.88   18.12
   1  -5  -8  211.34   19.80
   1  -5  -7  266.57   18.33
   1  -5  -7  260.91   23.07
   1  -5  -7  300.21   26.06
   1  -5  -7  277.12   19.88
   1  -5  -7  294.75   20.25
   1  -5  -7  310.42   24.58
   1  -5  -6  119.72   16.71
   1  -5  -6  125.12   15.71
   1  -5  -6  123.88   12.90
   1  -5  -6  136.84   13.21
   1  -5  -6  143.07   17.65
   1  -5  -6  124.37   15.27
   1  -5  -5   24.87    6.12
   1  -5  -5   14.12    7.78
   1  -5  -5   25.54    7.46
   1  -5  -5   32.37    8.53
   1  -5  -4  375.96   27.31
   1  -5  -3  861.28   40.27
   1  -5  -2  690.17   35.86
  -1   5   1  407.68   26.97
   1  -5  -1  430.33   28.06
  -1   5   0  246.08   22.49
   1  -5   0  235.30   21.48
   1  -5   1    6.22    6.44
  -1   5  -1   20.03    7.94
   1  -5   1   21.56    6.33
   1  -5   1   16.65    5.22
   1  -5   1   17.56    5.53
  -1   5  -2  247.65   26.39
   1  -5   2  235.92   19.82
   1  -5   2  215.61   17.84
  -1   5  -2  252.67   20.91
   1  -5   2  245.15   19.61
   1  -5   3    6.11    3.59
   1  -5   3    5.96    4.66
   1  -5   3    2.52    2.92
  -1   5  -3    9.70    6.02
  -1   5  -3   10.84   10.13
  -1   5  -4   56.18   13.50
   1  -5   4   63.30   10.56
  -1   5  -4   55.86   10.95
   1  -5   4   38.85    7.99
   1  -5   4   40.44    8.84
  -1   5  -5  419.20   28.09
   1  -5   5  454.24   28.17
   1  -5   6  137.24   15.58
  -1   5  -6  125.01   15.39
   1  -5   7  111.99   13.34
  -1   5  -7  109.38   13.33
  -1   5  -8    2.41    2.21
   1  -5   8   -1.96    2.88
  -1   5  -9   16.24    4.08
   1  -5   9    4.30    2.25
   1  -4 -14    3.78    6.09
   1  -4 -13    0.71    3.06
   1  -4 -13   15.95    6.23
   1  -4 -13   -0.72    2.78
   1  -4 -12    3.17    4.27
   1  -4 -12    0.53    1.76
   1  -4 -12    0.77    3.71
   1  -4 -12   -7.38    5.01
   1  -4 -11   17.20    5.95
   1  -4 -11   21.22    5.79
   1  -4 -11   27.59    8.12
   1  -4 -11   15.61    5.64
   1  -4 -11   14.22    6.83
   1  -4 -11   34.79    8.77
   1  -4 -10  130.56   13.51
   1  -4 -10  127.27   16.51
   1  -4 -10  112.96   15.69
   1  -4 -10  122.91   17.63
   1  -4 -10  120.50   13.53
   1  -4 -10  144.98   14.34
   1  -4 -10  112.01   15.71
   1  -4 -10  112.26   13.19
   1  -4  -9  302.84   24.82
   1  -4  -9  351.86   27.65
   1  -4  -9  346.12   27.06
   1  -4  -9  331.93   21.93
   1  -4  -9  317.02   25.95
   1  -4  -9  321.91   20.99
   1  -4  -9  337.33   21.33
   1  -4  -9  305.84   21.69
   1  -4  -8 1087.10   38.32
   1  -4  -8 1147.24   47.50
   1  -4  -8 1074.27   38.78
   1  -4  -8 1126.60   38.13
   1  -4  -8  987.68   44.33
   1  -4  -8 1097.80   37.46
   1  -4  -8 1115.41   48.16
   1  -4  -8 1047.81   35.98
   1  -4  -8 1016.30   43.54
   1  -4  -7  185.33   20.11
   1  -4  -7  210.18   16.30
   1  -4  -7  182.38   18.48
   1  -4  -7  211.04   19.86
   1  -4  -7  193.81   14.90
   1  -4  -7  200.99   15.88
   1  -4  -6   48.58   10.48
   1  -4  -6   50.22    6.87
   1  -4  -5    3.08    2.62
   1  -4  -5    6.02    5.15
   1  -4  -4  201.16   11.72
   1  -4  -4  225.80   18.64
   1  -4  -3 1533.43   46.77
   1  -4  -2 1119.87   39.71
   1  -4  -1  894.13   35.96
   1  -4   0  195.98   16.92
   1  -4   1   45.26    8.75
   1  -4   2   -5.81    2.79
  -1   4  -2    1.69    1.93
  -1   4  -3   61.54   12.26
   1  -4   4   79.74   10.98
  -1   4  -4   69.84   15.20
  -1   4  -4   87.36   12.74
   1  -4   4   69.47   10.20
  -1   4  -5  159.44   17.26
   1  -4   5  191.02   17.88
   1  -4   5  160.67   15.30
  -1   4  -5  176.16   23.64
  -1   4  -6  226.13   21.30
   1  -4   6  218.85   19.08
  -1   4  -6  211.62   26.96
  -1   4  -7  114.89   11.77
   1  -4   7  113.97   13.70
  -1   4  -7   95.84   13.98
  -1   4  -8    0.26    2.38
  -1   4  -8    3.24    2.24
   1  -4   8    1.68    2.70
   1  -4   9   22.38    5.50
  -1   4  -9   23.64    4.63
  -1   4  -9   23.98    6.61
  -1   4 -10    1.17    2.86
   1  -4  10    1.33    1.73
   1  -3 -14   -4.00    2.62
   1  -3 -14    2.12    7.71
   1  -3 -13   24.72    5.53
   1  -3 -13  113.92   13.07
   1  -3 -12    5.44    6.28
   1  -3 -12    0.61    5.06
   1  -3 -12   -6.57    5.13
   1  -3 -12   -2.20    3.62
   1  -3 -11   14.31    6.38
   1  -3 -11   22.61    8.17
   1  -3 -11   16.09    5.64
   1  -3 -11   20.86    6.40
   1  -3 -11   18.97    6.71
   1  -3 -11   16.00    5.00
   1  -3 -11   25.14    7.31
   1  -3 -11   12.41    5.37
   1  -3 -10  102.03   12.31
   1  -3 -10   85.99   14.77
   1  -3 -10   87.96   11.25
   1  -3 -10   77.41   12.28
   1  -3 -10   88.30   14.20
   1  -3 -10   72.71   11.94
   1  -3 -10  101.48   14.31
   1  -3 -10   96.57   12.51
   1  -3 -10   76.02   13.34
   1  -3  -9  472.81   31.01
   1  -3  -9  493.13   27.30
   1  -3  -9  446.86   30.12
   1  -3  -9  485.61   25.53
   1  -3  -9  461.22   25.46
   1  -3  -9  468.06   30.51
   1  -3  -9  484.27   31.15
   1  -3  -9  459.36   26.06
   1  -3  -9  464.11   25.13
   1  -3  -9  477.66   28.23
   1  -3  -8  101.84   11.56
   1  -3  -8  113.25   11.84
   1  -3  -8   93.65   11.36
   1  -3  -8  109.92   14.98
   1  -3  -8  106.82   14.39
   1  -3  -8  111.20   14.34
   1  -3  -8  109.91   13.16
   1  -3  -8   94.44   11.51
   1  -3  -8   99.54   11.00
   1  -3  -8  102.39   13.99
   1  -3  -7  605.92   25.76
   1  -3  -6  100.17    9.90
   1  -3  -6   84.69   10.88
   1  -3  -5  805.23   30.96
   1  -3  -5  729.85   23.56
   1  -3  -4  383.96   15.07
   1  -3  -4  380.44   20.97
   1  -3  -3  518.25   23.86
   1  -3  -3  511.63   15.51
   1  -3  -2 4655.11   40.77
   1  -3  -2 4786.62   71.46
   1  -3  -1 1293.20   36.73
   1  -3  -1 1303.11   19.82
   1  -3   0  632.00   14.21
   1  -3   0  624.20   25.87
   1  -3   1  621.66   25.92
   1  -3   2 1343.31   37.99
   1  -3   3  366.62   19.13
  -1   3  -3  354.96   26.66
  -1   3  -4   99.76   15.11
  -1   3  -5  188.35   21.92
   1  -3   5  170.35   15.97
  -1   3  -5  167.66   17.09
  -1   3  -6  645.28   28.82
  -1   3  -6  595.02   33.34
   1  -3   6  613.57   30.66
  -1   3  -6  613.70   41.08
   1  -3   7  169.95   16.72
  -1   3  -7  164.24   22.38
  -1   3  -7  180.70   19.11
  -1   3  -7  166.34   15.71
  -1   3  -8   96.08   13.65
   1  -3   8   77.95   10.84
  -1   3  -8   74.82   10.47
  -1   3  -9   23.20    6.29
   1  -3   9    5.89    4.00
  -1   3  -9   10.56    4.23
  -1   3 -10   12.31    4.91
  -1   3 -10   15.03    4.72
   1  -3  10   17.30    4.82
  -1   3 -11    6.87    2.21
  -1   3 -11    1.57    1.23
  -1   3 -11    6.35    3.35
   1  -2 -14    3.43    7.36
   1  -2 -13    5.38   10.90
   1  -2 -13    3.55    3.14
   1  -2 -13    2.03    3.86
   1  -2 -13    2.93    3.53
   1  -2 -12   20.56    6.22
   1  -2 -12  140.99   15.66
   1  -2 -12  -17.62    9.12
   1  -2 -12   22.76    6.43
   1  -2 -12   31.39    6.78
   1  -2 -11   17.35    6.22
   1  -2 -11   22.07    8.89
   1  -2 -11   22.86    6.46
   1  -2 -11   27.51    8.08
   1  -2 -11   27.19    8.06
   1  -2 -11   19.88    7.39
   1  -2 -11   24.46    6.04
   1  -2 -11   15.89    7.11
   1  -2 -10  936.90   41.83
   1  -2 -10  910.52   43.88
   1  -2 -10  922.47   36.65
   1  -2 -10  869.13   39.88
   1  -2 -10  896.09   39.25
   1  -2 -10  911.72   41.97
   1  -2 -10  833.65   34.34
   1  -2 -10  798.78   34.90
   1  -2 -10  892.60   42.79
   1  -2 -10  884.56   32.27
   1  -2  -9  319.44   20.91
   1  -2  -9  283.86   22.43
   1  -2  -9  332.49   25.74
   1  -2  -9  320.01   24.70
   1  -2  -9  297.31   20.34
   1  -2  -9  310.00   22.54
   1  -2  -9  305.22   20.48
   1  -2  -9  265.59   23.54
   1  -2  -9  312.62   24.75
   1  -2  -8 1174.92   39.09
   1  -2  -8 1254.41   40.56
   1  -2  -8 1203.28   37.84
   1  -2  -8 1185.81   38.12
   1  -2  -8 1187.20   37.76
   1  -2  -8 1190.12   42.95
   1  -2  -8 1237.90   46.66
   1  -2  -8 1251.18   46.83
   1  -2  -7    7.98    3.57
   1  -2  -6   79.62    9.00
   1  -2  -6   93.37    7.34
   1  -2  -5   81.97    6.49
   1  -2  -5   90.33    9.36
   1  -2  -5   84.49    7.85
   1  -2  -4    3.30    3.07
   1  -2  -4   -0.43    1.83
   1  -2  -3 3764.96   55.42
   1  -2  -3 4508.91   42.69
   1  -2  -2  840.95   15.20
   1  -2  -2  817.38   25.30
   1  -2  -1  374.48   16.93
   1  -2  -1  364.82    7.77
   1  -2   0    5.25    3.14
   1  -2   1   94.06    8.90
   1  -2   2  545.27   20.71
   1  -2   3   99.01    8.89
  -1   2  -3   91.82    7.23
  -1   2  -4  269.52   22.13
  -1   2  -5  644.91   36.71
  -1   2  -6   56.15   11.47
  -1   2  -7  689.41   31.13
  -1   2  -7  697.75   42.69
  -1   2  -7  608.68   33.62
   1  -2   7  668.44   30.75
  -1   2  -8   42.31   15.13
   1  -2   8   53.96    9.49
  -1   2  -8   52.01    9.12
  -1   2  -8   52.27   10.76
  -1   2  -9   -0.72    1.37
   1  -2   9    4.21    3.54
  -1   2  -9    1.80    4.92
  -1   2 -10   13.86    5.22
  -1   2 -10    5.21    3.75
   1  -2  10    3.84    2.92
  -1   2 -11    6.19    4.70
  -1   2 -11    5.57    3.12
  -1   2 -12  168.05   12.70
  -1   2 -12  169.37   10.62
   1  -1 -14    6.86    4.06
   1  -1 -13   99.37   14.96
   1  -1 -13   81.85   10.36
   1  -1 -13   95.09   10.95
   1  -1 -13   80.53    8.58
   1  -1 -13   88.42    8.11
   1  -1 -12  182.29   20.21
   1  -1 -12  172.14   16.59
   1  -1 -12  201.67   15.48
   1  -1 -12  159.09   12.82
   1  -1 -12  185.75   18.32
   1  -1 -11   66.89   12.88
   1  -1 -11   67.82   11.38
   1  -1 -11   70.20    9.42
   1  -1 -11   69.37    9.74
   1  -1 -11   64.79   11.98
   1  -1 -11   55.69   10.06
   1  -1 -11  172.48   18.53
   1  -1 -10  569.76   34.32
   1  -1 -10  549.09   27.03
   1  -1 -10  572.49   34.44
   1  -1 -10  612.00   34.60
   1  -1 -10  548.36   29.10
   1  -1 -10  557.57   29.11
   1  -1 -10  566.33   27.96
   1  -1  -9  291.51   23.01
   1  -1  -9  327.70   24.72
   1  -1  -9  293.17   24.32
   1  -1  -9  291.01   24.11
   1  -1  -9  300.41   22.38
   1  -1  -9  291.09   19.74
   1  -1  -9  288.58   20.58
   1  -1  -9  296.02   19.47
   1  -1  -9  285.11   20.02
   1  -1  -8  519.23   27.13
   1  -1  -8  503.85   28.55
   1  -1  -8  480.69   28.79
   1  -1  -8  489.89   24.22
   1  -1  -8  549.75   26.02
   1  -1  -8  487.57   29.76
   1  -1  -8  489.85   24.67
   1  -1  -7  408.59   20.25
   1  -1  -7  443.28   22.55
   1  -1  -6   32.08    5.83
   1  -1  -6   34.93    5.65
   1  -1  -5   60.67    6.78
   1  -1  -5   57.49    6.06
   1  -1  -5   66.11    7.25
   1  -1  -4  797.92   21.77
   1  -1  -4 1133.16   24.88
   1  -1  -4 1137.38   23.99
   1  -1  -3  146.35    7.81
   1  -1  -3  141.91    9.06
   1  -1  -3  146.84    7.59
   1  -1  -2  632.01   12.55
   1  -1  -2  651.31   18.31
   1  -1  -2  638.89   13.90
   1  -1  -1 4267.81   19.43
   1  -1  -1 4186.09   44.85
   1  -1   0   35.62    4.50
   1  -1   1   33.79    4.55
  -1   1  -1   25.29    2.13
   1  -1   2 9999.00   70.86
  -1   1  -2 9976.23   54.68
   1  -1   3  617.62   18.22
  -1   1  -3  526.58   14.54
  -1   1  -3  535.03   15.82
  -1   1  -4   32.63    3.68
   1  -1   4   33.79    4.76
  -1   1  -4   40.96    5.26
  -1   1  -5 1328.55   46.38
  -1   1  -5 1570.34   36.09
  -1   1  -6 1210.25   48.04
  -1   1  -6 1199.90   35.76
  -1   1  -7   35.34    9.47
  -1   1  -7   34.54    7.14
  -1   1  -7   46.19    9.79
  -1   1  -8   35.67    8.73
  -1   1  -8   29.24    9.92
   1  -1   8   35.36    7.21
  -1   1  -8   30.69    7.21
  -1   1  -9   89.65   12.26
   1  -1   9   89.88   11.03
  -1   1  -9   75.68   17.39
  -1   1  -9   99.72   14.07
  -1   1 -10   99.30   12.19
  -1   1 -10   88.05   13.02
  -1   1 -11  151.45   14.26
  -1   1 -11  131.49   15.55
  -1   1 -12  197.93   13.89
  -1   1 -12  194.67   15.82
  -1   1 -13  191.30   10.58
  -1   1 -13  191.10   12.04
   1   0 -13   14.86    4.25
   1   0 -13    3.69    5.59
   1   0 -13   17.92    4.06
   1   0 -13   21.94    5.48
   1   0 -12  112.73   17.09
   1   0 -12   92.93   10.27
   1   0 -12   88.47   12.00
   1   0 -12   85.23   11.93
   1   0 -12   91.21    9.82
   1   0 -11   46.22    8.08
   1   0 -11   54.24   17.04
   1   0 -11   55.90   10.97
   1   0 -11   57.33    8.91
   1   0 -11   38.20    9.42
   1   0 -11   45.12    9.50
   1   0 -10    7.39    6.25
   1   0 -10    1.83    1.73
   1   0 -10    6.07    3.40
   1   0 -10   -2.86    3.23
   1   0 -10   -2.52    3.26
   1   0  -9  611.38   34.51
   1   0  -9  618.12   30.26
   1   0  -9  628.69   30.45
   1   0  -9  597.77   33.87
   1   0  -9  575.80   27.42
   1   0  -9  587.39   28.86
   1   0  -9  601.45   34.13
   1   0  -8  778.96   30.33
   1   0  -8  716.52   30.02
   1   0  -8  831.58   35.09
   1   0  -8  775.78   36.32
   1   0  -8  770.77   31.86
   1   0  -8  827.27   38.07
   1   0  -8  758.62   31.56
   1   0  -8  790.75   36.69
   1   0  -8  770.67   33.67
   1   0  -7   18.23    5.45
   1   0  -7   11.91    4.90
   1   0  -6   82.75   10.06
   1   0  -6   96.92   10.45
   1   0  -5  163.13   12.44
   1   0  -5  177.28   12.09
  -1   0   4  221.07    6.25
   1   0  -4  242.22   12.15
   1   0  -4  264.30   14.04
   1   0  -4  237.29    6.97
   1   0  -3 4079.12   41.91
   1   0  -3 4272.79   34.83
   1   0  -3 4075.84   47.31
   1   0  -2  164.29    6.99
   1   0  -2  158.50    7.76
   1   0  -2  155.31    6.88
   1   0  -1 1565.18   21.51
   1   0  -1 1458.30   20.23
   1   0   0   69.59    4.86
  -1   0   0   54.04    3.88
  -1   0  -1 1053.92   13.87
  -1   0  -1  939.21   16.69
  -1   0  -2 7546.20   49.07
  -1   0  -2 7663.32   47.66
  -1   0  -3   80.94    6.26
  -1   0  -3   93.83    5.67
  -1   0  -4  836.99   22.64
   1   0   4  898.68   21.15
  -1   0  -4  865.84   17.52
  -1   0  -5   48.05    4.56
  -1   0  -5   51.47    8.37
  -1   0  -5   57.10    6.96
   1   0   5   47.26    5.00
  -1   0  -6  893.29   36.62
  -1   0  -6  997.36   31.65
  -1   0  -7  137.76   13.16
  -1   0  -7  161.40   16.96
  -1   0  -8   -1.76    2.37
  -1   0  -8    1.46    2.46
  -1   0  -8    5.37    4.21
  -1   0  -8    7.41    5.18
  -1   0  -8    0.10    3.16
  -1   0  -9   14.66    4.95
  -1   0  -9   11.83    3.92
  -1   0  -9   13.61    4.60
  -1   0  -9   16.88    6.77
  -1   0  -9   14.35    4.21
  -1   0 -10   18.38    4.89
  -1   0 -10  -10.07    6.55
  -1   0 -10   12.01    6.74
  -1   0 -10   12.49    4.85
  -1   0 -11   33.78    9.25
  -1   0 -11   23.40    7.28
  -1   0 -11   29.53    6.15
  -1   0 -11   21.23    5.57
  -1   0 -12  214.71   17.75
  -1   0 -12  213.21   15.84
  -1   0 -13   63.99    8.18
  -1   0 -13   64.84    7.31
   1   1 -13   -0.26    1.58
   1   1 -13    1.51    1.59
   1   1 -12   -0.70    2.50
   1   1 -12    0.84    1.28
   1   1 -12   -4.24    2.48
   1   1 -11    4.60    3.91
   1   1 -11    3.27    3.75
   1   1 -11    1.86    2.80
   1   1 -11    1.38    2.62
   1   1 -10  155.20   19.91
   1   1 -10  141.31   15.99
   1   1 -10  134.31   14.18
   1   1 -10  133.59   16.01
   1   1 -10  130.74   12.89
   1   1 -10  122.73   15.81
   1   1  -9  350.89   26.69
   1   1  -9  393.23   26.45
   1   1  -9  401.63   26.38
   1   1  -9  369.76   26.92
   1   1  -9  437.76   25.40
   1   1  -9  388.29   21.68
   1   1  -9  389.60   27.51
   1   1  -8    0.37    4.02
   1   1  -8   -2.23    1.89
   1   1  -8   11.87    5.89
   1   1  -8   -3.42    8.81
   1   1  -8    6.19    4.27
   1   1  -8    7.70    5.28
   1   1  -8   -2.89    3.16
   1   1  -7  438.24   26.87
   1   1  -6    0.73    3.79
   1   1  -5  269.03   18.15
   1   1  -4   76.38    9.10
   1   1  -3  725.79   24.01
   1   1  -2 1611.33   31.12
  -1  -1   2 1632.79   15.60
  -1  -1   1  215.47    6.75
   1   1  -1  211.79    9.42
   1   1   0 6524.61   40.61
  -1  -1   0 6396.34   40.15
  -1  -1  -1 2330.46   24.89
  -1  -1  -1 2175.43   25.66
   1   1   1 2405.90   20.59
  -1  -1  -2 1659.50   23.23
  -1  -1  -2 1583.24   24.31
  -1  -1  -3  231.31    9.24
  -1  -1  -3  215.56   10.41
  -1  -1  -4  795.39   17.94
  -1  -1  -4  808.53   22.67
  -1  -1  -5 2060.56   43.41
  -1  -1  -5 2002.20   39.43
  -1  -1  -6 1381.52   36.81
  -1  -1  -6 1315.95   37.83
  -1  -1  -7   33.94    7.65
  -1  -1  -7   42.79    7.81
  -1  -1  -8    1.07    2.12
  -1  -1  -9  155.02   13.88
  -1  -1  -9  137.98   14.97
  -1  -1  -9  136.60   15.47
  -1  -1  -9  167.69   15.69
  -1  -1  -9  152.26   13.87
  -1  -1 -10   30.05    7.14
  -1  -1 -10   25.36    8.13
  -1  -1 -10   22.92    6.75
  -1  -1 -10   27.28    6.75
  -1  -1 -10   29.85    6.89
  -1  -1 -11  375.21   21.64
  -1  -1 -11  386.86   22.46
  -1  -1 -11  351.90   22.70
  -1  -1 -11  453.85   28.41
  -1  -1 -12   47.12    7.69
  -1  -1 -12   48.50   10.70
  -1  -1 -12   47.31    7.39
  -1  -1 -12   41.17    8.53
  -1  -1 -13   35.58    7.86
  -1  -1 -13   39.56    6.56
  -1  -1 -13   36.29    5.99
  -1  -1 -13   33.97    5.47
  -1  -1 -14  104.35    7.42
   1   2 -13    2.06    1.43
   1   2 -12   13.78    3.97
   1   2 -12   14.76    4.62
   1   2 -11  263.97   17.31
   1   2 -11  259.01   19.93
   1   2 -10  390.79   26.49
   1   2 -10  446.22   26.91
   1   2 -10  383.41   23.07
   1   2  -9  377.95   23.64
   1   2  -9  345.10   25.42
   1   2  -9  403.22   27.61
   1   2  -8  536.40   31.26
   1   2  -8  536.52   34.35
   1   2  -8  506.54   27.57
   1   2  -8  531.18   28.69
   1   2  -8  571.70   32.62
   1   2  -7    4.12    2.73
   1   2  -7   16.19    5.44
   1   2  -7   32.10    9.20
   1   2  -7   -0.48    2.83
   1   2  -7    8.73    7.06
   1   2  -6   28.71    8.51
   1   2  -5  354.40   23.57
   1   2  -4  361.97   21.76
   1   2  -3 1407.90   38.70
   1   2  -2  250.28   14.66
   1   2  -1  893.39   23.52
   1   2   0  353.72   12.33
   1   2   1  828.28   13.95
  -1  -2  -2  427.42   13.89
  -1  -2  -3  332.53   13.70
  -1  -2  -4 1933.73   25.92
  -1  -2  -4 1825.43   35.69
  -1  -2  -5  537.98   21.47
  -1  -2  -5  563.87   16.59
  -1  -2  -6  610.22   25.06
  -1  -2  -7 1556.09   42.93
  -1  -2  -8    4.19    3.66
  -1  -2  -9   95.24   11.17
  -1  -2  -9  104.81   13.99
  -1  -2  -9  108.01   12.08
  -1  -2  -9   96.62   11.28
  -1  -2  -9  107.23   13.49
  -1  -2  -9  104.25   12.70
  -1  -2 -10    5.20    4.33
  -1  -2 -10    9.33    5.72
  -1  -2 -10    8.69    3.47
  -1  -2 -10    3.29    4.55
  -1  -2 -10    5.36    2.95
  -1  -2 -10    7.74    7.32
  -1  -2 -10   -1.41    5.62
  -1  -2 -11  208.61   16.89
  -1  -2 -11  236.93   18.48
  -1  -2 -11  190.76   16.29
  -1  -2 -11  259.31   19.94
  -1  -2 -11  210.59   18.55
  -1  -2 -12  172.67   16.56
  -1  -2 -12  189.78   15.28
  -1  -2 -12  183.32   15.25
  -1  -2 -12  168.02   14.30
  -1  -2 -13  141.76   12.35
  -1  -2 -13  143.73   11.66
  -1  -2 -13  104.35   12.71
  -1  -2 -13  133.47   11.38
  -1  -2 -14  150.30    9.11
  -1  -2 -14  141.07    9.78
  -1  -2 -14  138.71    8.99
   1   3 -12   -0.16    0.99
   1   3 -12   -0.36    1.48
   1   3 -11   18.61    5.61
   1   3 -11   25.46    4.83
   1   3 -10  114.59   11.86
   1   3 -10   85.20    9.86
   1   3 -10  113.18   13.45
   1   3  -9  230.62   20.34
   1   3  -9  188.90   16.67
   1   3  -9  233.47   18.35
   1   3  -8   85.53   12.70
   1   3  -8   70.66   10.24
   1   3  -8   68.85   11.82
   1   3  -7    6.76    4.21
   1   3  -7   11.51    4.59
   1   3  -7   16.65    5.61
   1   3  -7    5.66    4.35
   1   3  -6   10.86    4.76
   1   3  -6   21.79    8.26
   1   3  -6   12.89    4.71
   1   3  -5  357.05   26.15
   1   3  -4  203.82   18.75
   1   3  -3   20.18    6.55
   1   3  -2 1518.32   41.31
   1   3  -1 1315.57   34.07
   1   3   0  449.58   17.06
   1   3   1  179.89    8.59
   1   3   2  110.58    4.42
  -1  -3  -2  113.62    8.47
  -1  -3  -3  298.38   14.49
  -1  -3  -4  168.96   11.61
  -1  -3  -5 3159.27   54.08
  -1  -3  -6  802.50   29.92
  -1  -3  -7  236.16   17.56
  -1  -3  -8   20.06    5.76
  -1  -3  -9    3.88    3.57
  -1  -3  -9   -2.05    3.20
  -1  -3  -9    7.95    3.45
  -1  -3  -9   -0.27    2.22
  -1  -3  -9    0.60    1.28
  -1  -3  -9   -2.22    2.60
  -1  -3 -10  123.26   13.26
  -1  -3 -10  121.28   15.38
  -1  -3 -10  112.79   12.51
  -1  -3 -10  108.25   14.50
  -1  -3 -10  149.24   14.59
  -1  -3 -10  107.76   12.64
  -1  -3 -11   93.86   11.90
  -1  -3 -11  131.94   13.68
  -1  -3 -11  100.12   11.83
  -1  -3 -11  102.00   11.82
  -1  -3 -12  366.01   21.54
  -1  -3 -12  347.10   21.00
  -1  -3 -12  347.36   20.09
  -1  -3 -12  425.09   23.57
  -1  -3 -13  183.14   12.63
  -1  -3 -13  215.43   14.95
  -1  -3 -13  214.25   15.00
  -1  -3 -14   56.08    6.32
  -1  -3 -14   60.91    8.54
   1   4 -11   20.21    4.03
   1   4 -11   21.38    3.31
   1   4 -10  125.43   10.80
   1   4 -10  100.78    9.35
   1   4 -10  121.22   11.83
   1   4  -9  130.19   14.09
   1   4  -9  135.54   13.40
   1   4  -9  161.43   13.79
   1   4  -8    2.71    3.99
   1   4  -8    3.20    2.41
   1   4  -7   -2.18    2.36
  -1  -4   7    4.38    3.78
   1   4  -7    1.26    2.15
   1   4  -6  136.06   13.61
   1   4  -6  124.68   18.75
   1   4  -6  138.80   15.56
  -1  -4   6  123.50   13.89
   1   4  -5  523.69   28.47
   1   4  -5  510.64   33.93
   1   4  -5  531.80   25.26
  -1  -4   5  559.42   27.58
   1   4  -4  435.26   29.47
   1   4  -3  779.12   37.13
   1   4  -2  696.04   32.63
   1   4  -1   48.42    8.39
   1   4   0 1099.03   31.67
   1   4   1   17.27    3.85
  -1  -4  -2  507.10   19.81
   1   4   2  479.27   12.54
  -1  -4  -3   10.92    3.78
  -1  -4  -4 2129.15   44.87
  -1  -4  -5  718.41   27.56
  -1  -4  -6   -1.08    3.74
  -1  -4  -7  381.17   23.02
  -1  -4  -8   57.31    9.07
  -1  -4  -8   51.25    8.21
  -1  -4  -8   44.92    7.85
  -1  -4  -8   44.08    8.68
  -1  -4  -8   45.13    9.49
  -1  -4  -8   39.37    7.50
  -1  -4  -9   35.51    6.53
  -1  -4  -9   22.59    5.34
  -1  -4  -9   25.22    6.88
  -1  -4  -9   21.64    7.07
  -1  -4  -9   23.22    5.80
  -1  -4 -10   18.28    5.02
  -1  -4 -10   24.07    6.74
  -1  -4 -10   20.97    5.76
  -1  -4 -10   19.08    5.07
  -1  -4 -10   18.80    6.56
  -1  -4 -11  136.69   13.61
  -1  -4 -11  127.09   13.50
  -1  -4 -11  111.09   12.56
  -1  -4 -12  142.94   13.43
  -1  -4 -12  131.78   13.17
  -1  -4 -12  118.91   12.84
  -1  -4 -13  112.46   11.08
  -1  -4 -13  106.47   10.49
  -1  -4 -14    2.24    5.23
  -1  -4 -14   25.43    4.54
   1   5 -10   58.96    5.77
   1   5 -10   52.48    4.66
   1   5  -9  113.95   10.63
   1   5  -9  118.42   10.73
   1   5  -9  112.53    9.24
  -1  -5   8   64.34    8.61
   1   5  -8   81.16    9.32
   1   5  -8   68.28   10.27
   1   5  -8   67.82    9.78
  -1  -5   7    9.88    3.82
   1   5  -7    5.68    3.22
   1   5  -7    7.16    4.24
   1   5  -6    2.24    2.49
  -1  -5   6    0.95    3.26
   1   5  -6   -1.03    1.73
   1   5  -5  127.20   19.22
  -1  -5   5  125.85   14.37
   1   5  -5  126.97   12.21
   1   5  -4  231.80   23.53
  -1  -5   4  201.15   17.72
   1   5  -4  226.10   15.80
  -1  -5   3   56.15    9.96
   1   5  -3   51.16   11.90
   1   5  -2  688.63   35.45
   1   5  -1  389.67   24.69
   1   5   0  336.40   20.05
   1   5   1   -1.54    1.66
  -1  -5  -1   -4.66    3.73
  -1  -5  -2  513.33   23.12
  -1  -5  -3  535.87   24.02
  -1  -5  -4 1283.58   38.49
  -1  -5  -5 1465.50   42.81
  -1  -5  -6  452.84   24.91
  -1  -5  -7   28.47    6.86
  -1  -5  -7   29.57    8.51
  -1  -5  -7   24.03    6.15
  -1  -5  -7   24.37    8.03
  -1  -5  -8    3.66    3.18
  -1  -5  -8    6.89    5.08
  -1  -5  -8   -2.02    3.88
  -1  -5  -8    1.81    2.41
  -1  -5  -8   -4.66    3.52
  -1  -5  -8    5.38    3.25
  -1  -5  -8   -7.97    5.52
  -1  -5  -9   21.03    5.58
  -1  -5  -9    4.51    5.94
  -1  -5  -9   15.55    4.97
  -1  -5  -9   11.59    5.27
  -1  -5  -9   12.75    4.93
  -1  -5 -10   72.90   10.75
  -1  -5 -10   84.29   11.11
  -1  -5 -10   80.47   10.65
  -1  -5 -10   81.71   10.79
  -1  -5 -11  252.13   18.45
  -1  -5 -11  248.22   18.98
  -1  -5 -11  281.62   19.38
  -1  -5 -11  281.47   18.86
  -1  -5 -12  139.71   13.16
  -1  -5 -12  153.88   14.10
  -1  -5 -12  130.96   12.61
  -1  -5 -13   86.46    9.13
  -1  -5 -13   79.13    8.86
  -1  -5 -13  108.12   10.47
  -1  -5 -14   37.41    5.50
  -1  -5 -14   43.55    5.52
   1   6  -9   52.20    5.46
  -1  -6   8  184.07   10.44
   1   6  -8  224.03   14.35
  -1  -6   8  170.28   11.65
  -1  -6   7   68.68    8.01
   1   6  -7   76.12   10.08
  -1  -6   7   66.99    9.38
  -1  -6   6   38.45    7.45
   1   6  -6   38.43    7.47
  -1  -6   5    2.67    3.81
  -1  -6   4   22.85    7.01
   1   6  -3  428.95   31.77
  -1  -6   3  424.69   26.86
  -1  -6   2  152.56   16.02
   1   6  -2  155.70   18.54
  -1  -6   2  152.35   14.84
   1   6  -1  457.72   28.53
  -1  -6   1  585.90   29.09
  -1  -6   1  540.27   25.60
  -1  -6   1  526.08   28.19
  -1  -6   0   49.24    8.89
  -1  -6   0   53.28    7.99
  -1  -6   0   60.52    9.93
  -1  -6   0   44.94    7.78
  -1  -6  -1   -6.53    4.57
  -1  -6  -2   53.98    8.93
  -1  -6  -3  364.45   22.53
  -1  -6  -4   61.88    9.75
  -1  -6  -4   72.21    9.17
  -1  -6  -5 1049.87   35.46
  -1  -6  -5  959.35   37.60
  -1  -6  -5 1075.02   44.86
  -1  -6  -5 1109.70   35.69
  -1  -6  -6  675.42   28.77
  -1  -6  -6  705.59   36.71
  -1  -6  -6  684.33   29.82
  -1  -6  -6  650.79   34.01
  -1  -6  -6  661.22   32.25
  -1  -6  -7 1113.85   40.81
  -1  -6  -7 1151.95   43.96
  -1  -6  -7 1048.10   44.90
  -1  -6  -7 1074.77   38.73
  -1  -6  -7 1115.39   46.36
  -1  -6  -7 1093.52   37.64
  -1  -6  -8    7.99    4.46
  -1  -6  -8    1.31    2.69
  -1  -6  -8   10.32    5.34
  -1  -6  -8    3.23    5.90
  -1  -6  -8    7.16    3.20
  -1  -6  -9    0.41    2.17
  -1  -6  -9   -4.75    3.29
  -1  -6  -9   -0.85    1.42
  -1  -6  -9   -2.34    2.94
  -1  -6  -9   -0.98    1.99
  -1  -6 -10   17.16    5.45
  -1  -6 -10   17.94    6.08
  -1  -6 -10   21.48    5.91
  -1  -6 -10   25.17    5.68
  -1  -6 -11   -0.77    2.59
  -1  -6 -11    3.41    2.46
  -1  -6 -11    4.53    3.51
  -1  -6 -11    2.99    2.70
  -1  -6 -12  371.70   20.60
  -1  -6 -12  370.87   19.54
  -1  -6 -12  312.95   18.21
  -1  -6 -12  349.97   19.53
  -1  -6 -13   60.95    7.57
  -1  -6 -13   70.71    7.51
  -1  -6 -13   50.95    7.10
  -1  -6 -14   76.98    6.87
  -1  -6 -14   91.42    6.58
  -1  -7   7  140.88   10.46
   1   7  -7  149.35   10.98
  -1  -7   6   61.59    7.02
   1   7  -6   78.09    9.45
  -1  -7   6   70.27    9.29
  -1  -7   5   73.52    9.03
   1   7  -5   69.64   10.09
  -1  -7   5   98.31   12.28
   1   7  -4   19.38    5.68
  -1  -7   4   12.96    5.39
  -1  -7   4   16.85    6.03
  -1  -7   3  240.74   18.03
   1   7  -3  212.23   18.02
  -1  -7   3  279.92   22.34
   1   7  -2  712.48   32.39
  -1  -7   2  897.21   34.94
  -1  -7   2  835.67   36.58
  -1  -7   2  866.09   39.09
  -1  -7   1  265.61   19.07
  -1  -7   1  325.11   23.53
  -1  -7   1  299.46   22.68
   1   7  -1  245.03   18.13
   1   7   0   24.85    6.28
  -1  -7   0   25.75    8.62
  -1  -7   0   20.17    6.18
  -1  -7   0   25.48    7.12
  -1  -7  -1   30.76    7.52
   1   7   1   33.42    8.77
  -1  -7  -1   40.95    9.44
  -1  -7  -1   34.05    8.25
  -1  -7  -1   28.37    6.77
  -1  -7  -2  159.36   15.82
  -1  -7  -2  145.48   17.28
  -1  -7  -2  166.20   14.82
  -1  -7  -2  165.83   17.11
  -1  -7  -2  149.68   15.57
  -1  -7  -3  275.36   19.48
  -1  -7  -3  293.72   22.88
  -1  -7  -3  263.73   20.14
  -1  -7  -3  284.36   24.12
  -1  -7  -3  254.76   21.24
  -1  -7  -4  585.29   31.84
  -1  -7  -4  617.68   28.97
  -1  -7  -4  581.42   34.74
  -1  -7  -4  549.48   28.16
  -1  -7  -4  582.33   27.73
  -1  -7  -5  596.64   29.11
  -1  -7  -5  609.84   32.10
  -1  -7  -5  624.27   29.11
  -1  -7  -5  642.65   36.48
  -1  -7  -6  149.24   15.58
  -1  -7  -6  140.82   14.58
  -1  -7  -6  153.85   18.41
  -1  -7  -6  114.59   15.07
  -1  -7  -6  127.96   13.29
  -1  -7  -7  233.85   19.01
  -1  -7  -7  271.46   24.05
  -1  -7  -7  249.12   19.79
  -1  -7  -7  243.79   18.46
  -1  -7  -8   17.70    5.01
  -1  -7  -8   23.01    6.76
  -1  -7  -8   23.78    6.70
  -1  -7  -8   18.55    5.90
  -1  -7  -9   35.24    7.27
  -1  -7  -9   26.93    6.73
  -1  -7  -9   41.27    8.02
  -1  -7  -9   27.80    7.61
  -1  -7 -10   37.34    7.59
  -1  -7 -10   28.19    7.50
  -1  -7 -10   35.76    7.70
  -1  -7 -10   38.97    7.27
  -1  -7 -11  141.15   13.45
  -1  -7 -11  130.41   11.99
  -1  -7 -11  139.47   13.07
  -1  -7 -12  283.66   13.87
  -1  -7 -12  290.32   15.28
  -1  -7 -12  321.16   17.45
  -1  -7 -12  262.56   16.07
  -1  -7 -13  304.25   14.48
   1   8  -6    3.75    1.69
  -1  -8   6    2.27    1.27
  -1  -8   5   -0.18    1.84
  -1  -8   5   -2.96    1.85
   1   8  -5    0.24    2.02
  -1  -8   4   49.44    6.48
  -1  -8   4   53.72    8.72
   1   8  -4   54.34    7.30
  -1  -8   3  513.68   22.92
   1   8  -3  501.98   23.99
  -1  -8   3  519.89   28.02
  -1  -8   2  136.59   12.74
   1   8  -2  121.27   12.05
  -1  -8   2  130.60   14.40
  -1  -8   1  106.77   13.37
  -1  -8   1  114.61   12.27
  -1  -8   0   10.39    4.51
  -1  -8   0    9.98    4.22
  -1  -8  -1   95.50   11.80
  -1  -8  -1  102.88   13.13
   1   8   2   55.07    9.62
  -1  -8  -2   72.64   10.29
  -1  -8  -2   63.11   11.51
  -1  -8  -2   70.77   11.28
  -1  -8  -3   22.44    6.05
  -1  -8  -3   26.99    7.98
  -1  -8  -3   26.68    8.20
  -1  -8  -4 1084.86   47.95
  -1  -8  -4 1009.67   38.80
  -1  -8  -4 1002.81   38.73
  -1  -8  -4  905.64   35.72
  -1  -8  -5   -4.10    3.51
  -1  -8  -5    0.49    1.91
  -1  -8  -5    2.68    4.60
  -1  -8  -6   69.61   12.60
  -1  -8  -6   48.79    9.66
  -1  -8  -6   63.59    9.63
  -1  -8  -6   49.95    9.64
  -1  -8  -7   34.48    7.63
  -1  -8  -7   34.82    9.28
  -1  -8  -7   31.22    9.52
  -1  -8  -7   47.61    8.88
  -1  -8  -8    0.82    2.94
  -1  -8  -8    1.34    4.12
  -1  -8  -8    2.58    2.66
  -1  -8  -8   -1.01    1.85
  -1  -8  -9   18.06    6.01
  -1  -8  -9   24.94    6.99
  -1  -8  -9   19.68    6.03
  -1  -8  -9   22.05    5.01
  -1  -8 -10   28.97    6.04
  -1  -8 -10   28.55    6.57
  -1  -8 -10   29.14    7.35
  -1  -8 -10   22.87    5.43
  -1  -8 -11  137.35   11.37
  -1  -8 -11  135.88   11.64
  -1  -8 -11  133.96   10.32
  -1  -8 -12  489.11   18.24
  -1  -8 -12  359.00   13.78
  -1  -8 -12  416.51   17.31
  -1  -9   4    0.76    1.35
  -1  -9   3    1.21    1.82
  -1  -9   3   10.49    3.37
  -1  -9   2  259.02   14.09
  -1  -9   2  284.48   18.18
  -1  -9   1  173.58   12.91
  -1  -9   1  183.54   15.61
  -1  -9   0  190.30   14.43
  -1  -9   0  190.66   16.07
  -1  -9  -1    4.86    4.19
  -1  -9  -1   18.46    5.87
  -1  -9  -2    3.85    3.87
  -1  -9  -2    4.95    3.76
  -1  -9  -2    9.36    4.61
  -1  -9  -2   12.60    4.30
  -1  -9  -3  117.24   12.75
   1   9   3  113.54   12.36
  -1  -9  -3  117.09   14.43
  -1  -9  -3   98.34   11.58
  -1  -9  -3  133.91   13.41
  -1  -9  -4  138.81   13.80
  -1  -9  -4  151.95   17.00
  -1  -9  -4  129.86   12.90
   1   9   4  150.96   14.74
  -1  -9  -4  126.08   12.94
  -1  -9  -4  154.79   13.97
  -1  -9  -5  873.35   33.25
  -1  -9  -5  945.51   41.98
  -1  -9  -5  832.11   33.46
  -1  -9  -5  820.22   31.90
  -1  -9  -6  442.93   24.42
  -1  -9  -6  429.44   23.30
  -1  -9  -6  477.43   29.57
  -1  -9  -6  475.17   24.05
  -1  -9  -7   77.00    9.70
  -1  -9  -7   71.76   11.45
  -1  -9  -7   73.35   10.41
  -1  -9  -7   65.55    8.62
  -1  -9  -8    6.74    3.94
  -1  -9  -8    9.47    5.28
  -1  -9  -8    8.26    3.77
  -1  -9  -8    8.97    4.12
  -1  -9  -9   26.29    4.84
  -1  -9  -9   19.99    4.74
  -1  -9  -9   18.32    5.63
  -1  -9  -9   26.65    5.97
  -1  -9 -10   28.74    5.56
  -1  -9 -10   44.35    5.49
  -1  -9 -10   51.53    7.06
  -1  -9 -10   49.54    6.27
  -1  -9 -11   48.43    5.49
  -1  -9 -11   47.44    5.83
  -1 -10   1   13.41    2.80
  -1 -10   1   15.60    3.35
  -1 -10   0   22.13    3.74
  -1 -10   0   29.55    5.36
  -1 -10   0   25.14    4.31
  -1 -10  -1    1.53    1.83
  -1 -10  -1    2.10    1.67
  -1 -10  -1    4.15    2.16
  -1 -10  -2   10.03    2.88
  -1 -10  -2    7.17    2.95
  -1 -10  -2    6.09    3.42
  -1 -10  -3    0.79    2.26
  -1 -10  -3    4.95    2.67
  -1 -10  -3    4.53    2.30
  -1 -10  -4   68.62    7.88
  -1 -10  -4   50.24    8.06
  -1 -10  -4   63.89    8.43
  -1 -10  -5  187.19   13.52
  -1 -10  -5  155.14   14.21
  -1 -10  -5  168.38   12.12
   1  10   6  129.51   10.69
  -1 -10  -6  116.56   12.18
  -1 -10  -6  177.40   13.02
  -1 -10  -6  155.23   11.21
   1  10   7   58.62    7.09
  -1 -10  -7   56.93    6.57
  -1 -10  -7   79.76    8.54
  -1 -10  -7   58.58    8.61
  -1 -10  -8    9.13    2.30
  -1 -10  -8    8.37    3.36
  -1 -10  -8    8.35    3.07
  -1 -10  -9    4.61    2.13
  -1 -10  -9    3.16    2.15
   2  -9  -8   52.67    5.99
   2  -9  -8   79.31    6.13
   2  -9  -7   44.01    5.43
   2  -9  -7   37.72    6.04
   2  -9  -6   26.30    5.21
   2  -9  -6   32.99    5.07
   2  -9  -5   19.94    4.10
   2  -9  -5   18.02    4.59
   2  -9  -4  125.11   11.54
   2  -9  -4  138.87   10.31
   2  -9  -3   86.23    7.98
   2  -9  -3   72.74    8.15
   2  -9  -2    4.22    1.90
   2  -9  -1  228.94   11.69
   2  -8 -10   52.47    5.75
   2  -8  -9   -1.59    2.01
   2  -8  -9    2.55    2.34
   2  -8  -8    5.49    2.96
   2  -8  -8    3.28    3.77
   2  -8  -7   43.03    8.56
   2  -8  -7   47.93    7.62
   2  -8  -6  154.63   16.40
   2  -8  -6  154.76   13.51
   2  -8  -5  157.39   13.65
   2  -8  -5  156.90   13.31
   2  -8  -5  177.41   17.82
   2  -8  -4  599.69   33.20
   2  -8  -4  572.75   26.69
   2  -8  -4  562.10   25.67
   2  -8  -3   68.55   11.35
   2  -8  -3   69.22    9.86
   2  -8  -3   60.41    8.90
   2  -8  -2  101.43   13.35
   2  -8  -2   98.52   12.17
   2  -8  -2  103.80   11.00
   2  -8  -1   84.94   10.68
   2  -8  -1   77.30   11.15
   2  -8  -1   92.28   10.62
   2  -8   0    5.87    3.67
   2  -8   0    6.95    4.60
   2  -8   1   37.45    7.09
   2  -8   1   32.82    5.77
   2  -8   2    5.48    2.37
   2  -8   2    4.07    2.41
   2  -8   2    5.98    2.75
   2  -7 -12   22.18    3.58
   2  -7 -11   25.07    4.49
   2  -7 -10  249.15   17.61
   2  -7 -10  289.64   16.33
   2  -7  -9   10.09    4.10
   2  -7  -9    8.19    4.04
   2  -7  -9    9.22    4.86
   2  -7  -9    9.45    5.04
   2  -7  -8   -2.07    2.66
   2  -7  -8    0.26    3.78
   2  -7  -8    6.60    3.65
   2  -7  -8    0.36    0.97
   2  -7  -7   30.45    6.86
   2  -7  -7   37.37    6.58
   2  -7  -7   32.64    8.00
   2  -7  -7   34.54    9.36
   2  -7  -6   60.09    9.60
   2  -7  -6   48.00   10.02
   2  -7  -6   63.93   10.03
   2  -7  -5  292.26   26.26
   2  -7  -5  314.67   20.86
   2  -7  -5  317.79   21.63
   2  -7  -4  205.85   22.03
   2  -7  -4  255.40   19.60
   2  -7  -4  261.42   19.27
   2  -7  -3  616.72   37.84
   2  -7  -3  651.83   32.21
   2  -7  -3  687.26   31.28
   2  -7  -2  124.19   14.59
   2  -7  -2  120.99   17.03
   2  -7  -2  131.31   13.76
   2  -7  -1    4.90    3.45
  -2   7   1   15.75    6.23
   2  -7  -1    2.55    2.82
  -2   7   0   25.90    7.19
   2  -7   0   19.52    5.96
   2  -7   0   23.53    6.68
   2  -7   0   12.91    5.14
   2  -7   1   16.50    6.17
  -2   7  -1   12.20    6.18
   2  -7   1   11.78    4.60
   2  -7   2  110.27   12.93
   2  -7   2   92.12   10.78
  -2   7  -2   88.11   11.30
   2  -7   3  190.95   15.46
  -2   7  -3  157.94   14.33
   2  -7   3  170.09   14.41
  -2   7  -4   99.63    9.97
   2  -7   4  116.18   11.21
   2  -7   4   96.40    9.35
  -2   7  -5   29.00    4.09
   2  -7   5   43.66    6.10
   2  -6 -12   27.69    5.21
   2  -6 -11  355.89   22.56
   2  -6 -11  355.37   18.46
   2  -6 -10   72.49   11.56
   2  -6 -10   67.88    9.34
   2  -6 -10   76.20    9.78
   2  -6  -9    3.57    4.04
   2  -6  -9    3.41    3.98
   2  -6  -9    4.10    4.79
   2  -6  -9    5.92    4.05
   2  -6  -8  115.37   13.34
   2  -6  -8  110.94   12.25
   2  -6  -8  111.20   15.26
   2  -6  -8  101.27   14.39
   2  -6  -7    5.72    4.14
   2  -6  -7   -6.19    5.48
   2  -6  -7   -3.33    2.28
   2  -6  -7   -1.16    1.72
   2  -6  -6   47.50   11.36
   2  -6  -6   62.83    9.20
   2  -6  -6   58.00   11.06
   2  -6  -6   54.23    9.28
   2  -6  -5  390.49   32.35
   2  -6  -5  449.37   24.08
   2  -6  -5  426.03   24.43
   2  -6  -5  387.69   30.73
   2  -6  -5  437.95   25.24
   2  -6  -4  447.93   35.19
   2  -6  -4  405.38   24.97
   2  -6  -4  434.17   32.20
   2  -6  -4  478.38   26.18
   2  -6  -3    2.64    4.21
   2  -6  -3    3.56    4.07
   2  -6  -3    4.44    3.65
   2  -6  -3   -0.08    7.19
   2  -6  -2  231.11   25.63
   2  -6  -2  260.70   21.12
   2  -6  -2  247.36   24.99
   2  -6  -1   68.10   13.28
   2  -6  -1   73.43   15.95
   2  -6  -1   67.12   11.51
   2  -6   0   93.21   13.60
   2  -6   0   83.62   13.84
   2  -6   0   94.77   12.07
   2  -6   1  190.34   19.01
  -2   6  -1  232.07   21.12
   2  -6   1  208.45   17.53
   2  -6   2  128.52   15.30
  -2   6  -2  132.60   15.85
   2  -6   2  130.71   14.34
   2  -6   3  213.79   42.50
   2  -6   3  209.96   18.82
  -2   6  -3  220.07   20.44
  -2   6  -4  408.08   26.38
   2  -6   4  386.65   23.60
   2  -6   4  408.86   24.60
   2  -6   5   88.09    9.49
   2  -6   5   90.14   11.75
  -2   6  -5   80.17   11.10
  -2   6  -6   24.81    5.72
   2  -6   6   19.55    5.31
  -2   6  -7   34.62    5.03
   2  -6   7   41.49    5.82
   2  -5 -13   15.34    3.93
   2  -5 -13    2.12    4.97
   2  -5 -12  184.05   12.87
   2  -5 -12  246.37   18.10
   2  -5 -12  252.10   15.46
   2  -5 -12  215.48   14.59
   2  -5 -11   95.58   12.64
   2  -5 -11  147.67   16.13
   2  -5 -11  142.36   12.93
   2  -5 -11  157.29   17.00
   2  -5 -11  141.13   11.74
   2  -5 -10  202.80   16.31
   2  -5 -10  214.63   15.10
   2  -5 -10  184.76   15.60
   2  -5 -10  193.56   19.89
   2  -5 -10  218.82   21.00
   2  -5 -10  197.03   14.96
   2  -5  -9   41.82    7.84
   2  -5  -9   44.53   11.32
   2  -5  -9   45.97    8.11
   2  -5  -9   45.43   10.72
   2  -5  -9   50.40    8.73
   2  -5  -8    2.97    3.50
   2  -5  -8    1.35    2.99
   2  -5  -8    4.62    2.99
   2  -5  -8   -0.78    2.37
   2  -5  -8    6.53    3.61
   2  -5  -7   21.27    6.19
   2  -5  -7   19.39    9.38
   2  -5  -7   13.75    7.25
   2  -5  -7   13.85    4.98
   2  -5  -7    3.27    5.25
   2  -5  -7    7.51    5.05
   2  -5  -6   -3.67    2.72
   2  -5  -6    1.45    2.79
   2  -5  -6   -2.22    4.27
   2  -5  -6    0.69    9.14
   2  -5  -6    3.72    2.65
   2  -5  -6   -0.46    3.67
   2  -5  -5  872.98   32.74
   2  -5  -5  838.24   43.84
   2  -5  -5  813.11   38.24
   2  -5  -5  897.82   44.25
   2  -5  -5  873.09   43.64
   2  -5  -5  848.16   33.82
   2  -5  -4 1023.82   46.21
   2  -5  -4  964.36   45.87
   2  -5  -4  884.10   38.31
   2  -5  -4  970.91   46.97
   2  -5  -4  983.36   36.35
   2  -5  -4 1029.11   35.95
   2  -5  -3  250.32   23.86
   2  -5  -3  241.53   18.75
   2  -5  -3  259.21   24.91
   2  -5  -3  253.10   17.62
   2  -5  -2   15.55    4.92
   2  -5  -2   19.83    5.43
   2  -5  -2   26.71    7.87
   2  -5  -2   21.41    7.73
   2  -5  -1   -2.09    2.59
   2  -5  -1   13.00    5.29
   2  -5  -1    5.67    5.33
   2  -5   0    1.30    3.17
   2  -5   0    4.65    6.20
   2  -5   0    4.47    4.36
   2  -5   0    0.55    2.85
   2  -5   1    6.41    3.33
   2  -5   1   15.43    7.41
   2  -5   1    2.78    3.85
  -2   5  -1   11.09    8.17
   2  -5   1    8.13    5.28
  -2   5  -2  288.79   30.62
   2  -5   2  273.66   21.72
  -2   5  -2  294.30   23.67
   2  -5   2  315.57   21.91
  -2   5  -3  533.83   42.90
  -2   5  -3  535.31   32.77
   2  -5   3  574.72   31.84
   2  -5   3  573.38   30.23
   2  -5   4  382.22   25.40
   2  -5   4  366.83   24.58
   2  -5   4  414.20   26.44
  -2   5  -4  395.52   28.15
   2  -5   5   70.27    9.81
  -2   5  -5   60.19   11.96
   2  -5   5   71.24   10.57
   2  -5   5   74.13   12.02
  -2   5  -6   -1.81    3.35
   2  -5   6   -1.44    3.68
  -2   5  -7   31.13    7.27
   2  -5   7   19.88    5.76
  -2   5  -8    5.80    2.60
   2  -5   8    3.61    2.45
  -2   5  -9   96.13    7.78
   2  -5   9  112.95    7.57
   2  -4 -13   28.05    7.77
   2  -4 -13   48.78    7.66
   2  -4 -13   -2.73    7.97
   2  -4 -12  186.69   15.67
   2  -4 -12  233.29   18.28
   2  -4 -12  237.24   18.31
   2  -4 -12  249.33   16.38
   2  -4 -12  242.43   16.21
   2  -4 -11  268.78   22.22
   2  -4 -11  249.68   17.07
   2  -4 -11  240.98   17.44
   2  -4 -11  252.90   17.62
   2  -4 -11  238.18   21.02
   2  -4 -10  305.28   24.65
   2  -4 -10  300.13   25.26
   2  -4 -10  325.67   26.79
   2  -4 -10  337.28   20.94
   2  -4 -10  274.92   23.72
   2  -4 -10  333.06   20.24
   2  -4 -10  309.06   20.89
   2  -4  -9    6.42    5.15
   2  -4  -9   17.65    7.04
   2  -4  -9    5.26    3.79
   2  -4  -9    4.27    3.11
   2  -4  -9    7.76    4.09
   2  -4  -9    9.04    4.58
   2  -4  -9    5.04    6.43
   2  -4  -9   13.38    4.94
   2  -4  -8   11.00    5.15
   2  -4  -8   10.51    5.18
   2  -4  -8   17.65    4.58
   2  -4  -8   17.28    6.19
   2  -4  -8    7.60    6.66
   2  -4  -8   22.84    6.62
   2  -4  -8    9.76    4.94
   2  -4  -8   17.74    7.31
   2  -4  -7    4.81    4.12
   2  -4  -7   11.93    4.67
   2  -4  -7    8.63    4.36
   2  -4  -7    7.75    4.50
   2  -4  -7   12.61    6.93
   2  -4  -7   11.20    4.81
   2  -4  -7    9.34    4.26
   2  -4  -7    4.61    3.71
   2  -4  -7   10.17    6.29
   2  -4  -6  865.16   43.09
   2  -4  -6  851.80   40.12
   2  -4  -6  857.40   32.92
   2  -4  -6  895.88   33.11
   2  -4  -6  797.19   36.03
   2  -4  -6  848.51   40.36
   2  -4  -6  815.37   38.76
   2  -4  -5  446.41   29.51
   2  -4  -5  471.52   30.96
   2  -4  -4  685.28   35.96
   2  -4  -3 1565.06   53.87
   2  -4  -2  402.51   27.38
   2  -4  -1  282.52   23.47
   2  -4   0  316.13   24.95
   2  -4   1   64.78   12.46
   2  -4   2   88.66   11.79
   2  -4   2   82.64   12.62
   2  -4   2   87.22   11.09
  -2   4  -3  162.07   17.22
   2  -4   3  138.86   14.93
  -2   4  -3  126.70   21.11
   2  -4   3  138.11   14.67
   2  -4   4  115.80   13.78
  -2   4  -4  112.56   21.53
  -2   4  -4  108.25   14.67
   2  -4   4  119.43   14.23
   2  -4   5   58.11    9.95
  -2   4  -5   45.85    9.49
  -2   4  -5   74.70   17.69
   2  -4   5   56.79    9.69
  -2   4  -6    2.46    2.96
   2  -4   6   -1.55    2.52
   2  -4   6    0.05    3.24
  -2   4  -7   18.97    5.88
   2  -4   7    1.50    3.10
  -2   4  -8    6.59    4.68
   2  -4   8   -0.70    3.14
  -2   4  -9   35.01    6.95
   2  -4   9   25.87    5.21
  -2   4 -10   43.75    5.80
   2  -4  10   35.32    4.46
   2  -3 -14   13.36    5.41
   2  -3 -13   16.88    9.21
   2  -3 -12  105.80   15.38
   2  -3 -12  186.39   17.56
   2  -3 -12  178.50   16.13
   2  -3 -12  191.89   15.27
   2  -3 -12  174.53   16.36
   2  -3 -12  185.19   14.69
   2  -3 -11  385.05   26.17
   2  -3 -11  421.47   28.34
   2  -3 -11  374.67   22.38
   2  -3 -11  389.88   27.77
   2  -3 -11  416.79   28.65
   2  -3 -11  422.82   23.25
   2  -3 -11  377.82   22.81
   2  -3 -10  187.75   19.82
   2  -3 -10  203.51   21.11
   2  -3 -10  178.36   15.84
   2  -3 -10  181.41   16.21
   2  -3 -10  181.00   19.85
   2  -3 -10  197.61   17.00
   2  -3 -10  207.93   21.53
   2  -3  -9   21.22    5.42
   2  -3  -9   30.29    9.55
   2  -3  -9   16.85    5.77
   2  -3  -9   27.80    7.84
   2  -3  -9   35.41    9.27
   2  -3  -9   33.54    9.56
   2  -3  -9   29.19    7.00
   2  -3  -8  550.67   35.12
   2  -3  -8  568.94   27.52
   2  -3  -8  511.05   27.03
   2  -3  -8  565.62   33.13
   2  -3  -8  582.01   34.62
   2  -3  -8  566.46   26.23
   2  -3  -8  547.90   32.17
   2  -3  -8  565.18   28.07
   2  -3  -7   58.27    8.94
   2  -3  -7   64.98    9.18
   2  -3  -7   70.97   12.21
   2  -3  -7   70.32   11.51
   2  -3  -7   75.39   12.54
   2  -3  -7   74.72   11.86
   2  -3  -7   63.41    9.06
   2  -3  -6   -4.67    4.09
   2  -3  -5 1305.55   44.34
   2  -3  -4  758.77   33.48
   2  -3  -3  991.46   38.73
   2  -3  -2  147.63   15.20
   2  -3  -1  608.01   29.60
   2  -3   0   53.30   10.35
   2  -3   1    5.10    5.01
   2  -3   2  856.39   36.64
   2  -3   3 1934.43   54.47
  -2   3  -3 1999.04   47.49
   2  -3   4 1080.94   39.03
   2  -3   4 1171.22   40.75
  -2   3  -4 1060.04   42.18
  -2   3  -4  989.63   52.34
   2  -3   5   88.15   11.91
  -2   3  -5   88.01   17.42
  -2   3  -5   88.78   13.83
   2  -3   5   88.17   12.47
  -2   3  -6   64.14   11.63
   2  -3   6   78.80   10.96
   2  -3   6   82.65   12.31
  -2   3  -6   69.20   16.84
  -2   3  -7   61.98   11.87
  -2   3  -7   49.50    8.27
   2  -3   7   57.58   10.00
  -2   3  -8   54.22    8.03
  -2   3  -8   44.35   10.36
   2  -3   8   55.07    9.85
  -2   3  -9   56.00   10.32
  -2   3  -9   52.37    7.53
   2  -3   9   39.94    7.35
  -2   3 -10  188.44   11.41
  -2   3 -10  216.72   16.65
   2  -3  10  183.78   12.62
  -2   3 -11   96.34    8.75
   2  -2 -14    8.49    5.14
   2  -2 -13   26.60    9.70
   2  -2 -13   84.00   12.36
   2  -2 -13   68.68    9.38
   2  -2 -12  275.22   17.99
   2  -2 -12  232.45   21.08
   2  -2 -12  347.81   21.85
   2  -2 -12  273.02   21.35
   2  -2 -12  245.30   20.95
   2  -2 -12  252.80   18.81
   2  -2 -11 1116.61   46.78
   2  -2 -11 1122.53   38.65
   2  -2 -11 1072.29   39.10
   2  -2 -11 1130.48   44.55
   2  -2 -11 1138.56   42.87
   2  -2 -11 1100.31   45.59
   2  -2 -11 1155.51   47.88
   2  -2 -11 1076.69   38.24
   2  -2 -10   51.27   10.36
   2  -2 -10   40.93    8.23
   2  -2 -10   45.23    9.40
   2  -2 -10   42.03    9.20
   2  -2 -10   47.81    8.72
   2  -2 -10   61.60   12.23
   2  -2 -10   47.38   10.06
   2  -2 -10   65.81   12.60
   2  -2  -9    4.71    5.66
   2  -2  -9   11.57    4.78
   2  -2  -9    6.81    4.77
   2  -2  -9    1.94    2.82
   2  -2  -9    4.28    4.18
   2  -2  -9    3.08    5.95
   2  -2  -9    1.49    4.67
   2  -2  -9    2.83    3.57
   2  -2  -8  341.92   24.58
   2  -2  -8  321.74   20.39
   2  -2  -8  333.00   25.32
   2  -2  -8  329.86   25.06
   2  -2  -8  318.42   19.81
   2  -2  -8  299.71   24.32
   2  -2  -8  307.87   26.12
   2  -2  -8  297.21   20.09
   2  -2  -8  341.69   21.27
   2  -2  -7    4.79    3.96
   2  -2  -7    5.66    4.49
   2  -2  -7    6.26    3.60
   2  -2  -6  531.65   25.60
   2  -2  -6  511.39   21.12
   2  -2  -5  749.73   29.75
   2  -2  -5  763.45   22.56
   2  -2  -4 1279.61   39.01
   2  -2  -4 1347.20   24.97
   2  -2  -3    2.87    3.64
   2  -2  -2   62.66    8.95
   2  -2  -1  428.03   21.73
   2  -2   0    7.99    5.31
   2  -2   1  197.84   15.36
   2  -2   2 1385.87   41.50
  -2   2  -2 1407.80   35.50
   2  -2   3 2395.98   54.78
  -2   2  -3 2380.77   46.36
  -2   2  -4 4736.58   63.16
   2  -2   4 4658.37   75.84
  -2   2  -5   16.91    9.39
  -2   2  -6   -1.29    3.62
   2  -2   6   -3.55    4.10
   2  -2   6    1.73    3.33
  -2   2  -6   10.72    8.52
  -2   2  -7  113.68   13.29
  -2   2  -7  127.24   16.09
   2  -2   7  118.71   13.76
  -2   2  -7   98.37   20.11
  -2   2  -8   13.79    5.13
  -2   2  -8    9.16    5.71
   2  -2   8   17.23    6.25
  -2   2  -9  370.88   22.25
  -2   2  -9  337.87   25.22
   2  -2   9  371.14   22.86
  -2   2 -10  183.33   14.34
  -2   2 -10  184.89   17.50
   2  -2  10  179.64   14.24
  -2   2 -11  215.28   13.17
   2  -2  11  202.37   12.01
  -2   2 -11  223.61   16.25
  -2   2 -12   -0.47    0.84
   2  -1 -13   20.52    8.00
   2  -1 -13   43.66    7.73
   2  -1 -12  159.62   15.53
   2  -1 -12  168.48   20.32
   2  -1 -12  136.39   10.29
   2  -1 -12  159.52   13.49
   2  -1 -12  147.84   15.91
   2  -1 -12  151.83   15.77
   2  -1 -11  142.95   16.26
   2  -1 -11  121.42   11.34
   2  -1 -11  114.48   18.98
   2  -1 -11  148.42   17.14
   2  -1 -11  121.38   15.71
   2  -1 -11  126.60   15.55
   2  -1 -11  131.95   13.73
   2  -1 -11  225.15   20.65
   2  -1 -10 1171.42   49.77
   2  -1 -10 1122.87   42.18
   2  -1 -10 1108.38   48.20
   2  -1 -10 1148.40   49.12
   2  -1 -10 1125.87   35.78
   2  -1 -10 1112.06   40.48
   2  -1 -10 1092.99   45.89
   2  -1 -10 1083.05   39.20
   2  -1  -9  253.31   19.32
   2  -1  -9  222.16   16.18
   2  -1  -9  240.86   22.47
   2  -1  -9  234.93   23.23
   2  -1  -9  243.69   22.75
   2  -1  -9  238.67   21.57
   2  -1  -9  268.53   22.21
   2  -1  -9  240.50   19.22
   2  -1  -9  267.67   19.41
   2  -1  -8  250.67   21.07
   2  -1  -8  243.73   23.88
   2  -1  -8  247.00   18.17
   2  -1  -8  258.37   21.93
   2  -1  -8  244.06   22.09
   2  -1  -8  234.10   20.29
   2  -1  -8  249.43   18.04
   2  -1  -8  250.50   18.12
   2  -1  -7  161.28   13.73
   2  -1  -6   62.28    8.09
   2  -1  -6   66.71    8.36
   2  -1  -5 1088.76   28.88
   2  -1  -5 1167.42   32.04
   2  -1  -5 1071.30   30.24
   2  -1  -4 1946.74   33.39
   2  -1  -4 1961.15   37.32
   2  -1  -4 2032.44   42.22
   2  -1  -3 1838.64   39.34
   2  -1  -3 1820.19   33.15
   2  -1  -2  917.67   27.49
   2  -1  -1 1243.28   31.81
   2  -1   0  336.29   16.77
   2  -1   1   54.19    7.29
  -2   1  -1   52.46    6.49
  -2   1  -2 1402.05   18.82
  -2   1  -2 1336.82   31.10
   2  -1   2 1417.61   35.92
  -2   1  -3 1414.15   24.70
  -2   1  -3 1357.30   31.39
   2  -1   3 1421.97   36.99
   2  -1   4    2.65    3.20
  -2   1  -4    4.51    2.44
  -2   1  -4    4.43    2.46
  -2   1  -5  805.32   25.68
  -2   1  -6  173.99   13.77
  -2   1  -6  196.60   21.48
  -2   1  -7   38.09    8.63
  -2   1  -7   36.37   11.06
   2  -1   7   48.65    9.01
  -2   1  -8    4.68    4.67
  -2   1  -8   -1.74    4.67
   2  -1   8    4.46    3.57
  -2   1  -9  234.72   21.33
   2  -1   9  198.83   16.99
  -2   1  -9  206.86   17.79
  -2   1 -10  300.05   20.46
  -2   1 -10  276.79   22.13
   2  -1  10  256.98   17.86
  -2   1 -11   98.10   12.08
   2  -1  11   85.11    8.79
  -2   1 -11  123.57   12.01
  -2   1 -12  119.19   11.15
  -2   1 -12  117.80    9.77
   2   0 -13   13.87    2.97
   2   0 -13   23.66    4.81
   2   0 -13   33.32    6.52
   2   0 -12  300.33   20.93
   2   0 -12  260.87   19.07
   2   0 -12  247.47   17.57
   2   0 -12  270.85   15.01
   2   0 -12  302.03   20.58
   2   0 -11  379.47   20.59
   2   0 -11  381.37   26.22
   2   0 -11  415.58   28.69
   2   0 -11  401.31   27.67
   2   0 -11  373.62   25.08
   2   0 -11  365.64   26.24
   2   0 -11  392.94   21.93
   2   0 -10   68.74   12.48
   2   0 -10   86.20   13.76
   2   0 -10   69.09   13.72
   2   0 -10   84.81   18.02
   2   0 -10   83.82   14.10
   2   0 -10   73.24   10.42
   2   0 -10   66.79    9.77
   2   0  -9    8.52    3.72
   2   0  -9    7.92    6.22
   2   0  -9   10.50    5.20
   2   0  -9   -6.91   13.35
   2   0  -9   12.94    6.79
   2   0  -9   12.36    5.81
   2   0  -9    8.94    6.28
   2   0  -9   30.10   10.05
   2   0  -8   35.37    7.03
   2   0  -8   28.15    6.86
   2   0  -8   27.64    7.42
   2   0  -8   28.25    7.58
   2   0  -8   29.21    8.35
   2   0  -8   36.91    8.08
   2   0  -8   33.09    8.04
   2   0  -8   39.96    9.91
   2   0  -8   17.66    6.86
   2   0  -7    5.46    3.77
   2   0  -6  830.13   31.27
   2   0  -5    6.17    3.48
   2   0  -4 2757.49   41.66
   2   0  -4 2694.56   47.09
  -2   0   4 2708.49   37.46
  -2   0   3  731.94   20.36
   2   0  -3  833.81   23.16
   2   0  -3  775.47   22.91
  -2   0   2  485.02   16.53
   2   0  -2  592.17   19.28
   2   0  -2  539.52   17.57
   2   0  -1    7.32    2.98
   2   0  -1    9.49    2.58
  -2   0   1    6.83    2.90
  -2   0   0  809.89   21.43
  -2   0   0  787.98   12.80
   2   0   0  741.95   23.01
   2   0   1 1341.21   31.68
  -2   0  -1 1405.30   28.48
  -2   0  -1 1447.04   19.02
  -2   0  -2  611.17   19.16
  -2   0  -2  612.06   14.92
   2   0   2  588.90   21.53
  -2   0  -3 1644.18   31.83
   2   0   3 1700.00   38.26
  -2   0  -3 1660.84   28.44
  -2   0  -4 1042.62   26.02
  -2   0  -4 1087.45   26.37
   2   0   4 1118.35   31.97
   2   0   5  482.57   21.33
  -2   0  -5  470.26   18.12
  -2   0  -5  466.97   19.70
  -2   0  -6   10.24    3.30
  -2   0  -6    5.14    6.03
  -2   0  -7   95.31   15.77
  -2   0  -7  114.17   11.88
  -2   0  -8    9.89    5.65
  -2   0  -8    5.67    3.35
  -2   0  -8   -2.79    3.13
  -2   0  -8    0.27    7.34
  -2   0  -9  115.26   11.79
  -2   0  -9   92.99   13.61
  -2   0  -9   62.96   10.43
   2   0   9  114.11   12.69
  -2   0 -10  307.13   21.54
   2   0  10  324.36   20.39
  -2   0 -10  316.73   23.96
  -2   0 -11  531.74   29.12
  -2   0 -11  596.04   28.65
  -2   0 -12  113.38   11.94
  -2   0 -12  169.35   13.36
  -2   0 -13    1.89    1.74
  -2   0 -13    1.25    1.95
   2   1 -13   46.57    4.54
   2   1 -12  249.60   17.43
   2   1 -12  232.42   16.66
   2   1 -12  245.44   13.87
   2   1 -12  258.21   14.37
   2   1 -11  203.02   15.93
   2   1 -11  192.92   14.67
   2   1 -11  211.12   18.78
   2   1 -11  161.19   16.02
   2   1 -11  208.55   18.79
   2   1 -10    3.05    4.20
   2   1 -10    0.18   15.66
   2   1 -10   -4.83    3.16
   2   1 -10    4.22    7.41
   2   1 -10    0.48    1.00
   2   1 -10    4.13    4.26
   2   1 -10    1.67    3.40
   2   1  -9   59.55    9.76
   2   1  -9   66.32   13.16
   2   1  -9   80.69   16.72
   2   1  -9   70.84   12.79
   2   1  -9   61.26    9.25
   2   1  -9   56.49   11.06
   2   1  -9   63.20   11.05
   2   1  -8   10.72    6.95
   2   1  -8   17.48    6.94
   2   1  -8   14.06    4.96
   2   1  -8   17.21    5.52
   2   1  -8   15.66    4.37
   2   1  -8   28.85   12.43
   2   1  -8    9.10    4.79
   2   1  -8   11.75    4.65
   2   1  -7   27.00    6.75
   2   1  -7   25.84    5.85
   2   1  -7   28.90    6.93
   2   1  -7   31.84    8.45
   2   1  -7   18.74    9.10
   2   1  -7   20.64    6.88
   2   1  -7   23.65    8.80
   2   1  -7   23.89    7.39
   2   1  -7   24.53    8.17
   2   1  -6  266.46   19.39
   2   1  -5 1649.75   44.56
   2   1  -4 3050.88   55.21
   2   1  -3 8692.82   64.18
   2   1  -3 8368.13   83.51
  -2  -1   3 8350.39   56.48
   2   1  -2  270.11   13.45
  -2  -1   2  256.93   10.65
   2   1  -2  281.29   12.56
  -2  -1   1  224.96   10.30
   2   1  -1  239.95   11.39
  -2  -1   0  851.80   20.51
   2   1   0  847.11   19.27
  -2  -1  -1  170.23    9.61
  -2  -1  -1  139.91    7.55
  -2  -1  -2 9651.98   72.76
  -2  -1  -2 9236.14   66.28
  -2  -1  -3 7365.10   66.97
  -2  -1  -3 7248.13   64.55
  -2  -1  -4 2652.34   41.79
  -2  -1  -4 2762.17   44.19
  -2  -1  -5   25.54    4.95
  -2  -1  -5   21.55    4.25
  -2  -1  -6   27.66    5.22
   2   1   6   51.06    7.57
  -2  -1  -6   42.65    6.98
  -2  -1  -7    1.61    2.61
  -2  -1  -7   -6.61    5.72
  -2  -1  -8   -2.04    2.27
  -2  -1  -8    4.60    2.67
  -2  -1  -8    3.31    3.02
  -2  -1  -9   11.61    4.35
  -2  -1  -9    5.91    4.54
  -2  -1  -9   13.39    4.95
  -2  -1 -10  294.20   19.18
   2   1  10  295.55   19.25
  -2  -1 -10  301.31   22.94
  -2  -1 -11  100.71   12.86
  -2  -1 -11  112.32   13.02
  -2  -1 -11  104.45   11.16
  -2  -1 -12  323.31   19.67
  -2  -1 -12  292.71   16.40
  -2  -1 -12  311.95   19.85
  -2  -1 -13    0.92    3.30
  -2  -1 -13   -0.30    2.10
   2   2 -12  224.54   14.34
   2   2 -12  226.18   12.37
   2   2 -12  151.76   11.02
   2   2 -11  235.85   17.96
   2   2 -11  250.29   15.95
   2   2 -11  233.25   18.18
   2   2 -10  187.50   15.73
   2   2 -10  194.81   18.97
   2   2 -10  199.97   18.85
   2   2  -9   89.00   11.57
   2   2  -9   98.13   13.91
   2   2  -9   79.32   13.63
   2   2  -9   89.41   13.14
   2   2  -9  111.79   15.41
   2   2  -8    1.56    6.35
   2   2  -8   -2.52    2.66
   2   2  -8    2.69    4.78
   2   2  -8   14.71    6.14
   2   2  -8   -0.93    3.34
   2   2  -8   -1.18   13.47
   2   2  -8    2.01    4.60
   2   2  -8   -1.64    2.45
   2   2  -8    7.16    3.75
   2   2  -7   23.80   10.05
   2   2  -7   19.39    6.12
   2   2  -7   10.12    3.05
   2   2  -7   13.25    4.70
   2   2  -7   14.09    4.91
   2   2  -7   22.56    6.55
   2   2  -7    5.18    6.37
   2   2  -7   11.40    9.32
   2   2  -7    9.19    4.12
   2   2  -6  113.87   14.13
   2   2  -5  515.70   27.97
   2   2  -4  594.47   27.44
   2   2  -3  353.29   19.11
   2   2  -3  394.06   13.18
   2   2  -2  387.67   17.98
  -2  -2   2  363.31   12.27
  -2  -2   1  105.84    7.22
   2   2  -1  105.26    8.40
  -2  -2   0 1610.35   29.01
   2   2   0 1541.31   27.88
  -2  -2  -1   65.68    6.36
   2   2   1   62.14    5.05
  -2  -2  -2  671.82   20.11
  -2  -2  -2  639.00   19.46
  -2  -2  -3 1936.44   36.49
  -2  -2  -3 1828.19   34.60
  -2  -2  -4 1489.01   32.20
  -2  -2  -4 1554.02   34.86
  -2  -2  -5  538.09   20.00
  -2  -2  -5  550.73   22.70
  -2  -2  -6  427.10   21.79
  -2  -2  -6  440.83   21.88
  -2  -2  -7  391.68   22.34
  -2  -2  -8    3.32    2.49
  -2  -2  -8    1.34    3.41
  -2  -2  -9   37.96    7.08
  -2  -2  -9   22.63    6.09
  -2  -2  -9   26.34    5.96
  -2  -2 -10  369.69   23.92
  -2  -2 -10  391.11   21.74
  -2  -2 -10  352.25   21.56
  -2  -2 -11  537.58   28.29
  -2  -2 -11  498.90   24.98
  -2  -2 -11  494.75   26.88
  -2  -2 -11  563.68   25.71
  -2  -2 -12  123.08   11.81
  -2  -2 -12  124.49   12.63
  -2  -2 -12  110.51   10.43
  -2  -2 -12  112.04   11.77
  -2  -2 -13   14.07    3.94
  -2  -2 -13   15.86    4.55
  -2  -2 -14  115.08    7.64
   2   3 -12   71.83    5.76
   2   3 -11  147.11   12.10
   2   3 -11  126.72   10.96
   2   3 -11  163.69   11.61
   2   3 -10  535.86   27.75
   2   3 -10  566.68   25.29
   2   3 -10  533.62   27.30
   2   3  -9   49.45    8.68
   2   3  -9   49.34    9.33
   2   3  -9   54.99    8.26
   2   3  -9   56.11   10.58
   2   3  -8   -0.13    2.12
   2   3  -8   -3.89    2.80
   2   3  -8    0.17    1.19
   2   3  -8   -6.32    5.96
   2   3  -8   -1.26    4.51
   2   3  -7   25.22    6.22
   2   3  -7   29.72    9.26
   2   3  -7   29.39    7.86
   2   3  -7   22.06    6.76
   2   3  -7   19.98    6.40
   2   3  -7   27.41    7.85
   2   3  -6   58.46    9.34
   2   3  -6   62.93   11.30
   2   3  -6   67.84   13.85
   2   3  -6   42.03    7.82
   2   3  -6   72.02   12.04
   2   3  -6   51.67    9.35
   2   3  -5  170.60   17.96
   2   3  -4  614.28   30.72
   2   3  -3  828.79   32.79
   2   3  -2    3.48    2.74
   2   3  -1  494.65   20.28
   2   3   0  145.66    9.67
  -2  -3  -1  455.01   16.99
   2   3   1  403.77   13.88
  -2  -3  -2   89.57    8.10
  -2  -3  -2   82.99    7.94
   2   3   2   86.05    5.54
  -2  -3  -3 1185.06   29.62
  -2  -3  -3 1107.88   30.08
  -2  -3  -4  842.23   28.02
  -2  -3  -5  843.13   29.49
  -2  -3  -6   52.96    8.63
  -2  -3  -7  126.00   13.53
  -2  -3  -8  120.55   12.72
  -2  -3  -8  156.08   13.70
  -2  -3  -8  140.83   14.77
  -2  -3  -9  654.69   28.91
  -2  -3  -9  669.80   34.49
  -2  -3  -9  667.34   29.86
  -2  -3 -10  378.19   22.51
  -2  -3 -10  401.76   23.57
  -2  -3 -11  343.09   20.84
  -2  -3 -11  349.90   21.57
  -2  -3 -12  137.77   12.88
  -2  -3 -12  122.95   11.66
  -2  -3 -12  119.72   11.87
  -2  -3 -13   -1.21    2.70
  -2  -3 -13   -0.54    1.67
  -2  -3 -14    1.70    1.57
  -2  -3 -14    1.45    1.51
   2   4 -11   89.64    6.88
   2   4 -10   20.23    4.83
   2   4 -10   20.55    4.42
   2   4 -10   14.22    3.57
   2   4  -9   12.97    4.23
   2   4  -9   12.10    4.00
   2   4  -9   21.79    5.03
   2   4  -9    5.70    3.30
   2   4  -8   13.37    5.30
   2   4  -8    4.41    4.36
   2   4  -8   14.76    5.79
   2   4  -8   12.25    4.37
   2   4  -8   14.01    6.16
   2   4  -7   42.17    9.06
   2   4  -7   36.43    9.24
   2   4  -7   27.81   10.00
   2   4  -7   24.70    6.45
   2   4  -7   25.34    7.19
   2   4  -6    7.17    3.34
   2   4  -6    8.32    7.02
   2   4  -6    5.94    3.48
   2   4  -6    5.13    3.36
   2   4  -6    5.38    5.09
   2   4  -6    5.29    3.52
   2   4  -5  690.33   29.57
   2   4  -5  722.76   38.93
   2   4  -5  726.58   34.50
  -2  -4   5  632.92   29.05
   2   4  -4 2043.50   61.69
   2   4  -3 1963.59   56.01
   2   4  -2   56.82    8.91
   2   4  -1  201.20   14.53
   2   4   0   17.43    4.24
   2   4   1   13.27    3.23
  -2  -4  -2  276.81   16.59
   2   4   2  302.67   11.19
  -2  -4  -3  858.05   29.15
  -2  -4  -4 2737.88   54.71
  -2  -4  -5  183.75   15.51
  -2  -4  -6  119.04   12.89
  -2  -4  -7  152.73   15.37
  -2  -4  -8  245.95   18.03
  -2  -4  -8  226.96   17.54
  -2  -4  -8  234.53   19.87
  -2  -4  -9    2.60    2.50
  -2  -4  -9    9.85    5.07
  -2  -4  -9    3.63    2.55
  -2  -4  -9    2.32    4.96
  -2  -4 -10  454.38   25.01
  -2  -4 -10  455.85   25.12
  -2  -4 -11  674.97   29.68
  -2  -4 -11  688.30   30.54
  -2  -4 -12   83.23    9.73
  -2  -4 -12   98.25   11.33
  -2  -4 -12  103.00   10.75
  -2  -4 -13    1.35    2.34
  -2  -4 -13   -1.23    3.16
  -2  -4 -13   -1.91    1.43
  -2  -4 -14   18.73    3.75
  -2  -4 -14   -4.68    5.05
  -2  -5  10   90.53    6.54
   2   5 -10  100.87    6.93
   2   5  -9   88.59    8.47
   2   5  -9   99.14    9.41
   2   5  -8   71.71    9.83
   2   5  -8   83.47    9.73
   2   5  -8   85.62   10.46
   2   5  -7   52.72   10.69
   2   5  -7   70.16   10.82
   2   5  -7   76.27   11.37
   2   5  -7   51.56    8.14
   2   5  -6   55.50   11.29
   2   5  -6   56.92   10.23
   2   5  -6   49.02    8.19
  -2  -5   6   52.43    9.14
   2   5  -6   66.26   11.45
   2   5  -5 1170.92   52.14
   2   5  -5 1044.20   41.83
   2   5  -5 1166.23   44.95
  -2  -5   5 1121.52   41.57
   2   5  -5 1155.85   37.91
   2   5  -4 1107.21   49.31
   2   5  -4  930.13   38.54
   2   5  -4 1058.07   41.57
   2   5  -4 1047.54   34.67
  -2  -5   4 1036.04   39.77
   2   5  -3  891.98   41.18
   2   5  -3  805.94   33.74
   2   5  -3  963.64   31.53
   2   5  -3  887.41   36.59
  -2  -5   3  904.07   35.97
   2   5  -2  253.42   20.36
   2   5  -1  205.79   16.47
   2   5   0   24.82    5.70
  -2  -5  -1    2.89    4.27
   2   5   1   13.70    3.34
  -2  -5  -2 2120.60   50.53
  -2  -5  -3  247.40   17.88
  -2  -5  -4  503.62   26.11
  -2  -5  -5  420.83   24.61
  -2  -5  -6  268.75   20.39
  -2  -5  -7  198.09   15.71
  -2  -5  -7  181.73   15.99
  -2  -5  -7  200.32   15.53
  -2  -5  -7  209.87   19.24
  -2  -5  -7  168.56   17.24
  -2  -5  -8  193.51   15.83
  -2  -5  -8  206.80   17.85
  -2  -5  -8  194.44   16.19
  -2  -5  -8  206.89   19.48
  -2  -5  -8  179.41   18.88
  -2  -5  -9   13.95    4.61
  -2  -5  -9    6.07    6.41
  -2  -5  -9   12.77    4.92
  -2  -5  -9   21.67    5.69
  -2  -5 -10  322.11   21.66
  -2  -5 -10  313.43   20.22
  -2  -5 -10  347.22   21.97
  -2  -5 -11  419.23   22.10
  -2  -5 -11  410.02   23.50
  -2  -5 -11  378.25   22.70
  -2  -5 -12  142.70   12.88
  -2  -5 -12  134.15   12.75
  -2  -5 -13   34.65    5.76
  -2  -5 -13   25.26    4.95
  -2  -5 -14   42.57    5.27
  -2  -5 -14   44.18    4.76
   2   6  -9   14.97    2.95
   2   6  -8    3.00    1.40
   2   6  -8    0.27    2.28
  -2  -6   8    3.89    2.32
   2   6  -7    3.48    2.39
  -2  -6   7    1.16    2.32
   2   6  -7   -0.69    2.50
   2   6  -6  110.76   14.68
   2   6  -6  122.57   13.40
   2   6  -6  124.26   14.00
  -2  -6   6  113.49   12.36
   2   6  -6  127.73   11.72
   2   6  -5   59.30   10.30
   2   6  -5   52.98    9.94
   2   6  -5   62.53    8.57
  -2  -6   5   63.20    9.80
   2   6  -4  100.72   10.58
   2   6  -4   90.66   12.35
   2   6  -4   81.29   11.69
  -2  -6   4   99.56   13.23
   2   6  -3   16.58    6.97
   2   6  -3   20.94    6.28
   2   6  -3   19.72    4.73
   2   6  -3   10.80    4.17
  -2  -6   3   18.68    5.78
   2   6  -2  162.61   17.90
   2   6  -2  170.30   17.28
   2   6  -2  183.85   16.26
  -2  -6   2  193.65   17.82
   2   6  -1    4.32    2.69
   2   6  -1   -4.72    2.62
   2   6  -1  -10.29    4.93
  -2  -6   1    5.05    4.26
  -2  -6   0   42.16    7.31
   2   6   0   47.31    9.00
  -2  -6   0   41.94    8.57
  -2  -6  -1   82.77   11.95
  -2  -6  -1   79.76    9.46
  -2  -6  -1   86.68   11.59
  -2  -6  -2   97.75   12.88
  -2  -6  -3  732.70   34.10
  -2  -6  -4 1746.39   44.05
  -2  -6  -4 1876.51   56.98
  -2  -6  -4 1808.88   54.25
  -2  -6  -5  572.59   31.02
  -2  -6  -5  566.71   32.28
  -2  -6  -5  542.21   25.27
  -2  -6  -5  578.26   28.66
  -2  -6  -6   -1.79    1.81
  -2  -6  -6    3.69    3.98
  -2  -6  -6   -5.18    4.32
  -2  -6  -6   -4.84    4.16
  -2  -6  -7   -7.46    6.25
  -2  -6  -7    7.07    3.27
  -2  -6  -7    1.52    2.91
  -2  -6  -7    8.53    4.58
  -2  -6  -8   10.50    4.22
  -2  -6  -8   16.03    5.50
  -2  -6  -8   10.72    4.36
  -2  -6  -8   15.55    7.31
  -2  -6  -8   21.84    8.10
  -2  -6  -9  700.62   33.04
  -2  -6  -9  701.88   31.24
  -2  -6  -9  727.73   30.31
  -2  -6  -9  720.55   36.83
  -2  -6 -10  164.86   14.81
  -2  -6 -10  176.16   16.13
  -2  -6 -10  177.39   15.09
  -2  -6 -11  532.87   26.57
  -2  -6 -11  511.34   24.58
  -2  -6 -11  538.15   25.33
  -2  -6 -12   36.80    6.54
  -2  -6 -12   37.11    6.53
  -2  -6 -13    8.72    3.01
  -2  -6 -13    8.93    3.02
  -2  -6 -14    9.99    2.70
  -2  -6 -14   12.09    2.61
  -2  -7   7   29.91    4.83
   2   7  -7   34.72    5.40
  -2  -7   6    6.83    3.71
   2   7  -6    7.05    3.85
  -2  -7   6    6.39    3.18
   2   7  -5  270.21   18.85
  -2  -7   5  250.89   18.94
  -2  -7   5  260.93   17.43
  -2  -7   4  478.49   25.00
   2   7  -4  444.43   25.64
   2   7  -4  446.31   25.50
  -2  -7   4  473.88   27.78
   2   7  -3  244.69   19.41
  -2  -7   3  269.42   19.60
   2   7  -3  284.90   21.59
  -2  -7   3  261.82   21.38
   2   7  -2   12.42    5.10
   2   7  -2   13.02    6.00
  -2  -7   2   14.00    5.27
  -2  -7   2   17.12    6.10
  -2  -7   1   12.09    4.23
   2   7  -1   19.06    5.49
  -2  -7   1   22.01    6.53
   2   7  -1    9.34    5.52
  -2  -7   1   27.00    6.96
   2   7   0   29.72    7.33
   2   7   0   41.04    7.76
  -2  -7   0   43.80   10.55
  -2  -7   0   46.69    8.34
  -2  -7   0   43.97    9.82
  -2  -7  -1   -3.48    2.34
  -2  -7  -1    4.38    5.48
  -2  -7  -1    3.30    3.62
   2   7   1   -1.46    5.27
  -2  -7  -1    7.46    4.47
  -2  -7  -2  155.87   17.73
  -2  -7  -2  149.81   14.13
  -2  -7  -2  155.87   17.17
  -2  -7  -2  174.75   17.32
  -2  -7  -3  842.35   33.37
  -2  -7  -3  900.25   42.28
  -2  -7  -3  809.53   36.57
  -2  -7  -3  930.09   41.87
  -2  -7  -4  120.16   12.85
  -2  -7  -4  121.95   15.32
  -2  -7  -4  126.08   14.27
  -2  -7  -4  112.30   12.03
  -2  -7  -4  114.53   15.51
  -2  -7  -5  414.17   28.59
  -2  -7  -5  428.20   24.60
  -2  -7  -5  468.14   31.24
  -2  -7  -5  430.87   26.58
  -2  -7  -6  125.37   13.50
  -2  -7  -6  105.31   13.17
  -2  -7  -6  126.18   16.67
  -2  -7  -6  108.44   16.17
  -2  -7  -7  290.79   21.71
  -2  -7  -7  263.21   19.64
  -2  -7  -7  301.43   24.98
  -2  -7  -7  250.95   23.81
  -2  -7  -8    8.05    3.85
  -2  -7  -8    0.57    3.25
  -2  -7  -8    0.49    5.12
  -2  -7  -9   88.12   12.48
  -2  -7  -9   81.64   10.94
  -2  -7  -9   83.24   12.34
  -2  -7 -10  314.39   20.31
  -2  -7 -10  288.57   17.13
  -2  -7 -10  303.93   20.86
  -2  -7 -10  282.87   21.08
  -2  -7 -11  104.42   10.16
  -2  -7 -11  118.57   11.48
  -2  -7 -11  121.99   12.27
  -2  -7 -12  143.57   11.71
  -2  -7 -12  147.52   10.59
  -2  -7 -13   -1.72    1.67
  -2  -7 -13    4.80    1.71
   2   8  -6   31.68    4.41
  -2  -8   5  242.74   13.58
   2   8  -5  245.08   14.28
  -2  -8   5  209.26   14.17
  -2  -8   4  353.53   18.73
   2   8  -4  367.73   19.53
  -2  -8   4  357.36   21.46
  -2  -8   3  130.27   12.34
   2   8  -3  143.97   12.97
  -2  -8   3  134.17   14.48
   2   8  -2  205.79   16.89
  -2  -8   2  220.01   16.61
   2   8  -2  240.83   17.19
  -2  -8   2  239.30   20.33
  -2  -8   1  249.42   18.66
   2   8  -1  248.21   17.04
   2   8  -1  259.89   20.33
  -2  -8   1  273.64   22.04
  -2  -8   0   66.96    9.94
   2   8   0   50.11    9.64
  -2  -8   0   61.27   10.70
  -2  -8  -1   34.25    7.41
   2   8   1   19.09    7.60
  -2  -8  -1   32.28    8.40
  -2  -8  -2   71.19   10.97
  -2  -8  -2   75.65   11.74
   2   8   2   84.72   13.24
  -2  -8  -2   83.87   12.16
  -2  -8  -3  258.62   19.41
  -2  -8  -3  279.42   23.76
  -2  -8  -3  245.17   20.88
  -2  -8  -3  191.88   15.74
  -2  -8  -4  677.27   33.93
  -2  -8  -4  625.92   30.49
  -2  -8  -4  640.29   36.65
  -2  -8  -4  631.55   27.89
  -2  -8  -5  185.93   16.74
  -2  -8  -5  191.38   20.24
  -2  -8  -5  192.96   17.90
  -2  -8  -5  212.04   16.16
  -2  -8  -6   68.41   10.28
  -2  -8  -6   67.41   12.48
  -2  -8  -6   76.82   11.01
  -2  -8  -6   70.76    9.75
  -2  -8  -7  710.55   33.97
  -2  -8  -7  667.96   31.28
  -2  -8  -7  724.75   38.84
  -2  -8  -8   40.26    8.78
  -2  -8  -8   43.56    8.83
  -2  -8  -8   46.46    8.14
  -2  -8  -9   46.07    8.31
  -2  -8  -9   45.81    9.21
  -2  -8  -9   37.45    7.00
  -2  -8 -10  350.97   19.79
  -2  -8 -10  390.20   21.78
  -2  -8 -10  336.80   21.75
  -2  -8 -11  154.75   11.84
  -2  -8 -11   57.33    7.73
  -2  -8 -11  164.15   12.76
  -2  -8 -12   23.20    4.21
  -2  -8 -13   35.11    4.17
  -2  -9   4   26.15    4.32
  -2  -9   3  148.28   10.36
   2   9  -3   59.97    6.21
  -2  -9   3  144.12   12.11
  -2  -9   2    0.25    2.41
   2   9  -2    1.21    2.37
  -2  -9   2    7.66    3.78
  -2  -9   1    1.30    2.98
  -2  -9   1    2.87    4.08
  -2  -9   0   -1.41    2.28
   2   9   0   -0.22    3.50
  -2  -9   0    1.53    4.09
  -2  -9  -1   48.74    8.11
   2   9   1   37.22    7.19
  -2  -9  -1   37.01    7.80
  -2  -9  -2  316.44   20.46
  -2  -9  -2  277.31   21.09
   2   9   2  285.49   20.62
  -2  -9  -2  266.31   20.37
  -2  -9  -2  270.13   17.43
  -2  -9  -3  125.45   13.03
  -2  -9  -3  136.64   15.91
   2   9   3  121.86   14.24
  -2  -9  -3  117.81   13.93
  -2  -9  -3  132.71   12.19
  -2  -9  -4  299.12   20.24
  -2  -9  -4  352.76   25.83
   2   9   4  315.37   23.06
  -2  -9  -4  298.49   21.18
  -2  -9  -4  298.20   18.36
  -2  -9  -5  135.65   13.89
  -2  -9  -5  153.78   17.25
  -2  -9  -5  105.13   12.63
  -2  -9  -5  128.74   12.16
  -2  -9  -6    1.89    2.26
  -2  -9  -6   -2.72    3.91
  -2  -9  -6   -1.87    3.63
  -2  -9  -6   -1.66    3.05
  -2  -9  -7   -2.37    4.14
  -2  -9  -7    0.82    2.01
  -2  -9  -7    0.32    1.50
  -2  -9  -8   43.36    7.59
  -2  -9  -8   35.26    8.31
  -2  -9  -8   32.82    6.91
  -2  -9  -9   34.17    6.53
  -2  -9  -9   42.19    7.85
  -2  -9  -9   46.74    7.51
  -2  -9 -10  125.76   10.39
  -2  -9 -10   85.52    9.86
  -2  -9 -10  136.74   11.14
  -2  -9 -11   13.75    3.51
  -2  -9 -11   16.45    3.48
  -2 -10   1   -0.88    2.08
  -2 -10   1    4.25    1.91
  -2 -10   0    2.42    1.70
  -2 -10   0    2.92    1.97
  -2 -10   0    1.35    2.30
  -2 -10  -1   54.47    7.13
  -2 -10  -1   60.75    8.12
  -2 -10  -1   48.08    5.85
  -2 -10  -2   65.97    8.34
  -2 -10  -2   51.23    7.65
  -2 -10  -2   58.64    6.58
  -2 -10  -3  483.33   21.83
  -2 -10  -3  358.92   18.05
   2  10   3  391.73   19.79
  -2 -10  -3  326.74   18.17
  -2 -10  -3  406.40   20.76
  -2 -10  -3  373.91   16.66
  -2 -10  -4  141.20   13.22
  -2 -10  -4  234.31   15.58
  -2 -10  -4  212.09   14.40
   2  10   4  214.10   15.05
  -2 -10  -4  189.94   14.02
  -2 -10  -4  209.20   12.55
  -2 -10  -5   65.89    8.64
  -2 -10  -5   49.85    7.43
   2  10   5   58.06    8.71
  -2 -10  -5   49.12    8.65
  -2 -10  -6   -2.04    2.00
  -2 -10  -6    2.88    3.70
  -2 -10  -6    1.17    2.06
   2  10   6   -2.67    3.63
  -2 -10  -7    2.49    2.52
  -2 -10  -7    2.35    2.45
  -2 -10  -7    3.75    2.83
   2  10   7    6.92    4.48
  -2 -10  -8   17.16    3.71
  -2 -10  -8   13.17    3.27
  -2 -10  -8   14.10    4.08
  -2 -10  -9   47.87    5.78
  -2 -10  -9   46.37    5.29
  -2 -10  -9   31.16    5.54
  -2 -10 -10  114.76    7.48
  -2 -11  -4   28.64    3.76
  -2 -11  -5   -1.85    1.49
  -2 -11  -6    1.77    1.50
   3  -8  -8    2.31    1.55
   3  -8  -7  146.42    8.91
   3  -8  -7  143.95   11.64
   3  -8  -6   88.01    9.97
   3  -8  -6  108.13    8.42
   3  -8  -5  104.11   11.44
   3  -8  -5  114.49    9.00
   3  -8  -4   49.07    6.37
   3  -8  -4   59.62    8.99
   3  -8  -4   50.92    6.46
   3  -8  -3    8.12    2.83
   3  -8  -3    4.44    2.38
   3  -8  -3    9.92    3.76
   3  -8  -2    2.73    2.33
   3  -8  -2    7.97    3.45
   3  -8  -2    9.55    3.53
   3  -8  -1  144.87   11.45
   3  -8   0    2.60    2.35
   3  -8   1   51.65    5.73
   3  -7 -10   -2.41    1.37
   3  -7  -9   46.68    6.53
   3  -7  -9   33.42    5.29
   3  -7  -9   52.88    6.09
   3  -7  -8   35.54    6.83
   3  -7  -8   45.76    6.63
   3  -7  -8   32.17    5.49
   3  -7  -7   52.75    9.17
   3  -7  -7   64.37    7.91
   3  -7  -6  415.78   26.89
   3  -7  -6  419.48   20.96
   3  -7  -5  183.47   19.19
   3  -7  -5  205.68   14.96
   3  -7  -4  236.94   16.86
   3  -7  -4  253.83   22.24
   3  -7  -4  230.09   16.14
   3  -7  -3    0.89    3.00
   3  -7  -3   -1.42    2.58
   3  -7  -3    0.06    5.07
   3  -7  -2    0.70    0.97
   3  -7  -2    3.12    3.51
   3  -7  -2    6.41    4.15
   3  -7  -1  115.14   14.62
   3  -7  -1  111.12   12.58
  -3   7   1   94.64   12.19
   3  -7  -1  116.53   11.14
   3  -7   0  323.05   21.14
   3  -7   0  254.65   18.81
  -3   7   0  292.35   19.80
   3  -7   0  307.64   16.78
  -3   7  -1  274.56   18.61
   3  -7   1  307.06   19.71
   3  -7   1  250.31   14.24
   3  -7   2   60.13    8.57
  -3   7  -2   53.42    7.54
  -3   7  -3    7.18    2.83
   3  -7   3   12.59    4.08
   3  -7   3    4.00    2.35
   3  -6 -11   15.58    4.30
   3  -6 -11    7.86    3.60
   3  -6 -10   34.62    7.06
   3  -6 -10   46.61    6.31
   3  -6  -9    4.84    4.01
   3  -6  -9    4.32    3.94
   3  -6  -9    8.31    4.15
   3  -6  -8    0.10    2.26
   3  -6  -8    3.50    2.36
   3  -6  -8   -1.93    3.74
   3  -6  -7   11.17    4.74
   3  -6  -7   19.10    6.82
   3  -6  -7   11.64    6.11
   3  -6  -6   71.00   13.22
   3  -6  -6   67.18   10.81
   3  -6  -6   60.70    9.45
   3  -6  -5  383.54   29.76
   3  -6  -5  397.97   22.73
   3  -6  -4  298.82   20.64
   3  -6  -4  299.84   26.69
   3  -6  -4  290.97   19.71
   3  -6  -3    6.88    3.70
   3  -6  -3    5.64    4.14
   3  -6  -3    7.43    5.32
   3  -6  -2   25.84    6.07
   3  -6  -2   11.42    5.64
   3  -6  -2   13.30    6.40
   3  -6  -1   38.72    8.00
   3  -6  -1   38.88    8.40
   3  -6  -1   47.01   10.41
   3  -6   0    4.80    3.47
   3  -6   0    4.83    5.12
   3  -6   0    6.13    5.42
   3  -6   1  228.69   20.03
   3  -6   1  201.27   19.27
  -3   6  -1  272.28   22.28
  -3   6  -2  425.57   27.19
   3  -6   2  464.70   27.48
   3  -6   2  457.78   23.43
  -3   6  -3  207.88   18.30
   3  -6   3  212.92   17.42
   3  -6   3  179.88   14.51
  -3   6  -4   -0.76    3.03
   3  -6   4   -2.57    3.14
   3  -6   4   -4.52    3.36
  -3   6  -5    0.50    1.65
   3  -6   5    2.46    1.59
   3  -6   5   -2.02    1.76
  -3   6  -6   -0.19    0.42
   3  -6   6    2.88    1.60
   3  -5 -12  144.08   11.50
   3  -5 -12  142.53    9.27
   3  -5 -11   20.59    5.64
   3  -5 -11   11.69    4.64
   3  -5 -11   14.33    4.73
   3  -5 -10    3.42    3.21
   3  -5 -10   -1.52    4.26
   3  -5 -10    3.10    2.40
   3  -5  -9   13.82    6.12
   3  -5  -9   13.15    6.48
   3  -5  -9   11.71    4.70
   3  -5  -8   16.53    5.16
   3  -5  -8   15.13    7.66
   3  -5  -8   15.03    6.54
   3  -5  -8    9.87    5.87
   3  -5  -7   60.73   14.64
   3  -5  -7   79.16   13.39
   3  -5  -7   69.69   12.65
   3  -5  -7   73.12   10.07
   3  -5  -6  192.99   21.67
   3  -5  -6  215.67   22.58
   3  -5  -6  187.30   19.34
   3  -5  -6  208.03   17.10
   3  -5  -5  434.54   31.09
   3  -5  -5  402.79   31.06
   3  -5  -5  391.92   27.76
   3  -5  -5  403.03   23.52
   3  -5  -4  104.84   18.89
   3  -5  -4   69.82   12.78
   3  -5  -4   69.83   10.18
   3  -5  -4   70.16   13.76
   3  -5  -4   64.62   10.82
   3  -5  -4   72.37    9.90
   3  -5  -3   70.49   15.68
   3  -5  -3   58.73   10.24
   3  -5  -3   69.26   14.10
   3  -5  -3   81.61   10.67
   3  -5  -2   56.02    9.84
   3  -5  -2   41.88   13.24
   3  -5  -2   50.50   12.71
   3  -5  -2   61.59    9.91
   3  -5  -1  194.67   24.01
   3  -5  -1  189.69   17.72
   3  -5  -1  211.30   23.16
   3  -5  -1  188.19   15.96
   3  -5   0   29.99    7.22
   3  -5   0   22.69   10.65
   3  -5   0   32.62    9.90
   3  -5   1  353.93   25.06
   3  -5   1  386.77   29.38
   3  -5   1  374.82   22.40
  -3   5  -2  681.03   37.03
   3  -5   2  678.79   34.78
   3  -5   2  666.59   31.14
   3  -5   3   85.57   13.08
   3  -5   3   84.23   11.65
  -3   5  -3   92.90   13.96
  -3   5  -4   49.72   10.76
   3  -5   4   48.24    9.63
   3  -5   4   40.94    8.46
   3  -5   4   43.80    8.68
   3  -5   5   37.09    7.68
   3  -5   5   38.91    7.08
  -3   5  -5   41.03    8.87
   3  -5   5   44.74    8.36
  -3   5  -6   43.55    8.09
   3  -5   6   44.76    7.64
  -3   5  -7   31.94    6.14
   3  -5   7   27.16    5.14
  -3   5  -8   30.11    4.41
   3  -5   8   27.70    3.88
   3  -4 -12   51.77    9.27
   3  -4 -12   32.40    6.50
   3  -4 -12   50.29    7.48
   3  -4 -12   53.84    7.45
   3  -4 -11   44.83   12.33
   3  -4 -11   40.45    8.79
   3  -4 -11   41.09    8.53
   3  -4 -11   28.92    6.32
   3  -4 -10   42.92   12.05
   3  -4 -10   37.72    9.67
   3  -4 -10   31.20    8.83
   3  -4 -10   39.69    8.62
   3  -4 -10   23.96    6.49
   3  -4  -9    3.10    6.03
   3  -4  -9   -7.28    4.54
   3  -4  -9   -8.68   12.51
   3  -4  -9    0.36    6.83
   3  -4  -9    5.97    4.60
   3  -4  -9   -0.04    2.89
   3  -4  -8   64.90   13.72
   3  -4  -8   62.74   12.98
   3  -4  -8   76.20   12.08
   3  -4  -8   68.27   13.38
   3  -4  -8   67.01   11.56
   3  -4  -8   79.43   10.44
   3  -4  -7  309.18   25.19
   3  -4  -7  281.46   19.10
   3  -4  -7  262.28   24.24
   3  -4  -7  277.62   26.26
   3  -4  -7  299.78   20.24
   3  -4  -6  757.26   41.73
   3  -4  -6  668.76   37.76
   3  -4  -6  676.73   37.40
   3  -4  -6  713.34   30.82
   3  -4  -6  699.41   41.02
   3  -4  -5  274.14   24.71
   3  -4  -5  243.36   23.62
   3  -4  -5  237.74   21.59
   3  -4  -5  223.35   16.99
   3  -4  -5  254.55   25.10
   3  -4  -4  951.59   47.36
   3  -4  -4 1011.07   38.66
   3  -4  -4  911.97   40.68
   3  -4  -4  895.07   44.92
   3  -4  -4  902.68   42.92
   3  -4  -4  986.87   34.35
   3  -4  -3   -5.14    3.53
   3  -4  -3    1.35    4.67
   3  -4  -3   -7.74    6.48
   3  -4  -3    4.40    4.77
   3  -4  -3    6.17    8.06
   3  -4  -3   13.53    6.21
   3  -4  -2   -0.82    2.35
   3  -4  -2   -1.87    3.73
   3  -4  -2  -12.25    8.15
   3  -4  -2    0.27    6.07
   3  -4  -1    4.41    3.81
   3  -4  -1   -4.52    6.35
   3  -4  -1   -3.51    3.06
   3  -4  -1   -7.81    6.60
   3  -4   0  201.03   22.34
   3  -4   0  159.52   15.72
   3  -4   0  150.74   18.65
  -3   4  -1  779.63   38.00
   3  -4   1  803.98   45.43
   3  -4   1  796.20   36.02
   3  -4   1  755.48   41.47
   3  -4   1  778.55   31.31
  -3   4  -2   90.61   13.60
   3  -4   2  116.47   16.99
   3  -4   2  128.21   14.83
   3  -4   2  110.90   15.70
   3  -4   2  117.58   12.92
  -3   4  -3  220.06   21.68
   3  -4   3  220.79   19.96
  -3   4  -3  175.95   26.97
   3  -4   3  224.23   18.73
  -3   4  -4    3.52    3.51
   3  -4   4    2.52    3.81
   3  -4   4   10.74    4.82
  -3   4  -5   42.95   10.11
   3  -4   5   42.33    8.98
   3  -4   5   43.92    8.97
  -3   4  -6    8.14    5.18
   3  -4   6    5.96    3.44
   3  -4   6   11.37    4.15
   3  -4   6   10.90    5.10
  -3   4  -7   27.17    7.14
   3  -4   7   21.34    5.43
   3  -4   7   24.01    5.87
  -3   4  -8  109.27   11.76
   3  -4   8  112.08   10.62
  -3   4  -9  104.20    9.09
   3  -4   9  109.30    8.31
   3  -3 -13  207.24   11.79
   3  -3 -12  156.24   14.14
   3  -3 -12  160.59   13.14
   3  -3 -12  203.13   15.84
   3  -3 -12  240.95   14.48
   3  -3 -11   23.21    6.86
   3  -3 -11   26.76   10.00
   3  -3 -11   22.06    6.77
   3  -3 -11  -24.14   15.04
   3  -3 -11   23.01    6.57
   3  -3 -11   14.49    5.80
   3  -3 -11    3.60    4.49
   3  -3 -10   10.26    5.99
   3  -3 -10  -10.33   10.13
   3  -3 -10    8.05    4.50
   3  -3 -10    6.68    5.10
   3  -3 -10    6.34    4.54
   3  -3 -10    2.78    4.21
   3  -3  -9   57.97   13.23
   3  -3  -9  113.85   15.89
   3  -3  -9   93.61   13.68
   3  -3  -9  119.16   17.12
   3  -3  -9  115.62   12.51
   3  -3  -9  122.28   15.50
   3  -3  -8  239.24   24.20
   3  -3  -8  190.02   18.90
   3  -3  -8  246.58   21.88
   3  -3  -8  247.28   23.56
   3  -3  -8  232.42   21.12
   3  -3  -8  236.20   18.00
   3  -3  -7   24.86    5.70
   3  -3  -7   31.96   10.01
   3  -3  -7   -4.99   11.87
   3  -3  -7   34.06    9.66
   3  -3  -7   38.26   10.13
   3  -3  -7   30.21    7.61
   3  -3  -6 1004.90   44.02
   3  -3  -6 1017.24   44.96
   3  -3  -6  984.90   34.12
   3  -3  -6 1025.55   48.30
   3  -3  -6 1049.87   44.38
   3  -3  -6 1074.38   41.73
   3  -3  -6 1005.36   35.05
   3  -3  -5  868.13   41.45
   3  -3  -5  865.69   42.55
   3  -3  -5  902.28   42.10
   3  -3  -5  833.91   38.81
   3  -3  -5  798.70   30.60
   3  -3  -4   32.95   10.32
   3  -3  -4   44.66   11.27
   3  -3  -4   37.77    8.75
   3  -3  -3   22.63    7.60
   3  -3  -2   21.26    7.81
   3  -3  -1  743.68   38.66
   3  -3   0  162.51   18.65
   3  -3   1  221.18   18.13
   3  -3   1  182.92   19.72
   3  -3   1  189.22   16.09
   3  -3   1  199.19   15.84
  -3   3  -1  196.80   18.21
   3  -3   2  387.03   29.36
   3  -3   2  437.39   24.08
  -3   3  -2  418.33   25.95
   3  -3   2  397.31   24.66
   3  -3   2  395.64   22.56
   3  -3   3  164.73   20.16
   3  -3   3  171.16   16.84
  -3   3  -3  187.72   17.49
   3  -3   3  165.06   15.66
  -3   3  -4   -0.53    3.02
   3  -3   4    0.65    3.10
   3  -3   4   -3.93    4.05
  -3   3  -5    3.41    2.82
   3  -3   5    6.63    3.95
  -3   3  -5    0.41    9.41
   3  -3   5    3.02    4.32
  -3   3  -6   51.35   10.84
   3  -3   6   55.63    9.48
   3  -3   6   64.14   10.46
  -3   3  -7   39.35   10.19
   3  -3   7   31.41    6.82
   3  -3   7   44.19    8.62
  -3   3  -8   72.02   11.94
   3  -3   8   63.60    9.46
  -3   3  -9  207.26   16.43
   3  -3   9  208.00   14.64
  -3   3 -10  118.75   10.12
   3  -3  10  116.17    8.62
   3  -2 -13   50.69    8.23
   3  -2 -12  128.80   13.00
   3  -2 -12  174.30   15.49
   3  -2 -12  131.95   13.74
   3  -2 -12  126.84   12.97
   3  -2 -11  -13.92   15.65
   3  -2 -11   49.22   13.27
   3  -2 -11   18.51    6.18
   3  -2 -11   34.72    8.43
   3  -2 -11   29.29    7.26
   3  -2 -11   65.94   10.44
   3  -2 -11   33.63    8.09
   3  -2 -10   57.74   13.54
   3  -2 -10   67.92   12.64
   3  -2 -10   81.13   13.51
   3  -2 -10   52.42   10.27
   3  -2 -10   54.77   11.38
   3  -2 -10   54.58    9.12
   3  -2  -9   28.77    9.54
   3  -2  -9   46.02    9.07
   3  -2  -9    4.85   12.12
   3  -2  -9   40.57   10.07
   3  -2  -9   46.04   10.99
   3  -2  -9   28.20    9.07
   3  -2  -9   44.25    8.93
   3  -2  -8 1106.03   52.04
   3  -2  -8  984.95   35.28
   3  -2  -8  975.13   43.82
   3  -2  -8 1015.14   46.61
   3  -2  -8 1028.70   45.22
   3  -2  -8 1063.54   38.05
   3  -2  -8 1078.83   39.29
   3  -2  -7    7.08    6.42
   3  -2  -7   -0.04    2.84
   3  -2  -7   -4.00    3.63
   3  -2  -7    2.18    5.76
   3  -2  -7    9.37    4.50
   3  -2  -7    0.49    0.97
   3  -2  -6    3.07    2.39
   3  -2  -6   -1.30    4.47
   3  -2  -6    7.10    3.89
   3  -2  -6   25.35    7.04
   3  -2  -6    7.95    5.81
   3  -2  -6    6.06    4.85
   3  -2  -5 1746.03   52.95
   3  -2  -4  353.44   24.27
   3  -2  -3   52.97    9.30
   3  -2  -2   -3.17    5.38
   3  -2  -1  104.49   13.93
   3  -2   0  261.56   20.69
  -3   2   0  228.46   17.35
   3  -2   1 1763.26   55.06
  -3   2  -1 1863.14   49.23
   3  -2   2  602.15   33.05
  -3   2  -2  730.87   31.19
   3  -2   3  403.79   27.84
  -3   2  -3  426.59   23.87
   3  -2   4  228.83   21.57
   3  -2   4  241.01   19.00
  -3   2  -4  236.75   17.74
   3  -2   4  247.10   17.48
   3  -2   4  233.29   18.44
   3  -2   5  164.79   16.32
  -3   2  -5  163.81   17.84
   3  -2   5  176.32   16.91
   3  -2   6  242.45   19.36
  -3   2  -6  247.03   22.39
  -3   2  -6  230.17   28.03
   3  -2   6  263.75   20.68
  -3   2  -7   35.71    6.76
  -3   2  -7   31.30    8.93
   3  -2   7   28.80    7.37
   3  -2   7   38.57    8.17
  -3   2  -8  291.40   19.02
  -3   2  -8  253.76   22.29
   3  -2   8  217.17   16.66
   3  -2   8  251.82   19.85
  -3   2  -9   55.30    9.30
  -3   2  -9   50.35    7.32
   3  -2   9   46.48    8.16
  -3   2 -10  124.51    9.70
  -3   2 -10  129.40   12.81
   3  -2  10  118.91   10.67
  -3   2 -11    4.06    2.06
   3  -2  11    1.76    1.24
   3  -1 -13  135.95   10.85
   3  -1 -12   76.16   12.64
   3  -1 -12   52.34    8.69
   3  -1 -12   52.69    8.21
   3  -1 -12   55.89    8.86
   3  -1 -11  216.11   19.54
   3  -1 -11  178.60   18.08
   3  -1 -11  164.43   17.63
   3  -1 -11  197.04   19.05
   3  -1 -11  193.01   19.13
   3  -1 -10   12.50    6.86
   3  -1 -10    4.07   13.61
   3  -1 -10   -3.24    5.44
   3  -1 -10   -1.89    2.26
   3  -1 -10    2.68    3.68
   3  -1 -10   33.25    9.96
   3  -1  -9   22.77    7.93
   3  -1  -9   17.58    6.43
   3  -1  -9   10.00   12.02
   3  -1  -9   10.14    4.92
   3  -1  -9   24.95    8.13
   3  -1  -9   24.34    7.73
   3  -1  -9   18.79    7.29
   3  -1  -9   14.46    6.75
   3  -1  -8   77.92   11.30
   3  -1  -8   84.11   14.81
   3  -1  -8   93.11   13.47
   3  -1  -8   61.72   13.30
   3  -1  -8  103.40   15.14
   3  -1  -8   93.99   14.41
   3  -1  -8   84.11   11.07
   3  -1  -8   95.07   13.90
   3  -1  -7  600.39   37.40
   3  -1  -7  547.55   26.42
   3  -1  -7  512.80   31.30
   3  -1  -7  593.61   33.08
   3  -1  -7  530.36   27.11
   3  -1  -7  575.42   32.08
   3  -1  -7  545.01   31.99
   3  -1  -7  568.97   26.48
   3  -1  -7  537.54   27.10
   3  -1  -6 1107.89   49.30
   3  -1  -6 1013.48   39.92
   3  -1  -6 1041.91   35.53
   3  -1  -6 1038.71   35.59
   3  -1  -6 1071.96   42.54
   3  -1  -6 1107.60   43.01
  -3   1   5  346.19   19.19
   3  -1  -5  361.49   22.30
  -3   1   4    7.42    4.38
   3  -1  -4   10.89    5.30
   3  -1  -3  193.14   16.07
  -3   1   3  178.80   13.96
  -3   1   2  203.42   14.94
   3  -1  -2  188.11   15.78
   3  -1  -1  486.91   25.08
  -3   1   1  410.24   21.22
  -3   1   0  768.54   28.97
   3  -1   0  823.09   32.97
  -3   1  -1  191.59   14.68
   3  -1   1  209.48   17.17
  -3   1  -2  555.71   24.72
   3  -1   2  568.36   28.76
   3  -1   3    5.10    3.33
  -3   1  -3   -1.00    2.26
  -3   1  -4 1535.17   42.08
   3  -1   4 1400.20   47.01
  -3   1  -5    1.37    3.49
   3  -1   5    3.96    2.39
  -3   1  -5   -2.11    1.56
   3  -1   6   17.49    5.11
  -3   1  -6   12.73    5.24
  -3   1  -7   42.88   12.36
  -3   1  -7   20.57    5.89
   3  -1   7   35.81    7.15
   3  -1   7   33.96    7.51
  -3   1  -8   58.00   11.45
   3  -1   8   39.20    7.40
   3  -1   8   35.60    7.59
  -3   1  -9  413.49   23.79
  -3   1  -9  417.05   27.42
   3  -1   9  367.46   22.82
  -3   1 -10  101.81   10.83
  -3   1 -10   89.47   11.65
   3  -1  10   88.51   10.57
  -3   1 -11   28.23    5.59
  -3   1 -11   35.95    6.52
   3  -1  11   27.07    4.77
   3   0 -13   50.99    6.10
   3   0 -12  155.01   13.71
   3   0 -12  157.06   14.22
   3   0 -12  124.88   12.24
   3   0 -12  120.77   11.13
   3   0 -11    8.74    3.60
   3   0 -11   11.92   10.51
   3   0 -11    8.05    4.33
   3   0 -11    0.99    3.16
   3   0 -11    7.21    5.79
   3   0 -10    3.72    3.25
   3   0 -10   11.19    5.31
   3   0 -10    4.50   14.45
   3   0 -10    3.15    4.83
   3   0 -10    6.26    3.47
   3   0 -10   -1.71    4.26
   3   0  -9   30.26    5.86
   3   0  -9   45.61   10.82
   3   0  -9   28.79    7.59
   3   0  -9    6.25    9.02
   3   0  -9   48.81   16.03
   3   0  -9   36.91   10.17
   3   0  -9   81.43   13.20
   3   0  -9   37.20    9.68
   3   0  -8  354.79   20.33
   3   0  -8  385.99   31.46
   3   0  -8  376.09   26.36
   3   0  -8  350.66   27.78
   3   0  -8  400.69   25.93
   3   0  -8  381.60   23.65
   3   0  -8  353.37   25.91
   3   0  -8  374.12   27.99
   3   0  -8  356.00   24.40
   3   0  -8  349.36   22.71
   3   0  -7  534.49   24.00
   3   0  -7  544.11   36.61
   3   0  -7  485.12   29.43
   3   0  -7  543.54   27.98
   3   0  -7  517.60   31.50
   3   0  -7  518.80   29.67
   3   0  -7  543.62   32.43
   3   0  -7  550.16   29.09
   3   0  -7  564.21   27.81
   3   0  -7  523.20   26.15
   3   0  -6  546.64   34.72
   3   0  -6  562.39   26.29
   3   0  -6  544.57   30.56
   3   0  -6  545.52   30.23
   3   0  -6  541.32   28.91
   3   0  -6  528.82   26.95
   3   0  -5  574.52   26.45
  -3   0   4 1331.05   33.55
   3   0  -4 1282.47   37.02
   3   0  -4 1223.32   36.12
  -3   0   3  497.11   21.29
   3   0  -3  424.10   21.44
   3   0  -3  416.25   19.80
   3   0  -2   40.38    7.10
  -3   0   2   52.38    7.19
  -3   0   1  538.01   22.18
   3   0  -1  531.79   24.10
  -3   0   0  552.87   22.43
   3   0   0  560.29   25.20
   3   0   1  464.17   23.56
  -3   0  -1  445.32   20.48
   3   0   2 1193.64   38.49
  -3   0  -2 1026.94   31.19
  -3   0  -3  833.09   28.44
   3   0   3  899.75   34.53
  -3   0  -4 1224.37   35.22
   3   0   4 1093.96   38.94
   3   0   5  139.91   13.97
  -3   0  -5  121.66   11.66
   3   0   6   62.78    8.96
  -3   0  -6   67.30   11.17
   3   0   7  498.89   25.71
  -3   0  -7  420.82   33.58
  -3   0  -7  438.56   28.04
   3   0   8  490.48   25.55
  -3   0  -8  443.41   28.72
  -3   0  -9  411.63   27.04
   3   0   9  380.98   23.58
  -3   0 -10  143.43   15.18
  -3   0 -10  142.42   14.14
   3   0  10  140.63   13.56
  -3   0 -11   27.76    5.98
  -3   0 -11   22.46    5.52
   3   0  11   30.05    5.44
  -3   0 -12    2.41    2.46
  -3   0 -12    1.84    2.98
   3   1 -12  113.90   10.96
   3   1 -12   87.23    6.96
   3   1 -11   94.29   12.55
   3   1 -11   89.29    8.89
   3   1 -11   77.81   11.35
   3   1 -11   89.61   11.25
   3   1 -11   79.50   11.32
   3   1 -11   86.47   12.01
   3   1 -10   23.31    8.41
   3   1 -10   17.39    5.96
   3   1 -10   10.46    4.01
   3   1 -10   22.27    7.56
   3   1 -10   39.02   11.34
   3   1 -10   23.19    8.35
   3   1  -9   72.14    9.42
   3   1  -9   57.76   12.08
   3   1  -9   31.14   11.15
   3   1  -9   49.28    9.40
   3   1  -9   82.08   13.20
   3   1  -9   64.41   12.46
   3   1  -8   45.36   15.15
   3   1  -8   34.01   10.51
   3   1  -8   44.01    9.36
   3   1  -8   20.51    9.49
   3   1  -8   42.55    9.86
   3   1  -8   51.88   10.57
   3   1  -8   38.60    7.36
   3   1  -8   47.88   10.65
   3   1  -7   81.84   11.88
   3   1  -7   73.67    9.85
   3   1  -7   92.81   12.62
   3   1  -7   79.18   15.12
   3   1  -7   76.29   13.59
   3   1  -7   87.34   13.85
   3   1  -7   77.25   14.51
   3   1  -7   66.15   11.76
   3   1  -7  108.71   13.63
   3   1  -6 1042.25   36.03
   3   1  -6 1057.34   33.98
   3   1  -6 1109.37   50.47
   3   1  -6 1059.17   40.74
   3   1  -6 1030.79   37.03
   3   1  -6 1103.80   44.17
   3   1  -6 1107.41   43.16
   3   1  -6 1149.31   43.09
   3   1  -5  211.30   17.46
   3   1  -4    4.03    3.83
   3   1  -3  114.43   10.43
   3   1  -3  131.27   11.94
  -3  -1   3  130.93    9.93
  -3  -1   2  982.98   27.53
   3   1  -2  910.00   29.66
   3   1  -2 1011.93   29.70
   3   1  -1 1343.75   37.11
   3   1  -1 1363.66   32.57
  -3  -1   1 1473.17   34.18
  -3  -1   0  225.84   10.92
  -3  -1   0  227.11   13.86
   3   1   0  241.10   16.35
  -3  -1  -1  542.10   21.29
  -3  -1  -1  540.07   16.98
   3   1   1  583.17   25.72
  -3  -1  -2  637.67   19.24
  -3  -1  -2  564.54   22.07
  -3  -1  -3  221.63   14.39
  -3  -1  -3  218.00   12.17
  -3  -1  -4  635.79   34.86
   3   1   4  610.70   28.77
  -3  -1  -4  551.83   21.05
  -3  -1  -5  148.27   12.46
   3   1   5  125.34   14.05
  -3  -1  -5  100.07    9.75
   3   1   6   10.25    4.53
  -3  -1  -6    5.03    4.00
  -3  -1  -6    7.24    4.06
  -3  -1  -7   10.48   10.03
  -3  -1  -7   17.25    4.63
   3   1   7   33.37    6.00
  -3  -1  -8   92.74   11.82
  -3  -1  -8  136.01   15.37
   3   1   8  140.27   13.32
  -3  -1  -9  512.48   25.23
  -3  -1  -9  521.91   29.33
  -3  -1 -10   26.41    7.26
  -3  -1 -10   23.61    5.16
   3   1  10   18.56    5.06
  -3  -1 -11    4.73    3.63
  -3  -1 -11    5.80    2.60
  -3  -1 -11    3.77    3.45
   3   1  11    4.31    2.65
  -3  -1 -12   -3.90    3.12
  -3  -1 -13    0.52    1.19
   3   2 -12   33.50    4.12
   3   2 -12   36.23    5.43
   3   2 -11   91.12   10.28
   3   2 -11  101.36   10.69
   3   2 -11  107.06   11.86
   3   2 -11   97.54    8.74
   3   2 -11   70.43    8.92
   3   2 -10    5.21    6.79
   3   2 -10    4.35    3.11
   3   2 -10   -2.57    3.17
   3   2 -10    4.92    3.42
   3   2 -10    5.09    3.81
   3   2 -10   -1.74    4.79
   3   2  -9   24.14    6.58
   3   2  -9    7.65    5.28
   3   2  -9   23.05    9.61
   3   2  -9   11.35    4.75
   3   2  -9   13.51    5.85
   3   2  -9   18.40    7.19
   3   2  -8   12.21    5.94
   3   2  -8   15.41    5.86
   3   2  -8   16.88    9.26
   3   2  -8   24.74    6.12
   3   2  -8   23.31    7.86
   3   2  -8   16.84    7.18
   3   2  -7  348.47   22.19
   3   2  -7  316.79   28.96
   3   2  -7  374.20   22.35
   3   2  -7  326.54   23.68
   3   2  -7  371.18   21.31
   3   2  -7  346.81   27.00
   3   2  -7  326.19   25.47
   3   2  -7  351.41   26.55
   3   2  -6  173.83   15.02
   3   2  -6  169.49   15.01
   3   2  -6  186.30   17.60
   3   2  -6  192.34   15.20
   3   2  -6  180.99   18.92
   3   2  -6  176.36   21.36
   3   2  -6  187.33   18.41
   3   2  -6  168.95   17.48
   3   2  -5  248.08   20.63
   3   2  -4   86.33   11.27
  -3  -2   3  627.23   20.06
   3   2  -3  695.33   24.06
   3   2  -3  686.27   28.54
   3   2  -2  249.81   15.44
  -3  -2   2  240.23   13.44
   3   2  -2  259.97   16.45
  -3  -2   1  204.53   12.91
   3   2  -1  197.91   12.89
  -3  -2   0 1034.17   29.24
   3   2   0 1029.46   27.31
  -3  -2  -1  918.36   25.64
  -3  -2  -1  939.23   28.33
  -3  -2  -2  692.71   25.07
  -3  -2  -2  682.09   22.77
  -3  -2  -3 1038.36   29.66
  -3  -2  -3  974.52   30.34
  -3  -2  -4  719.19   26.35
  -3  -2  -4  697.97   25.71
  -3  -2  -5    3.59    3.04
  -3  -2  -5    3.58    3.19
  -3  -2  -6    0.58    2.18
  -3  -2  -6    1.84    3.43
   3   2   7  151.36   13.45
   3   2   7  160.53   15.54
  -3  -2  -7  137.09   13.92
   3   2   8  795.66   30.77
  -3  -2  -8  871.51   36.66
  -3  -2  -9   52.78    8.74
  -3  -2  -9   31.41    7.85
  -3  -2 -10    3.98    2.99
  -3  -2 -11  145.09   12.92
   3   2  11  135.82   12.38
  -3  -2 -12    1.73    2.24
  -3  -2 -12    3.81    2.48
  -3  -2 -13   13.40    3.45
  -3  -2 -13   12.41    2.49
   3   3 -11    3.44    1.99
   3   3 -11    3.80    2.35
   3   3 -10   -0.69    2.96
   3   3 -10   -1.92    2.27
   3   3 -10   -1.38    2.44
   3   3 -10    0.71    2.35
   3   3  -9   -1.34    2.60
   3   3  -9    1.53    4.72
   3   3  -9    1.00    2.90
   3   3  -9    0.69    2.74
   3   3  -9   -4.44    4.00
   3   3  -8  381.37   22.75
   3   3  -8  505.42   35.69
   3   3  -8  427.48   26.52
   3   3  -8  483.65   24.12
   3   3  -8  389.63   28.00
   3   3  -8  432.20   27.46
   3   3  -7  224.26   24.34
   3   3  -7  238.69   18.71
   3   3  -7  254.95   20.57
   3   3  -7  255.56   18.70
   3   3  -7  274.49   24.28
   3   3  -7  238.71   21.28
   3   3  -6  544.24   33.30
   3   3  -6  577.04   27.69
   3   3  -6  526.50   28.67
   3   3  -6  554.82   32.86
   3   3  -6  557.79   27.41
   3   3  -6  512.93   36.73
   3   3  -6  514.76   30.42
   3   3  -5  158.12   17.23
   3   3  -5  184.37   14.98
   3   3  -5  169.97   20.39
   3   3  -5  174.36   14.91
   3   3  -5  166.92   17.63
   3   3  -5  171.73   16.78
   3   3  -4   82.15   11.80
   3   3  -3  387.40   23.09
  -3  -3   2  310.02   14.87
   3   3  -2  320.63   19.24
  -3  -3   1   41.29    5.89
   3   3  -1   42.33    6.97
   3   3   0  350.35   16.84
  -3  -3   0  344.06   17.32
  -3  -3  -1  287.61   16.43
   3   3   1  303.34   14.53
  -3  -3  -1  295.55   16.39
  -3  -3  -2  566.40   23.42
  -3  -3  -2  633.90   24.82
  -3  -3  -3  409.63   20.25
  -3  -3  -3  477.23   21.98
  -3  -3  -4   13.78    4.30
  -3  -3  -4   15.19    4.63
  -3  -3  -5    2.81    3.45
  -3  -3  -5    7.36    3.77
  -3  -3  -6    9.81    4.59
   3   3   7  438.30   22.29
  -3  -3  -7  437.32   25.85
   3   3   8  344.58   20.25
  -3  -3  -8  323.92   23.19
  -3  -3  -9  564.80   28.58
   3   3   9  585.40   26.04
  -3  -3  -9  600.95   32.97
  -3  -3 -10  327.40   21.32
  -3  -3 -11   37.66    7.45
  -3  -3 -12    4.83    2.89
  -3  -3 -12    2.48    2.24
  -3  -3 -13    0.05    1.62
  -3  -3 -13   -0.26    1.66
   3   4 -11    3.08    1.32
   3   4 -10   -0.40    2.34
   3   4 -10   -0.22    1.48
   3   4  -9   -2.20    3.29
   3   4  -9    6.28    2.38
   3   4  -9    5.99    3.76
   3   4  -9    7.79    3.91
   3   4  -8   41.15    7.74
   3   4  -8   36.19    9.11
   3   4  -8   41.45    7.46
   3   4  -8   34.20    8.27
   3   4  -7   74.43   10.10
   3   4  -7   68.15   13.40
   3   4  -7   67.63   10.39
   3   4  -7   74.35   12.04
   3   4  -6  418.78   24.06
   3   4  -6  436.77   34.18
   3   4  -6  466.71   26.06
   3   4  -6  443.60   29.50
   3   4  -5  217.40   21.68
   3   4  -5  211.93   16.73
   3   4  -5  175.52   18.81
   3   4  -5  226.95   18.20
   3   4  -5  210.46   18.95
   3   4  -4  264.60   22.40
   3   4  -4  292.91   18.77
   3   4  -4  281.25   19.93
   3   4  -4  240.63   20.26
   3   4  -4  281.56   20.39
   3   4  -3   27.97    7.76
   3   4  -3   24.80    5.42
   3   4  -3   27.89    6.22
   3   4  -3   24.60    6.15
   3   4  -2   42.75    7.59
   3   4  -1    5.45    2.64
   3   4   0   90.76    9.75
  -3  -4  -1 2544.96   54.64
   3   4   1 2706.90   45.56
  -3  -4  -2  493.82   24.12
  -3  -4  -3  455.51   23.43
  -3  -4  -4  493.50   25.49
  -3  -4  -5   10.18    4.69
  -3  -4  -6   88.15   12.25
  -3  -4  -7  333.22   20.67
   3   4   7  319.12   19.67
  -3  -4  -7  353.06   24.24
  -3  -4  -7  319.45   23.43
  -3  -4  -8  615.05   28.37
   3   4   8  615.28   27.34
  -3  -4  -8  660.55   34.72
  -3  -4  -9  560.26   28.58
  -3  -4  -9  516.22   26.00
   3   4   9  553.80   25.50
  -3  -4  -9  508.38   31.18
  -3  -4 -10  147.84   14.50
  -3  -4 -10  147.58   13.40
  -3  -4 -11   20.96    6.05
  -3  -4 -11   17.14    4.96
  -3  -4 -12   -0.51    1.85
  -3  -4 -12    0.05    1.04
  -3  -4 -12   -0.03    2.27
  -3  -4 -13   -2.18    1.72
  -3  -4 -13   -0.96    1.60
  -3  -4 -14   15.28    2.87
   3   5 -10    0.93    0.62
  -3  -5  10    5.21    2.18
   3   5  -9    9.09    3.07
   3   5  -9    8.14    2.35
   3   5  -9    8.46    3.81
   3   5  -8  153.06   15.93
   3   5  -8  144.61   12.42
   3   5  -8  147.86   14.52
   3   5  -8  174.26   13.34
   3   5  -7  259.91   18.53
   3   5  -7  271.73   22.21
   3   5  -7  260.32   17.70
   3   5  -7  215.66   22.19
   3   5  -6   50.20    8.31
   3   5  -6   62.81   13.28
   3   5  -6   67.62   10.41
   3   5  -6   55.72   10.60
   3   5  -5   24.55    6.32
   3   5  -5   22.08    6.45
   3   5  -5   20.54    8.16
   3   5  -4   10.21    5.92
   3   5  -4    5.86    4.45
   3   5  -4    3.94    3.70
   3   5  -4   -2.15    4.34
  -3  -5   4    0.54    2.82
   3   5  -3 1421.78   51.23
   3   5  -3 1537.17   46.69
   3   5  -3 1504.94   50.50
   3   5  -3 1480.79   41.42
  -3  -5   3 1349.61   44.67
   3   5  -2   86.55   11.92
   3   5  -2   74.54   10.48
   3   5  -2   75.97    9.45
   3   5  -2   91.93   12.33
  -3  -5   2   77.15   10.28
   3   5  -1  662.55   29.67
   3   5  -1  684.34   31.47
   3   5  -1  681.08   28.19
   3   5   0  221.01   15.84
  -3  -5  -1  703.63   32.21
   3   5   1  624.98   23.21
  -3  -5  -2  561.74   29.03
  -3  -5  -3    8.40    3.90
  -3  -5  -4  180.70   16.88
  -3  -5  -5  121.52   14.35
  -3  -5  -5  139.91   14.98
  -3  -5  -6   22.91    7.61
  -3  -5  -6   30.28    8.69
  -3  -5  -7  276.11   20.24
  -3  -5  -7  291.45   23.19
  -3  -5  -7  268.94   22.79
  -3  -5  -8  452.03   25.66
   3   5   8  452.41   24.09
  -3  -5  -8  502.15   29.84
  -3  -5  -8  465.89   30.13
  -3  -5  -9    6.31    3.65
  -3  -5  -9   11.55    4.64
   3   5   9   -2.33    1.75
  -3  -5  -9    0.39    2.50
  -3  -5 -10    3.84    3.73
  -3  -5 -10    2.17    2.64
  -3  -5 -11   55.00    8.85
  -3  -5 -11   54.74    7.89
  -3  -5 -12    9.57    3.65
  -3  -5 -12    9.95    4.18
  -3  -5 -12   11.61    3.80
  -3  -5 -13    6.43    3.16
  -3  -5 -13    1.35    1.67
  -3  -5 -14   39.51    4.52
   3   6  -8    0.81    1.55
   3   6  -8   -1.34    1.11
   3   6  -8   -2.60    2.44
   3   6  -7  253.66   16.53
   3   6  -7  195.92   17.77
   3   6  -7  196.87   15.65
   3   6  -7  227.15   14.22
   3   6  -6   25.54    5.66
   3   6  -6   15.92    7.03
   3   6  -6   25.76    5.81
   3   6  -6   22.04    6.29
   3   6  -5  304.78   18.87
   3   6  -5  317.46   22.02
   3   6  -5  292.42   23.21
  -3  -6   5  279.80   19.94
   3   6  -4   55.19    8.31
   3   6  -4   61.46   10.87
   3   6  -4   58.17   10.84
  -3  -6   4   61.71   10.23
   3   6  -3   59.08    8.73
   3   6  -3   78.05   12.23
   3   6  -3   63.14   10.36
  -3  -6   3   65.82   11.42
   3   6  -3   54.42   11.49
   3   6  -2   61.61    8.36
   3   6  -2   57.02    9.33
   3   6  -2   44.81   10.16
  -3  -6   2   59.04   10.19
   3   6  -2   57.17    9.74
   3   6  -1    4.25    2.96
   3   6  -1   -5.87    3.44
   3   6  -1    4.02    4.22
  -3  -6   1   -1.83    2.51
   3   6   0  523.67   23.09
  -3  -6   0  519.25   30.28
  -3  -6   0  572.02   26.07
   3   6   0  613.63   27.39
   3   6   0  576.32   30.88
  -3  -6   0  567.10   30.40
  -3  -6  -1  714.86   35.19
  -3  -6  -1  849.55   31.25
   3   6   1  894.47   32.02
  -3  -6  -1  936.12   38.54
   3   6   1  860.74   37.31
  -3  -6  -1  855.80   36.91
  -3  -6  -2  568.10   31.73
  -3  -6  -2  586.39   25.32
  -3  -6  -2  686.73   34.10
  -3  -6  -2  673.83   32.81
   3   6   2  292.18   21.95
  -3  -6  -3  246.28   21.05
  -3  -6  -3  240.92   16.39
  -3  -6  -3  278.56   22.37
  -3  -6  -3  262.78   20.54
  -3  -6  -4   59.98    8.41
  -3  -6  -4   66.97   11.64
  -3  -6  -4   39.25    9.71
  -3  -6  -4   64.20   10.89
  -3  -6  -5  147.90   16.96
  -3  -6  -5  132.64   12.47
  -3  -6  -5  138.43   16.76
  -3  -6  -5  141.67   16.21
  -3  -6  -6  500.72   24.58
  -3  -6  -6  454.24   30.51
  -3  -6  -6  463.31   28.27
  -3  -6  -6  461.70   30.22
  -3  -6  -7  250.49   18.01
  -3  -6  -7  250.93   20.05
  -3  -6  -7  291.82   24.42
  -3  -6  -7  254.01   23.13
  -3  -6  -8  782.89   33.20
  -3  -6  -8  864.34   37.01
  -3  -6  -8  975.59   43.38
  -3  -6  -9    4.12    2.76
  -3  -6  -9    9.69    4.22
   3   6   9    8.45    3.35
  -3  -6  -9    4.87    4.84
  -3  -6 -10   61.00    9.50
  -3  -6 -10   64.62   10.06
   3   6  10   62.79    8.29
  -3  -6 -11    6.07    3.52
  -3  -6 -11    4.80    3.51
  -3  -6 -12   10.91    3.64
  -3  -6 -12   10.46    3.24
  -3  -6 -13   27.79    4.32
  -3  -6 -13   21.52    3.81
  -3  -7   7   36.51    5.25
   3   7  -7   39.42    5.24
  -3  -7   6  393.02   19.25
   3   7  -6  469.37   21.51
   3   7  -6  361.54   19.30
   3   7  -6  333.33   14.95
   3   7  -6  363.66   22.63
   3   7  -5   66.11   11.76
  -3  -7   5   72.54    9.68
   3   7  -5   73.04    9.95
   3   7  -5   71.80   10.21
  -3  -7   5   53.53    7.84
   3   7  -5   53.46    6.90
   3   7  -4    4.43    3.10
  -3  -7   4    5.65    3.91
   3   7  -4    3.84    3.20
   3   7  -4    6.14    3.66
  -3  -7   4    5.22    3.10
   3   7  -3  117.45   11.00
  -3  -7   3  112.49   12.57
   3   7  -3  144.73   14.56
   3   7  -3  119.89   14.52
  -3  -7   3  132.09   15.17
   3   7  -2   18.67    4.47
  -3  -7   2   13.30    5.08
   3   7  -2   15.00    4.42
   3   7  -2    9.71    5.39
  -3  -7   2    9.67    4.06
  -3  -7   1   49.39    8.19
   3   7  -1   50.63    9.07
   3   7  -1   52.68   10.25
  -3  -7   1   47.78    9.63
  -3  -7   0   99.39   11.94
   3   7   0  104.91   11.84
  -3  -7   0   89.90   14.45
   3   7   0   96.39   13.50
  -3  -7   0  100.99   13.73
  -3  -7  -1  181.87   19.47
  -3  -7  -1  202.73   16.25
   3   7   1  212.47   16.13
  -3  -7  -1  189.44   17.98
   3   7   1  174.37   18.44
  -3  -7  -1  179.15   18.22
  -3  -7  -2  758.58   39.43
  -3  -7  -2  702.17   30.47
  -3  -7  -2  595.10   34.35
  -3  -7  -2  767.99   37.27
  -3  -7  -3   46.60    7.97
  -3  -7  -3   53.11   11.71
  -3  -7  -3   55.37   10.64
  -3  -7  -3   50.36   10.28
  -3  -7  -4  133.53   17.41
  -3  -7  -4  181.28   15.55
  -3  -7  -4  143.80   16.31
  -3  -7  -4  140.96   17.41
  -3  -7  -5    9.25    4.24
  -3  -7  -5    1.98    3.83
  -3  -7  -5   13.58    5.51
  -3  -7  -5    6.06    5.28
  -3  -7  -6    1.74    2.44
  -3  -7  -6    0.71    4.72
  -3  -7  -6   -3.33    3.57
  -3  -7  -6    1.03    4.40
  -3  -7  -7  171.93   15.44
  -3  -7  -7  203.21   18.47
  -3  -7  -7  227.44   21.54
  -3  -7  -8  101.90   10.92
  -3  -7  -8  106.91   11.65
  -3  -7  -8  106.52   13.53
  -3  -7  -8  113.85   15.80
  -3  -7  -9 1634.49   42.59
  -3  -7  -9 1665.01   44.82
   3   7   9 1641.40   44.17
  -3  -7  -9 1837.98   57.07
  -3  -7  -9 1634.49   49.51
  -3  -7 -10  131.67   11.66
  -3  -7 -10  126.92   13.07
   3   7  10  126.93   11.07
  -3  -7 -10  128.66   13.79
  -3  -7 -11   41.04    6.84
  -3  -7 -11   36.49    6.06
  -3  -7 -12   60.65    6.74
  -3  -7 -12   59.51    7.04
  -3  -7 -13    9.07    2.52
   3   8  -6   54.23    5.55
  -3  -8   6   47.98    4.84
   3   8  -5  129.30   12.63
  -3  -8   5  172.58   11.46
   3   8  -5  169.16   11.73
  -3  -8   5  140.92   10.16
   3   8  -4  110.23   13.82
  -3  -8   4  115.28   10.76
   3   8  -4  124.82   11.14
   3   8  -4   95.92   10.58
  -3  -8   4   97.77   10.55
  -3  -8   3   15.72    4.19
   3   8  -3    8.07    4.21
   3   8  -3   18.60    4.87
  -3  -8   3   14.16    5.55
  -3  -8   2   -0.67    2.95
   3   8  -2    3.58    2.52
   3   8  -2    5.16    4.37
  -3  -8   2    2.79    3.50
  -3  -8   1    0.23    2.85
   3   8  -1    4.87    3.43
   3   8  -1   -2.00    4.87
  -3  -8   1    8.11    3.55
  -3  -8   0  636.14   29.26
   3   8   0  483.35   24.01
   3   8   0  673.65   34.26
  -3  -8   0  627.25   33.66
  -3  -8  -1  646.41   29.62
   3   8   1  689.93   35.49
  -3  -8  -1  667.64   35.21
  -3  -8  -2  128.21   13.58
  -3  -8  -2  100.54   14.13
   3   8   2  128.85   18.13
  -3  -8  -2  131.76   15.73
  -3  -8  -3   16.96    4.97
  -3  -8  -3   10.67    5.47
  -3  -8  -3   14.26    5.54
  -3  -8  -4  220.49   17.54
  -3  -8  -4  224.99   21.63
  -3  -8  -4  269.77   22.45
  -3  -8  -5    2.00    3.04
  -3  -8  -5    8.56    5.02
  -3  -8  -5    2.27    4.60
  -3  -8  -6    4.02    2.32
  -3  -8  -6   -0.19    3.31
  -3  -8  -6    5.92    3.71
  -3  -8  -7  304.62   20.37
  -3  -8  -7  300.02   21.93
  -3  -8  -7  310.03   25.11
  -3  -8  -8  286.40   19.37
  -3  -8  -8  293.52   20.97
  -3  -8  -8  321.56   24.36
  -3  -8  -9   76.53    9.47
  -3  -8  -9   76.01   10.43
   3   8   9   76.56    9.04
  -3  -8  -9   64.99   11.22
  -3  -8 -10   14.75    4.85
  -3  -8 -10   11.33    3.20
   3   8  10   17.61    3.98
  -3  -8 -10   11.15    4.44
  -3  -8 -11   -0.56    1.05
  -3  -8 -12   10.26    2.56
  -3  -9   4   17.65    3.28
   3   9  -3    1.56    1.82
  -3  -9   3    1.41    2.30
  -3  -9   3   -0.79    1.81
   3   9  -2   16.30    4.10
   3   9  -2   10.75    4.30
  -3  -9   2   10.66    3.93
  -3  -9   2   22.46    5.52
  -3  -9   1  160.74   13.12
   3   9  -1  126.47   12.78
  -3  -9   1  138.76   13.81
  -3  -9   0  267.66   17.49
   3   9   0  247.81   18.65
  -3  -9   0  267.35   20.36
  -3  -9  -1  280.30   18.40
   3   9   1  280.68   21.05
  -3  -9  -1  269.49   20.84
  -3  -9  -2   34.71    7.12
   3   9   2   33.94    8.60
  -3  -9  -2   33.62    8.24
  -3  -9  -3    3.17    4.20
  -3  -9  -3   -7.30    4.21
   3   9   3   -1.61    2.30
  -3  -9  -3    9.53    4.89
  -3  -9  -4    2.89    3.59
  -3  -9  -4   -2.86    3.38
   3   9   4   -1.24    3.51
  -3  -9  -4   -0.68    1.65
  -3  -9  -5   41.66    7.48
  -3  -9  -5   48.48    9.55
  -3  -9  -5   34.09    8.34
  -3  -9  -6   53.89    8.81
  -3  -9  -6   45.61    8.24
  -3  -9  -6   61.56   11.01
  -3  -9  -6   48.24    9.14
  -3  -9  -7   49.35    8.16
  -3  -9  -7   65.54    9.52
  -3  -9  -7   71.72   11.19
  -3  -9  -8  100.01   10.44
  -3  -9  -8  127.67   12.79
  -3  -9  -8  119.91   13.67
  -3  -9  -9  133.38   10.82
  -3  -9  -9  140.75   12.19
   3   9   9  134.64   10.66
  -3  -9  -9  136.30   13.39
   3   9   9  139.56   12.23
  -3  -9 -10   96.65    7.86
  -3  -9 -10   93.56    8.99
   3   9  10   96.24    7.49
   3   9  10  109.76    9.86
  -3  -9 -11    0.07    0.85
  -3 -10   1   -1.17    2.01
  -3 -10   1    2.78    1.95
  -3 -10   0   70.69    7.52
   3  10   0   38.45    5.41
  -3 -10   0   67.65    8.24
  -3 -10  -1  236.38   14.01
   3  10   1  201.85   13.28
  -3 -10  -1  224.27   15.54
  -3 -10  -2  458.71   20.22
   3  10   2  433.21   21.31
  -3 -10  -2  475.04   23.17
  -3 -10  -3  181.42   13.28
   3  10   3  187.73   14.68
  -3 -10  -3  187.10   14.86
  -3 -10  -4    1.27    2.22
  -3 -10  -4    5.75    2.77
   3  10   4    9.23    4.03
  -3 -10  -4   -1.11    2.49
  -3 -10  -5    5.19    3.09
  -3 -10  -5    4.84    2.98
  -3 -10  -5    1.90    2.36
   3  10   5   -0.47    2.29
  -3 -10  -5   -0.43    2.77
  -3 -10  -6    8.72    3.18
  -3 -10  -6    7.33    3.50
  -3 -10  -6    7.24    4.46
   3  10   6   11.29    4.30
  -3 -10  -7  147.31   11.05
  -3 -10  -7  161.07   12.12
  -3 -10  -7  131.44   12.72
   3  10   7  154.09   13.26
  -3 -10  -8  169.87   10.92
  -3 -10  -8  183.90   12.02
   3  10   8  159.70   10.70
  -3 -10  -8  166.84   13.03
   3  10   8  188.76   13.71
  -3 -10  -9  156.90    8.94
  -3 -10  -9  173.32   10.41
   3  10   9  157.96    8.65
   3  10   9  178.74   11.98
  -3 -11  -4    1.16    1.45
   4  -7  -7   78.42    8.16
   4  -7  -6   43.53    6.97
   4  -7  -5    4.13    3.31
   4  -7  -4    0.04    3.17
  -4   7   3    5.93    2.55
   4  -7  -3    9.17    2.21
   4  -7  -3    3.86    3.84
  -4   7   2  145.06   12.11
   4  -7  -2  154.44   11.38
   4  -7  -2  161.61   13.94
  -4   7   1  125.24   10.83
   4  -7  -1  155.70   11.60
   4  -7  -1  133.27   11.33
  -4   7   0  110.19    9.41
   4  -7   0  121.43   10.13
   4  -7   1   52.60    6.19
   4  -6  -9   31.05    5.85
   4  -6  -8  182.12   12.96
   4  -6  -8  194.91   13.97
   4  -6  -7  280.86   19.18
   4  -6  -7  286.22   18.15
   4  -6  -6   75.71   11.50
   4  -6  -6   79.30   10.11
   4  -6  -5    8.94    5.80
   4  -6  -4    2.92    3.26
   4  -6  -3   25.57    6.22
   4  -6  -3   31.61    8.54
   4  -6  -2  170.92   15.14
   4  -6  -2  207.21   20.66
   4  -6  -1  180.64   15.64
   4  -6  -1  197.73   19.16
   4  -6   0  343.03   21.36
   4  -6   0  308.84   22.27
  -4   6   0  336.39   22.61
  -4   6  -1  167.64   15.60
   4  -6   1  168.94   14.76
  -4   6  -2    1.32    3.62
   4  -6   2   -1.11    3.17
  -4   6  -3   10.22    3.42
   4  -6   3   12.11    3.75
  -4   6  -4   12.03    3.23
   4  -6   4   10.09    2.67
   4  -5 -11  133.79    9.43
   4  -5 -10   -1.17    2.68
   4  -5  -9  123.07   12.92
   4  -5  -8  179.27   17.82
   4  -5  -8  178.81   14.90
   4  -5  -8  167.24   16.21
   4  -5  -7  117.28   14.86
   4  -5  -7  117.55   14.00
   4  -5  -7  135.62   15.49
   4  -5  -6   63.07   12.09
   4  -5  -6   45.90    9.94
   4  -5  -5  108.58   15.91
   4  -5  -5   93.34   13.46
   4  -5  -4   24.50    8.93
   4  -5  -4   25.11    7.25
   4  -5  -3   89.20   11.66
   4  -5  -3  118.88   17.85
   4  -5  -2   93.63   12.42
   4  -5  -2   95.82   15.65
   4  -5  -1  340.14   22.96
   4  -5  -1  356.66   29.45
   4  -5   0   29.01    7.48
   4  -5   0   15.61    6.58
   4  -5   1    3.41    2.34
   4  -5   1    3.75    4.00
  -4   5  -2    4.77    5.34
   4  -5   2    5.99    4.73
  -4   5  -3   -1.86    4.14
   4  -5   3    3.68    3.77
   4  -5   3    4.09    2.98
   4  -5   3    5.30    2.77
  -4   5  -4   35.75    8.11
   4  -5   4   27.86    6.39
   4  -5   4   34.35    7.26
   4  -5   4   36.95    6.26
  -4   5  -5   19.26    5.81
   4  -5   5   21.48    4.24
   4  -5   5   25.84    4.76
  -4   5  -6  204.25   12.80
   4  -5   6  184.91   10.23
   4  -4 -11   79.08    9.45
   4  -4 -11   80.71    8.74
   4  -4 -10    2.75    4.04
   4  -4 -10    0.43    3.78
   4  -4  -9  207.06   18.67
   4  -4  -9  194.45   18.84
   4  -4  -9  205.70   13.26
   4  -4  -8  430.58   30.20
   4  -4  -8  389.78   27.64
   4  -4  -7  477.81   29.80
   4  -4  -7  500.55   31.78
   4  -4  -7  463.41   31.85
   4  -4  -6    5.05    4.91
   4  -4  -6    1.75    2.03
   4  -4  -6   -6.85    5.13
   4  -4  -5    6.96    4.42
   4  -4  -5   11.39    7.18
   4  -4  -5   10.01    4.54
   4  -4  -4  112.98   15.45
   4  -4  -4  116.89   18.30
   4  -4  -4   95.13   13.87
   4  -4  -3   13.20    5.84
   4  -4  -3    5.93    4.85
   4  -4  -3    3.80    4.04
   4  -4  -2  574.48   28.39
   4  -4  -2  556.21   37.43
   4  -4  -1  253.36   19.79
   4  -4  -1  290.14   27.16
   4  -4   0  348.16   23.75
   4  -4   0  350.24   30.10
   4  -4   1    3.29    2.38
   4  -4   1   -3.51    4.08
   4  -4   2   22.91    6.61
   4  -4   2   17.05    8.50
   4  -4   2   14.15    4.82
  -4   4  -3    4.20    4.03
   4  -4   3    5.83    3.19
   4  -4   3    0.28    2.86
  -4   4  -4   -9.32    5.73
   4  -4   4    3.92    4.38
   4  -4   4    5.91    3.97
  -4   4  -5  100.07   13.61
   4  -4   5  111.51   12.52
   4  -4   5  100.65   11.36
  -4   4  -6  288.96   20.46
   4  -4   6  263.93   16.79
   4  -4   6  232.57   15.10
   4  -4   6  306.01   18.01
  -4   4  -7  246.92   16.24
   4  -4   7  281.70   15.08
  -4   4  -8   74.46    7.07
   4  -4   8   72.67    6.11
   4  -3 -12  189.74   11.98
   4  -3 -11    3.17    3.16
   4  -3 -11    2.69    3.23
   4  -3 -10   26.21    7.42
   4  -3 -10   15.23    5.11
   4  -3 -10   24.44    6.52
   4  -3 -10   14.58    5.94
   4  -3  -9  322.39   22.59
   4  -3  -9  318.78   21.40
   4  -3  -9  330.89   24.74
   4  -3  -9  320.35   22.50
   4  -3  -9  326.45   25.86
   4  -3  -9  291.78   17.08
   4  -3  -8  363.02   24.49
   4  -3  -8  364.86   28.96
   4  -3  -8  344.37   27.03
   4  -3  -8  399.38   25.82
   4  -3  -7  136.48   18.27
   4  -3  -7  134.93   17.80
   4  -3  -7  141.74   15.76
   4  -3  -6  990.73   47.69
   4  -3  -6 1039.30   46.69
   4  -3  -6  994.14   46.06
  -4   3   5    4.69    4.07
   4  -3  -5    9.61    6.18
   4  -3  -5    3.56    3.05
   4  -3  -5   -2.32    6.06
   4  -3  -5  -17.13    8.93
   4  -3  -5   12.95    5.24
   4  -3  -4  251.07   20.47
  -4   3   4  263.31   24.13
   4  -3  -4  214.36   21.34
   4  -3  -4  197.85   22.52
   4  -3  -4  213.44   23.41
   4  -3  -4  229.39   21.48
   4  -3  -3   12.00    5.86
  -4   3   3   12.77    7.22
   4  -3  -3   13.20    7.16
   4  -3  -3    8.76    6.72
   4  -3  -3   14.82    5.61
   4  -3  -3    3.25    3.53
   4  -3  -2  207.44   19.44
  -4   3   2  179.04   19.81
   4  -3  -2  195.13   16.57
   4  -3  -2  190.69   18.64
   4  -3  -2  224.54   24.56
   4  -3  -1  420.16   27.96
  -4   3   1  415.99   29.55
   4  -3  -1  327.37   29.95
   4  -3  -1  336.66   22.13
   4  -3  -1  387.27   23.38
   4  -3  -1  379.83   25.25
   4  -3   0  508.57   30.69
   4  -3   0  480.40   27.02
  -4   3   0  495.93   31.64
   4  -3   0  486.97   36.04
   4  -3   0  520.32   28.15
   4  -3   1  696.11   35.15
  -4   3  -1  699.98   37.75
   4  -3   1  681.61   43.11
   4  -3   1  648.36   32.61
   4  -3   1  742.46   33.07
   4  -3   2    0.86    1.64
   4  -3   2   11.30    6.89
   4  -3   2   -1.54    3.09
  -4   3  -2   -8.08    6.38
   4  -3   2    2.58    3.52
   4  -3   3  114.20   14.26
   4  -3   3  129.52   17.53
   4  -3   3  116.16   13.42
  -4   3  -4   24.46    8.50
   4  -3   4   32.41    7.73
   4  -3   4   28.45    7.80
  -4   3  -5    7.01    5.09
   4  -3   5   11.19    5.94
   4  -3   5   16.09    5.81
  -4   3  -6   60.80   11.01
   4  -3   6   77.89   10.92
   4  -3   6   83.48   10.60
   4  -3   7   92.02   10.36
  -4   3  -7  109.28   13.23
   4  -3   7  118.76   12.06
  -4   3  -8    5.84    3.07
   4  -3   8    6.80    2.20
   4  -3   8   12.16    3.87
  -4   3  -9   23.53    4.31
   4  -3   9   25.61    3.94
   4  -2 -12    2.96    1.83
   4  -2 -11   43.58    8.36
   4  -2 -11   42.90    7.33
   4  -2 -11   48.39    8.08
   4  -2 -11   42.38    7.28
   4  -2 -10   34.41   15.40
   4  -2 -10   41.72    9.63
   4  -2 -10   33.55    7.52
   4  -2 -10   36.13    7.95
   4  -2 -10   62.38    9.19
   4  -2 -10   37.94    8.63
   4  -2  -9   59.08   12.57
   4  -2  -9   57.30   18.32
   4  -2  -9   57.36   10.02
   4  -2  -9   57.45   10.50
   4  -2  -9   52.68   10.56
   4  -2  -9   47.01    8.04
   4  -2  -8  875.12   36.81
   4  -2  -8  863.57   45.41
   4  -2  -8  844.43   38.76
   4  -2  -8  813.81   40.55
   4  -2  -8  781.59   38.99
   4  -2  -7  220.22   22.10
   4  -2  -7  238.63   24.15
   4  -2  -7  182.41   18.58
   4  -2  -7  224.17   22.34
   4  -2  -7  194.58   19.71
   4  -2  -6   62.38   12.54
   4  -2  -6   73.05   15.58
   4  -2  -6   87.84   12.72
   4  -2  -6   50.03   12.15
   4  -2  -5   64.22   11.05
   4  -2  -5   50.83   12.57
  -4   2   5   96.87   12.79
   4  -2  -5   66.24   13.20
   4  -2  -5   64.48   15.60
   4  -2  -5   28.29    7.54
   4  -2  -5   49.65   11.82
   4  -2  -5   57.09   10.14
   4  -2  -4   80.55   11.86
  -4   2   4   68.57   11.54
   4  -2  -4   76.28   12.63
   4  -2  -4   71.74   14.57
   4  -2  -4   89.43   13.55
   4  -2  -3  144.82   15.50
  -4   2   3  153.45   16.75
   4  -2  -3  157.58   19.32
   4  -2  -3  149.75   13.20
   4  -2  -3  151.05   16.36
   4  -2  -2  346.36   24.38
  -4   2   2  344.39   25.09
   4  -2  -2  342.53   27.76
   4  -2  -2  329.80   20.40
   4  -2  -2  404.00   26.15
   4  -2  -1  926.29   39.20
  -4   2   1  873.11   39.79
   4  -2  -1  821.20   43.55
   4  -2  -1  864.32   33.41
   4  -2  -1  936.17   38.50
   4  -2   0 1363.97   47.80
   4  -2   0 1355.52   55.55
   4  -2   0 1353.52   42.04
  -4   2   0 1468.43   50.90
   4  -2   0 1363.96   42.71
   4  -2   0 1413.39   46.17
  -4   2  -1   49.94   11.31
   4  -2   1   56.09   11.91
   4  -2   1   43.37    8.12
   4  -2   1   50.69    9.00
   4  -2   1   43.98    8.38
   4  -2   2   16.49    6.34
  -4   2  -2   12.44    6.16
   4  -2   2    4.04    3.91
   4  -2   2   10.80    6.60
   4  -2   2   14.34    5.17
   4  -2   2    3.15    3.41
   4  -2   3   -4.04    4.71
  -4   2  -3  -13.41    6.20
   4  -2   3    2.48    3.57
   4  -2   3   12.80    8.15
   4  -2   3    7.79    3.61
   4  -2   3    0.04    3.21
  -4   2  -4    4.94    4.48
   4  -2   4    9.43    5.35
   4  -2   4    4.46    3.04
   4  -2   4   10.48    5.16
  -4   2  -5  419.34   29.46
   4  -2   5  463.63   28.06
   4  -2   5  491.94   28.21
  -4   2  -6  199.67   20.01
   4  -2   6  205.96   18.06
   4  -2   6  224.82   19.00
  -4   2  -7  489.66   29.69
   4  -2   7  534.73   27.23
   4  -2   7  478.43   26.53
  -4   2  -8   26.75    6.98
   4  -2   8   41.40    6.59
   4  -2   8   51.81    8.12
  -4   2  -9    6.61    3.96
   4  -2   9    8.88    3.94
  -4   2 -10    1.62    2.22
   4  -2  10    0.41    1.27
   4  -1 -12    6.25    3.10
   4  -1 -12    2.92    2.44
   4  -1 -12    4.17    3.48
   4  -1 -11   50.14    8.84
   4  -1 -11   33.87    6.57
   4  -1 -11   30.59    7.54
   4  -1 -10   17.38    6.94
   4  -1 -10   34.25   15.87
   4  -1 -10   15.10    5.72
   4  -1 -10   11.51    5.24
   4  -1 -10   26.89    7.78
   4  -1  -9  745.15   35.76
   4  -1  -9  802.26   42.86
   4  -1  -9  774.94   37.97
   4  -1  -9  756.40   36.23
   4  -1  -9  770.50   38.26
   4  -1  -8  274.67   24.67
   4  -1  -8  267.44   25.93
   4  -1  -8  254.68   22.68
   4  -1  -8  247.07   22.46
   4  -1  -8  239.83   22.57
   4  -1  -7   20.84    7.40
   4  -1  -7   25.53   13.59
   4  -1  -7   28.69    7.28
   4  -1  -7   13.98    5.46
   4  -1  -7   15.44    7.12
   4  -1  -6  128.43   17.19
   4  -1  -6   88.20   14.95
   4  -1  -6  117.17   14.20
   4  -1  -6  103.34   14.83
   4  -1  -6  120.72   15.08
   4  -1  -5    2.91    4.50
   4  -1  -5   -3.91    3.16
   4  -1  -5    8.52   10.72
   4  -1  -5    7.28    4.61
   4  -1  -5   -0.47    3.11
   4  -1  -4   -1.39    8.65
   4  -1  -4   -4.92    4.81
  -4   1   4    3.31    3.57
   4  -1  -4    7.37    4.65
   4  -1  -4    7.68    3.99
   4  -1  -4   -8.22    4.84
   4  -1  -4    6.47    4.43
   4  -1  -3   25.71    7.74
  -4   1   3   32.29    7.14
   4  -1  -3   21.93    7.34
   4  -1  -3   23.31    6.97
  -4   1   2   55.20    9.59
   4  -1  -2   63.62   11.18
  -4   1   1 1500.22   47.80
   4  -1  -1 1558.23   54.86
  -4   1   0  316.28   22.26
   4  -1   0  291.51   24.04
  -4   1  -1 1453.88   46.88
   4  -1   1 1239.76   50.11
   4  -1   2   11.39    4.16
  -4   1  -2   10.02    4.64
   4  -1   2    8.62    3.31
   4  -1   2   14.39    5.01
   4  -1   2    8.82    3.52
   4  -1   3   41.76    8.90
  -4   1  -3   34.01    8.29
   4  -1   3   46.90    8.40
   4  -1   3   35.16    8.98
   4  -1   3   44.30    7.59
  -4   1  -4   32.41    8.21
   4  -1   4   30.96    7.50
   4  -1   4   38.26   11.56
   4  -1   4   33.23    6.78
   4  -1   5  131.56   14.59
  -4   1  -5  138.75   16.42
   4  -1   5  146.45   13.56
  -4   1  -6 2420.47   68.37
   4  -1   6 2359.22   60.90
   4  -1   6 2462.69   51.64
   4  -1   6 2429.40   62.58
  -4   1  -7  467.74   29.76
   4  -1   7  532.79   28.45
   4  -1   7  519.59   28.57
  -4   1  -8  194.13   15.24
  -4   1  -8  202.33   18.62
   4  -1   8  221.75   17.23
   4  -1   8  202.38   17.28
  -4   1  -9   70.62    8.45
  -4   1  -9   72.15   10.63
   4  -1   9   65.47    8.17
   4  -1   9   85.65   10.39
  -4   1 -10   44.42    5.66
  -4   1 -10   55.25    7.60
   4  -1  10   36.45    6.18
   4  -1  11   12.76    2.73
   4   0 -12    4.65    3.06
   4   0 -12    3.93    2.75
   4   0 -11   12.67    4.75
   4   0 -11   10.06    3.77
   4   0 -11   10.72    4.91
   4   0 -10   31.07    7.61
   4   0 -10   42.35   14.82
   4   0 -10   46.42    8.97
   4   0 -10   34.14    7.84
   4   0  -9   74.08   18.00
   4   0  -9   79.72   13.99
   4   0  -9   76.43   13.49
   4   0  -9   71.33   13.11
   4   0  -8  760.90   36.14
   4   0  -8  668.05   41.13
   4   0  -8  715.17   37.91
   4   0  -8  684.54   34.96
   4   0  -8  700.61   38.43
   4   0  -7  880.43   37.72
   4   0  -7  943.78   49.61
   4   0  -7  874.88   41.41
   4   0  -7  857.28   39.96
   4   0  -7  935.94   43.81
   4   0  -6  837.51   35.23
   4   0  -6  810.42   44.85
   4   0  -6  812.76   39.08
   4   0  -6  792.66   38.11
   4   0  -6  797.64   39.22
   4   0  -5   16.46    7.26
   4   0  -5   26.81   10.51
   4   0  -5   24.51    7.39
   4   0  -5    8.84    5.66
   4   0  -5   29.56    8.55
   4   0  -5   26.83    8.11
   4   0  -4  403.46   22.71
  -4   0   4  407.62   22.41
   4   0  -4  388.57   29.23
   4   0  -4  413.74   25.93
   4   0  -4  369.74   24.56
   4   0  -4  388.24   24.45
  -4   0   3   34.12    7.13
   4   0  -3   35.77    8.35
   4   0  -2  439.37   26.96
  -4   0   2  453.09   24.47
  -4   0   1  715.50   30.82
   4   0  -1  782.20   36.14
   4   0   0  915.34   39.71
  -4   0   0  777.90   32.21
  -4   0  -1   15.47    5.32
   4   0   1   26.45    7.66
   4   0   2    3.93    4.66
  -4   0  -2   -0.21    0.57
  -4   0  -3  394.27   23.70
   4   0   3  372.41   26.64
  -4   0  -4   18.47    6.37
   4   0   4   31.76    6.90
   4   0   4   12.84    6.74
   4   0   4   27.58    6.07
  -4   0  -5  202.90   18.82
   4   0   5  223.93   21.33
   4   0   5  211.66   17.61
  -4   0  -5  232.15   19.03
   4   0   5  216.96   15.80
  -4   0  -6  168.42   18.02
   4   0   6  165.05   15.86
  -4   0  -7  241.67   21.05
   4   0   7  232.87   18.84
  -4   0  -8   79.08   11.91
   4   0   8   85.69   11.24
   4   0   8   80.37   11.35
  -4   0  -9   41.00    8.07
   4   0   9   22.02    5.63
   4   0   9   36.06    6.83
  -4   0 -10    3.70    2.90
  -4   0 -10   -0.98    1.97
   4   0  10    3.80    2.81
  -4   0 -11    1.25    1.49
   4   0  11   -0.02    1.75
   4   1 -12   35.80    5.43
   4   1 -11   -1.28    2.81
   4   1 -11    4.03    3.22
   4   1 -11   -0.75    2.76
   4   1 -10   34.30    5.51
   4   1 -10   23.51    6.78
   4   1 -10   40.04    8.86
   4   1 -10   42.21    8.75
   4   1  -9  129.86   18.16
   4   1  -9  114.05   10.84
   4   1  -9  135.58   17.95
   4   1  -9  131.36   16.08
   4   1  -9  134.90   16.14
   4   1  -8  267.57   23.32
   4   1  -8  253.17   17.21
   4   1  -8  245.12   25.45
   4   1  -8  255.65   23.11
   4   1  -8  274.23   23.69
   4   1  -7  416.37   27.04
   4   1  -7  379.14   21.35
   4   1  -7  424.07   33.53
   4   1  -7  462.51   30.69
   4   1  -7  412.67   28.96
   4   1  -6  157.42   17.73
   4   1  -6  137.49   12.97
   4   1  -6  133.99   19.76
   4   1  -6  139.36   16.82
   4   1  -6  140.32   15.58
   4   1  -6  117.71   14.98
   4   1  -6  159.37   17.97
   4   1  -5   13.99    4.22
   4   1  -5   19.20    8.12
   4   1  -5   10.80    8.43
   4   1  -5    8.52    5.74
   4   1  -5   15.50    5.25
   4   1  -5    9.72    5.58
   4   1  -5   18.22    5.90
   4   1  -4   98.57   15.07
   4   1  -4   42.08   10.22
   4   1  -4   85.93   11.71
   4   1  -4   64.00    9.95
   4   1  -4   60.36   10.19
  -4  -1   3    4.73    3.04
   4   1  -3   13.88    5.04
   4   1  -3   18.87    5.05
   4   1  -2  273.24   19.94
  -4  -1   2  264.08   17.75
   4   1  -1  376.81   23.98
  -4  -1   1  398.80   22.21
  -4  -1   0 1363.43   40.92
   4   1   0 1518.36   49.34
  -4  -1  -1  438.04   23.38
   4   1   1  515.89   29.63
  -4  -1  -2   50.91    8.85
   4   1   2   53.40   10.32
  -4  -1  -3   35.69    7.35
   4   1   3   22.09    7.26
   4   1   4   42.36    7.16
   4   1   4   28.35    7.48
  -4  -1  -4   40.90    8.51
  -4  -1  -5   15.12    5.09
   4   1   5   11.00    4.05
   4   1   5   10.47    5.87
   4   1   5   14.04    4.23
  -4  -1  -6  185.08   17.30
   4   1   6  242.43   21.78
   4   1   6  229.35   18.19
   4   1   7  561.89   28.07
   4   1   8  283.37   19.56
  -4  -1  -9   19.15    4.64
   4   1   9   12.48    4.07
  -4  -1 -10   22.51    4.41
   4   1  10   35.26    6.96
  -4  -1 -11    0.84    2.24
   4   1  11    2.80    2.35
  -4  -1 -12    5.22    2.01
   4   2 -11   37.51    4.43
   4   2 -11   40.44    6.10
   4   2 -11   58.27    7.62
   4   2 -11   25.57    5.25
   4   2 -10   17.74    4.97
   4   2 -10   14.93    5.57
   4   2 -10    4.80    2.42
   4   2 -10    8.74    4.52
   4   2  -9  217.30   15.17
   4   2  -9  214.12   21.59
   4   2  -9  231.47   20.45
   4   2  -9  224.81   19.90
   4   2  -8  235.61   16.75
   4   2  -8  226.32   24.46
   4   2  -8  231.77   21.72
   4   2  -8  224.61   21.73
   4   2  -7  178.36   17.96
   4   2  -7  197.45   16.19
   4   2  -7  217.55   24.74
   4   2  -7  183.18   17.67
   4   2  -7  190.23   19.99
   4   2  -7  230.05   21.53
   4   2  -6   -6.07    9.30
   4   2  -6    9.33    5.04
   4   2  -6   -3.28    5.72
   4   2  -6    8.53    4.09
   4   2  -6    3.76    2.40
   4   2  -6    8.42    4.31
   4   2  -6   15.21    5.68
   4   2  -6    5.99    5.69
   4   2  -5   10.06    7.73
   4   2  -5   27.26    5.86
   4   2  -5   21.23    8.61
   4   2  -5   27.75    7.01
   4   2  -5   33.84    8.17
   4   2  -5   34.24    9.04
   4   2  -5   35.87    8.86
   4   2  -4  435.94   21.75
   4   2  -4  439.84   32.92
   4   2  -4  552.62   26.05
   4   2  -4  436.14   27.26
   4   2  -4  459.07   27.65
   4   2  -4  464.29   27.40
   4   2  -3    5.85    3.78
   4   2  -3    8.84    4.59
   4   2  -2  639.22   29.87
   4   2  -2  647.83   28.75
  -4  -2   2  696.86   28.02
  -4  -2   1 5173.63   78.18
   4   2  -1 4667.45   83.42
   4   2  -1 5046.79   75.76
  -4  -2   0 2997.73   60.51
  -4  -2   0 3095.91   52.79
   4   2   0 3078.07   69.43
  -4  -2  -1  244.54   17.56
  -4  -2  -1  241.08   15.02
   4   2   1  271.83   21.48
  -4  -2  -2    9.92    4.65
  -4  -2  -2    9.69    4.53
   4   2   2   15.36    5.39
   4   2   3  128.57   16.06
  -4  -2  -3  132.36   13.72
  -4  -2  -3  125.19   10.91
  -4  -2  -4   42.07    7.89
   4   2   4   33.79    8.79
  -4  -2  -5  798.62   33.94
   4   2   5  785.27   39.12
   4   2   5  810.73   32.25
  -4  -2  -6 1369.34   44.89
   4   2   6 1263.60   51.15
   4   2   6 1294.14   41.60
   4   2   7  440.84   24.69
   4   2   8   72.81   10.20
  -4  -2  -9    6.23    3.38
   4   2   9    9.48    3.96
  -4  -2 -10   16.58    4.42
   4   2  10   11.30    4.07
  -4  -2 -11  117.37   10.29
   4   2  11  113.07   10.44
  -4  -2 -12   27.38    5.05
  -4  -2 -12   22.54    3.93
   4   2  12   23.90    4.03
   4   3 -10    5.59    2.52
   4   3 -10    2.03    3.78
   4   3 -10    8.61    3.70
   4   3 -10    6.01    2.38
   4   3  -9  241.53   15.51
   4   3  -9  209.13   19.59
   4   3  -9  257.24   20.25
   4   3  -9  210.30   16.93
   4   3  -8  144.39   13.27
   4   3  -8  174.72   20.51
   4   3  -8  163.63   18.22
   4   3  -8  158.88   16.54
   4   3  -7  271.38   19.06
   4   3  -7  270.70   26.72
   4   3  -7  238.75   17.29
   4   3  -7  250.86   23.32
   4   3  -7  274.09   22.95
   4   3  -6  268.43   19.02
   4   3  -6  289.33   19.99
   4   3  -6  255.58   27.10
   4   3  -6  262.66   23.75
   4   3  -6  264.93   22.83
   4   3  -5    9.30    4.23
   4   3  -5    6.22   18.06
   4   3  -5    6.45    4.29
   4   3  -5   -2.09    2.09
   4   3  -5    2.45    3.84
   4   3  -5    0.59    4.18
   4   3  -4  126.12   12.56
   4   3  -4   89.04   16.10
   4   3  -4  114.81   12.58
   4   3  -4  117.78   15.10
   4   3  -4  110.72   13.63
   4   3  -4  113.13   14.42
   4   3  -3    9.40    3.52
   4   3  -3   -0.07    5.24
   4   3  -3    5.27    3.25
   4   3  -3    8.52    4.49
   4   3  -3    7.00    3.89
   4   3  -3   11.07    5.63
  -4  -3   2  132.25   12.21
   4   3  -2  163.59   15.32
   4   3  -2  142.83   14.02
  -4  -3   1  861.95   31.53
   4   3  -1  881.67   36.16
   4   3  -1  821.83   31.81
  -4  -3   0  684.91   29.04
  -4  -3   0  654.84   27.94
   4   3   0  645.06   26.61
  -4  -3  -1  839.18   32.40
  -4  -3  -1  757.50   29.73
  -4  -3  -2   21.20    5.52
  -4  -3  -2   14.78    4.15
  -4  -3  -3  436.23   23.28
  -4  -3  -3  421.50   23.74
  -4  -3  -4   14.86    4.71
  -4  -3  -4    8.52    4.19
  -4  -3  -5  175.37   15.99
   4   3   5  185.85   15.47
  -4  -3  -5  162.34   14.90
  -4  -3  -6  890.15   36.76
   4   3   6  884.47   34.41
  -4  -3  -6  964.34   37.91
   4   3   7  434.13   30.58
   4   3   7  473.62   25.47
  -4  -3  -7  407.92   25.06
   4   3   8  314.22   20.60
  -4  -3  -9   36.20    7.87
   4   3   9   32.39    7.07
  -4  -3 -10   57.27    8.87
   4   3  10   52.87    7.57
  -4  -3 -11  107.78   10.87
  -4  -3 -12    0.98    2.07
  -4  -3 -12    1.97    1.87
  -4  -3 -13   46.02    5.14
   4   4 -10   -1.22    1.25
   4   4 -10   -4.32    2.34
   4   4  -9   32.82    7.03
   4   4  -9   35.09    6.87
   4   4  -9   39.86    5.84
   4   4  -8  478.80   22.48
   4   4  -8  365.11   26.58
   4   4  -8  456.87   21.10
   4   4  -8  420.65   26.33
   4   4  -8  382.04   22.22
   4   4  -7  601.92   27.58
   4   4  -7  624.69   38.83
   4   4  -7  528.11   25.66
   4   4  -7  588.57   33.23
   4   4  -7  599.52   30.90
   4   4  -6   55.89    9.41
   4   4  -6   60.26   13.92
   4   4  -6   70.24   10.50
   4   4  -6   49.20   10.49
   4   4  -6   62.72   11.56
   4   4  -5   79.86   10.71
   4   4  -5   87.58   15.98
   4   4  -5  101.95   12.53
   4   4  -5   86.41   13.18
   4   4  -5   77.07   11.53
   4   4  -4    6.17    4.23
   4   4  -4    1.76    4.87
   4   4  -4    4.36    2.50
   4   4  -4   -0.06    4.30
   4   4  -4    0.06    6.16
   4   4  -4    0.15    4.74
   4   4  -3   -2.27    2.48
   4   4  -3   -0.71    1.69
   4   4  -3    4.33    4.37
   4   4  -3   -1.97    4.50
   4   4  -3    0.52    3.45
   4   4  -2  414.00   21.61
   4   4  -2  494.23   25.73
   4   4  -2  405.27   25.59
   4   4  -2  447.18   26.07
   4   4  -2  382.36   24.61
   4   4  -1    0.31    4.30
   4   4  -1    6.86    3.20
   4   4  -1    0.67    2.17
   4   4  -1    3.67    2.66
   4   4  -1    5.39    3.54
  -4  -4   0  924.19   34.15
  -4  -4   0  823.29   34.79
   4   4   0  944.49   33.33
  -4  -4  -1    4.15    4.64
  -4  -4  -1    9.53    4.35
  -4  -4  -2    1.94    3.68
  -4  -4  -2   10.08    4.80
  -4  -4  -3   15.61    4.95
  -4  -4  -3    7.38    4.18
   4   4   4   -1.28    4.39
  -4  -4  -4    7.42    3.56
  -4  -4  -4   -2.26    1.84
   4   4   5  276.53   19.18
  -4  -4  -5  257.91   20.59
   4   4   6   51.64    8.46
  -4  -4  -6   47.46   10.63
   4   4   7 1040.82   38.06
  -4  -4  -7 1034.38   43.38
   4   4   8  253.58   18.51
   4   4   9   66.19    9.37
  -4  -4 -10    2.57    3.29
   4   4  10    2.15    2.48
  -4  -4 -11   34.95    7.10
  -4  -4 -12   64.83    7.46
  -4  -4 -13  185.57   10.03
  -4  -4 -13   74.03    6.43
   4   5  -9   30.63    4.38
   4   5  -9   35.97    5.53
   4   5  -8  250.42   14.51
   4   5  -8  248.81   19.14
   4   5  -8  270.80   18.37
   4   5  -7  206.93   15.01
   4   5  -7  166.93   18.16
   4   5  -7  155.91   13.27
   4   5  -7  193.56   17.93
   4   5  -6  298.37   19.40
   4   5  -6  281.99   26.17
   4   5  -6  306.86   20.21
   4   5  -6  286.01   23.30
   4   5  -5   19.51    4.90
   4   5  -5   13.64    8.15
   4   5  -5   33.12    7.45
   4   5  -5   34.63    9.00
   4   5  -5   26.94    7.40
   4   5  -4    2.08    3.12
   4   5  -4    3.35    4.78
   4   5  -4    2.14    3.00
   4   5  -4    0.58    4.74
   4   5  -3   54.67    8.65
   4   5  -3   47.85    8.97
   4   5  -3   46.48   10.10
   4   5  -3   54.83   11.11
   4   5  -3   58.25   10.72
   4   5  -2  342.30   20.72
   4   5  -2  359.39   23.08
   4   5  -2  333.74   24.63
  -4  -5   2  351.46   23.61
   4   5  -2  370.78   24.01
   4   5  -2  381.54   25.50
   4   5  -1 1756.59   44.99
   4   5  -1 1903.51   51.20
   4   5  -1 1674.38   53.07
  -4  -5   1 1656.49   50.72
   4   5  -1 1753.04   51.04
   4   5  -1 1874.56   53.31
   4   5   0  838.74   30.53
  -4  -5   0  788.43   37.25
  -4  -5   0  641.49   25.89
   4   5   0  600.55   27.84
   4   5   0  814.79   36.29
  -4  -5   0  817.64   35.48
   4   5   0  795.69   31.79
   4   5   0  848.64   36.43
  -4  -5  -1  618.95   32.49
   4   5   1  607.36   30.63
   4   5   1  591.82   25.25
  -4  -5  -1  613.28   31.17
   4   5   1  585.84   32.05
   4   5   2    3.81    4.40
   4   5   2    3.10    1.88
  -4  -5  -2   11.08    4.85
  -4  -5  -2    2.34    3.58
   4   5   2    5.60    4.73
  -4  -5  -2    2.93    3.92
  -4  -5  -3    0.05    1.79
  -4  -5  -3    2.10    3.56
  -4  -5  -3   -2.28    2.17
  -4  -5  -4   80.52   12.51
  -4  -5  -4   94.62   13.89
  -4  -5  -4   93.23   13.18
  -4  -5  -5   14.97    6.27
  -4  -5  -5   -0.80    2.76
  -4  -5  -6  588.72   28.46
   4   5   6  622.68   29.87
  -4  -5  -6  630.44   34.94
  -4  -5  -6  654.03   35.48
  -4  -5  -7  787.08   32.73
   4   5   7  783.77   33.23
  -4  -5  -7  799.27   40.29
  -4  -5  -8  191.36   15.93
   4   5   8  184.52   16.10
  -4  -5  -9   24.60    6.50
   4   5   9   30.00    6.11
  -4  -5 -10  141.08   13.75
   4   5  10  146.41   12.60
  -4  -5 -11   23.22    6.29
  -4  -5 -12    2.26    2.30
  -4  -5 -13  103.22    7.61
  -4  -6   8  286.83   12.71
   4   6  -8  266.08   13.58
   4   6  -8  258.76   11.30
   4   6  -7  299.47   15.26
   4   6  -7  274.58   19.97
   4   6  -7  332.30   17.24
   4   6  -7  286.18   18.22
   4   6  -6   62.42    8.03
   4   6  -6   71.80    9.41
   4   6  -6   46.55    9.48
   4   6  -6   70.86   12.49
   4   6  -5    1.03    2.68
   4   6  -5   -1.48    5.21
   4   6  -5    3.71    2.63
   4   6  -5   -2.22    4.62
   4   6  -4  522.52   25.20
   4   6  -4  539.98   28.72
   4   6  -4  511.52   31.00
   4   6  -3  102.18   11.35
   4   6  -3  129.88   14.36
   4   6  -3  113.79   15.39
  -4  -6   3  121.39   13.92
   4   6  -2  487.12   26.98
   4   6  -2  448.36   28.95
   4   6  -2  459.22   23.84
  -4  -6   2  419.33   26.77
   4   6  -2  439.60   25.80
   4   6  -1 1076.66   36.14
  -4  -6   1 1152.61   49.30
  -4  -6   1 1123.46   37.37
   4   6  -1 1210.61   42.07
   4   6  -1 1087.94   44.55
  -4  -6   1 1061.99   42.59
   4   6  -1 1182.34   42.16
   4   6   0  334.76   20.13
  -4  -6   0  367.66   27.40
  -4  -6   0  341.29   20.37
   4   6   0  185.14   16.73
   4   6   0  336.25   24.91
  -4  -6   0  330.74   24.17
   4   6   0  383.23   25.15
   4   6   1  116.16   11.76
  -4  -6  -1  112.42   15.46
  -4  -6  -1  154.63   13.32
  -4  -6  -1  122.43   14.90
   4   6   1  113.95   15.09
  -4  -6  -1  129.36   15.78
   4   6   1  137.35   15.62
   4   6   2   45.45    8.90
   4   6   2   49.42    7.69
  -4  -6  -2   54.21    7.73
  -4  -6  -2   41.22    8.92
  -4  -6  -2   39.09    9.04
   4   6   2   41.32    8.63
  -4  -6  -2   39.87    8.98
   4   6   3   -0.68    4.31
  -4  -6  -3    4.65    4.95
  -4  -6  -3    1.96    3.95
  -4  -6  -3   -7.68    5.29
  -4  -6  -4   13.87    7.95
  -4  -6  -4    7.65    4.27
  -4  -6  -4   13.27    5.72
  -4  -6  -5   53.00   11.88
  -4  -6  -5   51.46   12.41
  -4  -6  -5   51.94   10.51
  -4  -6  -6   34.17    9.03
  -4  -6  -6   42.65    9.82
  -4  -6  -7  327.48   22.28
   4   6   7  348.30   22.37
  -4  -6  -7  403.34   28.63
  -4  -6  -8  685.01   31.54
   4   6   8  639.91   29.76
  -4  -6  -9    1.94    3.11
  -4  -6  -9    3.28    3.50
   4   6   9    5.89    2.97
  -4  -6 -10   16.10    4.89
  -4  -6 -10   10.14    3.29
   4   6  10    6.68    3.71
  -4  -6 -11  613.60   24.80
  -4  -6 -11  562.19   21.13
  -4  -6 -12   14.53    3.32
  -4  -6 -13   50.00    5.01
  -4  -7   7   48.52    4.84
   4   7  -6    8.43    2.34
   4   7  -6    6.36    4.09
   4   7  -6   12.52    3.74
  -4  -7   6   10.44    3.34
   4   7  -6   10.80    4.25
   4   7  -5    6.17    2.33
   4   7  -5    0.81    3.21
  -4  -7   5    3.74    3.01
   4   7  -5    2.01    2.67
   4   7  -5   -1.94    2.93
   4   7  -4   13.13    4.36
   4   7  -4   13.86    7.12
  -4  -7   4   10.96    4.50
   4   7  -4   11.37    5.26
   4   7  -4   11.28    4.59
  -4  -7   4    3.16    3.60
   4   7  -3   15.67    4.19
  -4  -7   3    9.49    4.32
   4   7  -3   12.32    5.21
   4   7  -3   13.17    5.34
  -4  -7   3    9.67    4.54
   4   7  -2    5.50    2.69
  -4  -7   2    5.58    3.07
   4   7  -2    4.21    4.06
   4   7  -2   -3.25    5.62
  -4  -7   2    3.70    3.36
   4   7  -1   45.79    7.08
  -4  -7   1   45.19    8.37
   4   7  -1   49.85    9.02
   4   7  -1   49.68   10.39
  -4  -7   1   39.69    9.55
   4   7   0  233.72   16.26
  -4  -7   0  213.73   16.77
   4   7   0  239.33   18.31
   4   7   0  224.11   20.80
  -4  -7   0  207.69   19.51
   4   7   1  497.18   23.33
  -4  -7  -1  502.85   25.12
   4   7   1  527.21   31.07
  -4  -7  -1  510.01   31.06
   4   7   1  433.94   26.46
   4   7   2   12.80    5.48
  -4  -7  -2   10.85    4.83
  -4  -7  -2    6.70    4.39
   4   7   2   12.07    5.19
  -4  -7  -2   18.01    6.81
   4   7   3    2.78    4.75
  -4  -7  -3    5.15    2.76
  -4  -7  -3   13.98    5.70
   4   7   3    1.46    2.29
  -4  -7  -3    8.82    4.83
   4   7   4   14.29    7.04
  -4  -7  -4   10.22    4.86
  -4  -7  -4    4.47    4.51
  -4  -7  -4   12.87    6.08
  -4  -7  -5   78.49   13.29
  -4  -7  -5  106.69   15.35
  -4  -7  -6  975.41   44.59
  -4  -7  -7  348.35   20.41
  -4  -7  -7  364.27   23.94
   4   7   7  359.13   23.06
  -4  -7  -7  379.64   27.52
  -4  -7  -8  422.55   21.81
  -4  -7  -8  466.06   25.82
   4   7   8  435.35   24.06
  -4  -7  -8  493.85   30.10
  -4  -7  -9    4.12    2.21
  -4  -7  -9    6.49    3.04
   4   7   9    4.20    3.21
  -4  -7 -10   10.48    3.62
  -4  -7 -10   11.59    3.43
   4   7  10   15.89    3.86
  -4  -7 -11   16.63    4.15
  -4  -7 -11   19.96    4.02
  -4  -7 -12   25.30    4.05
   4   8  -5   -1.40    2.21
  -4  -8   5   -1.33    1.45
   4   8  -5   -5.21    2.17
   4   8  -4    0.91    3.44
  -4  -8   4   -0.22    2.09
   4   8  -4    4.41    3.90
  -4  -8   4    3.02    1.85
   4   8  -3   18.59    4.76
  -4  -8   3   13.32    4.20
   4   8  -3   11.96    4.67
  -4  -8   3   19.21    4.64
  -4  -8   2   66.45    8.93
   4   8  -2   66.87    9.08
   4   8  -2   57.73    9.90
  -4  -8   2   53.45    8.98
  -4  -8   1  243.68   16.94
   4   8  -1  249.88   20.54
  -4  -8   1  254.72   20.27
  -4  -8   0  273.30   18.40
   4   8   0  284.17   22.32
  -4  -8   0  287.59   22.19
  -4  -8  -1    4.35    3.22
   4   8   1    1.18    3.65
  -4  -8  -1    1.03    2.14
  -4  -8  -2   69.02    9.37
  -4  -8  -2   61.95   10.97
   4   8   2   81.30   12.26
  -4  -8  -2   83.23   12.57
   4   8   3    8.14    5.13
  -4  -8  -3    1.65    2.43
  -4  -8  -3    6.52    3.88
   4   8   3    7.36    5.28
  -4  -8  -3    4.48    4.60
   4   8   4    5.80    4.18
  -4  -8  -4    7.73    3.78
  -4  -8  -4    1.78    5.02
   4   8   4    9.50    6.87
  -4  -8  -4   11.56    4.75
   4   8   5   13.34    6.27
  -4  -8  -5   49.93    7.90
  -4  -8  -5   41.88    9.99
  -4  -8  -5   50.63   10.64
  -4  -8  -6  192.20   15.14
  -4  -8  -6  210.46   20.51
   4   8   6  202.51   19.92
  -4  -8  -7  524.81   27.89
  -4  -8  -7  495.05   30.52
   4   8   7  631.45   33.41
  -4  -8  -8   34.92    6.92
  -4  -8  -8   20.94    6.99
   4   8   8   32.04    6.36
  -4  -8  -9   67.79    8.87
   4   8   9   58.04    7.65
  -4  -8 -10    1.81    1.87
   4   8  10    1.22    1.79
  -4  -8 -11    1.73    1.39
   4   8  12   -0.19    0.67
   4   9  -3   11.60    3.73
  -4  -9   3    8.41    2.94
   4   9  -3    5.65    2.60
   4   9  -2   51.79    9.02
  -4  -9   2   63.96    7.16
   4   9  -2   83.11    9.03
  -4  -9   2   66.14    8.05
  -4  -9   1  133.25   10.85
   4   9  -1  134.69   12.75
  -4  -9   1  127.27   12.31
  -4  -9   0  173.80   13.21
   4   9   0  169.15   15.01
  -4  -9   0  169.62   15.26
  -4  -9  -1  405.74   20.57
   4   9   1  434.62   25.20
  -4  -9  -1  453.53   26.06
  -4  -9  -2   60.32    8.25
   4   9   2   50.66    9.30
  -4  -9  -2   59.36    9.57
  -4  -9  -3   72.86    8.88
   4   9   3   77.10   10.86
  -4  -9  -3   76.27   11.79
  -4  -9  -4  315.78   18.40
  -4  -9  -4  279.28   20.77
   4   9   4  338.42   23.19
  -4  -9  -4  302.15   21.85
  -4  -9  -5   30.62    5.92
  -4  -9  -5   27.41    7.59
   4   9   5   25.02    7.54
  -4  -9  -5   24.59    6.77
  -4  -9  -6  280.03   16.54
  -4  -9  -6  286.68   19.42
  -4  -9  -6  305.39   22.17
   4   9   6  293.44   21.03
  -4  -9  -7  201.58   13.26
  -4  -9  -7  213.84   16.05
   4   9   7  179.12   14.36
  -4  -9  -7  238.54   18.76
   4   9   7  215.69   17.55
   4   9   7  153.72   13.12
  -4  -9  -8  177.70   13.57
   4   9   8  197.52   13.62
   4   9   8  141.34   12.64
   4   9   9   -3.51    2.21
  -4  -9  -9    3.95    2.74
   4   9   9    5.31    2.50
   4   9  10   20.66    4.19
  -4  -9 -10   29.70    4.32
   4   9  10   27.08    3.82
   4   9  10   23.62    4.27
  -4 -10   0   97.34    7.58
   4  10   0   88.41    8.02
  -4 -10   0   93.67    8.83
  -4 -10  -1   51.11    6.06
   4  10   1   64.44    7.53
  -4 -10  -1   51.23    7.26
  -4 -10  -2    8.54    3.12
   4  10   2    8.59    3.84
  -4 -10  -2    9.82    3.74
  -4 -10  -3    2.49    2.53
   4  10   3    1.67    2.15
  -4 -10  -3    2.95    2.64
  -4 -10  -4   22.91    4.28
   4  10   4   26.82    5.97
  -4 -10  -4   27.30    5.76
  -4 -10  -5   30.81    5.70
  -4 -10  -5   28.59    4.85
   4  10   5   34.38    7.04
  -4 -10  -6   95.93    7.89
  -4 -10  -6   89.43    9.03
   4  10   6   99.14    9.09
   4  10   6  111.73   11.00
  -4 -10  -7  132.01    8.19
  -4 -10  -7  131.43   10.18
   4  10   7  182.67   11.44
   4  10   7  162.85   12.41
  -4 -10  -8   89.49    7.65
   4  10   8  116.42    8.27
   4  10   8   92.41    8.49
   5  -6  -6    3.59    1.99
   5  -6  -5    8.07    3.29
   5  -6  -4  130.74   12.03
   5  -6  -3  181.47   14.56
  -5   6   2  265.21   15.80
   5  -6  -2  203.71   10.86
   5  -6  -2  244.44   16.13
  -5   6   1   77.66    8.55
   5  -6  -1   87.41    7.72
   5  -6  -1   75.98    8.68
  -5   6   0   15.31    4.16
   5  -6   0   16.56    3.71
  -5   6  -1    5.06    1.97
   5  -6   1    3.36    2.03
   5  -5  -8   25.50    4.75
   5  -5  -7    1.07    2.10
   5  -5  -7    4.40    2.48
   5  -5  -6    9.05    3.84
   5  -5  -6    5.68    3.89
   5  -5  -5   49.94    9.04
   5  -5  -5   31.89    6.05
   5  -5  -4    0.92    2.75
   5  -5  -3   60.77   11.19
   5  -5  -2  404.14   20.43
   5  -5  -2  494.20   29.66
   5  -5  -1  243.64   16.60
   5  -5  -1  292.35   22.24
   5  -5   0   -0.49    3.05
   5  -5   0   -0.28    1.25
  -5   5  -1   -2.96    3.53
   5  -5   1    1.84    2.68
   5  -5   1    0.48    0.80
  -5   5  -2   38.30    6.90
   5  -5   2   37.57    6.70
  -5   5  -3   35.12    5.64
   5  -5   3   30.83    5.26
  -5   5  -4   61.04    6.58
   5  -4  -9   70.66    8.56
   5  -4  -8   42.82    7.10
   5  -4  -8   38.43    7.01
   5  -4  -7    3.46    2.61
   5  -4  -7    0.90    2.65
   5  -4  -7   -1.01    3.29
   5  -4  -6    8.55    4.75
   5  -4  -6   10.12    5.78
   5  -4  -6    7.72    5.03
   5  -4  -5    3.07    4.06
   5  -4  -5   16.09    6.68
   5  -4  -4  128.22   16.90
   5  -4  -4  134.92   15.02
   5  -4  -3  299.60   26.40
   5  -4  -3  303.33   22.32
   5  -4  -2   96.52   15.50
   5  -4  -1  398.18   22.58
   5  -4  -1  477.50   33.49
   5  -4   0   24.56    6.29
   5  -4   0   25.62    8.79
   5  -4   1   22.69    5.94
   5  -4   1   34.86    9.22
  -5   4  -2   25.43    7.27
   5  -4   2   22.27    6.28
   5  -4   2   18.65    6.00
  -5   4  -3    1.02    2.92
   5  -4   3    0.26    2.79
  -5   4  -4  286.71   18.99
   5  -4   4  278.16   17.09
  -5   4  -5  198.11   13.99
   5  -4   5  164.89   11.64
   5  -4   5  154.52   10.95
   5  -4   5  147.70    9.07
  -5   4  -6   90.85    7.79
   5  -3 -10   12.31    4.04
   5  -3 -10   16.47    4.28
   5  -3  -9  180.71   15.52
   5  -3  -9  204.98   16.00
   5  -3  -8  118.39   13.59
   5  -3  -8  136.12   14.73
   5  -3  -7  201.21   19.60
   5  -3  -7  200.98   19.04
   5  -3  -6   50.78    9.71
   5  -3  -6   37.87    8.57
   5  -3  -6   36.31    9.29
   5  -3  -5   12.45    5.45
   5  -3  -5    7.18    4.79
   5  -3  -5   10.61    7.32
   5  -3  -5   10.95    6.81
   5  -3  -4  348.87   23.85
   5  -3  -4  329.06   28.19
   5  -3  -4  341.25   26.12
   5  -3  -3  262.18   21.55
   5  -3  -3  281.90   26.90
   5  -3  -3  291.56   18.95
   5  -3  -3  257.45   22.49
   5  -3  -2  858.03   39.61
   5  -3  -2  792.12   44.97
   5  -3  -2  779.49   32.79
   5  -3  -2  679.21   35.42
   5  -3  -1   84.29   12.52
   5  -3  -1   74.21   10.57
   5  -3  -1   84.55   15.71
   5  -3  -1   80.50   10.81
   5  -3  -1   83.33   12.45
   5  -3   0   34.96    8.86
   5  -3   0   28.14    6.95
   5  -3   0   20.88    5.79
   5  -3   0   25.25   11.06
   5  -3   1   48.43    8.82
   5  -3   1   62.33   10.03
   5  -3   1   56.99   12.51
   5  -3   2   13.17    4.49
   5  -3   2   14.38    6.49
  -5   3  -3  118.86   15.33
   5  -3   3  119.23   13.80
   5  -3   3   98.22   13.44
   5  -3   3   93.10   10.51
  -5   3  -4  109.56   13.82
   5  -3   4  124.93   13.64
   5  -3   4  128.70   12.11
  -5   3  -5   93.97   12.02
   5  -3   5   83.63   10.41
   5  -3   5   88.47    9.83
  -5   3  -6   83.33   10.06
   5  -3   6   74.01    8.66
   5  -3   6   69.89    7.78
  -5   3  -7    2.63    2.78
   5  -3   7   -2.68    2.07
   5  -3   7    2.72    2.30
   5  -2 -11   76.22    7.52
   5  -2 -10   53.79    7.13
   5  -2 -10   49.79    8.25
   5  -2 -10   40.97    6.37
   5  -2  -9  299.06   20.00
   5  -2  -9  271.69   18.00
   5  -2  -9  309.84   22.14
   5  -2  -8  119.66   15.10
   5  -2  -8  115.38   14.78
   5  -2  -8  118.78   12.93
   5  -2  -7   68.86   12.27
   5  -2  -7   51.43   11.15
   5  -2  -7   60.64    9.85
   5  -2  -6   29.53    6.96
   5  -2  -6   30.39    7.88
   5  -2  -6   26.89    8.34
   5  -2  -6   30.61    9.96
   5  -2  -5    8.68    4.81
   5  -2  -5   -2.04    2.06
   5  -2  -5   16.26    8.14
   5  -2  -5   14.79    6.67
   5  -2  -4  362.23   25.36
   5  -2  -4  353.26   25.87
   5  -2  -4  355.18   29.66
   5  -2  -4  381.13   28.44
   5  -2  -3  316.26   24.34
   5  -2  -3  282.90   19.05
   5  -2  -3  286.47   24.38
   5  -2  -2  344.05   25.76
   5  -2  -2  354.73   22.57
   5  -2  -2  335.51   26.00
   5  -2  -1  127.68   15.83
   5  -2  -1  143.37   14.18
   5  -2  -1  136.17   14.61
   5  -2  -1  113.11   15.49
   5  -2   0   26.03    7.03
   5  -2   0   16.85    5.00
   5  -2   0   13.15    5.84
   5  -2   0   16.45    5.74
   5  -2   1    4.50    4.11
   5  -2   1   -4.17    2.66
   5  -2   1    5.75    4.12
   5  -2   1    8.34    4.56
   5  -2   2   95.13   12.65
   5  -2   2   95.79   12.74
   5  -2   2   88.87   11.66
   5  -2   3    1.35    1.76
   5  -2   3    3.18    4.54
   5  -2   3    6.05    2.92
  -5   2  -4  102.50   15.08
   5  -2   4   96.58   12.80
   5  -2   4   96.61   11.08
   5  -2   4  100.93   11.99
  -5   2  -5  130.11   15.48
   5  -2   5  139.08   14.66
   5  -2   5  121.16   12.92
  -5   2  -6  110.31   13.28
   5  -2   6  109.53   12.21
   5  -2   6  107.29   11.32
  -5   2  -7   42.92    7.29
   5  -2   7   29.83    6.23
   5  -2   7   33.14    5.82
  -5   2  -8  118.47    9.81
   5  -2   8  100.59    8.27
   5  -2   8  124.85    9.74
   5  -1 -11    4.45    2.02
   5  -1 -11    2.00    1.52
   5  -1 -10   59.56    9.28
   5  -1 -10   46.09    6.45
   5  -1 -10   40.83    6.07
   5  -1 -10   52.35    7.37
   5  -1  -9   93.46   13.15
   5  -1  -9   87.88   10.46
   5  -1  -9   83.27   10.67
   5  -1  -9   95.81   12.19
   5  -1  -8  178.84   19.61
   5  -1  -8  142.66   15.77
   5  -1  -8  184.13   17.56
   5  -1  -7  180.04   20.51
   5  -1  -7  159.33   17.72
   5  -1  -7  202.32   19.11
   5  -1  -6  140.72   14.28
   5  -1  -6  165.23   19.67
   5  -1  -6  161.10   18.43
   5  -1  -6  140.87   16.64
   5  -1  -5  292.24   21.96
   5  -1  -5  290.53   25.52
   5  -1  -5  233.47   21.72
   5  -1  -5  294.79   25.12
   5  -1  -5  311.51   23.69
   5  -1  -4   74.17   12.11
   5  -1  -4   86.68   14.19
   5  -1  -4   78.49   13.59
   5  -1  -4   67.06   10.75
   5  -1  -3  417.88   28.03
  -5   1   3  457.18   29.58
   5  -1  -3  438.26   34.10
   5  -1  -3  423.75   23.46
   5  -1  -3  418.51   28.89
   5  -1  -2 1105.64   46.12
  -5   1   2 1256.64   49.39
   5  -1  -2 1175.43   54.96
   5  -1  -2 1065.12   38.64
   5  -1  -2 1086.48   46.34
   5  -1  -1  192.00   19.47
  -5   1   1  173.01   18.86
   5  -1  -1  189.90   22.89
   5  -1  -1  166.29   16.15
   5  -1  -1  195.17   19.46
   5  -1   0   59.27   11.35
  -5   1   0   63.77   12.78
   5  -1   0   40.06    8.30
   5  -1   0   54.68   13.15
   5  -1   0   54.66    9.28
   5  -1   0   46.23    9.90
   5  -1   1    6.00    2.99
  -5   1  -1   12.34    6.28
   5  -1   1    8.34    3.37
   5  -1   1   -4.65   10.09
   5  -1   1    8.57    4.60
   5  -1   2   -2.10    2.16
  -5   1  -2    4.41    5.37
   5  -1   2    4.35    2.89
   5  -1   2  -12.62    8.12
   5  -1   2    3.89    4.12
   5  -1   3  299.56   21.62
   5  -1   3  341.72   23.86
   5  -1   3  329.81   21.85
   5  -1   4  113.49   13.12
  -5   1  -4   91.90   13.33
   5  -1   4   94.70   12.71
   5  -1   4  101.13   11.85
   5  -1   4  113.66   13.03
  -5   1  -5  491.63   30.07
   5  -1   5  460.69   27.45
   5  -1   5  467.41   23.64
   5  -1   5  478.66   26.84
  -5   1  -6   97.62   13.33
   5  -1   6  101.09   12.50
   5  -1   6   89.26   11.39
  -5   1  -7  150.73   15.19
   5  -1   7  156.85   14.31
   5  -1   7  167.02   14.62
  -5   1  -8   49.93    8.20
   5  -1   8   53.02    7.78
   5  -1   8   63.04    8.26
   5  -1   9    1.55    1.34
   5  -1   9    4.31    2.63
   5   0 -11   79.66    7.65
   5   0 -11   80.65    8.08
   5   0 -10  155.26   14.39
   5   0 -10  134.77   11.46
   5   0 -10  140.84   12.81
   5   0  -9  177.00   17.92
   5   0  -9  134.46   13.29
   5   0  -9  125.60   11.99
   5   0  -9  151.85   15.04
   5   0  -8  165.60   19.12
   5   0  -8  154.25   15.75
   5   0  -8  133.26   14.38
   5   0  -8  154.48   16.55
   5   0  -7   -0.07    6.89
   5   0  -7    5.10    2.94
   5   0  -7   -0.70    2.22
   5   0  -7   -3.73    5.45
   5   0  -6   11.31    6.67
   5   0  -6    6.22    5.06
   5   0  -6   11.01    6.07
   5   0  -5    3.14    4.16
   5   0  -5    3.31    4.51
   5   0  -5    5.02    5.99
   5   0  -5    1.61    3.47
   5   0  -4  292.73   23.97
   5   0  -4  328.96   27.72
   5   0  -4  346.67   26.51
   5   0  -4  334.19   24.72
   5   0  -3  502.28   31.19
  -5   0   3  528.63   30.23
   5   0  -3  459.29   30.72
   5   0  -3  465.93   33.17
   5   0  -3  486.67   25.41
   5   0  -3  548.41   32.63
   5   0  -3  494.68   28.92
   5   0  -2   49.04   10.23
   5   0  -2   35.89    9.27
  -5   0   2   46.82    9.40
   5   0  -2   60.37   13.11
   5   0  -2   40.63    7.86
   5   0  -2   45.58    8.23
   5   0  -1  315.81   24.77
  -5   0   1  353.57   25.69
   5   0  -1  335.39   28.45
   5   0  -1  309.22   21.11
   5   0   0    4.20    4.82
  -5   0   0    5.46    3.41
   5   0   0   -6.90    3.40
   5   0   0   -0.15    4.65
   5   0   0    6.91    3.17
   5   0   1   64.87   11.07
  -5   0  -1   65.19   12.05
   5   0   1   66.40   10.04
   5   0   1   73.97   14.96
   5   0   1   78.92   10.85
   5   0   2   -2.51    4.25
  -5   0  -2   11.91    6.08
   5   0   2    6.95    4.14
   5   0   2    8.53    8.78
   5   0   2    7.43    2.98
   5   0   3   79.23   11.51
   5   0   3   90.51   11.91
   5   0   3   74.36   14.71
   5   0   3   87.72   11.40
  -5   0  -3   86.90   13.09
   5   0   4  141.04   14.37
  -5   0  -4  178.49   17.73
   5   0   4  164.80   20.41
   5   0   4  163.52   16.53
   5   0   4  182.10   15.93
  -5   0  -5   57.81   10.24
   5   0   5   77.31   11.73
   5   0   5   70.07    9.55
  -5   0  -6  430.09   27.03
   5   0   6  412.99   25.04
   5   0   6  415.56   21.69
  -5   0  -7  153.65   15.57
   5   0   7  188.83   16.26
   5   0   7  178.18   16.27
   5   0   8   20.41    5.68
   5   0   8   16.06    4.90
  -5   0  -9   15.72    3.67
   5   0   9   17.62    3.89
   5   0   9   15.52    4.63
   5   0  10    3.49    2.10
   5   1 -10  163.04   14.15
   5   1 -10  124.24   11.32
   5   1 -10  147.61   12.51
   5   1  -9  315.14   23.49
   5   1  -9  275.85   19.32
   5   1  -9  312.35   21.26
   5   1  -8   81.62   13.55
   5   1  -8   65.87   10.30
   5   1  -8   81.36   12.61
   5   1  -7    5.73    4.06
   5   1  -7    0.43    3.24
   5   1  -7    2.11    4.86
   5   1  -7    4.55    4.95
   5   1  -6   17.10    7.73
   5   1  -6   22.27    6.66
   5   1  -6   25.69    5.34
   5   1  -6   21.26    7.01
   5   1  -6   21.11    6.90
   5   1  -5   80.50   12.52
   5   1  -5   92.23   10.35
   5   1  -5  100.05   16.94
   5   1  -5   87.38   13.19
   5   1  -5   99.60   14.09
   5   1  -5   93.62   13.61
   5   1  -4  331.90   18.55
   5   1  -4  340.92   28.60
   5   1  -4  336.27   25.44
   5   1  -4  338.28   24.81
   5   1  -3  168.38   13.08
   5   1  -3  167.16   19.53
   5   1  -3  168.01   18.24
   5   1  -3  150.96   16.43
   5   1  -2  975.47   30.62
  -5  -1   2  993.95   41.13
   5   1  -2  967.20   45.23
   5   1  -2  983.98   42.06
   5   1  -2  959.95   39.59
  -5  -1   1   97.05   12.86
   5   1  -1   99.11   10.08
   5   1  -1  116.55   16.87
   5   1  -1  112.85   13.64
   5   1   0    7.24    4.41
  -5  -1   0   -9.73    4.45
   5   1   0    4.95    5.85
   5   1   1  282.87   22.53
  -5  -1  -1  348.38   25.00
   5   1   1  322.98   27.52
   5   1   1  330.42   20.48
   5   1   1  378.89   23.33
   5   1   2   16.44    5.71
  -5  -1  -2   26.49    7.31
   5   1   2   20.81    5.53
   5   1   2   12.97    6.70
   5   1   3   47.37    9.38
  -5  -1  -3   52.30    9.90
   5   1   3   40.17    7.76
   5   1   3   41.09    9.81
   5   1   3   41.50    7.78
   5   1   4  258.77   19.69
  -5  -1  -4  276.86   23.43
   5   1   4  261.12   25.43
   5   1   4  278.61   20.77
   5   1   4  234.18   17.74
   5   1   5  411.32   31.77
   5   1   5  524.57   28.55
   5   1   5  500.93   25.35
   5   1   6   92.85   12.08
   5   1   6   81.19    9.87
   5   1   7   14.44    4.91
  -5  -1  -8   64.62    8.50
   5   1   8   71.55    9.45
   5   1   9   -1.88    3.16
   5   1   9    0.42    2.62
   5   1  10   76.78    7.35
  -5  -1 -10   61.28    7.18
   5   1  10   86.90    8.73
  -5  -1 -11   50.53    4.92
   5   1  11  124.21    8.15
   5   2 -10  127.38   11.20
   5   2 -10  113.44    9.89
   5   2 -10  115.03    9.82
   5   2  -9   67.53    6.59
   5   2  -9   78.69   11.59
   5   2  -9   81.83   10.32
   5   2  -9   82.33   10.32
   5   2  -8   34.90    5.63
   5   2  -8   43.78   10.19
   5   2  -8   35.67    8.53
   5   2  -8   28.40    7.59
   5   2  -7   19.07    7.71
   5   2  -7   26.23    6.74
   5   2  -7   13.51    5.04
   5   2  -7   11.54    6.20
   5   2  -6    1.54    2.55
   5   2  -6    4.88    5.62
   5   2  -6    4.31    3.82
   5   2  -6    4.22    4.42
   5   2  -5   15.40    4.65
   5   2  -5   20.43    6.94
   5   2  -5   19.44    6.22
   5   2  -5   16.73    6.42
   5   2  -5   21.65    7.04
   5   2  -4  116.12   11.79
   5   2  -4  107.63   17.57
   5   2  -4  111.34   14.38
   5   2  -4   92.35   13.56
   5   2  -4   89.01   13.59
   5   2  -3  458.72   22.81
   5   2  -3  480.15   34.10
   5   2  -3  444.36   27.75
   5   2  -3  494.54   29.45
  -5  -2   2  180.22   17.09
   5   2  -2  186.80   20.60
   5   2  -2  195.54   19.90
   5   2  -2  194.92   14.52
   5   2  -2  211.06   18.86
  -5  -2   1  143.55   15.46
   5   2  -1  108.51   11.17
   5   2  -1  110.35   15.58
   5   2  -1  147.30   15.34
  -5  -2   0  203.22   19.15
   5   2   0  169.95   13.58
   5   2   0  196.88   20.61
   5   2   0  200.00   18.12
  -5  -2  -1  305.23   23.27
   5   2   1  268.15   24.68
   5   2   1  293.84   18.92
   5   2   1  339.63   23.04
  -5  -2  -2   93.21   14.14
   5   2   2   88.50   14.78
   5   2   2   77.50   10.01
   5   2   2   95.12   13.02
   5   2   3    9.11    4.51
  -5  -2  -3    5.74    5.79
   5   2   3    9.93    4.18
   5   2   3   18.11    6.99
   5   2   4  160.08   15.46
  -5  -2  -4  187.53   19.15
   5   2   4  149.22   19.18
   5   2   4  204.11   17.54
   5   2   4  104.37   13.11
  -5  -2  -5  548.64   31.64
   5   2   5  468.87   34.47
   5   2   5  515.94   27.92
   5   2   5  434.71   23.45
   5   2   6  170.64   16.26
   5   2   6  200.79   15.51
   5   2   7   34.80    7.99
   5   2   8   12.07    4.65
  -5  -2  -9    0.35    1.36
   5   2   9    2.00    2.63
  -5  -2 -10   10.91    3.28
   5   2  10   19.09    4.19
   5   2  10   14.73    4.01
  -5  -2 -11   54.48    6.34
   5   2  11   89.40    7.86
   5   3 -10   47.94    5.71
   5   3  -9  130.68    8.85
   5   3  -9  131.10   13.06
   5   3  -9  116.58   11.64
   5   3  -9  109.55   10.67
   5   3  -8   67.27    7.83
   5   3  -8   69.47   12.09
   5   3  -8   66.83   10.30
   5   3  -8   57.49    9.11
   5   3  -7   24.68    5.42
   5   3  -7   20.94    8.63
   5   3  -7   19.38    6.07
   5   3  -7   21.22    7.91
   5   3  -6  108.85   16.89
   5   3  -6  108.34   24.52
   5   3  -6  106.48   14.78
   5   3  -6   98.01   13.66
   5   3  -5   10.80    4.85
   5   3  -5    9.10    7.06
   5   3  -5    1.82    4.69
   5   3  -5   10.37    7.01
   5   3  -4  214.74   23.90
   5   3  -4  229.67   17.21
   5   3  -4  238.49   21.47
   5   3  -4  218.65   20.22
   5   3  -3  499.12   24.88
   5   3  -3  536.32   36.87
   5   3  -3  518.30   30.49
   5   3  -3  514.43   31.38
   5   3  -3  513.23   28.50
   5   3  -3  497.84   30.00
   5   3  -2   57.04    8.72
   5   3  -2   46.91   10.67
   5   3  -2   55.05    9.52
   5   3  -2   61.59   10.85
  -5  -3   1  368.65   24.11
   5   3  -1  389.40   21.12
   5   3  -1  357.97   27.33
   5   3  -1  382.63   25.64
  -5  -3   0  124.01   15.04
   5   3   0  115.57   11.54
   5   3   0  105.35   16.65
   5   3   0  132.58   15.18
  -5  -3  -1  429.71   27.39
   5   3   1  405.74   21.39
   5   3   1  430.65   31.55
   5   3   1  426.01   22.66
   5   3   1  447.16   27.44
   5   3   2  -11.70    6.05
  -5  -3  -2   13.63    4.79
   5   3   2   -1.93    4.31
   5   3   2    1.36    7.05
  -5  -3  -3  387.22   26.18
   5   3   3  388.64   30.75
   5   3   3  362.85   22.60
   5   3   3  215.81   20.14
  -5  -3  -4  277.98   22.70
   5   3   4  238.99   25.23
   5   3   4  207.37   17.76
   5   3   4  240.16   22.44
  -5  -3  -5  245.23   21.75
   5   3   5  298.79   27.49
   5   3   5  258.22   19.58
   5   3   5  239.01   21.53
   5   3   6  401.57   24.75
   5   3   6  304.11   23.93
   5   3   7    4.20    3.88
   5   3   8   19.98    6.21
   5   3   8    4.58    3.03
  -5  -3  -9   39.60    7.16
   5   3   9   36.46    6.58
  -5  -3 -10   94.32    9.81
   5   3  10   82.77    9.02
  -5  -3 -11   85.92    7.75
   5   3  11   79.09    7.72
  -5  -3 -12    6.95    2.36
   5   4  -9   69.55    5.82
   5   4  -9   76.43    8.35
   5   4  -9   76.15    8.05
   5   4  -8   23.81    4.47
   5   4  -8   28.16    7.61
   5   4  -8    7.11    4.42
   5   4  -8   17.19    4.45
   5   4  -7   16.30    4.30
   5   4  -7   19.30    7.84
   5   4  -7   18.62    5.94
   5   4  -7    7.67    5.22
   5   4  -6    6.53    3.85
   5   4  -6    9.69    5.68
   5   4  -6    2.15    2.60
   5   4  -6   -2.90    3.62
   5   4  -5   89.11   11.03
   5   4  -5   87.89   15.92
   5   4  -5  109.02   14.56
   5   4  -5  109.74   14.22
   5   4  -4   31.43    7.40
   5   4  -4   28.75   11.40
   5   4  -4   33.05    8.37
   5   4  -4   43.76    8.76
   5   4  -3  247.03   18.11
   5   4  -3  239.17   25.75
   5   4  -3  235.66   20.94
   5   4  -3  252.19   21.69
   5   4  -2  103.72   11.94
   5   4  -2   92.96   15.29
   5   4  -2   87.71   12.80
   5   4  -2   77.81   11.97
   5   4  -2   86.65   12.84
   5   4  -1  206.21   15.86
   5   4  -1  201.49   22.37
  -5  -4   1  175.95   17.95
   5   4  -1  225.07   19.35
   5   4  -1  225.35   19.96
   5   4   0   25.48    7.07
  -5  -4   0   30.18    9.15
   5   4   0   18.64    5.57
   5   4   0   26.14    9.54
  -5  -4   0   14.80    6.54
   5   4   0   21.65    7.03
  -5  -4   0   17.03    5.37
  -5  -4  -1  307.34   23.47
   5   4   1  232.10   16.99
   5   4   1  275.01   25.41
   5   4   1  282.40   18.68
   5   4   1  253.41   23.13
   5   4   2   26.97    7.25
  -5  -4  -2   18.90    8.28
   5   4   2   18.04    5.68
   5   4   3    6.57    5.14
  -5  -4  -3    7.00    5.34
   5   4   3    1.71    2.70
  -5  -4  -4  654.12   34.33
   5   4   4  574.48   29.04
   5   4   4  528.91   33.43
  -5  -4  -5  407.29   28.48
   5   4   5  366.67   23.61
   5   4   5  316.70   25.27
   5   4   6  333.06   22.46
   5   4   7   19.31    4.91
   5   4   8   41.82    8.31
   5   4   9    3.68    2.77
  -5  -4 -10   93.61   10.12
   5   4  10   71.88    8.21
   5   4  10   61.07    9.19
  -5  -4 -11  137.85   10.70
   5   4  11  123.37    8.71
  -5  -4 -12   62.99    6.19
  -5  -4 -12  169.39    9.22
   5   5  -8    5.27    2.00
   5   5  -8    2.28    2.69
  -5  -5   8    5.48    1.61
   5   5  -8    3.65    2.53
   5   5  -7   28.70    4.98
   5   5  -7   35.98    8.55
   5   5  -7   22.95    6.30
   5   5  -7    9.46    3.03
   5   5  -6    2.28    3.03
   5   5  -6    3.36    6.26
   5   5  -6    9.09    4.09
   5   5  -6    0.46    2.81
   5   5  -5    2.30    2.78
   5   5  -5    0.85    4.92
   5   5  -5    6.97    5.77
   5   5  -5    0.82    2.95
   5   5  -4  112.15   12.01
   5   5  -4   98.78   16.19
   5   5  -4  110.41   14.51
   5   5  -4   92.32   13.15
   5   5  -3  174.77   15.27
   5   5  -3  150.37   20.84
   5   5  -3  148.30   16.77
   5   5  -3  184.36   17.85
   5   5  -2 1185.36   39.06
   5   5  -2 1139.52   54.35
   5   5  -2 1160.48   46.24
   5   5  -2 1357.69   48.12
   5   5  -1    2.36    4.26
   5   5  -1    8.79    4.34
   5   5  -1    9.68    5.02
  -5  -5   1   13.09    5.08
   5   5   0   15.72    6.59
   5   5   0   14.63    4.63
  -5  -5   0   22.48    7.80
   5   5   0   12.15    2.80
  -5  -5   0   10.41    5.51
   5   5   1  122.24   12.84
  -5  -5  -1  122.66   15.91
   5   5   1  132.89   13.21
   5   5   1  131.68   14.92
  -5  -5  -1  134.99   15.79
   5   5   1  156.13   17.16
   5   5   2    2.22    4.69
   5   5   2    3.88    3.80
  -5  -5  -2    0.89    6.17
   5   5   2   -2.49    3.10
  -5  -5  -2    6.13    5.17
  -5  -5  -3  243.88   22.98
   5   5   3  219.53   18.03
   5   5   3  196.70   20.39
  -5  -5  -4  493.81   31.95
   5   5   4  547.11   28.51
   5   5   4  571.91   34.43
   5   5   5  586.41   30.06
   5   5   5  635.83   36.92
   5   5   6   42.56    8.55
   5   5   7    2.24    1.84
   5   5   8    6.44    4.28
  -5  -5  -9   25.37    6.10
   5   5   9   20.29    4.91
  -5  -5 -10   17.00    4.25
   5   5  10   10.53    3.65
  -5  -5 -11  229.00   13.67
   5   5  11  209.05   11.32
   5   5  11  208.24   14.19
  -5  -5 -12   96.34    7.20
  -5  -5 -12   22.06    3.39
   5   6  -7    1.59    1.75
   5   6  -7   -3.38    2.66
  -5  -6   7    1.75    1.13
   5   6  -7    5.66    2.47
   5   6  -6  132.27   10.05
   5   6  -6  142.87   14.97
  -5  -6   6  135.61    9.96
   5   6  -6  138.67   13.14
   5   6  -5   88.60    9.29
   5   6  -5   78.30   12.78
  -5  -6   5   73.60    8.26
   5   6  -5   80.53   11.43
   5   6  -4  227.81   15.79
   5   6  -4  205.80   22.00
  -5  -6   4  190.69   14.03
   5   6  -4  204.82   18.55
   5   6  -4  197.69   16.10
   5   6  -3  103.70   11.09
   5   6  -3   94.43   16.10
  -5  -6   3   91.63   10.17
   5   6  -3  123.28   14.83
   5   6  -3  106.02   12.83
   5   6  -2   10.62    3.92
   5   6  -2   11.28    7.73
  -5  -6   2   12.90    3.90
   5   6  -2   -0.66    5.66
  -5  -6   2    8.47    4.25
   5   6  -2   11.81    5.72
   5   6  -1  450.62   23.69
   5   6  -1  439.91   28.50
  -5  -6   1  426.79   26.92
   5   6  -1  493.84   28.43
   5   6   0  263.65   18.04
   5   6   0  257.96   21.68
  -5  -6   0  224.95   20.41
   5   6   0  266.12   21.34
   5   6   1   86.66   10.42
   5   6   1   89.68   11.25
   5   6   1   91.48   13.04
  -5  -6  -1   63.89   11.22
   5   6   1   94.66   14.25
   5   6   2    9.04    6.34
   5   6   2    7.53    4.56
   5   6   2    5.86    1.13
  -5  -6  -2    3.73    3.66
   5   6   3   34.55    9.44
   5   6   3   42.33    8.60
   5   6   3   41.47    8.50
  -5  -6  -3   44.12    9.29
   5   6   4  625.30   30.64
   5   6   4  515.66   29.23
   5   6   4  421.36   29.92
   5   6   5  207.98   17.90
   5   6   5  164.14   16.15
   5   6   5  208.16   21.64
   5   6   6   28.93    9.94
   5   6   6    4.94    2.97
   5   6   7    5.15    3.36
   5   6   8  165.57   14.55
  -5  -6  -9   14.69    5.28
   5   6   9   19.45    4.56
  -5  -6 -10   18.18    4.17
   5   6  10   18.80    4.54
  -5  -6 -11  132.92    9.93
   5   6  11  124.07    8.29
   5   6  11  145.72   12.34
  -5  -6 -12   46.02    4.82
   5   7  -6   24.29    4.48
   5   7  -6   37.50    5.01
   5   7  -5    6.60    2.52
   5   7  -5    6.19    4.01
  -5  -7   5    9.33    2.46
   5   7  -5    9.92    4.07
   5   7  -4   29.63    5.09
   5   7  -4   33.99    9.56
  -5  -7   4   25.91    4.79
   5   7  -4   34.32    7.43
   5   7  -3  144.31   17.74
  -5  -7   3  133.41   11.28
   5   7  -3  136.31   11.23
   5   7  -3  136.16   14.91
   5   7  -2  312.64   17.85
   5   7  -2  320.34   27.26
  -5  -7   2  287.60   17.04
   5   7  -2  308.81   22.32
  -5  -7   2  262.14   18.76
   5   7  -2  291.16   18.93
   5   7  -1   68.66    8.47
  -5  -7   1   59.49    8.35
   5   7  -1   57.63   10.84
  -5  -7   1   61.31   10.35
   5   7  -1   64.05    9.49
   5   7   0   12.06    4.05
  -5  -7   0   14.86    3.97
   5   7   0   15.35    6.66
  -5  -7   0    2.89    2.21
   5   7   0   17.68    6.37
   5   7   1   67.64    8.92
   5   7   1   62.64   11.40
  -5  -7  -1   66.40   10.96
   5   7   1   82.10   12.06
   5   7   2   -3.12    3.05
   5   7   2   -1.28    3.15
   5   7   2   -0.11    2.29
  -5  -7  -2    2.04    3.43
   5   7   3  625.22   30.45
   5   7   3  564.71   31.09
  -5  -7  -3  539.02   32.13
   5   7   3  628.18   33.71
   5   7   4  229.73   18.17
   5   7   4  216.30   19.15
   5   7   4  212.78   20.35
   5   7   5  492.45   26.55
   5   7   5  496.22   28.67
   5   7   5  419.29   29.15
   5   7   6   -4.57    4.25
  -5  -7  -6    1.25    2.85
   5   7   6    9.99    4.36
   5   7   6    2.79    4.00
   5   7   7    7.16    5.63
  -5  -7  -7    6.34    3.14
   5   7   7   11.31    4.51
   5   7   7    4.70    3.22
   5   7   8   15.39    6.46
  -5  -7  -8    0.97    2.42
  -5  -7  -8   -0.15    2.16
   5   7   8   -1.24    2.61
   5   7   9   13.87    7.51
  -5  -7  -9    0.51    1.59
   5   7   9    3.70    2.65
  -5  -7 -10  218.90   12.76
   5   7  10  201.60   12.42
   5   7  10  266.91   18.50
   5   7  11   14.07    4.22
  -5  -7 -11    5.92    2.20
   5   8  -4   49.96    7.71
  -5  -8   4   49.89    4.99
   5   8  -4   53.06    6.66
   5   8  -3  124.67   13.81
  -5  -8   3  118.91    8.77
   5   8  -3  147.28   12.72
   5   8  -2  168.80   17.27
  -5  -8   2  167.07   11.50
   5   8  -2  185.40   15.75
  -5  -8   2  153.40   12.41
  -5  -8   1    2.83    1.71
   5   8  -1    2.17    3.20
  -5  -8   1   -2.84    2.82
  -5  -8   0   34.26    5.73
   5   8   0   41.68    8.60
  -5  -8   0   31.52    7.19
  -5  -8  -1    2.64    2.71
   5   8   1    8.11    3.69
  -5  -8  -1    5.62    3.50
   5   8   1    4.95    3.59
   5   8   2    2.60    2.30
   5   8   2   -2.84    3.37
   5   8   2   12.67    5.14
  -5  -8  -2    8.69    5.17
   5   8   3   11.62    5.23
   5   8   3   11.07    4.10
   5   8   3   13.12    5.85
  -5  -8  -3   14.01    5.36
   5   8   4  281.32   18.77
   5   8   4  322.14   22.46
   5   8   4  332.70   22.44
   5   8   5  460.74   24.19
   5   8   5  449.57   26.20
   5   8   5  502.91   28.13
  -5  -8  -6  388.51   21.77
   5   8   6  474.64   23.94
   5   8   6  444.51   24.84
   5   8   6  393.13   25.08
  -5  -8  -7   64.89    8.58
   5   8   7   81.78    9.82
   5   8   7   62.59    9.51
   5   8   7   60.46    9.94
   5   8   8    1.38    3.96
  -5  -8  -8    3.94    2.65
   5   8   8    8.86    3.87
   5   8   8    3.85    2.80
   5   8   9   -5.95    4.22
  -5  -8  -9   -0.40    1.34
   5   8   9    0.17    1.90
   5   8  10    0.62    7.81
   5   8  10   -1.40    1.80
   5   9  -2  147.69   12.12
   5   9  -2  181.06   11.53
   5   9  -1   14.11    4.72
  -5  -9   1   13.82    2.99
   5   9  -1   19.34    4.79
  -5  -9   1   11.40    3.18
   5   9   0    0.82    2.79
  -5  -9   0    0.87    1.10
   5   9   0    3.12    3.57
  -5  -9   0    0.37    2.17
  -5  -9  -1   28.86    4.63
   5   9   1   35.86    6.77
  -5  -9  -1   22.26    5.52
  -5  -9  -2    1.57    1.68
   5   9   2    3.42    2.67
   5   9   2    7.27    4.51
  -5  -9  -2    5.93    2.86
   5   9   3  249.07   14.95
   5   9   3  233.48   17.43
   5   9   4  276.42   16.32
   5   9   4  260.56   18.27
  -5  -9  -5   38.91    6.28
   5   9   5   71.83    8.39
   5   9   5   57.09    8.83
   5   9   5   55.87    7.36
   5   9   6   13.12    4.71
  -5  -9  -6    7.42    3.50
   5   9   6   16.41    4.55
   5   9   6    7.06    3.84
   5   9   7    3.60    2.39
  -5  -9  -7    2.90    1.73
   5   9   7    4.01    2.66
   5   9   7    0.03    2.74
   5   9   8   -0.25    1.77
  -5  -9  -8   -0.80    1.04
   5   9   8    2.39    2.00
   5   9   8    5.69    2.54
   5   9   9    0.94    1.60
   5   9   9    3.41    1.93
   5  10   2    6.77    3.00
  -5 -10  -3   97.84    8.03
   5  10   3  184.30   12.23
  -5 -10  -4   54.36    6.08
   5  10   4   64.12    5.95
   5  10   4   89.06    8.66
  -5 -10  -5   14.63    3.44
   5  10   5   23.74    3.71
   5  10   5   20.58    4.57
  -5 -10  -6    6.65    1.89
   5  10   6    2.75    1.77
   5  10   6    6.15    2.06
   5  10   7   10.09    2.49
  -6   5   3   35.06    4.95
   6  -5  -3   22.41    4.64
  -6   5   2   17.06    3.93
   6  -4  -6   56.97    6.98
   6  -4  -5   52.09    7.36
   6  -4  -5   60.65    7.47
   6  -4  -4  143.85   13.26
   6  -4  -4  117.16    9.84
   6  -4  -3   15.17    5.97
   6  -4  -2   89.05   11.66
   6  -4  -1    6.33    2.98
   6  -4  -1   -1.40    3.58
  -6   4   0    5.81    3.74
   6  -4   0    2.03    1.54
   6  -4   0    4.20    2.32
  -6   4  -1  157.07   12.26
   6  -4   1  143.98   10.81
   6  -4   1  133.48   11.50
  -6   4  -2   51.99    6.65
   6  -4   2   45.18    5.49
   6  -3  -8   20.11    4.70
   6  -3  -7    5.50    3.04
   6  -3  -6  139.68   13.20
   6  -3  -6    4.84    3.50
   6  -3  -5  600.99   28.58
   6  -3  -5  634.02   29.13
   6  -3  -4   21.99    7.03
   6  -3  -4   38.69    7.83
   6  -3  -3   71.19   11.69
   6  -3  -3   63.71    9.56
   6  -3  -2   43.14    9.57
   6  -3  -2   46.24    8.50
   6  -3  -1    7.78    3.99
   6  -3  -1    0.81    3.16
   6  -3   0    8.47    3.52
   6  -3   0    6.56    5.08
  -6   3  -1   71.46   10.13
   6  -3   1   45.51    7.35
   6  -3   1   67.31   10.81
  -6   3  -2  187.65   15.57
   6  -3   2  154.61   12.50
   6  -3   2  140.59   13.96
  -6   3  -3   92.09   10.33
   6  -3   3  100.03    9.73
   6  -3   3   90.13    9.49
  -6   3  -4   48.27    6.80
   6  -3   4   42.98    6.23
   6  -3   5   30.63    4.18
   6  -3   5   20.20    3.35
   6  -2  -8   11.77    3.26
   6  -2  -8   20.52    5.13
   6  -2  -7   71.03    8.52
   6  -2  -7   79.08   10.01
   6  -2  -6   81.68   11.67
   6  -2  -5   97.56   10.61
   6  -2  -5   68.62   10.50
   6  -2  -5   97.40   13.35
   6  -2  -4  671.49   30.41
   6  -2  -4  575.24   33.05
   6  -2  -4  741.87   35.77
   6  -2  -3  364.63   24.00
   6  -2  -3  375.31   28.19
   6  -2  -3  373.62   19.79
   6  -2  -3  392.22   26.62
   6  -2  -2  205.43   18.60
   6  -2  -2  187.96   20.95
   6  -2  -2  201.86   15.55
   6  -2  -2  202.04   19.08
   6  -2  -1   28.43    7.39
   6  -2  -1   21.58    6.33
   6  -2  -1   23.45    6.61
   6  -2   0   57.00   10.16
   6  -2   0   37.98    6.95
   6  -2   0   44.62    8.23
   6  -2   0   31.04    7.79
   6  -2   1    9.53    4.24
   6  -2   1   14.08    4.43
   6  -2   1    7.55    3.94
   6  -2   1   -0.17    3.32
  -6   2  -2  114.18   13.55
   6  -2   2   95.34   11.10
   6  -2   2  125.33   12.31
  -6   2  -3  297.09   20.38
   6  -2   3  284.21   18.63
   6  -2   3  217.99   19.20
  -6   2  -4  152.77   13.82
   6  -2   4  191.12   14.58
   6  -2   4  137.35   12.74
  -6   2  -5   21.36    4.57
   6  -2   5   20.34    4.91
   6  -2   5    4.15    1.95
   6  -2   6   15.42    3.59
   6  -1  -9   63.66    6.96
   6  -1  -8   26.28    5.53
   6  -1  -8   24.60    5.32
   6  -1  -8   24.53    4.84
   6  -1  -7    1.20    1.73
   6  -1  -7   -1.68    2.34
   6  -1  -7   -3.40    2.90
   6  -1  -6   99.54   10.50
   6  -1  -6  119.97   13.67
   6  -1  -6  113.04   13.79
   6  -1  -6  101.39   11.59
   6  -1  -5  418.60   23.75
   6  -1  -5  318.29   22.18
   6  -1  -5  479.89   29.74
   6  -1  -4  186.01   17.66
   6  -1  -4  151.74   17.64
   6  -1  -4  178.23   18.69
   6  -1  -3   24.98    7.21
   6  -1  -3   24.80    5.98
   6  -1  -3   28.43    8.71
   6  -1  -2   16.92    5.69
   6  -1  -2   34.65    7.03
   6  -1  -2   28.71    8.78
   6  -1  -1   12.96    5.39
   6  -1  -1   11.36    5.00
   6  -1  -1    9.78    5.30
   6  -1   0   16.46    6.71
   6  -1   0   24.93    6.73
   6  -1   0   17.34    5.67
   6  -1   0   24.85    7.77
   6  -1   1   26.94    7.45
   6  -1   1   17.91    4.85
   6  -1   1   19.20    5.57
   6  -1   1   23.11    7.09
   6  -1   2  707.35   32.59
   6  -1   2  565.85   28.32
   6  -1   2  652.60   29.78
   6  -1   2  624.58   31.95
   6  -1   3  388.68   22.72
  -6   1  -3  321.68   22.31
   6  -1   3  305.67   20.96
   6  -1   3  360.38   21.13
   6  -1   3  368.21   22.67
  -6   1  -4  160.91   15.21
   6  -1   4  175.17   15.45
   6  -1   4  172.04   13.60
   6  -1   4  142.10   12.54
  -6   1  -5    2.74    3.62
   6  -1   5   -0.99    1.98
   6  -1   5   -4.10    2.62
   6  -1   6   42.47    7.06
   6  -1   6   38.94    6.08
   6  -1   7    0.55    1.52
   6  -1   7    0.67    1.80
   6   0  -9   41.52    6.28
   6   0  -9   36.66    5.46
   6   0  -8   35.93    6.81
   6   0  -8   29.13    5.95
   6   0  -8   31.01    6.21
   6   0  -7    8.09    5.09
   6   0  -7    2.36    3.33
   6   0  -7    3.21    2.98
   6   0  -6  203.88   15.27
   6   0  -6  176.95   17.59
   6   0  -6  180.51   17.18
   6   0  -6  202.86   17.52
   6   0  -5  237.94   18.85
   6   0  -5  236.05   20.95
   6   0  -5  219.18   19.90
   6   0  -5  245.55   20.29
   6   0  -4   25.61    8.22
   6   0  -4   31.97    8.86
   6   0  -4   23.50    6.48
   6   0  -3    6.19    6.54
   6   0  -3   20.28    5.79
   6   0  -3   12.02    4.27
   6   0  -3   12.48    6.34
   6   0  -2    5.90    4.48
   6   0  -2    9.93    4.23
   6   0  -2   12.68    5.07
   6   0  -1    1.98    4.62
   6   0  -1   -5.92    5.36
   6   0  -1    1.65    2.10
   6   0   0   59.92   12.34
   6   0   0   55.81   10.90
   6   0   0   57.73    9.74
   6   0   1  106.58   14.76
   6   0   1  107.47   12.54
   6   0   1  109.23   13.12
   6   0   1  138.39   16.80
   6   0   2  465.48   28.12
   6   0   2  528.90   27.74
   6   0   2  477.38   26.32
   6   0   3 1268.22   43.07
   6   0   3 1241.07   57.21
   6   0   3 1223.06   40.86
   6   0   4  328.55   20.06
   6   0   4  326.24   22.11
   6   0   4  328.94   20.21
   6   0   4  314.57   19.80
   6   0   5   14.46    5.30
   6   0   5   11.96    3.65
   6   0   5    7.61    3.66
   6   0   6  127.00   12.91
   6   0   6  114.80   11.56
   6   0   7   48.85    7.50
   6   0   7   52.26    7.35
   6   0   8   84.13    8.06
   6   0   8   96.56    8.49
   6   1  -9   12.39    3.51
   6   1  -9    7.43    2.87
   6   1  -8   15.84    5.22
   6   1  -8   14.08    4.12
   6   1  -7    7.93    5.05
   6   1  -7   11.51    4.79
   6   1  -7    6.85    4.21
   6   1  -6   88.28   10.67
   6   1  -6   72.53   12.24
   6   1  -6   71.76   11.08
   6   1  -6   95.40   12.85
   6   1  -5  359.53   23.43
   6   1  -5  371.04   26.88
   6   1  -5  375.82   24.96
   6   1  -5  375.67   25.68
   6   1  -4  586.09   32.16
   6   1  -4  588.66   33.76
   6   1  -4  602.14   25.77
   6   1  -4  560.65   32.36
   6   1  -4  574.79   32.24
   6   1  -3  324.01   24.96
   6   1  -3  349.20   21.69
   6   1  -3  351.90   26.32
   6   1  -3  350.49   24.86
   6   1  -2    3.52    5.09
   6   1  -2   -0.17    4.79
   6   1  -2    4.66    3.64
   6   1  -2    5.43    4.73
   6   1  -1  140.93   17.89
   6   1  -1  143.41   15.19
   6   1  -1  156.96   17.75
   6   1  -1  164.36   16.35
   6   1   0    4.17    4.47
   6   1   0    4.06    2.76
   6   1   0    5.46    2.91
   6   1   1   51.62   10.27
   6   1   1   55.80    9.17
   6   1   1   62.35    9.78
   6   1   2  232.61   20.52
   6   1   2  259.13   19.44
   6   1   2  253.94   19.69
   6   1   3  182.97   17.15
   6   1   3  187.22   16.87
   6   1   3  154.30   15.68
   6   1   4  102.77   11.95
   6   1   4   99.87   12.78
   6   1   4  103.19   11.71
   6   1   5    5.05    4.11
   6   1   5   -2.11    3.21
   6   1   6   17.65    5.00
   6   1   6   14.83    3.79
   6   1   7    3.74    2.45
   6   1   7    3.02    3.48
   6   1   8   19.50    4.81
   6   1   8   22.82    4.84
   6   1   9   68.39    6.74
   6   1   9   71.75    7.02
   6   2  -9    7.35    2.82
   6   2  -9    0.90    1.34
   6   2  -8   -0.07    2.98
   6   2  -8    0.07    1.38
   6   2  -8   -0.16    1.20
   6   2  -7   -2.37    4.42
   6   2  -7    5.71    3.05
   6   2  -7    7.02    3.82
   6   2  -6   13.12    4.35
   6   2  -6   20.12    3.89
   6   2  -6   25.38    7.04
   6   2  -6   28.53    7.86
   6   2  -5  127.09   15.19
   6   2  -5  143.46   11.61
   6   2  -5  142.11   17.04
   6   2  -5  149.49   14.99
   6   2  -5  154.14   16.80
   6   2  -4  817.79   38.09
   6   2  -4  886.82   29.69
   6   2  -4  830.63   41.71
   6   2  -4  862.39   37.99
   6   2  -4  899.25   40.33
   6   2  -3  131.93   16.88
   6   2  -3  177.77   14.04
   6   2  -3  164.77   18.53
   6   2  -3  164.73   17.59
   6   2  -3  166.96   17.59
   6   2  -2   11.10    6.02
   6   2  -2    6.96    4.95
   6   2  -1   94.88   13.90
   6   2  -1   84.60   12.51
   6   2   0    3.46    4.56
   6   2   0    7.63    4.71
   6   2   1    2.32    3.21
   6   2   1    2.24    4.36
   6   2   1    3.92    3.88
   6   2   2  291.14   23.28
   6   2   2  357.28   22.38
   6   2   2  356.94   23.42
   6   2   3  269.24   21.16
   6   2   3  316.41   21.62
   6   2   3  305.60   21.01
   6   2   3  333.93   22.22
   6   2   4  197.88   17.12
   6   2   4  191.04   17.30
   6   2   4  178.18   15.75
   6   2   5   -2.26    2.34
   6   2   5   -1.51    1.86
   6   2   6    7.47    4.26
   6   2   6    3.82    2.48
   6   2   7    3.04    2.95
  -6  -2  -8    2.72    1.65
   6   2   8    4.98    3.31
  -6  -2  -9   92.97    7.06
   6   2   9  101.21    9.09
   6   2   9  105.92    9.55
   6   2  10  161.59    9.31
   6   3  -8   16.20    4.27
   6   3  -8   13.50    3.56
   6   3  -8   19.63    4.20
   6   3  -7    3.41    1.91
   6   3  -7    8.96    4.78
   6   3  -7    1.69    1.34
   6   3  -7    6.57    3.90
   6   3  -6   71.80    8.14
   6   3  -6   67.99   11.69
   6   3  -6   67.24    9.60
   6   3  -6   87.40   11.73
   6   3  -5  415.82   24.30
   6   3  -5  438.07   20.75
   6   3  -5  474.62   30.92
   6   3  -5  401.73   24.06
   6   3  -5  507.98   29.36
   6   3  -4  268.58   17.02
   6   3  -4  250.32   24.03
   6   3  -4  212.40   17.83
   6   3  -4  247.54   18.97
   6   3  -4  243.54   20.98
   6   3  -3  161.87   13.91
   6   3  -3  122.63   17.06
   6   3  -3  158.55   16.20
   6   3  -3  151.17   16.62
   6   3  -2    4.94    5.49
   6   3  -2    8.01    3.85
   6   3  -2    3.50    4.48
   6   3  -1  109.77   14.74
   6   3  -1   94.28   13.04
   6   3   0    8.45    4.68
   6   3   1  327.58   24.25
   6   3   2 1399.24   43.26
   6   3   2 1285.54   47.24
   6   3   3 1174.17   45.01
   6   3   3 1382.84   44.53
   6   3   3 1310.46   47.17
   6   3   4   90.85   11.82
   6   3   4   78.36   11.03
   6   3   4   71.61   11.08
   6   3   5   50.76    9.25
   6   3   5   40.38    7.94
   6   3   5   35.01    6.46
   6   3   6   72.51   10.19
   6   3   6   71.29    8.81
   6   3   6   99.95   11.73
   6   3   7    2.72    3.29
   6   3   8    1.42    2.61
  -6  -3  -9   45.89    5.96
   6   3   9   49.48    6.80
  -6  -3 -10  160.58    8.80
   6   3  10  178.55   10.04
   6   3  10  181.16   10.83
   6   4  -7    3.88    1.56
   6   4  -7    7.37    3.51
   6   4  -7    3.57    2.72
   6   4  -7    0.27    1.65
   6   4  -6   77.21    7.69
   6   4  -6   77.30   11.71
   6   4  -6   81.58   10.04
   6   4  -6   84.32   10.77
   6   4  -5   53.19    6.98
   6   4  -5   39.39    9.31
   6   4  -5   45.62    7.94
   6   4  -5   45.01    8.77
   6   4  -4  460.67   22.28
   6   4  -4  459.60   30.87
   6   4  -4  451.17   26.52
   6   4  -4  476.52   28.19
   6   4  -3  317.22   19.16
   6   4  -3  334.23   27.07
   6   4  -3  306.06   21.99
   6   4  -3  331.17   24.20
   6   4  -2    0.29    2.57
   6   4  -2    4.29    3.27
   6   4  -2   -6.76    3.56
   6   4  -2   -0.11    3.69
   6   4  -2    5.32    3.26
   6   4  -1   38.64    9.26
   6   4  -1   38.28    7.30
   6   4  -1   39.97    9.84
   6   4   0  356.04   25.35
   6   4   1  440.59   28.22
   6   4   2  235.49   17.88
   6   4   2  235.21   20.88
   6   4   3  897.03   35.44
   6   4   3  793.15   38.22
   6   4   4  234.56   19.19
   6   4   4  238.31   18.68
   6   4   4  207.60   20.03
   6   4   5   -1.09    3.36
   6   4   5   -1.77    4.54
   6   4   6   17.75    7.20
   6   4   6   16.91    5.32
   6   4   6   16.34    4.55
   6   4   7   41.16    7.90
   6   4   7   41.63    7.86
   6   4   8   35.33    6.50
   6   4   8   36.70    6.68
  -6  -4  -9   84.49    9.02
   6   4   9   79.16    8.54
  -6  -4 -10  172.97   10.57
   6   4  10  162.08    9.98
   6   5  -7   -0.07    1.65
   6   5  -6   15.17    3.37
   6   5  -6   11.41    4.23
   6   5  -6    6.76    2.93
   6   5  -6   12.42    3.26
   6   5  -5  437.75   19.14
   6   5  -5  380.10   24.52
   6   5  -5  352.06   20.42
   6   5  -5  371.46   21.01
   6   5  -4  117.89   10.97
   6   5  -4  101.59   14.48
   6   5  -4  108.10   12.88
   6   5  -4   98.63   12.14
   6   5  -3   53.15    7.80
   6   5  -3   45.57   10.03
   6   5  -3   59.01    9.40
   6   5  -3   57.54   10.01
   6   5  -2   45.83    7.74
   6   5  -2   39.44    9.79
   6   5  -2   37.26    8.09
   6   5  -2   40.18    8.65
   6   5  -1    5.35    3.89
   6   5  -1    6.35    4.14
   6   5  -1    0.09    0.92
   6   5  -1    4.44    4.76
   6   5   0   74.94   11.62
   6   5   1   46.90    9.95
   6   5   2   65.08    9.67
   6   5   2   66.25   11.58
   6   5   3   47.19   10.93
   6   5   3   41.94    8.81
   6   5   4  248.35   18.87
   6   5   4  238.89   21.56
   6   5   5   58.51   11.02
   6   5   5   66.55   10.35
   6   5   6    7.35    3.82
   6   5   6   -0.72    3.30
   6   5   7   -5.81    5.51
   6   5   7    2.28    3.35
   6   5   8    5.04    4.99
   6   5   8   14.14    4.22
  -6  -5  -9  118.27   10.48
   6   5   9  116.32   10.11
   6   5   9  115.84   10.78
  -6  -5 -10  421.90   16.68
   6   5  10  434.08   16.13
   6   6  -5  319.33   13.97
   6   6  -5  335.55   19.68
   6   6  -5  294.92   16.40
   6   6  -5  194.64   11.53
   6   6  -4  581.52   21.66
   6   6  -4  596.21   29.91
   6   6  -4  526.86   24.79
   6   6  -4  549.80   23.90
   6   6  -3  109.92   10.41
   6   6  -3   93.09   13.33
   6   6  -3  107.19   12.11
   6   6  -3  100.43   11.45
   6   6  -2   35.83    8.32
   6   6  -2   29.83    8.23
   6   6  -2   26.63    7.03
   6   6  -2   41.32    8.02
   6   6  -1   42.23    7.18
   6   6  -1   45.72   10.74
   6   6  -1   38.20    7.76
   6   6  -1   34.13    8.74
   6   6   0   28.04    6.38
   6   6   0   30.96    7.84
   6   6   1  100.81   12.32
   6   6   1  121.18   14.45
   6   6   2  493.21   23.80
   6   6   2  572.15   31.45
   6   6   3  536.88   25.89
   6   6   3  618.66   33.08
   6   6   4  272.67   18.96
   6   6   4  323.32   24.35
   6   6   5    1.62    4.46
   6   6   5   -1.29    3.07
   6   6   6   -4.60    5.31
   6   6   6    0.34    3.84
   6   6   7  206.04   15.32
   6   6   7  188.09   18.20
   6   6   8    0.61    1.65
   6   6   8    1.07    2.54
  -6  -6  -9  134.01   10.29
   6   6   9  118.73    9.82
   6   6   9  108.31   11.16
  -6  -6 -10  169.29    9.95
   6   6  10  172.00    9.63
   6   6  10  141.51    9.79
   6   7  -4  213.48   14.49
   6   7  -4  221.95   13.28
   6   7  -3  170.70   15.10
   6   7  -3  170.09   13.07
   6   7  -3    2.24    2.05
   6   7  -2   30.40    7.33
   6   7  -2   22.07    5.50
   6   7  -2   26.39    5.98
   6   7  -1   19.56    5.80
   6   7  -1   17.52    5.67
   6   7  -1   16.50    4.75
   6   7   0   -0.71    2.26
   6   7   0   -0.32    2.68
   6   7   0    6.42    3.74
   6   7   1  198.48   16.69
   6   7   1  219.31   17.54
   6   7   2  267.02   15.96
   6   7   2  260.65   19.01
   6   7   2  317.67   21.75
   6   7   3  156.75   13.22
   6   7   3  139.71   13.31
   6   7   3  157.56   15.66
   6   7   4  218.69   15.85
   6   7   4  250.34   20.23
   6   7   5  145.68   12.96
   6   7   5  159.62   16.04
   6   7   6   32.62    7.32
   6   7   6   31.06    6.46
   6   7   7   76.97    8.91
   6   7   7   81.99   11.45
  -6  -7  -8  125.10    9.61
   6   7   8  127.59   10.59
   6   7   8  144.00   13.23
   6   7   9   30.98    5.78
  -6  -7  -9   29.31    4.50
   6   7   9   28.07    4.53
   6   8  -2    1.00    2.34
   6   8  -2    1.30    2.28
   6   8  -1    6.87    2.82
   6   8  -1    8.19    4.13
   6   8   0    0.92    1.52
   6   8   0    5.76    3.34
   6   8   0    1.18    1.59
   6   8   1    2.35    2.35
   6   8   1    0.43    3.29
   6   8   2   44.58    7.63
   6   8   2   52.47    8.09
   6   8   3  364.40   17.15
   6   8   3  360.03   19.90
   6   8   3  418.65   21.70
  -6  -8  -4  116.10    9.79
   6   8   4  175.61   12.54
   6   8   4  169.57   13.07
   6   8   4  184.80   14.70
   6   8   5   11.18    4.67
   6   8   5   10.56    3.39
   6   8   6    3.49    3.77
   6   8   6    4.05    2.84
   6   8   7   -0.19    2.81
   6   8   7    3.45    2.20
   6   8   8   95.29    7.92
   6   8   8  105.17    9.86
   6   8   9  142.52    8.09
   6   8   9  106.79    8.17
   6   9   1    2.42    2.18
   6   9   2  148.72   10.53
  -6  -9  -3   44.59    5.01
   6   9   3  101.68    8.70
   6   9   4   87.50    6.83
   6   9   4  107.21    8.87
   6   9   5    9.20    2.43
   6   9   5    7.08    2.66
   6   9   6   -1.73    1.41
   6   9   7   -2.03    1.13
   7  -2  -5  268.16   13.64
   7  -2  -4   11.19    3.39
   7  -2  -3    7.55    4.03
   7  -2  -3    8.39    3.64
   7  -2  -2    3.60    3.24
   7  -2  -2    6.59    1.22
   7  -2  -1   50.44    8.42
   7  -2  -1   46.30    8.41
  -7   2   0  174.04   11.20
   7  -2   0  207.71   16.00
   7  -2   1  108.71   11.10
   7  -2   2   31.61    5.50
   7  -1  -6  227.62   12.87
   7  -1  -5   50.11    7.32
   7  -1  -4    3.99    2.91
   7  -1  -4    2.86    4.22
   7  -1  -4    3.37    3.36
   7  -1  -3    2.74    2.67
   7  -1  -3    4.06    3.48
   7  -1  -3   -0.78    3.18
   7  -1  -2   57.99    8.31
   7  -1  -2   37.76    5.79
   7  -1  -2   39.25    8.16
   7  -1  -2   44.01    8.26
   7  -1  -1   97.37   10.91
   7  -1  -1   52.59    9.96
   7  -1  -1   72.34    7.94
   7  -1  -1   83.27   10.68
   7  -1   0   90.65   10.22
   7  -1   0   69.62   11.55
   7  -1   0   81.28    8.77
   7  -1   0   77.91    9.72
   7  -1   1   81.58   11.59
   7  -1   1   86.15    8.94
   7  -1   1   87.37    9.66
   7  -1   2   54.72    6.17
   7  -1   2   55.28    9.24
   7  -1   2   69.51    7.65
   7  -1   3    5.75    3.01
   7  -1   3   -1.22    1.43
   7  -1   4    2.85    1.92
   7   0  -6  169.61   11.79
   7   0  -5  186.54   11.40
   7   0  -5  195.39   14.45
   7   0  -4   22.71    5.38
   7   0  -4   21.12    5.98
   7   0  -3   40.80    7.61
   7   0  -3   42.71    6.10
   7   0  -3   64.92   10.04
   7   0  -3   29.47    6.51
   7   0  -2  164.07   14.69
   7   0  -2  140.30   11.54
   7   0  -2  160.05   15.98
   7   0  -1    2.80    3.61
   7   0  -1    3.81    2.50
   7   0  -1    1.77    3.60
   7   0   0  263.28   18.74
   7   0   0  251.77   16.54
   7   0   0  236.37   18.83
   7   0   1  325.69   20.15
   7   0   1  357.80   19.62
   7   0   1  343.49   21.84
   7   0   2  128.67   11.98
   7   0   2   75.36    8.71
   7   0   2  127.57   11.54
   7   0   2  124.56   12.64
   7   0   3   52.08    7.41
   7   0   3   76.22    8.42
   7   0   3   70.57    8.91
   7   0   4   37.97    5.98
   7   0   4   34.56    5.12
   7   0   5   28.49    5.03
   7   0   5   12.95    3.27
   7   0   6    2.42    2.00
   7   1  -6  117.72    9.08
   7   1  -6  106.87    8.97
   7   1  -5  119.83    9.91
   7   1  -5  128.17   11.84
   7   1  -5  115.31   10.57
   7   1  -4    3.75    3.79
   7   1  -4    7.88    4.72
   7   1  -4    0.03    0.32
   7   1  -3    5.53    3.30
   7   1  -3    4.33    2.46
   7   1  -3   -0.65    3.65
   7   1  -3    4.15    2.66
   7   1  -2   22.12    6.17
   7   1  -2   11.58    3.87
   7   1  -2   21.55    7.31
   7   1  -1  119.78   13.85
   7   1  -1  111.60   11.48
   7   1  -1  120.13   14.29
   7   1   0   90.76   11.96
   7   1   0   78.12   10.13
   7   1   0   93.28   12.64
   7   1   1  141.75   14.51
   7   1   1  153.02   14.24
   7   1   1  160.69   16.12
   7   1   2   75.86   10.16
   7   1   2   69.73    8.76
   7   1   2   82.66    9.85
   7   1   2   89.39   12.41
   7   1   3  103.19   10.36
   7   1   3   84.66    9.71
   7   1   3  111.56   10.78
   7   1   3   95.08   11.71
   7   1   4   12.39    4.31
   7   1   4   10.59    4.09
   7   1   4   10.49    3.59
   7   1   5   -3.16    2.51
   7   1   5    1.47    2.49
   7   1   5    4.57    1.97
   7   1   5    2.53    2.05
   7   1   6   -1.71    2.14
   7   1   6    2.68    1.49
   7   1   7   13.09    3.15
   7   2  -6  144.18   11.12
   7   2  -5   59.76    7.25
   7   2  -5   65.64    7.79
   7   2  -5   66.03    9.02
   7   2  -4    0.74    3.68
   7   2  -4   -8.41    4.20
   7   2  -4    2.57    2.35
   7   2  -3    7.62    4.97
   7   2  -3    2.36    2.30
   7   2  -3    6.67    5.36
   7   2  -3   -0.24    2.68
   7   2  -2   58.65   10.46
   7   2  -2   58.64    8.01
   7   2  -2   71.66   10.86
   7   2  -2   66.14    9.36
   7   2  -1   19.87    6.35
   7   2  -1   22.78    6.21
   7   2  -1   26.01    6.53
   7   2  -1   25.26    6.60
   7   2   0  115.26   14.09
   7   2   0  126.62   12.90
   7   2   0  129.77   15.57
   7   2   0  112.17   12.11
   7   2   1  175.11   16.45
   7   2   1  182.48   15.60
   7   2   1  190.65   18.51
   7   2   2   76.26   10.79
   7   2   2   88.16    9.66
   7   2   2   85.35   10.67
   7   2   2  101.30   13.16
   7   2   3    7.16    2.93
   7   2   3   10.96    4.44
   7   2   3   24.14    5.55
   7   2   4   85.31    9.81
   7   2   4   97.99    9.83
   7   2   5   99.78   10.31
   7   2   5   94.85    8.76
   7   2   6   29.38    5.32
   7   2   6   26.61    5.20
   7   2   6   18.83    3.19
   7   2   6   21.26    4.02
   7   2   7   58.17    6.69
   7   2   7   57.43    6.27
   7   3  -6   94.70    8.70
   7   3  -5   11.75    3.59
   7   3  -5   19.18    5.09
   7   3  -4   -0.93    3.07
   7   3  -4   -2.45    3.58
   7   3  -3   53.51    8.79
   7   3  -3   50.12    6.73
   7   3  -3   55.54    8.82
   7   3  -3   38.66    7.25
   7   3  -2    4.65    3.34
   7   3  -2    1.67    2.94
   7   3  -2   -2.70    2.06
   7   3  -2    3.17    2.88
   7   3  -1   17.71    6.06
   7   3  -1   17.05    5.19
   7   3  -1   24.59    5.92
   7   3  -1   25.28    6.95
   7   3   0  170.23   17.21
   7   3   0  155.37   14.27
   7   3   0  172.29   16.78
   7   3   0  167.50   15.45
   7   3   1   86.93   12.27
   7   3   1   94.59   11.31
   7   3   1  114.93   14.26
   7   3   1   95.78   11.68
   7   3   2  377.88   23.42
   7   3   2  368.04   19.04
   7   3   2  403.43   22.58
   7   3   2  398.92   22.74
   7   3   3    9.31    3.62
   7   3   3    8.26    3.30
   7   3   3    9.06    4.34
   7   3   3   15.90    4.73
   7   3   4   48.45    7.46
   7   3   4   41.64    7.36
   7   3   4   58.07    7.90
   7   3   5   20.97    5.15
   7   3   5   16.81    4.21
   7   3   6    0.82    2.31
   7   3   6   -3.96    1.23
   7   3   7  129.59   10.22
   7   3   8  107.32    8.00
   7   3   8  102.97    7.43
   7   4  -5   45.52    6.72
   7   4  -4    6.00    3.34
   7   4  -4   11.98    5.20
   7   4  -3   25.26    6.38
   7   4  -3   32.34    4.84
   7   4  -3   19.28    5.88
   7   4  -2   64.48   10.01
   7   4  -2   64.91    8.73
   7   4  -2   74.11   10.55
   7   4  -1   71.77   11.09
   7   4  -1   85.76   11.09
   7   4  -1   85.87   11.17
   7   4   0  170.04   16.72
   7   4   0  162.71   15.66
   7   4   0  195.95   17.04
   7   4   1  100.12   13.07
   7   4   1  110.81   13.24
   7   4   1  121.94   13.13
   7   4   2   60.45    9.56
   7   4   2   53.81    8.90
   7   4   3  406.28   22.95
   7   4   3  400.58   19.96
   7   4   3  451.38   22.86
   7   4   3  420.62   23.59
   7   4   4   -0.99    2.53
   7   4   4   -4.20    3.99
   7   4   4    2.39    2.20
   7   4   4   10.33    3.71
   7   4   5   41.49    6.52
   7   4   5   38.73    6.52
   7   4   5   44.48    6.44
   7   4   6    4.03    2.16
   7   4   6    2.05    1.84
   7   4   7   74.59    7.91
  -7  -4  -8  101.75    7.43
   7   4   8  110.86    8.36
   7   5  -4    3.06    2.35
   7   5  -4   -0.72    2.82
   7   5  -3    5.30    2.69
   7   5  -3    4.52    2.91
   7   5  -2   17.06    4.95
   7   5  -1   34.57    7.03
   7   5   0    9.35    4.79
   7   5   0   14.86    4.05
   7   5   1  325.12   20.14
   7   5   1  355.70   22.03
   7   5   2   94.64   11.54
   7   5   2  127.55   13.28
   7   5   3    2.70    3.92
   7   5   3   -3.32    3.92
   7   5   3    4.79    2.08
   7   5   4   49.71    7.24
   7   5   4   68.36    9.77
   7   5   5   36.04    6.90
   7   5   5   33.07    6.00
   7   5   5   29.82    5.03
   7   5   6   23.83    5.10
   7   5   6   24.83    4.82
   7   5   7  209.12   12.42
   7   5   7  199.85   11.80
  -7  -5  -8  184.06   10.24
   7   5   8  193.56   10.60
   7   6  -3    6.63    2.76
   7   6  -3   -1.50    1.03
   7   6  -2    3.40    1.92
   7   6  -1    0.45    2.70
   7   6   0  462.87   23.25
   7   6   1  239.78   17.20
   7   6   2   49.73    6.98
   7   6   2   54.80    9.02
   7   6   3   34.80    7.02
   7   6   3   28.17    5.70
   7   6   3   31.22    5.42
   7   6   4   29.40    5.41
   7   6   4   41.38    7.21
   7   6   5    3.55    3.14
   7   6   5    3.33    2.18
   7   6   5    3.85    2.03
   7   6   6   60.78    7.06
   7   6   6   52.70    7.46
   7   6   7  109.70    8.60
   7   6   7  117.02    9.43
  -7  -6  -8  229.02   10.26
   7   6   8  206.91   10.13
   7   7  -1   56.43    6.68
   7   7   0   33.26    6.02
   7   7   1  210.15   14.24
   7   7   2  138.49   11.76
   7   7   3   41.91    5.98
   7   7   3   74.29    8.72
   7   7   4    3.18    2.37
   7   7   4    5.98    2.82
   7   7   5   32.46    5.89
   7   7   5   23.37    4.15
   7   7   5   18.88    3.36
  -7  -7  -6   41.76    4.73
   7   7   6   64.36    6.18
   7   7   6   74.57    7.95
   7   7   7   99.96    6.92
   7   7   7   87.62    7.42
   7   8   3    1.66    1.39
   7   8   4   49.49    5.57
   7   8   5   10.47    2.47
   8   1  -1  146.18    9.56
   8   1  -1  133.92   10.03
   8   1   0   56.80    6.04
   8   1   0   51.33    5.05
   8   1   0   48.88    6.37
   8   1   0   18.24    3.91
   8   1   1   40.39    4.59
   8   1   1   20.80    4.62
   8   1   1   32.28    4.83
   8   1   2   26.57    3.62
   8   1   2   11.74    3.51
   8   2  -2   87.27    7.42
   8   2  -2   72.09    7.22
   8   2  -1  192.31   11.85
   8   2  -1  184.18    9.47
   8   2  -1  194.63   12.60
   8   2   0  172.70   11.24
   8   2   0  178.31   10.31
   8   2   0  179.06   12.51
   8   2   1   -0.02    1.80
   8   2   1    1.95    1.92
   8   2   1   -0.46    1.69
   8   2   2   58.41    5.83
   8   2   2   64.81    7.25
   8   2   3   16.47    2.93
   8   2   3   10.85    3.83
   8   3  -2  121.75    8.81
   8   3  -1  501.89   19.22
   8   3  -1  462.60   15.12
   8   3  -1  465.25   18.08
   8   3   0   72.98    7.84
   8   3   0   85.18    7.35
   8   3   0   83.95    8.61
   8   3   1   -0.74    1.37
   8   3   1   -0.97    1.80
   8   3   1   -2.00    3.09
   8   3   2   39.71    4.91
   8   3   2   49.38    5.74
   8   3   2   42.23    6.71
   8   3   3   22.12    3.60
   8   3   3   23.29    4.83
   8   3   4   11.34    3.06
   8   4  -1  308.09   14.39
   8   4   0  249.15   13.48
   8   4   0  249.72   12.06
   8   4   1    2.18    2.21
   8   4   1    3.76    2.14
   8   4   1    2.28    2.58
   8   4   2   -1.32    1.51
   8   4   2   -0.52    1.59
   8   4   2    3.71    3.15
   8   4   3   43.51    4.99
   8   4   3   46.33    6.07
   8   4   4   46.46    5.91
   8   5   1   12.24    2.62
   8   5   2  159.78    9.28
   8   5   3   -0.10    0.71
   0   0   0    0.00    0.00

TITL XPC 39Abs in P-1
REM P-1 (#2 in standard setting)
CELL 1.54184   6.566499   8.838210  11.864076  71.8859  86.2193  73.7623
ZERR    1.00   0.000332   0.000452   0.000529   0.0043   0.0039   0.0045
LATT  1
SFAC C H N O Ni
UNIT 12.00 22.00 4.00 4.00 3.00
TREF
HKLF 4
END
_computing_structure_solution     'SHELXT 2014/5 (Sheldrick, 2014)'
;
_shelx_hkl_checksum              49152
_olex2_submission_original_sample_id 'XPPC 39'
_olex2_submission_special_instructions 'No special instructions were received'
loop_
_space_group_symop_operation_xyz
'x, y, z'
'-x, -y, -z'
loop_
_atom_site_label
_atom_site_type_symbol
_atom_site_fract_x
_atom_site_fract_y
_atom_site_fract_z
_atom_site_U_iso_or_equiv
_atom_site_adp_type
_atom_site_occupancy
_atom_site_site_symmetry_order
_atom_site_calc_flag
_atom_site_refinement_flags_posn
_atom_site_refinement_flags_adp
_atom_site_refinement_flags_occupancy
Ni1 Ni 0.0000 1.0000 0.5000 0.01752(14) Uani 1 2 d S T P
Cl1 Cl -0.26771(7) 0.99781(6) 0.36211(4) 0.02226(13) Uani 1 1 d . . .
O1 O 0.5817(3) 0.6833(2) 0.22541(15) 0.0346(4) Uani 1 1 d . . .
H1 H 0.632(6) 0.618(4) 0.185(3) 0.052 Uiso 1 1 d R . .
O2 O 0.4318(3) 0.48629(19) 0.32485(15) 0.0325(4) Uani 1 1 d . . .
N1 N 0.1176(3) 0.74583(19) 0.55387(14) 0.0190(3) Uani 1 1 d . . .
H1A H 0.2452 0.7177 0.6058 0.023 Uiso 1 1 calc R . .
N2 N 0.2159(3) 1.0353(2) 0.36676(14) 0.0194(3) Uani 1 1 d . . .
H2 H 0.3518 1.0271 0.4047 0.023 Uiso 1 1 calc R . .
C1 C -0.0467(3) 0.6822(2) 0.62996(18) 0.0224(4) Uani 1 1 d . . .
H1B H 0.0157 0.5667 0.6795 0.027 Uiso 1 1 calc R . .
H1C H -0.1625 0.6833 0.5800 0.027 Uiso 1 1 calc R . .
C2 C 0.1842(3) 0.6666(2) 0.45972(17) 0.0216(4) Uani 1 1 d . . .
H2A H 0.0588 0.6840 0.4104 0.026 Uiso 1 1 calc R . .
H2B H 0.2438 0.5460 0.4964 0.026 Uiso 1 1 calc R . .
C3 C 0.3509(3) 0.7375(2) 0.38057(18) 0.0213(4) Uani 1 1 d . . .
H3 H 0.4627 0.7376 0.4338 0.026 Uiso 1 1 calc R . .
C4 C 0.2651(3) 0.9160(2) 0.29856(17) 0.0201(4) Uani 1 1 d . . .
H4A H 0.3720 0.9431 0.2385 0.024 Uiso 1 1 calc R . .
H4B H 0.1351 0.9248 0.2563 0.024 Uiso 1 1 calc R . .
C5 C 0.1346(3) 1.2080(2) 0.29088(18) 0.0224(4) Uani 1 1 d . . .
H5A H 0.0212 1.2159 0.2366 0.027 Uiso 1 1 calc R . .
H5B H 0.2503 1.2451 0.2424 0.027 Uiso 1 1 calc R . .
C6 C 0.4563(3) 0.6222(3) 0.30776(18) 0.0233(4) Uani 1 1 d . . .
O3 O 0.7357(3) 0.49521(19) 0.09461(14) 0.0302(3) Uani 1 1 d . . .
N3 N 0.7408(3) 0.2722(2) 0.03771(16) 0.0277(4) Uani 1 1 d . . .
C7 C 0.6563(5) 0.1326(3) 0.0510(2) 0.0397(6) Uani 1 1 d . . .
H7A H 0.6208 0.1307 -0.0274 0.060 Uiso 1 1 calc GR . .
H7B H 0.5283 0.1432 0.0986 0.060 Uiso 1 1 calc GR . .
H7C H 0.7628 0.0296 0.0908 0.060 Uiso 1 1 calc GR . .
C8 C 0.9104(5) 0.2936(4) -0.0442(3) 0.0550(8) Uani 1 1 d . . .
H8A H 1.0309 0.1944 -0.0214 0.082 Uiso 1 1 calc GR . .
H8B H 0.9547 0.3898 -0.0423 0.082 Uiso 1 1 calc GR . .
H8C H 0.8607 0.3109 -0.1245 0.082 Uiso 1 1 calc GR . .
C9 C 0.6694(3) 0.3742(3) 0.10144(19) 0.0267(4) Uani 1 1 d . . .
H9 H 0.5605 0.3536 0.1560 0.032 Uiso 1 1 calc R . .
loop_
_atom_site_aniso_label
_atom_site_aniso_U_11
_atom_site_aniso_U_22
_atom_site_aniso_U_33
_atom_site_aniso_U_23
_atom_site_aniso_U_13
_atom_site_aniso_U_12
Ni1 0.0157(2) 0.0166(2) 0.0217(2) -0.00787(17) 0.00181(17) -0.00472(17)
Cl1 0.0178(2) 0.0267(2) 0.0253(2) -0.01118(18) 0.00042(16) -0.00718(18)
O1 0.0391(9) 0.0273(8) 0.0436(9) -0.0197(7) 0.0214(7) -0.0135(7)
O2 0.0371(9) 0.0259(8) 0.0415(9) -0.0189(7) 0.0142(7) -0.0129(7)
N1 0.0175(8) 0.0174(7) 0.0228(8) -0.0080(6) 0.0027(6) -0.0041(6)
N2 0.0187(8) 0.0182(8) 0.0229(8) -0.0084(6) 0.0014(6) -0.0051(6)
C1 0.0216(10) 0.0186(9) 0.0283(10) -0.0081(7) 0.0057(8) -0.0074(8)
C2 0.0236(9) 0.0187(9) 0.0254(9) -0.0106(7) 0.0041(7) -0.0066(7)
C3 0.0186(9) 0.0203(9) 0.0266(10) -0.0095(8) 0.0015(7) -0.0052(7)
C4 0.0193(9) 0.0202(9) 0.0229(9) -0.0094(7) 0.0027(7) -0.0060(7)
C5 0.0223(9) 0.0187(9) 0.0257(10) -0.0068(8) 0.0042(7) -0.0056(8)
C6 0.0205(9) 0.0232(10) 0.0269(10) -0.0101(8) 0.0023(7) -0.0046(8)
O3 0.0296(8) 0.0290(8) 0.0347(8) -0.0154(6) 0.0078(6) -0.0076(7)
N3 0.0293(9) 0.0283(9) 0.0276(9) -0.0119(7) 0.0013(7) -0.0075(7)
C7 0.0580(16) 0.0360(13) 0.0316(12) -0.0135(10) 0.0026(11) -0.0199(12)
C8 0.0493(17) 0.078(2) 0.0669(19) -0.0552(18) 0.0319(15) -0.0333(16)
C9 0.0231(10) 0.0289(11) 0.0264(10) -0.0088(8) 0.0013(8) -0.0040(8)
loop_
_atom_type_symbol
_atom_type_description
_atom_type_scat_dispersion_real
_atom_type_scat_dispersion_imag
_atom_type_scat_source
C C 0.0181 0.0091 'International Tables Vol C Tables 4.2.6.8 and 6.1.1.4'
H H 0.0000 0.0000 'International Tables Vol C Tables 4.2.6.8 and 6.1.1.4'
Cl Cl 0.3639 0.7018 'International Tables Vol C Tables 4.2.6.8 and 6.1.1.4'
N N 0.0311 0.0180 'International Tables Vol C Tables 4.2.6.8 and 6.1.1.4'
Ni Ni -3.0029 0.5091 'International Tables Vol C Tables 4.2.6.8 and 6.1.1.4'
O O 0.0492 0.0322 'International Tables Vol C Tables 4.2.6.8 and 6.1.1.4'
loop_
_exptl_crystal_face_index_h
_exptl_crystal_face_index_k
_exptl_crystal_face_index_l
_exptl_crystal_face_perp_dist
_exptl_oxdiff_crystal_face_indexfrac_h
_exptl_oxdiff_crystal_face_indexfrac_k
_exptl_oxdiff_crystal_face_indexfrac_l
_exptl_oxdiff_crystal_face_x
_exptl_oxdiff_crystal_face_y
_exptl_oxdiff_crystal_face_z
0 -1 -5 0.0255 -0.0025 -1.0037 -4.9977 0.1748 0.2407 0.5786
0 1 5 0.0222 0.0025 1.0037 4.9977 -0.1748 -0.2407 -0.5786
-1 0 5 0.0433 -0.9975 0.0040 4.9985 0.0747 -0.2940 -0.6528
1 1 -5 0.0286 0.9975 0.9967 -4.9983 -0.1460 0.4654 0.6087
1 -5 0 0.0489 0.9996 -5.0040 -0.0025 0.1779 -0.9749 0.3389
-1 5 0 0.0603 -0.9996 5.0040 0.0025 -0.1779 0.9749 -0.3389
3 2 5 0.0380 3.0023 2.0017 4.9946 -0.7810 -0.4237 -0.2676
-3 -2 -5 0.0584 -3.0023 -2.0017 -4.9946 0.7810 0.4237 0.2676
loop_
_geom_angle_atom_site_label_1
_geom_angle_atom_site_label_2
_geom_angle_atom_site_label_3
_geom_angle
_geom_angle_site_symmetry_1
_geom_angle_site_symmetry_3
Cl1 Ni1 Cl1 180.0 . 2_576
N1 Ni1 Cl1 86.89(5) . 2_576
N1 Ni1 Cl1 93.11(5) 2_576 2_576
N1 Ni1 Cl1 86.89(5) 2_576 .
N1 Ni1 Cl1 93.11(5) . .
N1 Ni1 N1 180.0 . 2_576
N2 Ni1 Cl1 92.15(5) . .
N2 Ni1 Cl1 87.85(5) 2_576 .
N2 Ni1 Cl1 92.15(5) 2_576 2_576
N2 Ni1 Cl1 87.85(5) . 2_576
N2 Ni1 N1 93.97(6) 2_576 2_576
N2 Ni1 N1 86.03(6) 2_576 .
N2 Ni1 N1 86.03(6) . 2_576
N2 Ni1 N1 93.97(6) . .
N2 Ni1 N2 180.00(7) . 2_576
C6 O1 H1 110(2) . .
Ni1 N1 H1A 107.1 . .
C1 N1 Ni1 105.62(11) . .
C1 N1 H1A 107.1 . .
C2 N1 Ni1 116.81(12) . .
C2 N1 H1A 107.1 . .
C2 N1 C1 112.59(15) . .
Ni1 N2 H2 107.2 . .
C4 N2 Ni1 116.31(11) . .
C4 N2 H2 107.2 . .
C4 N2 C5 112.63(15) . .
C5 N2 Ni1 105.91(11) . .
C5 N2 H2 107.2 . .
N1 C1 H1B 109.9 . .
N1 C1 H1C 109.9 . .
N1 C1 C5 108.79(15) . 2_576
H1B C1 H1C 108.3 . .
C5 C1 H1B 109.9 2_576 .
C5 C1 H1C 109.9 2_576 .
N1 C2 H2A 109.3 . .
N1 C2 H2B 109.3 . .
N1 C2 C3 111.49(15) . .
H2A C2 H2B 108.0 . .
C3 C2 H2A 109.3 . .
C3 C2 H2B 109.3 . .
C2 C3 H3 107.6 . .
C2 C3 C4 114.58(16) . .
C4 C3 H3 107.6 . .
C6 C3 C2 108.99(16) . .
C6 C3 H3 107.6 . .
C6 C3 C4 110.35(16) . .
N2 C4 C3 111.09(15) . .
N2 C4 H4A 109.4 . .
N2 C4 H4B 109.4 . .
C3 C4 H4A 109.4 . .
C3 C4 H4B 109.4 . .
H4A C4 H4B 108.0 . .
N2 C5 C1 108.82(16) . 2_576
N2 C5 H5A 109.9 . .
N2 C5 H5B 109.9 . .
C1 C5 H5A 109.9 2_576 .
C1 C5 H5B 109.9 2_576 .
H5A C5 H5B 108.3 . .
O1 C6 C3 113.56(17) . .
O2 C6 O1 122.66(19) . .
O2 C6 C3 123.77(18) . .
C8 N3 C7 118.2(2) . .
C9 N3 C7 121.10(19) . .
C9 N3 C8 120.7(2) . .
N3 C7 H7A 109.5 . .
N3 C7 H7B 109.5 . .
N3 C7 H7C 109.5 . .
H7A C7 H7B 109.5 . .
H7A C7 H7C 109.5 . .
H7B C7 H7C 109.5 . .
N3 C8 H8A 109.5 . .
N3 C8 H8B 109.5 . .
N3 C8 H8C 109.5 . .
H8A C8 H8B 109.5 . .
H8A C8 H8C 109.5 . .
H8B C8 H8C 109.5 . .
O3 C9 N3 124.2(2) . .
O3 C9 H9 117.9 . .
N3 C9 H9 117.9 . .
loop_
_geom_bond_atom_site_label_1
_geom_bond_atom_site_label_2
_geom_bond_distance
_geom_bond_site_symmetry_2
Ni1 Cl1 2.4870(5) 2_576
Ni1 Cl1 2.4870(5) .
Ni1 N1 2.0623(16) .
Ni1 N1 2.0624(16) 2_576
Ni1 N2 2.0620(16) 2_576
Ni1 N2 2.0620(16) .
O1 H1 0.85(4) .
O1 C6 1.318(3) .
O2 C6 1.209(3) .
N1 H1A 1.0000 .
N1 C1 1.480(2) .
N1 C2 1.476(2) .
N2 H2 1.0000 .
N2 C4 1.475(2) .
N2 C5 1.476(2) .
C1 H1B 0.9900 .
C1 H1C 0.9900 .
C1 C5 1.529(3) 2_576
C2 H2A 0.9900 .
C2 H2B 0.9900 .
C2 C3 1.535(3) .
C3 H3 1.0000 .
C3 C4 1.541(3) .
C3 C6 1.529(3) .
C4 H4A 0.9900 .
C4 H4B 0.9900 .
C5 C1 1.529(3) 2_576
C5 H5A 0.9900 .
C5 H5B 0.9900 .
O3 C9 1.242(3) .
N3 C7 1.451(3) .
N3 C8 1.442(3) .
N3 C9 1.321(3) .
C7 H7A 0.9800 .
C7 H7B 0.9800 .
C7 H7C 0.9800 .
C8 H8A 0.9800 .
C8 H8B 0.9800 .
C8 H8C 0.9800 .
C9 H9 0.9500 .
loop_
_geom_torsion_atom_site_label_1
_geom_torsion_atom_site_label_2
_geom_torsion_atom_site_label_3
_geom_torsion_atom_site_label_4
_geom_torsion
_geom_torsion_site_symmetry_4
Ni1 N1 C1 C5 -41.10(18) 2_576
Ni1 N1 C2 C3 56.3(2) .
Ni1 N2 C4 C3 -57.90(18) .
Ni1 N2 C5 C1 40.52(17) 2_576
N1 C2 C3 C4 -70.9(2) .
N1 C2 C3 C6 164.93(16) .
C1 N1 C2 C3 178.77(16) .
C2 N1 C1 C5 -169.68(16) 2_576
C2 C3 C4 N2 71.9(2) .
C2 C3 C6 O1 171.37(18) .
C2 C3 C6 O2 -10.1(3) .
C4 N2 C5 C1 168.69(15) 2_576
C4 C3 C6 O1 44.7(2) .
C4 C3 C6 O2 -136.7(2) .
C5 N2 C4 C3 179.59(15) .
C6 C3 C4 N2 -164.65(15) .
C7 N3 C9 O3 179.7(2) .
C8 N3 C9 O3 1.8(4) .
