#------------------------------------------------------------------------------
#$Date: 2018-01-17 01:36:27 +0200 (Wed, 17 Jan 2018) $
#$Revision: 205265 $
#$URL: file:///home/coder/svn-repositories/cod/cif/4/12/70/4127027.cif $
#------------------------------------------------------------------------------
#
# This file is available in the Crystallography Open Database (COD),
# http://www.crystallography.net/
#
# All data on this site have been placed in the public domain by the
# contributors.
#
data_4127027
loop_
_publ_author_name
'Zhu, Jie'
'Usov, Pavel M.'
'Xu, Wenqian'
'Celis-Salazar, Paula J'
'Lin, Shaoyang'
'Kessinger, Matthew C.'
'Landaverde-Alvarado, Carlos'
'Cai, Meng'
'May, Ann M.'
'Slebodnick, Carla'
'Zhu, Dunru'
'Senanayake, Sanjaya D.'
'Morris, Amanda J.'
_publ_section_title
;
 A New Class of Metal-Cyclam based Zirconium Metal-Organic Frameworks for
 CO2 Adsorption and Chemical Fixation.
;
_journal_name_full               'Journal of the American Chemical Society'
_journal_paper_doi               10.1021/jacs.7b10643
_journal_year                    2017
_chemical_formula_moiety
'C6 H12 Cl Cu0.5 N2 O6, C6 H12 Cu0.5 N2 O2, Cl O4'
_chemical_formula_sum            'C12 H24 Cl2 Cu N4 O12'
_chemical_formula_weight         550.79
_space_group_crystal_system      triclinic
_space_group_IT_number           2
_space_group_name_Hall           '-P 1'
_space_group_name_H-M_alt        'P -1'
_symmetry_space_group_name_Hall  '-P 1'
_symmetry_space_group_name_H-M   'P -1'
_atom_sites_solution_hydrogens   mixed
_atom_sites_solution_primary     dual
_audit_creation_date             2017-03-30
_audit_creation_method
;
Olex2 1.2
(compiled 2017.03.02 svn.r3394 for OlexSys, GUI svn.r5324)
;
_cell_angle_alpha                90.048(4)
_cell_angle_beta                 104.471(5)
_cell_angle_gamma                95.762(4)
_cell_formula_units_Z            2
_cell_length_a                   8.5135(5)
_cell_length_b                   9.7381(4)
_cell_length_c                   13.3092(7)
_cell_measurement_reflns_used    3606
_cell_measurement_temperature    101.55(10)
_cell_measurement_theta_max      31.5210
_cell_measurement_theta_min      3.8210
_cell_volume                     1062.61(10)
_computing_cell_refinement
;
CrysAlisPro, Agilent Technologies,
Version 1.171.37.35 (release 13-08-2014 CrysAlis171 .NET)
(compiled Aug 13 2014,18:06:01)
;
_computing_data_collection
;
CrysAlisPro, Agilent Technologies,
Version 1.171.37.35 (release 13-08-2014 CrysAlis171 .NET)
(compiled Aug 13 2014,18:06:01)
;
_computing_data_reduction
;
CrysAlisPro, Agilent Technologies,
Version 1.171.37.35 (release 13-08-2014 CrysAlis171 .NET)
(compiled Aug 13 2014,18:06:01)
;
_computing_molecular_graphics    'Olex2 (Dolomanov et al., 2009)'
_computing_publication_material  'Olex2 (Dolomanov et al., 2009)'
_computing_structure_refinement  'ShelXL (Sheldrick, 2015)'
_computing_structure_solution    'ShelXT (Sheldrick, 2015)'
_diffrn_ambient_environment      N~2~
_diffrn_ambient_temperature      101.55(10)
_diffrn_detector                 'CCD plate'
_diffrn_detector_area_resol_mean 8.0061
_diffrn_detector_type            Eos
_diffrn_measured_fraction_theta_full 0.996
_diffrn_measured_fraction_theta_max 0.915
_diffrn_measurement_details
;
#__ type_ start__ end____ width___ exp.time_
  1 omega  -52.00   37.00   1.0000    8.0000
omega____ theta____ kappa____ phi______ frames
    -      -29.6878   57.0000  -60.0000 89

#__ type_ start__ end____ width___ exp.time_
  2 omega  -69.00   36.00   1.0000    8.0000
omega____ theta____ kappa____ phi______ frames
    -      -29.6878   90.0000 -175.0000 105

#__ type_ start__ end____ width___ exp.time_
  3 omega  -81.00   -2.00   1.0000    8.0000
omega____ theta____ kappa____ phi______ frames
    -      -29.6878  -77.0000    0.0000 79

#__ type_ start__ end____ width___ exp.time_
  4 omega -100.00  -57.00   1.0000    8.0000
omega____ theta____ kappa____ phi______ frames
    -      -29.6878  -57.0000  150.0000 43

#__ type_ start__ end____ width___ exp.time_
  5 omega -102.00  -15.00   1.0000    8.0000
omega____ theta____ kappa____ phi______ frames
    -      -29.6878  -77.0000   90.0000 87

#__ type_ start__ end____ width___ exp.time_
  6 omega -111.00  -74.00   1.0000    8.0000
omega____ theta____ kappa____ phi______ frames
    -      -29.6878  178.0000 -150.0000 37
;
_diffrn_measurement_device       'four-circle diffractometer'
_diffrn_measurement_device_type  'Xcalibur, Eos, Gemini ultra'
_diffrn_measurement_method       '\w scans'
_diffrn_orient_matrix_UB_11      0.0576099000
_diffrn_orient_matrix_UB_12      0.0058169000
_diffrn_orient_matrix_UB_13      -0.0305423000
_diffrn_orient_matrix_UB_21      0.0564664000
_diffrn_orient_matrix_UB_22      -0.0308917000
_diffrn_orient_matrix_UB_23      0.0396976000
_diffrn_orient_matrix_UB_31      -0.0312576000
_diffrn_orient_matrix_UB_32      -0.0661444000
_diffrn_orient_matrix_UB_33      -0.0228663000
_diffrn_radiation_monochromator  graphite
_diffrn_radiation_probe          x-ray
_diffrn_radiation_type           MoK\a
_diffrn_radiation_wavelength     0.71073
_diffrn_reflns_av_R_equivalents  0.0348
_diffrn_reflns_av_unetI/netI     0.0699
_diffrn_reflns_Laue_measured_fraction_full 0.996
_diffrn_reflns_Laue_measured_fraction_max 0.915
_diffrn_reflns_limit_h_max       11
_diffrn_reflns_limit_h_min       -12
_diffrn_reflns_limit_k_max       14
_diffrn_reflns_limit_k_min       -13
_diffrn_reflns_limit_l_max       19
_diffrn_reflns_limit_l_min       -19
_diffrn_reflns_number            11232
_diffrn_reflns_point_group_measured_fraction_full 0.996
_diffrn_reflns_point_group_measured_fraction_max 0.915
_diffrn_reflns_theta_full        25.242
_diffrn_reflns_theta_max         32.250
_diffrn_reflns_theta_min         3.752
_diffrn_source                   'Enhance (Mo) X-ray Source'
_exptl_absorpt_coefficient_mu    1.347
_exptl_absorpt_correction_T_max  0.820
_exptl_absorpt_correction_T_min  0.735
_exptl_absorpt_correction_type   analytical
_exptl_absorpt_process_details
;
CrysAlisPro, Agilent Technologies,
Version 1.171.37.35 (release 13-08-2014 CrysAlis171 .NET)
(compiled Aug 13 2014,18:06:01)
Analytical numeric absorption correction using a multifaceted crystal
            model based on expressions derived by R.C. Clark & J.S. Reid.
(Clark, R. C. & Reid, J. S. (1995). Acta Cryst. A51, 887-897)
Empirical absorption correction using spherical harmonics,
 implemented in SCALE3 ABSPACK scaling algorithm.
;
_exptl_crystal_colour            'translucent purple'
_exptl_crystal_density_diffrn    1.721
_exptl_crystal_description       prism
_exptl_crystal_F_000             566
_exptl_crystal_size_max          0.3601
_exptl_crystal_size_mid          0.3204
_exptl_crystal_size_min          0.1954
_refine_diff_density_max         1.573
_refine_diff_density_min         -0.855
_refine_diff_density_rms         0.120
_refine_ls_extinction_method     none
_refine_ls_goodness_of_fit_ref   1.062
_refine_ls_hydrogen_treatment    mixed
_refine_ls_matrix_type           full
_refine_ls_number_parameters     291
_refine_ls_number_reflns         6900
_refine_ls_number_restraints     0
_refine_ls_restrained_S_all      1.062
_refine_ls_R_factor_all          0.0784
_refine_ls_R_factor_gt           0.0541
_refine_ls_shift/su_max          0.000
_refine_ls_shift/su_mean         0.000
_refine_ls_structure_factor_coef Fsqd
_refine_ls_weighting_details
'w=1/[\s^2^(Fo^2^)+(0.0384P)^2^+1.1926P] where P=(Fo^2^+2Fc^2^)/3'
_refine_ls_weighting_scheme      calc
_refine_ls_wR_factor_gt          0.1103
_refine_ls_wR_factor_ref         0.1221
_reflns_Friedel_coverage         0.000
_reflns_number_gt                5212
_reflns_number_total             6900
_reflns_threshold_expression     'I > 2\s(I)'
_cod_data_source_file            ja7b10643_si_005.cif
_cod_data_source_block           xpc115abs
_cod_database_code               4127027
_shelx_shelxl_version_number     2014/7
_chemical_oxdiff_formula         'Cu N4 O8 Cl C12 H22'
_chemical_oxdiff_usercomment     'JIE ZHU CuL(ClO4)2'
_shelx_space_group_comment
;
The symmetry employed for this shelxl refinement is uniquely defined
by the following loop, which should always be used as a source of
symmetry information in preference to the above space-group names.
They are only intended as comments.
;
_olex2_refinement_description
;
1. Fixed Uiso
 At 1.2 times of:
  All C(H) groups, All C(H,H) groups, All N(H) groups
2.a Ternary CH refined with riding coordinates:
 N3(H3A), N4(H4), C8(H8), N1(H1A), N2(H2), C2(H2A)
2.b Secondary CH2 refined with riding coordinates:
 C9(H9A,H9B), C10(H10A,H10B), C11(H11A,H11B), C12(H12A,H12B), C3(H3B,H3C),
 C4(H4A,H4B), C5(H5A,H5B), C6(H6A,H6B)
;
_shelx_res_file
;
    xpc115abs.res created by SHELXL-2014/7

TITL xpc115abs_a.res in P-1
REM Old TITL XPC 115Abs in P-1
REM SHELXT solution in P-1
REM R1 0.144, Rweak 0.011, Alpha 0.050, Orientation as input
REM Formula found by SHELXT: C21 O1 O12 O3 Cu
CELL 0.71073 8.5135 9.7381 13.3092 90.048 104.471 95.762
ZERR 2 0.0005 0.0004 0.0007 0.004 0.005 0.004
LATT 1
SFAC C H Cl Cu N O
UNIT 24 48 4 2 8 24

L.S. 10
PLAN  20
TEMP -173
BOND $H
LIST 6
fmap 2 53
acta
REM <olex2.extras>
REM <HklSrc "%.\\XPC%20115Abs.hkl">
REM </olex2.extras>

WGHT    0.038400    1.192600
FVAR       0.49621
CU2   4    0.000000    0.500000    0.000000    10.50000    0.01474    0.01163 =
         0.01305    0.00106    0.00406    0.00330
CL2   3    0.340205    0.602105    0.214882    11.00000    0.01487    0.01710 =
         0.01478   -0.00210    0.00113    0.00406
O3    6   -0.121131    0.673240    0.289579    11.00000    0.02234    0.02033 =
         0.02067   -0.00385    0.00303    0.00649
H3    2   -0.068092    0.680136    0.338851    11.00000    -1.5
O4    6   -0.059948    0.454586    0.307770    11.00000    0.02588    0.01827 =
         0.01767   -0.00103    0.00431   -0.00082
O9    6    0.227355    0.669622    0.256681    11.00000    0.02771    0.02697 =
         0.02793   -0.00243    0.01064    0.01088
O10   6    0.250816    0.500417    0.137172    11.00000    0.02808    0.02385 =
         0.02574   -0.00847   -0.00397    0.00356
O11   6    0.450385    0.537431    0.295474    11.00000    0.02827    0.02932 =
         0.02157    0.00399   -0.00268    0.01074
O12   6    0.431848    0.702267    0.166063    11.00000    0.02766    0.03065 =
         0.03334    0.00832    0.01129   -0.00025
N3    5   -0.089618    0.357209    0.087717    11.00000    0.01948    0.01233 =
         0.01348   -0.00179    0.00315    0.00251
AFIX  13
H3A   2   -0.008816    0.360207    0.156837    11.00000   -1.20000
AFIX   0
N4    5    0.081125    0.338012   -0.061638    11.00000    0.01645    0.01588 =
         0.01344   -0.00028    0.00315    0.00332
AFIX  13
H4    2    0.002106    0.312020   -0.129799    11.00000   -1.20000
AFIX   0
C7    1   -0.134234    0.544774    0.258781    11.00000    0.01608    0.01968 =
         0.01576   -0.00073    0.00789    0.00094
C8    1   -0.256582    0.516731    0.153701    11.00000    0.01445    0.02205 =
         0.01830   -0.00230    0.00607    0.00101
AFIX  13
H8    2   -0.366815    0.514514    0.167769    11.00000   -1.20000
AFIX   0
C9    1   -0.249806    0.374688    0.108029    11.00000    0.01636    0.02385 =
         0.01503   -0.00063    0.00429   -0.00236
AFIX  23
H9A   2   -0.273691    0.303432    0.156668    11.00000   -1.20000
H9B   2   -0.335508    0.359854    0.042193    11.00000   -1.20000
AFIX   0
C10   1    0.245517    0.362952   -0.081075    11.00000    0.01715    0.02370 =
         0.01693    0.00028    0.00439    0.00792
AFIX  23
H10A  2    0.271284    0.278346   -0.112235    11.00000   -1.20000
H10B  2    0.327513    0.383307   -0.014205    11.00000   -1.20000
AFIX   0
C11   1   -0.088519    0.220201    0.039004    11.00000    0.02635    0.01211 =
         0.01509    0.00101    0.00185    0.00407
AFIX  23
H11A  2   -0.181156    0.203920   -0.023153    11.00000   -1.20000
H11B  2   -0.098504    0.146112    0.088606    11.00000   -1.20000
AFIX   0
C12   1    0.070653    0.220469    0.008952    11.00000    0.02511    0.01524 =
         0.01286    0.00078    0.00141    0.00654
AFIX  23
H12A  2    0.163123    0.231897    0.071515    11.00000   -1.20000
H12B  2    0.074604    0.132221   -0.026871    11.00000   -1.20000
AFIX   0

CU1   4    0.500000    1.000000    0.500000    10.50000    0.01142    0.00593 =
         0.01439   -0.00110    0.00429    0.00156
O1    6    0.196959    0.522158    0.472889    11.00000    0.02014    0.00978 =
         0.02495   -0.00260   -0.00119    0.00175
H1    2    0.125972    0.502031    0.432413    11.00000    -1.5
O2    6    0.093715    0.726036    0.466226    11.00000    0.01916    0.01362 =
         0.02107   -0.00267    0.00097    0.00301
N1    5    0.512696    0.800680    0.467768    11.00000    0.01061    0.00953 =
         0.01795   -0.00089    0.00590    0.00111
AFIX  13
H1A   2    0.419551    0.771503    0.406847    11.00000   -1.20000
AFIX   0
N2    5    0.321914    0.955624    0.574632    11.00000    0.01456    0.00746 =
         0.01600   -0.00138    0.00332   -0.00021
AFIX  13
H2    2    0.216329    0.941232    0.520318    11.00000   -1.20000
AFIX   0
C1    1    0.199222    0.650911    0.503424    11.00000    0.01515    0.01012 =
         0.01463    0.00072    0.00634   -0.00138
C2    1    0.348519    0.699837    0.588117    11.00000    0.01738    0.01037 =
         0.01562    0.00238    0.00412    0.00023
AFIX  13
H2A   2    0.356711    0.628051    0.642349    11.00000   -1.20000
AFIX   0
C3    1    0.330103    0.833674    0.641768    11.00000    0.02124    0.01186 =
         0.01476    0.00105    0.00598    0.00113
AFIX  23
H3B   2    0.229603    0.820837    0.666825    11.00000   -1.20000
H3C   2    0.423561    0.852429    0.703185    11.00000   -1.20000
AFIX   0
C4    1    0.504809    0.701050    0.550743    11.00000    0.01508    0.00866 =
         0.02105    0.00159    0.00340    0.00227
AFIX  23
H4A   2    0.600013    0.724173    0.610439    11.00000   -1.20000
H4B   2    0.512289    0.607312    0.524652    11.00000   -1.20000
AFIX   0
C5    1    0.665625    0.795110    0.433723    11.00000    0.01554    0.01181 =
         0.03142   -0.00506    0.01185    0.00137
AFIX  23
H5A   2    0.661240    0.707390    0.394989    11.00000   -1.20000
H5B   2    0.760542    0.800185    0.494816    11.00000   -1.20000
AFIX   0
C6    1    0.317842    1.083792    0.635163    11.00000    0.02122    0.01179 =
         0.02681   -0.00602    0.01425   -0.00119
AFIX  23
H6A   2    0.408624    1.092156    0.698726    11.00000   -1.20000
H6B   2    0.213688    1.081025    0.655856    11.00000   -1.20000
AFIX   0

CL1   3    0.137710    0.039988    0.287249    11.00000    0.02321    0.01796 =
         0.03225    0.00609   -0.01074   -0.00191
O5    6    0.137925    0.182688    0.263365    11.00000    0.04620    0.01750 =
         0.02963    0.00281   -0.00893    0.00293
O6    6    0.058273    0.018083    0.372466    11.00000    0.02868    0.07649 =
         0.04684    0.01949    0.00352    0.00118
O7    6    0.047584   -0.043740    0.201682    11.00000    0.05877    0.02472 =
         0.04749   -0.00877   -0.03392    0.00592
O8    6    0.300658    0.003981    0.325020    11.00000    0.02816    0.03214 =
         0.03144   -0.00590   -0.00899    0.00715


HKLF 4

REM  xpc115abs_a.res in P-1
REM R1 =  0.0541 for    5212 Fo > 4sig(Fo)  and  0.0784 for all    6900 data
REM    291 parameters refined using      0 restraints

END

WGHT      0.0384      1.1926

REM Highest difference peak  1.573,  deepest hole -0.855,  1-sigma level  0.120
Q1    1   0.1643  0.0215  0.2370  11.00000  0.05    1.57
Q2    1   0.2363  0.0192  0.1831  11.00000  0.05    0.93
Q3    1   0.3270  0.5314  0.2361  11.00000  0.05    0.87
Q4    1   0.2338 -0.0148  0.3617  11.00000  0.05    0.85
Q5    1   0.5646  0.9313  0.8827  11.00000  0.05    0.70
Q6    1   0.2783  0.7002  0.5401  11.00000  0.05    0.58
Q7    1   0.3578  0.4629  0.2591  11.00000  0.05    0.55
Q8    1   0.5637  1.0199  0.5548  11.00000  0.05    0.54
Q9    1  -0.3193 -0.0066  0.1157  11.00000  0.05    0.53
Q10   1   0.0362  0.4388 -0.0358  11.00000  0.05    0.52
Q11   1   0.2883  0.5847  0.1161  11.00000  0.05    0.52
Q12   1   0.4215  0.6960  0.5591  11.00000  0.05    0.51
Q13   1   0.0848  0.4957 -0.0209  11.00000  0.05    0.50
Q14   1   0.3190  0.0388 -0.1016  11.00000  0.05    0.49
Q15   1   0.4991  0.6130  0.2874  11.00000  0.05    0.49
Q16   1  -0.4574 -0.0439 -0.0612  11.00000  0.05    0.49
Q17   1  -0.4603  0.0878  0.0963  11.00000  0.05    0.49
Q18   1   0.0016  0.2362  0.0318  11.00000  0.05    0.48
Q19   1   0.3194  1.0137  0.5989  11.00000  0.05    0.46
Q20   1  -0.0447  0.4174 -0.0160  11.00000  0.05    0.44
;
_shelx_res_checksum              57312
_shelx_hkl_file
;
   0   0   3   -0.23    1.67
   0   0  -3   -0.58    1.47
   0   0  -3    0.53    0.90
   0   0  -4 2217.71   40.23
   0   0   4 2184.92   40.28
   0   0  -4 2204.83   35.34
   0   0   5  591.39   17.36
   0   0  -5  657.14   13.47
   0   0  -5  611.48   17.51
   0   0  -6  321.24   13.04
   0   0  -6  332.68    9.19
   0   0   6  349.31   13.40
   0   0   7   73.61    6.38
   0   0  -7   67.98    4.00
   0   0  -7   67.44    6.57
   0   0  -8  129.55    9.41
   0   0   8  124.50    9.06
   0   0  -8  133.48    6.03
   0   0  -9   12.62    2.10
   0   0  -9   12.31    4.22
   0   0   9   13.14    3.71
   0   0  10  381.86   18.00
   0   0 -10  374.10   11.74
   0   0 -10  393.43   18.69
   0   0 -11   32.93    6.41
   0   0  11   28.29    5.67
   0   0  12    6.97    3.76
   0   0 -12    5.45    4.97
   0   0  13   18.46    5.67
   0   0 -13   19.86    5.80
   0   0 -14  376.62   22.46
   0   0 -15   13.42    5.97
   0   0 -16    2.94    5.10
   0   0 -17    0.31    3.93
   0   0 -18   18.48    7.84
   0   1 -18    7.27    6.85
   0   1 -17    5.11    4.87
   0   1 -16    2.36    5.22
   0   1 -15  171.15   15.97
   0   1 -14    1.51    3.94
   0   1 -13  181.09   15.05
   0   1 -12   39.73    7.13
   0   1 -11   46.93    7.40
   0   1 -10    8.51    2.01
   0   1 -10   14.72    4.50
   0   1  -9  370.80   17.47
   0  -1   9  392.89   17.40
   0   1  -9  362.08   12.49
   0   1  -8   50.27    6.22
   0   1  -8   52.81    4.29
   0  -1   8   47.96    5.92
   0   1  -7  685.51   22.10
   0   1  -7  712.95   17.59
   0  -1   7  755.62   22.32
   0   1  -6   14.10    3.18
   0  -1   6   17.73    3.63
   0   1  -6   16.65    2.39
   0   1  -5  262.64    8.72
   0  -1   5  265.18   10.75
   0   1  -5  261.10   10.93
   0   1  -4   78.06    4.28
   0  -1   4   78.85    3.05
   0   1  -4   81.37    5.41
   0  -1   3  499.96   10.18
   0   1  -3  512.61   11.91
   0   1  -3  525.59   13.49
   0  -1   2   87.21    3.30
   0   1  -2   84.41    4.15
   0  -1  -2   41.86    2.33
   0  -1  -2   46.98    2.91
   0   1   2   42.37    2.76
   0  -1  -3   15.97    1.50
   0   1   3   15.32    2.27
   0  -1  -3   13.73    2.21
   0  -1  -4  733.82   13.54
   0   1   4  774.17   18.49
   0  -1  -4  749.93   18.07
   0   1   5    9.60    2.53
   0  -1  -5    4.05    2.05
   0   1   6    1.98    2.70
   0  -1  -6    1.44    2.24
   0  -1  -7   73.66    6.59
   0   1   7   68.17    6.73
   0   1   8   95.93    7.95
   0  -1  -8  110.13    8.56
   0   1   9  271.14   14.36
   0  -1  -9  285.22   14.92
   0  -1 -10   39.08    6.08
   0   1  10   34.29    5.30
   0  -1 -11   10.11    4.40
   0   1  11   13.60    4.68
   0  -1 -12   51.11    7.87
   0   1  12   60.57    7.92
   0   1  13  452.13   22.95
   0  -1 -13  468.36   23.90
   0   1  14    6.48    4.43
   0  -1 -14    1.46    3.82
   0   1  15  101.46   11.80
   0  -1 -15   97.01   12.28
   0  -1 -16   20.82    6.83
   0  -1 -17   16.61    7.69
   0  -1 -18   -2.61    4.18
   0   2 -18   26.42    8.34
   0   2 -17    0.50    5.24
   0   2 -16   66.77   10.79
   0   2 -15   13.56    5.20
   0   2 -14  163.88   15.06
   0   2 -13   34.56    7.18
   0   2 -12    4.73    3.93
   0   2 -11    7.01    4.67
   0   2 -11   17.43    3.35
   0   2 -10  362.69   14.25
   0   2 -10  399.83   19.59
   0   2  -9    3.63    3.62
   0   2  -9    0.08    1.78
   0   2  -8  439.18   14.91
   0   2  -8  463.68   19.01
   0   2  -7    9.84    3.60
   0   2  -7    9.74    2.58
   0   2  -6 1123.90   28.80
   0   2  -6 1112.16   25.39
   0   2  -5   31.09    4.10
   0   2  -5   27.25    3.39
   0  -2   5   29.58    2.69
   0  -2   4  516.44   12.84
   0   2  -4  525.23   15.62
   0   2  -4  522.27   14.50
   0  -2   3  464.66   12.06
   0   2  -3  504.53   13.81
   0   2  -3  461.92   13.03
   0   2  -2  332.23    9.99
   0  -2   2  342.97    9.84
   0  -2   1 1015.66   20.52
   0  -2   0 2151.98   37.11
   0  -2  -1 2012.79   35.32
   0  -2  -1 1983.55   31.76
   0  -2  -1 1946.21   34.63
   0  -2  -2  650.34   14.79
   0  -2  -2  637.91   13.76
   0  -2  -2  651.08   16.11
   0  -2  -3 1510.21   27.74
   0  -2  -3 1486.61   28.14
   0   2   3 1518.48   29.30
   0  -2  -4   12.97    2.08
   0   2   4   11.96    2.27
   0  -2  -4    8.32    1.95
   0   2   5  828.06   21.17
   0  -2  -5  776.59   16.89
   0  -2  -5  806.27   20.54
   0   2   6  723.76   21.13
   0  -2  -6  694.59   20.19
   0  -2  -7   29.77    4.48
   0   2   7   26.12    4.28
   0  -2  -8   66.25    6.82
   0   2   8   53.78    6.41
   0  -2  -9    0.72    2.68
   0   2   9    1.89    2.59
   0   2  10  684.50   25.39
   0  -2 -10  645.39   24.82
   0  -2 -11   50.94    7.59
   0   2  11   46.56    7.16
   0   2  12   45.71    7.51
   0  -2 -12   45.26    7.55
   0   2  13   99.95   11.03
   0  -2 -13   80.54    9.99
   0   2  14  259.12   18.30
   0  -2 -14  277.64   19.06
   0  -2 -15   67.46   10.15
   0   2  15   81.16   11.27
   0  -2 -16   46.97    9.02
   0  -2 -17    3.50    5.24
   0  -2 -18   32.04    8.59
   0   3 -18   46.70   10.17
   0   3 -17   29.32    8.01
   0   3 -16   52.95   10.70
   0   3 -15  177.24   16.49
   0   3 -14   36.91    8.01
   0   3 -13   61.16    9.28
   0   3 -12    1.13    3.76
   0   3 -11  123.06    8.85
   0   3 -11  152.09   13.03
   0   3 -10    6.27    2.47
   0   3 -10   -0.37    3.42
   0   3  -9  441.55   16.72
   0   3  -9  418.40   19.75
   0   3  -8   10.94    2.98
   0   3  -8    6.89    3.28
   0   3  -7  577.40   18.67
   0   3  -7  578.73   20.93
   0   3  -6 1567.94   36.91
   0   3  -6 1522.09   34.46
   0  -3   6 1595.57   31.62
   0   3  -5  698.02   20.07
   0  -3   5  737.34   18.34
   0   3  -5  723.18   21.14
   0   3  -4    3.13    2.24
   0  -3   4    0.15    1.88
   0   3  -4    0.66    1.88
   0   3  -3   70.31    5.17
   0  -3   3   76.52    5.28
   0  -3   2  396.32   12.63
   0   3  -2  422.01   12.21
   0  -3   1  911.64   21.31
   0  -3   0 1039.15   23.39
   0  -3  -1  233.42    7.13
   0  -3  -1  238.74    9.46
   0  -3  -1  238.47    9.73
   0  -3  -2    4.00    1.35
   0  -3  -2    3.34    1.87
   0  -3  -2    7.70    2.06
   0  -3  -3 1135.55   25.23
   0  -3  -3 1207.14   27.55
   0  -3  -3 1138.98   23.38
   0  -3  -4   66.18    6.01
   0  -3  -4   64.74    4.82
   0  -3  -4   67.74    4.96
   0   3   4   67.83    5.34
   0   3   5  389.54   14.16
   0  -3  -5  380.41   13.14
   0  -3  -5  369.35   12.06
   0  -3  -6  177.77    7.91
   0  -3  -6  184.14    9.59
   0   3   6  186.80   10.02
   0  -3  -7  908.11   25.42
   0   3   7  912.42   26.45
   0  -3  -8  257.67   13.27
   0   3   8  270.13   13.93
   0   3   9  225.48   13.59
   0  -3  -9  194.04   12.20
   0  -3 -10  289.56   15.96
   0   3  10  317.51   17.05
   0   3  11   96.87   10.38
   0  -3 -11   82.53    9.06
   0  -3 -12   -0.74    3.31
   0   3  12   -5.95    4.82
   0  -3 -13  216.37   15.94
   0   3  13  259.02   17.57
   0   3  14    8.19    4.63
   0  -3 -14   10.83    5.49
   0   3  15   37.10    7.80
   0  -3 -15   35.52    7.64
   0  -3 -16   14.25    5.68
   0  -3 -17   72.00   11.49
   0  -3 -18   12.38    6.03
   0   4 -17    0.32    4.90
   0   4 -16   58.27   10.70
   0   4 -15   37.21    8.61
   0   4 -14   29.90    6.64
   0   4 -13    5.84    4.93
   0   4 -12   31.12    6.96
   0   4 -12   40.53    6.16
   0   4 -11   45.67    6.07
   0   4 -11   37.58    6.71
   0   4 -10  123.01    9.49
   0   4 -10  121.43   11.46
   0   4  -9  142.16   10.21
   0   4  -9  173.32   12.74
   0   4  -8  117.26    9.99
   0   4  -8  107.44    8.60
   0   4  -7  496.17   19.95
   0   4  -7  491.17   18.51
   0  -4   7  525.20   16.48
   0  -4   6  448.22   15.10
   0   4  -6  432.18   17.33
   0   4  -6  436.07   16.99
   0   4  -5   94.28    7.47
   0  -4   5  101.44    7.03
   0   4  -5  105.94    7.76
   0  -4   4   14.16    3.14
   0   4  -4   10.12    2.87
   0   4  -4    9.42    2.83
   0  -4   3   92.84    6.59
   0   4  -3   87.01    6.10
   0  -4   2  231.33   10.55
   0  -4   1  582.78   17.82
   0  -4   0 2034.65   41.17
   0  -4  -1  253.33   11.15
   0  -4  -2 1323.50   25.92
   0  -4  -2 1349.49   31.49
   0  -4  -2 1370.73   30.75
   0  -4  -3   96.16    5.36
   0  -4  -3   81.42    6.31
   0  -4  -3   91.96    7.48
   0  -4  -4 1477.30   30.50
   0  -4  -4 1484.57   32.79
   0  -4  -4 1487.79   35.73
   0   4   4 1517.27   33.83
   0  -4  -5  211.50   10.04
   0  -4  -5  223.39    9.80
   0  -4  -5  206.34   11.88
   0   4   5  215.99   11.00
   0  -4  -6 1902.18   39.13
   0   4   6 1944.72   42.47
   0  -4  -6 1830.71   44.71
   0  -4  -6 1894.08   39.88
   0  -4  -7  570.73   22.88
   0  -4  -7  597.46   19.79
   0   4   7  615.47   21.39
   0  -4  -7  588.22   17.81
   0  -4  -8  183.97   11.12
   0   4   8  178.17   11.79
   0  -4  -9    2.50    3.35
   0   4   9    4.32    3.17
   0   4  10   12.27    4.43
   0  -4 -10    8.86    4.32
   0   4  11   26.55    6.20
   0  -4 -11   35.74    6.33
   0  -4 -12  103.69   10.81
   0   4  12  118.98   11.76
   0  -4 -13   26.98    5.89
   0   4  13   30.66    6.59
   0  -4 -14    0.74    4.02
   0   4  14   12.15    6.30
   0  -4 -15   21.64    6.46
   0  -4 -16   67.51   10.62
   0  -4 -17   45.18    9.00
   0  -4 -18    5.22    4.56
   0   5 -17   78.79   12.79
   0   5 -16   13.43    6.60
   0   5 -15   45.26    9.48
   0   5 -14   28.06    7.51
   0   5 -13  313.92   21.08
   0   5 -13  319.70   20.96
   0   5 -12   34.06    7.52
   0   5 -12   47.29    6.79
   0   5 -11  104.43   11.32
   0   5 -11  119.83   10.55
   0   5 -10   79.74    8.49
   0   5 -10   76.23    9.31
   0   5  -9  117.35   10.94
   0   5  -9  120.45   10.22
   0   5  -8  206.19   13.63
   0   5  -8  186.04   12.28
   0   5  -7  711.76   24.79
   0   5  -7  722.80   25.31
   0  -5   7  753.62   22.66
   0   5  -6   41.30    5.65
   0   5  -6   54.51    6.67
   0  -5   6   46.38    5.36
   0  -5   5   10.99    3.22
   0   5  -5   14.68    3.89
   0   5  -5    8.29    3.11
   0   5  -4  650.93   20.47
   0  -5   4  706.68   21.69
   0   5  -4  613.61   21.37
   0  -5   3  164.36    9.99
   0   5  -3  177.11    9.37
   0  -5   2  161.71    9.89
   0  -5   1  129.08    8.75
   0  -5   0   41.75    5.23
   0  -5  -1  314.97   13.90
   0  -5  -2    5.83    1.82
   0  -5  -2    7.19    2.82
   0  -5  -2    7.68    2.97
   0  -5  -3   11.13    2.30
   0  -5  -3   11.38    3.18
   0  -5  -3   11.61    3.13
   0  -5  -4    9.91    3.67
   0  -5  -4    8.56    2.66
   0  -5  -4   12.97    2.55
   0  -5  -5  281.41   13.07
   0  -5  -5  295.52   15.44
   0   5   5  296.31   13.95
   0  -5  -5  276.76   11.49
   0  -5  -6    3.04    2.18
   0   5   6    2.84    2.33
   0  -5  -6    3.30    1.84
   0  -5  -6    5.57    3.49
   0  -5  -7  845.93   24.42
   0  -5  -7  819.64   23.94
   0  -5  -7  797.65   29.08
   0   5   7  847.49   26.89
   0  -5  -8  226.12   12.45
   0   5   8  250.23   14.26
   0  -5  -8  218.19   15.11
   0  -5  -9   39.88    5.72
   0   5   9   59.08    7.43
   0  -5  -9   47.04    7.46
   0   5  10   29.62    6.09
   0  -5 -10   12.75    5.27
   0  -5 -10   22.09    4.89
   0  -5 -11  136.70   11.67
   0  -5 -11  150.47   14.32
   0   5  11  150.29   12.77
   0   5  12    0.76    4.30
   0  -5 -12    3.98    2.98
   0  -5 -12   -1.52    4.01
   0  -5 -13   49.71    8.21
   0  -5 -13   19.67    6.84
   0   5  13   60.40    9.59
   0   5  14    7.08    4.77
   0  -5 -14    6.49    5.27
   0  -5 -14    2.55    4.46
   0  -5 -15   62.40   11.26
   0  -5 -15   88.93   11.36
   0  -5 -16   13.06    5.86
   0  -5 -16    2.34    5.02
   0  -5 -17   92.98   14.24
   0  -5 -17  107.96   13.39
   0   6 -17   -1.61    4.85
   0   6 -16   16.09    6.34
   0   6 -15    0.12    4.50
   0   6 -14   74.89   11.19
   0   6 -13   19.09    6.23
   0   6 -12  409.37   21.23
   0   6 -12  398.05   23.32
   0   6 -11   22.82    5.64
   0   6 -11   30.21    6.13
   0   6 -10   10.11    4.13
   0   6 -10   14.66    4.69
   0   6  -9    6.50    3.44
   0   6  -9   11.50    3.85
   0   6  -8  843.92   29.88
   0   6  -8  871.06   29.92
   0   6  -7   22.47    5.11
   0   6  -7   11.87    4.04
   0  -6   7   20.79    4.46
   0  -6   6    5.48    3.12
   0   6  -6    1.99    3.28
   0   6  -6   -1.07    2.75
   0  -6   5  244.02   13.52
   0   6  -5  217.75   13.54
   0   6  -5  241.60   13.08
   0   6  -4  791.67   23.80
   0   6  -4  718.36   25.23
   0  -6   4  735.28   24.72
   0  -6   3   -2.59    2.84
   0   6  -3   -0.06    2.02
   0  -6   2  211.99   12.46
   0  -6   1   60.10    6.94
   0  -6   0 1609.15   39.94
   0  -6  -1  198.27   11.99
   0  -6  -2  291.00   14.59
   0  -6  -3    7.28    3.29
   0  -6  -3    6.40    3.53
   0  -6  -3    6.96    2.22
   0  -6  -4    1.21    2.93
   0  -6  -4    2.05    1.45
   0  -6  -4    3.06    3.21
   0  -6  -5  345.02   18.08
   0  -6  -5  337.91   13.20
   0   6   5  348.49   16.31
   0  -6  -5  368.12   16.49
   0  -6  -6  795.78   29.37
   0  -6  -6  865.53   26.71
   0   6   6  836.89   27.42
   0  -6  -6  845.47   23.61
   0  -6  -7   61.12    6.68
   0  -6  -7   72.01    6.62
   0   6   7   61.63    7.49
   0  -6  -7   57.15    7.98
   0  -6  -8    5.00    2.68
   0  -6  -8   16.04    5.14
   0   6   8    2.55    2.90
   0   6   9  285.39   16.66
   0  -6  -9  265.51   14.53
   0  -6  -9  246.50   17.45
   0   6  10  251.27   16.25
   0  -6 -10  223.25   17.38
   0  -6 -10  232.23   14.20
   0  -6 -11   -1.22    4.82
   0  -6 -11   -0.61    3.34
   0   6  11    1.49    4.19
   0  -6 -12  115.24   13.56
   0  -6 -12  104.51   10.69
   0   6  12  126.14   12.91
   0  -6 -13   20.98    5.57
   0   6  13   11.34    5.06
   0  -6 -13    9.97    4.49
   0  -6 -14   36.64    8.67
   0  -6 -14   47.21    8.59
   0  -6 -15    8.31    6.54
   0  -6 -16  181.29   19.34
   0   7 -16   -1.33    4.41
   0   7 -15    2.68    4.67
   0   7 -14   18.89    6.89
   0   7 -14   10.84    6.49
   0   7 -13  214.52   16.53
   0   7 -13  213.87   18.29
   0   7 -12    3.65    3.87
   0   7 -12    1.96    4.34
   0   7 -11   34.54    7.07
   0   7 -11   42.04    7.55
   0   7 -10    6.25    3.84
   0   7 -10    8.46    4.47
   0   7  -9  202.08   15.18
   0   7  -9  201.62   15.18
   0   7  -8   30.92    6.62
   0   7  -8   19.87    5.60
   0  -7   7  246.45   14.51
   0   7  -7  253.23   15.37
   0   7  -7  246.90   16.20
   0  -7   6   24.43    4.89
   0   7  -6   40.07    6.77
   0   7  -6   30.54    5.46
   0   7  -5   47.75    5.95
   0  -7   5   42.30    6.31
   0   7  -5   43.49    6.58
   0   7  -4    5.29    3.19
   0   7  -4   11.02    3.34
   0  -7   4    1.90    3.08
   0   7  -3  354.97   15.20
   0  -7   3  355.10   17.58
   0   7  -2  446.26   16.69
   0  -7   2  455.50   20.11
   0  -7   1  252.29   14.86
   0  -7   0  142.18   11.25
   0  -7  -1 1168.69   34.56
   0  -7  -2    0.91    3.55
   0  -7  -3   71.27    7.98
   0  -7  -4   -5.94    4.35
   0  -7  -4    1.91    1.71
   0  -7  -4    3.68    3.32
   0  -7  -5   77.50    8.11
   0  -7  -5   77.99    9.04
   0  -7  -5   71.20    6.04
   0  -7  -6   -0.63    3.09
   0   7   6    0.82    3.24
   0  -7  -6    4.05    4.50
   0  -7  -6    3.92    2.02
   0   7   7  123.75   10.98
   0  -7  -7  134.25   10.68
   0  -7  -7  114.40    8.57
   0  -7  -7  104.81   11.30
   0  -7  -8    1.56    2.31
   0   7   8    6.54    4.06
   0  -7  -8    2.18    3.36
   0  -7  -9    0.44    2.09
   0  -7  -9    0.93    3.97
   0   7   9    6.24    3.91
   0   7  10   43.08    7.26
   0  -7 -10   27.55    7.57
   0  -7 -11  213.78   18.14
   0   7  11  226.97   16.84
   0   7  12    6.49    4.49
   0  -7 -12    4.93    5.54
   0  -7 -13   -6.38    6.50
   0   7  13    1.36    4.54
   0  -7 -14   29.34    8.43
   0  -7 -15  116.28   15.65
   0   8 -15    8.26    6.04
   0   8 -14   28.27    7.72
   0   8 -14   27.43    7.46
   0   8 -13    3.57    4.86
   0   8 -13   -5.25    4.47
   0   8 -12  138.35   14.47
   0   8 -12  132.10   13.58
   0   8 -11   66.90   10.00
   0   8 -11   76.56   10.46
   0   8 -10   14.72    6.33
   0   8 -10    9.57    4.80
   0   8  -9   43.32    7.91
   0   8  -9   46.36    8.30
   0   8  -8  579.87   27.09
   0   8  -8  604.19   26.43
   0   8  -7  170.12   13.24
   0  -8   7  193.43   13.94
   0   8  -7  198.45   15.53
   0  -8   6    9.14    4.15
   0   8  -6   14.43    5.73
   0   8  -6   12.84    4.24
   0   8  -5   22.76    4.52
   0   8  -5   11.67    5.08
   0  -8   5   17.21    4.90
   0  -8   4  209.65   14.48
   0   8  -4  190.58   14.42
   0   8  -4  208.95   12.56
   0   8  -3   11.90    3.23
   0   8  -3   18.51    5.09
   0  -8   3   17.77    5.67
   0  -8   2   38.00    6.85
   0   8  -2   28.46    4.40
   0  -8   1  352.15   18.82
   0  -8   0   80.66    9.15
   0  -8  -1    4.16    4.41
   0  -8  -2 1183.97   37.38
   0  -8  -3   90.14    9.65
   0  -8  -4    2.07    3.43
   0  -8  -5   14.32    4.88
   0  -8  -5   19.14    5.31
   0  -8  -6  899.13   31.55
   0   8   6  895.59   31.76
   0  -8  -6  870.47   34.08
   0   8   7   39.96    6.58
   0  -8  -7   35.72    7.47
   0   8   8   20.88    5.43
   0  -8  -8   13.88    6.03
   0   8   9   17.58    5.55
   0  -8  -9   25.44    7.42
   0  -8 -10  401.69   25.34
   0   8  10  443.22   23.68
   0  -8 -11    6.71    6.44
   0   8  11    3.19    3.94
   0   8  12   39.73    8.21
   0  -8 -12   24.27    7.74
   0  -8 -13   24.07    7.45
   0  -8 -14   39.90    9.49
   0   9 -15   16.06    6.39
   0   9 -14   11.65    5.82
   0   9 -14   -1.60    4.36
   0   9 -13   93.19   12.59
   0   9 -13  111.19   13.85
   0   9 -12   43.93    9.31
   0   9 -12   52.13    9.18
   0   9 -11   21.43    6.50
   0   9 -11   29.41    7.50
   0   9 -10    0.89    4.63
   0   9 -10    2.83    4.38
   0   9  -9  287.95   20.33
   0   9  -9  300.90   19.42
   0   9  -8    0.72    3.65
   0   9  -8   -3.47    3.66
   0   9  -7   88.01   10.07
   0   9  -7   91.78   11.21
   0   9  -6    2.50    3.00
   0   9  -6    3.13    3.91
   0  -9   6   -0.10    3.49
   0  -9   5  381.35   21.20
   0   9  -5  358.61   21.14
   0   9  -5  366.32   18.49
   0   9  -4   42.08    7.86
   0  -9   4   23.20    5.64
   0   9  -4   33.25    5.42
   0   9  -3   18.96    3.93
   0  -9   3   16.00    5.65
   0   9  -3   -0.85    4.77
   0   9  -2   14.00    5.06
   0   9  -2   20.09    4.15
   0  -9   2   18.72    5.82
   0  -9   1    4.96    4.58
   0   9  -1    5.84    2.79
   0  -9   0   30.78    6.91
   0  -9  -1  308.35   18.81
   0  -9  -2   76.16    9.82
   0  -9  -3   10.28    4.61
   0  -9  -4    2.43    4.29
   0  -9  -5  241.42   16.59
   0   9   6    9.38    4.80
   0  -9  -6    6.95    4.32
   0  -9  -7   63.61    9.83
   0   9   7   58.93    8.79
   0   9   8    8.87    4.81
   0  -9  -8    1.48    4.59
   0   9   9  105.68   11.72
   0  -9  -9  131.49   14.30
   0  -9 -10   10.63    6.13
   0   9  10   13.79    5.96
   0   9  11  157.15   15.38
   0  -9 -11  131.82   15.40
   0  -9 -12   19.02    7.21
   0  -9 -13   28.34    8.73
   0  10 -13   -2.53    4.29
   0  10 -13   -1.40    5.07
   0  10 -12    1.84    4.77
   0  10 -12    1.14    3.83
   0  10 -11    3.23    4.39
   0  10 -11   14.24    6.89
   0  10 -10   -3.62    3.94
   0  10 -10    3.82    3.99
   0  10  -9  111.93   13.81
   0  10  -9   98.90   11.72
   0  10  -8  136.56   13.08
   0  10  -8  124.55   14.28
   0  10  -7    5.51    4.93
   0  10  -7   10.18    4.65
   0  10  -6  111.04   12.98
   0  10  -6  149.79   12.66
   0 -10   5  192.52   15.89
   0  10  -5  192.78   13.69
   0  10  -5  157.92   14.75
   0  10  -4   36.70    7.99
   0 -10   4   43.69    8.21
   0 -10   3   75.58    9.71
   0  10  -3   53.64    8.84
   0  10  -2  125.23   12.66
   0 -10   2  117.46   12.80
   0  10  -1   -3.26    4.62
   0 -10   1   -1.00    4.54
   0  10   0  162.19   13.98
   0 -10   0  174.05   15.09
   0 -10  -1   11.36    5.17
   0 -10  -2  226.67   17.30
   0 -10  -3  109.06   12.23
   0 -10  -4  139.23   13.94
   0  10   6  194.31   15.85
   0 -10  -7   50.53    9.34
   0  10   7   66.75    9.58
   0  10   8   93.08   11.68
   0 -10  -8   73.94   11.42
   0 -10  -9   29.43    8.15
   0  10   9   19.99    5.76
   0 -10 -10   18.71    6.30
   0  10  10   15.34    5.72
   0  10  11   68.61   10.77
   0 -10 -11   54.58   10.53
   0 -10 -12   25.05    7.24
   0  11 -13   27.60    8.00
   0  11 -13   25.71    8.52
   0  11 -12   71.07   11.72
   0  11 -12   51.44   10.71
   0  11 -11   19.78    7.42
   0  11 -11   24.28    7.16
   0  11 -10   -0.49    4.55
   0  11  -9   55.40   10.22
   0  11  -8   85.76   12.66
   0  11  -7  339.05   23.75
   0  11  -6   -2.85    5.19
   0  11  -5  208.16   18.30
   0  11  -4   14.83    6.38
   0 -11   3   53.75    9.24
   0  11  -3   42.54    8.55
   0 -11   2    7.58    5.56
   0  11  -2    4.29    5.29
   0  11  -1  225.48   17.71
   0 -11   1  208.67   17.56
   0  11   0    9.07    4.65
   0 -11   0    8.86    5.38
   0 -11  -1  146.48   14.89
   0  11   1  150.65   14.33
   0  11   2   46.04    8.44
   0 -11  -2   57.86    9.40
   0  11   3   79.21   10.27
   0  11   4  129.87   12.82
   0  11   5  307.30   19.66
   0  11   6   13.59    5.26
   0  11   7  107.36   12.92
   0  11   8    7.19    4.93
   0 -11  -9   43.64    9.69
   0  11   9   54.55    9.56
   0 -11 -10   10.53    6.18
   0  11  10    3.61    3.87
   0  12 -10    0.61    5.03
   0  12  -9   12.93    6.70
   0  12  -8  104.17   14.33
   0  12  -7  122.38   15.53
   0  12  -6  127.56   15.38
   0  12  -5    4.08    5.26
   0  12  -4    6.61    5.02
   0  12  -3   63.14   11.27
   0  12  -2  114.79   13.81
   0  12  -1   78.34   11.19
   0  12   0    0.92    4.88
   0  12   1   20.47    7.12
   0  12   2   22.28    6.42
   0  12   3   65.36   10.24
   0  12   4   23.55    6.58
   0  12   5    5.35    4.09
   0  12   6  119.29   13.97
   0  12   7   37.22    8.64
   0  12   8  265.84   21.53
   0  12   9   -2.07    4.55
   0  13  -7  117.87   15.57
   0  13  -6    6.58    6.22
   0  13  -5   17.80    7.14
   0  13  -4    4.95    6.25
   0  13  -3   12.31    5.36
   0  13  -2   12.97    6.71
   0  13  -1  129.59   15.39
   0  13   0   -7.25    6.69
   0  13   1    4.71    4.53
   0  13   2    1.71    4.15
   0  13   3   29.13    8.25
   0  13   4    3.38    4.65
   0  13   5   -1.33    3.82
   0  13   6    9.84    6.25
   0  13   7   72.51   11.61
   0  13   8    5.86    5.04
   0  14  -1   13.72    5.56
   0  14   0    3.35    4.85
   0  14   1    5.90    5.15
   0  14   2  343.14   25.70
   0  14   3   46.53   10.36
  -1  14   3   30.95    8.42
  -1  14   2   -5.96    6.45
  -1  14   1    6.55    5.78
  -1  14   0   10.87    6.13
  -1  14  -1  126.17   15.95
  -1  13   8   53.90   11.23
  -1  13   7   96.72   13.65
  -1  13   6   41.21   10.10
  -1  13   5    8.81    6.63
  -1  13   4  123.54   14.23
  -1  13   3   44.06    8.82
  -1  13   2    7.18    5.38
  -1  13   1    6.58    5.82
  -1  13   0  233.61   20.26
  -1  13  -1   34.33    8.41
  -1  13  -2   47.38   10.63
  -1  13  -3    2.87    5.98
  -1  13  -4  156.28   17.23
  -1  13  -5   -7.76    5.26
  -1  13  -6   43.82   10.39
  -1  12  11   25.02    7.91
  -1  12  10   14.62    6.61
  -1  12   9   65.15   11.02
  -1  12   8   31.50    8.32
  -1  12   7   35.77    8.42
  -1  12   6   21.63    6.74
  -1  12   5  243.39   18.55
  -1  12   5  223.16   19.03
  -1  12   4    9.65    4.25
  -1  12   3   11.77    4.08
  -1  12   2   30.60    8.03
  -1  12   1   35.95    8.36
  -1  12   0   11.05    5.31
  -1  12  -1   46.21    9.60
  -1  12  -2   36.40    8.48
  -1  12  -3    5.78    5.15
  -1  12  -4   34.47    7.96
  -1  12  -5  100.84   13.57
  -1  12  -6  108.80   13.95
  -1  12  -7   40.65    9.96
  -1  12  -8    6.00    6.50
  -1  12  -9   87.84   13.86
  -1  12 -10   98.95   13.92
  -1  11  12   16.52    7.00
  -1  11  11   17.52    6.58
   1 -11 -11   17.40    7.11
  -1  11  10  100.56   13.28
   1 -11 -10  105.07   14.60
  -1  11   9    6.89    5.96
  -1  11   8   18.86    7.43
  -1  11   7   20.79    7.46
  -1  11   6  165.35   15.55
  -1  11   5    4.19    3.88
  -1  11   4  227.88   17.13
  -1  11   3   14.09    4.84
  -1  11   2  177.65   15.48
  -1  11   1  213.67   17.13
  -1  11   0  159.73   15.10
  -1  11  -1   99.29   12.16
  -1  11  -2   17.29    6.70
  -1  11  -3   79.51   11.29
  -1  11  -4   36.95    7.75
  -1  11  -5   -5.56    5.91
  -1  11  -6   76.09   11.35
  -1  11  -7   -1.21    5.39
  -1  11  -8   55.75   10.08
  -1  11  -9    1.29    4.30
  -1  11 -10  149.41   16.57
  -1  11 -11   47.94   10.43
  -1  11 -12   16.66    8.12
  -1  10  13    5.44    4.52
   1 -10 -13    8.57    5.00
  -1  10  12   30.78    8.51
   1 -10 -12   22.84    8.00
   1 -10 -11   48.29   10.40
  -1  10  11   37.47    8.67
  -1  10  10   18.09    5.78
   1 -10 -10   20.99    7.78
   1 -10  -9   20.42    5.96
  -1  10   9   34.41    8.59
  -1  10   8   20.93    6.27
   1 -10  -8   22.54    7.16
  -1  10   7   86.22   11.04
  -1  10   6   50.44    7.18
  -1  10   6   63.78    9.41
  -1  10   5   37.88    6.83
  -1  10   4    4.11    3.79
  -1  10   3  145.88   12.80
  -1  10   2  118.06   12.07
  -1  10   1  299.90   19.02
  -1  10   0   79.03    9.88
  -1  10  -1   21.20    6.02
  -1  10  -2   12.91    5.69
  -1  10  -3  316.36   20.36
  -1  10  -4   -0.52    5.24
  -1  10  -5   54.28    9.05
  -1  10  -6    1.37    4.50
  -1  10  -7  154.20   15.27
  -1  10  -8   98.09   12.20
  -1  10  -8   97.27   10.89
  -1  10  -9  169.95   16.52
  -1  10  -9  146.84   13.88
  -1  10 -10    4.56    4.03
  -1  10 -10    7.11    4.92
  -1  10 -11  126.35   14.15
  -1  10 -11  135.16   15.28
  -1  10 -12    0.31    4.53
  -1  10 -13   54.54   10.08
   1  -9 -14   26.42    8.02
   1  -9 -13  103.73   14.77
  -1   9  13   82.67   12.44
   1  -9 -12   13.62    6.51
  -1   9  12   29.80    7.71
   1  -9 -11  126.49   14.82
  -1   9  11  136.12   14.56
   1  -9 -10   56.98   10.42
  -1   9  10   65.88   10.14
  -1   9   9   31.98    8.16
   1  -9  -9   16.03    5.90
   1  -9  -8  238.50   18.99
  -1   9   8  247.30   17.87
  -1   9   7    2.36    3.13
   1  -9  -7    3.36    4.38
  -1   9   6   50.78    6.73
   1  -9  -6   47.74    8.59
  -1   9   6   70.06    9.38
  -1   9   5    8.74    2.81
  -1   9   4  267.18   15.99
  -1   9   3  110.20   10.28
  -1   9   2  438.99   21.21
  -1   9   1   14.57    4.28
  -1   9   0   42.27    6.94
  -1   9  -1  394.95   21.09
  -1   9  -2  348.12   20.08
  -1   9  -3    2.35    2.71
  -1   9  -3    6.15    4.91
  -1   9  -4   35.29    5.38
  -1   9  -4   33.74    6.99
  -1   9  -5  197.15   15.86
  -1   9  -5  176.85   12.29
  -1   9  -6  366.95   18.71
  -1   9  -6  346.74   21.36
  -1   9  -7    2.59    3.70
  -1   9  -7   -1.00    4.60
  -1   9  -8   70.66   10.49
  -1   9  -8   56.22    8.25
  -1   9  -9   52.65    8.13
  -1   9  -9   46.42    8.55
  -1   9 -10  101.34   12.75
  -1   9 -10   82.05   11.13
  -1   9 -11    7.38    4.16
  -1   9 -11   20.27    7.59
  -1   9 -11   16.98    5.93
  -1   9 -12  111.20   12.98
  -1   9 -12   79.04   11.84
  -1   9 -13   29.12    7.85
  -1   9 -13   24.60    6.84
  -1   9 -14   -2.97    5.37
  -1   9 -15   12.79    5.69
   1  -8 -15   25.67    9.20
  -1   8  14   75.98   12.07
   1  -8 -14   41.44    9.49
  -1   8  13   54.31    9.99
   1  -8 -13   67.52   11.62
   1  -8 -12    8.18    5.68
  -1   8  12    8.34    5.13
  -1   8  11  196.26   16.69
   1  -8 -11  146.91   15.50
  -1   8  10   49.73    8.15
   1  -8 -10   24.85    6.55
   1  -8  -9   57.31    9.05
  -1   8   9   32.68    6.75
   1  -8  -8    3.35    4.49
  -1   8   8    5.36    3.50
  -1   8   7  714.59   29.05
   1  -8  -7  685.20   30.12
  -1   8   7  721.30   24.44
  -1   8   6    5.97    3.81
   1  -8  -6    0.30    3.66
  -1   8   6    6.00    3.52
   1  -8  -5    8.12    4.33
  -1   8   5    2.28    2.53
  -1   8   4   54.00    6.82
  -1   8   3  664.03   24.66
  -1   8   2    1.42    2.91
  -1   8   1   93.61    9.11
  -1   8   0   28.82    5.91
  -1   8   0   22.86    3.23
  -1   8  -1   71.97    8.51
  -1   8  -1   61.68    5.49
  -1   8  -2  529.56   23.48
  -1   8  -2  543.39   18.36
  -1   8  -3   -3.28    4.00
  -1   8  -3    2.60    2.55
  -1   8  -4   55.91    8.03
  -1   8  -4   64.90    6.94
  -1   8  -5   13.21    3.53
  -1   8  -5   13.18    5.04
  -1   8  -6   11.40    4.74
  -1   8  -6    2.37    2.49
  -1   8  -7   65.52    8.33
  -1   8  -7   62.15    8.65
  -1   8  -8   62.10    9.38
  -1   8  -8   53.47    7.90
  -1   8  -9   12.95    5.52
  -1   8  -9    1.38    3.64
  -1   8 -10   74.73   10.23
  -1   8 -10   57.94    9.09
  -1   8 -11  113.86   12.13
  -1   8 -11  120.20   13.01
  -1   8 -11  124.15   13.11
  -1   8 -12    4.49    3.80
  -1   8 -12   10.46    5.45
  -1   8 -13   48.54    8.98
  -1   8 -13   61.23    9.93
  -1   8 -14   25.01    7.11
  -1   8 -15   28.98    8.57
   1  -7 -16   88.71   14.01
  -1   7  15   13.30    5.75
   1  -7 -15   13.60    6.28
  -1   7  14   35.83    8.50
   1  -7 -14   35.75    9.37
   1  -7 -13    8.49    5.83
  -1   7  13   -1.09    4.88
   1  -7 -12  252.99   20.03
  -1   7  12  269.76   19.44
   1  -7 -11    6.64    4.98
  -1   7  11   13.90    5.29
   1  -7 -10   16.92    6.53
  -1   7  10   23.58    5.96
  -1   7   9    9.64    4.96
   1  -7  -9    2.14    4.18
  -1   7   8  553.79   24.60
   1  -7  -8  551.13   26.52
   1  -7  -7    6.00    4.16
  -1   7   7   10.78    3.94
  -1   7   7   19.05    4.03
  -1   7   6    3.37    3.83
   1  -7  -6   10.23    4.81
  -1   7   6   10.81    3.04
  -1   7   5   -3.06    3.60
   1  -7  -5    2.22    3.52
   1  -7  -5    1.42    1.44
  -1   7   5    1.83    2.39
  -1   7   4  226.72   12.53
   1  -7  -4  225.02   14.60
  -1   7   3   60.67    6.52
  -1   7   2  528.80   20.33
   1  -7  -1    5.41    3.42
  -1   7   1    1.65    2.94
  -1   7   0  305.09   10.96
   1  -7   0  313.79   16.38
  -1   7   0  294.25   15.48
  -1   7  -1   33.23    5.64
  -1   7  -1   27.98    3.61
   1  -7   1   24.10    5.02
  -1   7  -2 1329.64   37.86
  -1   7  -2 1363.33   31.31
  -1   7  -3   94.29    9.58
  -1   7  -3  101.51    7.49
  -1   7  -4    5.89    4.69
  -1   7  -4   12.48    3.54
  -1   7  -5   52.48    7.53
  -1   7  -5   42.33    6.12
  -1   7  -6  987.59   30.68
  -1   7  -6  996.25   33.64
  -1   7  -7   -5.08    4.66
  -1   7  -7   -2.00    3.00
  -1   7  -8    1.95    3.55
  -1   7  -8   -0.19    2.93
  -1   7  -9   11.69    4.99
  -1   7  -9   12.25    4.88
  -1   7 -10  189.96   15.08
  -1   7 -10  176.69   14.55
  -1   7 -11   30.77    7.09
  -1   7 -11   22.01    6.80
  -1   7 -11   28.44    7.05
  -1   7 -12  382.88   22.53
  -1   7 -12  299.91   19.76
  -1   7 -13    4.74    3.94
  -1   7 -13   15.29    6.23
  -1   7 -14   38.15    8.27
  -1   7 -15    1.88    5.00
  -1   7 -16  122.80   15.32
   1  -6 -16    1.13    5.15
  -1   6  15    4.36    5.02
   1  -6 -15   -0.84    4.95
   1  -6 -14    3.27    4.80
  -1   6  14    0.17    3.80
   1  -6 -13  258.06   20.48
  -1   6  13  301.19   20.91
   1  -6 -12    4.05    3.32
  -1   6  12    8.47    4.34
   1  -6 -12   -6.68    5.19
   1  -6 -11   67.31    7.82
  -1   6  11   71.55    9.98
   1  -6 -11   60.72    9.07
  -1   6  10   16.72    5.44
   1  -6 -10   12.48    5.27
   1  -6 -10   18.32    4.39
   1  -6  -9   29.17    4.79
   1  -6  -9   34.27    6.77
  -1   6   9   20.66    5.14
  -1   6   8   17.43    5.44
   1  -6  -8   19.87    5.55
   1  -6  -8   26.29    4.13
  -1   6   7  320.49   12.91
  -1   6   7  327.06   16.94
   1  -6  -7  296.47   17.40
   1  -6  -7  303.86   12.62
   1  -6  -6   67.53    5.21
  -1   6   6   66.15    7.61
   1  -6  -6   66.91    8.19
  -1   6   5  142.53   10.73
   1  -6  -5  168.97   12.07
   1  -6  -5  164.30    7.52
   1  -6  -4  107.24    5.56
   1  -6  -4  109.25    9.59
   1  -6  -3  317.43   15.93
  -1   6   2   49.22    5.25
   1  -6  -2   41.94    5.66
  -1   6   1   87.10    7.44
   1  -6  -1  100.32    8.57
   1  -6   0  172.00   11.06
  -1   6   0  177.23   10.88
  -1   6   0  175.93    7.52
  -1   6  -1  277.73   10.43
  -1   6  -1  271.41   13.92
   1  -6   1  268.74   13.97
   1  -6   2   45.42    6.15
  -1   6  -2   51.95    4.79
  -1   6  -2   43.40    5.77
  -1   6  -3 1091.10   32.12
  -1   6  -3 1092.47   27.47
  -1   6  -4    0.19    1.82
  -1   6  -4   -1.19    3.67
  -1   6  -5  453.03   20.07
  -1   6  -5  498.42   18.86
  -1   6  -6    7.07    3.45
  -1   6  -6    5.49    3.46
  -1   6  -7  353.50   17.67
  -1   6  -7  371.36   18.65
  -1   6  -8   86.62    9.12
  -1   6  -8   91.64    9.35
  -1   6  -9   11.80    4.55
  -1   6  -9    4.71    3.92
  -1   6 -10    8.85    4.46
  -1   6 -10    0.79    3.58
  -1   6 -11  452.61   23.53
  -1   6 -11  431.27   21.99
  -1   6 -12    2.43    3.59
  -1   6 -12    3.07    2.95
  -1   6 -13   48.15    8.86
  -1   6 -14   28.37    7.99
  -1   6 -15  290.32   22.12
  -1   6 -16    2.07    5.46
   1  -5 -17   18.65    6.98
   1  -5 -16    6.49    4.50
   1  -5 -16    4.00    6.13
  -1   5  16    2.65    5.35
   1  -5 -15    5.41    4.92
  -1   5  15    6.30    5.02
   1  -5 -15   -3.99    4.69
  -1   5  14  106.86   12.60
   1  -5 -14  100.60   11.07
   1  -5 -14  101.73   12.79
  -1   5  13    8.48    6.50
   1  -5 -13   12.76    6.10
   1  -5 -13   12.68    4.66
   1  -5 -12   35.75    6.42
  -1   5  12   37.11    7.16
   1  -5 -12   30.75    6.94
   1  -5 -11   21.83    6.03
   1  -5 -11   24.55    5.18
  -1   5  11   28.32    6.95
   1  -5 -10   63.45    7.23
   1  -5 -10   51.99    8.44
  -1   5  10   71.53    9.04
  -1   5   9  139.40   11.39
   1  -5  -9  124.36   11.69
   1  -5  -9  142.59    9.94
   1  -5  -8  171.88   13.01
   1  -5  -8  177.22   10.29
  -1   5   8  175.79   12.44
  -1   5   7    7.76    4.04
   1  -5  -7    5.20    3.13
   1  -5  -7    7.40    2.30
  -1   5   7    5.11    1.73
   1  -5  -6    1.61    1.54
   1  -5  -6   -3.24    2.97
  -1   5   6    4.08    3.31
   1  -5  -5    7.20    1.90
   1  -5  -5    4.25    3.33
  -1   5   5   10.68    3.93
   1  -5  -4 1826.56   43.26
   1  -5  -4 1871.48   33.67
   1  -5  -3    3.11    0.89
   1  -5  -3    5.35    2.85
   1  -5  -2  886.97   25.11
  -1   5   1  207.63   10.40
   1  -5  -1  196.99   10.90
   1  -5   0  159.03    9.74
  -1   5   0  156.25    9.53
  -1   5   0  166.92    6.58
   1  -5   1   37.77    4.98
  -1   5  -1   39.87    3.60
  -1   5  -1   35.54    4.89
  -1   5  -2 1394.49   29.55
  -1   5  -2 1376.81   34.21
  -1   5  -3  488.45   18.74
  -1   5  -3  511.33   16.31
  -1   5  -4   79.15    6.63
  -1   5  -4   83.79    7.77
  -1   5  -5    1.22    2.42
  -1   5  -5    0.92    2.93
  -1   5  -6  874.86   27.51
  -1   5  -6  821.38   26.17
  -1   5  -7  182.77   12.12
  -1   5  -7  196.19   12.49
  -1   5  -8   56.82    7.28
  -1   5  -8   55.51    7.07
  -1   5  -9   47.66    6.66
  -1   5  -9   50.54    7.49
  -1   5 -10  232.27   15.52
  -1   5 -10  251.29   15.19
  -1   5 -10  269.24   17.29
  -1   5 -11   69.66    8.69
  -1   5 -11   80.66    9.87
  -1   5 -12   27.28    5.55
  -1   5 -12   32.78    7.07
  -1   5 -13   40.77    8.25
  -1   5 -14   15.18    6.18
  -1   5 -15  109.90   13.61
  -1   5 -16  101.31   13.59
  -1   5 -17    0.35    4.50
   1  -4 -18   36.17    8.78
   1  -4 -17  167.30   16.48
  -1   4  16   33.83    8.41
   1  -4 -16   30.26    7.13
  -1   4  15   32.29    8.07
   1  -4 -15   25.70    6.67
   1  -4 -14   34.38    6.83
  -1   4  14   35.75    8.17
   1  -4 -13  231.27   15.91
  -1   4  13  220.61   17.15
   1  -4 -12  516.52   23.02
  -1   4  12  507.00   25.15
   1  -4 -11  365.53   18.04
  -1   4  11  370.52   20.26
  -1   4  10   22.94    5.74
   1  -4 -10   23.54    4.81
  -1   4   9  265.32   15.65
   1  -4  -9  275.16   13.91
  -1   4   8   51.50    3.25
  -1   4   8   49.11    6.80
   1  -4  -8   47.69    5.31
   1  -4  -7  296.53   15.53
  -1   4   7  332.55   15.74
   1  -4  -7  329.05   13.00
  -1   4   7  313.31    9.60
   1  -4  -6   19.92    4.22
  -1   4   6   24.22    4.58
   1  -4  -6   27.57    3.58
  -1   4   5  993.07   26.99
   1  -4  -5  983.91   22.14
   1  -4  -5  959.59   27.67
  -1   4   4  323.12   13.77
   1  -4  -4  346.86   10.12
   1  -4  -4  354.62   14.68
   1  -4  -3 3628.23   56.69
   1  -4  -3 3600.67   66.53
   1  -4  -2  590.80   11.78
  -1   4   2  602.34   16.79
   1  -4  -2  608.84   18.60
  -1   4   1 2324.14   44.11
  -1   4   0  132.92    5.21
  -1   4   0  130.35    7.65
  -1   4  -1   14.28    2.14
  -1   4  -1   14.64    3.17
  -1   4  -2   30.12    4.33
  -1   4  -2   40.80    3.76
  -1   4  -3  550.25   18.39
  -1   4  -3  548.09   16.38
  -1   4  -4   62.53    5.69
  -1   4  -4   54.39    5.86
  -1   4  -5   56.66    5.85
  -1   4  -5   55.82    6.01
  -1   4  -6  774.19   24.31
  -1   4  -6  771.88   24.35
  -1   4  -7   44.40    5.80
  -1   4  -7   46.43    6.38
  -1   4  -8   26.13    4.82
  -1   4  -8   29.63    5.56
  -1   4  -9  319.07   15.86
  -1   4  -9  316.37   16.93
  -1   4  -9  289.25   16.86
  -1   4 -10   91.68    9.80
  -1   4 -10  124.60   10.06
  -1   4 -11   39.24    5.91
  -1   4 -11   38.48    7.21
  -1   4 -12  323.05   17.05
  -1   4 -12  304.84   19.26
  -1   4 -13  164.75   14.99
  -1   4 -14   53.33    9.80
  -1   4 -15   40.14    9.26
  -1   4 -16   37.73    9.36
  -1   4 -17   60.70   11.97
   1  -3 -19   12.25    6.82
   1  -3 -18  202.83   18.63
   1  -3 -17   30.95    8.01
  -1   3  17   31.60    8.22
   1  -3 -16   44.03    8.52
  -1   3  16   45.34    9.00
   1  -3 -15   35.84    7.82
  -1   3  15   15.82    6.30
  -1   3  14  110.47   12.31
   1  -3 -14   94.00   11.06
  -1   3  13   51.40    8.48
   1  -3 -13   34.61    6.95
   1  -3 -12   94.36    9.66
  -1   3  12   81.48   10.19
   1  -3 -11   -2.36    3.22
  -1   3  11    3.76    4.12
  -1   3  10  226.69   14.86
   1  -3 -10  245.85   13.90
  -1   3   9   97.65    9.56
   1  -3  -9   93.66    8.09
   1  -3  -8  130.32    8.74
  -1   3   8  127.74    9.97
   1  -3  -7   81.69    6.40
  -1   3   7   75.42    3.12
  -1   3   7   86.06    7.67
  -1   3   6    8.03    1.27
   1  -3  -6    9.98    2.47
  -1   3   6    9.03    3.04
  -1   3   5  684.18   20.67
   1  -3  -5  668.95   17.48
  -1   3   5  719.76   15.07
  -1   3   4 1508.78   27.05
  -1   3   4 1449.48   32.09
   1  -3  -4 1458.87   32.75
   1  -3  -4 1412.51   27.48
   1  -3  -3    0.88    1.58
   1  -3  -3    0.25    0.93
  -1   3   3    1.03    1.73
  -1   3   3    1.19    1.24
   1  -3  -2  834.11   20.93
  -1   3   2  863.94   19.16
   1  -3  -2  856.65   14.66
  -1   3   1   21.45    2.77
  -1   3   0  355.76   11.71
  -1   3   0  362.46    8.32
  -1   3  -1   17.74    2.10
  -1   3  -1   18.65    3.04
  -1   3  -2  769.06   20.07
  -1   3  -2  755.14   17.70
  -1   3  -3 1050.92   24.09
  -1   3  -3 1066.82   25.60
  -1   3  -4  417.82   14.88
  -1   3  -4  424.09   14.49
  -1   3  -5  150.82    8.93
  -1   3  -5  158.99    9.19
  -1   3  -6 1081.73   29.10
  -1   3  -6 1053.62   27.45
  -1   3  -7   18.63    4.04
  -1   3  -7   27.09    4.06
  -1   3  -8  377.28   17.28
  -1   3  -8  333.04   14.77
  -1   3  -9  688.39   22.67
  -1   3  -9  679.54   25.27
  -1   3 -10  265.36   13.76
  -1   3 -10  268.99   16.38
  -1   3 -11  307.33   15.10
  -1   3 -11  308.66   18.30
  -1   3 -12  451.70   23.46
  -1   3 -13    2.97    4.50
  -1   3 -14   49.74    9.38
  -1   3 -15    4.15    4.00
  -1   3 -16   43.96    9.42
  -1   3 -17   46.66   10.62
   1  -2 -19   67.37   11.67
   1  -2 -18    7.99    5.62
  -1   2  17   13.02    6.64
   1  -2 -17   17.12    7.27
   1  -2 -16   11.46    4.71
  -1   2  16   23.72    7.10
  -1   2  15  165.94   15.35
   1  -2 -15  176.56   15.44
  -1   2  14    4.40    4.10
   1  -2 -14   -0.83    3.71
   1  -2 -13   15.29    5.25
  -1   2  13   17.49    6.15
   1  -2 -12   80.99    9.46
  -1   2  12   95.76   10.39
  -1   2  11  577.06   25.10
   1  -2 -11  595.47   23.82
   1  -2 -10  231.59   13.66
  -1   2  10  229.21   14.82
   1  -2  -9   16.79    4.17
  -1   2   9   16.51    4.43
   1  -2  -8   34.10    4.89
  -1   2   8   24.07    4.52
  -1   2   7  508.68   18.75
   1  -2  -7  465.92   16.40
  -1   2   6   18.48    3.93
   1  -2  -6   17.79    3.31
   1  -2  -5   74.70    5.15
  -1   2   5   86.78    6.45
   1  -2  -4   61.78    4.05
  -1   2   4   69.73    5.28
  -1   2   4   62.96    2.79
   1  -2  -3    7.79    1.46
  -1   2   3    5.29    2.25
  -1   2   3    6.20    1.01
   1  -2  -3    5.57    1.82
   1  -2  -2  301.21    6.48
  -1   2   2  311.16    8.30
  -1   2   2  294.44    9.86
   1  -2  -2  282.50    9.39
   1  -2  -1  295.00    8.99
  -1   2   1  296.91    8.69
  -1   2   0 1990.77   35.36
  -1   2   0 2017.99   31.23
  -1   2  -1  599.72   14.87
  -1   2  -1  587.06   12.77
  -1   2  -2 1162.29   23.06
  -1   2  -2 1131.89   24.24
  -1   2  -3   39.88    3.73
  -1   2  -3   37.09    3.83
  -1   2  -4    2.34    1.64
  -1   2  -4    5.98    2.46
  -1   2  -5 1632.87   35.17
  -1   2  -5 1611.22   35.66
  -1   2  -5 1625.91   33.96
  -1   2  -6   27.87    4.17
  -1   2  -6   29.80    3.65
  -1   2  -7  129.43    9.22
  -1   2  -7  123.08    7.77
  -1   2  -8  165.60    9.37
  -1   2  -8  161.84   11.00
  -1   2  -9  793.42   27.32
  -1   2  -9  780.35   23.02
  -1   2 -10    3.50    2.48
  -1   2 -10   -2.90    4.10
  -1   2 -11   23.02    6.29
  -1   2 -11   12.80    3.14
  -1   2 -12   -0.27    3.82
  -1   2 -13  264.01   18.48
  -1   2 -14    5.59    5.24
  -1   2 -15    6.49    5.65
  -1   2 -16    0.45    5.38
  -1   2 -17   45.98    9.92
   1  -1 -19   38.32    9.81
   1  -1 -18   -0.75    4.37
   1  -1 -17    2.15    4.28
  -1   1  17   13.15    6.17
   1  -1 -16   58.22   10.01
  -1   1  16   61.44   10.26
  -1   1  15   23.02    6.89
   1  -1 -15   32.19    7.92
  -1   1  14   11.02    5.12
   1  -1 -14   12.48    5.01
   1  -1 -13   16.56    5.64
  -1   1  13   17.42    5.86
  -1   1  12  299.53   18.32
   1  -1 -12  348.06   18.87
  -1   1  11    5.63    3.52
   1  -1 -11    7.57    3.65
  -1   1  10  381.83   18.85
   1  -1 -10  380.20   17.73
  -1   1   9  229.67   13.60
   1  -1  -9  232.88   12.90
  -1   1   8  114.57    9.17
   1  -1  -8  123.36    8.57
   1  -1  -7   95.16    6.94
  -1   1   7   77.87    7.25
   1  -1  -6 1291.79   28.75
  -1   1   6 1293.90   31.37
   1  -1  -5   63.07    4.70
  -1   1   5   61.84    5.55
   1  -1  -4  161.97    6.63
  -1   1   4  164.91    8.08
  -1   1   3  177.26    7.61
   1  -1  -3  181.79    6.02
  -1   1   2 3910.62   62.15
  -1   1   2 3936.20   58.54
   1  -1  -2 3991.77   58.90
  -1   1  -2 1760.54   31.02
  -1   1  -2 1686.66   30.64
  -1   1  -3  249.63    8.73
  -1   1  -3  262.65    9.29
  -1   1  -4 1983.39   36.65
  -1   1  -4 2003.68   38.56
  -1   1  -5   80.21    6.22
  -1   1  -5   88.07    5.50
  -1   1  -6  115.97    6.64
  -1   1  -6  111.09    7.95
  -1   1  -7  127.14    7.19
  -1   1  -7  113.80    8.61
  -1   1  -7  108.79    3.67
  -1   1  -8  746.70   20.49
  -1   1  -8  731.99   24.71
  -1   1  -9    0.78    1.92
  -1   1  -9    1.79    3.02
  -1   1 -10    5.40    4.19
  -1   1 -10    0.99    1.63
  -1   1 -11   95.32   10.35
  -1   1 -12  417.30   22.34
  -1   1 -13    3.12    4.19
  -1   1 -14    7.33    4.74
  -1   1 -15   32.90    7.98
  -1   1 -16   51.39   10.15
  -1   1 -17    0.81    5.91
  -1   1 -18   63.55   11.88
   1   0 -19   41.05    8.99
   1   0 -18    5.33    5.16
   1   0 -17    6.79    5.31
   1   0 -16   87.79   11.99
   1   0 -15  151.11   14.53
  -1   0  15  152.17   14.61
  -1   0  14   14.61    5.68
   1   0 -14    7.85    5.30
  -1   0  13   47.98    8.33
   1   0 -13   53.03    8.07
  -1   0  12   52.30    8.13
   1   0 -12   41.63    7.29
   1   0 -11  810.75   28.93
  -1   0  11  823.12   29.76
   1   0 -10   18.97    4.78
  -1   0  10    9.34    3.98
  -1   0   9  149.11   10.89
   1   0  -9  157.74   10.55
   1   0  -9  151.34    5.27
   1   0  -8    0.87    0.70
   1   0  -8    0.92    2.51
  -1   0   8   -0.24    2.58
  -1   0   7  620.86   21.17
   1   0  -7  646.03   12.94
   1   0  -7  665.12   20.47
   1   0  -6   93.66    3.57
  -1   0   6   96.07    3.37
   1   0  -6   89.55    6.48
  -1   0   6   96.71    7.32
  -1   0   5  122.34    4.06
  -1   0   5  113.56    7.25
   1   0  -5  114.94    3.81
   1   0  -5  109.91    6.51
  -1   0   4   54.65    2.72
   1   0  -4   52.89    4.07
  -1   0   4   49.04    4.62
   1   0  -3    0.68    1.58
  -1   0   3    1.81    2.34
  -1   0   3    2.45    1.23
  -1   0  -2   58.19    3.54
  -1   0  -2   60.73    3.06
  -1   0  -2   58.07    3.86
   1   0   2   69.33    2.82
  -1   0  -3 9850.50  143.02
   1   0   3 9999.00  144.55
  -1   0  -3 9507.22  147.91
  -1   0  -3 9550.09  145.75
   1   0   4  875.17   18.91
  -1   0  -4  823.28   20.98
  -1   0  -4  832.11   18.60
  -1   0  -4  868.27   15.68
  -1   0  -5   15.70    3.43
  -1   0  -5   10.22    2.21
   1   0   5   13.79    2.58
  -1   0  -5    7.58    1.03
   1   0   6    5.56    3.07
  -1   0  -6    4.29    2.69
  -1   0  -6    4.89    1.70
  -1   0  -6    4.04    0.71
  -1   0  -7  172.59   10.54
  -1   0  -7  168.17    8.02
   1   0   7  186.60    9.72
  -1   0  -8   72.07    7.16
  -1   0  -8   58.94    5.04
   1   0   8   62.98    6.08
   1   0   9    8.52    3.67
  -1   0  -9   10.84    2.69
  -1   0  -9    4.98    3.52
   1   0  10   18.02    4.55
  -1   0 -10    6.11    4.16
  -1   0 -10    7.49    2.28
   1   0  11   68.94    7.85
  -1   0 -11   57.54    8.36
  -1   0 -12   16.96    5.80
  -1   0 -13  194.41   15.94
  -1   0 -14    8.49    5.47
  -1   0 -15   51.14    8.94
  -1   0 -16    9.41    4.75
  -1   0 -17  117.88   14.73
  -1   0 -18   10.77    5.42
   1   1 -18   14.10    6.01
   1   1 -17    6.64    5.20
   1   1 -16  219.57   18.51
   1   1 -15   12.63    5.70
   1   1 -14    0.90    3.85
   1   1 -13   22.98    6.70
   1   1 -12  312.87   18.28
  -1  -1  12  329.40   19.17
  -1  -1  11    9.85    4.24
   1   1 -11   11.25    4.76
   1   1 -10  225.02   13.96
  -1  -1  10  237.69   14.53
   1   1 -10  227.35    8.83
  -1  -1   9   43.75    6.45
   1   1  -9   31.80    3.25
   1   1  -9   37.24    6.04
   1   1  -8    1.58    1.08
   1   1  -8   -3.25    2.81
  -1  -1   8    3.00    2.86
  -1  -1   8    1.38    0.68
  -1  -1   7   70.11    3.36
   1   1  -7   59.48    5.99
   1   1  -7   77.73    4.59
  -1  -1   7   84.58    7.39
  -1  -1   6  509.85   17.71
   1   1  -6  518.85   13.13
  -1  -1   6  528.23   11.57
   1   1  -6  534.07   17.44
   1   1  -5  278.74   11.14
  -1  -1   5  254.64   11.09
  -1  -1   5  255.68    7.33
  -1  -1   4  262.67   10.36
  -1  -1   4  262.07    7.47
   1   1  -4  256.94    9.81
  -1  -1   3 1295.90   26.41
  -1  -1   3 1295.32   23.35
  -1  -1   2 1116.89   20.78
  -1  -1  -1  417.98   10.60
  -1  -1  -1  417.35   10.21
  -1  -1  -2 3974.68   61.66
  -1  -1  -2 3930.71   63.64
   1   1   2 4156.29   60.23
   1   1   3   18.28    2.03
  -1  -1  -3   16.04    2.69
  -1  -1  -3   15.35    1.89
   1   1   4 2186.15   39.71
  -1  -1  -4 2291.43   37.36
  -1  -1  -4 2289.65   42.96
  -1  -1  -5  676.75   14.05
   1   1   5  664.99   17.65
  -1  -1  -5  677.59   19.63
   1   1   6  104.79    6.91
  -1  -1  -6   88.65    7.08
  -1  -1  -6   85.35    3.82
  -1  -1  -7   68.14    3.09
  -1  -1  -7   89.48    7.64
   1   1   7   96.27    7.04
   1   1   8  682.57   21.75
  -1  -1  -8  641.37   23.13
  -1  -1  -9  123.67   10.20
   1   1   9  115.71    9.01
  -1  -1 -10   -2.63    3.63
   1   1  10    3.75    2.78
  -1  -1 -11   19.41    4.66
   1   1  11   23.33    4.94
  -1  -1 -12  524.83   25.27
   1   1  12  542.52   23.23
  -1  -1 -13   62.00    9.21
   1   1  13   74.62    8.93
  -1  -1 -14   96.11   11.70
  -1  -1 -15   11.16    6.13
  -1  -1 -16  223.98   19.35
  -1  -1 -17    6.28    5.62
  -1  -1 -18   10.90    6.85
   1   2 -18    7.76    6.31
   1   2 -17   49.64   10.00
   1   2 -16   -4.91    4.84
   1   2 -15   68.12   10.33
   1   2 -14   50.70    8.53
   1   2 -13   41.87    7.81
   1   2 -12    2.77    3.67
   1   2 -11  664.39   26.51
   1   2 -11  623.45   18.72
   1   2 -10  139.44    8.05
   1   2 -10  131.22   10.95
   1   2  -9  142.48    7.81
  -1  -2   9  144.23    5.79
   1   2  -9  138.88   10.68
   1   2  -8   10.91    3.22
   1   2  -8   19.22    3.02
  -1  -2   8   18.19    2.22
   1   2  -7  860.84   25.94
  -1  -2   7  919.61   19.59
   1   2  -7  924.32   22.22
  -1  -2   6  121.34    5.81
   1   2  -6  118.37    8.16
   1   2  -5 1632.95   35.55
  -1  -2   5 1672.11   31.05
   1   2  -4   49.33    4.84
  -1  -2   4   45.90    3.57
  -1  -2   3 1559.16   29.51
  -1  -2   2  381.48   11.11
  -1  -2   1  876.51   19.24
  -1  -2   0  518.78   13.06
  -1  -2   0  537.04   13.27
  -1  -2   0  512.95   13.57
  -1  -2  -1    5.38    1.69
  -1  -2  -1    4.33    1.70
  -1  -2  -1    3.81    1.83
  -1  -2  -2  575.64   15.65
  -1  -2  -2  576.93   14.77
  -1  -2  -2  580.49   14.65
   1   2   3  178.63    6.90
  -1  -2  -3  181.26    7.98
  -1  -2  -3  171.41    7.16
   1   2   4 1232.15   25.51
  -1  -2  -4 1204.28   27.35
  -1  -2  -4 1219.54   24.70
  -1  -2  -5  237.32    8.49
   1   2   5  256.93   10.19
  -1  -2  -5  242.19   11.17
  -1  -2  -6  333.28   10.20
   1   2   6  350.88   13.33
  -1  -2  -6  350.67   14.49
  -1  -2  -7  267.90    8.71
   1   2   7  259.85   12.25
  -1  -2  -7  273.72   13.56
   1   2   8  177.93   10.70
  -1  -2  -8  187.73   11.73
  -1  -2  -8  177.18    6.46
   1   2   9   21.77    5.02
  -1  -2  -9   18.07    4.79
   1   2  10    3.81    3.42
  -1  -2 -10   -2.73    3.35
   1   2  11  134.93   11.04
  -1  -2 -11  119.09   11.23
  -1  -2 -12   15.71    5.17
   1   2  12    6.47    3.13
  -1  -2 -13  291.63   19.43
   1   2  13  290.55   17.60
  -1  -2 -14    4.79    5.14
  -1  -2 -15   49.26    9.12
  -1  -2 -16   26.50    7.65
  -1  -2 -17   88.60   13.01
  -1  -2 -18   92.53   14.30
   1   3 -18   20.66    7.63
   1   3 -17    8.24    5.83
   1   3 -16   99.88   13.13
   1   3 -15   -0.17    4.56
   1   3 -14   16.96    5.73
   1   3 -13   74.36   10.24
   1   3 -12  466.76   23.59
   1   3 -11   22.45    5.99
   1   3 -11   24.03    4.20
   1   3 -10   25.33    5.82
   1   3 -10   19.47    3.54
   1   3  -9    0.75    3.48
  -1  -3   9    1.36    1.26
   1   3  -9    8.24    2.86
   1   3  -8  529.48   21.25
  -1  -3   8  545.48   15.69
   1   3  -8  533.28   18.00
   1   3  -7   55.68    6.60
   1   3  -7   63.18    5.86
  -1  -3   7   61.98    4.82
   1   3  -6  674.49   22.04
  -1  -3   6  724.43   18.72
   1   3  -5  292.45   12.76
  -1  -3   5  272.20   10.58
   1   3  -4  113.93    7.51
  -1  -3   4  113.35    6.56
  -1  -3   3 1420.86   29.88
  -1  -3   2 2839.67   50.98
  -1  -3   1  398.33   13.04
  -1  -3   0   44.45    4.44
  -1  -3  -1  788.60   18.51
  -1  -3  -1  821.33   20.32
  -1  -3  -1  775.77   20.08
  -1  -3  -2    3.65    2.27
  -1  -3  -2    3.68    2.14
  -1  -3  -2    1.67    1.78
  -1  -3  -3  382.84   12.78
  -1  -3  -3  395.64   14.48
  -1  -3  -3  396.73   13.22
  -1  -3  -4  628.37   18.05
   1   3   4  631.35   17.21
  -1  -3  -4  627.53   17.40
  -1  -3  -4  618.70   19.98
  -1  -3  -5    4.18    1.86
  -1  -3  -5    2.30    2.24
   1   3   5    3.10    1.71
  -1  -3  -6  502.92   15.13
  -1  -3  -6  491.11   17.76
   1   3   6  520.37   17.06
  -1  -3  -7  226.26   12.40
  -1  -3  -7  217.82    9.29
   1   3   7  236.38   11.69
  -1  -3  -8  238.99    9.48
  -1  -3  -8  246.47   13.60
   1   3   8  254.72   13.14
   1   3   9   84.43    8.15
  -1  -3  -9   82.11    8.36
  -1  -3 -10    9.34    4.56
   1   3  10   11.56    3.85
  -1  -3 -11   24.94    5.94
   1   3  11   24.27    5.31
   1   3  12  244.48   15.99
  -1  -3 -12  228.47   16.28
  -1  -3 -13   65.56    9.43
  -1  -3 -14   52.30    8.75
  -1  -3 -15    4.24    4.08
  -1  -3 -16   74.76   11.41
  -1  -3 -17   36.46    8.58
   1   4 -18   19.68    7.59
   1   4 -17   33.23    8.98
   1   4 -16    1.98    4.57
   1   4 -15  127.83   14.22
   1   4 -15  107.11   13.28
   1   4 -14    0.78    3.86
   1   4 -13  116.00   12.48
   1   4 -12  102.49    8.86
   1   4 -12  105.92   11.35
   1   4 -11  135.86   10.03
   1   4 -11  116.93   11.75
   1   4 -10  388.67   20.23
   1   4 -10  376.17   16.79
  -1  -4   9  572.72   17.96
   1   4  -9  549.41   20.42
   1   4  -9  540.16   23.06
   1   4  -8   91.03    8.99
   1   4  -8  101.79    8.23
  -1  -4   8  105.69    7.18
   1   4  -7  230.82   12.18
  -1  -4   7  259.48   11.65
   1   4  -7  278.37   14.46
   1   4  -6  112.05    8.94
  -1  -4   6  118.55    7.67
   1   4  -5  133.97    9.02
  -1  -4   5  134.69    8.23
  -1  -4   4 1148.50   27.91
  -1  -4   3  378.70   14.32
  -1  -4   2   72.05    6.22
  -1  -4   1  128.78    8.05
  -1  -4   0   27.89    4.23
  -1  -4  -1  351.55   13.71
  -1  -4  -1  342.03   13.48
  -1  -4  -1  331.57   11.81
  -1  -4  -2    2.90    1.78
  -1  -4  -2    2.34    2.67
  -1  -4  -2    1.30    2.38
  -1  -4  -3   35.53    4.11
  -1  -4  -3   41.99    5.40
  -1  -4  -3   39.64    4.77
  -1  -4  -4   98.00    6.75
  -1  -4  -4  100.52    7.19
  -1  -4  -4  100.16    7.96
   1   4   4  100.56    6.81
  -1  -4  -5 2924.34   57.07
   1   4   5 3074.22   56.93
  -1  -4  -5 2988.16   61.59
  -1  -4  -5 3012.86   56.54
   1   4   6   55.34    5.64
  -1  -4  -6   34.70    4.64
  -1  -4  -6   34.52    5.41
  -1  -4  -6   46.13    5.10
   1   4   7  551.56   19.60
  -1  -4  -7  559.69   17.70
  -1  -4  -7  515.41   19.52
  -1  -4  -7  523.82   22.36
   1   4   8   44.65    5.74
  -1  -4  -8   36.40    5.89
  -1  -4  -8   46.72    4.80
   1   4   9  116.90    9.95
  -1  -4  -9  123.62   10.40
  -1  -4 -10   77.77    8.66
   1   4  10   79.03    8.55
   1   4  11  130.61   11.51
  -1  -4 -11  144.15   12.14
   1   4  12   -3.32    3.51
  -1  -4 -12   11.38    4.86
  -1  -4 -13    2.81    3.67
  -1  -4 -14   25.16    6.75
  -1  -4 -15  121.41   13.81
  -1  -4 -16   18.86    6.72
  -1  -4 -17    5.49    5.64
   1   5 -17   -0.18    4.94
   1   5 -16   58.32   10.19
   1   5 -15   15.66    5.93
   1   5 -14   59.11    9.75
   1   5 -13   78.89   11.04
   1   5 -12  120.65   12.86
   1   5 -12  119.63   10.45
   1   5 -11   64.58    7.54
   1   5 -11   58.07    8.81
   1   5 -10  163.53   13.46
   1   5 -10  176.79   12.22
  -1  -5   9  169.21   10.35
   1   5  -9  167.52   11.87
   1   5  -9  185.02   13.63
   1   5  -8  103.09    9.08
   1   5  -8  118.06   10.46
  -1  -5   8  112.82    8.23
   1   5  -7  133.85   10.60
  -1  -5   7  119.47    8.74
   1   5  -7  125.05    9.62
  -1  -5   6  133.09    9.17
   1   5  -6  125.37    9.67
   1   5  -5   20.66    4.22
  -1  -5   5   32.16    4.74
  -1  -5   4    0.91    2.33
  -1  -5   3  288.08   13.57
  -1  -5   2  735.06   22.89
  -1  -5   1  787.88   23.90
  -1  -5   0  620.59   20.86
  -1  -5  -1  245.87   12.43
  -1  -5  -2   29.31    5.08
  -1  -5  -2   28.93    4.97
  -1  -5  -2   21.44    3.21
  -1  -5  -3  546.20   20.54
  -1  -5  -3  576.11   19.94
  -1  -5  -3  576.35   17.53
  -1  -5  -4 1870.93   40.07
  -1  -5  -4 1867.96   42.51
  -1  -5  -4 2012.48   46.33
  -1  -5  -5  125.47   10.21
  -1  -5  -5  121.58    8.28
   1   5   5  130.13    8.84
  -1  -5  -5  116.89    8.66
  -1  -5  -6  452.97   17.68
   1   5   6  491.84   18.43
  -1  -5  -6  492.90   21.36
  -1  -5  -6  466.78   17.93
  -1  -5  -7   22.56    4.71
  -1  -5  -7   15.84    4.93
  -1  -5  -7   25.80    4.26
   1   5   7   24.43    4.28
  -1  -5  -8  897.86   28.47
   1   5   8  858.51   27.79
  -1  -5  -8  853.51   31.54
  -1  -5  -8  853.09   25.20
  -1  -5  -9   39.47    7.25
  -1  -5  -9   40.69    6.30
   1   5   9   35.18    5.76
  -1  -5  -9   37.13    4.88
  -1  -5 -10  236.90   17.40
   1   5  10  246.88   15.25
  -1  -5 -10  216.40   14.59
  -1  -5 -11   45.64    8.75
  -1  -5 -11   37.81    7.08
   1   5  11   40.02    7.12
  -1  -5 -12    1.75    5.06
  -1  -5 -12    4.64    3.84
  -1  -5 -13  107.22   11.85
  -1  -5 -13  113.32   14.20
  -1  -5 -14  219.76   19.73
  -1  -5 -14  205.42   16.91
  -1  -5 -15   20.86    5.78
  -1  -5 -15   15.75    6.37
  -1  -5 -16    6.05    6.14
  -1  -5 -16   15.05    6.47
  -1  -5 -17   14.05    6.21
   1   6 -17   -9.21    6.46
   1   6 -16   18.76    7.98
   1   6 -15   26.91    8.78
   1   6 -14    8.61    5.59
   1   6 -13   57.00   10.20
   1   6 -12    9.29    3.79
   1   6 -12   18.91    6.16
   1   6 -11   45.28    8.15
   1   6 -11   36.76    6.38
   1   6 -10    9.47    4.36
  -1  -6  10   10.46    3.42
   1   6 -10   -0.22    3.20
   1   6  -9  831.92   29.95
   1   6  -9  901.51   32.44
  -1  -6   9  886.47   27.85
  -1  -6   8   46.17    5.97
   1   6  -8   35.82    6.31
   1   6  -8   33.05    6.06
   1   6  -7    7.72    3.81
  -1  -6   7    6.55    3.20
   1   6  -7   12.90    4.21
   1   6  -6  329.72   16.61
  -1  -6   6  332.32   16.18
   1   6  -5 1325.22   35.75
  -1  -6   5 1323.05   35.78
  -1  -6   4    4.96    3.73
  -1  -6   3  205.62   12.60
  -1  -6   2  327.93   15.86
  -1  -6   1 1209.19   33.66
  -1  -6   0    7.73    3.95
  -1  -6  -1  482.21   19.63
  -1  -6  -2    6.25    3.07
  -1  -6  -2    6.42    3.52
  -1  -6  -2   10.18    2.79
  -1  -6  -3   44.90    4.92
  -1  -6  -3   52.73    6.50
  -1  -6  -3   34.06    5.78
  -1  -6  -4   23.30    4.03
  -1  -6  -4   16.45    4.25
  -1  -6  -4   25.29    5.49
  -1  -6  -5  144.61   11.69
  -1  -6  -5  153.45    9.67
  -1  -6  -5  152.80   10.94
   1   6   5  176.41   11.17
  -1  -6  -6    7.23    4.38
  -1  -6  -6    5.63    3.31
   1   6   6   14.22    3.98
  -1  -6  -6    7.53    3.10
   1   6   7   11.02    4.02
  -1  -6  -7    7.95    3.22
  -1  -6  -7    9.70    3.42
  -1  -6  -7    6.99    3.51
  -1  -6  -8    1.57    3.32
  -1  -6  -8    1.44    3.38
   1   6   8   -1.86    2.88
  -1  -6  -8    1.15    4.44
  -1  -6  -9    8.88    3.41
   1   6   9   10.31    3.77
  -1  -6  -9    8.53    4.41
  -1  -6  -9    3.79    3.33
   1   6  10   22.93    5.26
  -1  -6 -10   26.50    6.58
  -1  -6 -10   32.21    6.35
  -1  -6 -11    2.55    4.13
  -1  -6 -11   12.03    4.78
   1   6  11   27.91    6.03
  -1  -6 -12   19.96    5.50
  -1  -6 -12   11.29    5.33
  -1  -6 -13   10.00    5.01
  -1  -6 -13   10.80    6.24
  -1  -6 -14   29.52    7.81
  -1  -6 -14   58.10    9.82
  -1  -6 -15   58.96    9.69
  -1  -6 -15   79.53   12.89
   1   7 -16   24.95    8.21
   1   7 -16   26.18    8.08
   1   7 -15    1.24    4.27
   1   7 -14   54.86   10.85
   1   7 -13    1.38    4.17
   1   7 -12   23.52    5.95
   1   7 -12   27.51    7.21
   1   7 -11    4.58    3.68
   1   7 -11    1.25    3.95
  -1  -7  10  537.64   22.21
   1   7 -10  510.47   25.51
   1   7 -10  495.38   24.26
   1   7  -9    2.50    4.59
   1   7  -9    2.48    3.43
  -1  -7   9    2.23    3.93
   1   7  -8   50.32    7.41
  -1  -7   8   51.60    7.30
   1   7  -8   47.81    7.45
   1   7  -7   15.68    4.91
  -1  -7   7   16.34    4.66
   1   7  -7    8.12    4.29
   1   7  -6  371.90   18.56
  -1  -7   6  355.45   18.12
  -1  -7   5   -1.43    3.03
   1   7  -5   -1.49    2.87
   1   7  -4  217.23   12.75
  -1  -7   4  219.81   13.90
  -1  -7   3    4.79    3.52
  -1  -7   2   45.55    6.93
  -1  -7   1   80.93    8.91
  -1  -7   0  998.73   32.12
  -1  -7  -1  367.18   18.45
  -1  -7  -2    7.29    3.80
  -1  -7  -3   11.42    2.80
  -1  -7  -3   17.26    5.06
  -1  -7  -3    9.90    4.50
  -1  -7  -4  910.81   32.19
  -1  -7  -4  926.17   26.50
  -1  -7  -4  929.07   30.89
  -1  -7  -5    8.60    4.45
  -1  -7  -5    4.59    3.52
  -1  -7  -5    5.48    2.74
  -1  -7  -6    3.04    4.27
  -1  -7  -6    0.13    2.14
   1   7   6    2.25    3.46
  -1  -7  -6    1.94    3.37
  -1  -7  -7   23.16    5.07
   1   7   7   23.67    4.87
  -1  -7  -7   16.34    4.50
  -1  -7  -7   15.64    5.24
  -1  -7  -8   82.03    8.43
  -1  -7  -8   65.80    9.74
  -1  -7  -8   75.11    8.15
   1   7   8   73.01    8.33
  -1  -7  -9   22.44    6.73
  -1  -7  -9   19.33    4.74
   1   7   9   25.74    5.53
  -1  -7 -10  107.61   10.28
  -1  -7 -10  101.13   12.44
   1   7  10  105.06   10.71
  -1  -7 -11    2.52    3.00
  -1  -7 -11   -5.50    4.80
  -1  -7 -12   11.86    5.89
  -1  -7 -13   10.11    5.12
  -1  -7 -14  292.14   24.31
  -1  -7 -15   -1.67    5.34
   1   8 -16    5.57    4.87
   1   8 -15   88.65   13.31
   1   8 -14   -1.46    5.49
   1   8 -13   16.19    5.90
   1   8 -13   17.74    7.14
   1   8 -12   -1.56    3.83
   1   8 -12    6.78    4.80
   1   8 -11  114.13   12.34
   1   8 -11  127.51   13.79
  -1  -8  10   12.73    3.82
   1   8 -10   14.80    5.69
   1   8 -10   12.06    4.84
   1   8  -9  341.68   20.54
   1   8  -9  307.15   19.74
  -1  -8   9  338.83   19.03
   1   8  -8    6.15    3.57
   1   8  -8    6.01    4.25
  -1  -8   8   16.66    4.64
   1   8  -7   19.17    5.53
   1   8  -7   32.56    7.33
  -1  -8   7   24.62    5.53
  -1  -8   6    5.61    3.80
   1   8  -6   12.63    4.43
  -1  -8   5  676.59   27.47
   1   8  -5  698.33   26.23
  -1  -8   4  238.78   15.76
   1   8  -4  204.83   13.17
  -1  -8   3    0.14    3.92
  -1  -8   2   48.33    7.84
  -1  -8   1  279.54   16.95
  -1  -8   0   12.05    5.04
  -1  -8  -1   36.61    7.25
  -1  -8  -2  168.77   13.41
  -1  -8  -3   97.90   10.42
  -1  -8  -4   45.65    7.51
  -1  -8  -4   57.45    6.21
  -1  -8  -4   60.33    8.23
  -1  -8  -5  775.23   31.71
  -1  -8  -5  852.91   26.41
  -1  -8  -5  794.54   30.19
  -1  -8  -6   32.40    5.38
  -1  -8  -6   26.99    6.02
   1   8   6   36.71    6.26
  -1  -8  -6   47.52    7.77
  -1  -8  -7   51.93    9.10
  -1  -8  -7   53.06    7.98
   1   8   7   49.77    7.33
  -1  -8  -8    5.53    4.21
   1   8   8    5.76    3.67
  -1  -8  -8    3.55    3.85
  -1  -8  -9  301.39   21.52
   1   8   9  331.74   19.40
  -1  -8 -10   87.15   12.22
   1   8  10   83.56   10.38
  -1  -8 -11  114.59   14.27
  -1  -8 -12   23.15    7.40
  -1  -8 -13  222.53   20.99
  -1  -8 -14   52.40   11.11
   1   9 -15   17.20    7.20
   1   9 -14    4.09    4.55
   1   9 -13    5.38    4.69
   1   9 -13   13.45    6.46
   1   9 -12    9.26    5.85
   1   9 -12    0.96    4.77
   1   9 -11   13.93    6.20
   1   9 -11   22.58    6.58
   1   9 -10   88.65   11.98
   1   9 -10   75.58   10.56
   1   9  -9   -6.84    5.57
   1   9  -9    1.10    3.81
  -1  -9   9   -3.02    3.17
   1   9  -8    7.33    4.60
  -1  -9   8   12.49    4.80
   1   9  -8   13.84    5.56
  -1  -9   7   75.80    9.79
   1   9  -7   73.65   10.32
   1   9  -7   71.30    9.35
  -1  -9   6  162.68   14.00
   1   9  -6  166.21   13.19
   1   9  -6  146.17   13.78
   1   9  -5   32.93    6.18
  -1  -9   5   19.76    5.37
   1   9  -4   13.08    3.44
  -1  -9   4   16.91    5.26
  -1  -9   3   41.15    7.51
   1   9  -3   58.85    7.36
  -1  -9   2  108.10   11.67
  -1  -9   1   36.54    7.37
  -1  -9   0   53.26    8.54
  -1  -9  -1   29.89    6.53
  -1  -9  -2    8.50    4.42
  -1  -9  -3   14.76    5.46
  -1  -9  -4  431.46   22.84
  -1  -9  -5   76.98   10.25
  -1  -9  -5   83.07   10.26
  -1  -9  -6   28.62    7.03
   1   9   6   43.11    7.15
  -1  -9  -6   35.47    7.61
  -1  -9  -7    0.01    3.84
  -1  -9  -7   -2.07    5.64
   1   9   7   -2.39    3.37
  -1  -9  -8  123.41   14.16
  -1  -9  -8  145.52   12.94
   1   9   8  155.69   13.64
   1   9   9   66.06    9.33
  -1  -9  -9   48.23    9.23
  -1  -9 -10   91.35   13.18
  -1  -9 -11   19.29    6.90
  -1  -9 -12   73.97   12.94
  -1  -9 -13   55.64   11.58
   1  10 -14   16.91    6.96
   1  10 -13    4.66    3.92
   1  10 -13    7.12    5.56
   1  10 -12   34.49    8.50
   1  10 -12   27.37    7.75
   1  10 -11   26.72    7.11
   1  10 -11   40.59    9.10
   1  10 -10   17.66    6.87
   1  10 -10   14.15    5.49
  -1 -10   9  117.83   12.98
   1  10  -9  117.37   12.77
   1  10  -9  119.38   14.13
  -1 -10   8    6.57    5.18
   1  10  -8   -1.06    4.31
   1  10  -8   10.85    5.33
  -1 -10   7  133.76   13.66
   1  10  -7  126.71   14.04
   1  10  -7  130.47   12.62
   1  10  -6    9.87    4.71
  -1 -10   6   10.83    5.01
   1  10  -6   20.14    6.40
   1  10  -5  312.00   20.79
  -1 -10   5  328.24   21.26
   1  10  -5  344.02   19.18
  -1 -10   4   65.91    9.65
   1  10  -4   72.13    8.52
   1  10  -3  247.27   15.26
  -1 -10   3  241.28   17.98
  -1 -10   2   16.76    5.39
  -1 -10   1  318.78   20.85
  -1 -10   0  341.21   21.46
  -1 -10  -1  170.75   15.51
  -1 -10  -2    1.96    4.15
  -1 -10  -3  150.65   14.48
  -1 -10  -4   -0.19    4.11
  -1 -10  -5  169.45   14.89
   1  10   6   16.58    4.90
  -1 -10  -6   16.77    6.26
  -1 -10  -7   73.77   11.28
   1  10   7   72.22    9.75
  -1 -10  -7   63.22    9.53
   1  10   8  129.98   13.43
  -1 -10  -8  151.04   16.34
  -1 -10  -9   -3.66    5.38
  -1 -10 -10   83.04   12.68
  -1 -10 -11   28.85    8.70
   1  11 -13   10.57    6.37
   1  11 -13    5.54    4.61
   1  11 -12   42.76    9.62
   1  11 -12   59.14   11.20
   1  11 -11   21.89    7.00
   1  11 -11   14.51    5.88
   1  11 -10   44.80    9.12
   1  11 -10   40.21    9.84
   1  11  -9   36.37    8.38
   1  11  -9   46.34    8.93
   1  11  -8   39.56    9.00
   1  11  -8   45.72    8.38
   1  11  -7   -2.12    5.75
  -1 -11   7    6.42    4.76
  -1 -11   6  163.87   15.61
   1  11  -6  163.96   16.57
   1  11  -5   39.67    8.69
  -1 -11   5   36.94    8.33
   1  11  -4  115.02   13.50
  -1 -11   4  112.71   13.15
  -1 -11   3   30.96    7.94
   1  11  -3   35.31    8.15
  -1 -11   2  113.79   13.24
  -1 -11   1    8.30    6.32
  -1 -11   0   89.14   11.99
  -1 -11  -1    4.75    4.26
  -1 -11  -2   34.02    8.05
  -1 -11  -3   42.35    8.48
  -1 -11  -4   58.10    9.95
  -1 -11  -5   15.30    5.83
  -1 -11  -6  177.06   16.59
   1  11   6  185.44   16.22
   1  11   7  100.67   12.14
   1  11   8  171.56   16.15
  -1 -11  -9   30.31    8.52
  -1 -11 -10   41.00    9.26
   1  12 -10   -0.91    5.28
   1  12  -9   20.93    7.85
   1  12  -8   -3.09    4.82
   1  12  -7   49.40   10.51
   1  12  -6   10.45    7.35
  -1 -12   6   -0.29    4.67
   1  12  -5   71.07   11.33
  -1 -12   5   76.60   11.05
   1  12  -4   59.21   11.02
  -1 -12   4   50.83    9.94
   1  12  -3  110.92   13.81
  -1 -12   3  109.50   13.61
   1  12  -2   32.61    7.73
  -1 -12   2   53.62   10.31
   1  12  -1   33.37    8.54
  -1 -12   1   35.77    8.49
  -1 -12   0   45.02    9.90
  -1 -12  -1   54.98   10.18
  -1 -12  -2   64.03   10.98
  -1 -12  -3    2.05    4.17
  -1 -12  -4    2.00    4.26
   1  12   6   35.45    7.41
   1  12   7  231.76   19.33
   1  13  -6   -1.79    5.48
   1  13  -5   30.21    8.86
   1  13  -4  125.35   15.91
   1  13  -3    3.72    5.22
  -1 -13   3   -8.59    7.76
   1  13  -2   21.14    7.31
  -1 -13   2   22.65    7.91
   1  13  -1   12.25    6.71
  -1 -13   1   11.50    5.83
   1  13   0  125.89   14.98
  -1 -13   0  148.44   16.87
  -1 -13  -1   11.17    6.21
   1  13   1   11.71    5.90
   1  13   2   40.87    9.14
   1  13   3    0.59    4.09
   1  13   4   25.49    8.00
   1  13   5   13.27    6.04
   1  13   6  124.81   14.87
   1  14   1  257.58   22.31
   1  14   2   -1.80    4.27
   1  14   3   39.20    9.49
  -2  14   3   54.60   11.05
  -2  14   2  171.85   17.87
  -2  14   1    6.08    4.91
  -2  14   0   87.97   13.33
  -2  14  -1   12.18    5.93
  -2  13   7   76.22   12.27
  -2  13   6   26.20    7.63
  -2  13   5  163.24   17.39
  -2  13   4   54.18    9.44
  -2  13   3    9.78    5.49
  -2  13   2   11.99    5.64
  -2  13   1  188.47   17.74
  -2  13   0   40.35    8.65
  -2  13  -1   12.46    5.91
  -2  13  -2   15.70    6.39
  -2  13  -3  278.61   22.67
  -2  13  -4    5.80    5.13
  -2  13  -5   18.38    7.51
  -2  13  -6   44.81   10.33
  -2  12  10   11.35    6.73
  -2  12   9   24.27    7.63
  -2  12   8   12.15    6.52
  -2  12   7   26.07    7.31
  -2  12   6   35.25    8.61
  -2  12   5   27.95    6.90
  -2  12   5   11.24    4.93
  -2  12   4   14.15    5.61
  -2  12   3    2.22    4.92
  -2  12   2  207.21   17.55
  -2  12   1    3.93    4.87
  -2  12   0   19.54    6.79
  -2  12  -1   10.94    6.53
  -2  12  -2   86.48   12.20
  -2  12  -3   22.66    7.88
  -2  12  -4   80.49   11.95
  -2  12  -5   -3.98    5.32
  -2  12  -6    0.21    5.05
  -2  12  -7    2.37    5.51
  -2  12  -8  160.39   17.77
  -2  12  -9  216.33   20.93
  -2  11  12   -6.01    5.71
  -2  11  11   82.66   12.84
   2 -11 -11   74.33   12.44
  -2  11  10   15.31    6.08
   2 -11 -10   16.62    6.05
  -2  11   9    7.99    6.24
  -2  11   8   -0.04    4.34
  -2  11   7   45.89    9.15
  -2  11   6   17.01    6.10
  -2  11   5   84.61   10.25
  -2  11   5   87.00   11.31
  -2  11   4    1.39    3.47
  -2  11   3  247.11   17.72
  -2  11   2   34.64    7.51
  -2  11   1  161.88   14.96
  -2  11   0   32.37    7.59
  -2  11  -1   80.19   10.83
  -2  11  -2  123.53   13.40
  -2  11  -3  176.07   16.45
  -2  11  -4   12.89    4.70
  -2  11  -5   50.07    9.78
  -2  11  -6   47.36    8.92
  -2  11  -7    4.70    6.16
  -2  11  -8    7.95    6.54
  -2  11  -9  139.49   16.35
  -2  11 -10   29.24    8.97
  -2  11 -11   91.99   13.70
  -2  10  14   23.35    7.43
   2 -10 -13   29.77    9.03
  -2  10  13   28.62    8.22
   2 -10 -12   30.46    8.41
  -2  10  12   35.36    9.13
   2 -10 -11    6.48    5.28
  -2  10  11    9.68    6.36
  -2  10  10   17.04    6.72
   2 -10 -10   16.68    7.00
  -2  10   9   12.53    6.15
   2 -10  -9   12.93    6.22
  -2  10   8   92.28   11.97
   2 -10  -8  121.54   13.95
  -2  10   7    0.11    3.76
  -2  10   6   53.14    8.98
  -2  10   6   53.15    7.58
  -2  10   5   40.71    7.06
  -2  10   4  269.17   17.19
  -2  10   3   71.69    9.52
  -2  10   2  425.74   22.60
  -2  10   1  148.05   13.31
  -2  10   0  224.46   16.68
  -2  10  -1   -1.17    4.40
  -2  10  -2  409.96   23.33
  -2  10  -3   85.86   11.28
  -2  10  -4  144.30   14.28
  -2  10  -5   47.36    8.71
  -2  10  -6  145.12   14.99
  -2  10  -7   36.81    8.32
  -2  10  -8   77.06   11.24
  -2  10  -9   14.45    6.86
  -2  10 -10  138.91   15.70
  -2  10 -11  181.47   18.04
  -2  10 -12   78.00   12.31
  -2  10 -13    2.26    4.33
  -2   9  15   80.42   13.71
   2  -9 -14   29.35    8.74
  -2   9  14   44.55   10.49
   2  -9 -13  140.77   16.29
  -2   9  13  162.49   17.04
  -2   9  12    8.07    6.20
   2  -9 -12   -0.46    4.81
   2  -9 -11   39.25    8.75
  -2   9  11   47.52    9.08
  -2   9  10   75.24   10.85
   2  -9 -10  107.22   13.13
  -2   9   9  188.32   16.25
   2  -9  -9  148.83   15.23
  -2   9   8   30.86    6.91
   2  -9  -8   34.84    7.71
   2  -9  -7   65.93    9.84
  -2   9   7   77.08   10.02
  -2   9   6  115.51   10.20
  -2   9   6  116.57   12.30
  -2   9   5  283.16   16.18
  -2   9   4  166.68   12.53
  -2   9   3   71.25    8.63
  -2   9   2   17.02    5.02
  -2   9   1  269.08   16.98
  -2   9   0   28.03    5.96
  -2   9  -1   33.07    6.29
  -2   9  -2   17.20    5.29
  -2   9  -3   -2.03    3.99
  -2   9  -4   67.74    9.80
  -2   9  -5  139.86   10.67
  -2   9  -5  101.26   11.67
  -2   9  -6  117.81   10.41
  -2   9  -6   97.83   11.93
  -2   9  -7    8.33    4.10
  -2   9  -7    8.06    5.48
  -2   9  -8   35.45    7.72
  -2   9  -9   79.68   11.23
  -2   9 -10   93.13   12.40
  -2   9 -11   70.80   10.68
  -2   9 -12   83.14   12.26
  -2   9 -13    1.80    4.53
  -2   8  16    8.28    6.95
  -2   8  15   90.84   13.91
   2  -8 -15  124.18   16.14
   2  -8 -14  194.94   19.34
  -2   8  14  211.96   19.48
  -2   8  13    9.27    5.52
   2  -8 -13   -3.03    4.42
  -2   8  12   86.63   12.36
   2  -8 -12   77.85   11.49
  -2   8  11    9.41    5.14
   2  -8 -11   12.14    5.09
   2  -8 -10   55.33    9.86
  -2   8  10   57.13    9.44
   2  -8  -9    8.47    5.32
  -2   8   9   16.62    5.81
  -2   8   8  305.31   19.22
   2  -8  -8  283.47   19.20
   2  -8  -7    0.14    4.19
  -2   8   7   -2.47    3.68
  -2   8   7    1.80    1.95
  -2   8   6    9.49    3.79
  -2   8   6   14.41    5.67
   2  -8  -6    4.30    4.60
  -2   8   5    5.96    4.42
  -2   8   5    6.84    2.89
  -2   8   4  378.97   17.92
  -2   8   3   55.18    7.13
  -2   8   2   83.74    8.64
  -2   8   1   88.40    9.28
  -2   8   0  429.52   20.63
  -2   8  -1   45.28    7.34
  -2   8  -2   24.40    3.80
  -2   8  -2   29.92    6.27
  -2   8  -3    9.38    5.12
  -2   8  -3    7.54    2.64
  -2   8  -4  207.86   11.82
  -2   8  -4  189.56   14.69
  -2   8  -5   81.04    7.32
  -2   8  -5   73.24    9.90
  -2   8  -5   86.04    8.09
  -2   8  -6   64.40    7.49
  -2   8  -6   63.20    9.27
  -2   8  -6   80.83    7.93
  -2   8  -7   22.97    5.13
  -2   8  -7   27.19    5.67
  -2   8  -7   29.50    7.52
  -2   8  -8   74.07    8.49
  -2   8  -8   64.68    9.41
  -2   8  -9   44.10    8.10
  -2   8  -9   50.43    7.86
  -2   8 -10  242.19   18.27
  -2   8 -10  235.25   16.49
  -2   8 -11    6.08    4.76
  -2   8 -11    5.06    3.80
  -2   8 -12   32.40    7.84
  -2   8 -12   41.58    8.48
  -2   8 -13  113.51   13.64
  -2   8 -13  102.50   12.67
  -2   8 -14   86.39   12.19
  -2   8 -15   16.62    6.36
  -2   7  17   15.31    7.68
   2  -7 -16    3.08    3.87
  -2   7  16   -6.95    5.59
   2  -7 -15   47.37   10.01
  -2   7  15   58.73   10.94
   2  -7 -14    1.13    5.02
  -2   7  14    1.51    5.07
  -2   7  13  215.36   18.30
   2  -7 -13  189.84   17.67
   2  -7 -12    2.85    4.90
  -2   7  12    1.13    3.81
  -2   7  11   -9.55    4.99
   2  -7 -11    2.07    3.90
   2  -7 -10   34.99    7.47
  -2   7  10   40.55    7.91
  -2   7   9  916.62   34.06
   2  -7  -9  835.32   33.97
  -2   7   8    3.39    4.13
   2  -7  -8    1.27    3.23
   2  -7  -7    5.84    3.73
  -2   7   7   16.91    5.44
  -2   7   7   18.03    3.79
   2  -7  -6    2.62    2.95
  -2   7   6   19.93    6.10
  -2   7   6   17.49    3.82
  -2   7   5  740.56   27.51
  -2   7   5  800.67   24.49
   2  -7  -5  686.99   27.34
  -2   7   4    6.13    2.89
  -2   7   3   26.14    4.83
  -2   7   2    0.42    2.74
  -2   7   1  580.33   22.11
  -2   7   0  388.28   18.14
  -2   7   0  401.43   11.52
  -2   7  -1  593.42   23.45
  -2   7  -1  611.10   16.68
  -2   7  -2   23.78    3.47
  -2   7  -2   21.29    5.61
  -2   7  -3  202.64   10.59
  -2   7  -3  194.04   13.62
  -2   7  -4   20.37    3.82
  -2   7  -4   26.21    6.05
  -2   7  -5 1011.91   29.84
  -2   7  -5 1085.11   28.96
  -2   7  -5  985.03   33.98
  -2   7  -6  157.56   10.65
  -2   7  -6  125.57   11.55
  -2   7  -6  123.99   10.18
  -2   7  -7   18.56    5.39
  -2   7  -7   16.39    4.09
  -2   7  -8   15.14    4.70
  -2   7  -8   13.88    5.69
  -2   7  -9  456.40   21.90
  -2   7  -9  440.29   23.26
  -2   7 -10   -1.34    4.34
  -2   7 -10   10.62    4.74
  -2   7 -11    8.04    4.27
  -2   7 -11   12.78    5.03
  -2   7 -12    3.33    3.97
  -2   7 -12    8.57    5.41
  -2   7 -13   50.93    8.72
  -2   7 -13   41.81    8.44
  -2   7 -14   25.85    7.70
  -2   7 -15  227.20   20.16
   2  -6 -17    0.70    4.39
  -2   6  17    1.23    4.61
  -2   6  16   18.53    7.64
   2  -6 -16    5.97    5.56
  -2   6  15    4.99    4.55
   2  -6 -15    4.17    5.19
  -2   6  14  133.62   14.77
   2  -6 -14  107.17   13.50
  -2   6  13   15.02    5.95
   2  -6 -13   14.26    5.82
  -2   6  12    6.21    4.85
   2  -6 -12    0.45    4.45
  -2   6  11   12.45    4.77
   2  -6 -11   13.68    5.40
   2  -6 -10  443.82   23.65
  -2   6  10  561.03   25.75
   2  -6  -9   78.00    9.56
   2  -6  -9   86.00    7.07
  -2   6   9   65.89    8.79
  -2   6   8   19.79    4.90
   2  -6  -8    3.54    3.52
   2  -6  -8   12.42    2.56
   2  -6  -7   48.76    7.29
  -2   6   7   39.48    6.38
   2  -6  -7   34.89    3.75
  -2   6   7   43.06    4.43
   2  -6  -6   84.65    5.05
  -2   6   6   89.69    8.94
  -2   6   6   88.66    6.67
   2  -6  -6   91.06    9.17
   2  -6  -5   68.56    3.71
  -2   6   5   64.72    7.65
   2  -6  -5   55.11    6.93
  -2   6   5   75.03    6.32
   2  -6  -4   71.47    7.76
  -2   6   4   88.28    7.12
  -2   6   3    3.61    2.44
  -2   6   2   59.73    6.22
  -2   6   1    2.57    0.77
  -2   6   1    9.09    3.48
  -2   6   0  366.13   16.24
  -2   6   0  340.62    9.90
  -2   6   0  353.31    8.36
  -2   6  -1  159.60    7.36
  -2   6  -1  158.14   10.77
  -2   6  -2  247.82   10.42
  -2   6  -2  241.72   13.74
  -2   6  -3  137.60   10.69
  -2   6  -3  165.15    9.12
  -2   6  -4 1241.79   31.50
  -2   6  -4 1276.18   36.51
  -2   6  -4 1256.44   30.04
  -2   6  -5    5.19    3.14
  -2   6  -5    7.34    2.53
  -2   6  -5   10.28    4.76
  -2   6  -6  114.40    9.33
  -2   6  -6  110.93   10.62
  -2   6  -6  120.31    8.94
  -2   6  -7    1.04    2.80
  -2   6  -7    8.17    4.54
  -2   6  -8  175.66   12.45
  -2   6  -8  165.74   13.16
  -2   6  -9    6.45    3.81
  -2   6  -9    5.00    3.91
  -2   6 -10  186.69   14.50
  -2   6 -10  216.30   15.19
  -2   6 -11   -4.42    4.35
  -2   6 -11   -0.59    3.29
  -2   6 -12   11.18    4.45
  -2   6 -12   12.75    5.08
  -2   6 -13   21.48    6.38
  -2   6 -14  320.33   22.59
  -2   6 -15   17.78    7.06
  -2   6 -16   15.41    6.33
  -2   5  18    4.36    5.15
   2  -5 -17    6.19    5.71
  -2   5  17   14.07    6.59
   2  -5 -16   -2.99    4.42
  -2   5  16    4.67    4.83
  -2   5  15   69.17   11.37
   2  -5 -15   61.84   10.36
  -2   5  14   10.26    5.89
   2  -5 -14    7.35    4.94
   2  -5 -14   15.22    4.85
   2  -5 -13   96.16   11.80
  -2   5  13   78.04   10.92
   2  -5 -13   81.50    9.28
   2  -5 -12  190.06   13.13
  -2   5  12  178.19   15.57
   2  -5 -12  152.23   14.42
   2  -5 -11  247.56   17.35
   2  -5 -11  249.55   14.16
  -2   5  11  218.90   16.31
   2  -5 -10   45.58    5.74
  -2   5  10   50.61    7.77
   2  -5 -10   37.78    7.02
   2  -5  -9  750.64   23.07
  -2   5   9  763.55   28.79
   2  -5  -9  653.70   26.97
  -2   5   8  828.98   28.60
   2  -5  -8  739.03   27.70
   2  -5  -8  783.55   22.13
   2  -5  -7   95.83    6.21
  -2   5   7   84.28    8.43
  -2   5   7   94.32    5.77
   2  -5  -7   85.65    8.84
  -2   5   6  203.99   12.65
   2  -5  -6  206.30   12.78
   2  -5  -6  209.35    8.45
  -2   5   6  219.16    9.42
   2  -5  -5  247.83   13.48
   2  -5  -5  258.48    8.20
  -2   5   5  259.73   13.82
  -2   5   5  273.14   11.02
  -2   5   4   68.64    7.05
   2  -5  -4   64.70    2.91
   2  -5  -4   62.88    6.68
  -2   5   4   70.50    5.68
  -2   5   3 1050.77   25.91
   2  -5  -3  946.21   27.34
  -2   5   2    9.05    3.02
  -2   5   1  211.84   10.98
  -2   5   0   -1.37    2.76
  -2   5   0    2.21    0.74
  -2   5  -1  633.17   14.32
  -2   5  -1  607.08   20.80
  -2   5  -1  637.01   15.67
  -2   5  -2    8.68    2.61
  -2   5  -2    9.22    1.90
  -2   5  -2    7.84    2.07
  -2   5  -3  109.99    7.15
  -2   5  -3   99.65    8.43
  -2   5  -3  109.94    6.54
  -2   5  -4   39.73    4.96
  -2   5  -4   43.11    5.89
  -2   5  -4   42.73    4.72
  -2   5  -5  615.96   22.87
  -2   5  -5  605.16   19.70
  -2   5  -6   59.33    7.55
  -2   5  -6   67.79    6.82
  -2   5  -7    0.81    2.67
  -2   5  -7   -0.01    2.89
  -2   5  -8   -3.35    3.85
  -2   5  -8    3.15    3.01
  -2   5  -9  258.50   15.74
  -2   5  -9  253.74   15.81
  -2   5 -10  113.58   10.69
  -2   5 -10   99.66   10.31
  -2   5 -11    6.18    4.36
  -2   5 -11    3.88    4.02
  -2   5 -12   16.65    4.13
  -2   5 -12   13.90    5.48
  -2   5 -13   66.17   10.04
  -2   5 -14    4.89    5.32
  -2   5 -15   38.30    9.01
  -2   5 -16   16.78    6.82
  -2   4  18   47.86   10.44
   2  -4 -17   10.17    5.80
  -2   4  17    8.44    5.26
  -2   4  16   42.70    9.17
   2  -4 -16   51.96    8.81
  -2   4  15   14.99    6.41
   2  -4 -15    5.67    4.00
  -2   4  14  104.92   12.75
   2  -4 -14  123.60   12.01
  -2   4  13   35.64    7.52
   2  -4 -13   35.32    6.46
   2  -4 -12    0.34    3.59
  -2   4  12    3.69    4.02
  -2   4  11   72.92    9.67
   2  -4 -11   82.04    8.35
  -2   4  10  710.17   28.27
   2  -4 -10  721.82   24.24
   2  -4  -9  329.16   14.73
  -2   4   9  325.29   17.80
   2  -4  -8   -0.09    1.93
  -2   4   8    4.17    3.64
   2  -4  -8    1.13    2.52
  -2   4   7  226.18   13.22
   2  -4  -7  236.52   10.32
   2  -4  -7  236.74   13.42
  -2   4   7  244.82    7.92
   2  -4  -6  256.29   13.34
  -2   4   6  244.11   13.16
  -2   4   6  259.51    8.93
   2  -4  -6  270.03   10.11
   2  -4  -5  101.42    5.17
  -2   4   5   90.52    7.64
   2  -4  -5  100.58    7.71
  -2   4   5   97.09    5.58
   2  -4  -4   21.10    1.86
  -2   4   4   24.58    3.03
  -2   4   4   26.48    4.56
   2  -4  -4   15.55    3.28
   2  -4  -3  233.86   11.12
  -2   4   3  255.38   10.25
  -2   4   2 1725.60   35.58
  -2   4   1  115.40    7.36
  -2   4   0 1252.82   29.59
  -2   4   0 1239.67   21.06
  -2   4  -1  499.60   17.13
  -2   4  -1  493.19   11.96
  -2   4  -2  146.97    9.23
  -2   4  -2  169.34    7.20
  -2   4  -3   57.27    6.10
  -2   4  -3   56.49    4.62
  -2   4  -4 1305.09   33.46
  -2   4  -4 1353.96   30.41
  -2   4  -5  212.28   10.93
  -2   4  -5  230.02   12.47
  -2   4  -6  108.93    8.89
  -2   4  -6  121.12    8.81
  -2   4  -7    3.39    2.86
  -2   4  -7    3.87    2.57
  -2   4  -8   68.86    7.87
  -2   4  -8   47.98    6.17
  -2   4  -9    5.93    3.66
  -2   4  -9    9.91    3.64
  -2   4 -10  283.04   17.44
  -2   4 -10  294.81   16.20
  -2   4 -11   52.62    7.20
  -2   4 -11   40.91    7.85
  -2   4 -12   88.21   10.88
  -2   4 -12   86.63    9.17
  -2   4 -13   25.89    7.22
  -2   4 -14  120.17   13.98
  -2   4 -15  267.53   21.20
  -2   4 -16   35.21    8.55
   2  -3 -19   61.16   11.14
  -2   3  19   47.74   10.71
   2  -3 -18   24.41    7.47
  -2   3  18    6.72    4.36
  -2   3  17   36.83    9.31
   2  -3 -17   48.88    8.78
  -2   3  16   82.35   12.24
   2  -3 -16   77.94   10.98
  -2   3  15  141.30   14.95
   2  -3 -15  142.40   13.88
  -2   3  14   15.63    5.76
   2  -3 -14   26.42    6.55
  -2   3  13   77.91   10.71
   2  -3 -13   63.60    8.49
  -2   3  12   36.75    7.88
   2  -3 -12   37.89    6.67
  -2   3  11  127.89   12.05
   2  -3 -11  121.20   10.28
   2  -3 -10    7.21    3.01
  -2   3  10    9.51    4.13
   2  -3  -9  327.52   14.77
  -2   3   9  321.84   17.22
  -2   3   8  220.53   13.34
   2  -3  -8  214.17   10.98
  -2   3   7  618.86   22.10
   2  -3  -7  614.63   17.99
  -2   3   7  580.64   11.03
   2  -3  -6   54.01    4.60
  -2   3   6   65.58    6.58
  -2   3   6   61.22    3.23
   2  -3  -5   10.81    3.09
  -2   3   5   15.63    3.66
  -2   3   5   13.53    1.82
  -2   3   4    0.00    1.10
  -2   3   4    1.60    2.29
   2  -3  -4    2.33    2.50
  -2   3   3 2362.75   45.85
  -2   3   3 2381.11   42.16
   2  -3  -3 2331.36   44.34
   2  -3  -2  132.07    6.98
  -2   3   2  135.27    6.77
  -2   3   1 1309.19   27.88
  -2   3   0  224.70    5.99
  -2   3   0  227.66    9.72
  -2   3  -1  313.92   12.17
  -2   3  -1  314.86    8.96
  -2   3  -2   86.62    5.05
  -2   3  -2   81.24    6.39
  -2   3  -3 1150.92   28.63
  -2   3  -3 1201.01   26.12
  -2   3  -4    9.97    3.19
  -2   3  -4    7.84    2.41
  -2   3  -5  165.55    9.94
  -2   3  -5  172.51    9.80
  -2   3  -6    4.23    2.41
  -2   3  -6    5.76    3.28
  -2   3  -7  208.80   12.20
  -2   3  -7  179.34   11.00
  -2   3  -8  293.76   14.59
  -2   3  -8  327.48   16.43
  -2   3  -9   96.86    9.53
  -2   3  -9   76.95    7.67
  -2   3 -10  138.77   10.74
  -2   3 -10  143.77   12.39
  -2   3 -11  232.86   14.08
  -2   3 -11  231.50   16.45
  -2   3 -12  331.92   20.60
  -2   3 -13   31.35    7.08
  -2   3 -14   54.99    9.64
  -2   3 -15    9.98    6.20
  -2   3 -16    9.95    6.30
  -2   3 -17   66.18   11.65
   2  -2 -19   42.26    9.66
  -2   2  19   42.88   10.42
  -2   2  18   14.55    6.63
   2  -2 -18   10.95    6.25
  -2   2  17   -4.57    5.09
   2  -2 -17    9.86    5.86
   2  -2 -16  179.86   16.12
  -2   2  16  207.29   18.39
  -2   2  15   -2.92    4.62
   2  -2 -15    2.54    4.02
  -2   2  14   67.71    9.79
   2  -2 -14   72.77    9.45
  -2   2  13   83.63   10.32
   2  -2 -13   85.25    9.73
  -2   2  12  358.75   20.93
   2  -2 -12  384.61   19.34
  -2   2  11   67.34    8.55
   2  -2 -11   73.00    8.00
   2  -2 -10  213.69   12.76
  -2   2  10  205.30   14.32
   2  -2  -9  123.08    8.69
  -2   2   9  127.38   10.97
  -2   2   8  712.81   24.81
   2  -2  -8  687.01   20.68
   2  -2  -7   22.29    3.28
  -2   2   7   19.45    4.34
  -2   2   6  169.47   10.15
   2  -2  -6  166.26    7.84
  -2   2   5   55.82    5.85
  -2   2   5   55.08    2.78
   2  -2  -5   52.49    3.99
   2  -2  -4  480.92   11.98
  -2   2   4  496.92   11.44
  -2   2   4  546.94   16.52
   2  -2  -3  485.47   10.45
   2  -2  -3  470.55   13.17
  -2   2   3  484.56   12.07
  -2   2   3  472.52   14.60
  -2   2   2  567.66   15.38
  -2   2   2  559.12   14.08
   2  -2  -2  571.70   13.87
  -2   2   1   41.98    2.25
  -2   2   1   38.51    3.53
  -2   2   0   15.10    1.71
  -2   2   0   11.35    2.43
  -2   2  -1  574.47   16.09
  -2   2  -1  591.28   13.71
  -2   2  -2   98.18    5.45
  -2   2  -2  103.97    6.63
  -2   2  -3  760.47   20.47
  -2   2  -3  769.17   19.42
  -2   2  -4  664.75   19.48
  -2   2  -4  671.69   19.07
  -2   2  -5  385.28   14.54
  -2   2  -5  381.81   14.79
  -2   2  -6   89.13    7.63
  -2   2  -6   91.17    7.03
  -2   2  -7   -1.20    2.70
  -2   2  -7    2.54    2.75
  -2   2  -8  390.89   18.12
  -2   2  -8  412.70   16.59
  -2   2  -9   11.92    3.35
  -2   2  -9   12.96    4.82
  -2   2 -10  729.33   24.41
  -2   2 -10  718.98   28.38
  -2   2 -11   28.02    5.02
  -2   2 -11   26.63    6.84
  -2   2 -12  226.98   16.97
  -2   2 -13    1.05    4.12
  -2   2 -14   17.62    6.22
  -2   2 -15   99.64   13.10
  -2   2 -16  164.85   17.20
  -2   2 -17   13.36    8.06
   2  -1 -19   -5.80    5.05
  -2   1  18   19.72    7.81
   2  -1 -18   11.43    5.57
  -2   1  17   49.88   10.07
   2  -1 -17   77.58   11.49
  -2   1  16  124.07   14.19
   2  -1 -16  131.05   13.78
  -2   1  15   12.20    6.85
   2  -1 -15    6.23    4.81
  -2   1  14   71.18   10.25
   2  -1 -14   59.34    8.86
  -2   1  13  396.65   22.66
   2  -1 -13  410.44   21.42
  -2   1  12    3.54    3.61
   2  -1 -11   55.95    7.41
  -2   1  11   49.95    7.82
   2  -1 -10   26.58    4.94
  -2   1  10   19.93    5.08
   2  -1  -9  758.57   24.40
  -2   1   9  815.22   28.04
  -2   1   9  800.43   17.24
  -2   1   8  370.61   10.89
   2  -1  -8  355.23   14.62
  -2   1   8  354.47   16.85
   2  -1  -7  444.67   15.51
  -2   1   7  424.89   17.65
   2  -1  -6  116.93    6.93
  -2   1   6  113.72    8.61
  -2   1   5   25.61    3.95
   2  -1  -5   19.88    2.70
   2  -1  -4  134.85    6.16
  -2   1   4  121.59    7.24
  -2   1   3 3767.96   64.61
  -2   1   3 3880.37   60.31
  -2   1   2 1059.54   22.42
  -2   1   2 1092.38   21.51
   2  -1  -2 1115.93   19.39
  -2   1   1 2410.99   39.32
  -2   1   1 2384.79   40.17
  -2   1   1 2418.95   41.30
  -2   1   0 1026.90   19.67
  -2   1   0 1012.61   21.55
  -2   1  -1 2304.29   41.71
  -2   1  -1 2334.22   39.95
  -2   1  -2  206.17    8.18
  -2   1  -2  181.17    8.08
  -2   1  -3  649.68   17.71
  -2   1  -3  660.89   17.76
  -2   1  -4    2.56    2.07
  -2   1  -4   -0.46    2.25
  -2   1  -5   83.19    6.24
  -2   1  -5   82.72    6.77
  -2   1  -6    3.04    2.06
  -2   1  -6    4.05    3.03
  -2   1  -7  381.87   14.90
  -2   1  -7  382.69   10.97
  -2   1  -7  379.85   16.90
  -2   1  -8   31.40    2.57
  -2   1  -8   33.12    4.52
  -2   1  -8   30.60    5.29
  -2   1  -9   63.70    6.45
  -2   1  -9   61.61    7.87
  -2   1 -10   78.10    7.18
  -2   1 -10   66.05    8.49
  -2   1 -11  471.03   18.87
  -2   1 -11  454.12   22.86
  -2   1 -12   17.11    4.97
  -2   1 -13    0.19    3.84
  -2   1 -14   63.86   10.52
  -2   1 -15   75.72   11.43
  -2   1 -16   12.51    7.14
  -2   1 -17   27.73    9.04
   2   0 -19   17.38    7.27
   2   0 -18  144.71   15.95
   2   0 -17   56.44    9.98
  -2   0  16   48.65    9.33
   2   0 -16   22.39    6.73
   2   0 -15    0.01    4.29
  -2   0  15    5.73    4.16
  -2   0  14    3.62    4.78
   2   0 -14    9.67    5.19
   2   0 -13   48.73    7.78
  -2   0  13   44.67    8.12
   2   0 -12  240.64   15.37
  -2   0  12  206.08   15.75
  -2   0  11   14.83    5.24
   2   0 -11   30.29    6.13
   2   0 -10   78.42    7.93
  -2   0  10   66.66    8.34
   2   0  -9   74.72    7.48
   2   0  -9   71.22    3.13
  -2   0   9   75.70    3.97
  -2   0   9   68.71    7.91
  -2   0   8  122.85    9.89
   2   0  -8  131.87    9.06
   2   0  -8  123.43    4.55
  -2   0   8  129.86    5.60
  -2   0   7    3.63    1.41
  -2   0   7    8.00    3.35
   2   0  -7    4.17    2.35
   2   0  -6  262.69   11.30
  -2   0   6  253.25    8.70
  -2   0   6  256.33   12.55
   2   0  -5   86.10    5.89
  -2   0   5   76.53    6.34
  -2   0   5   80.58    4.84
  -2   0   4  194.74    9.30
  -2   0   4  198.52    7.82
  -2   0   3  780.14   19.44
  -2   0   3  797.97   18.54
  -2   0   2    7.56    2.01
  -2   0   2    6.72    2.14
  -2   0   1    2.63    2.01
  -2   0   1   -0.14    1.72
  -2   0   1    2.52    1.51
  -2   0   0   73.43    4.99
  -2   0   0   78.93    4.55
  -2   0   0   75.40    2.94
  -2   0   0   78.40    5.02
  -2   0  -1    4.51    1.92
  -2   0  -1    3.98    1.97
  -2   0  -1    3.98    1.95
  -2   0  -2 4348.87   72.04
  -2   0  -2 4511.34   73.66
  -2   0  -2 4568.78   73.35
  -2   0  -3    5.51    1.96
  -2   0  -3   11.13    2.23
  -2   0  -3   10.10    2.46
  -2   0  -4 2156.38   38.26
  -2   0  -4 2121.40   42.85
  -2   0  -4 2140.32   41.51
  -2   0  -5   -0.23    1.44
  -2   0  -5    2.13    2.42
  -2   0  -5    2.27    2.84
  -2   0  -6 1208.52   31.86
  -2   0  -6 1201.83   29.09
  -2   0  -6 1271.32   24.28
  -2   0  -7   40.85    5.65
  -2   0  -7   44.64    3.19
  -2   0  -7   38.83    4.54
  -2   0  -8   10.43    1.45
  -2   0  -8   12.30    3.83
  -2   0  -8   13.61    3.08
  -2   0  -9  139.50   11.47
  -2   0  -9  130.66    8.96
  -2   0 -10  535.89   19.60
  -2   0 -10  576.43   24.57
  -2   0 -11   18.20    5.24
  -2   0 -12   13.73    5.17
  -2   0 -13   30.78    7.56
  -2   0 -14   45.22    8.92
  -2   0 -15   -0.41    4.56
  -2   0 -16  125.59   15.07
  -2   0 -17   10.79    7.20
   2   1 -19   49.33   10.67
   2   1 -18   20.39    7.62
   2   1 -17  135.51   14.89
   2   1 -16    4.84    5.34
   2   1 -15   -2.11    4.04
   2   1 -14   -0.06    3.55
   2   1 -13  519.76   24.82
  -2  -1  13  498.65   25.37
   2   1 -12    3.56    3.20
  -2  -1  12    8.78    4.56
   2   1 -11   90.51    9.56
  -2  -1  11   76.24    9.31
  -2  -1  10   28.88    5.94
   2   1 -10   27.94    5.22
   2   1 -10   23.36    2.71
   2   1  -9  483.95   19.71
  -2  -1   9  436.57   19.92
  -2  -1   9  468.27   12.30
   2   1  -9  457.42   12.95
  -2  -1   8  359.60   10.75
  -2  -1   8  360.69   16.91
   2   1  -8  339.67   15.50
   2   1  -7 1897.22   42.56
  -2  -1   7 1968.15   44.60
  -2  -1   7 1977.46   35.81
   2   1  -6   28.25    4.19
  -2  -1   6   39.06    5.38
  -2  -1   6   37.60    3.50
   2   1  -5   17.79    3.22
  -2  -1   5   13.13    2.37
  -2  -1   5   18.12    3.43
  -2  -1   4  163.26    8.62
  -2  -1   4  176.70    7.37
  -2  -1   3 8516.85  132.95
  -2  -1   3 8683.95  131.42
  -2  -1   2  766.13   17.55
  -2  -1   2  780.04   18.13
  -2  -1   1 1080.94   23.12
  -2  -1   0   33.41    2.33
  -2  -1   0   27.80    3.17
  -2  -1   0   28.66    3.36
  -2  -1  -1 4489.77   73.08
  -2  -1  -1 4492.67   72.79
  -2  -1  -2 1671.17   31.56
  -2  -1  -2 1606.50   32.98
  -2  -1  -3 1639.90   31.45
   2   1   3 1655.55   27.50
  -2  -1  -3 1625.73   34.08
  -2  -1  -4  251.34   11.37
   2   1   4  291.03    8.40
  -2  -1  -4  259.22    9.21
  -2  -1  -5 1149.99   29.65
   2   1   5 1241.52   24.81
  -2  -1  -5 1174.19   24.39
  -2  -1  -6    0.13    2.37
  -2  -1  -6    0.19    1.08
   2   1   6    2.87    1.81
  -2  -1  -7  402.71   17.60
   2   1   7  428.52   14.53
  -2  -1  -7  399.14   11.42
  -2  -1  -8   36.60    6.01
   2   1   8   48.76    5.16
  -2  -1  -8   43.68    3.25
  -2  -1  -9    4.38    3.63
   2   1   9    1.86    2.57
   2   1  10   22.08    4.18
  -2  -1 -10   24.09    6.05
  -2  -1 -11  311.58   19.35
   2   1  11  321.93   15.98
  -2  -1 -12   15.26    4.91
  -2  -1 -13    7.69    4.97
  -2  -1 -14  161.88   15.85
  -2  -1 -15  187.74   17.87
  -2  -1 -16    5.95    5.49
  -2  -1 -17  112.44   14.99
   2   2 -18  128.66   15.76
   2   2 -17    5.12    5.32
   2   2 -16   -5.22    5.47
   2   2 -15    1.50    4.31
   2   2 -14  207.22   16.42
   2   2 -13   31.10    6.80
   2   2 -12   95.59   10.38
   2   2 -11    5.74    4.13
   2   2 -10  216.59   14.26
   2   2 -10  229.93   10.37
   2   2  -9    1.13    2.88
  -2  -2   9    0.21    1.35
   2   2  -9    2.69    1.70
   2   2  -8  801.24   26.03
  -2  -2   8  793.80   19.61
   2   2  -7  157.10   10.39
  -2  -2   7  171.16    7.97
   2   2  -6  146.12    9.55
  -2  -2   6  139.17    7.26
  -2  -2   5    0.45    1.73
  -2  -2   4 1213.47   26.32
  -2  -2   3  680.03   17.78
  -2  -2   2   35.28    3.68
  -2  -2   1    2.51    1.99
  -2  -2   0  121.28    5.70
  -2  -2   0  113.74    6.40
  -2  -2   0  103.17    6.34
  -2  -2  -1  334.94   10.74
  -2  -2  -1  318.00   11.29
  -2  -2  -1  315.44   11.39
  -2  -2  -2   95.47    5.94
  -2  -2  -2  106.65    6.55
  -2  -2  -2   89.49    5.86
  -2  -2  -3    5.38    2.56
  -2  -2  -3    1.75    2.12
   2   2   3    1.16    1.18
  -2  -2  -4  169.49    9.51
  -2  -2  -4  178.07    8.18
   2   2   4  176.18    7.01
   2   2   5  824.94   19.75
  -2  -2  -5  832.34   24.28
  -2  -2  -5  827.07   20.32
  -2  -2  -6   46.80    6.03
   2   2   6   39.37    4.10
  -2  -2  -6   40.41    3.84
  -2  -2  -7  173.57   11.64
   2   2   7  214.89   10.34
  -2  -2  -7  208.26    8.77
  -2  -2  -8   37.93    6.17
   2   2   8   53.37    5.67
  -2  -2  -8   47.01    3.94
  -2  -2  -9    1.79    3.06
   2   2   9    8.33    3.40
  -2  -2 -10  711.99   28.07
   2   2  10  725.41   24.31
  -2  -2 -11   85.95   10.06
  -2  -2 -12   -0.80    4.11
  -2  -2 -13   -5.12    5.10
  -2  -2 -14  140.90   14.55
  -2  -2 -15    1.84    4.54
  -2  -2 -16  232.79   20.35
  -2  -2 -17    0.55    5.01
   2   3 -18   22.02    7.31
   2   3 -17   36.11    8.64
   2   3 -16   -0.40    4.40
   2   3 -15   60.46   10.38
   2   3 -14   -0.73    3.66
   2   3 -13   45.90    8.49
   2   3 -12    6.63    4.85
   2   3 -11   12.29    5.13
   2   3 -11   11.55    2.79
   2   3 -10  154.92   12.63
   2   3 -10  165.21    9.87
  -2  -3  10  158.84    8.34
   2   3  -9  395.26   18.87
   2   3  -9  342.56   14.30
  -2  -3   9  361.00   13.31
  -2  -3   8   66.44    5.60
   2   3  -8   64.50    7.54
   2   3  -7  439.23   18.39
  -2  -3   7  438.36   15.01
   2   3  -6  209.97   11.88
  -2  -3   6  208.07    9.86
  -2  -3   5  227.86   10.41
  -2  -3   4 1003.57   24.92
  -2  -3   3 1560.39   33.57
  -2  -3   2    4.58    2.30
  -2  -3   1   80.42    6.17
  -2  -3   0  222.36    9.34
  -2  -3   0  211.51    9.49
  -2  -3   0  201.59    9.69
  -2  -3  -1  170.91    8.53
  -2  -3  -1  181.22    8.82
  -2  -3  -1  179.83    9.15
  -2  -3  -2  527.84   16.58
  -2  -3  -2  541.01   17.00
  -2  -3  -2  541.67   16.83
  -2  -3  -3  917.90   24.45
  -2  -3  -3  877.47   23.63
  -2  -3  -3  891.96   23.18
  -2  -3  -4  447.09   16.57
  -2  -3  -4  485.99   17.76
  -2  -3  -4  468.14   15.53
   2   3   4  473.43   13.89
  -2  -3  -5   65.58    6.60
   2   3   5   55.68    4.64
  -2  -3  -5   55.43    5.19
  -2  -3  -6  174.77   11.05
   2   3   6  181.22    9.16
  -2  -3  -6  178.46    9.12
  -2  -3  -7  222.57   13.27
  -2  -3  -7  220.87   10.14
   2   3   7  212.81   10.90
   2   3   8   12.36    3.38
  -2  -3  -8    7.72    2.28
  -2  -3  -8    4.65    2.92
  -2  -3  -9  278.51   16.59
   2   3   9  322.21   15.30
   2   3  10   42.57    5.97
  -2  -3 -10   38.01    6.58
  -2  -3 -11   84.25    9.99
  -2  -3 -12  102.80   11.68
  -2  -3 -13   42.95    8.33
  -2  -3 -14   15.44    6.20
  -2  -3 -15   35.11    8.70
  -2  -3 -16   38.80    9.85
  -2  -3 -17   56.71   10.95
   2   4 -18   97.23   13.93
   2   4 -17   53.05   10.99
   2   4 -17   34.35    8.63
   2   4 -16  131.00   15.48
   2   4 -15   27.69    7.21
   2   4 -14   95.00   11.97
   2   4 -13   34.50    7.98
   2   4 -12  100.07   11.40
   2   4 -11  161.95   13.72
   2   4 -11  144.55   10.44
   2   4 -10   63.52    8.63
   2   4 -10   71.76    7.20
  -2  -4  10   73.82    6.34
   2   4  -9  193.74   13.62
  -2  -4   9  172.43    9.83
   2   4  -8  422.81   19.75
  -2  -4   8  437.10   16.18
   2   4  -7 1015.16   30.99
  -2  -4   7 1002.39   26.82
   2   4  -6  117.77    9.29
  -2  -4   6  124.76    8.30
  -2  -4   5  618.21   19.84
  -2  -4   4  842.27   23.98
  -2  -4   3    8.23    2.73
  -2  -4   2   76.20    6.63
  -2  -4   1   85.16    6.75
  -2  -4   0  508.44   17.66
  -2  -4  -1   15.92    3.23
  -2  -4  -1   17.62    3.58
  -2  -4  -1   20.28    3.69
  -2  -4  -2  287.16   12.32
  -2  -4  -2  277.95   12.72
  -2  -4  -2  284.70   12.91
  -2  -4  -3   58.94    6.16
  -2  -4  -3   48.17    5.27
  -2  -4  -3   49.73    5.37
  -2  -4  -4 1010.60   29.06
   2   4   4 1033.22   24.93
  -2  -4  -4  984.57   27.21
  -2  -4  -4 1026.02   27.27
   2   4   5    2.26    2.15
  -2  -4  -5    0.30    2.46
  -2  -4  -5    5.52    2.61
  -2  -4  -5   -1.39    2.91
  -2  -4  -6  265.53   13.99
  -2  -4  -6  250.70   14.61
   2   4   6  270.95   12.05
  -2  -4  -6  264.65   12.43
   2   4   7  301.05   13.57
  -2  -4  -7  280.78   16.13
  -2  -4  -7  266.12   14.68
  -2  -4  -7  293.78   13.06
  -2  -4  -8 1194.95   29.91
   2   4   8 1212.53   32.24
  -2  -4  -8 1137.24   34.85
   2   4   9   69.59    7.43
  -2  -4  -9   88.78    9.45
  -2  -4 -10  372.60   20.00
  -2  -4 -11   -0.61    3.33
  -2  -4 -12   57.29    8.96
  -2  -4 -13    9.98    5.51
  -2  -4 -14   39.04    8.56
  -2  -4 -15   13.71    6.28
  -2  -4 -16   31.87    8.28
  -2  -4 -17   10.32    6.07
   2   5 -17   11.47    6.97
   2   5 -16   18.27    7.39
   2   5 -15   56.79   10.45
   2   5 -14   11.47    5.79
   2   5 -13   35.65    7.57
   2   5 -12    8.73    5.99
   2   5 -12    0.28    3.09
   2   5 -11  246.82   17.44
   2   5 -11  275.04   15.74
   2   5 -10  251.17   17.03
   2   5 -10  258.68   14.92
  -2  -5  10  270.26   13.62
   2   5  -9   69.20    8.99
  -2  -5   9   73.29    6.98
   2   5  -8  319.52   17.61
  -2  -5   8  320.51   15.02
   2   5  -7  446.69   20.18
  -2  -5   7  442.34   17.92
   2   5  -6    9.51    3.80
  -2  -5   6    5.47    2.90
  -2  -5   5  478.80   18.54
  -2  -5   4   65.92    6.69
  -2  -5   3  371.61   16.07
  -2  -5   2   57.15    6.69
  -2  -5   1  441.24   17.74
  -2  -5   0    0.14    2.81
  -2  -5  -1  308.42   14.32
  -2  -5  -1  285.14   13.06
  -2  -5  -1  302.91   14.49
  -2  -5  -2  233.45   12.60
  -2  -5  -2  222.29   11.28
  -2  -5  -2  235.15   12.62
  -2  -5  -3  681.11   23.29
  -2  -5  -3  642.51   21.03
  -2  -5  -3  661.86   22.50
  -2  -5  -4  196.06   12.44
  -2  -5  -4  211.84   11.65
  -2  -5  -4  201.37   11.84
  -2  -5  -5   12.12    3.51
   2   5   5   14.23    3.41
  -2  -5  -5   10.86    3.28
  -2  -5  -5   12.72    4.25
  -2  -5  -6  319.40   15.11
   2   5   6  315.18   14.19
  -2  -5  -6  315.98   17.33
  -2  -5  -6  328.18   15.85
  -2  -5  -7  356.33   19.21
   2   5   7  384.95   16.34
  -2  -5  -7  359.34   17.49
  -2  -5  -7  390.01   16.66
  -2  -5  -8   27.76    5.59
   2   5   8   16.37    4.08
  -2  -5  -8   29.11    4.71
  -2  -5  -8   34.12    6.94
  -2  -5  -9  378.28   19.65
  -2  -5  -9  377.34   21.74
   2   5   9  381.95   18.13
  -2  -5 -10    4.29    4.26
  -2  -5 -10    2.99    3.86
  -2  -5 -11   68.05    9.64
  -2  -5 -11   78.49   10.61
  -2  -5 -12   55.12   10.03
  -2  -5 -12   51.81    8.65
  -2  -5 -13   41.85    8.04
  -2  -5 -13   39.29    8.83
  -2  -5 -14   32.89    7.49
  -2  -5 -14   51.27   10.76
  -2  -5 -15    6.27    4.31
  -2  -5 -15    9.85    6.04
  -2  -5 -16   19.48    6.48
   2   6 -17   16.78    7.16
   2   6 -16   89.38   13.21
   2   6 -15    1.81    4.23
   2   6 -14   13.55    5.89
   2   6 -13   19.20    6.78
   2   6 -12  187.87   16.29
   2   6 -12  187.57   14.15
   2   6 -11   -6.36    4.77
   2   6 -11   -0.79    3.36
   2   6 -10  157.57   13.99
   2   6 -10  169.51   13.01
  -2  -6  10  172.32   11.92
  -2  -6   9    3.70    3.09
   2   6  -9    3.44    4.12
   2   6  -8  100.63   10.45
  -2  -6   8   92.46    8.75
  -2  -6   7  176.52   12.13
   2   6  -7  157.40   12.40
   2   6  -6  624.05   24.86
  -2  -6   6  651.31   24.05
  -2  -6   5   77.52    8.34
  -2  -6   4    2.59    2.67
  -2  -6   3   90.04    8.54
  -2  -6   2  740.86   25.67
  -2  -6   1   76.22    7.95
  -2  -6   0    5.31    3.63
  -2  -6  -1   22.84    5.08
  -2  -6  -2  382.88   15.91
  -2  -6  -2  353.22   17.22
  -2  -6  -2  386.42   17.86
  -2  -6  -3   26.84    5.25
  -2  -6  -3   33.74    4.96
  -2  -6  -3   34.22    5.88
  -2  -6  -4  108.07    8.79
  -2  -6  -4  119.89   10.68
  -2  -6  -4  114.96    9.56
   2   6   5   64.24    7.09
  -2  -6  -5   63.08    8.03
  -2  -6  -5   59.89    6.83
  -2  -6  -5   70.94    7.81
  -2  -6  -6   15.58    4.33
  -2  -6  -6   18.83    5.09
   2   6   6   12.84    3.58
  -2  -6  -6   25.86    5.05
  -2  -6  -7   -0.64    2.68
  -2  -6  -7    4.22    2.85
   2   6   7   -1.38    2.87
  -2  -6  -7    1.69    3.17
   2   6   8   51.80    6.52
  -2  -6  -8   60.75    8.78
  -2  -6  -8   72.48    7.67
  -2  -6  -8   66.18    8.18
  -2  -6  -9    2.43    2.79
  -2  -6  -9    8.42    5.36
  -2  -6 -10   15.17    5.29
  -2  -6 -10   16.02    5.49
  -2  -6 -11    3.79    3.83
  -2  -6 -11    1.95    3.99
  -2  -6 -12   86.78   12.70
  -2  -6 -12  147.51   14.14
  -2  -6 -13    1.86    4.11
  -2  -6 -13    1.69    4.85
  -2  -6 -14   20.85    8.00
  -2  -6 -14   12.57    6.08
  -2  -6 -15   35.42    8.95
  -2  -6 -15   56.48   10.13
  -2  -6 -16   42.79    9.39
   2   7 -16   -0.97    4.96
   2   7 -15  134.43   16.51
   2   7 -14    2.88    5.13
   2   7 -13    1.88    4.99
   2   7 -12   12.01    5.99
   2   7 -12   -0.04    3.30
   2   7 -11  281.71   20.01
   2   7 -11  272.16   18.21
   2   7 -10    7.35    4.40
  -2  -7  10    3.35    3.11
   2   7 -10    3.16    3.96
   2   7  -9   12.53    5.25
   2   7  -9   14.33    5.18
  -2  -7   9    2.17    3.45
  -2  -7   8    0.24    3.22
   2   7  -8    2.53    3.99
   2   7  -7  754.39   29.19
  -2  -7   7  749.17   28.13
   2   7  -6    6.69    3.57
  -2  -7   6   10.89    4.50
  -2  -7   5   42.95    6.95
  -2  -7   4    5.99    4.37
  -2  -7   3  635.94   25.15
  -2  -7   2   83.61    9.31
  -2  -7   1  527.74   22.81
  -2  -7   0    4.37    3.56
  -2  -7  -1   10.35    4.80
  -2  -7  -2   22.35    5.39
  -2  -7  -3 1691.96   45.88
  -2  -7  -3 1691.93   45.19
  -2  -7  -3 1645.53   40.93
  -2  -7  -4   44.71    6.90
  -2  -7  -4   41.58    6.96
  -2  -7  -4   47.01    6.29
  -2  -7  -5   43.56    6.59
  -2  -7  -5   63.34    8.48
  -2  -7  -5   38.54    5.71
   2   7   6  102.39    9.13
  -2  -7  -6   92.59    8.95
  -2  -7  -6   93.66   10.51
  -2  -7  -6   98.53    9.86
  -2  -7  -7  311.72   19.97
   2   7   7  334.44   17.17
  -2  -7  -7  297.11   16.56
  -2  -7  -7  321.01   17.55
  -2  -7  -8    7.03    4.24
  -2  -7  -8    6.54    3.80
  -2  -7  -8    4.65    3.82
   2   7   8    6.41    3.39
  -2  -7  -9   17.47    5.03
  -2  -7  -9   18.47    5.62
  -2  -7 -10   21.46    5.76
  -2  -7 -10   23.11    7.04
  -2  -7 -11  147.66   13.43
  -2  -7 -11  140.58   15.36
  -2  -7 -12   -2.39    5.26
  -2  -7 -12    8.26    5.03
  -2  -7 -13   54.47   10.62
  -2  -7 -13   90.40   11.50
  -2  -7 -14    4.37    5.64
   2   8 -15    3.34    5.99
   2   8 -14   -0.47    5.40
   2   8 -13   11.50    6.03
   2   8 -13   20.14    5.97
   2   8 -12  100.06   13.03
   2   8 -12  100.47   12.37
   2   8 -11   32.32    7.48
   2   8 -11   33.16    7.68
   2   8 -10   17.16    6.22
  -2  -8  10   13.68    4.60
   2   8 -10   19.04    5.78
  -2  -8   9    3.23    3.44
   2   8  -9    2.78    3.37
   2   8  -9   -0.10    3.77
   2   8  -8  192.95   15.18
  -2  -8   8  171.33   13.74
   2   8  -7   18.34    5.80
  -2  -8   7    8.86    4.36
  -2  -8   6   75.42    9.44
   2   8  -6   80.75    9.59
  -2  -8   5    1.34    4.16
  -2  -8   4  176.21   13.73
  -2  -8   3   16.74    5.47
  -2  -8   2  476.23   23.11
  -2  -8   1   68.54    8.61
  -2  -8   0   82.80    9.53
  -2  -8  -1  116.38   11.28
  -2  -8  -2  258.23   16.71
  -2  -8  -3   59.93    8.69
  -2  -8  -4  114.25   11.26
  -2  -8  -4  116.58    9.89
  -2  -8  -4  120.96   11.85
  -2  -8  -5   14.87    4.46
  -2  -8  -5   23.78    6.15
  -2  -8  -5   20.88    5.53
  -2  -8  -6   80.42    9.43
   2   8   6  104.41    9.80
  -2  -8  -6   77.57    8.58
  -2  -8  -6   76.88   10.35
  -2  -8  -7    1.99    3.24
  -2  -8  -7    1.06    3.97
   2   8   7    1.92    2.67
  -2  -8  -7    0.70    4.18
  -2  -8  -8  177.53   13.86
  -2  -8  -8  180.12   16.13
  -2  -8  -8  182.32   13.75
  -2  -8  -9   28.73    6.34
  -2  -8  -9   36.34    8.65
  -2  -8 -10   29.06    8.08
  -2  -8 -11    5.44    5.49
  -2  -8 -12  270.14   22.67
  -2  -8 -13    9.84    6.58
   2   9 -14   19.39    6.94
   2   9 -13    1.58    4.48
   2   9 -13    2.77    4.61
   2   9 -12    5.14    5.15
   2   9 -12   14.82    6.16
   2   9 -11  162.55   16.00
   2   9 -11  186.15   16.91
   2   9 -10   25.86    7.64
   2   9 -10   23.53    6.36
  -2  -9  10   28.43    6.79
   2   9  -9    4.08    4.00
  -2  -9   9   17.68    5.71
   2   9  -9   18.74    6.24
   2   9  -8   36.56    7.34
  -2  -9   8   43.36    7.54
   2   9  -8   36.65    8.08
   2   9  -7  251.76   17.45
  -2  -9   7  225.35   16.95
  -2  -9   6   85.58   10.68
   2   9  -6   74.38    9.26
   2   9  -5  198.05   14.61
  -2  -9   5  183.29   15.31
  -2  -9   4  117.54   12.53
  -2  -9   3  263.51   18.08
  -2  -9   2  133.31   12.93
  -2  -9   1  178.81   14.97
  -2  -9   0   79.05   10.41
  -2  -9  -1   -0.71    4.59
  -2  -9  -2   36.30    8.35
  -2  -9  -3  295.14   19.42
  -2  -9  -4   53.99    8.75
  -2  -9  -5    4.88    3.42
  -2  -9  -5   11.14    4.93
   2   9   6   21.75    5.10
  -2  -9  -6   18.52    6.40
  -2  -9  -6   28.32    7.01
  -2  -9  -7  121.10   12.42
   2   9   7  141.51   12.52
  -2  -9  -7  122.31   13.83
  -2  -9  -8   45.95    8.96
  -2  -9  -8   54.33    8.31
  -2  -9  -9   41.97    9.11
  -2  -9 -10    6.62    5.68
  -2  -9 -11  109.93   15.08
  -2  -9 -12   13.78    7.12
   2  10 -13    8.01    5.90
   2  10 -13    7.27    5.00
   2  10 -12  160.53   17.10
   2  10 -12  189.84   18.48
   2  10 -11    5.04    5.56
   2  10 -11   10.76    6.15
   2  10 -10   12.81    5.52
   2  10 -10    5.98    4.65
  -2 -10  10    6.88    4.95
   2  10  -9    6.19    4.03
   2  10  -9    0.81    4.91
  -2 -10   9    5.75    5.22
  -2 -10   8  164.83   15.38
   2  10  -8  183.52   17.14
   2  10  -8  167.43   15.35
   2  10  -7   56.97    9.07
  -2 -10   7   45.61    8.56
   2  10  -6   41.63    7.47
  -2 -10   6   35.51    7.91
   2  10  -5   14.45    5.16
  -2 -10   5   16.33    6.73
  -2 -10   4  214.70   17.42
  -2 -10   3    7.35    6.36
  -2 -10   2  172.98   15.63
  -2 -10   1   59.34    9.41
  -2 -10   0    3.69    4.42
  -2 -10  -1   20.08    6.46
  -2 -10  -2  250.54   18.86
  -2 -10  -3   97.05   11.64
  -2 -10  -4   42.23    8.49
  -2 -10  -5    1.23    4.64
   2  10   6  118.02   12.21
  -2 -10  -6  102.54   12.27
  -2 -10  -7    3.52    4.21
  -2 -10  -7   -4.20    5.38
  -2 -10  -8   68.66   11.41
  -2 -10  -8   66.46    9.75
  -2 -10  -9   21.87    7.29
  -2 -10 -10   26.70    8.41
  -2 -10 -11   21.11    8.23
   2  11 -13   89.77   13.48
   2  11 -12   13.01    6.14
   2  11 -12   19.12    7.29
   2  11 -11   48.63   10.00
   2  11 -11   59.79   10.82
   2  11 -10   10.48    5.37
   2  11 -10    3.21    4.83
  -2 -11  10    5.94    5.24
   2  11  -9    2.58    4.12
  -2 -11   9    7.69    5.05
   2  11  -9    1.61    5.50
   2  11  -8   80.71   10.97
  -2 -11   8   83.09   11.83
   2  11  -8   87.29   13.35
   2  11  -7    7.97    5.67
   2  11  -7    6.78    4.72
  -2 -11   7    8.74    4.97
  -2 -11   6  107.61   13.08
   2  11  -6   92.51   11.30
  -2 -11   5  128.74   14.52
  -2 -11   4   59.30   10.57
  -2 -11   3   52.15    9.60
  -2 -11   2   31.38    8.56
  -2 -11   1  163.69   16.13
  -2 -11   0   -3.49    5.80
  -2 -11  -1   96.11   12.62
  -2 -11  -2   -0.17    4.32
  -2 -11  -3  144.30   15.17
  -2 -11  -4   57.07   10.48
  -2 -11  -5  151.74   15.79
  -2 -11  -6   44.17    9.22
  -2 -11  -7   30.55    8.25
  -2 -11  -9  197.21   19.87
   2  12 -10  155.45   17.31
   2  12  -9   25.02    8.62
  -2 -12   9   27.17    8.21
   2  12  -8   10.14    6.58
  -2 -12   8    6.14    4.76
   2  12  -7   39.34    9.80
  -2 -12   7   76.80   12.14
  -2 -12   6   63.82   11.40
   2  12  -6   61.27   11.30
   2  12  -5   24.84    8.09
  -2 -12   5   44.93   10.06
  -2 -12   4  143.88   15.97
  -2 -12   3   10.05    6.31
  -2 -12   2  127.51   15.10
  -2 -12   1   28.27    8.29
  -2 -12   0   75.79   11.67
  -2 -12  -1   22.72    7.29
  -2 -12  -2   49.96   10.15
  -2 -12  -3   12.87    6.10
  -2 -12  -4   20.34    7.92
  -2 -12  -5   82.12   12.04
  -2 -12  -6    5.23    4.38
  -2 -12  -7   11.26    6.19
  -2 -13   8    5.07    6.13
  -2 -13   7    0.23    5.47
   2  13  -6   45.08   10.47
  -2 -13   6   50.24   10.39
  -2 -13   5  161.29   17.50
   2  13  -5  189.12   19.14
   2  13  -4    5.42    5.21
  -2 -13   4   21.58    8.10
   2  13  -3    9.84    6.12
  -2 -13   3    7.70    5.52
  -2 -13   2   18.26    6.59
  -2 -13   1  199.41   19.62
  -2 -13   0   12.37    6.55
  -2 -13  -1   11.84    6.14
  -2 -13  -2    4.90    6.31
  -2 -13  -3  121.87   15.75
  -2 -13  -4    7.63    6.45
  -2 -13  -5   19.40    8.46
  -3  14   3  192.38   18.67
  -3  14   2   19.95    7.34
  -3  14   1    7.51    5.80
  -3  14   0    4.97    6.19
  -3  13   7   67.16   12.38
  -3  13   6    9.93    6.85
  -3  13   5   48.43   10.58
  -3  13   4   71.04   11.24
  -3  13   3   12.06    6.52
  -3  13   2   22.42    7.67
  -3  13   1    1.97    4.48
  -3  13   0   -1.81    5.15
  -3  13  -1    5.40    6.52
  -3  13  -2  272.63   22.32
  -3  13  -3    9.95    6.05
  -3  13  -4    0.30    5.41
  -3  13  -5   11.73    6.83
  -3  12  10   36.81    9.28
  -3  12   9   18.73    7.07
  -3  12   8   43.97   10.09
  -3  12   7   26.75    7.60
  -3  12   6   -2.52    5.68
  -3  12   5   38.52    8.84
  -3  12   4    4.75    4.91
  -3  12   3  208.62   17.61
  -3  12   2  110.96   13.10
  -3  12   1    5.10    4.42
  -3  12   0    2.36    4.59
  -3  12  -1  218.23   18.82
  -3  12  -2   -1.91    4.76
  -3  12  -3   60.61   10.74
  -3  12  -4   -0.68    5.08
  -3  12  -5   40.07    8.50
  -3  12  -6   10.46    7.06
  -3  12  -7   69.55   12.04
  -3  12  -8   10.04    6.42
   3 -11 -12   43.33   10.50
  -3  11  12   44.29    9.93
  -3  11  11   41.85    9.52
  -3  11  10   17.59    6.37
  -3  11   9   21.79    7.46
  -3  11   8   50.61    9.70
  -3  11   7    5.69    4.79
  -3  11   6   17.02    6.48
  -3  11   5   14.62    6.41
  -3  11   5   17.70    5.61
  -3  11   4  238.76   17.39
  -3  11   3   49.98    8.62
  -3  11   2   50.80    9.05
  -3  11   1    5.93    4.22
  -3  11   0  194.80   16.70
  -3  11  -1   42.06    8.64
  -3  11  -2  116.96   13.33
  -3  11  -3   92.41   12.06
  -3  11  -4  118.79   14.06
  -3  11  -5  105.67   13.21
  -3  11  -6   59.34   10.97
  -3  11  -7   38.51    9.35
  -3  11  -8   19.22    7.87
  -3  11  -9    8.32    6.20
  -3  11 -10   69.01   12.05
  -3  10  14   89.98   14.39
  -3  10  13  159.69   17.80
   3 -10 -13  157.65   17.36
  -3  10  12    4.42    6.01
   3 -10 -12    4.05    4.60
   3 -10 -11   26.24    7.68
  -3  10  11   24.15    7.98
   3 -10 -10    0.52    4.34
  -3  10  10   11.20    5.71
   3 -10  -9   43.63    9.24
  -3  10   9   35.54    8.31
  -3  10   8    5.48    4.95
  -3  10   7  115.63   12.99
  -3  10   6    6.03    4.76
  -3  10   6   12.60    4.42
  -3  10   5  114.80   12.82
  -3  10   5  102.67   10.56
  -3  10   4   38.97    6.79
  -3  10   3  227.80   16.14
  -3  10   2   83.03   10.09
  -3  10   1  142.35   13.42
  -3  10   0  216.77   16.75
  -3  10  -1  146.30   14.12
  -3  10  -2  140.26   13.98
  -3  10  -3  202.82   16.84
  -3  10  -4   12.57    5.10
  -3  10  -5   52.61    9.16
  -3  10  -6   -4.59    4.56
  -3  10  -7   64.26   10.54
  -3  10  -8   -1.14    4.43
  -3  10  -9    9.56    5.76
  -3  10 -10  122.34   14.92
  -3  10 -11   58.12   10.34
  -3  10 -12    6.93    5.33
  -3   9  15   10.02    6.86
   3  -9 -15    8.18    6.56
   3  -9 -14  132.84   15.94
  -3   9  14  173.79   18.58
   3  -9 -13   -3.55    4.41
  -3   9  13    9.78    6.18
  -3   9  12   85.45   12.49
   3  -9 -12   74.99   11.71
  -3   9  11    9.50    6.33
   3  -9 -11   13.39    5.23
   3  -9 -10  118.42   13.70
  -3   9  10  116.79   13.51
  -3   9   9   22.54    7.24
   3  -9  -9    5.63    3.65
   3  -9  -8   19.76    5.76
  -3   9   8    8.95    4.68
  -3   9   7   21.24    5.98
  -3   9   6   67.53    9.46
  -3   9   6   77.84    8.29
  -3   9   5  154.54   14.03
  -3   9   5  153.82   11.97
  -3   9   4  183.33   13.47
  -3   9   3   16.48    5.00
  -3   9   2   21.98    5.58
  -3   9   1  257.87   16.84
  -3   9   0  315.26   18.87
  -3   9  -1   76.26    9.80
  -3   9  -2   95.81   11.08
  -3   9  -3   14.79    4.88
  -3   9  -4  136.51   13.29
  -3   9  -5    7.64    4.96
  -3   9  -6   39.42    8.20
  -3   9  -7  109.88   12.87
  -3   9  -8  155.52   15.50
  -3   9  -9   17.66    6.49
  -3   9 -10   70.93   11.20
  -3   9 -11   -5.29    4.38
  -3   9 -12   41.86    9.11
  -3   9 -13   15.81    6.43
  -3   8  16    0.17    5.90
   3  -8 -16   -0.87    5.48
  -3   8  15   27.76    9.04
   3  -8 -15   42.16    9.70
  -3   8  14   16.41    7.55
   3  -8 -14   -3.94    5.68
   3  -8 -13   78.37   12.05
  -3   8  13   78.22   12.14
  -3   8  12   95.94   12.87
   3  -8 -12   90.03   12.46
   3  -8 -11  324.48   22.31
  -3   8  11  330.53   22.23
   3  -8 -10   -1.73    3.24
  -3   8  10    0.49    4.13
  -3   8   9   44.28    8.43
   3  -8  -9   52.28    8.66
  -3   8   8   51.23    8.66
   3  -8  -8   57.16    9.03
   3  -8  -7  231.71   16.67
  -3   8   7  245.77   17.10
  -3   8   6   25.54    6.19
  -3   8   6   32.04    5.19
  -3   8   5  341.36   19.54
  -3   8   5  361.48   17.24
  -3   8   4    5.40    3.22
  -3   8   3   67.27    7.86
  -3   8   2  116.60   10.45
  -3   8   1  754.63   28.01
  -3   8   0    7.76    4.01
  -3   8  -1   35.75    6.97
  -3   8  -2  217.72   15.41
  -3   8  -3 1179.74   38.75
  -3   8  -4   -1.51    3.91
  -3   8  -5   51.85    8.52
  -3   8  -6    2.20    4.29
  -3   8  -7  218.46   17.01
  -3   8  -7  227.60   13.96
  -3   8  -8   20.09    7.01
  -3   8  -8    1.73    2.81
  -3   8  -9   60.05    9.92
  -3   8  -9   93.60   10.55
  -3   8 -10    7.88    4.15
  -3   8 -10   12.06    6.30
  -3   8 -11   -1.34    3.89
  -3   8 -11    3.53    5.16
  -3   8 -12   21.13    7.04
  -3   8 -12    9.62    5.77
  -3   8 -13  152.73   15.72
  -3   8 -13  157.31   15.89
  -3   8 -14    0.64    3.99
  -3   7  17   17.25    8.46
   3  -7 -16   76.61   12.44
  -3   7  16   83.96   13.41
   3  -7 -15    4.07    4.85
  -3   7  15    3.51    6.08
  -3   7  14   72.08   11.95
   3  -7 -14   87.50   12.20
  -3   7  13    2.52    5.26
   3  -7 -13    5.49    4.74
  -3   7  12  107.63   12.79
   3  -7 -12   93.79   12.01
  -3   7  11   19.38    6.10
   3  -7 -11   11.27    5.15
  -3   7  10  295.83   19.52
   3  -7 -10  282.67   19.08
   3  -7  -9    0.68    3.58
  -3   7   9    6.78    4.91
  -3   7   8    9.54    5.46
   3  -7  -8    0.68    3.13
   3  -7  -7   15.49    5.02
  -3   7   7   10.32    4.61
  -3   7   7   17.84    3.49
  -3   7   6  682.89   27.31
  -3   7   6  708.58   22.57
   3  -7  -6  623.35   25.97
  -3   7   5   48.30    7.44
  -3   7   5   56.01    6.27
  -3   7   4    4.16    2.95
  -3   7   3   65.68    7.18
  -3   7   2  111.49    9.51
  -3   7   1  180.38   12.23
  -3   7   0   -1.06    3.64
  -3   7  -1   -1.08    3.58
  -3   7  -2  471.62   21.56
  -3   7  -3    5.62    1.89
  -3   7  -3    1.76    3.52
  -3   7  -4   59.72    8.28
  -3   7  -4   76.00    6.49
  -3   7  -5  101.10   10.75
  -3   7  -5  104.75    8.23
  -3   7  -6   72.33    9.32
  -3   7  -6   61.82    6.88
  -3   7  -7   33.56    5.59
  -3   7  -7   35.08    6.95
  -3   7  -8  226.85   16.90
  -3   7  -8  202.32   13.82
  -3   7  -9   82.65    9.72
  -3   7  -9   81.22   10.13
  -3   7 -10   -0.85    4.05
  -3   7 -10    1.45    3.72
  -3   7 -11    7.82    4.77
  -3   7 -11   -0.86    3.56
  -3   7 -12  146.60   14.73
  -3   7 -12  150.87   14.85
  -3   7 -13    1.79    4.90
  -3   7 -13   10.21    5.97
  -3   7 -14   26.43    8.40
  -3   7 -15   59.18   10.39
  -3   6  18    9.02    6.52
  -3   6  17   96.99   14.91
   3  -6 -17   94.88   14.27
   3  -6 -16    3.05    4.54
  -3   6  16   19.64    7.89
  -3   6  15  106.50   14.08
   3  -6 -15   88.77   12.76
  -3   6  14    0.10    4.87
   3  -6 -14   11.88    5.30
   3  -6 -13   69.55   10.32
  -3   6  13   52.97    9.44
   3  -6 -12    8.26    5.08
  -3   6  12    3.83    4.50
  -3   6  11  273.70   18.75
   3  -6 -11  231.79   17.14
  -3   6  10   -1.74    3.99
   3  -6 -10    0.66    3.63
  -3   6   9   25.22    5.98
   3  -6  -9   12.63    4.19
   3  -6  -8    5.49    3.93
  -3   6   8    8.10    5.07
   3  -6  -7  673.33   26.40
  -3   6   7  760.19   21.08
  -3   6   7  685.79   26.88
  -3   6   6  133.45    8.38
  -3   6   6  149.26   12.12
   3  -6  -6  137.29   10.92
  -3   6   5  113.89   10.24
   3  -6  -5  114.89    9.58
  -3   6   5  128.73    8.53
  -3   6   4  135.16   10.85
  -3   6   4  152.78    9.65
  -3   6   3   82.89    7.34
  -3   6   2    2.53    2.68
  -3   6   1  522.89   20.07
  -3   6   0    7.71    1.04
  -3   6   0    7.56    3.42
  -3   6  -1    5.60    1.50
  -3   6  -1   12.19    4.33
  -3   6  -2   13.34    4.12
  -3   6  -2   10.07    2.14
  -3   6  -3 1815.29   37.14
  -3   6  -3 1722.05   45.24
  -3   6  -4  159.59   12.12
  -3   6  -4  141.90    8.75
  -3   6  -5   32.91    4.90
  -3   6  -5   28.17    5.45
  -3   6  -6   57.46    7.89
  -3   6  -6   64.80    7.03
  -3   6  -7  732.17   29.06
  -3   6  -7  781.19   26.66
  -3   6  -8   47.80    7.05
  -3   6  -8   49.72    7.53
  -3   6  -9  167.30   13.07
  -3   6  -9  163.27   13.79
  -3   6 -10    1.62    3.46
  -3   6 -10    3.93    3.80
  -3   6 -11   32.47    7.04
  -3   6 -11   27.09    6.85
  -3   6 -12    6.63    4.84
  -3   6 -12    6.73    5.29
  -3   6 -13  175.18   16.50
  -3   6 -14    9.30    6.25
  -3   6 -15   10.36    6.07
  -3   5  18  -13.54    7.09
   3  -5 -18   -3.19    5.82
   3  -5 -17    2.92    5.13
  -3   5  17   28.15    8.48
   3  -5 -16  111.60   14.19
  -3   5  16  128.40   15.69
  -3   5  15   18.84    7.56
   3  -5 -15    9.33    5.11
  -3   5  14    4.76    4.52
   3  -5 -14    4.28    4.25
  -3   5  13   17.13    6.04
   3  -5 -13   19.01    6.10
  -3   5  12   56.21    9.15
   3  -5 -12   53.68    8.05
   3  -5 -12   78.20    8.22
   3  -5 -11   56.57    6.65
   3  -5 -11   52.13    8.24
  -3   5  11   34.71    7.26
  -3   5  10   99.39   11.02
   3  -5 -10   93.50   10.05
   3  -5 -10  108.99    8.43
  -3   5   9  182.08   14.02
   3  -5  -9  161.43    9.44
   3  -5  -9  152.23   12.22
  -3   5   8  231.63   15.15
   3  -5  -8  213.74   13.68
   3  -5  -8  206.41    9.87
  -3   5   7  289.81   10.92
   3  -5  -7  258.57   14.81
  -3   5   7  277.30   15.89
   3  -5  -7  298.39   10.63
   3  -5  -6  367.26   17.06
  -3   5   6  384.71   13.54
  -3   5   6  368.12   17.87
   3  -5  -6  395.95   11.09
   3  -5  -5   94.50    3.85
  -3   5   5   82.56    8.15
  -3   5   5  107.07    7.11
   3  -5  -5   89.92    7.77
  -3   5   4   55.08    5.33
  -3   5   4   62.76    7.08
   3  -5  -4   62.26    6.37
  -3   5   3  169.36    9.69
  -3   5   2  311.38   13.76
  -3   5   1  139.48    9.27
  -3   5   0  270.29    7.32
  -3   5   0  269.87   13.51
  -3   5  -1   98.79    5.03
  -3   5  -1   96.19    8.20
  -3   5  -2  336.36   11.52
  -3   5  -2  360.54   16.41
  -3   5  -3   25.78    3.71
  -3   5  -3   26.51    5.35
  -3   5  -4  662.01   24.40
  -3   5  -4  709.30   20.87
  -3   5  -5   65.79    7.88
  -3   5  -5   60.99    6.19
  -3   5  -6  235.19   14.71
  -3   5  -6  261.73   13.82
  -3   5  -7    2.18    3.12
  -3   5  -7    4.11    3.41
  -3   5  -8  279.92   16.86
  -3   5  -8  306.37   16.73
  -3   5  -9  152.88   12.59
  -3   5  -9  146.12   12.34
  -3   5 -10   15.73    5.10
  -3   5 -10    7.22    3.74
  -3   5 -11    9.25    4.74
  -3   5 -11    9.25    4.21
  -3   5 -12  184.21   15.83
  -3   5 -12  198.54   15.36
  -3   5 -13  111.88   13.25
  -3   5 -14    2.09    5.11
  -3   5 -15   13.96    6.38
  -3   5 -16  101.09   14.22
  -3   4  19   14.63    6.60
  -3   4  18   37.04   10.05
  -3   4  17   73.86   12.60
   3  -4 -16   45.37    8.45
  -3   4  16   32.08    8.84
  -3   4  15    7.27    5.10
   3  -4 -15    4.77    4.07
  -3   4  14   34.54    7.29
   3  -4 -14   29.33    6.18
  -3   4  13   22.34    6.87
   3  -4 -13   34.84    6.16
   3  -4 -12   23.47    5.15
  -3   4  12   35.55    7.46
  -3   4  11   63.07    9.21
   3  -4 -11   63.93    7.00
  -3   4  10  220.74   15.81
   3  -4 -10  229.72   12.59
  -3   4   9  108.11   10.33
   3  -4  -9  119.37   10.23
   3  -4  -9  109.58    8.04
  -3   4   8   17.32    5.07
   3  -4  -8   23.19    3.58
   3  -4  -8   28.35    4.97
   3  -4  -7 1341.67   29.61
   3  -4  -7 1271.01   34.95
  -3   4   7 1324.15   37.05
  -3   4   7 1444.31   27.38
   3  -4  -6  115.70    8.48
  -3   4   6  118.01    9.44
  -3   4   6  123.60    6.55
   3  -4  -5   25.82    4.26
  -3   4   5   36.30    4.00
  -3   4   5   23.71    4.25
   3  -4  -4   18.47    3.51
  -3   4   4   16.93    3.68
  -3   4   4   20.17    3.26
  -3   4   3 1491.30   32.23
  -3   4   3 1396.66   34.35
  -3   4   2  186.21    9.77
  -3   4   1  531.78   10.72
  -3   4   1  548.79   18.01
  -3   4   0    7.03    3.08
  -3   4   0    7.53    1.52
  -3   4  -1  123.72    5.84
  -3   4  -1  114.11    8.45
  -3   4  -2   42.09    3.98
  -3   4  -2   50.30    6.06
  -3   4  -3 1565.48   38.60
  -3   4  -3 1603.94   33.81
  -3   4  -4  183.64   11.71
  -3   4  -4  203.43   10.31
  -3   4  -5    9.70    3.26
  -3   4  -5    9.29    2.80
  -3   4  -6   46.54    6.69
  -3   4  -6   46.85    6.01
  -3   4  -7  229.42   14.08
  -3   4  -7  233.68   13.87
  -3   4  -8   34.38    5.99
  -3   4  -8   29.45    5.53
  -3   4  -9    5.82    4.10
  -3   4  -9    3.75    3.46
  -3   4 -10  277.38   16.68
  -3   4 -10  260.85   17.06
  -3   4 -11    5.17    5.17
  -3   4 -11    7.57    3.79
  -3   4 -12    4.43    4.31
  -3   4 -12    3.36    4.53
  -3   4 -13   85.33   11.55
  -3   4 -14   22.01    7.72
  -3   4 -15    7.23    5.22
  -3   4 -16   73.44   12.65
  -3   3  19   39.62    9.80
   3  -3 -19   28.99    8.12
  -3   3  18   42.75   10.21
   3  -3 -18   53.46    9.62
   3  -3 -17    9.19    5.13
  -3   3  17   14.43    7.49
  -3   3  16  169.65   17.33
   3  -3 -16  179.83   15.68
  -3   3  15  127.65   14.85
   3  -3 -15  148.78   13.75
  -3   3  14  342.93   22.67
   3  -3 -14  315.56   18.84
  -3   3  13  118.61   13.22
   3  -3 -13   86.71    9.85
   3  -3 -12  324.16   17.22
  -3   3  12  296.22   19.58
   3  -3 -11  121.78   10.00
  -3   3  11  117.59   12.15
  -3   3  10  294.68   17.85
   3  -3  -9   29.36    4.14
  -3   3   9   24.93    5.91
  -3   3   8  647.45   24.62
   3  -3  -8  618.80   18.65
   3  -3  -7    5.71    2.01
  -3   3   7   13.67    4.19
  -3   3   7    3.18    1.11
   3  -3  -6  206.14    8.22
  -3   3   6  205.11   12.04
   3  -3  -6  179.90   10.13
  -3   3   6  219.17    7.83
   3  -3  -5    0.36    1.04
  -3   3   5    3.08    2.69
   3  -3  -5    1.49    2.01
  -3   3   5    1.93    1.80
   3  -3  -4 1360.29   24.02
   3  -3  -4 1258.21   29.13
  -3   3   4 1366.19   28.20
  -3   3   4 1329.33   32.14
   3  -3  -3  197.84    8.75
  -3   3   3  210.92    9.19
  -3   3   3  206.20   10.12
  -3   3   2    6.33    2.59
  -3   3   2    3.52    2.46
  -3   3   1   20.98    2.04
  -3   3   1    8.91    2.39
  -3   3   0  161.68    6.28
  -3   3   0  150.68    8.81
  -3   3  -1  463.56   13.01
  -3   3  -1  477.75   16.69
  -3   3  -2  432.22   13.30
  -3   3  -2  384.50   15.39
  -3   3  -3   66.36    5.46
  -3   3  -3   63.68    6.20
  -3   3  -4    8.16    3.24
  -3   3  -4    4.96    2.72
  -3   3  -5   86.62    7.34
  -3   3  -5   80.60    7.51
  -3   3  -6  588.00   21.72
  -3   3  -6  629.46   22.01
  -3   3  -7   67.46    7.44
  -3   3  -7   54.24    6.57
  -3   3  -8   24.41    5.58
  -3   3  -8   14.78    4.01
  -3   3  -9    0.21    3.45
  -3   3  -9    6.44    3.68
  -3   3 -10  255.60   15.47
  -3   3 -10  258.54   16.87
  -3   3 -11  353.19   21.25
  -3   3 -11  374.46   19.34
  -3   3 -12   50.50    8.28
  -3   3 -13   16.82    6.23
  -3   3 -14  223.86   19.08
  -3   3 -15    4.25    5.58
  -3   3 -16   63.05   11.47
   3  -2 -19    9.40    5.33
  -3   2  19   20.15    8.36
   3  -2 -18   -0.31    4.03
  -3   2  18    0.32    5.66
   3  -2 -17    8.22    5.15
  -3   2  17    4.91    6.14
  -3   2  16   91.53   13.01
   3  -2 -16   82.24   11.05
  -3   2  15   31.48    8.01
   3  -2 -15   44.78    7.74
  -3   2  14   -5.22    4.76
   3  -2 -14   -0.02    3.53
  -3   2  13  253.08   18.61
   3  -2 -13  281.49   17.13
   3  -2 -12   55.55    7.30
  -3   2  12   57.23    8.99
   3  -2 -11  160.49   11.24
  -3   2  11  152.14   13.56
   3  -2 -10   87.38    7.84
  -3   2  10   96.06   10.57
   3  -2  -9  349.20   14.90
  -3   2   9  360.71   18.54
   3  -2  -8  208.21   10.49
  -3   2   8  203.26   13.37
   3  -2  -7    8.80    2.26
  -3   2   7   13.74    4.68
   3  -2  -6    9.18    2.17
  -3   2   6    6.34    2.46
  -3   2   5 1113.09   28.81
  -3   2   5 1082.60   22.60
   3  -2  -5 1067.88   23.35
   3  -2  -4  367.47   11.54
  -3   2   4  349.64   13.75
  -3   2   4  371.82   11.51
   3  -2  -3   56.98    3.82
  -3   2   3   51.21    5.02
  -3   2   3   52.85    4.33
  -3   2   2  160.12    7.79
  -3   2   2  169.51    7.92
  -3   2   1 1257.24   26.81
  -3   2   1 1329.93   24.92
  -3   2   1 1272.86   28.32
  -3   2   0  170.01    6.94
  -3   2   0  171.58    8.71
  -3   2  -1  105.83    7.20
  -3   2  -1   99.63    5.75
  -3   2  -2   63.24    5.82
  -3   2  -2   66.41    5.22
  -3   2  -3  764.56   20.80
  -3   2  -3  747.07   22.05
  -3   2  -4  760.96   21.93
  -3   2  -4  736.96   22.52
  -3   2  -5  285.36   13.41
  -3   2  -5  293.36   13.78
  -3   2  -6   93.47    8.15
  -3   2  -6   85.55    7.59
  -3   2  -7  273.96   15.02
  -3   2  -7  282.97   14.37
  -3   2  -8  643.56   24.76
  -3   2  -8  638.24   23.13
  -3   2  -9  705.90   27.45
  -3   2  -9  728.26   25.72
  -3   2 -10  110.01   10.93
  -3   2 -10  118.75   10.17
  -3   2 -11  111.32   10.10
  -3   2 -11   95.80   11.03
  -3   2 -12    3.81    4.50
  -3   2 -13  328.65   21.86
  -3   2 -14   25.18    8.23
  -3   2 -15   63.63   11.17
  -3   2 -16   26.15    8.13
  -3   1  19   11.74    7.18
   3  -1 -19   12.08    6.70
   3  -1 -18   74.83   11.74
  -3   1  18   56.91   11.23
   3  -1 -17   14.69    6.30
  -3   1  17   12.82    6.58
   3  -1 -16   41.43    8.21
  -3   1  16   44.33   10.00
   3  -1 -15   -2.34    4.45
  -3   1  15    3.26    4.73
   3  -1 -14  139.01   12.77
  -3   1  14  120.19   13.33
   3  -1 -13  260.54   16.32
  -3   1  13  264.00   18.86
   3  -1 -12   17.52    4.76
  -3   1  12    9.18    4.32
   3  -1 -11   52.90    6.95
  -3   1  11   64.92    8.93
   3  -1 -10  392.74   17.39
  -3   1  10  363.99   19.52
  -3   1  10  387.43   12.81
  -3   1   9   14.69    4.53
   3  -1  -9   14.89    3.78
  -3   1   9   11.24    2.60
   3  -1  -8   73.89    6.58
  -3   1   8   74.41    5.61
  -3   1   8   87.97    8.95
   3  -1  -7    4.09    1.88
  -3   1   7    5.48    3.56
   3  -1  -6  328.18   12.55
  -3   1   6  336.27   15.23
  -3   1   5   29.41    4.48
  -3   1   4  344.32   13.35
  -3   1   3   24.39    3.15
   3  -1  -3   25.54    2.05
  -3   1   3   27.21    3.62
  -3   1   2  291.21   10.33
  -3   1   2  290.73   10.68
  -3   1   1    2.29    1.41
  -3   1   1   -1.04    1.67
  -3   1   1    1.39    1.80
  -3   1   0  253.51   10.51
  -3   1   0  244.74    9.07
  -3   1   0  229.20    7.27
  -3   1  -1 1466.09   29.94
  -3   1  -1 1437.58   31.88
  -3   1  -2  207.58    9.43
  -3   1  -2  209.67   10.28
  -3   1  -3  451.97   15.48
  -3   1  -3  457.00   16.21
  -3   1  -4  308.58   13.34
  -3   1  -4  316.80   13.59
  -3   1  -5  179.80   10.58
  -3   1  -5  183.38   10.62
  -3   1  -6  326.43   15.36
  -3   1  -6  310.55   12.11
  -3   1  -6  315.11   14.59
  -3   1  -7   66.76    7.43
  -3   1  -7   82.55    5.75
  -3   1  -7   73.62    7.33
  -3   1  -8   15.66    4.50
  -3   1  -8   23.01    2.97
  -3   1  -8   19.00    4.39
  -3   1  -9    2.70    3.44
  -3   1  -9    2.41    3.02
  -3   1 -10  275.80   17.32
  -3   1 -10  258.80   14.85
  -3   1 -11    2.07    3.75
  -3   1 -11    5.72    4.08
  -3   1 -12   24.03    6.92
  -3   1 -13    9.96    5.25
  -3   1 -14   88.49   12.81
  -3   1 -15    9.02    6.45
  -3   1 -16   16.06    6.82
   3   0 -19  228.62   20.67
   3   0 -18    6.68    5.17
  -3   0  17   12.24    7.32
   3   0 -17    3.71    4.01
   3   0 -16    3.33    4.41
  -3   0  16    8.55    4.96
   3   0 -15  143.97   13.89
  -3   0  15  129.10   14.15
   3   0 -14  183.59   14.80
  -3   0  14  120.54   13.61
   3   0 -13   51.54    7.77
  -3   0  13   81.97   10.56
   3   0 -12   22.66    5.23
  -3   0  12   28.60    6.61
   3   0 -11   50.16    7.08
  -3   0  11   45.57    7.91
   3   0 -10    3.52    3.02
  -3   0  10    5.75    1.88
  -3   0  10   -3.01    5.31
   3   0  -9 1222.75   33.09
  -3   0   9 1141.10   35.39
  -3   0   9 1157.93   26.15
   3   0  -8   50.34    5.92
  -3   0   8   40.52    4.04
  -3   0   8   41.47    6.33
  -3   0   7    7.29    2.05
   3   0  -7    7.01    2.92
  -3   0   7   11.43    4.07
  -3   0   6    4.33    1.90
  -3   0   6    3.07    3.25
  -3   0   5 2740.29   54.67
  -3   0   5 2838.79   51.79
  -3   0   4 2995.25   56.42
  -3   0   4 3067.96   55.41
  -3   0   3 1051.96   24.86
  -3   0   3 1093.81   25.88
  -3   0   2   25.64    3.86
  -3   0   2   24.24    3.06
  -3   0   1 1331.70   25.14
  -3   0   1 1330.52   27.88
  -3   0   1 1323.97   29.68
  -3   0   1 1277.32   29.07
  -3   0   0   -1.14    2.35
  -3   0   0   -0.51    2.26
  -3   0   0    0.65    0.82
  -3   0   0   -0.66    1.73
  -3   0  -1  527.76   16.45
  -3   0  -1  498.59   15.27
  -3   0  -1  502.85   16.51
  -3   0  -2    4.83    2.47
  -3   0  -2    3.28    2.41
  -3   0  -2    3.95    2.24
  -3   0  -3  601.67   17.94
  -3   0  -3  639.07   19.42
  -3   0  -3  645.78   19.97
  -3   0  -4   97.88    7.47
  -3   0  -4  109.55    8.05
  -3   0  -4  109.27    6.89
  -3   0  -5 3336.83   65.47
  -3   0  -5 3551.29   61.14
  -3   0  -5 3433.36   66.56
  -3   0  -6    1.59    2.80
  -3   0  -6    0.93    1.60
  -3   0  -6    3.59    2.73
  -3   0  -7   -0.03    2.23
  -3   0  -7    8.58    4.31
  -3   0  -7    2.25    1.55
  -3   0  -8   16.85    4.59
  -3   0  -8   11.47    2.43
  -3   0  -8   22.82    5.36
  -3   0  -9 1000.56   33.52
  -3   0  -9  941.38   29.65
  -3   0 -10   54.44    6.87
  -3   0 -10   63.36    8.69
  -3   0 -11   27.84    6.69
  -3   0 -12   14.98    6.67
  -3   0 -13   80.55   11.22
  -3   0 -14    0.80    4.48
  -3   0 -15   17.47    7.17
  -3   0 -16    7.28    6.00
   3   1 -19   29.25    8.57
   3   1 -18   68.15   11.25
   3   1 -17   -0.71    4.49
   3   1 -16   89.43   11.48
   3   1 -15   33.67    7.95
   3   1 -14  392.49   22.29
  -3  -1  14  374.74   23.39
   3   1 -13   13.68    4.91
  -3  -1  13   11.17    5.66
   3   1 -12   43.57    6.90
  -3  -1  12   29.80    7.44
   3   1 -11   25.27    5.76
  -3  -1  11   35.72    7.04
  -3  -1  10  917.77   32.71
   3   1 -10  960.82   31.23
  -3  -1  10 1010.03   23.66
   3   1  -9   49.27    6.61
  -3  -1   9   39.46    4.16
  -3  -1   9   34.66    5.99
   3   1  -8  247.67   13.30
  -3  -1   8  212.05   13.31
  -3  -1   8  246.04   10.39
   3   1  -7   69.60    6.86
  -3  -1   7   70.05    7.43
  -3  -1   7   73.38    5.70
  -3  -1   6  330.00   14.96
  -3  -1   6  361.45   13.01
  -3  -1   5    0.41    1.86
  -3  -1   5    0.39    2.64
  -3  -1   4  963.36   25.10
  -3  -1   4 1020.25   24.66
  -3  -1   3   61.36    4.98
  -3  -1   3   55.43    5.20
  -3  -1   2  268.89    9.73
  -3  -1   2  266.27   11.04
  -3  -1   1   15.21    3.13
  -3  -1   1   15.00    3.22
  -3  -1   0  296.42    8.21
  -3  -1   0  276.39   11.20
  -3  -1   0  271.57   11.26
  -3  -1  -1  703.52   19.79
  -3  -1  -1  738.40   20.01
  -3  -1  -2  130.67    8.08
  -3  -1  -2  131.53    7.73
  -3  -1  -3  162.11    9.54
  -3  -1  -3  150.89    8.22
  -3  -1  -4 1902.36   41.52
  -3  -1  -4 1817.50   37.43
  -3  -1  -5    6.20    2.34
  -3  -1  -5   -0.02    2.52
  -3  -1  -6    9.41    2.37
  -3  -1  -6    9.27    3.38
  -3  -1  -7   34.45    5.88
  -3  -1  -7   33.62    3.84
  -3  -1  -8  699.26   26.37
  -3  -1  -8  705.95   18.53
  -3  -1  -9    0.16    3.55
  -3  -1 -10   84.28   10.06
  -3  -1 -11   -5.66    4.67
  -3  -1 -12    9.50    5.30
  -3  -1 -13    7.99    4.87
  -3  -1 -14  122.34   14.01
  -3  -1 -15    5.40    5.76
  -3  -1 -16    5.50    6.68
   3   2 -19  108.73   15.24
   3   2 -18    3.84    4.84
   3   2 -17    4.09    4.93
   3   2 -16   16.42    6.42
   3   2 -15  228.51   18.23
   3   2 -14   12.91    6.18
   3   2 -13   11.44    5.08
   3   2 -12   -1.57    3.76
   3   2 -11  138.95   12.09
   3   2 -10    1.90    2.98
  -3  -2  10    0.91    1.74
   3   2  -9  226.27   14.11
  -3  -2   9  248.90   11.06
   3   2  -8   44.72    6.46
  -3  -2   8   55.84    5.43
   3   2  -7    4.54    2.67
  -3  -2   7    7.97    2.57
  -3  -2   6  557.69   17.56
  -3  -2   5  989.23   25.22
  -3  -2   4   14.18    3.27
  -3  -2   3  265.35   11.68
  -3  -2   2    5.19    2.56
  -3  -2   1  315.22   12.77
  -3  -2   1  341.52   13.31
  -3  -2   0   15.27    2.99
  -3  -2   0   20.45    3.44
  -3  -2   0   20.03    2.52
  -3  -2  -1  484.89   16.65
  -3  -2  -1  537.05   14.87
  -3  -2  -1  501.08   16.58
  -3  -2  -2   21.19    3.95
  -3  -2  -2   12.68    3.05
  -3  -2  -2   16.35    2.98
  -3  -2  -3  113.72    8.21
   3   2   3  129.35    4.68
  -3  -2  -3  109.84    7.38
   3   2   4   54.17    3.24
  -3  -2  -4   56.45    6.27
  -3  -2  -4   51.26    5.09
  -3  -2  -5  404.74   17.49
   3   2   5  450.89   11.89
  -3  -2  -5  424.21   14.98
  -3  -2  -6  281.56   14.92
   3   2   6  287.08    9.90
  -3  -2  -6  256.00   11.33
  -3  -2  -7   25.23    3.53
  -3  -2  -7   30.01    5.94
   3   2   7   26.23    3.11
  -3  -2  -8   77.59    9.02
  -3  -2  -8   79.57    5.92
  -3  -2  -9  560.35   24.51
  -3  -2 -10   75.04    9.57
  -3  -2 -11    1.16    3.68
  -3  -2 -12    6.21    5.25
  -3  -2 -13  158.07   15.41
  -3  -2 -14   15.26    5.89
  -3  -2 -15   10.89    5.65
  -3  -2 -16   20.39    7.56
   3   3 -18   86.85   13.41
   3   3 -17   13.92    7.52
   3   3 -16   98.42   13.41
   3   3 -15   -1.31    4.19
   3   3 -14   99.40   12.16
   3   3 -13   75.21   10.03
   3   3 -12   25.34    6.39
   3   3 -11   48.50    7.73
   3   3 -11   61.14    6.30
   3   3 -10   98.53   10.19
  -3  -3  10  108.76    7.67
   3   3  -9  216.53   14.39
  -3  -3   9  211.41   11.02
   3   3  -8  237.54   14.52
  -3  -3   8  223.01   11.21
  -3  -3   7   14.27    3.39
  -3  -3   6 1090.48   28.21
  -3  -3   5   20.30    3.70
  -3  -3   4  750.22   22.21
  -3  -3   3  491.14   17.40
  -3  -3   2  828.84   23.76
  -3  -3   1   24.78    4.13
  -3  -3   0  261.37   10.60
  -3  -3   0  262.50   12.14
  -3  -3   0  258.33   12.24
  -3  -3  -1  162.13    8.52
  -3  -3  -1  148.35    9.08
  -3  -3  -1  156.12    9.46
  -3  -3  -2  527.37   17.24
  -3  -3  -2  513.31   18.23
  -3  -3  -2  524.17   18.07
  -3  -3  -3  220.52   11.79
  -3  -3  -3  235.74   11.51
  -3  -3  -3  211.45   11.00
  -3  -3  -4  149.42    9.94
   3   3   4  152.45    6.74
  -3  -3  -4  148.86    9.70
  -3  -3  -4  136.96    8.73
  -3  -3  -5  239.51   13.37
   3   3   5  246.48    9.35
  -3  -3  -5  224.38   11.39
  -3  -3  -6   24.92    5.10
  -3  -3  -6   25.48    3.97
   3   3   6   27.16    3.22
  -3  -3  -7  113.37   10.10
   3   3   7  130.51    7.66
  -3  -3  -7  109.96    7.78
  -3  -3  -8  294.16   16.99
  -3  -3  -8  302.72   13.00
  -3  -3  -9   22.61    5.94
  -3  -3 -10   43.06    7.31
  -3  -3 -11    2.46    4.12
  -3  -3 -12   61.95    9.35
  -3  -3 -13    5.92    4.18
  -3  -3 -14   53.96    9.87
  -3  -3 -15  166.18   16.97
  -3  -3 -16   20.19    7.44
   3   4 -18    7.23    5.71
   3   4 -17    9.76    5.26
   3   4 -16   25.34    7.96
   3   4 -15  217.33   18.86
   3   4 -14   41.34    8.78
   3   4 -13   65.87   10.07
   3   4 -12  206.08   16.38
   3   4 -11   75.49    9.87
   3   4 -10   -1.57    3.59
  -3  -4  10    3.62    2.85
   3   4  -9  116.38   11.07
  -3  -4   9  112.95    8.69
   3   4  -8  103.00   10.17
  -3  -4   8  112.82    8.80
  -3  -4   7  116.42    8.76
  -3  -4   6  140.33    9.51
  -3  -4   5 1037.72   28.91
  -3  -4   4  574.03   20.25
  -3  -4   3   68.22    6.90
  -3  -4   2  248.77   12.90
  -3  -4   1  579.38   20.27
  -3  -4   0  244.22   12.42
  -3  -4   0  257.80   13.01
  -3  -4  -1  284.69   13.54
  -3  -4  -1  306.07   13.13
  -3  -4  -1  282.74   13.75
  -3  -4  -2  137.62    9.35
  -3  -4  -2  146.18    9.39
  -3  -4  -2  138.19    9.46
  -3  -4  -3   95.49    8.07
  -3  -4  -3  107.41    8.26
  -3  -4  -3   89.32    7.98
  -3  -4  -4    7.93    3.20
   3   4   4    7.26    2.17
  -3  -4  -4    7.92    3.48
  -3  -4  -4    1.28    2.29
  -3  -4  -5  253.62   14.14
   3   4   5  267.90   10.99
  -3  -4  -5  254.69   13.10
  -3  -4  -5  281.35   15.14
  -3  -4  -6   25.39    5.51
  -3  -4  -6   14.15    3.71
   3   4   6   20.92    3.36
  -3  -4  -6    9.31    3.48
  -3  -4  -7  280.65   16.27
  -3  -4  -7  315.24   17.50
  -3  -4  -7  291.34   13.88
  -3  -4  -8    8.77    4.61
  -3  -4  -8    9.59    3.04
  -3  -4  -8    3.84    3.80
  -3  -4  -9  415.87   21.65
  -3  -4 -10   29.74    6.44
  -3  -4 -11  273.86   19.07
  -3  -4 -12  190.63   16.47
  -3  -4 -13   21.51    6.47
  -3  -4 -14   53.13   10.08
  -3  -4 -15   31.06    8.35
  -3  -4 -16    1.68    4.61
   3   5 -17    6.18    6.04
   3   5 -16    3.70    4.95
   3   5 -15    3.19    6.21
   3   5 -14   99.98   12.97
   3   5 -13    9.93    6.43
   3   5 -12  338.23   21.76
   3   5 -12  348.25   18.26
   3   5 -11   47.80    8.65
   3   5 -10   65.58    9.79
  -3  -5  10   75.48    7.73
   3   5  -9   54.95    8.23
  -3  -5   9   66.34    7.41
   3   5  -8  621.78   26.21
  -3  -5   8  602.28   22.62
  -3  -5   7  194.50   12.30
  -3  -5   6  151.44   10.86
  -3  -5   5  136.54   10.14
  -3  -5   4   86.15    8.15
  -3  -5   3   10.34    3.96
  -3  -5   2  695.79   24.13
  -3  -5   1    0.08    2.54
  -3  -5   0    4.83    3.17
  -3  -5  -1    8.37    3.06
  -3  -5  -1    8.17    4.05
  -3  -5  -1   10.78    3.57
  -3  -5  -2  546.47   20.68
  -3  -5  -2  607.59   21.76
  -3  -5  -2  590.61   21.92
  -3  -5  -3   86.43    8.32
  -3  -5  -3   76.55    7.53
  -3  -5  -3   66.56    7.24
  -3  -5  -4   27.93    5.02
  -3  -5  -4   26.22    4.96
  -3  -5  -4   28.75    4.97
  -3  -5  -5    5.14    3.11
   3   5   5    1.76    2.34
  -3  -5  -5    1.72    2.60
  -3  -5  -5    0.38    2.87
  -3  -5  -6   26.30    5.16
   3   5   6   38.95    5.00
  -3  -5  -6   40.86    6.85
  -3  -5  -6   16.69    4.04
  -3  -5  -7    0.34    3.59
  -3  -5  -7    0.68    3.70
  -3  -5  -7    4.27    3.52
  -3  -5  -8  269.87   16.70
  -3  -5  -8  275.01   17.89
  -3  -5  -8  276.83   14.72
  -3  -5  -9   51.92    8.59
  -3  -5  -9   60.84    8.57
  -3  -5 -10  187.23   15.22
  -3  -5 -10  180.25   15.95
  -3  -5 -11   39.15    7.86
  -3  -5 -11   45.60    8.66
  -3  -5 -12  184.68   16.24
  -3  -5 -12  174.25   16.87
  -3  -5 -13   -1.39    3.90
  -3  -5 -13   11.16    5.91
  -3  -5 -14   14.15    7.25
  -3  -5 -14    3.66    4.41
  -3  -5 -15   -5.86    5.82
  -3  -5 -15    2.62    5.71
   3   6 -17   20.55    7.46
   3   6 -16    9.11    7.61
   3   6 -15   23.64    7.11
   3   6 -14   -2.39    4.57
   3   6 -13   58.39   10.23
   3   6 -12   63.87   10.18
   3   6 -12   66.15    8.58
   3   6 -11    7.62    4.12
   3   6 -10   23.06    6.77
  -3  -6  10   40.00    6.65
   3   6  -9  345.15   20.33
  -3  -6   9  340.06   17.61
   3   6  -8   -1.07    4.01
  -3  -6   8    7.73    3.49
  -3  -6   7   56.06    7.35
  -3  -6   6    2.54    3.21
  -3  -6   5   83.70    8.77
  -3  -6   4  274.46   15.60
  -3  -6   3  919.53   30.12
  -3  -6   2   53.39    7.46
  -3  -6   1    4.71    4.06
  -3  -6   0  441.63   20.03
  -3  -6  -1 1833.35   46.40
  -3  -6  -2   51.40    7.26
  -3  -6  -2   47.25    6.60
  -3  -6  -2   60.71    7.16
  -3  -6  -3   43.46    6.58
  -3  -6  -3   41.99    6.53
  -3  -6  -3   50.80    6.64
  -3  -6  -4   39.72    6.30
  -3  -6  -4   46.41    6.59
  -3  -6  -4   49.43    7.02
  -3  -6  -5  677.42   27.29
   3   6   5  716.87   23.11
  -3  -6  -5  670.44   25.55
  -3  -6  -5  676.31   25.53
   3   6   6   51.35    6.03
  -3  -6  -6   62.74    8.61
  -3  -6  -6   32.91    5.76
  -3  -6  -6   57.00    7.20
  -3  -6  -7   16.63    4.53
  -3  -6  -7   25.63    5.12
  -3  -6  -7   18.99    5.47
  -3  -6  -8    8.11    4.26
  -3  -6  -8   12.07    4.27
  -3  -6  -8    4.96    3.43
  -3  -6  -9   44.19    7.60
  -3  -6  -9   35.16    7.37
  -3  -6 -10   51.81    9.17
  -3  -6 -10   37.19    7.51
  -3  -6 -11  215.21   18.52
  -3  -6 -11  228.99   17.53
  -3  -6 -12    2.79    4.30
  -3  -6 -12    3.93    4.00
  -3  -6 -13   -2.22    4.22
  -3  -6 -13    9.57    5.26
  -3  -6 -14   55.63   11.22
  -3  -6 -14   54.41   10.59
  -3  -6 -15  167.35   17.45
   3   7 -16   83.54   13.37
   3   7 -15    2.61    4.29
   3   7 -14   97.30   13.35
   3   7 -13    0.04    4.62
   3   7 -12  145.24   15.19
   3   7 -12  134.28   13.15
   3   7 -11   26.53    7.53
   3   7 -11   23.93    6.08
   3   7 -10    1.05    4.26
  -3  -7  10    2.47    3.36
  -3  -7   9   47.42    7.67
   3   7  -9   42.25    7.99
   3   7  -8  438.57   23.26
  -3  -7   8  410.81   20.72
  -3  -7   7   -0.29    3.55
  -3  -7   6   14.49    4.65
  -3  -7   5    8.03    4.29
  -3  -7   4  738.31   28.28
  -3  -7   3   10.66    4.53
  -3  -7   2  188.62   14.00
  -3  -7   1   79.56    9.13
  -3  -7   0  250.31   15.98
  -3  -7  -1    8.91    4.37
  -3  -7  -2  252.15   16.24
  -3  -7  -3   41.79    6.81
  -3  -7  -3   44.31    7.19
  -3  -7  -3   44.36    6.39
  -3  -7  -4   47.12    7.42
  -3  -7  -4   57.74    8.17
  -3  -7  -4   60.46    7.83
  -3  -7  -5   21.07    5.64
  -3  -7  -5    8.12    4.11
   3   7   5   18.34    4.41
  -3  -7  -5   12.76    4.20
  -3  -7  -6   99.22   10.11
  -3  -7  -6   95.52   10.94
  -3  -7  -6  115.13   11.04
  -3  -7  -7   25.43    6.38
  -3  -7  -7   29.26    5.97
  -3  -7  -7   26.62    6.65
  -3  -7  -8    2.36    4.07
  -3  -7  -8   -0.25    3.61
  -3  -7  -8    7.60    4.08
  -3  -7  -9   -2.79    3.65
  -3  -7  -9    2.80    3.79
  -3  -7 -10   20.51    6.27
  -3  -7 -10    6.48    4.72
  -3  -7 -11   40.64    7.80
  -3  -7 -11   25.86    7.39
  -3  -7 -12    5.18    4.94
  -3  -7 -12   -3.82    4.42
  -3  -7 -13   16.83    5.64
  -3  -7 -13   15.58    6.92
  -3  -7 -14   35.60    7.93
   3   8 -15   92.96   13.59
   3   8 -14    5.16    5.87
   3   8 -13  158.90   16.68
   3   8 -13  173.51   15.89
   3   8 -12   10.49    6.14
   3   8 -12   -1.94    3.87
   3   8 -11    7.66    5.10
   3   8 -11   13.07    5.69
   3   8 -10    8.97    5.33
  -3  -8  10    6.28    4.33
   3   8  -9  156.20   15.02
  -3  -8   9  170.07   14.20
   3   8  -8    3.55    4.12
  -3  -8   8   12.03    5.13
   3   8  -7   23.18    5.93
  -3  -8   7   29.29    6.24
  -3  -8   6   36.70    6.95
  -3  -8   5   45.40    7.94
  -3  -8   4  146.42   13.08
  -3  -8   3  393.41   21.35
  -3  -8   2   76.88    9.82
  -3  -8   1    3.18    3.82
  -3  -8   0   38.06    7.63
  -3  -8  -1  517.85   24.78
  -3  -8  -2    5.46    3.82
  -3  -8  -3   64.35    8.81
  -3  -8  -4  110.34   10.58
  -3  -8  -4   99.48   10.97
  -3  -8  -4  120.06   12.06
   3   8   5  278.55   15.89
  -3  -8  -5  235.00   16.49
  -3  -8  -5  251.02   17.80
  -3  -8  -5  221.32   15.13
  -3  -8  -6   12.43    4.78
  -3  -8  -6    1.24    4.61
  -3  -8  -6   11.47    4.80
  -3  -8  -7  123.46   12.05
  -3  -8  -7  122.59   13.47
  -3  -8  -7  114.67   11.91
  -3  -8  -8   -1.37    3.66
  -3  -8  -8    1.60    3.29
  -3  -8  -8    2.76    3.98
  -3  -8  -9   74.23   11.43
  -3  -8  -9   68.79    9.56
  -3  -8 -10   -1.85    3.59
  -3  -8 -10    8.57    5.85
  -3  -8 -11  262.39   22.16
  -3  -8 -12    8.59    5.58
   3   9 -14   63.80   11.81
   3   9 -13   28.05    8.88
   3   9 -13   24.71    7.48
   3   9 -12   24.71    7.37
   3   9 -12   16.94    6.82
   3   9 -11    3.27    4.25
   3   9 -11    7.95    5.98
   3   9 -10   18.80    6.30
   3   9 -10   15.06    6.12
  -3  -9  10   12.97    4.93
   3   9  -9   11.92    5.98
  -3  -9   9    4.53    3.94
   3   9  -8  381.38   23.03
  -3  -9   8  340.01   21.38
   3   9  -7   29.06    6.62
  -3  -9   7   17.74    6.00
  -3  -9   6   28.26    7.05
  -3  -9   5  147.51   14.18
  -3  -9   4  400.79   22.87
  -3  -9   3   82.41   10.54
  -3  -9   2   89.41   11.18
  -3  -9   1    9.50    4.98
  -3  -9   0  209.61   16.47
  -3  -9  -1   82.47   10.03
  -3  -9  -2   59.16    9.01
  -3  -9  -3    9.72    5.27
  -3  -9  -4   24.36    6.88
  -3  -9  -5   12.77    4.63
  -3  -9  -5    9.48    5.06
  -3  -9  -5   13.55    5.13
  -3  -9  -6  141.53   14.62
  -3  -9  -6  141.01   12.82
  -3  -9  -6  161.89   14.76
  -3  -9  -7  105.50   13.04
  -3  -9  -7  105.32   12.28
  -3  -9  -8   41.82    9.11
  -3  -9  -9   28.30    8.17
  -3  -9 -10  158.74   17.44
  -3  -9 -11   47.08    9.89
   3  10 -13   14.74    5.78
   3  10 -13    6.82    5.74
   3  10 -12    2.59    5.03
   3  10 -12   -1.48    4.83
   3  10 -11   16.05    6.50
   3  10 -11   12.75    6.71
   3  10 -10   19.24    6.26
  -3 -10  10   59.94   10.14
   3  10 -10   34.62    8.57
   3  10  -9   95.13   12.85
  -3 -10   9   95.29   11.87
   3  10  -8    5.86    4.99
  -3 -10   8    0.16    5.18
   3  10  -7    5.15    4.76
  -3 -10   7    2.88    4.55
   3  10  -6    8.49    5.30
  -3 -10   6   11.23    5.56
  -3 -10   5  112.15   13.28
  -3 -10   4    0.91    4.53
  -3 -10   3   83.05   11.12
  -3 -10   2   14.05    6.22
  -3 -10   1  110.76   13.12
  -3 -10   0   -1.80    4.88
  -3 -10  -1  120.49   13.33
  -3 -10  -2   88.22   11.83
  -3 -10  -3   72.15   11.11
  -3 -10  -4    3.25    3.90
  -3 -10  -5  129.49   14.21
  -3 -10  -6   64.03    9.71
  -3 -10  -7   58.12   10.08
  -3 -10  -7   39.29    9.21
  -3 -10  -8    1.55    5.35
  -3 -10  -9   63.97   11.37
  -3 -10 -10   11.44    5.87
   3  11 -12  113.94   14.99
   3  11 -12  113.43   15.33
   3  11 -11   -6.02    4.72
   3  11 -11   -4.60    5.44
  -3 -11  10  161.04   16.64
   3  11 -10  153.89   16.34
   3  11 -10  171.11   18.05
   3  11  -9   -4.01    5.36
  -3 -11   9    2.38    4.72
   3  11  -9    2.29    4.68
   3  11  -8   84.83   12.00
  -3 -11   8   85.64   12.33
   3  11  -7   17.64    6.46
  -3 -11   7    1.56    4.59
   3  11  -6   34.31    7.94
  -3 -11   6   25.66    7.78
   3  11  -5   20.12    6.45
  -3 -11   5   18.44    6.59
  -3 -11   4  107.63   13.81
  -3 -11   3  193.96   17.77
  -3 -11   2  113.04   14.08
  -3 -11   1   26.59    7.19
  -3 -11   0   65.98   11.03
  -3 -11  -1   45.15    9.15
  -3 -11  -2  157.20   16.08
  -3 -11  -3    7.60    6.77
  -3 -11  -4  119.74   14.36
  -3 -11  -5   12.85    6.11
  -3 -11  -6   -1.72    4.04
  -3 -11  -7   33.63    8.44
   3  12 -10   22.09    7.46
  -3 -12  10   11.74    6.42
   3  12  -9   94.30   14.30
  -3 -12   9   64.11   11.45
  -3 -12   8   45.25   10.04
   3  12  -8   33.05    8.89
  -3 -12   7   38.94    9.59
  -3 -12   6   60.25   11.30
  -3 -12   5    2.85    4.86
  -3 -12   4   11.46    6.21
  -3 -12   3  122.28   15.50
  -3 -12   2   11.95    6.39
  -3 -12   1   25.49    8.78
  -3 -12   0    7.81    5.51
  -3 -12  -1   69.58   11.49
  -3 -12  -2    3.58    4.49
  -3 -12  -3  145.24   17.38
  -3 -12  -4   16.76    6.79
  -3 -12  -5    1.84    4.65
  -3 -12  -6   17.62    7.11
  -3 -12  -7   21.30    6.98
  -3 -13   4   12.32    7.63
  -3 -13   3   33.91    9.15
  -3 -13   2   98.41   14.79
  -3 -13   1   40.19    9.83
  -3 -13   0   32.34    9.78
  -3 -13  -1   11.22    5.80
  -4  14   3  -11.87    6.52
  -4  14   2   10.63    6.39
  -4  14   1    2.00    5.42
  -4  13   6   22.41    7.87
  -4  13   5  212.71   20.17
  -4  13   4    5.45    5.44
  -4  13   4   -4.59    4.01
  -4  13   3   30.79    8.53
  -4  13   2   18.70    7.49
  -4  13   1  148.95   16.39
  -4  13   0   13.23    6.00
  -4  13  -1  114.42   14.83
  -4  13  -2   -0.18    5.21
  -4  13  -3   11.64    6.06
  -4  13  -4    3.35    5.13
  -4  12   9   77.62   12.70
  -4  12   8   67.29   11.91
  -4  12   7    3.76    5.88
  -4  12   6    1.60    5.25
  -4  12   5   74.94   11.62
  -4  12   4   92.59   12.05
  -4  12   4   82.59   11.88
  -4  12   3    5.29    4.83
  -4  12   2    3.23    4.28
  -4  12   1   22.98    7.46
  -4  12   0  136.85   15.25
  -4  12  -1   38.36    8.42
  -4  12  -2   11.77    5.92
  -4  12  -3   13.42    6.25
  -4  12  -4   89.84   13.32
  -4  12  -5    3.51    5.53
  -4  12  -6   64.42   11.57
  -4  12  -7   -3.12    5.17
  -4  11  11   69.03   12.01
  -4  11  10   14.26    7.09
  -4  11   9   23.66    7.48
  -4  11   8   14.33    5.37
  -4  11   7    1.36    4.88
  -4  11   6    7.62    5.22
  -4  11   5  102.68   12.96
  -4  11   5  104.14   11.75
  -4  11   4   -7.19    5.56
  -4  11   4    9.13    4.98
  -4  11   3   -0.70    3.59
  -4  11   2   10.49    4.82
  -4  11   1  199.92   16.93
  -4  11   0    4.47    5.28
  -4  11  -1   60.49    9.89
  -4  11  -2    9.38    5.42
  -4  11  -3   59.26   10.46
  -4  11  -4   19.47    7.64
  -4  11  -5  216.27   19.34
  -4  11  -6   92.33   13.10
  -4  11  -7   13.65    6.43
  -4  11  -8  139.42   16.26
  -4  11  -9  111.93   15.20
   4 -10 -14   20.94    7.28
   4 -10 -13    9.02    6.24
  -4  10  13    9.68    7.18
  -4  10  12   64.40   11.29
   4 -10 -12   44.15   10.03
  -4  10  11   74.94   11.87
   4 -10 -11   86.66   12.43
  -4  10  10   73.10   11.62
  -4  10   9    4.82    5.01
  -4  10   8   27.91    8.37
  -4  10   7   14.05    5.50
  -4  10   6  110.67   12.78
  -4  10   5    6.97    4.82
  -4  10   5   14.52    5.18
  -4  10   4  177.08   15.79
  -4  10   4  168.02   13.99
  -4  10   3    0.85    3.49
  -4  10   2  124.45   12.15
  -4  10   1   33.07    6.97
  -4  10   0  228.81   17.70
  -4  10  -1   45.94    8.25
  -4  10  -2  184.98   16.56
  -4  10  -3   49.92    9.19
  -4  10  -4   32.50    8.11
  -4  10  -5  113.33   13.75
  -4  10  -6  107.91   13.57
  -4  10  -7   17.08    7.66
  -4  10  -8  122.97   14.81
  -4  10  -9    7.00    5.42
  -4  10 -10    7.06    5.78
  -4  10 -11   -1.38    4.45
   4  -9 -15   -1.96    4.95
   4  -9 -14   34.51    9.33
  -4   9  14   40.71    9.71
  -4   9  13   66.67   11.72
   4  -9 -13   49.43    9.71
   4  -9 -12   11.04    6.76
  -4   9  12    0.51    4.75
   4  -9 -11  203.23   17.90
  -4   9  11  220.09   19.09
   4  -9 -10    6.44    4.93
  -4   9  10    9.15    5.87
  -4   9   9  115.29   13.29
   4  -9  -9  115.96   12.95
  -4   9   8   28.90    7.51
  -4   9   7  321.34   21.11
  -4   9   6    7.22    4.97
  -4   9   6   15.60    4.52
  -4   9   5  214.09   16.61
  -4   9   5  247.52   15.43
  -4   9   4  174.37   14.79
  -4   9   4  190.57   13.83
  -4   9   3  157.99   12.93
  -4   9   2   46.68    7.28
  -4   9   1  326.92   19.36
  -4   9   0   14.43    5.58
  -4   9  -1  426.18   23.05
  -4   9  -2    6.32    4.95
  -4   9  -3  176.58   15.43
  -4   9  -4   41.67    8.61
  -4   9  -5   30.80    7.49
  -4   9  -6   44.70    8.78
  -4   9  -7  183.56   16.60
  -4   9  -8    4.72    4.95
  -4   9  -9   25.46    7.14
  -4   9 -10   46.49    9.16
  -4   9 -11   60.11   10.50
  -4   9 -12   58.67   11.03
  -4   9 -13    8.68    4.29
  -4   8  16    0.86    5.26
   4  -8 -16    6.51    4.38
  -4   8  15   17.95    7.97
   4  -8 -15    3.92    4.23
   4  -8 -14    1.82    4.05
  -4   8  14   11.88    6.52
  -4   8  13   38.61    8.83
   4  -8 -13   32.36    7.90
  -4   8  12  290.33   22.10
   4  -8 -12  242.02   19.33
  -4   8  11    2.28    4.13
   4  -8 -11    8.47    4.15
   4  -8 -10  107.61   12.61
  -4   8  10  107.25   12.47
   4  -8  -9  190.99   15.76
  -4   8   9  174.59   15.55
  -4   8   8  461.82   24.81
   4  -8  -8  472.23   24.43
  -4   8   7   42.43    8.05
  -4   8   6   57.19    8.73
  -4   8   6   57.89    6.94
  -4   8   5  141.44   12.67
  -4   8   5  145.20   11.05
  -4   8   4   79.48    9.57
  -4   8   4   79.50    8.47
  -4   8   3    4.66    3.65
  -4   8   2    9.77    4.09
  -4   8   1  306.78   17.61
  -4   8   0    5.28    3.67
  -4   8  -1    8.92    5.37
  -4   8  -2  384.46   21.24
  -4   8  -3  134.00   12.74
  -4   8  -4   63.72    9.52
  -4   8  -5   31.70    7.27
  -4   8  -6  206.66   16.80
  -4   8  -7  125.14   13.42
  -4   8  -8    5.08    4.72
  -4   8  -9    1.21    4.36
  -4   8 -10   53.98    9.66
  -4   8 -11    1.61    4.80
  -4   8 -12   86.65   12.43
  -4   8 -13   14.61    6.68
   4  -7 -17  112.46   15.15
   4  -7 -16    5.34    5.00
  -4   7  16    9.14    7.15
  -4   7  15    7.61    6.13
   4  -7 -15   17.33    6.52
  -4   7  14   -1.71    5.52
   4  -7 -14   -1.02    4.91
   4  -7 -13  119.73   13.70
  -4   7  13  111.58   14.11
  -4   7  12   34.79    8.57
   4  -7 -12   35.06    7.86
  -4   7  11   67.21   10.09
   4  -7 -11   60.46    9.12
   4  -7 -10    3.44    3.18
  -4   7  10    0.32    5.17
  -4   7   9   97.70   11.31
   4  -7  -9   83.42    9.87
  -4   7   8  113.59   12.02
   4  -7  -8  121.94   11.50
  -4   7   7  313.39   19.20
  -4   7   7  365.69   15.62
   4  -7  -7  321.64   18.29
  -4   7   6    5.01    3.94
  -4   7   6   10.03    3.54
  -4   7   5   14.92    5.17
  -4   7   5    9.84    3.36
  -4   7   4   34.19    6.83
  -4   7   4   30.58    5.39
  -4   7   3  242.22   14.06
  -4   7   2   16.43    4.93
  -4   7   1   13.51    4.08
  -4   7   0    5.56    4.60
  -4   7  -1  836.07   30.17
  -4   7  -2   13.33    4.16
  -4   7  -3   62.68    8.76
  -4   7  -4   12.12    5.03
  -4   7  -5  361.02   15.97
  -4   7  -5  347.30   20.45
  -4   7  -6    5.17    4.68
  -4   7  -6    3.54    2.70
  -4   7  -7  210.46   13.78
  -4   7  -7  186.60   15.56
  -4   7  -8    2.16    3.79
  -4   7  -8    4.67    3.59
  -4   7  -9   79.87    9.81
  -4   7  -9   78.73   10.75
  -4   7 -10   -0.54    4.53
  -4   7 -10    9.21    5.29
  -4   7 -11  202.09   16.73
  -4   7 -11  229.83   18.47
  -4   7 -12   28.29    7.79
  -4   7 -12   16.10    5.53
  -4   7 -13   -1.83    5.74
  -4   7 -14   14.19    6.72
   4  -6 -17   -1.87    3.83
  -4   6  17   -2.95    5.83
   4  -6 -16  134.86   15.28
  -4   6  16  136.91   16.51
  -4   6  15    8.30    4.69
   4  -6 -15    3.63    4.57
   4  -6 -14   66.54   10.34
  -4   6  14   70.37   11.27
   4  -6 -13   28.58    6.97
  -4   6  13   26.82    7.56
   4  -6 -12  243.32   17.62
  -4   6  12  254.86   19.45
  -4   6  11    4.47    5.31
   4  -6 -11   17.98    5.06
   4  -6 -10   -1.40    3.03
  -4   6  10    2.03    4.48
  -4   6   9   59.66    8.88
   4  -6  -9   50.14    7.38
  -4   6   8  639.67   27.40
   4  -6  -8  680.25   26.41
  -4   6   7   15.81    5.12
   4  -6  -7   10.13    3.83
  -4   6   7   18.06    3.54
  -4   6   6  118.20   10.73
   4  -6  -6   93.23    8.76
  -4   6   6  111.89    8.25
  -4   6   5    7.16    3.95
  -4   6   5    3.43    2.49
  -4   6   4  632.79   21.70
  -4   6   4  611.37   24.01
  -4   6   3    4.18    3.59
  -4   6   3    4.94    3.03
  -4   6   2  173.04   11.53
  -4   6   1   22.57    4.96
  -4   6   0  176.03   12.09
  -4   6  -1   16.72    2.39
  -4   6  -1   11.14    4.87
  -4   6  -2 1186.04   26.50
  -4   6  -2 1083.12   34.68
  -4   6  -3    4.78    2.10
  -4   6  -3    7.61    4.11
  -4   6  -4   -0.59    2.70
  -4   6  -4    0.63    4.10
  -4   6  -5    5.83    4.32
  -4   6  -5    1.02    2.30
  -4   6  -6  752.67   25.65
  -4   6  -6  723.32   29.29
  -4   6  -7   18.64    5.29
  -4   6  -7   19.26    4.97
  -4   6  -8   77.82    8.83
  -4   6  -8   76.38    9.74
  -4   6  -9   18.60    5.36
  -4   6  -9    7.45    4.35
  -4   6 -10  187.56   15.08
  -4   6 -10  167.31   15.00
  -4   6 -11   19.33    6.36
  -4   6 -11   13.47    5.35
  -4   6 -12   36.06    7.16
  -4   6 -12   47.73    8.73
  -4   6 -13    8.71    5.53
  -4   6 -14   10.96    5.97
  -4   6 -15   40.09    9.42
   4  -5 -18    2.63    4.40
  -4   5  18  -13.46    6.88
  -4   5  17   33.50    9.56
   4  -5 -17   41.32    9.12
   4  -5 -16   26.38    6.81
  -4   5  16   43.63   10.21
  -4   5  15    2.52    4.82
   4  -5 -15    0.27    3.69
  -4   5  14    8.52    5.49
   4  -5 -14    8.88    4.71
   4  -5 -13  168.50   14.78
  -4   5  13  177.51   16.53
  -4   5  12   14.87    5.73
   4  -5 -12   14.43    4.77
   4  -5 -11   88.68    9.99
  -4   5  11   85.77   10.87
  -4   5  10   32.49    6.98
   4  -5 -10   40.93    6.63
   4  -5  -9  392.60   19.14
  -4   5   9  351.56   19.87
   4  -5  -8   30.30    3.84
   4  -5  -8   47.03    6.56
  -4   5   8   36.33    6.89
   4  -5  -7  127.47   10.05
  -4   5   7  114.92   10.61
  -4   5   7  149.37    8.26
   4  -5  -7  137.07    6.76
  -4   5   6   34.56    6.17
   4  -5  -6   35.67    5.08
   4  -5  -6   37.16    2.94
  -4   5   6   40.38    4.69
  -4   5   5  678.03   24.68
  -4   5   5  692.13   20.97
   4  -5  -5  655.19   22.15
   4  -5  -5  661.12   13.49
  -4   5   4  124.52    9.87
  -4   5   4  130.05    8.86
  -4   5   3  325.83   15.61
  -4   5   3  339.35   14.89
  -4   5   2  104.04    8.39
  -4   5   1   14.89    1.67
  -4   5   1   13.82    4.00
  -4   5   0  190.94    7.12
  -4   5   0  185.31   11.92
  -4   5  -1 1608.43   31.85
  -4   5  -1 1591.73   40.93
  -4   5  -2  161.95    8.36
  -4   5  -2  175.60   12.17
  -4   5  -3    4.97    2.70
  -4   5  -3    1.65    3.71
  -4   5  -4  107.23   10.31
  -4   5  -4  118.98    8.38
  -4   5  -5  167.42   10.72
  -4   5  -5  154.39   12.13
  -4   5  -6   10.78    4.78
  -4   5  -6    9.13    3.41
  -4   5  -7  525.78   22.01
  -4   5  -7  503.96   23.56
  -4   5  -8    1.12    3.95
  -4   5  -8   -1.25    3.49
  -4   5  -9   10.17    4.79
  -4   5  -9   11.27    5.17
  -4   5 -10   -2.83    3.36
  -4   5 -10    8.82    5.09
  -4   5 -11  167.96   15.08
  -4   5 -11  178.82   15.05
  -4   5 -12   86.86   10.99
  -4   5 -12   61.34    9.81
  -4   5 -13    0.18    5.53
  -4   5 -14   38.95    8.85
  -4   5 -15  131.55   16.01
  -4   4  18   45.92   10.39
  -4   4  17    4.53    7.00
  -4   4  16   78.89   12.36
  -4   4  15    5.45    5.50
  -4   4  14  176.39   17.20
   4  -4 -14  171.19   13.51
  -4   4  13   59.71   10.07
   4  -4 -13   56.46    7.53
  -4   4  12   97.95   12.13
   4  -4 -12  105.83    9.60
  -4   4  11  147.13   13.70
   4  -4 -11  143.25   11.95
   4  -4 -11  155.64   10.96
  -4   4  10   43.27    7.79
   4  -4 -10   52.34    7.21
   4  -4  -9    4.67    2.12
  -4   4   9   13.08    5.54
   4  -4  -9    6.61    3.47
   4  -4  -8  333.61   12.16
  -4   4   8  334.71   18.20
   4  -4  -8  343.22   16.34
  -4   4   8  350.17   11.49
   4  -4  -7  878.45   20.21
  -4   4   7  845.69   29.09
   4  -4  -7  845.27   25.96
  -4   4   7  892.82   21.97
   4  -4  -6 1287.78   25.27
  -4   4   6 1434.78   37.37
   4  -4  -6 1269.77   32.52
  -4   4   6 1310.55   29.43
   4  -4  -5    0.58    0.88
  -4   4   5   -1.54    2.92
   4  -4  -5   -0.49    1.77
  -4   4   5    0.70    1.70
  -4   4   4  479.29   18.59
  -4   4   4  462.26   16.25
   4  -4  -4  443.80   15.76
  -4   4   3   28.51    4.52
  -4   4   3   28.39    4.37
  -4   4   2    3.07    2.45
  -4   4   2    7.10    3.08
  -4   4   1  129.48    5.77
  -4   4   1  118.87    8.88
  -4   4   0  643.07   21.97
  -4   4   0  664.86   16.46
  -4   4  -1   23.14    4.49
  -4   4  -1   26.47    3.30
  -4   4  -2   45.71    4.52
  -4   4  -2   39.59    5.75
  -4   4  -3    6.65    3.38
  -4   4  -3    8.76    2.90
  -4   4  -4    6.97    2.93
  -4   4  -4    9.09    3.52
  -4   4  -5  102.66    8.55
  -4   4  -5  100.67    9.71
  -4   4  -6  256.79   14.10
  -4   4  -6  248.99   15.07
  -4   4  -7   38.33    6.40
  -4   4  -7   26.30    5.41
  -4   4  -8  189.03   13.85
  -4   4  -8  200.25   14.39
  -4   4  -9   33.32    6.96
  -4   4  -9   33.92    7.70
  -4   4 -10   22.13    6.09
  -4   4 -10   17.63    5.38
  -4   4 -11   10.51    4.78
  -4   4 -11   12.82    4.66
  -4   4 -12    3.84    4.46
  -4   4 -12   -0.18    4.28
  -4   4 -13    3.73    5.58
  -4   4 -14   76.64   12.08
  -4   4 -15    7.94    5.92
  -4   3  19   68.24   12.74
  -4   3  18   -2.38    5.13
   4  -3 -18   11.72    6.02
   4  -3 -17   75.86   10.86
  -4   3  17   42.00    9.31
   4  -3 -16   24.82    6.55
  -4   3  16   32.51    9.11
   4  -3 -15   73.20    9.57
  -4   3  15   68.59   11.24
  -4   3  14   41.67    8.84
   4  -3 -14   55.47    8.13
  -4   3  13  442.73   25.59
   4  -3 -12   23.32    4.80
  -4   3  12   16.37    6.17
   4  -3 -11    2.52    2.66
  -4   3  11    2.76    4.41
   4  -3 -10  247.23   12.61
  -4   3  10  221.25   16.17
   4  -3  -9  345.76   14.20
  -4   3   9  325.69   18.56
   4  -3  -8   76.03    5.97
  -4   3   8   62.34    8.30
   4  -3  -8   63.83    6.40
   4  -3  -7  171.06    8.54
   4  -3  -7  177.33   10.20
  -4   3   7  164.73   11.93
  -4   3   7  177.94    8.12
   4  -3  -6  183.95    8.21
  -4   3   6  176.87   11.67
   4  -3  -6  183.36    9.75
  -4   3   6  196.29    8.93
  -4   3   5  734.47   23.75
   4  -3  -5  716.66   20.13
  -4   3   5  776.06   20.43
  -4   3   4   17.82    3.55
   4  -3  -4   19.64    2.83
  -4   3   4   20.26    3.40
  -4   3   3  182.32    9.65
  -4   3   3  185.82   10.10
  -4   3   2    8.60    2.30
  -4   3   2   20.48    3.98
  -4   3   1  398.84   15.81
  -4   3   1  442.12   15.01
  -4   3   1  449.35   12.73
  -4   3   0  288.75   13.45
  -4   3   0  307.00   10.69
  -4   3  -1 1078.82   24.77
  -4   3  -1 1011.43   28.71
  -4   3  -2  971.32   24.44
  -4   3  -2  947.35   28.03
  -4   3  -3   99.68    7.27
  -4   3  -3   97.30    8.33
  -4   3  -4   53.86    5.86
  -4   3  -4   47.36    6.54
  -4   3  -5  187.78   11.47
  -4   3  -5  176.11   12.10
  -4   3  -6   47.35    6.44
  -4   3  -6   48.96    6.75
  -4   3  -7  892.81   29.62
  -4   3  -7  883.14   30.18
  -4   3  -8  106.52   10.89
  -4   3  -8  116.84   10.81
  -4   3  -9  143.11   12.44
  -4   3  -9  128.39   11.74
  -4   3 -10   57.27    8.75
  -4   3 -10   44.85    7.10
  -4   3 -11  112.34   12.51
  -4   3 -11   89.40   10.69
  -4   3 -12   36.71    7.59
  -4   3 -13   61.79   10.04
  -4   3 -14  225.15   19.53
  -4   3 -15   44.82   10.13
   4  -2 -19   27.24    8.31
  -4   2  19   36.83   10.26
   4  -2 -18    7.57    5.44
  -4   2  18    4.32    5.72
   4  -2 -17   80.88   11.48
  -4   2  17  107.26   15.09
   4  -2 -16   20.49    5.93
  -4   2  16   13.89    6.07
  -4   2  15   -0.53    5.50
   4  -2 -15    4.67    4.34
   4  -2 -14   77.51    9.26
  -4   2  14   81.45   11.32
   4  -2 -13    6.83    3.88
  -4   2  13   13.10    5.95
   4  -2 -12  103.76    9.82
  -4   2  12  133.88   13.43
   4  -2 -11   21.05    4.83
  -4   2  11   23.91    6.09
   4  -2 -10  439.06   18.07
  -4   2  10  428.56   22.17
   4  -2  -9   94.13    7.74
  -4   2   9  105.22   10.84
   4  -2  -8  185.26   10.13
  -4   2   8  166.31   12.62
   4  -2  -7   13.53    2.88
  -4   2   7    9.76    4.33
  -4   2   6 1217.55   33.37
  -4   2   5  125.62    8.91
   4  -2  -5  125.22    6.60
  -4   2   5  139.40    7.73
   4  -2  -4    4.03    1.34
  -4   2   4    2.25    2.30
  -4   2   4    1.96    2.17
  -4   2   3   88.29    6.55
  -4   2   3   92.23    6.77
  -4   2   2  824.51   21.65
  -4   2   2  885.76   23.66
  -4   2   1  958.38   22.70
  -4   2   1  970.09   25.87
  -4   2   1  999.96   22.73
  -4   2   0  641.33   16.77
  -4   2   0  678.42   18.10
  -4   2   0  675.57   21.11
  -4   2  -1  230.30   10.23
  -4   2  -1  245.54   12.29
  -4   2  -2  275.97   13.66
  -4   2  -2  309.06   12.65
  -4   2  -3   38.63    4.67
  -4   2  -3   36.52    5.48
  -4   2  -4   76.58    7.78
  -4   2  -4   76.62    7.09
  -4   2  -5  100.70    8.54
  -4   2  -5  100.26    8.99
  -4   2  -6   17.82    4.35
  -4   2  -6   26.32    5.08
  -4   2  -7   20.68    5.08
  -4   2  -7   12.09    4.10
  -4   2  -8  223.99   14.80
  -4   2  -8  234.10   11.87
  -4   2  -8  239.09   14.90
  -4   2  -9   70.29    9.31
  -4   2  -9   88.15    9.53
  -4   2 -10   54.71    8.41
  -4   2 -10   61.93    8.05
  -4   2 -11   54.28    9.31
  -4   2 -11   42.35    7.21
  -4   2 -12   34.90    7.89
  -4   2 -13  113.62   13.53
  -4   2 -14  105.72   13.52
  -4   2 -15   19.05    7.19
   4  -1 -19   66.51   11.16
  -4   1  19   78.39   13.08
   4  -1 -18   34.45    8.16
  -4   1  18   35.72    9.50
   4  -1 -17   21.88    6.93
  -4   1  17   10.99    6.91
  -4   1  16   50.65   10.28
   4  -1 -15  111.77   11.87
  -4   1  15  119.04   14.01
   4  -1 -14    4.24    3.09
  -4   1  14   -0.42    5.44
   4  -1 -13   -0.46    2.89
  -4   1  13    2.44    4.78
   4  -1 -12   12.19    4.34
  -4   1  12    1.56    4.39
   4  -1 -11  232.59   14.13
  -4   1  11  237.87   16.79
   4  -1 -10   94.80    8.58
  -4   1  10   83.09    9.75
  -4   1  10   85.81    6.89
   4  -1  -9  204.74   11.97
  -4   1   9  198.52   14.11
  -4   1   9  215.87   11.15
  -4   1   8   29.52    4.39
   4  -1  -8   20.68    4.01
  -4   1   8   23.58    5.29
   4  -1  -7  524.54   18.11
  -4   1   7  518.05   20.98
  -4   1   6    5.70    3.08
  -4   1   5   66.97    6.90
  -4   1   4  747.28   22.16
   4  -1  -4  760.36   15.54
  -4   1   3  293.20   12.15
  -4   1   3  316.13   12.79
  -4   1   2    1.33    2.12
  -4   1   2    2.35    1.99
  -4   1   1   84.94    5.23
  -4   1   1   86.15    6.07
  -4   1   1   83.75    6.85
  -4   1   0  174.89    6.72
  -4   1   0  174.36    8.88
  -4   1   0  172.59    9.93
  -4   1  -1  828.41   22.20
  -4   1  -1  801.76   16.31
  -4   1  -1  812.24   24.09
  -4   1  -2   84.13    6.87
  -4   1  -2   87.22    3.73
  -4   1  -2   94.24    7.80
  -4   1  -3  389.63   15.55
  -4   1  -3  375.65   16.41
  -4   1  -4  196.61   11.43
  -4   1  -4  192.03   10.92
  -4   1  -4  182.78   11.56
  -4   1  -5    3.12    2.80
  -4   1  -5   -0.63    2.68
  -4   1  -5   -1.90    2.55
  -4   1  -6  103.72    9.22
  -4   1  -6   97.49    8.91
  -4   1  -6  102.17    7.77
  -4   1  -7  701.18   26.01
  -4   1  -7  707.56   25.73
  -4   1  -7  680.73   21.24
  -4   1  -8   19.88    5.45
  -4   1  -8   16.16    4.56
  -4   1  -9   71.60    9.14
  -4   1  -9   81.14    9.16
  -4   1 -10   65.10    8.43
  -4   1 -10   57.16    8.58
  -4   1 -11   96.15   11.63
  -4   1 -11   96.66   10.34
  -4   1 -12   77.30   11.11
  -4   1 -13  233.13   19.10
  -4   1 -14    5.59    5.31
  -4   1 -15   -0.12    4.92
   4   0 -19   18.49    6.91
   4   0 -18   10.35    4.90
   4   0 -17   40.67    8.37
  -4   0  17   23.98    8.00
   4   0 -16  411.61   24.37
  -4   0  16  407.86   26.48
   4   0 -15    8.18    5.28
  -4   0  15   11.87    6.47
   4   0 -14    1.03    3.16
  -4   0  14    4.11    4.48
   4   0 -13    5.44    3.20
  -4   0  13   15.97    6.94
   4   0 -12  187.92   13.98
  -4   0  12  162.33   14.73
   4   0 -11   48.47    7.23
  -4   0  11   65.45    9.18
   4   0 -10  189.16   12.64
  -4   0  10  215.85   15.30
  -4   0  10  210.62   10.74
   4   0  -9   69.84    7.55
  -4   0   9   68.89    8.49
  -4   0   9   78.04    6.61
  -4   0   8   34.10    4.63
  -4   0   8   36.33    6.03
   4   0  -8   35.50    5.11
  -4   0   7   11.36    2.98
  -4   0   7   18.99    4.66
  -4   0   6 1881.63   44.46
  -4   0   6 1969.88   42.08
  -4   0   5  164.74   10.06
  -4   0   5  170.40    9.90
  -4   0   4   66.01    6.15
  -4   0   4   69.22    6.66
  -4   0   3 1351.89   30.41
  -4   0   3 1324.93   32.89
  -4   0   2 1854.71   36.22
  -4   0   2 1839.94   41.01
  -4   0   1   92.84    7.57
  -4   0   1  106.23    5.63
  -4   0   1   99.73    7.01
  -4   0   0   74.68    4.04
  -4   0   0   77.63    6.37
  -4   0   0   75.17    6.91
  -4   0   0   95.47    7.93
  -4   0  -1  217.76   10.87
  -4   0  -1  225.08   12.32
  -4   0  -1  244.53   12.28
  -4   0  -2  885.72   24.65
  -4   0  -2  831.27   24.50
  -4   0  -2  846.45   25.99
  -4   0  -3   16.84    3.89
  -4   0  -3   14.93    3.35
  -4   0  -3   13.65    3.25
  -4   0  -4  195.94   11.59
  -4   0  -4  210.75   12.68
  -4   0  -4  194.01   10.68
  -4   0  -5   11.20    3.71
  -4   0  -5   10.10    2.84
  -4   0  -5    6.36    3.34
  -4   0  -6  158.69   11.63
  -4   0  -6  161.13    9.55
  -4   0  -6  164.15   11.71
  -4   0  -7    9.88    4.34
  -4   0  -7   14.98    3.12
  -4   0  -7    9.16    4.21
  -4   0  -8 1007.14   33.72
  -4   0  -8  958.16   31.94
  -4   0  -9   32.86    6.49
  -4   0 -10    7.37    4.91
  -4   0 -11   61.47    9.54
  -4   0 -12  254.74   19.20
  -4   0 -13   10.90    5.39
  -4   0 -14    3.94    4.51
  -4   0 -15   22.00    7.88
   4   1 -19   -1.97    5.63
   4   1 -18    1.62    4.53
   4   1 -17  119.46   14.02
   4   1 -16   43.40    8.91
   4   1 -15  107.85   12.37
  -4  -1  15  109.89   14.21
   4   1 -14    2.41    3.80
  -4  -1  14   -1.99    4.61
   4   1 -13   85.07   10.36
  -4  -1  13  109.03   12.45
   4   1 -12  132.16   11.92
  -4  -1  12  137.73   13.94
   4   1 -11  126.39   11.26
  -4  -1  11  147.40   13.41
   4   1 -10   -0.80    2.79
  -4  -1  10    0.80    2.01
  -4  -1  10    1.55    4.34
   4   1  -9   45.04    6.63
  -4  -1   9   39.94    4.98
  -4  -1   9   45.40    7.41
   4   1  -8   79.59    7.99
  -4  -1   8   89.78    9.33
  -4  -1   8   74.02    6.54
  -4  -1   7  466.01   19.76
  -4  -1   7  460.60   16.89
  -4  -1   6  298.90   14.60
  -4  -1   6  295.35   13.38
  -4  -1   5  178.62   10.55
  -4  -1   5  188.68   10.58
  -4  -1   4   91.86    7.08
  -4  -1   4   97.49    7.62
  -4  -1   3  441.88   15.04
  -4  -1   3  430.42   16.43
  -4  -1   2   18.21    3.79
  -4  -1   2   29.70    3.66
  -4  -1   1  409.66   15.35
  -4  -1   1  382.62   15.37
  -4  -1   0   52.91    5.61
  -4  -1   0   64.62    6.16
  -4  -1   0   59.36    3.61
  -4  -1  -1  933.61   25.84
  -4  -1  -1  977.48   20.99
  -4  -1  -1  872.14   25.49
  -4  -1  -2    5.31    3.10
  -4  -1  -2    2.59    2.90
  -4  -1  -3  515.92   19.14
  -4  -1  -3  518.87   18.28
  -4  -1  -4    8.98    3.01
  -4  -1  -4    7.36    3.19
  -4  -1  -5   14.29    4.37
  -4  -1  -5   23.02    3.89
  -4  -1  -6   -0.04    1.79
  -4  -1  -6    3.53    3.53
  -4  -1  -7 2082.77   52.00
  -4  -1  -7 2093.21   44.07
  -4  -1  -8    4.17    4.23
  -4  -1  -9    5.08    3.85
  -4  -1 -10    8.07    4.91
  -4  -1 -11  279.87   19.33
  -4  -1 -12    8.10    5.37
  -4  -1 -13   81.63   11.97
  -4  -1 -14   28.27    7.95
  -4  -1 -15    4.36    5.60
   4   2 -18    0.86    5.13
   4   2 -17   14.13    6.22
   4   2 -16  190.93   17.60
   4   2 -15   10.37    6.12
   4   2 -14   48.68    8.53
   4   2 -13    7.38    4.49
   4   2 -12  349.16   20.38
   4   2 -11  307.14   18.72
  -4  -2  11  334.67   14.47
   4   2 -10   78.21    9.17
  -4  -2  10   72.59    9.60
  -4  -2  10   74.30    6.84
   4   2  -9  174.77   12.86
  -4  -2   9  161.72   12.84
  -4  -2   9  170.39   10.28
  -4  -2   8  317.46   17.15
  -4  -2   8  353.51   15.06
  -4  -2   7   16.01    3.96
  -4  -2   7   19.54    4.82
  -4  -2   6 2407.86   50.47
  -4  -2   5  316.89   14.34
  -4  -2   4  115.95    8.52
  -4  -2   3   50.59    6.02
  -4  -2   2 1419.55   34.80
  -4  -2   1   16.17    4.23
  -4  -2   1   15.12    3.77
  -4  -2   0  634.44   20.99
  -4  -2   0  659.01   16.69
  -4  -2   0  670.08   21.64
  -4  -2  -1  100.44    6.13
  -4  -2  -1  109.88    8.42
  -4  -2  -1   86.41    7.25
  -4  -2  -2  372.68   16.03
  -4  -2  -2  368.27   13.31
  -4  -2  -2  360.99   15.30
  -4  -2  -3  201.28   11.89
  -4  -2  -3  203.29   11.24
  -4  -2  -4   99.35    8.81
  -4  -2  -4  103.38    7.87
  -4  -2  -5   48.72    6.61
  -4  -2  -5   60.22    6.07
  -4  -2  -6   20.26    4.01
  -4  -2  -6   18.13    4.94
  -4  -2  -7   97.68   10.21
  -4  -2  -7   89.18    7.33
  -4  -2  -8  187.65   14.33
  -4  -2  -9   38.61    6.90
  -4  -2 -10    2.24    3.92
  -4  -2 -11   73.82   10.41
  -4  -2 -12  130.74   14.00
  -4  -2 -13   66.56   10.66
  -4  -2 -14   23.14    7.10
  -4  -2 -15   14.07    6.74
   4   3 -18    6.26    6.41
   4   3 -17  186.93   18.42
   4   3 -16   37.54    8.78
   4   3 -15  112.95   13.64
   4   3 -14   15.12    6.39
   4   3 -13  230.06   17.63
   4   3 -12   28.69    6.94
   4   3 -11    8.70    4.45
  -4  -3  11    0.81    2.19
   4   3 -10   67.22    8.99
  -4  -3  10   65.06    7.02
   4   3  -9   22.47    6.08
  -4  -3   9   16.36    4.05
  -4  -3   8  188.99   11.45
  -4  -3   7  330.20   15.18
  -4  -3   6    1.74    2.52
  -4  -3   5   69.33    7.04
  -4  -3   4   -0.26    2.84
  -4  -3   3  624.48   21.84
  -4  -3   2  290.62   14.37
  -4  -3   1   11.49    3.68
  -4  -3   0    2.05    2.61
  -4  -3   0    4.24    3.12
  -4  -3   0    7.36    2.22
  -4  -3  -1  207.63   10.05
  -4  -3  -1  210.94   12.15
  -4  -3  -1  205.93   11.99
  -4  -3  -2   13.14    3.45
  -4  -3  -2   17.22    3.40
  -4  -3  -2   14.07    3.83
  -4  -3  -3  161.03    9.80
   4   3   3  154.78    5.92
  -4  -3  -3  140.01   10.49
  -4  -3  -3  142.69    9.92
  -4  -3  -4   78.40    7.17
  -4  -3  -4   79.51    8.32
  -4  -3  -4   69.07    6.90
  -4  -3  -5    6.56    3.86
  -4  -3  -5    4.04    2.50
  -4  -3  -5    4.10    3.03
  -4  -3  -6  313.31   17.25
  -4  -3  -6  305.72   14.62
  -4  -3  -7  443.59   21.56
  -4  -3  -7  433.21   17.54
  -4  -3  -8  126.38   11.90
  -4  -3  -9   21.02    6.30
  -4  -3 -10   27.94    7.17
  -4  -3 -11  202.11   16.97
  -4  -3 -12   81.78   11.44
  -4  -3 -13  110.67   13.51
  -4  -3 -14    7.63    6.69
  -4  -3 -15   21.51    8.15
   4   4 -18   82.27   13.15
   4   4 -17   15.65    6.99
   4   4 -16   50.17   10.20
   4   4 -15    8.91    5.07
   4   4 -14  238.42   19.21
   4   4 -13   37.39    8.33
   4   4 -12  104.60   12.18
   4   4 -11   22.53    6.38
  -4  -4  11   42.65    6.13
   4   4 -10   37.91    7.39
  -4  -4  10   50.05    6.72
   4   4  -9  356.14   20.30
  -4  -4   9  379.56   17.42
  -4  -4   8   18.13    4.98
  -4  -4   7  192.64   12.18
  -4  -4   6  258.02   14.07
  -4  -4   5    3.86    2.67
  -4  -4   4  443.44   18.80
  -4  -4   3   50.86    6.82
  -4  -4   2  348.91   16.65
  -4  -4   1  116.29    9.45
  -4  -4   0  223.25   13.00
  -4  -4   0  209.71   12.60
  -4  -4  -1   67.27    6.17
  -4  -4  -1   54.20    6.57
  -4  -4  -1   45.73    6.13
  -4  -4  -2  422.73   18.70
  -4  -4  -2  464.24   17.68
  -4  -4  -2  439.62   18.63
  -4  -4  -3  461.68   18.53
  -4  -4  -3  436.55   19.43
  -4  -4  -3  429.13   18.59
  -4  -4  -4   52.18    6.62
  -4  -4  -4   54.02    7.06
  -4  -4  -4   70.65    7.29
  -4  -4  -5  116.75   10.61
  -4  -4  -5  129.23   10.43
  -4  -4  -5  102.04    8.95
  -4  -4  -6  186.74   13.64
  -4  -4  -6  202.16   13.73
  -4  -4  -6  186.28   12.11
  -4  -4  -7    8.20    3.55
  -4  -4  -7    4.12    4.30
  -4  -4  -7    5.16    4.71
  -4  -4  -8  114.99   11.65
  -4  -4  -8  128.75   12.29
  -4  -4  -9   26.54    6.36
  -4  -4  -9   17.26    5.57
  -4  -4 -10  318.46   20.64
  -4  -4 -10  285.14   19.91
  -4  -4 -11    9.99    5.11
  -4  -4 -12   31.36    8.10
  -4  -4 -13    5.85    5.00
  -4  -4 -14   56.79   11.14
  -4  -4 -14   76.02   12.25
  -4  -4 -15   89.01   13.78
  -4  -4 -15   77.79   12.65
   4   5 -17    1.36    5.49
   4   5 -16   74.88   11.97
   4   5 -15   43.03    9.62
   4   5 -14   23.45    7.11
   4   5 -13   42.85    8.83
   4   5 -12    3.30    4.71
   4   5 -11  293.71   20.09
  -4  -5  11  310.22   16.62
   4   5 -10    6.70    4.18
  -4  -5  10    7.75    3.99
   4   5  -9  164.47   14.61
  -4  -5   9  200.01   13.29
  -4  -5   8  310.89   16.72
  -4  -5   7  194.34   13.10
  -4  -5   6   95.88    9.34
  -4  -5   5  595.29   23.43
  -4  -5   4   20.65    5.14
  -4  -5   3  214.75   13.59
  -4  -5   2   83.76    8.90
  -4  -5   1  195.35   12.96
  -4  -5   0    9.80    4.18
  -4  -5  -1  801.23   25.13
  -4  -5  -1  724.14   26.07
  -4  -5  -1  737.98   26.59
  -4  -5  -2   25.21    5.05
  -4  -5  -2   28.45    4.76
  -4  -5  -2   21.62    5.06
  -4  -5  -3  167.15   12.37
  -4  -5  -3  192.76   12.54
  -4  -5  -3  166.46   11.96
  -4  -5  -4   98.26    9.50
  -4  -5  -4  113.90   10.15
  -4  -5  -4   99.21    9.50
  -4  -5  -5  264.63   15.81
  -4  -5  -5  243.17   15.62
  -4  -5  -5  263.39   15.06
  -4  -5  -6   83.53    9.77
  -4  -5  -6   85.33    8.87
  -4  -5  -6   71.85    8.65
  -4  -5  -7   80.81    9.64
  -4  -5  -7   87.47    8.71
  -4  -5  -7   73.33    9.33
  -4  -5  -8   34.42    7.28
  -4  -5  -8   40.31    7.04
  -4  -5  -9  229.51   17.10
  -4  -5  -9  258.13   18.53
  -4  -5 -10    6.61    5.14
  -4  -5 -10    9.00    4.84
  -4  -5 -11   63.44    9.61
  -4  -5 -11   56.65    9.70
  -4  -5 -12   44.96    9.40
  -4  -5 -12   28.65    7.34
  -4  -5 -13  184.79   17.90
  -4  -5 -13  211.70   19.76
  -4  -5 -14    6.38    5.67
  -4  -5 -14   31.72    8.43
   4   6 -16    0.52    4.56
   4   6 -15   15.86    7.23
   4   6 -14   79.70   12.30
   4   6 -13   16.01    6.25
   4   6 -12    1.63    4.55
   4   6 -11   21.15    7.03
  -4  -6  11   15.79    5.48
   4   6 -10  310.72   20.76
  -4  -6  10  353.08   18.90
   4   6  -9   -1.52    4.41
  -4  -6   9   -2.34    3.45
  -4  -6   8   92.23    9.71
  -4  -6   7   57.55    7.99
  -4  -6   6  480.56   22.11
  -4  -6   5  138.58   11.81
  -4  -6   4  200.25   13.90
  -4  -6   3   92.73    9.66
  -4  -6   2   34.83    6.22
  -4  -6   1   62.48    8.48
  -4  -6   0  745.65   28.14
  -4  -6  -1  211.82   14.60
  -4  -6  -2   49.91    6.90
  -4  -6  -2   65.42    8.24
  -4  -6  -2   58.15    7.23
  -4  -6  -3  321.43   17.65
  -4  -6  -3  333.80   17.74
  -4  -6  -3  322.49   17.91
  -4  -6  -4  299.78   17.52
  -4  -6  -4  354.62   18.82
  -4  -6  -4  320.53   17.95
  -4  -6  -5  287.59   17.39
  -4  -6  -5  302.91   18.02
  -4  -6  -5  295.14   17.11
  -4  -6  -6   25.34    5.49
  -4  -6  -6   17.17    5.22
  -4  -6  -6   22.48    5.53
  -4  -6  -7    7.58    5.15
  -4  -6  -7    3.41    3.44
  -4  -6  -7    2.31    3.43
  -4  -6  -8   48.92    8.16
  -4  -6  -8   56.16    9.00
  -4  -6  -9   19.65    6.53
  -4  -6  -9   13.39    5.25
  -4  -6 -10    4.95    5.27
  -4  -6 -10   -0.31    3.78
  -4  -6 -11    4.49    5.23
  -4  -6 -11    6.29    4.13
  -4  -6 -12   12.45    5.96
  -4  -6 -12    7.74    5.04
  -4  -6 -13    8.28    6.26
  -4  -6 -13   21.67    7.17
  -4  -6 -14   78.65   12.08
   4   7 -16   45.25   11.05
   4   7 -15  266.90   23.01
   4   7 -14    3.02    5.28
   4   7 -13  150.39   16.12
   4   7 -12    7.62    5.62
   4   7 -11  115.55   13.44
  -4  -7  11  102.52   10.72
   4   7 -10   -3.43    4.21
  -4  -7  10    1.11    3.58
   4   7  -9   67.24   10.65
  -4  -7   9   79.54    9.51
  -4  -7   8   44.43    7.59
  -4  -7   7    2.14    3.79
  -4  -7   6   -2.28    4.32
  -4  -7   5  131.22   12.04
  -4  -7   4    0.71    3.66
  -4  -7   3  102.68   10.25
  -4  -7   2    2.39    4.04
  -4  -7   1  462.98   22.92
  -4  -7   0   39.72    7.61
  -4  -7  -1   36.98    6.84
  -4  -7  -2    4.14    3.71
  -4  -7  -3   68.07    9.11
  -4  -7  -3   68.54    8.64
  -4  -7  -3   54.75    7.96
  -4  -7  -4   20.92    5.25
  -4  -7  -4   23.15    5.57
  -4  -7  -4   27.77    5.80
  -4  -7  -5  102.93   10.75
  -4  -7  -5  112.63   11.76
  -4  -7  -5  140.01   12.48
  -4  -7  -6   13.00    4.74
  -4  -7  -6    8.12    4.15
  -4  -7  -6   15.27    5.65
  -4  -7  -7    8.23    4.60
  -4  -7  -7   25.97    6.51
  -4  -7  -7   19.28    5.81
  -4  -7  -8    1.90    3.45
  -4  -7  -8   -2.86    4.46
  -4  -7  -9  114.69   12.62
  -4  -7  -9  112.77   13.50
  -4  -7 -10   -3.60    4.32
  -4  -7 -10    3.18    4.32
  -4  -7 -11   20.11    6.68
  -4  -7 -11    5.07    4.33
  -4  -7 -12    3.83    4.14
  -4  -7 -12   10.77    6.09
  -4  -7 -13  128.75   15.36
  -4  -7 -13  121.42   15.84
   4   8 -15    2.23    6.00
   4   8 -14  368.58   26.74
   4   8 -13   29.50    8.22
   4   8 -12   23.71    8.46
   4   8 -11   -0.12    4.17
  -4  -8  11    2.87    4.28
   4   8 -10  232.52   19.22
  -4  -8  10  289.38   19.45
  -4  -8   9    8.04    4.75
   4   8  -9    0.65    4.82
   4   8  -8   35.88    7.71
  -4  -8   8   28.72    6.68
  -4  -8   7   47.90    8.27
  -4  -8   6  164.66   14.36
  -4  -8   5   17.03    6.43
  -4  -8   4   61.70    9.54
  -4  -8   3    2.57    4.21
  -4  -8   2   66.16    9.29
  -4  -8   1    0.66    3.90
  -4  -8   0  937.17   35.77
  -4  -8  -1   87.35   10.80
  -4  -8  -2   22.64    6.21
  -4  -8  -3   26.73    6.69
  -4  -8  -4  345.39   20.03
  -4  -8  -4  357.30   21.08
  -4  -8  -4  345.51   20.89
  -4  -8  -5   10.43    5.05
  -4  -8  -5    0.31    3.41
  -4  -8  -5    6.32    3.73
  -4  -8  -6    5.46    4.25
  -4  -8  -6   14.88    4.92
  -4  -8  -6    6.01    3.67
  -4  -8  -7   -2.85    4.26
  -4  -8  -7    4.67    4.07
  -4  -8  -7    9.21    4.96
  -4  -8  -8  286.57   19.83
  -4  -8  -8  272.23   20.79
  -4  -8  -9   10.21    5.11
  -4  -8  -9   16.86    6.25
  -4  -8 -10   47.02    9.61
  -4  -8 -10   21.55    6.27
  -4  -8 -11   -0.80    4.69
  -4  -8 -11    0.52    4.16
  -4  -8 -12   57.87   11.22
   4   9 -14   -1.25    4.53
   4   9 -13   -7.27    7.12
   4   9 -13    4.74    4.51
   4   9 -12   14.37    7.86
   4   9 -12   11.80    6.73
   4   9 -11   56.57   10.42
   4   9 -10    1.34    5.61
  -4  -9  10    0.33    4.29
   4   9  -9    1.14    4.19
  -4  -9   9    9.17    5.31
   4   9  -8   -0.67    4.05
  -4  -9   8   -0.34    4.06
  -4  -9   7  140.88   14.10
  -4  -9   6    8.87    5.43
  -4  -9   5  191.00   16.32
  -4  -9   4   -1.31    4.21
  -4  -9   3    7.86    5.06
  -4  -9   2   96.34   12.06
  -4  -9   1  409.40   23.91
  -4  -9   0   18.47    6.53
  -4  -9  -1   23.62    7.15
  -4  -9  -2    2.55    4.05
  -4  -9  -3   87.97   11.50
  -4  -9  -4    6.54    4.57
  -4  -9  -5    8.63    5.32
  -4  -9  -5    6.38    4.53
  -4  -9  -6    1.44    3.59
  -4  -9  -6    1.10    3.73
  -4  -9  -6    1.57    4.02
  -4  -9  -7   14.83    5.15
  -4  -9  -7    6.06    5.23
  -4  -9  -7   21.80    6.41
  -4  -9  -8   31.02    8.13
  -4  -9  -9  178.07   18.05
  -4  -9 -10    7.00    5.55
   4  10 -13    2.61    5.75
   4  10 -13   16.01    6.99
   4  10 -12    2.18    5.91
   4  10 -12   -6.15    4.54
   4  10 -11   11.69    5.91
   4  10 -11   24.95    8.41
   4  10 -10   28.70    8.21
  -4 -10  10   35.51    8.19
   4  10  -9   81.19   11.99
  -4 -10   9  111.11   13.69
   4  10  -8    8.23    5.73
  -4 -10   8   16.59    6.71
   4  10  -7   52.86    9.81
  -4 -10   7   53.83   10.13
  -4 -10   6  194.26   17.67
  -4 -10   5   75.66   11.09
  -4 -10   4  169.01   16.54
  -4 -10   3   -1.92    5.47
  -4 -10   2  109.83   13.30
  -4 -10   1    7.07    6.05
  -4 -10   0  150.30   15.36
  -4 -10  -1   51.33    9.45
  -4 -10  -2   78.66   11.16
  -4 -10  -3    3.81    5.13
  -4 -10  -4   18.36    6.64
  -4 -10  -5   66.75   10.72
  -4 -10  -6   55.91    9.94
  -4 -10  -7   35.27    7.92
  -4 -10  -8   81.33   12.56
  -4 -10  -9    7.32    5.51
   4  11 -12   12.18    6.66
   4  11 -11  214.85   20.76
   4  11 -11  258.31   22.58
   4  11 -10  106.44   14.27
  -4 -11  10  106.45   14.09
   4  11  -9   45.41    9.56
  -4 -11   9   47.99    9.90
   4  11  -8   21.62    7.17
  -4 -11   8   12.53    6.10
   4  11  -7  108.92   13.50
  -4 -11   7  131.64   15.44
  -4 -11   6   11.89    5.78
  -4 -11   5   44.11    9.92
  -4 -11   4   10.14    5.83
  -4 -11   3   16.00    6.72
  -4 -11   2   15.24    6.92
  -4 -11   1   79.18   12.18
  -4 -11   0   44.32    9.57
  -4 -11  -1   21.85    7.10
  -4 -11  -2    5.88    6.36
  -4 -11  -3   70.96   11.21
  -4 -11  -4   55.99   10.71
  -4 -11  -5  117.95   14.76
  -4 -11  -6   -3.54    4.34
   4  12  -9   48.58    9.88
  -4 -12   9   61.98   11.71
   4  12  -8  168.96   17.63
  -4 -12   8  212.36   20.14
   4  12  -7  109.00   13.83
  -4 -12   7  115.47   14.88
  -4 -12   6    6.07    5.58
  -4 -12   5   25.99    8.57
  -4 -12   4   44.85   10.62
  -4 -12   3   35.71    9.33
  -4 -12   2   22.76    8.35
  -4 -12   1   14.25    7.94
  -4 -12   0  100.86   14.18
  -4 -12  -1    5.92    5.97
  -4 -12  -2   58.27   11.61
  -4 -12  -3    0.37    4.64
  -4 -12  -4   64.60   11.91
  -4 -12  -5   16.85    6.94
  -5  13   4   30.39    8.24
  -5  13   4   39.52    8.74
  -5  13   3   25.76    8.31
  -5  13   3   21.46    6.90
  -5  13   2  169.53   17.74
  -5  13   1   -3.93    5.12
  -5  13   0   15.28    6.82
  -5  13  -1    4.60    5.30
  -5  13  -2   14.55    7.10
  -5  12   8   16.50    7.34
  -5  12   7   63.10   11.70
  -5  12   6   15.28    7.03
  -5  12   5    4.08    4.66
  -5  12   4   99.11   13.73
  -5  12   4   95.78   12.28
  -5  12   3   -2.26    5.22
  -5  12   3    8.69    5.62
  -5  12   2   66.00   10.89
  -5  12   1   83.86   12.37
  -5  12   0   -0.16    4.56
  -5  12  -1    6.52    4.49
  -5  12  -2   20.33    7.49
  -5  12  -3  195.99   19.49
  -5  12  -4   67.87   11.64
  -5  12  -5   44.21   10.30
  -5  11  11    7.89    6.57
  -5  11  10   13.01    6.09
  -5  11   9    7.26    5.75
  -5  11   8   66.71   11.31
  -5  11   7   16.21    6.65
  -5  11   6   63.49   11.05
  -5  11   5   90.30   12.08
  -5  11   5   94.03   11.24
  -5  11   4    5.33    6.53
  -5  11   4   18.67    6.50
  -5  11   3   29.21    7.48
  -5  11   2  167.56   15.58
  -5  11   1   18.76    6.68
  -5  11   0   46.10    8.82
  -5  11  -1    3.77    6.08
  -5  11  -2   59.46   10.22
  -5  11  -3    8.82    6.03
  -5  11  -4   38.83    9.47
  -5  11  -5   17.05    7.05
  -5  11  -6   59.12   10.93
  -5  11  -7   11.60    6.16
  -5  11  -8   80.34   13.37
   5 -10 -14   10.27    6.59
  -5  10  13   80.33   13.57
   5 -10 -13   90.57   13.30
  -5  10  12   19.93    8.97
   5 -10 -12   14.58    6.32
  -5  10  11   38.48    9.61
  -5  10  10   11.78    6.64
  -5  10   9   54.84   10.35
  -5  10   8   37.69    8.36
  -5  10   7  153.92   15.69
  -5  10   6   66.63   10.49
  -5  10   5   64.39   10.28
  -5  10   5   41.53    7.47
  -5  10   4   -4.88    5.28
  -5  10   4    3.28    4.30
  -5  10   3  398.71   22.52
  -5  10   2    0.68    4.12
  -5  10   1  194.84   16.15
  -5  10   0   21.24    6.09
  -5  10  -1  207.76   17.30
  -5  10  -2   14.64    6.26
  -5  10  -3   49.62    9.75
  -5  10  -4  109.76   13.32
  -5  10  -5   88.94   12.76
  -5  10  -6   20.65    8.06
  -5  10  -7   74.07   12.32
  -5  10  -8   56.05   10.64
  -5  10  -9   37.07    9.68
  -5  10 -10   14.10    7.50
   5  -9 -15   36.10    9.27
  -5   9  14    6.87    5.89
   5  -9 -14    2.07    3.50
  -5   9  13    8.53    5.51
   5  -9 -13   11.54    5.69
  -5   9  12   12.85    7.25
   5  -9 -12   16.05    5.58
  -5   9  11  110.85   14.84
   5  -9 -11  132.30   14.73
  -5   9  10  256.48   20.55
   5  -9 -10  254.53   19.28
  -5   9   9   17.41    6.79
  -5   9   8  107.95   12.64
  -5   9   7   13.92    5.49
  -5   9   6  160.67   14.75
  -5   9   6  163.65   12.72
  -5   9   5  109.17   12.26
  -5   9   5  124.09   11.50
  -5   9   4  208.88   16.39
  -5   9   4  211.43   15.05
  -5   9   3  190.22   14.79
  -5   9   2   91.82   10.68
  -5   9   1   55.66    8.59
  -5   9   0  223.57   16.75
  -5   9  -1  173.41   15.36
  -5   9  -2   12.72    5.66
  -5   9  -3    8.18    4.13
  -5   9  -4  220.70   17.79
  -5   9  -5    0.73    4.38
  -5   9  -6   42.00    9.16
  -5   9  -7    3.34    5.91
  -5   9  -8    5.74    5.84
  -5   9  -9   -4.49    4.46
  -5   9 -10  107.65   14.68
  -5   9 -11   17.17    7.19
  -5   9 -12    8.63    6.84
   5  -8 -16    1.76    4.40
  -5   8  15   17.00    7.19
   5  -8 -15   -5.01    3.55
   5  -8 -14    5.02    4.70
  -5   8  14   18.28    7.25
  -5   8  13   -9.81    7.00
   5  -8 -13    1.50    3.52
  -5   8  12   40.53    9.86
   5  -8 -12   45.68    8.57
  -5   8  11   36.54    7.93
   5  -8 -11   26.47    6.33
  -5   8  10   13.39    6.11
   5  -8 -10   13.45    5.40
   5  -8  -9  252.91   17.67
  -5   8   9  238.61   18.69
  -5   8   8   12.24    5.73
  -5   8   7  134.57   13.58
  -5   8   6  130.34   10.70
  -5   8   6  151.97   13.79
  -5   8   5   89.90   10.25
  -5   8   5   96.68    9.51
  -5   8   4   54.60    8.60
  -5   8   4   60.38    7.83
  -5   8   3  117.19   11.48
  -5   8   3  117.90   11.06
  -5   8   2  102.55   10.75
  -5   8   1   -1.38    3.81
  -5   8   0   58.60    8.45
  -5   8  -1   12.54    4.87
  -5   8  -2   12.24    5.64
  -5   8  -3  153.49   14.49
  -5   8  -4   18.12    7.35
  -5   8  -5  270.97   19.85
  -5   8  -6   -0.27    4.24
  -5   8  -7   28.97    7.48
  -5   8  -8   41.59    8.71
  -5   8  -9  124.53   14.56
  -5   8 -10   15.60    6.65
  -5   8 -11   29.80    7.83
  -5   8 -12    9.78    5.86
  -5   8 -13   75.54   12.41
   5  -7 -17    2.55    4.33
  -5   7  16   51.44   11.21
   5  -7 -16   52.47    9.97
  -5   7  15    0.96    5.59
   5  -7 -15    4.64    3.48
  -5   7  14  102.24   14.03
   5  -7 -14  103.24   12.79
  -5   7  13   -0.48    5.21
   5  -7 -13   14.63    5.79
  -5   7  12   19.96    7.03
   5  -7 -12   13.15    4.54
  -5   7  11    2.61    4.77
   5  -7 -11   12.23    5.29
  -5   7  10  514.11   27.47
   5  -7 -10  480.88   24.26
   5  -7  -9   -2.09    3.27
  -5   7   9   -1.55    5.03
  -5   7   8  147.61   13.83
   5  -7  -8  165.73   13.02
  -5   7   7    0.97    4.00
  -5   7   7    7.48    3.61
  -5   7   6  183.43   12.06
  -5   7   6  223.08   15.69
  -5   7   5   81.95    9.26
  -5   7   5   73.00    7.73
  -5   7   4 1035.40   35.02
  -5   7   4 1094.49   33.28
  -5   7   3   27.90    6.10
  -5   7   3   25.10    5.70
  -5   7   2   18.70    5.03
  -5   7   1  190.55   13.71
  -5   7   0  806.61   30.01
  -5   7  -1   -1.68    4.15
  -5   7  -2  115.65   11.61
  -5   7  -3    2.41    4.25
  -5   7  -4  703.22   30.30
  -5   7  -5   15.20    5.48
  -5   7  -6   66.57    9.76
  -5   7  -7   -3.68    5.23
  -5   7  -8   36.25    6.88
  -5   7  -8   15.62    5.93
  -5   7  -9    1.43    3.68
  -5   7  -9   -1.60    4.29
  -5   7 -10   85.98   10.85
  -5   7 -10   66.71   10.76
  -5   7 -11    2.81    5.30
  -5   7 -11    0.65    5.10
  -5   7 -12    1.44    4.98
  -5   7 -12    2.03    4.30
  -5   7 -13    7.87    5.99
   5  -6 -18   -4.08    5.67
  -5   6  17    5.97    6.39
   5  -6 -17   15.62    7.19
  -5   6  16    2.50    5.36
   5  -6 -16   -0.35    3.76
  -5   6  15  180.95   18.47
   5  -6 -15  192.16   17.24
   5  -6 -14    2.33    3.16
  -5   6  14    0.86    4.96
  -5   6  13   80.30   12.11
   5  -6 -13   79.55   10.53
  -5   6  12    3.30    5.23
   5  -6 -12    0.46    3.51
  -5   6  11  150.42   14.99
   5  -6 -11  151.53   13.37
  -5   6  10   39.74    8.03
   5  -6 -10   46.89    7.51
  -5   6   9  151.45   13.76
   5  -6  -9  160.78   12.44
  -5   6   8   45.44    7.94
   5  -6  -8   59.09    7.65
  -5   6   7    3.23    4.29
   5  -6  -7   -1.16    2.33
  -5   6   7    0.35    2.18
  -5   6   6   61.90    8.23
  -5   6   6   66.65    6.72
  -5   6   5  452.13   21.24
  -5   6   5  487.39   19.31
  -5   6   4  128.89   10.92
  -5   6   4  147.64   10.61
  -5   6   3    6.30    3.55
  -5   6   3    4.18    3.12
  -5   6   2   -1.73    2.81
  -5   6   2    1.55    2.85
  -5   6   1  481.87   21.25
  -5   6   0    9.05    3.98
  -5   6  -1    9.33    4.01
  -5   6  -2    4.35    2.02
  -5   6  -2    6.36    4.51
  -5   6  -3  115.06    8.13
  -5   6  -3  103.38   10.75
  -5   6  -4   16.28    3.79
  -5   6  -4    3.16    3.61
  -5   6  -5  364.34   16.94
  -5   6  -5  347.20   20.44
  -5   6  -6    4.77    3.51
  -5   6  -6    3.99    3.66
  -5   6  -7   37.18    6.36
  -5   6  -7   37.32    7.25
  -5   6  -8    1.68    3.28
  -5   6  -8    0.28    4.28
  -5   6  -9  239.42   16.98
  -5   6  -9  255.75   19.06
  -5   6 -10   13.08    5.44
  -5   6 -10    7.66    4.92
  -5   6 -11   -2.11    4.63
  -5   6 -11    4.70    4.95
  -5   6 -12   -2.03    4.32
  -5   6 -12    0.88    3.98
  -5   6 -13  219.44   19.34
  -5   6 -14    2.85    4.06
   5  -5 -18    5.80    4.83
   5  -5 -17    1.68    3.90
  -5   5  17   11.84    6.94
   5  -5 -16   79.94   11.36
  -5   5  16  104.57   14.70
  -5   5  15   20.59    7.87
   5  -5 -15   15.40    6.58
  -5   5  14   68.11   11.33
   5  -5 -14   70.36    9.75
  -5   5  13   -5.62    5.72
   5  -5 -13    3.97    3.43
   5  -5 -12   36.01    7.13
  -5   5  12   57.97    9.94
  -5   5  11   -1.87    4.31
   5  -5 -11    3.46    3.91
  -5   5  10  203.91   16.33
   5  -5 -10  202.49   13.82
  -5   5   9    7.72    4.86
   5  -5  -9    0.67    2.48
  -5   5   8   -1.40    3.52
   5  -5  -8    3.36    3.12
  -5   5   7  154.66   12.63
   5  -5  -7  176.74   11.30
  -5   5   7  188.30   10.58
  -5   5   6  343.91   18.46
   5  -5  -6  401.18   16.80
  -5   5   6  400.31   16.20
  -5   5   5   12.89    4.28
  -5   5   5   10.71    3.57
  -5   5   4  348.69   17.19
  -5   5   4  377.20   16.50
  -5   5   3    6.57    3.49
  -5   5   3    2.97    2.92
  -5   5   2  244.89   13.81
  -5   5   2  246.00   13.48
  -5   5   1  163.49    7.21
  -5   5   1  148.99   11.13
  -5   5   0 1228.44   26.62
  -5   5   0 1191.29   35.30
  -5   5  -1  207.10    9.68
  -5   5  -1  201.26   13.68
  -5   5  -2   11.06    2.86
  -5   5  -2   16.70    5.13
  -5   5  -3  177.26   10.33
  -5   5  -3  161.88   12.76
  -5   5  -4  631.51   26.59
  -5   5  -4  671.31   22.46
  -5   5  -5   80.19    7.98
  -5   5  -5   84.30    9.81
  -5   5  -6  174.47   12.38
  -5   5  -6  189.21   14.67
  -5   5  -7   33.22    5.92
  -5   5  -7   29.11    6.44
  -5   5  -8  102.27   10.53
  -5   5  -8   92.28   11.18
  -5   5  -9    9.98    5.10
  -5   5  -9   11.45    5.12
  -5   5 -10  169.38   14.93
  -5   5 -10  171.14   15.64
  -5   5 -11   -1.96    3.99
  -5   5 -11    2.31    4.00
  -5   5 -12   12.07    5.78
  -5   5 -12    7.97    4.50
  -5   5 -13    4.13    5.18
  -5   5 -14  110.47   14.19
   5  -4 -19   74.90   12.27
   5  -4 -18   26.48    7.78
  -5   4  18   36.58    9.42
   5  -4 -17   28.23    7.13
  -5   4  17   29.64    8.75
   5  -4 -16   81.15   11.26
  -5   4  16   69.27   11.98
  -5   4  15  137.54   16.00
   5  -4 -15  139.98   13.99
   5  -4 -14   -1.30    3.90
  -5   4  14   -0.71    4.12
   5  -4 -13   56.14    8.17
  -5   4  13   58.63   10.67
  -5   4  12   15.57    5.95
   5  -4 -12   14.91    4.62
   5  -4 -11   83.39    9.00
  -5   4  11   75.76   10.71
  -5   4  10   45.55    8.00
   5  -4 -10   52.10    6.89
  -5   4   9   31.64    6.54
   5  -4  -9   30.18    4.96
   5  -4  -8  157.83    8.34
   5  -4  -8  170.08   10.80
  -5   4   8  168.79   13.41
  -5   4   8  172.90    9.26
   5  -4  -7   42.46    4.09
  -5   4   7   46.27    7.15
   5  -4  -7   44.43    5.56
  -5   4   7   41.29    4.79
   5  -4  -6   88.64    5.36
  -5   4   6   82.75    8.77
   5  -4  -6   96.96    7.27
  -5   4   6   86.15    7.03
  -5   4   5  442.07   19.31
  -5   4   5  490.57   17.90
  -5   4   4  638.77   22.71
  -5   4   4  644.18   21.46
  -5   4   3  599.22   21.21
  -5   4   3  582.35   20.83
  -5   4   2  241.14   12.50
  -5   4   2  248.86   13.45
  -5   4   1 1020.40   27.63
  -5   4   1 1001.77   23.38
  -5   4   1  960.39   29.57
  -5   4   0  121.88    7.32
  -5   4   0  134.58   10.33
  -5   4  -1   39.35    4.50
  -5   4  -1   35.02    6.10
  -5   4  -2    1.02    1.83
  -5   4  -2    0.05    3.60
  -5   4  -3  222.72   11.87
  -5   4  -3  213.97   14.23
  -5   4  -4   28.52    4.76
  -5   4  -4   23.30    5.34
  -5   4  -5   79.23    7.82
  -5   4  -5   82.69    9.44
  -5   4  -6  148.15   11.34
  -5   4  -6  144.05   12.54
  -5   4  -7  197.47   13.82
  -5   4  -7  175.14   14.15
  -5   4  -8   50.93    7.65
  -5   4  -8   33.40    7.12
  -5   4  -9  246.14   17.12
  -5   4  -9  205.87   16.04
  -5   4 -10   73.21    9.80
  -5   4 -10   86.12   10.79
  -5   4 -11   26.51    6.71
  -5   4 -11   23.76    7.22
  -5   4 -12   11.03    5.41
  -5   4 -12   14.93    5.91
  -5   4 -13   44.58    8.96
  -5   4 -14   13.85    5.96
  -5   3  18   19.25    7.43
  -5   3  17   40.43    9.42
   5  -3 -16   95.32   11.40
  -5   3  16  101.79   14.01
  -5   3  15    4.79    4.56
  -5   3  14   68.85   11.26
  -5   3  13   18.93    6.58
   5  -3 -12  109.12    9.44
  -5   3  12  122.13   13.41
   5  -3 -11   41.39    5.70
  -5   3  11   41.53    7.72
   5  -3 -10  592.65   21.00
  -5   3  10  610.44   27.59
   5  -3  -9    8.47    2.83
  -5   3   9    7.50    4.83
   5  -3  -9   10.01    3.19
   5  -3  -8   29.06    4.04
  -5   3   8   25.85    5.52
   5  -3  -8   25.69    3.85
   5  -3  -7   23.84    3.62
  -5   3   7   18.72    3.38
   5  -3  -7   24.40    3.50
  -5   3   7   29.91    5.99
  -5   3   6  592.10   23.33
  -5   3   6  664.56   20.63
   5  -3  -6  663.22   19.00
  -5   3   5  491.48   19.79
   5  -3  -5  518.16   15.37
  -5   3   5  527.05   18.22
  -5   3   4  601.82   21.16
  -5   3   4  648.61   21.04
  -5   3   3  170.89   10.25
  -5   3   3  188.00   11.13
  -5   3   2  949.41   25.51
  -5   3   2  925.81   27.52
  -5   3   1   15.95    2.90
  -5   3   1   19.28    3.53
  -5   3   1   21.69    4.59
  -5   3   0  670.69   19.38
  -5   3   0  681.77   19.62
  -5   3   0  680.24   23.76
  -5   3  -1   42.28    4.67
  -5   3  -1   43.21    6.14
  -5   3  -2   17.72    3.56
  -5   3  -2   16.09    4.31
  -5   3  -3  291.85   13.94
  -5   3  -3  255.15   15.27
  -5   3  -4   39.98    5.56
  -5   3  -4   45.83    7.38
  -5   3  -5  222.83   13.27
  -5   3  -5  209.90   14.29
  -5   3  -6   57.15    7.31
  -5   3  -6   53.86    7.81
  -5   3  -7  187.59   13.41
  -5   3  -7  185.76   14.01
  -5   3  -8   24.08    5.80
  -5   3  -8   21.75    5.29
  -5   3  -9    4.42    4.02
  -5   3  -9   10.28    4.40
  -5   3 -10  123.58   12.60
  -5   3 -10  147.88   13.77
  -5   3 -11   15.53    5.86
  -5   3 -11   21.83    6.63
  -5   3 -12    7.05    4.93
  -5   3 -13   91.06   12.89
  -5   3 -14   16.97    6.28
   5  -2 -19   58.98   10.36
   5  -2 -18   12.69    5.67
  -5   2  18   12.85    7.10
  -5   2  17  195.19   19.49
   5  -2 -17  207.65   17.68
  -5   2  16    9.73    6.16
   5  -2 -15   55.10    8.35
  -5   2  15   60.18   11.10
   5  -2 -14  290.94   17.74
  -5   2  14  290.06   21.31
   5  -2 -13   56.05    7.74
  -5   2  13   42.85    8.71
   5  -2 -12    1.31    2.63
  -5   2  12    7.31    4.16
   5  -2 -11  527.05   21.54
  -5   2  11  515.31   25.70
  -5   2  11  547.56   20.76
   5  -2 -10   20.58    4.47
  -5   2  10   24.38    4.87
  -5   2  10   19.18    6.91
   5  -2  -9  248.49   13.10
  -5   2   9  262.99   16.84
   5  -2  -8   12.74    3.42
  -5   2   8   12.94    4.30
   5  -2  -7  408.80   14.31
  -5   2   7  411.83   19.42
  -5   2   6  190.60   12.15
   5  -2  -6  193.52    8.44
  -5   2   5   37.26    4.68
  -5   2   5   20.49    4.23
   5  -2  -5   33.55    3.07
  -5   2   4   75.68    6.87
  -5   2   4   78.97    7.11
  -5   2   3  227.11   11.29
  -5   2   3  253.97   12.60
  -5   2   2  568.10   17.79
  -5   2   2  598.71   20.78
  -5   2   1  187.47    8.82
  -5   2   1  153.99    8.78
  -5   2   1  140.13   10.12
  -5   2   0    4.10    2.23
  -5   2   0    7.47    2.03
  -5   2   0    4.63    3.53
  -5   2  -1  173.15    7.54
  -5   2  -1  182.03   10.25
  -5   2  -1  163.13   11.27
  -5   2  -2  312.49   13.98
  -5   2  -2  309.66   10.06
  -5   2  -2  309.12   16.14
  -5   2  -3  165.32   10.53
  -5   2  -3  158.66   11.66
  -5   2  -4    1.88    2.54
  -5   2  -4    2.84    3.37
  -5   2  -5   35.18    5.82
  -5   2  -5   48.44    7.16
  -5   2  -6   13.58    4.28
  -5   2  -6   21.80    5.12
  -5   2  -6    8.70    4.08
  -5   2  -7  367.40   19.36
  -5   2  -7  364.36   17.10
  -5   2  -7  374.67   20.01
  -5   2  -8   25.42    6.53
  -5   2  -8   24.16    5.81
  -5   2  -9   52.18    8.29
  -5   2  -9   53.33    8.22
  -5   2 -10   64.42    9.75
  -5   2 -10   62.93    9.32
  -5   2 -11  202.60   16.95
  -5   2 -11  243.85   18.00
  -5   2 -12   -0.54    4.34
  -5   2 -13  168.69   16.94
  -5   2 -14   21.56    7.54
   5  -1 -19    7.80    5.63
  -5   1  18  154.44   18.14
   5  -1 -18  124.08   14.46
   5  -1 -17    2.36    3.84
  -5   1  17    4.80    5.82
   5  -1 -16  101.66   11.96
  -5   1  16   93.84   13.15
   5  -1 -15   55.07    8.66
  -5   1  15   51.05   10.48
   5  -1 -14   15.18    5.06
  -5   1  14   14.98    7.16
  -5   1  13   22.82    7.32
   5  -1 -13   40.92    6.96
   5  -1 -12  101.72   10.12
  -5   1  12  108.33   12.59
   5  -1 -11   76.99    8.64
  -5   1  11   79.47   10.72
  -5   1  11   72.90    7.20
  -5   1  10    2.10    3.02
   5  -1 -10    0.12    2.46
  -5   1  10   -0.01    4.16
  -5   1   9    6.56    2.96
   5  -1  -9    8.41    3.31
  -5   1   9   19.89    5.63
  -5   1   8  875.01   30.31
  -5   1   8  885.95   27.59
  -5   1   7  239.19   14.25
  -5   1   7  243.75   13.51
  -5   1   6    0.19    3.09
  -5   1   6    5.63    3.42
   5  -1  -5   33.94    2.54
  -5   1   5   31.92    5.21
  -5   1   4  745.06   22.95
  -5   1   3   84.64    6.73
  -5   1   3   79.58    7.42
  -5   1   2   13.70    3.78
  -5   1   2   11.21    2.68
  -5   1   1  269.13   10.26
  -5   1   1  275.41   12.51
  -5   1   1  292.28   14.55
  -5   1   0  979.43   21.30
  -5   1   0  999.43   26.74
  -5   1   0  956.50   29.34
  -5   1  -1   86.25    7.31
  -5   1  -1   98.29    4.62
  -5   1  -1   99.42    8.93
  -5   1  -2  372.35   15.79
  -5   1  -2  337.66    8.21
  -5   1  -2  339.06   16.83
  -5   1  -2  344.24   16.55
  -5   1  -3  193.52   11.66
  -5   1  -3  188.86   12.19
  -5   1  -3  198.57   13.04
  -5   1  -4   74.12    7.69
  -5   1  -4   72.80    7.69
  -5   1  -4   79.13    8.78
  -5   1  -5  308.78   16.47
  -5   1  -5  335.82   17.89
  -5   1  -5  315.68   15.70
  -5   1  -6 1279.54   37.55
  -5   1  -6 1261.64   34.45
  -5   1  -6 1266.19   38.77
  -5   1  -7  104.62   10.45
  -5   1  -7   91.78    8.12
  -5   1  -7   91.45   10.20
  -5   1  -8    0.64    3.73
  -5   1  -8    1.40    4.31
  -5   1  -9   91.54   10.72
  -5   1  -9   95.33   10.66
  -5   1 -10  221.46   17.11
  -5   1 -10  205.19   16.08
  -5   1 -11    3.75    3.63
  -5   1 -11    6.22    5.23
  -5   1 -12  107.57   13.22
  -5   1 -13    8.51    6.08
  -5   1 -14   34.13    8.84
   5   0 -19    3.87    5.35
   5   0 -18   10.44    6.26
  -5   0  18   20.83    8.23
   5   0 -17  156.25   15.64
  -5   0  17  156.48   17.34
   5   0 -16    4.05    4.41
  -5   0  16   15.63    7.39
   5   0 -15   15.74    5.45
  -5   0  15   40.32    8.88
   5   0 -14   21.80    5.94
  -5   0  14   18.34    6.43
   5   0 -13  137.12   12.49
  -5   0  13  110.51   12.59
   5   0 -12  209.01   14.83
  -5   0  12  195.18   16.44
   5   0 -11    6.15    3.69
  -5   0  11    0.22    2.17
  -5   0  11    4.08    4.30
   5   0 -10    0.81    3.26
  -5   0  10    2.17    2.30
  -5   0  10    6.89    5.25
   5   0  -9  271.70   15.19
  -5   0   9  277.64   17.21
  -5   0   9  326.92   15.26
  -5   0   8  402.05   17.28
  -5   0   8  387.71   19.16
  -5   0   7  108.75    9.75
  -5   0   7  106.52    8.70
  -5   0   6   62.39    7.05
  -5   0   6   51.69    6.35
  -5   0   5  134.37    9.66
  -5   0   5  131.16    9.87
  -5   0   4  158.19    9.64
  -5   0   4  165.03   11.18
  -5   0   3  266.84   11.81
  -5   0   3  276.76   14.49
  -5   0   2  266.89   10.90
  -5   0   2  275.01   14.45
  -5   0   1  380.97   12.04
  -5   0   1  381.21   15.65
  -5   0   1  384.90   17.34
  -5   0   0  783.88   17.07
  -5   0   0  849.35   24.97
  -5   0   0  830.57   16.30
  -5   0   0  811.93   26.45
  -5   0  -1  546.99   19.78
  -5   0  -1  515.94   20.42
  -5   0  -2   99.53    8.47
  -5   0  -2  101.86    8.76
  -5   0  -2  108.63    9.68
  -5   0  -3   19.40    4.70
  -5   0  -3   11.46    4.11
  -5   0  -3   15.12    4.38
  -5   0  -4   64.53    7.00
  -5   0  -4   83.47    9.04
  -5   0  -4   63.38    7.45
  -5   0  -5  612.39   24.29
  -5   0  -5  577.86   21.36
  -5   0  -5  581.75   24.56
  -5   0  -6   -3.61    4.89
  -5   0  -6   -1.86    3.33
  -5   0  -6    1.29    3.71
  -5   0  -7  125.79   11.60
  -5   0  -7  116.24    8.90
  -5   0  -8   -1.13    3.93
  -5   0  -9    5.90    5.26
  -5   0 -10    0.23    4.22
  -5   0 -11  126.91   13.70
  -5   0 -12    5.63    5.65
  -5   0 -13    5.10    5.73
  -5   0 -14    3.10    4.56
   5   1 -19    5.93    5.08
   5   1 -18   79.22   12.02
   5   1 -17    8.78    5.51
   5   1 -16   41.50    8.69
   5   1 -15    4.70    4.85
  -5  -1  15    0.89    4.81
   5   1 -14  201.79   16.36
  -5  -1  14  210.05   18.10
   5   1 -13   29.08    6.15
  -5  -1  13   29.07    7.08
   5   1 -12  279.89   18.20
  -5  -1  12  374.58   22.54
   5   1 -11   57.77    8.18
  -5  -1  11   65.73    9.83
  -5  -1  11   65.98    7.09
   5   1 -10   98.99   10.00
  -5  -1  10  112.86   11.82
  -5  -1  10  103.07    8.80
  -5  -1   9   59.74    6.68
  -5  -1   9   48.70    7.49
  -5  -1   8 1474.25   40.99
  -5  -1   8 1378.17   36.29
  -5  -1   7  223.18   13.99
  -5  -1   7  233.81   13.14
  -5  -1   6   60.43    6.83
  -5  -1   6   66.02    7.17
  -5  -1   5  116.04    8.86
  -5  -1   5  120.91    9.42
  -5  -1   4  859.60   24.62
  -5  -1   4  839.37   26.88
  -5  -1   3  126.22    7.78
  -5  -1   3  124.20    9.83
  -5  -1   2 1005.32   23.75
  -5  -1   2  947.41   29.10
  -5  -1   1  111.52    8.70
  -5  -1   1  104.05    8.98
  -5  -1   0  538.19   13.14
  -5  -1   0  508.89   19.35
  -5  -1   0  469.87   19.47
  -5  -1  -1  104.87    5.85
  -5  -1  -1   96.26    8.43
  -5  -1  -1   88.99    8.21
  -5  -1  -2  824.58   26.60
  -5  -1  -2  780.99   25.81
  -5  -1  -3   94.68    8.74
  -5  -1  -3   89.24    8.19
  -5  -1  -4   -0.84    3.28
  -5  -1  -4   -0.83    2.91
  -5  -1  -5   13.15    3.68
  -5  -1  -5   10.04    3.94
  -5  -1  -6 1126.38   36.17
  -5  -1  -6 1170.73   32.25
  -5  -1  -7   13.48    3.58
  -5  -1  -7   16.43    5.86
  -5  -1  -8   35.23    7.43
  -5  -1  -9    1.62    4.04
  -5  -1 -10  231.19   17.86
  -5  -1 -11    0.22    3.94
  -5  -1 -12    3.56    4.48
  -5  -1 -13    3.80    4.85
  -5  -1 -14   87.87   13.28
   5   2 -19    7.61    6.47
   5   2 -18    3.52    4.99
   5   2 -17  100.03   13.64
   5   2 -16   14.56    6.81
   5   2 -15   52.78    9.51
   5   2 -14   11.66    5.61
   5   2 -13  294.97   19.99
   5   2 -12   46.61    7.71
   5   2 -11   59.12    8.54
  -5  -2  11   60.22    6.88
   5   2 -10   25.86    6.00
  -5  -2  10   27.95    5.31
  -5  -2  10   22.42    6.33
  -5  -2   9  705.32   28.08
  -5  -2   9  685.37   24.17
  -5  -2   8  158.73   12.43
  -5  -2   8  185.02   11.94
  -5  -2   7    1.49    2.80
  -5  -2   6   12.81    4.35
  -5  -2   5  332.02   16.16
  -5  -2   4   97.71    8.81
  -5  -2   3  279.31   14.92
  -5  -2   2  256.83   14.19
  -5  -2   1   54.13    6.92
  -5  -2   1   51.54    6.53
  -5  -2   0   66.84    7.34
  -5  -2   0   61.67    4.57
  -5  -2   0   61.57    7.12
  -5  -2  -1  576.26   16.83
  -5  -2  -1  560.83   21.83
  -5  -2  -1  596.16   22.14
  -5  -2  -2   23.17    3.49
  -5  -2  -2   18.25    4.45
  -5  -2  -2   12.20    4.39
  -5  -2  -3   36.59    5.49
  -5  -2  -3   32.11    5.99
  -5  -2  -3   35.47    4.56
  -5  -2  -4  207.58   13.78
  -5  -2  -4  228.48   13.29
  -5  -2  -5  512.17   22.66
  -5  -2  -5  524.73   20.71
  -5  -2  -6   50.57    6.48
  -5  -2  -6   48.58    7.28
  -5  -2  -7   33.42    5.33
  -5  -2  -7   43.67    7.82
  -5  -2  -8    7.01    4.65
  -5  -2  -9   36.27    7.24
  -5  -2 -10    2.71    4.84
  -5  -2 -11  148.19   15.00
  -5  -2 -12   91.50   12.67
  -5  -2 -13   43.41    9.61
  -5  -2 -14   34.68    8.96
   5   3 -18  129.87   15.96
   5   3 -17   16.37    7.19
   5   3 -16    4.72    4.89
   5   3 -15   37.15    8.31
   5   3 -14  184.10   16.90
   5   3 -13   -4.37    4.09
   5   3 -12   45.62    8.86
   5   3 -11    1.27    4.13
  -5  -3  11    8.12    4.49
   5   3 -10   85.16   10.32
  -5  -3  10   94.09    8.98
  -5  -3   9    4.19    3.35
  -5  -3   8   23.81    5.19
  -5  -3   7  100.49    9.30
  -5  -3   6    0.74    3.16
  -5  -3   5  162.27   11.54
  -5  -3   4  440.28   19.44
  -5  -3   3   17.53    4.90
  -5  -3   2  414.97   18.90
  -5  -3   1    0.96    2.74
  -5  -3   0  422.47   18.83
  -5  -3   0  388.17   18.35
  -5  -3  -1    4.15    1.72
  -5  -3  -1   -0.40    2.93
  -5  -3  -1    4.30    3.39
  -5  -3  -2  271.00   15.66
  -5  -3  -2  304.32   13.35
  -5  -3  -2  280.59   15.36
  -5  -3  -3   98.06    9.66
  -5  -3  -3  106.93    8.35
  -5  -3  -3  100.61    9.43
  -5  -3  -4   12.88    4.01
  -5  -3  -4   28.63    6.25
  -5  -3  -4   19.56    4.18
  -5  -3  -5    4.77    3.94
  -5  -3  -5    5.61    3.20
  -5  -3  -5    4.18    3.34
  -5  -3  -6  366.67   20.05
  -5  -3  -6  371.10   18.40
  -5  -3  -6  357.19   17.30
  -5  -3  -7   70.36    7.62
  -5  -3  -7   66.37    9.25
  -5  -3  -8   19.70    6.36
  -5  -3  -9  100.45   12.03
  -5  -3 -10   91.76   11.79
  -5  -3 -11   48.64    9.20
  -5  -3 -12   32.41    8.03
  -5  -3 -13   52.29   10.27
  -5  -3 -14   78.70   13.15
   5   4 -18    8.63    6.04
   5   4 -17   84.28   13.28
   5   4 -16   34.71    8.44
   5   4 -15   88.02   12.59
   5   4 -14   18.33    7.26
   5   4 -13  112.43   13.27
   5   4 -12   60.15    9.91
   5   4 -11  408.94   23.91
  -5  -4  11  489.97   21.63
   5   4 -10   24.71    6.46
  -5  -4  10   22.71    5.14
  -5  -4   9  130.27   10.74
  -5  -4   8   19.84    5.26
  -5  -4   7   10.72    4.38
  -5  -4   6  184.75   13.08
  -5  -4   5  314.89   17.11
  -5  -4   4    3.51    4.11
  -5  -4   3  200.68   13.62
  -5  -4   2   21.10    5.24
  -5  -4   1  794.19   28.14
  -5  -4   0    3.36    4.43
  -5  -4   0    1.44    4.01
  -5  -4  -1  360.92   18.49
  -5  -4  -1  415.99   16.22
  -5  -4  -1  362.22   18.35
  -5  -4  -2  274.45   16.40
  -5  -4  -2  297.70   14.24
  -5  -4  -2  306.68   16.80
  -5  -4  -3    3.54    3.42
  -5  -4  -3   -1.57    2.57
  -5  -4  -3    9.13    4.50
  -5  -4  -4   10.42    3.48
  -5  -4  -4    7.65    2.99
  -5  -4  -4    7.12    3.78
  -5  -4  -5  238.47   16.09
  -5  -4  -5  267.39   15.49
  -5  -4  -5  247.77   14.80
  -5  -4  -6   58.23    8.81
  -5  -4  -6   54.19    7.31
  -5  -4  -6   43.18    6.43
  -5  -4  -7   12.71    5.07
  -5  -4  -7   19.49    5.14
  -5  -4  -7    9.93    4.67
  -5  -4  -8   68.18    9.89
  -5  -4  -8   92.32   10.76
  -5  -4  -9   72.25   10.63
  -5  -4  -9   78.17    9.99
  -5  -4 -10   -8.21    5.03
  -5  -4 -10   -0.39    3.85
  -5  -4 -11   66.92   10.58
  -5  -4 -11   71.32   10.74
  -5  -4 -12   26.54    7.42
  -5  -4 -12   31.95    8.20
  -5  -4 -13  102.48   13.91
  -5  -4 -13  117.67   14.75
  -5  -4 -14   48.36   10.34
   5   5 -17   19.76    7.67
   5   5 -16    7.43    6.08
   5   5 -15   34.88    8.28
   5   5 -14    5.92    5.25
   5   5 -13   34.23    8.25
   5   5 -12   78.12   11.25
   5   5 -11   17.88    5.65
  -5  -5  11   30.84    6.27
   5   5 -10  150.07   14.15
  -5  -5  10  174.70   13.43
  -5  -5   9    4.18    3.79
  -5  -5   8  458.49   21.88
  -5  -5   7    7.52    4.26
  -5  -5   6  124.87   11.23
  -5  -5   5  184.39   13.66
  -5  -5   4  170.68   13.26
  -5  -5   3  216.39   14.89
  -5  -5   2  487.16   22.27
  -5  -5   1  238.37   15.46
  -5  -5   0  140.74   12.18
  -5  -5  -1  172.97   13.07
  -5  -5  -1  167.32   12.96
  -5  -5  -2  279.06   16.98
  -5  -5  -2  318.63   15.86
  -5  -5  -2  300.05   17.33
  -5  -5  -3    0.03    3.44
  -5  -5  -3   -1.09    3.19
  -5  -5  -3    4.30    3.42
  -5  -5  -4  106.85   10.95
  -5  -5  -4  126.37   10.78
  -5  -5  -4  108.82   10.52
  -5  -5  -5    1.83    3.65
  -5  -5  -5    2.81    3.05
  -5  -5  -5    5.87    3.69
  -5  -5  -6  181.13   14.00
  -5  -5  -6  187.37   15.04
  -5  -5  -6  183.94   13.55
  -5  -5  -7    8.32    4.48
  -5  -5  -7   23.41    5.30
  -5  -5  -7   14.44    4.56
  -5  -5  -8  112.58   12.46
  -5  -5  -8  123.59   12.69
  -5  -5  -9   84.54   11.30
  -5  -5  -9  107.58   12.19
  -5  -5 -10    6.86    4.68
  -5  -5 -10    7.78    4.71
  -5  -5 -11   96.52   12.96
  -5  -5 -11  123.44   14.15
  -5  -5 -12  228.81   20.04
  -5  -5 -12  242.45   20.72
  -5  -5 -13   20.67    7.31
  -5  -5 -13   13.02    6.22
   5   6 -16    9.69    6.98
   5   6 -15   31.09    8.59
   5   6 -14    5.36    6.29
   5   6 -13   10.16    5.64
   5   6 -12   12.94    6.14
   5   6 -11  127.47   14.13
  -5  -6  11  183.38   14.66
   5   6 -10   19.45    6.53
  -5  -6  10   17.97    5.68
  -5  -6   9   76.72    9.68
  -5  -6   8    7.34    4.55
  -5  -6   7  338.30   19.43
  -5  -6   6   -0.87    3.24
  -5  -6   5   65.29    8.79
  -5  -6   4   63.83    8.57
  -5  -6   3   31.02    6.26
  -5  -6   2    7.89    4.28
  -5  -6   1  157.13   13.38
  -5  -6   0    1.97    3.66
  -5  -6  -1   16.75    5.53
  -5  -6  -2    2.09    3.74
  -5  -6  -2   -6.86    4.52
  -5  -6  -3  113.19   11.38
  -5  -6  -3   88.50    9.90
  -5  -6  -3   99.46    9.70
  -5  -6  -4  106.72   11.15
  -5  -6  -4  136.30   11.95
  -5  -6  -4  112.52   11.35
  -5  -6  -5  115.78   11.87
  -5  -6  -5  138.84   12.32
  -5  -6  -5  107.84   10.96
  -5  -6  -6   11.65    4.44
  -5  -6  -6   16.49    5.36
  -5  -6  -6   20.05    6.01
  -5  -6  -7  113.77   12.24
  -5  -6  -7  118.10   12.51
  -5  -6  -7  133.22   11.98
  -5  -6  -8  115.34   13.03
  -5  -6  -8   79.12   10.40
  -5  -6  -9   12.80    6.17
  -5  -6  -9    6.87    3.61
  -5  -6 -10    2.77    4.89
  -5  -6 -10   13.26    5.84
  -5  -6 -11   19.95    7.02
  -5  -6 -11   21.92    6.41
  -5  -6 -12    7.62    5.74
  -5  -6 -12    6.19    5.66
  -5  -6 -13   34.76    9.16
   5   7 -15    1.13    5.52
   5   7 -14   -3.41    6.46
   5   7 -13   48.95   10.91
   5   7 -12  165.97   17.53
   5   7 -11   -4.49    6.00
  -5  -7  11    2.12    3.85
   5   7 -10   68.05   10.58
  -5  -7  10   83.21   10.50
  -5  -7   9    5.86    4.49
  -5  -7   8  157.35   13.84
  -5  -7   7   22.85    6.20
  -5  -7   6  221.50   16.51
  -5  -7   5    2.25    3.78
  -5  -7   4   18.24    5.99
  -5  -7   3  117.25   12.13
  -5  -7   2  482.83   24.49
  -5  -7   1   24.43    5.65
  -5  -7   0    2.45    4.12
  -5  -7  -1  128.82   13.16
  -5  -7  -2  940.13   35.47
  -5  -7  -3    0.99    3.51
  -5  -7  -3    0.06    3.97
  -5  -7  -4   16.13    4.83
  -5  -7  -4   29.76    6.67
  -5  -7  -4   17.53    4.78
  -5  -7  -5    1.28    4.18
  -5  -7  -5    1.19    3.99
  -5  -7  -5   -1.86    3.89
  -5  -7  -6  187.74   15.92
  -5  -7  -6  184.42   15.63
  -5  -7  -6  176.02   14.83
  -5  -7  -7   27.26    6.98
  -5  -7  -7   27.17    6.65
  -5  -7  -7   28.49    7.32
  -5  -7  -8  202.53   17.38
  -5  -7  -8  190.95   17.09
  -5  -7  -9    2.53    4.38
  -5  -7  -9    1.19    4.10
  -5  -7 -10   14.76    6.53
  -5  -7 -10   15.97    6.79
  -5  -7 -11   11.50    6.29
  -5  -7 -11   24.13    7.17
  -5  -7 -12  122.52   15.24
  -5  -7 -12  107.93   14.66
   5   8 -14    2.30    6.54
   5   8 -13  130.80   16.05
   5   8 -12   14.85    6.13
   5   8 -11  283.42   22.30
  -5  -8  11  314.71   21.17
   5   8 -10    4.49    5.23
  -5  -8  10   -0.81    3.62
  -5  -8   9   35.61    7.61
  -5  -8   8    5.30    4.53
  -5  -8   7  369.66   22.84
  -5  -8   6    6.89    5.08
  -5  -8   5   -2.32    4.14
  -5  -8   4   27.12    6.32
  -5  -8   3   54.33    8.55
  -5  -8   2   38.31    7.82
  -5  -8   1   17.04    6.12
  -5  -8   0    3.58    4.95
  -5  -8  -1  199.02   16.59
  -5  -8  -2    0.78    4.33
  -5  -8  -3  146.12   13.93
  -5  -8  -4    1.56    3.37
  -5  -8  -4    8.59    5.23
  -5  -8  -5   -0.77    3.83
  -5  -8  -5    2.76    3.76
  -5  -8  -5    8.60    4.97
  -5  -8  -6   18.86    6.04
  -5  -8  -6   17.22    5.69
  -5  -8  -6   21.29    6.20
  -5  -8  -7  145.72   14.89
  -5  -8  -7  154.09   15.32
  -5  -8  -7  142.62   14.04
  -5  -8  -8    9.44    4.98
  -5  -8  -8    8.66    5.19
  -5  -8  -9   20.07    6.55
  -5  -8  -9   17.81    6.73
  -5  -8 -10    0.17    5.00
  -5  -8 -10   14.53    6.77
  -5  -8 -11   65.91   11.87
  -5  -8 -11   51.74    9.97
   5   9 -13   13.98    7.91
   5   9 -12  121.36   15.61
   5   9 -11    0.11    4.46
  -5  -9  11   -2.91    4.53
   5   9 -10   -0.24    4.45
  -5  -9  10    5.33    4.51
   5   9  -9   18.85    7.00
  -5  -9   9   16.41    6.53
  -5  -9   8   26.19    7.30
  -5  -9   7    3.39    6.21
  -5  -9   6  132.84   14.16
  -5  -9   5    6.22    5.36
  -5  -9   4   19.79    6.56
  -5  -9   3  126.32   13.95
  -5  -9   2  150.75   15.35
  -5  -9   1    7.23    4.49
  -5  -9   0   26.71    7.55
  -5  -9  -1   51.63    9.46
  -5  -9  -2  297.09   21.26
  -5  -9  -3   48.71    9.12
  -5  -9  -4   -0.15    4.67
  -5  -9  -5    2.56    3.64
  -5  -9  -5   22.29    6.49
  -5  -9  -6   98.83   12.61
  -5  -9  -6  112.57   13.20
  -5  -9  -6   99.25   12.75
  -5  -9  -7   15.02    6.52
  -5  -9  -7   13.19    5.68
  -5  -9  -8   64.94   11.13
  -5  -9  -8   60.26   10.56
  -5  -9  -9    6.40    5.36
   5  10 -12    3.99    6.42
   5  10 -11   24.62    8.30
  -5 -10  11   34.97    8.67
   5  10 -10   32.12    8.92
  -5 -10  10   20.14    6.47
   5  10  -9   -0.13    4.34
  -5 -10   9    2.51    4.36
   5  10  -8    6.86    5.44
  -5 -10   8   12.64    6.28
  -5 -10   7  124.84   14.79
  -5 -10   6   65.24   11.13
  -5 -10   5   15.34    6.28
  -5 -10   4   24.80    7.59
  -5 -10   3  237.77   20.10
  -5 -10   2   33.38    7.58
  -5 -10   1   99.65   13.12
  -5 -10   0    5.50    6.09
  -5 -10  -1  137.53   15.44
  -5 -10  -2   26.53    7.55
  -5 -10  -3   26.45    7.70
  -5 -10  -4   56.22   10.44
  -5 -10  -5   51.61    9.39
  -5 -10  -6   23.74    6.92
   5  11 -10   57.99   11.26
  -5 -11  10   28.39    9.03
   5  11  -9   12.78    6.31
  -5 -11   9   16.62    7.20
   5  11  -8  121.75   15.21
  -5 -11   8  116.70   15.12
  -5 -11   7   18.11    8.27
  -5 -11   6   11.92    6.12
  -5 -11   5    8.46    6.28
  -5 -11   4   50.62   10.12
  -5 -11   3    9.48    5.70
  -5 -11   2   61.75   11.24
  -5 -11   1   25.17    8.20
  -5 -11   0   71.62   11.62
  -5 -11  -1   10.78    6.69
  -5 -11  -2   30.20    8.86
  -5 -11  -3   93.94   13.80
  -5 -11  -4   32.21    8.52
  -5 -11  -5    6.34    6.70
  -5 -11  -6   78.25   12.03
   5  12  -8   10.49    5.87
   5  12  -7  138.70   16.40
  -5 -12   5  110.13   15.64
  -5 -12   4   85.32   14.07
  -5 -12   3   11.29    6.15
  -5 -12   2   30.06    9.50
  -5 -12   1   40.61   10.49
  -5 -12   0   54.90   11.24
  -6  13   3  168.53   17.37
  -6  13   2    3.78    5.07
  -6  13   1   26.73    8.13
  -6  13   0    8.78    6.32
  -6  12   7   80.83   12.96
  -6  12   6   16.73    7.97
  -6  12   5   14.23    6.65
  -6  12   4   88.85   12.93
  -6  12   4   71.86   10.79
  -6  12   3    6.85    6.53
  -6  12   3    4.09    4.56
  -6  12   2   10.83    5.73
  -6  12   2   13.53    6.95
  -6  12   1   10.11    5.82
  -6  12   0   32.44    8.71
  -6  12  -1   -3.74    5.73
  -6  12  -2  115.52   15.01
  -6  12  -3    6.44    4.91
  -6  11  10   40.08    9.79
  -6  11   9  139.68   16.51
  -6  11   8   22.24    7.81
  -6  11   7   45.39   10.04
  -6  11   6   92.09   12.88
  -6  11   5   15.70    5.83
  -6  11   5   17.91    5.49
  -6  11   4   -1.53    4.61
  -6  11   4   -0.13    3.80
  -6  11   3   12.83    5.84
  -6  11   3    7.94    5.28
  -6  11   2   14.49    6.61
  -6  11   2    8.37    4.62
  -6  11   1   21.00    6.72
  -6  11   0   20.76    6.88
  -6  11  -1   34.32    8.77
  -6  11  -2   -0.16    5.51
  -6  11  -3   13.82    7.39
  -6  11  -4   -4.22    5.07
  -6  11  -5   72.43   12.65
  -6  11  -6    8.71    6.25
  -6  10  12    8.01    6.80
  -6  10  11   31.68    8.97
  -6  10  10   36.39    8.83
  -6  10   9   97.86   13.90
  -6  10   8   45.46    9.62
  -6  10   7   14.73    6.87
  -6  10   6   25.97    7.40
  -6  10   5   17.38    6.63
  -6  10   5   34.54    7.09
  -6  10   4  144.37   14.98
  -6  10   4  151.80   14.07
  -6  10   3   17.41    5.64
  -6  10   3   16.84    6.02
  -6  10   2  166.03   15.33
  -6  10   2  178.37   15.65
  -6  10   1    1.76    4.15
  -6  10   0  200.13   17.41
  -6  10  -1    8.04    6.01
  -6  10  -2  186.12   17.42
  -6  10  -3   38.71    9.02
  -6  10  -4   53.80    9.66
  -6  10  -5   33.03    8.56
  -6  10  -6   15.02    6.58
  -6  10  -7  156.24   17.66
  -6  10  -8    9.44    4.98
  -6   9  13   -2.72    5.25
  -6   9  12   26.23    8.47
  -6   9  11   24.78    7.69
  -6   9  10   66.19   11.17
  -6   9   9   47.61    9.71
  -6   9   8   64.45   10.74
  -6   9   7  119.28   13.49
  -6   9   6   30.25    7.09
  -6   9   6   40.65    7.11
  -6   9   5  100.84   11.98
  -6   9   5  113.99   11.19
  -6   9   4    8.87    4.54
  -6   9   4    6.17    3.54
  -6   9   3  202.11   16.70
  -6   9   3  213.52   16.30
  -6   9   2   33.43    7.37
  -6   9   2   23.69    6.14
  -6   9   1  178.44   15.47
  -6   9   0   68.02   10.30
  -6   9  -1  107.68   12.72
  -6   9  -2   36.39    8.41
  -6   9  -3  161.49   15.73
  -6   9  -4  127.02   14.53
  -6   9  -5  127.25   14.62
  -6   9  -6   15.17    6.26
  -6   9  -7   -4.96    6.02
  -6   9  -8   13.55    7.29
  -6   9  -9   61.08   10.88
  -6   9 -10   14.76    7.17
  -6   8  14    9.59    7.25
  -6   8  13   29.46    8.48
  -6   8  12   10.23    4.89
  -6   8  11   24.52    7.88
   6  -8 -10  103.91   11.52
  -6   8  10  139.30   15.28
  -6   8   9   64.37   10.38
  -6   8   8  129.92   13.87
  -6   8   7  113.47   12.85
  -6   8   6  502.50   25.89
  -6   8   6  514.99   22.93
  -6   8   5    0.24    3.86
  -6   8   5    5.28    3.78
  -6   8   4  250.61   17.15
  -6   8   4  255.10   16.43
  -6   8   3  124.69   12.31
  -6   8   3  112.54   11.15
  -6   8   2  339.82   19.59
  -6   8   2  295.98   18.66
  -6   8   1    3.21    4.17
  -6   8   0   12.20    4.80
  -6   8  -1   12.52    4.53
  -6   8  -2    4.68    3.91
  -6   8  -3    8.75    5.23
  -6   8  -4  181.09   16.59
  -6   8  -5   13.10    6.60
  -6   8  -6   52.82    9.43
  -6   8  -7   -0.42    5.21
  -6   8  -8  112.89   13.81
  -6   8  -9   12.63    6.33
  -6   8 -10    7.26    6.16
  -6   8 -11   29.06    8.69
  -6   7  15  154.32   18.28
  -6   7  14   22.11    8.58
  -6   7  13   -0.04    4.94
  -6   7  12    1.52    5.62
  -6   7  11  187.12   17.27
   6  -7 -11  218.19   16.22
  -6   7  10   11.91    5.41
   6  -7 -10   15.87    4.71
  -6   7   9    9.04    6.13
   6  -7  -9    7.79    4.00
  -6   7   8   -1.38    4.66
  -6   7   7  344.50   20.99
  -6   7   7  391.60   18.38
  -6   7   6   36.51    7.11
  -6   7   6   37.02    6.31
  -6   7   5   44.48    7.63
  -6   7   5   44.42    6.52
  -6   7   4   51.11    7.87
  -6   7   4   66.41    8.44
  -6   7   3   79.78    9.26
  -6   7   3   85.68    9.37
  -6   7   2   14.68    4.84
  -6   7   2   39.86    7.43
  -6   7   1  158.96   13.63
  -6   7   0   22.94    6.17
  -6   7  -1  239.28   17.07
  -6   7  -2   33.21    7.17
  -6   7  -3  178.27   15.43
  -6   7  -4  139.18   13.71
  -6   7  -5   -2.48    4.82
  -6   7  -6    6.87    5.80
  -6   7  -7  170.16   16.20
  -6   7  -8    5.17    5.76
  -6   7  -9   26.16    7.69
  -6   7 -10    5.31    5.11
  -6   7 -11   79.01   12.55
  -6   7 -12   25.00    7.90
  -6   6  16  106.02   15.33
  -6   6  15   13.01    7.16
  -6   6  14    3.26    5.12
  -6   6  13    7.68    5.28
  -6   6  12  182.42   17.98
  -6   6  11   42.42    9.37
   6  -6 -11   44.63    7.39
  -6   6  10   35.28    8.46
   6  -6 -10   48.69    7.04
  -6   6   9   33.91    7.84
   6  -6  -9   41.08    6.26
  -6   6   8   77.73   10.04
   6  -6  -8   90.43    8.78
  -6   6   7   62.39    9.13
  -6   6   7   59.75    7.02
  -6   6   6  128.27   11.97
  -6   6   6  149.17   10.95
  -6   6   5   31.93    6.35
  -6   6   5   35.12    6.11
  -6   6   4    5.62    3.95
  -6   6   4    4.10    3.59
  -6   6   3   90.43    9.29
  -6   6   3   82.16    8.88
  -6   6   2  931.79   30.78
  -6   6   2  912.47   31.51
  -6   6   1   19.01    4.04
  -6   6   1   18.67    5.27
  -6   6   0    2.06    3.50
  -6   6  -1  114.21   11.35
  -6   6  -2  525.66   25.22
  -6   6  -3    3.74    4.59
  -6   6  -4  270.91   18.70
  -6   6  -5    5.50    3.10
  -6   6  -5    3.34    3.64
  -6   6  -6  120.90   10.66
  -6   6  -6  114.24   12.47
  -6   6  -7    1.50    2.98
  -6   6  -7    1.33    4.14
  -6   6  -8  236.01   16.47
  -6   6  -8  255.23   19.40
  -6   6  -9   11.01    4.97
  -6   6  -9   -3.71    4.60
  -6   6 -10    8.03    5.13
  -6   6 -10    0.89    4.94
  -6   6 -11   15.24    5.86
  -6   6 -11   12.80    6.40
  -6   6 -12  140.81   15.63
  -6   6 -12  189.96   18.18
  -6   6 -13    8.86    6.26
  -6   5  17   52.72   12.04
  -6   5  16   -7.80    6.89
  -6   5  15   74.09   12.59
  -6   5  14   36.79    9.75
  -6   5  13   86.66   12.60
  -6   5  12    8.51    5.58
   6  -5 -12   18.08    5.06
  -6   5  11  330.43   21.98
   6  -5 -11  314.69   17.65
  -6   5  10   -3.81    5.27
   6  -5 -10    4.35    3.47
  -6   5   9   40.27    7.84
   6  -5  -9   36.40    5.81
  -6   5   8   -1.22    3.86
   6  -5  -8    4.68    2.81
  -6   5   7  146.13   12.64
  -6   5   7  142.66   10.27
  -6   5   6  211.41   14.89
  -6   5   6  209.95   12.77
  -6   5   5   86.78    9.11
  -6   5   5  101.20    9.05
  -6   5   4   25.09    5.15
  -6   5   4   26.43    5.41
  -6   5   3  437.36   19.36
  -6   5   3  425.05   19.68
  -6   5   2   24.49    5.14
  -6   5   2   20.81    5.29
  -6   5   1  308.26   15.37
  -6   5   1  333.78   12.67
  -6   5   1  360.62   18.79
  -6   5   0  104.38    8.80
  -6   5   0  105.68    7.27
  -6   5   0   98.74   10.25
  -6   5  -1  161.57    9.54
  -6   5  -1  174.72   13.74
  -6   5  -2   70.51    6.71
  -6   5  -2   52.92    8.07
  -6   5  -3  698.53   23.54
  -6   5  -3  691.47   28.94
  -6   5  -4   38.00    5.80
  -6   5  -4   42.28    7.87
  -6   5  -5   47.19    6.81
  -6   5  -5   41.72    7.30
  -6   5  -6   84.66    9.33
  -6   5  -6   77.33   10.79
  -6   5  -7  184.38   14.02
  -6   5  -7  187.76   16.06
  -6   5  -8   13.28    5.63
  -6   5  -8   16.38    5.27
  -6   5  -9   58.38    8.89
  -6   5  -9   73.59   10.79
  -6   5 -10   16.92    5.88
  -6   5 -10   10.61    5.33
  -6   5 -11  141.55   14.68
  -6   5 -11  102.34   13.16
  -6   5 -12   15.49    6.04
  -6   5 -12   10.04    6.46
  -6   5 -13   28.90    8.03
  -6   4  17    1.66    6.68
  -6   4  16   85.85   13.74
  -6   4  15    4.62    5.89
  -6   4  14   -6.84    5.24
  -6   4  13   13.61    7.22
  -6   4  12  509.22   28.27
   6  -4 -12  537.00   23.51
  -6   4  11    6.63    4.63
   6  -4 -11    4.48    3.26
  -6   4  10    8.37    5.36
   6  -4 -10    4.91    2.48
  -6   4   9  101.16   11.51
   6  -4  -9  122.49    9.38
  -6   4   8   38.07    5.32
  -6   4   8   32.95    6.94
   6  -4  -8   40.63    5.23
  -6   4   7  102.55   10.52
   6  -4  -7  103.35    7.51
  -6   4   7  103.29    8.62
  -6   4   6  120.44   10.74
  -6   4   6  132.43   10.00
  -6   4   5  476.99   20.84
  -6   4   5  501.36   20.22
  -6   4   4  148.83   10.98
  -6   4   4  150.04   10.98
  -6   4   3   14.98    4.03
  -6   4   3   13.81    4.24
  -6   4   2  915.12   27.28
  -6   4   2  940.01   30.55
  -6   4   1  393.87   16.14
  -6   4   1  379.83   14.52
  -6   4   1  361.39   18.33
  -6   4   0   32.24    4.48
  -6   4   0   43.51    7.08
  -6   4   0   40.83    4.97
  -6   4  -1  303.74   13.30
  -6   4  -1  294.50   13.54
  -6   4  -1  305.49   17.57
  -6   4  -2  418.56   17.23
  -6   4  -2  426.65   21.41
  -6   4  -3   49.81    6.23
  -6   4  -3   64.80    8.92
  -6   4  -4   51.76    6.66
  -6   4  -4   44.03    7.71
  -6   4  -5   28.10    5.59
  -6   4  -5   31.96    6.95
  -6   4  -6   31.28    6.12
  -6   4  -6   18.76    5.79
  -6   4  -7   31.63    6.29
  -6   4  -7   24.45    6.45
  -6   4  -8  115.24   11.71
  -6   4  -8  119.18   12.51
  -6   4  -9   28.44    6.85
  -6   4  -9   36.10    7.57
  -6   4 -10   26.82    7.05
  -6   4 -10   18.01    6.47
  -6   4 -11   77.67   11.13
  -6   4 -11   52.53   10.04
  -6   4 -12  186.05   17.43
  -6   4 -12  179.37   17.16
  -6   4 -13   19.69    7.32
  -6   3  18    7.69    7.16
  -6   3  17  121.75   16.00
  -6   3  16    7.67    6.53
  -6   3  15   79.46   12.54
  -6   3  14   27.09    7.76
  -6   3  13  273.40   21.09
  -6   3  12    4.01    4.86
  -6   3  11  288.32   19.94
   6  -3 -11  291.27   15.52
   6  -3 -10   32.88    4.90
  -6   3  10   19.03    5.64
   6  -3 -10   35.89    5.26
   6  -3  -9  165.59   10.31
  -6   3   9  170.10   14.34
   6  -3  -9  174.38   10.44
   6  -3  -8   94.70    7.56
  -6   3   8   99.79   10.67
   6  -3  -8   92.11    7.07
  -6   3   7  120.63   11.14
   6  -3  -7  130.53    7.62
  -6   3   6  110.13   10.04
  -6   3   6  110.67    8.95
  -6   3   5   96.90    8.80
  -6   3   5  100.21    8.68
  -6   3   4   75.93    7.59
  -6   3   4   76.40    7.98
  -6   3   3  573.21   20.41
  -6   3   3  574.25   22.14
  -6   3   2   11.02    3.11
  -6   3   2    8.06    3.49
  -6   3   1   25.97    3.98
  -6   3   1   24.33    4.96
  -6   3   1   19.45    3.88
  -6   3   0  109.38    7.42
  -6   3   0  105.18    8.09
  -6   3   0  120.24   10.91
  -6   3  -1  579.10   17.71
  -6   3  -1  608.15   20.85
  -6   3  -1  610.18   24.93
  -6   3  -2   14.35    4.20
  -6   3  -2   10.67    2.52
  -6   3  -2    4.21    4.35
  -6   3  -3   28.45    4.93
  -6   3  -3   29.17    6.57
  -6   3  -4   17.13    4.66
  -6   3  -4    1.84    4.31
  -6   3  -5   47.07    7.11
  -6   3  -5   46.96    7.90
  -6   3  -6   37.32    6.55
  -6   3  -6   36.00    7.37
  -6   3  -7   16.45    5.10
  -6   3  -7    9.89    3.95
  -6   3  -7   13.77    5.08
  -6   3  -8   53.69    8.26
  -6   3  -8   62.88    9.74
  -6   3  -9   23.46    6.09
  -6   3  -9   31.97    7.94
  -6   3 -10    3.87    4.49
  -6   3 -10   -2.12    4.10
  -6   3 -11  315.20   22.16
  -6   3 -11  335.85   22.71
  -6   3 -12    7.11    4.34
  -6   3 -13   -1.07    4.76
  -6   2  18   72.48   12.96
  -6   2  17   13.18    6.55
  -6   2  16   89.46   13.99
  -6   2  15   19.44    7.68
   6  -2 -14   32.33    6.29
  -6   2  14   36.81    8.71
   6  -2 -13   13.18    4.35
  -6   2  13    7.44    4.74
   6  -2 -12  133.15   11.25
  -6   2  12  140.62   14.33
   6  -2 -11  195.42   13.10
  -6   2  11  207.34   16.82
  -6   2  11  174.28   12.60
  -6   2  10   45.79    6.98
   6  -2 -10   36.36    5.92
  -6   2  10   24.15    6.61
   6  -2  -9  123.42    9.63
  -6   2   9  152.73   13.09
   6  -2  -9  143.02    8.89
  -6   2   9  138.49   11.25
  -6   2   8  296.22   17.63
   6  -2  -8  311.61   12.31
  -6   2   7   19.82    5.20
   6  -2  -7   20.77    2.94
  -6   2   6  273.43   15.65
  -6   2   5   16.41    4.22
  -6   2   5   17.23    4.98
  -6   2   4  259.78   13.53
  -6   2   4  281.84   14.96
  -6   2   3  363.04   15.23
  -6   2   3  387.35   17.95
  -6   2   2  297.14   12.70
  -6   2   2  278.79   15.47
  -6   2   1  109.69    7.16
  -6   2   1  108.29    8.31
  -6   2   1  110.03    9.98
  -6   2   0  496.69   15.23
  -6   2   0  518.75   19.09
  -6   2   0  474.95   21.28
  -6   2  -1  141.74    6.95
  -6   2  -1  125.68    9.49
  -6   2  -1  134.36   11.62
  -6   2  -2  189.98   11.98
  -6   2  -2  198.30   14.23
  -6   2  -3  239.29   13.92
  -6   2  -3  218.11   15.04
  -6   2  -4 1322.98   37.31
  -6   2  -4 1283.88   38.46
  -6   2  -4 1267.80   40.24
  -6   2  -5    5.30    4.20
  -6   2  -5    6.68    4.54
  -6   2  -5   10.60    5.44
  -6   2  -6   24.39    5.13
  -6   2  -6   24.86    5.85
  -6   2  -6   14.52    5.05
  -6   2  -7   25.07    5.04
  -6   2  -7   27.49    6.30
  -6   2  -7   24.10    6.02
  -6   2  -8  106.91   11.57
  -6   2  -8   92.59   11.28
  -6   2  -9   63.46    9.84
  -6   2  -9   50.26    8.44
  -6   2 -10  250.74   19.35
  -6   2 -10  274.80   20.01
  -6   2 -11   50.53    9.28
  -6   2 -11   52.07    9.70
  -6   2 -12  112.28   13.85
  -6   2 -13   65.22   11.16
  -6   1  18   87.99   13.94
   6  -1 -17   16.30    5.79
  -6   1  17   28.59    8.92
   6  -1 -16    1.88    3.83
  -6   1  16   10.65    7.55
   6  -1 -15  136.80   13.25
  -6   1  15  116.28   14.61
   6  -1 -14    9.91    3.47
  -6   1  14   15.32    7.22
   6  -1 -13   60.63    8.55
  -6   1  13   78.71   11.24
   6  -1 -12   51.89    7.46
  -6   1  12   36.30    7.62
  -6   1  11    3.46    2.65
   6  -1 -11    0.50    2.86
  -6   1  11   -1.69    5.18
  -6   1  10   21.56    4.70
   6  -1 -10   20.25    4.95
  -6   1  10   25.34    6.62
  -6   1   9  396.46   21.02
  -6   1   9  377.41   18.40
  -6   1   8  124.77   11.24
  -6   1   8  107.79    9.94
  -6   1   7   32.44    6.25
  -6   1   7   32.16    6.01
  -6   1   6  200.60   13.02
  -6   1   6  203.71   13.71
  -6   1   5  930.74   28.68
  -6   1   5  973.16   31.50
  -6   1   4  527.34   19.38
  -6   1   4  515.10   22.19
  -6   1   3   39.27    4.88
  -6   1   3   30.78    6.59
  -6   1   2  135.85    8.31
  -6   1   2  103.81   10.32
  -6   1   2  112.82    9.93
  -6   1   1  234.10    9.97
  -6   1   1  230.16   12.58
  -6   1   1  223.26   14.50
  -6   1   1  211.93   13.96
  -6   1   0   -1.11    3.50
  -6   1   0    1.05    3.24
  -6   1   0    6.58    2.99
  -6   1   0    2.88    1.54
  -6   1  -1   -1.13    4.27
  -6   1  -1    0.53    3.55
  -6   1  -1    3.78    1.10
  -6   1  -1   -0.42    2.63
  -6   1  -2   12.98    4.84
  -6   1  -2    8.82    4.22
  -6   1  -2   10.38    3.81
  -6   1  -3  244.72   14.49
  -6   1  -3  276.26   15.98
  -6   1  -3  269.41   16.93
  -6   1  -4   54.85    8.32
  -6   1  -4   61.59    7.92
  -6   1  -4   56.01    7.60
  -6   1  -5  215.41   14.50
  -6   1  -5  215.88   13.94
  -6   1  -5  194.51   15.02
  -6   1  -6  108.46   10.66
  -6   1  -6   86.68    8.93
  -6   1  -6  112.82   12.14
  -6   1  -7    2.46    4.39
  -6   1  -7    2.63    2.98
  -6   1  -7    1.30    3.92
  -6   1  -8   12.01    5.20
  -6   1  -8   21.65    5.92
  -6   1  -9   84.36   11.11
  -6   1  -9   80.33   10.41
  -6   1 -10  166.94   15.54
  -6   1 -11   93.37   12.43
  -6   1 -12   11.96    5.46
  -6   1 -13   18.63    6.80
   6   0 -19    0.41    4.31
   6   0 -18   19.13    7.03
  -6   0  18   24.66    8.22
   6   0 -17    2.18    3.72
  -6   0  17    6.49    6.05
   6   0 -16   46.88    9.18
  -6   0  16   66.50   11.53
   6   0 -15    0.12    3.63
  -6   0  15   -1.54    5.10
   6   0 -14  193.86   15.71
  -6   0  14  203.83   18.21
   6   0 -13   17.24    5.24
  -6   0  13   14.89    6.51
   6   0 -12   46.58    7.59
  -6   0  12   56.96    9.78
   6   0 -11   12.89    4.65
  -6   0  11    4.70    3.07
  -6   0  11    2.58    4.40
   6   0 -10  144.80   12.03
  -6   0  10  172.11   14.24
  -6   0  10  161.06   11.83
  -6   0   9  276.04   17.51
  -6   0   9  287.11   15.83
  -6   0   8   31.39    5.92
  -6   0   8   28.18    5.92
  -6   0   7  105.22    9.99
  -6   0   7   96.95    9.50
  -6   0   6  376.23   17.85
  -6   0   6  397.16   19.06
  -6   0   5  257.51   13.93
  -6   0   5  264.43   15.26
  -6   0   4  290.21   13.69
  -6   0   4  242.35   15.01
  -6   0   3    1.71    3.68
  -6   0   3    1.78    1.96
  -6   0   2  198.84    9.70
  -6   0   2  187.18   13.18
  -6   0   1  532.62   15.19
  -6   0   1  532.26   20.70
  -6   0   1  538.56   22.70
  -6   0   0  272.47   14.60
  -6   0   0  287.81   16.12
  -6   0  -1  240.96   14.04
  -6   0  -1  242.29   14.77
  -6   0  -2   16.20    4.66
  -6   0  -2   13.18    4.27
  -6   0  -3   34.59    5.76
  -6   0  -3   32.77    5.75
  -6   0  -4  984.40   32.28
  -6   0  -4  933.12   30.97
  -6   0  -5   43.47    6.73
  -6   0  -5   37.90    6.54
  -6   0  -6   12.94    3.27
  -6   0  -6   19.46    5.94
  -6   0  -7    0.06    3.12
  -6   0  -7   -6.59    4.15
  -6   0  -8  246.94   17.80
  -6   0  -9   -3.64    4.64
  -6   0 -10  114.28   13.46
  -6   0 -11    9.62    5.00
  -6   0 -12    4.10    4.59
  -6   0 -13   38.99    9.42
   6   1 -19   54.99   10.35
   6   1 -18    0.17    4.36
   6   1 -17   11.85    6.38
   6   1 -16    0.18    4.14
   6   1 -15  173.05   16.11
  -6  -1  15  203.69   18.96
   6   1 -14    3.50    3.79
  -6  -1  14    8.55    5.61
   6   1 -13   98.18   11.31
  -6  -1  13  105.64   12.69
   6   1 -12    2.35    3.58
  -6  -1  12    4.60    4.56
   6   1 -11  240.45   16.66
  -6  -1  11  290.60   19.43
  -6  -1  11  239.18   14.46
  -6  -1  10   33.80    5.75
  -6  -1  10   48.59    8.36
  -6  -1   9  400.70   21.26
  -6  -1   9  420.78   19.51
  -6  -1   8   20.77    4.43
  -6  -1   8   34.44    6.87
  -6  -1   7   -0.26    3.12
  -6  -1   7   -0.52    3.50
  -6  -1   6    1.38    3.29
  -6  -1   6    1.31    2.83
  -6  -1   5 1565.35   39.11
  -6  -1   5 1563.90   42.22
  -6  -1   4   19.42    4.85
  -6  -1   4   21.48    4.14
  -6  -1   3   -3.34    4.86
  -6  -1   3    4.19    2.65
  -6  -1   2   91.64    9.17
  -6  -1   1  555.27   21.85
  -6  -1   1  497.51   21.86
  -6  -1   0  368.61   17.76
  -6  -1   0  348.30   10.13
  -6  -1   0  309.93   17.02
  -6  -1  -1  168.11   12.22
  -6  -1  -1  197.76    8.43
  -6  -1  -1  181.25   12.73
  -6  -1  -2   10.07    4.36
  -6  -1  -2    9.25    2.58
  -6  -1  -2    1.99    3.74
  -6  -1  -3  348.65   18.48
  -6  -1  -3  336.79   17.35
  -6  -1  -4   -1.06    3.67
  -6  -1  -4    9.23    4.73
  -6  -1  -5  435.08   21.72
  -6  -1  -5  435.82   20.16
  -6  -1  -6   45.19    6.73
  -6  -1  -6   35.35    7.03
  -6  -1  -7   -0.64    3.05
  -6  -1  -7    0.30    3.96
  -6  -1  -8    4.53    5.28
  -6  -1  -9  215.11   17.80
  -6  -1 -10    5.11    4.28
  -6  -1 -11   -3.28    4.86
  -6  -1 -12    4.25    5.51
  -6  -1 -13   70.62   11.82
   6   2 -18    6.69    5.68
   6   2 -17    5.64    4.79
   6   2 -16   33.12    8.19
   6   2 -15   29.83    7.71
   6   2 -14   16.90    5.74
   6   2 -13    3.71    3.66
   6   2 -12  101.73   11.78
   6   2 -11   40.10    7.26
  -6  -2  11   34.92    6.06
  -6  -2  10  302.06   16.91
  -6  -2   9   -2.71    3.84
  -6  -2   8    5.20    3.95
  -6  -2   7  102.66    9.87
  -6  -2   6  575.18   23.59
  -6  -2   5    3.63    3.64
  -6  -2   4   30.74    6.17
  -6  -2   3    1.70    3.72
  -6  -2   2  330.71   17.69
  -6  -2   1   59.85    7.99
  -6  -2   1   54.79    7.57
  -6  -2   0  284.99   16.09
  -6  -2   0  278.80   10.22
  -6  -2   0  270.05   15.82
  -6  -2  -1    8.23    3.87
  -6  -2  -1    9.80    4.16
  -6  -2  -1   18.46    2.92
  -6  -2  -2   13.61    4.20
  -6  -2  -2   31.18    4.14
  -6  -2  -2   28.35    5.72
  -6  -2  -3   24.60    5.57
  -6  -2  -3   27.89    4.31
  -6  -2  -3   27.44    5.64
  -6  -2  -4 1073.28   35.72
  -6  -2  -4 1105.58   30.58
  -6  -2  -4 1046.15   33.80
  -6  -2  -5    3.40    2.76
  -6  -2  -5    1.53    3.44
  -6  -2  -5   -3.53    4.01
  -6  -2  -6    0.96    3.56
  -6  -2  -6    7.45    3.94
  -6  -2  -7   31.76    7.17
  -6  -2  -7   34.84    6.14
  -6  -2  -8  232.06   18.12
  -6  -2  -9   18.33    6.21
  -6  -2 -10   31.02    7.84
  -6  -2 -11   11.51    6.67
  -6  -2 -12    2.81    4.75
  -6  -2 -13    6.09    6.28
   6   3 -18   23.12    8.47
   6   3 -17    9.65    5.66
   6   3 -16    7.39    5.49
   6   3 -15  101.71   13.43
   6   3 -14   29.76    7.33
   6   3 -13   71.78   10.78
   6   3 -12    0.80    4.27
   6   3 -11  517.44   26.59
  -6  -3  11  526.58   23.17
  -6  -3  10   37.54    6.65
  -6  -3   9  169.85   13.14
  -6  -3   8  103.00   10.38
  -6  -3   7   67.22    8.54
  -6  -3   6   24.55    5.49
  -6  -3   5  110.12   10.58
  -6  -3   4  228.34   15.14
  -6  -3   3  178.95   13.35
  -6  -3   2  117.57   11.17
  -6  -3   1  422.30   20.77
  -6  -3   0   66.40    8.55
  -6  -3   0   67.05    8.82
  -6  -3  -1   72.35    8.87
  -6  -3  -1   76.58    6.36
  -6  -3  -1   78.73    9.16
  -6  -3  -2   56.99    8.22
  -6  -3  -2   57.06    7.97
  -6  -3  -2   48.31    5.43
  -6  -3  -3  143.78   12.41
  -6  -3  -3  149.92   10.08
  -6  -3  -3  144.99   12.05
  -6  -3  -4    2.86    3.92
  -6  -3  -4    2.24    2.59
  -6  -3  -4    1.88    4.28
  -6  -3  -5   71.75    9.50
  -6  -3  -5   71.45    8.06
  -6  -3  -5   87.75    9.36
  -6  -3  -6   35.54    7.62
  -6  -3  -6   31.80    5.82
  -6  -3  -6   41.65    6.74
  -6  -3  -7    3.93    4.71
  -6  -3  -7    2.37    3.49
  -6  -3  -7    1.58    3.12
  -6  -3  -8   95.72   11.85
  -6  -3  -8   90.84   10.36
  -6  -3  -9   36.83    8.14
  -6  -3  -9   52.00    8.61
  -6  -3 -10   31.37    8.26
  -6  -3 -10   15.35    5.75
  -6  -3 -11   95.40   12.53
  -6  -3 -11   91.94   12.83
  -6  -3 -12   72.48   11.48
  -6  -3 -12   60.11   11.15
  -6  -3 -13   16.90    6.69
   6   4 -17   13.62    6.34
   6   4 -16   69.57   12.08
   6   4 -15    7.50    5.96
   6   4 -14   38.63    8.12
   6   4 -13    3.81    4.75
   6   4 -12   99.26   12.39
   6   4 -11   14.13    6.30
  -6  -4  11   20.21    4.89
  -6  -4  10  345.00   19.41
  -6  -4   9   16.90    4.99
  -6  -4   8   43.68    7.65
  -6  -4   7  137.34   12.03
  -6  -4   6    9.46    5.51
  -6  -4   5   -1.62    3.62
  -6  -4   4    6.83    4.16
  -6  -4   3  241.85   16.10
  -6  -4   2  229.53   15.83
  -6  -4   1    7.88    5.18
  -6  -4   0  132.01   12.11
  -6  -4   0  143.22   12.25
  -6  -4  -1   27.52    5.99
  -6  -4  -1   18.18    4.94
  -6  -4  -1   32.85    4.70
  -6  -4  -2  110.00   11.31
  -6  -4  -2  137.49    9.83
  -6  -4  -2  127.82   11.89
  -6  -4  -3   16.25    5.62
  -6  -4  -3   10.85    4.61
  -6  -4  -3    5.42    2.62
  -6  -4  -4  448.46   23.40
  -6  -4  -4  504.85   21.25
  -6  -4  -4  465.17   22.65
  -6  -4  -5  505.12   25.52
  -6  -4  -5  523.67   22.74
  -6  -4  -5  509.67   23.69
  -6  -4  -6   10.93    5.43
  -6  -4  -6    2.89    3.78
  -6  -4  -6    5.24    3.63
  -6  -4  -7    8.61    3.60
  -6  -4  -7    8.42    5.01
  -6  -4  -7    9.61    4.74
  -6  -4  -8   23.98    6.55
  -6  -4  -8   27.65    6.92
  -6  -4  -9   49.63    9.49
  -6  -4  -9   57.40    9.39
  -6  -4 -10  126.11   14.78
  -6  -4 -10  162.78   15.52
  -6  -4 -11   13.17    6.52
  -6  -4 -11    4.32    4.59
  -6  -4 -12   86.12   13.28
  -6  -4 -12   74.07   11.63
  -6  -4 -13   11.69    6.64
   6   5 -16   29.13    8.24
   6   5 -15   -0.13    5.30
   6   5 -14   28.07    8.19
   6   5 -13    5.70    4.68
   6   5 -12   21.21    6.68
   6   5 -11   50.18    9.07
  -6  -5  11   60.99    8.63
  -6  -5  10   10.81    4.46
  -6  -5   9  204.10   15.43
  -6  -5   8   56.21    8.67
  -6  -5   7  101.21   10.71
  -6  -5   6    4.49    3.84
  -6  -5   5  190.14   14.91
  -6  -5   4   15.68    5.82
  -6  -5   3  189.58   14.69
  -6  -5   2   86.91   10.77
  -6  -5   1  129.28   12.32
  -6  -5   0  172.39   14.08
  -6  -5  -1   84.78    9.98
  -6  -5  -1  103.87   11.25
  -6  -5  -2  237.27   16.87
  -6  -5  -2  267.74   14.88
  -6  -5  -2  229.33   16.41
  -6  -5  -3  370.00   21.28
  -6  -5  -3  383.80   18.69
  -6  -5  -3  362.30   20.48
  -6  -5  -4  196.65   15.79
  -6  -5  -4  180.27   13.07
  -6  -5  -4  172.27   14.00
  -6  -5  -5  132.24   13.49
  -6  -5  -5  125.94   11.47
  -6  -5  -5  111.06   11.24
  -6  -5  -6    1.85    3.11
  -6  -5  -6   11.18    4.61
  -6  -5  -6    3.15    4.01
  -6  -5  -7   61.64    8.86
  -6  -5  -7   65.36   10.18
  -6  -5  -8    8.15    5.86
  -6  -5  -8   12.61    5.68
  -6  -5  -9    1.89    4.29
  -6  -5  -9    4.10    4.66
  -6  -5 -10    1.65    5.36
  -6  -5 -10   -2.31    4.33
  -6  -5 -11  102.39   14.11
  -6  -5 -11  113.74   14.29
  -6  -5 -12   44.91    9.63
   6   6 -16   27.41    9.08
   6   6 -15   -1.48    4.86
   6   6 -14   13.73    7.13
   6   6 -13   -1.78    4.34
   6   6 -12   12.46    6.10
   6   6 -11   -2.17    5.02
  -6  -6  11    2.78    4.29
  -6  -6  10   41.04    7.79
  -6  -6   9   16.05    6.05
  -6  -6   8  215.93   16.55
  -6  -6   7    0.75    3.77
  -6  -6   6  140.56   13.39
  -6  -6   5   55.41    8.93
  -6  -6   4  663.30   29.29
  -6  -6   3   19.68    6.37
  -6  -6   2   42.46    8.07
  -6  -6   1  130.95   13.02
  -6  -6   0  101.95   11.56
  -6  -6  -1    7.27    4.02
  -6  -6  -2  175.43   14.97
  -6  -6  -2  178.13   15.14
  -6  -6  -3   38.23    7.75
  -6  -6  -3   25.71    6.44
  -6  -6  -3   33.21    6.28
  -6  -6  -4   63.43    9.06
  -6  -6  -4   87.72   10.01
  -6  -6  -4   74.61   10.60
  -6  -6  -5   26.61    6.72
  -6  -6  -5   24.81    6.00
  -6  -6  -5   43.99    7.61
  -6  -6  -6  286.03   20.71
  -6  -6  -6  332.21   20.24
  -6  -6  -6  306.98   19.53
  -6  -6  -7   22.55    6.53
  -6  -6  -7   28.01    7.34
  -6  -6  -8    4.80    4.98
  -6  -6  -8    1.03    5.27
  -6  -6  -9    3.67    5.07
  -6  -6  -9   -2.93    4.34
  -6  -6 -10  210.69   19.30
  -6  -6 -10  187.19   17.75
  -6  -6 -11   17.49    6.61
  -6  -6 -11   15.88    5.69
  -6  -6 -12    6.95    5.44
   6   7 -15    0.49    5.51
   6   7 -14   -4.00    6.08
   6   7 -13  206.32   19.80
   6   7 -12    9.83    5.68
   6   7 -11   24.90    7.81
  -6  -7  11   61.20    9.53
  -6  -7  10   23.08    6.38
  -6  -7   9  194.20   16.47
  -6  -7   8   10.27    5.64
  -6  -7   7  123.20   13.18
  -6  -7   6    9.77    5.34
  -6  -7   5  240.32   18.30
  -6  -7   4   18.10    6.32
  -6  -7   3  110.50   12.72
  -6  -7   2   -5.49    5.05
  -6  -7   1   14.36    5.89
  -6  -7   0  190.71   16.34
  -6  -7  -1  161.39   14.93
  -6  -7  -2   41.34    8.34
  -6  -7  -3    5.71    4.20
  -6  -7  -3    2.45    4.57
  -6  -7  -4   13.98    5.40
  -6  -7  -4   18.06    6.23
  -6  -7  -4   29.01    6.18
  -6  -7  -5  278.10   20.37
  -6  -7  -5  318.42   20.13
  -6  -7  -5  301.69   20.37
  -6  -7  -6   63.81    9.97
  -6  -7  -6   33.51    7.94
  -6  -7  -6   70.07   10.24
  -6  -7  -7    4.06    5.61
  -6  -7  -7    2.44    3.59
  -6  -7  -8    2.05    4.67
  -6  -7  -8    9.91    5.62
  -6  -7  -9   42.04    9.36
  -6  -7  -9   26.97    7.49
  -6  -7 -10    4.72    4.84
  -6  -7 -10    2.72    6.49
  -6  -7 -11   27.57    8.14
   6   8 -13   17.56    7.48
   6   8 -12   48.83   10.41
   6   8 -11    8.46    6.05
  -6  -8  11   33.31    8.44
   6   8 -10  127.72   15.49
  -6  -8  10  107.25   13.11
  -6  -8   9    2.36    4.86
  -6  -8   8   61.97   10.03
  -6  -8   7    5.12    5.08
  -6  -8   6    9.95    5.35
  -6  -8   5   14.29    6.84
  -6  -8   4  223.05   18.30
  -6  -8   3  105.54   13.09
  -6  -8   2   46.39    9.08
  -6  -8   1   48.68    9.38
  -6  -8   0    9.45    6.10
  -6  -8  -1   14.52    6.32
  -6  -8  -2   44.09    8.76
  -6  -8  -3   -3.68    4.85
  -6  -8  -4  116.72   13.89
  -6  -8  -4  108.97   12.78
  -6  -8  -5   -2.58    4.01
  -6  -8  -5   -0.05    3.64
  -6  -8  -6  213.79   18.64
  -6  -8  -6  250.22   19.27
  -6  -8  -6  231.79   18.74
  -6  -8  -7   35.67    8.81
  -6  -8  -7   26.06    8.45
  -6  -8  -8    7.62    4.85
  -6  -8  -8    5.81    5.67
  -6  -8  -9    9.30    5.56
  -6  -8  -9    6.06    3.88
   6   9 -12   16.04    6.43
   6   9 -11   21.60    8.21
  -6  -9  11   27.36    7.88
   6   9 -10   11.08    6.84
  -6  -9  10    7.50    4.48
  -6  -9   9   86.05   12.43
  -6  -9   8   34.92    9.24
  -6  -9   7   15.36    6.96
  -6  -9   6   23.18    7.34
  -6  -9   5  120.07   14.37
  -6  -9   4    0.27    4.28
  -6  -9   3  296.10   22.21
  -6  -9   2    0.57    4.05
  -6  -9   1   32.71    8.71
  -6  -9   0    5.49    5.60
  -6  -9  -1  181.20   17.33
  -6  -9  -2   35.00    8.24
  -6  -9  -3   86.57   12.52
  -6  -9  -4   10.63    6.45
  -6  -9  -5  341.91   23.84
  -6  -9  -6   59.94   10.63
  -6  -9  -6   72.66   11.90
  -6  -9  -7    6.80    5.30
  -6  -9  -7   12.40    6.00
  -6  -9  -8    2.62    4.38
  -6 -10  11   27.66    7.47
   6  10 -10   65.52   11.49
  -6 -10  10   94.99   13.70
   6  10  -9   -7.53    5.13
  -6 -10   9   -0.73    4.87
  -6 -10   8   13.15    6.83
  -6 -10   7   19.38    7.78
  -6 -10   6    4.01    4.88
  -6 -10   5    2.63    5.17
  -6 -10   4  210.23   19.71
  -6 -10   3   25.85    8.43
  -6 -10   2   15.74    7.39
  -6 -10   1    4.15    5.40
  -6 -10   0  172.80   17.82
  -6 -10  -1   37.31    8.95
  -6 -10  -2   25.07    7.16
  -6 -10  -3    3.06    4.73
  -6 -10  -4   27.26    8.26
  -6 -10  -5    6.15    5.62
  -6 -11   8   81.22   13.49
  -6 -11   7   66.33   11.89
  -6 -11   6   -5.39    5.49
  -6 -11   5   82.06   13.50
  -6 -11   4   -1.66    5.79
  -6 -11   3   45.69   10.20
  -6 -11   2   -3.86    5.87
  -6 -11   1   58.30   11.66
  -6 -11   0   12.61    7.02
  -6 -11  -1    5.89    5.02
  -6 -11  -2   13.13    6.95
  -6 -11  -3   20.23    7.11
  -7  12   6    9.02    6.56
  -7  12   5  154.86   17.19
  -7  12   4   26.25    7.84
  -7  12   4   16.80    5.92
  -7  12   3    6.90    5.50
  -7  12   3    3.41    5.16
  -7  12   2    7.03    5.87
  -7  12   2    5.83    5.42
  -7  12   1   18.42    6.44
  -7  12   1   31.35    8.57
  -7  12   0   27.10    7.91
  -7  12   0   29.17    9.16
  -7  12  -1   18.12    7.09
  -7  11   9   -3.91    5.72
  -7  11   8   10.00    6.94
  -7  11   7   25.77    7.92
  -7  11   6  146.28   16.19
  -7  11   5   16.41    7.22
  -7  11   4   12.00    6.38
  -7  11   4   10.23    6.18
  -7  11   3   37.93    8.71
  -7  11   3   46.80    9.29
  -7  11   2    9.35    5.55
  -7  11   2   13.61    6.08
  -7  11   1    9.16    6.11
  -7  11   1    1.63    5.13
  -7  11   0   64.51   11.08
  -7  11  -1   14.98    6.72
  -7  11  -2   55.36   10.80
  -7  11  -3   10.39    6.74
  -7  11  -4   86.89   13.12
  -7  10  11  114.87   15.91
  -7  10  10   13.13    6.89
  -7  10   9    9.30    5.45
  -7  10   8    8.84    5.10
  -7  10   7  111.36   14.36
  -7  10   6   41.64    8.90
  -7  10   5   43.90    8.73
  -7  10   5   53.13    8.71
  -7  10   4   97.00   12.65
  -7  10   4   88.16   11.49
  -7  10   3   72.35   10.94
  -7  10   3   57.19    9.91
  -7  10   2   -2.79    3.46
  -7  10   2    0.80    4.33
  -7  10   1  143.71   14.43
  -7  10   1  132.71   14.35
  -7  10   0    5.75    4.50
  -7  10  -1  148.30   16.03
  -7  10  -2    7.61    5.16
  -7  10  -3  139.21   16.26
  -7  10  -4   -8.63    6.59
  -7  10  -5   10.24    6.32
  -7  10  -6    9.63    5.86
  -7   9  12  127.51   16.39
  -7   9  11    7.69    5.26
  -7   9  10   31.48    8.68
  -7   9   9   91.52   12.84
  -7   9   8   89.63   12.16
  -7   9   7   35.35    8.16
  -7   9   6  154.66   15.74
  -7   9   6  161.99   14.07
  -7   9   5   32.74    7.27
  -7   9   5   14.34    4.97
  -7   9   4   34.34    7.73
  -7   9   4   55.86    8.79
  -7   9   3    0.34    3.97
  -7   9   3   -0.59    4.36
  -7   9   2  285.98   19.53
  -7   9   2  299.17   20.27
  -7   9   1    4.44    3.70
  -7   9   1   -2.23    3.67
  -7   9   0  199.45   15.75
  -7   9   0  195.96   17.27
  -7   9  -1   -0.88    4.63
  -7   9  -2  141.10   15.26
  -7   9  -3   26.01    7.74
  -7   9  -4  187.29   18.07
  -7   9  -5   45.84    9.54
  -7   9  -6   74.27   12.26
  -7   9  -7   37.00    9.28
  -7   9  -8   38.82   10.25
  -7   8  14   38.80    9.97
  -7   8  13  214.09   20.90
  -7   8  12   22.70    7.89
  -7   8  11   13.81    7.41
  -7   8  10   30.97    8.51
  -7   8   9   51.08    9.92
  -7   8   8   47.25    9.35
  -7   8   7  159.12   14.90
  -7   8   6   19.73    6.33
  -7   8   6    9.96    4.37
  -7   8   5   15.33    5.20
  -7   8   5    9.69    4.95
  -7   8   4   45.68    7.87
  -7   8   4   35.89    7.03
  -7   8   3  462.43   23.98
  -7   8   3  489.10   24.76
  -7   8   2   30.79    6.60
  -7   8   2   17.61    5.68
  -7   8   1   10.40    3.94
  -7   8   1    6.69    5.10
  -7   8   0   28.29    6.27
  -7   8   0   22.22    6.22
  -7   8  -1   87.66   11.54
  -7   8  -2   78.02   11.18
  -7   8  -3    0.35    4.87
  -7   8  -4    3.60    4.84
  -7   8  -5   15.27    5.93
  -7   8  -6    6.56    4.74
  -7   8  -7  152.14   16.81
  -7   8  -8    3.50    5.25
  -7   8  -9   17.69    7.51
  -7   7  15   30.01   10.14
  -7   7  14   52.46   11.26
  -7   7  13    8.11    5.08
  -7   7  12    3.96    4.75
  -7   7  11   -4.89    5.03
  -7   7  10   -0.03    5.30
  -7   7   9   12.17    6.11
  -7   7   8  106.67   12.53
  -7   7   7   55.60    9.40
  -7   7   6   42.44    8.08
  -7   7   6   42.94    6.97
  -7   7   5   -8.58    4.62
  -7   7   5    0.86    3.63
  -7   7   4  217.70   15.64
  -7   7   4  231.59   16.15
  -7   7   3   44.32    7.66
  -7   7   3   45.66    7.82
  -7   7   2  125.12   11.51
  -7   7   2  112.58   11.90
  -7   7   1   78.41    9.25
  -7   7   1   93.33   11.31
  -7   7   0  150.32   12.21
  -7   7   0  158.34   14.23
  -7   7  -1   22.93    5.07
  -7   7  -1   19.68    6.50
  -7   7  -2   34.15    8.30
  -7   7  -3   -2.54    4.91
  -7   7  -4   10.31    5.66
  -7   7  -5   74.54   11.48
  -7   7  -6  145.54   15.63
  -7   7  -7   47.67    9.48
  -7   7  -8    3.77    4.96
  -7   7  -9   22.97    7.79
  -7   7 -10  205.20   20.14
  -7   7 -11    8.56    6.19
  -7   6  16    4.70    6.25
  -7   6  15    6.22    6.06
  -7   6  14    1.94    5.23
  -7   6  13  226.73   20.62
  -7   6  12   12.49    6.38
  -7   6  11   41.46    9.59
  -7   6  10   23.91    7.70
  -7   6   9  255.32   19.13
  -7   6   8   10.76    4.40
  -7   6   7  355.82   21.40
  -7   6   7  375.97   18.99
  -7   6   6   18.32    5.38
  -7   6   6   22.21    4.80
  -7   6   5   29.31    6.13
  -7   6   5   39.50    6.50
  -7   6   4   30.35    6.16
  -7   6   4   27.86    6.30
  -7   6   3  669.73   26.58
  -7   6   3  680.94   28.13
  -7   6   2   30.07    5.80
  -7   6   2   21.33    6.11
  -7   6   1   -0.11    2.86
  -7   6   1    5.82    4.78
  -7   6   0    6.24    3.40
  -7   6   0    5.68    4.81
  -7   6  -1  715.93   25.58
  -7   6  -1  642.64   29.67
  -7   6  -2   25.38    7.51
  -7   6  -3    1.23    4.34
  -7   6  -4   15.98    5.95
  -7   6  -5  138.43   14.66
  -7   6  -6   -2.83    4.61
  -7   6  -7  124.10   14.33
  -7   6  -8    9.55    5.11
  -7   6  -9   31.61    8.24
  -7   6 -10   28.16    8.62
  -7   6 -11   60.04   11.55
  -7   6 -12    8.33    5.51
  -7   5  16    3.89    5.45
  -7   5  15   -1.25    4.84
  -7   5  14  125.71   15.58
  -7   5  13   -7.05    6.47
  -7   5  12   84.97   12.48
  -7   5  11    5.59    4.32
  -7   5  10   81.95   11.35
  -7   5   9   11.92    5.94
  -7   5   8  188.04   15.31
  -7   5   7   58.38    9.15
  -7   5   7   58.18    7.25
  -7   5   6    2.14    3.25
  -7   5   6    0.78    3.54
  -7   5   5   27.28    5.76
  -7   5   5   24.17    5.33
  -7   5   4  182.22   13.03
  -7   5   4  165.56   12.93
  -7   5   3   24.66    5.36
  -7   5   3    8.48    3.91
  -7   5   2    2.50    2.90
  -7   5   2   -3.00    4.07
  -7   5   1   -2.31    2.59
  -7   5   1    6.40    4.58
  -7   5   0  328.10   15.63
  -7   5   0  303.82   19.03
  -7   5  -1   89.80    7.93
  -7   5  -1   75.15   10.10
  -7   5  -2  107.85    8.94
  -7   5  -2   96.86   11.55
  -7   5  -3   20.42    4.68
  -7   5  -3   24.82    7.24
  -7   5  -4  113.78   10.26
  -7   5  -4  122.49   13.60
  -7   5  -5   20.86    5.31
  -7   5  -5   29.31    7.28
  -7   5  -6  435.60   21.95
  -7   5  -6  410.07   24.77
  -7   5  -7   15.65    4.82
  -7   5  -7   13.03    6.37
  -7   5  -8    6.96    4.24
  -7   5  -8    6.23    5.77
  -7   5  -9   27.36    6.85
  -7   5  -9   32.24    8.12
  -7   5 -10  359.73   23.49
  -7   5 -10  358.32   25.11
  -7   5 -11   10.76    5.78
  -7   5 -11   10.09    6.20
  -7   5 -12    6.88    4.67
  -7   5 -12   -2.87    4.84
  -7   4  17   -4.36    6.52
  -7   4  16   23.34    8.51
  -7   4  15   48.09   10.62
  -7   4  14   15.00    6.53
  -7   4  13  194.68   18.60
  -7   4  12    3.71    5.71
  -7   4  11   50.54    9.16
  -7   4  10    8.30    5.75
  -7   4   9  336.22   21.17
  -7   4   8   15.28    5.39
  -7   4   7   36.14    6.14
  -7   4   7   30.33    6.60
  -7   4   6   10.37    5.08
  -7   4   6   10.64    3.65
  -7   4   5   29.39    5.62
  -7   4   5   35.22    6.46
  -7   4   4   60.24    7.24
  -7   4   4   73.22    8.43
  -7   4   3  261.82   14.49
  -7   4   3  239.48   15.76
  -7   4   2  547.98   20.48
  -7   4   2  432.21   21.88
  -7   4   1  107.57    8.55
  -7   4   1  114.10    8.68
  -7   4   1  107.54   11.08
  -7   4   0   70.34    6.68
  -7   4   0   65.93    7.05
  -7   4   0   70.05    9.13
  -7   4  -1  507.86   20.00
  -7   4  -1  457.60   23.50
  -7   4  -2  100.99    8.90
  -7   4  -2   90.04   10.91
  -7   4  -3   57.68    7.31
  -7   4  -3   80.68   10.57
  -7   4  -4  141.31   11.40
  -7   4  -4  122.21   12.87
  -7   4  -5  150.12   12.38
  -7   4  -5  123.49   13.30
  -7   4  -6   27.71    6.28
  -7   4  -6   24.73    7.22
  -7   4  -7    5.02    3.98
  -7   4  -7    1.08    4.14
  -7   4  -8   12.33    5.36
  -7   4  -8   10.83    4.91
  -7   4  -9    4.54    3.76
  -7   4  -9    3.99    3.76
  -7   4 -10    5.35    4.64
  -7   4 -10   -2.45    5.01
  -7   4 -11  103.93   14.16
  -7   4 -11   97.59   13.80
  -7   4 -12    7.48    5.73
  -7   3  17   78.21   13.67
  -7   3  16   48.44   10.81
  -7   3  15   48.02   10.44
  -7   3  14  112.12   14.35
  -7   3  13   -0.98    4.11
  -7   3  12   79.43    9.37
  -7   3  12   98.91   12.70
  -7   3  11    3.87    3.63
  -7   3  11    8.74    5.73
  -7   3  10  189.12   16.03
  -7   3   9    7.60    3.95
  -7   3   8  263.81   17.66
  -7   3   7   21.31    5.83
  -7   3   6   44.65    6.69
  -7   3   6   39.34    6.69
  -7   3   5   81.36    8.75
  -7   3   5   89.76    9.43
  -7   3   4  243.32   14.00
  -7   3   4  230.37   15.12
  -7   3   3  265.52   14.01
  -7   3   3  267.64   16.38
  -7   3   2  184.64   11.03
  -7   3   2  184.19   13.89
  -7   3   1    0.75    2.41
  -7   3   1   -0.25    2.04
  -7   3   1    3.72    3.79
  -7   3   0  668.44   20.21
  -7   3   0  666.87   23.44
  -7   3   0  620.92   26.77
  -7   3  -1    5.44    3.24
  -7   3  -1    6.23    4.16
  -7   3  -2  105.15    9.57
  -7   3  -2  112.61   11.51
  -7   3  -3   -1.46    3.26
  -7   3  -3    1.69    4.10
  -7   3  -4  499.37   22.47
  -7   3  -4  519.23   26.13
  -7   3  -5   21.01    6.17
  -7   3  -5    9.94    4.18
  -7   3  -5   -3.16    4.63
  -7   3  -6    8.65    4.70
  -7   3  -6    4.04    3.22
  -7   3  -6    5.04    5.29
  -7   3  -7   87.48   10.57
  -7   3  -7  110.70   12.87
  -7   3  -8   -6.01    4.08
  -7   3  -8    3.93    4.32
  -7   3  -9   13.37    6.31
  -7   3  -9    7.26    5.11
  -7   3 -10   29.53    7.37
  -7   3 -10   25.50    7.08
  -7   3 -11   44.50    9.36
  -7   3 -11   42.28    9.16
  -7   3 -12   34.25    8.18
  -7   2  17   23.65    9.46
  -7   2  16    5.28    7.08
  -7   2  15  134.81   16.55
  -7   2  14   16.03    7.84
  -7   2  13   76.58   11.91
  -7   2  12   62.38    8.48
   7  -2 -12   57.51    7.69
  -7   2  12   53.55    9.56
   7  -2 -11   81.96    8.82
  -7   2  11   90.26   11.91
  -7   2  11  106.17   10.65
  -7   2  10   -0.47    4.06
   7  -2 -10    0.72    2.42
  -7   2  10    7.78    5.08
  -7   2   9  242.77   17.08
  -7   2   9  266.85   17.13
  -7   2   8  264.72   17.18
  -7   2   8  243.68   16.26
  -7   2   7  230.87   15.39
  -7   2   7  233.86   15.92
  -7   2   6   87.97    9.35
  -7   2   5  173.32   12.05
  -7   2   4   -0.84    3.28
  -7   2   4    3.06    2.54
  -7   2   3  228.61   12.55
  -7   2   3  235.79   15.49
  -7   2   2   -1.22    4.02
  -7   2   2    4.28    2.45
  -7   2   1  134.28    8.34
  -7   2   1  130.83   10.31
  -7   2   1  134.81   11.94
  -7   2   0  236.89   13.84
  -7   2   0  239.89   16.43
  -7   2  -1   65.95    9.18
  -7   2  -1   77.79    8.29
  -7   2  -2   10.32    5.69
  -7   2  -2    0.67    3.28
  -7   2  -2    9.33    4.75
  -7   2  -3  346.31   18.44
  -7   2  -3  331.68   19.79
  -7   2  -3  308.45   19.66
  -7   2  -4  329.13   18.22
  -7   2  -4  287.75   18.31
  -7   2  -4  325.84   20.65
  -7   2  -5   29.79    6.89
  -7   2  -5   13.27    4.49
  -7   2  -5   24.73    5.76
  -7   2  -6  137.72   12.87
  -7   2  -6  155.32   13.03
  -7   2  -6  158.61   15.28
  -7   2  -7   92.69   12.03
  -7   2  -7  121.46   12.49
  -7   2  -8   62.39   10.39
  -7   2  -8   72.77   10.18
  -7   2  -9    2.44    4.25
  -7   2  -9    2.54    4.48
  -7   2 -10    2.07    4.67
  -7   2 -10    4.29    4.58
  -7   2 -11   29.33    8.24
  -7   2 -12   12.85    6.27
  -7   1  17   17.32    8.82
  -7   1  16   57.55   11.72
   7  -1 -15   21.69    6.35
  -7   1  15   23.55    8.35
   7  -1 -14   94.14   10.92
  -7   1  14  121.33   14.81
   7  -1 -13   62.01    8.55
  -7   1  13   39.48    9.07
   7  -1 -12  134.64   12.12
  -7   1  12  125.21   13.99
  -7   1  12  150.19   12.51
   7  -1 -11    3.16    4.22
  -7   1  11    4.29    4.15
  -7   1  11    0.07    4.44
   7  -1 -10   51.37    7.42
  -7   1  10   48.21    7.57
  -7   1  10   51.88    8.88
  -7   1   9   28.22    5.91
  -7   1   9   32.63    6.92
  -7   1   8   36.41    6.41
  -7   1   8   45.68    7.54
  -7   1   7    7.63    4.58
  -7   1   7    9.01    4.25
  -7   1   6  258.44   15.38
  -7   1   6  277.73   17.27
  -7   1   5  363.80   17.33
  -7   1   5  365.02   19.92
  -7   1   4   10.74    4.39
  -7   1   4   19.86    4.40
  -7   1   3   10.91    5.17
  -7   1   3   10.28    3.08
  -7   1   2  180.51    9.91
  -7   1   2  143.99   12.47
  -7   1   1  172.50   11.96
  -7   1   1  164.57   13.58
  -7   1   0    9.44    4.40
  -7   1   0   21.11    6.21
  -7   1   0   19.88    4.69
  -7   1  -1   51.63    8.84
  -7   1  -1   37.70    6.30
  -7   1  -1   43.19    7.40
  -7   1  -2   91.07   10.81
  -7   1  -2  114.58   10.48
  -7   1  -2  120.39   11.58
  -7   1  -3    5.98    5.39
  -7   1  -3   12.93    4.54
  -7   1  -3   19.34    4.94
  -7   1  -4   64.46    9.85
  -7   1  -4   54.11    7.78
  -7   1  -4   60.76    8.37
  -7   1  -5   20.22    6.79
  -7   1  -5    8.97    3.78
  -7   1  -5   -0.85    3.62
  -7   1  -6  167.59   14.14
  -7   1  -6  151.40   12.56
  -7   1  -6  164.60   15.48
  -7   1  -7    5.43    4.30
  -7   1  -8  271.92   19.33
  -7   1  -9    8.86    5.87
  -7   1 -10   98.20   12.81
  -7   1 -11   43.24    9.60
  -7   1 -12  108.90   14.28
   7   0 -17   -2.02    3.66
  -7   0  17    4.63    5.10
   7   0 -16    3.40    3.79
  -7   0  16   11.83    6.63
   7   0 -15   45.90    8.49
  -7   0  15   51.69   11.05
   7   0 -14    0.15    3.34
  -7   0  14   -3.42    5.41
   7   0 -13   38.32    7.65
  -7   0  13   18.92    6.77
   7   0 -12    7.32    4.00
  -7   0  12   -0.88    3.28
  -7   0  12    1.56    4.74
   7   0 -11  266.62   17.61
  -7   0  11  310.00   20.53
  -7   0  11  314.43   18.04
  -7   0  10   -5.53    3.98
  -7   0  10    1.16    4.08
  -7   0   9    5.92    4.33
  -7   0   9   16.72    5.77
  -7   0   8   22.65    5.81
  -7   0   8   17.41    5.81
  -7   0   7  782.02   28.51
  -7   0   7  731.56   28.74
  -7   0   6   24.45    5.99
  -7   0   6   25.78    5.70
  -7   0   5   41.12    7.32
  -7   0   5   49.92    6.53
  -7   0   4   -0.48    4.08
  -7   0   4    6.75    2.83
  -7   0   3  242.31   12.05
  -7   0   3  256.10   16.73
  -7   0   2   31.53    6.36
  -7   0   2   16.97    3.02
  -7   0   1  564.82   23.28
  -7   0   1  549.63   24.67
  -7   0   0   95.70   10.18
  -7   0   0   95.78    9.48
  -7   0  -1   89.40   10.00
  -7   0  -1   82.95    9.00
  -7   0  -2  600.84   25.15
  -7   0  -2  604.06   25.88
  -7   0  -3  586.75   25.26
  -7   0  -3  529.04   24.28
  -7   0  -4   18.35    5.30
  -7   0  -4   33.24    6.92
  -7   0  -5    2.94    3.72
  -7   0  -5    0.69    4.09
  -7   0  -6   23.00    5.97
  -7   0  -6   13.56    4.61
  -7   0  -7  456.00   24.87
  -7   0  -8   23.92    6.59
  -7   0  -9   30.11    7.21
  -7   0 -10    7.74    4.51
  -7   0 -11   46.97    9.74
  -7   0 -12   -0.20    4.56
   7   1 -18   13.06    6.80
   7   1 -17    6.47    4.90
   7   1 -16   23.57    7.23
   7   1 -15   36.05    7.61
  -7  -1  15   31.81    8.53
   7   1 -14   15.93    5.76
  -7  -1  14   12.28    5.45
   7   1 -13   14.32    5.65
  -7  -1  13    6.59    6.16
   7   1 -12  236.92   17.37
  -7  -1  12  262.52   19.63
  -7  -1  12  268.66   16.88
   7   1 -11   54.12    8.28
  -7  -1  11   47.57    7.26
  -7  -1  11   53.33    9.24
  -7  -1  10    3.29    3.56
  -7  -1  10    0.70    4.09
  -7  -1   9   12.83    4.90
  -7  -1   9   16.03    5.21
  -7  -1   8  450.43   21.99
  -7  -1   8  418.39   21.11
  -7  -1   7   10.07    4.19
  -7  -1   7   10.63    4.18
  -7  -1   6  198.62   13.03
  -7  -1   6  164.74   13.17
  -7  -1   5    3.65    4.53
  -7  -1   5    9.68    3.91
  -7  -1   4   21.52    5.74
  -7  -1   3   13.13    4.47
  -7  -1   2  638.42   26.85
  -7  -1   1   26.83    6.08
  -7  -1   1   24.53    5.68
  -7  -1   0    0.31    3.28
  -7  -1   0   -3.61    4.95
  -7  -1  -1    4.53    3.63
  -7  -1  -1   11.31    4.71
  -7  -1  -2  594.24   25.61
  -7  -1  -2  561.61   25.17
  -7  -1  -3   61.49    8.51
  -7  -1  -3   68.13    9.09
  -7  -1  -4    1.70    4.00
  -7  -1  -4    3.73    4.18
  -7  -1  -5   28.28    6.84
  -7  -1  -5   29.93    6.82
  -7  -1  -6  140.03   13.77
  -7  -1  -6  133.73   11.91
  -7  -1  -7    5.74    4.90
  -7  -1  -8  105.47   12.69
  -7  -1  -9   19.54    6.95
  -7  -1 -10   -8.44    5.69
  -7  -1 -11   19.34    7.68
  -7  -1 -12   31.26    8.07
   7   2 -18    4.39    5.22
   7   2 -17   61.83   10.88
   7   2 -16    9.98    5.32
   7   2 -15   58.09    9.87
   7   2 -14   11.28    5.34
   7   2 -13   92.57   11.92
   7   2 -12   14.73    5.30
  -7  -2  12    9.16    4.00
  -7  -2  11  255.22   16.83
  -7  -2  10   92.88   10.31
  -7  -2   9  160.43   13.30
  -7  -2   8    8.89    4.91
  -7  -2   7  648.15   27.41
  -7  -2   6  309.70   18.65
  -7  -2   5   46.90    7.71
  -7  -2   4    5.21    4.44
  -7  -2   3  303.99   18.23
  -7  -2   2    5.12    4.25
  -7  -2   1  272.27   16.90
  -7  -2   1  246.72   16.43
  -7  -2   0   11.57    5.10
  -7  -2   0    0.06    4.48
  -7  -2  -1   26.76    6.08
  -7  -2  -1   23.75    5.82
  -7  -2  -2  107.48   11.40
  -7  -2  -2   96.02   10.58
  -7  -2  -3  332.56   19.92
  -7  -2  -3  334.21   19.25
  -7  -2  -4    2.52    3.91
  -7  -2  -4   -0.26    3.92
  -7  -2  -5    3.51    3.88
  -7  -2  -5    4.25    3.81
  -7  -2  -6   38.32    6.80
  -7  -2  -6   27.94    6.87
  -7  -2  -7  240.69   18.57
  -7  -2  -8    6.95    5.20
  -7  -2  -9   32.48    8.27
  -7  -2 -10   13.89    6.83
  -7  -2 -11   92.11   13.37
   7   3 -17    3.26    4.30
   7   3 -16   92.18   13.18
   7   3 -15   13.78    6.43
   7   3 -14   21.20    6.94
   7   3 -13    2.77    4.35
   7   3 -12  164.52   15.85
  -7  -3  12  198.67   15.05
  -7  -3  11    2.44    3.80
  -7  -3  10   17.08    5.70
  -7  -3   9   12.64    5.09
  -7  -3   8  585.12   26.66
  -7  -3   7   45.95    7.52
  -7  -3   6    2.87    3.73
  -7  -3   5    3.26    4.17
  -7  -3   4   13.42    5.36
  -7  -3   3    5.26    4.45
  -7  -3   2   98.06   10.70
  -7  -3   1   45.22    7.92
  -7  -3   0   -0.06    4.00
  -7  -3   0    2.47    4.32
  -7  -3  -1  196.24   15.29
  -7  -3  -1  175.60   14.49
  -7  -3  -2  381.21   21.52
  -7  -3  -2  346.54   20.36
  -7  -3  -3   -1.48    4.99
  -7  -3  -3    7.44    4.51
  -7  -3  -4    9.17    4.81
  -7  -3  -4   11.13    5.18
  -7  -3  -5    8.21    3.99
  -7  -3  -5    3.27    4.56
  -7  -3  -6   82.47    9.82
  -7  -3  -6   68.03   10.31
  -7  -3  -7   29.04    7.46
  -7  -3  -8  113.63   13.55
  -7  -3  -9   32.91    8.44
  -7  -3 -10   41.35    9.45
  -7  -3 -11   21.59    7.73
   7   4 -16    4.62    5.33
   7   4 -15    4.92    4.79
   7   4 -14   28.40    8.31
   7   4 -13   36.19    8.65
   7   4 -12   11.07    6.03
  -7  -4  12   15.33    4.13
  -7  -4  11    8.02    4.63
  -7  -4  10   -4.44    4.18
  -7  -4   9  141.26   13.24
  -7  -4   8    4.67    3.78
  -7  -4   7  208.24   16.24
  -7  -4   6   11.86    4.83
  -7  -4   5   20.62    6.34
  -7  -4   4  275.55   18.51
  -7  -4   3    0.16    4.18
  -7  -4   2   95.04   11.11
  -7  -4   1  170.82   14.58
  -7  -4   0    5.28    4.92
  -7  -4  -1  208.72   16.32
  -7  -4  -1  222.04   16.38
  -7  -4  -2   -3.04    4.59
  -7  -4  -2    8.87    5.76
  -7  -4  -3  244.48   18.03
  -7  -4  -3  263.13   18.20
  -7  -4  -4  109.01   12.41
  -7  -4  -4  105.74   11.91
  -7  -4  -5  102.18   12.52
  -7  -4  -5   94.36   11.01
  -7  -4  -6   10.30    3.87
  -7  -4  -6   17.94    5.90
  -7  -4  -7   33.68    7.49
  -7  -4  -8  165.95   16.39
  -7  -4  -9    6.07    5.97
  -7  -4 -10   82.70   12.63
   7   5 -16   36.55   10.09
   7   5 -15   34.91    8.59
   7   5 -14  133.44   15.77
   7   5 -13    6.87    5.94
   7   5 -12   12.38    6.44
  -7  -5  12    9.09    4.79
  -7  -5  11   35.39    7.70
  -7  -5  10   42.07    8.44
  -7  -5   9    9.08    4.60
  -7  -5   8  304.45   20.06
  -7  -5   7   72.42   10.12
  -7  -5   6  223.38   17.00
  -7  -5   5   53.21    8.56
  -7  -5   4   93.55   11.16
  -7  -5   3    7.71    5.03
  -7  -5   2  108.80   12.00
  -7  -5   1    5.14    4.68
  -7  -5   0  119.38   12.62
  -7  -5  -1   65.67    9.42
  -7  -5  -1   66.28   10.05
  -7  -5  -2  153.10   14.44
  -7  -5  -2  145.51   13.80
  -7  -5  -3   13.57    5.63
  -7  -5  -3   24.11    6.22
  -7  -5  -4   83.53   10.27
  -7  -5  -4   63.38   10.16
  -7  -5  -5   20.85    6.94
  -7  -5  -5   22.55    6.58
  -7  -5  -6  146.12   15.33
  -7  -5  -6  150.94   14.32
  -7  -5  -7   89.34   12.35
  -7  -5  -8   34.27    8.54
  -7  -5  -9    1.77    4.79
  -7  -5 -10   45.36    9.77
   7   6 -15   51.97   11.07
   7   6 -14   62.36   11.64
   7   6 -13   37.63    8.67
   7   6 -12   13.37    6.59
  -7  -6  12   15.28    5.71
  -7  -6  11   34.74    7.74
  -7  -6  10    4.01    5.26
  -7  -6   9   59.13    9.58
  -7  -6   8   -3.28    4.71
  -7  -6   7  130.93   13.51
  -7  -6   6   66.13   10.43
  -7  -6   5  327.53   21.53
  -7  -6   4   49.81    9.31
  -7  -6   3   27.16    7.08
  -7  -6   2  162.85   15.47
  -7  -6   1  461.30   25.62
  -7  -6   0   -2.96    4.13
  -7  -6  -1    0.92    4.76
  -7  -6  -2   11.13    5.61
  -7  -6  -2    7.25    4.70
  -7  -6  -3   97.25   12.25
  -7  -6  -3  125.91   13.54
  -7  -6  -4    6.30    5.01
  -7  -6  -4   11.37    6.32
  -7  -6  -5   82.08   11.77
  -7  -6  -5  114.87   13.08
  -7  -6  -6   61.74   10.91
  -7  -6  -6   86.99   11.33
  -7  -6  -7    3.90    4.55
  -7  -6  -8   51.23   10.41
  -7  -6  -9  213.38   20.00
   7   7 -14   86.89   13.70
   7   7 -13   16.67    7.17
   7   7 -12   -9.69    5.97
   7   7 -11   -5.35    5.87
  -7  -7  11   -3.31    4.99
  -7  -7  10  102.01   12.62
  -7  -7   9    0.57    5.08
  -7  -7   8   17.79    6.20
  -7  -7   7   20.85    6.99
  -7  -7   6  107.61   13.46
  -7  -7   5   13.39    6.40
  -7  -7   4   34.89    8.12
  -7  -7   3   -8.39    5.87
  -7  -7   2   66.67   10.61
  -7  -7   1   -3.80    4.27
  -7  -7   0   -1.27    3.87
  -7  -7  -1    6.85    4.76
  -7  -7  -2    0.19    4.66
  -7  -7  -3   21.21    6.99
  -7  -7  -3   10.48    5.17
  -7  -7  -4   80.30   12.04
  -7  -7  -4   80.25   11.36
  -7  -7  -5   35.32    9.00
  -7  -7  -5   26.87    7.29
  -7  -7  -6   10.75    5.84
  -7  -7  -6   10.30    6.02
  -7  -7  -7    7.50    4.69
  -7  -7  -8  124.63   15.44
   7   8 -12    1.07    6.21
   7   8 -11  115.31   15.24
  -7  -8  11  118.53   14.34
  -7  -8  10    3.43    5.00
  -7  -8   9   92.26   12.81
  -7  -8   8   18.77    6.69
  -7  -8   7   28.62    8.76
  -7  -8   6   13.57    7.55
  -7  -8   5  338.39   23.78
  -7  -8   4   -0.15    4.07
  -7  -8   3   26.75    7.46
  -7  -8   2   -1.21    4.13
  -7  -8   1  267.75   21.19
  -7  -8   0    1.07    4.04
  -7  -8  -1   22.28    7.51
  -7  -8  -2    2.86    4.85
  -7  -8  -3  146.12   15.63
  -7  -8  -4   67.36   10.99
  -7  -8  -5  118.74   15.01
  -7  -8  -5  124.16   14.17
  -7  -8  -6   16.03    7.32
  -7  -8  -7   17.02    7.35
  -7  -9  11   11.68    7.15
  -7  -9  10  117.97   14.99
  -7  -9   9    9.68    6.49
  -7  -9   8    0.63    4.84
  -7  -9   7   -1.21    4.68
  -7  -9   6  100.57   14.29
  -7  -9   5   -0.31    4.66
  -7  -9   4   13.88    6.46
  -7  -9   3   -1.86    5.65
  -7  -9   2  131.97   15.49
  -7  -9   1   17.88    7.69
  -7  -9   0   16.40    6.57
  -7  -9  -1   29.43    8.13
  -7  -9  -2   -0.59    4.60
  -7  -9  -3   34.27    8.89
  -7  -9  -4  104.11   13.93
  -7  -9  -5    9.93    6.12
  -7 -10   9   14.89    6.91
  -7 -10   8    0.78    5.06
  -7 -10   7   37.92    9.30
  -7 -10   6   20.51    7.17
  -7 -10   5    3.46    5.13
  -7 -10   4   22.51    7.86
  -7 -10   3   11.13    6.91
  -7 -10   2   12.24    6.49
  -7 -10   1  178.89   18.82
  -7 -10   0   26.37    8.31
  -7 -10  -1   20.51    8.10
  -7 -10  -2   20.83    8.22
  -7 -10  -3  127.94   16.03
  -8  12   3    1.12    4.23
  -8  12   3    4.40    4.46
  -8  12   2   70.79   11.94
  -8  12   2   97.58   14.06
  -8  12   1    0.60    4.54
  -8  12   0    5.14    4.12
  -8  11   7  164.06   18.09
  -8  11   6    0.90    4.71
  -8  11   5   20.15    6.93
  -8  11   4   10.70    6.88
  -8  11   4    5.99    5.22
  -8  11   3  116.25   14.67
  -8  11   3   97.48   12.87
  -8  11   2   30.52    8.52
  -8  11   2   15.41    6.99
  -8  11   1   23.24    6.59
  -8  11   1   18.26    6.98
  -8  11   0   18.87    6.50
  -8  11   0    8.69    7.10
  -8  11  -1    0.40    5.29
  -8  10  10   18.45    7.25
  -8  10   9   27.03    8.43
  -8  10   8  122.53   15.24
  -8  10   7    1.69    4.36
  -8  10   6   12.62    6.16
  -8  10   5   -3.93    5.43
  -8  10   5    6.29    5.20
  -8  10   4   60.15   10.11
  -8  10   4   54.33    9.66
  -8  10   3    8.60    6.10
  -8  10   3    1.74    4.40
  -8  10   2   28.91    7.30
  -8  10   2   18.73    6.76
  -8  10   1   25.84    7.68
  -8  10   1   31.69    8.95
  -8  10   0   42.15    8.49
  -8  10   0   24.57    8.20
  -8  10  -1    7.64    6.69
  -8  10  -2  261.40   22.28
  -8  10  -3   19.08    7.34
  -8  10  -4   26.01    8.16
  -8   9  11   10.67    6.27
  -8   9  10   -2.02    5.02
  -8   9   9  119.14   14.87
  -8   9   8   17.27    6.85
  -8   9   7   32.33    8.24
  -8   9   6   45.27    9.34
  -8   9   5   64.63   10.49
  -8   9   5   55.08    9.65
  -8   9   4    9.80    5.67
  -8   9   4   13.03    5.22
  -8   9   3   28.96    6.97
  -8   9   3   19.24    6.07
  -8   9   2   41.11    8.31
  -8   9   2   15.95    6.16
  -8   9   1  115.39   12.36
  -8   9   1  137.56   14.87
  -8   9   0    2.68    3.45
  -8   9   0   -0.23    4.03
  -8   9  -1  199.59   18.74
  -8   9  -2   15.86    7.08
  -8   9  -3  192.92   19.24
  -8   9  -4   51.15   11.04
  -8   9  -5   77.67   13.00
  -8   9  -6   63.72   12.22
  -8   8  13   -3.94    6.79
  -8   8  12   45.93   11.05
  -8   8  11   45.93   10.61
  -8   8  10   99.16   13.45
  -8   8   9   48.03    9.43
  -8   8   8   29.22    8.35
  -8   8   7   31.18    7.23
  -8   8   6  117.42   13.13
  -8   8   6  111.73   11.79
  -8   8   5    5.28    4.16
  -8   8   5    5.08    5.09
  -8   8   4   33.22    7.10
  -8   8   4   64.18    9.83
  -8   8   3    2.62    3.73
  -8   8   3   -4.77    4.16
  -8   8   2   50.88    8.33
  -8   8   2   36.38    8.48
  -8   8   1   21.24    5.52
  -8   8   1   39.30    8.45
  -8   8   0  214.67   18.12
  -8   8  -1   85.98   12.25
  -8   8  -2   66.70   11.34
  -8   8  -3   52.87   10.40
  -8   8  -4    1.37    4.96
  -8   8  -5   95.00   13.47
  -8   8  -6    9.05    5.86
  -8   8  -7    5.26    5.56
  -8   7  14   15.75    7.74
  -8   7  13   98.30   14.45
  -8   7  12   49.02   10.89
  -8   7  11   36.74    9.40
  -8   7  10    0.73    4.96
  -8   7   9  116.86   13.73
  -8   7   8   67.07   10.39
  -8   7   7   67.90   10.33
  -8   7   6   -0.37    3.64
  -8   7   6   -0.25    3.18
  -8   7   5  415.09   22.96
  -8   7   5  382.41   22.09
  -8   7   4    3.32    3.55
  -8   7   4    6.72    5.14
  -8   7   3   36.54    7.28
  -8   7   3   27.02    6.60
  -8   7   2   18.70    5.34
  -8   7   2   13.52    6.16
  -8   7   1  270.14   16.77
  -8   7   1  222.36   17.89
  -8   7   0    3.64    4.16
  -8   7  -1  173.32   16.68
  -8   7  -2   42.67    8.77
  -8   7  -3    8.88    6.31
  -8   7  -4   36.16    8.92
  -8   7  -5   14.31    7.18
  -8   7  -6   12.68    6.78
  -8   7  -7   18.31    7.81
  -8   7  -8    5.50    4.93
  -8   7  -9  141.99   17.19
  -8   6  15   15.99    7.47
  -8   6  14  154.36   18.53
  -8   6  13   -3.21    5.95
  -8   6  12   -0.65    5.72
  -8   6  11    4.98    6.07
  -8   6  10  126.11   14.75
  -8   6   9   -1.84    5.20
  -8   6   8    8.01    5.57
  -8   6   7   17.13    6.48
  -8   6   7   30.03    6.44
  -8   6   6  170.63   14.63
  -8   6   6  188.28   14.83
  -8   6   5   25.31    6.58
  -8   6   5   22.89    5.95
  -8   6   4   18.96    5.19
  -8   6   4   31.72    6.90
  -8   6   3   47.27    7.65
  -8   6   3   45.74    8.02
  -8   6   2    0.46    2.80
  -8   6   2    1.35    3.67
  -8   6   1   61.16    7.82
  -8   6   1   48.87    8.64
  -8   6   0  234.85   18.11
  -8   6  -1    2.26    4.57
  -8   6  -2    1.23    4.22
  -8   6  -3   58.35   10.41
  -8   6  -4  257.39   20.53
  -8   6  -5   14.50    6.26
  -8   6  -6   -3.25    5.49
  -8   6  -7    2.56    5.38
  -8   6  -8  200.66   19.67
  -8   6  -9    4.67    5.81
  -8   6 -10   17.96    6.79
  -8   5  15  233.32   22.42
  -8   5  14   32.07   10.31
  -8   5  13    2.91    5.27
  -8   5  12    1.53    5.37
  -8   5  11  187.41   17.82
  -8   5  10    6.74    5.92
  -8   5   9   86.38   11.77
  -8   5   8    0.74    4.08
  -8   5   7   68.92    8.89
  -8   5   7   59.13    8.91
  -8   5   6   39.70    7.24
  -8   5   6   33.19    6.52
  -8   5   5  270.20   17.13
  -8   5   5  260.90   17.21
  -8   5   4   25.58    6.06
  -8   5   4    7.41    3.98
  -8   5   3   14.28    4.67
  -8   5   3    6.50    4.44
  -8   5   2    2.92    3.06
  -8   5   2   -4.83    4.62
  -8   5   1  278.39   19.28
  -8   5   0    0.42    4.06
  -8   5  -1   61.42   10.31
  -8   5  -2   11.57    5.18
  -8   5  -3  229.68   18.63
  -8   5  -4    4.69    4.51
  -8   5  -5  233.69   16.19
  -8   5  -5  250.63   20.33
  -8   5  -6    4.50    4.42
  -8   5  -6    9.55    5.10
  -8   5  -7   38.06    7.96
  -8   5  -7   34.19    8.23
  -8   5  -8   27.93    7.28
  -8   5  -8   23.76    8.15
  -8   5  -9  323.51   22.23
  -8   5  -9  337.16   25.76
  -8   5 -10    0.22    4.15
  -8   5 -10    1.37    5.27
  -8   5 -11   10.48    6.47
  -8   5 -11   15.31    6.42
  -8   4  16   72.63   13.53
  -8   4  15   11.76    6.12
  -8   4  14   34.90    9.26
  -8   4  13   34.93    9.17
  -8   4  12  140.87   15.90
  -8   4  12  129.18   13.43
  -8   4  11   -0.01    4.68
  -8   4  10  282.81   20.53
  -8   4   9   93.80   11.64
  -8   4   8  169.97   14.70
  -8   4   7    1.65    4.11
  -8   4   7    8.16    3.99
  -8   4   6  231.17   16.11
  -8   4   6  239.87   16.45
  -8   4   5    7.11    4.05
  -8   4   5    2.24    3.61
  -8   4   4   55.17    7.73
  -8   4   4   44.08    7.17
  -8   4   3  122.56   10.56
  -8   4   3   96.92   10.89
  -8   4   2  174.30   11.81
  -8   4   2  205.99   16.17
  -8   4   1   11.69    3.70
  -8   4   1   15.20    5.72
  -8   4   0   98.32    9.26
  -8   4   0  110.34   12.38
  -8   4  -1   51.66    6.98
  -8   4  -1   42.50    8.23
  -8   4  -2  132.42   11.36
  -8   4  -2  131.41   13.97
  -8   4  -3   11.86    4.94
  -8   4  -3   10.26    4.92
  -8   4  -4  200.87   14.78
  -8   4  -4  223.99   18.59
  -8   4  -5   50.37    7.89
  -8   4  -5   36.70    9.12
  -8   4  -6   14.17    6.01
  -8   4  -6   -1.18    3.78
  -8   4  -6    9.76    5.64
  -8   4  -7  122.35   13.02
  -8   4  -7  107.22   13.93
  -8   4  -8  101.82   12.32
  -8   4  -8  121.68   15.04
  -8   4  -9   10.29    6.64
  -8   4  -9   -1.34    4.50
  -8   4 -10   12.91    7.81
  -8   4 -10    9.18    4.97
  -8   4 -11   -2.70    4.56
  -8   4 -11    7.95    5.50
  -8   3  16    8.93    6.72
  -8   3  15  103.01   14.16
  -8   3  14   66.64   12.16
  -8   3  13    6.01    5.25
  -8   3  12  100.46   12.99
  -8   3  12  106.93   11.77
  -8   3  11  171.89   16.36
  -8   3  11  172.96   15.11
  -8   3  10   69.35    9.60
  -8   3  10   80.92   11.38
  -8   3   9  162.57   14.82
  -8   3   9  124.71   12.72
  -8   3   8    1.56    4.09
  -8   3   7   99.63   10.86
  -8   3   6   63.31    8.48
  -8   3   5  221.65   14.73
  -8   3   5  208.68   15.55
  -8   3   4  140.13   11.08
  -8   3   4  150.04   13.38
  -8   3   3   -1.60    3.92
  -8   3   3   13.58    3.76
  -8   3   2   70.37   10.07
  -8   3   1  167.61   12.14
  -8   3   1  185.95   15.54
  -8   3   0   83.63   11.06
  -8   3   0   78.89    8.92
  -8   3  -1  146.40   11.85
  -8   3  -1  159.41   14.85
  -8   3  -2   57.15    7.93
  -8   3  -2   81.41   11.47
  -8   3  -3  107.75   11.01
  -8   3  -3  117.98   12.85
  -8   3  -3  101.11   12.72
  -8   3  -4   23.98    6.95
  -8   3  -4   37.27    8.30
  -8   3  -4   27.90    6.51
  -8   3  -5  119.41   13.76
  -8   3  -5  105.79   11.40
  -8   3  -5  141.99   13.98
  -8   3  -6   -0.80    4.60
  -8   3  -6    2.80    4.79
  -8   3  -6    2.21    3.40
  -8   3  -7   14.45    6.84
  -8   3  -7   20.86    6.63
  -8   3  -8   52.93   10.82
  -8   3  -8   53.38    9.26
  -8   3  -9    1.73    4.29
  -8   3  -9    2.09    4.74
  -8   3 -10   78.15   12.72
  -8   3 -10  105.20   13.63
  -8   3 -11   22.16    7.66
  -8   2  17    6.26    6.64
  -8   2  16  115.13   15.99
  -8   2  15   25.51    7.98
  -8   2  14   68.18   12.02
  -8   2  13    5.00    6.81
  -8   2  12  195.79   17.57
  -8   2  12  210.78   15.81
  -8   2  11    6.37    4.53
  -8   2  11   23.30    6.70
  -8   2  10   35.05    7.04
  -8   2  10   34.19    7.41
  -8   2   9   43.14    7.72
  -8   2   9   60.39    8.97
  -8   2   8   69.75    9.97
  -8   2   8   94.28   10.70
  -8   2   7  137.49   12.36
  -8   2   7  122.60   12.74
  -8   2   6  214.84   14.49
  -8   2   6  208.91   16.56
  -8   2   5   19.82    6.55
  -8   2   5   45.50    6.82
  -8   2   4    1.18    4.50
  -8   2   4    3.14    3.54
  -8   2   3   56.08    9.04
  -8   2   3   43.52    6.07
  -8   2   2  165.57   14.80
  -8   2   2  169.24   14.78
  -8   2   1   27.32    6.76
  -8   2   1   42.82    7.94
  -8   2   1   35.84    6.31
  -8   2   0    3.30    4.65
  -8   2   0    8.54    5.52
  -8   2   0    6.80    4.23
  -8   2  -1  159.13   12.75
  -8   2  -1  156.89   14.39
  -8   2  -1  132.09   13.79
  -8   2  -2  156.43   12.83
  -8   2  -2  132.31   13.24
  -8   2  -2  139.09   14.29
  -8   2  -3    5.11    4.68
  -8   2  -3    3.98    4.26
  -8   2  -3   10.27    4.33
  -8   2  -4   84.87   12.09
  -8   2  -4   82.49   10.31
  -8   2  -4   89.32   10.30
  -8   2  -5    9.54    4.85
  -8   2  -5    4.17    4.25
  -8   2  -5   13.96    5.56
  -8   2  -6  160.73   14.47
  -8   2  -6  136.84   13.35
  -8   2  -6  131.53   15.24
  -8   2  -7   57.17   10.33
  -8   2  -7   60.50    9.56
  -8   2  -8  171.91   16.12
  -8   2  -9  107.95   13.36
  -8   2 -10   -1.04    4.45
  -8   2 -11   -3.83    4.45
  -8   1  17   16.54    8.20
  -8   1  16   17.55    8.24
  -8   1  15    9.67    7.02
  -8   1  14   15.06    7.56
   8  -1 -13  111.38   11.93
  -8   1  13  110.73   13.93
   8  -1 -12   34.30    7.04
  -8   1  12   34.89    6.40
  -8   1  12   45.77    9.29
   8  -1 -11   62.70    8.66
  -8   1  11   70.64    9.60
  -8   1  11   74.42   11.35
  -8   1  10   76.01   10.22
  -8   1  10   83.79   10.79
  -8   1   9   98.18   11.51
  -8   1   9  127.97   12.43
  -8   1   8    6.43    4.51
  -8   1   8   17.90    4.93
  -8   1   7  241.25   15.86
  -8   1   7  207.73   15.85
  -8   1   6    4.34    4.86
  -8   1   6    4.95    3.78
  -8   1   5  140.51   11.00
  -8   1   5  163.40   14.28
  -8   1   4  229.51   13.35
  -8   1   4  221.11   16.79
  -8   1   3  448.16   23.86
  -8   1   2  100.69   11.52
  -8   1   1   20.56    5.27
  -8   1   1   18.91    4.75
  -8   1   0   29.34    7.06
  -8   1   0   32.50    6.22
  -8   1  -1  561.60   24.85
  -8   1  -1  551.76   26.55
  -8   1  -2    1.98    4.27
  -8   1  -2    9.36    4.89
  -8   1  -3    4.57    4.15
  -8   1  -3    5.75    3.60
  -8   1  -4  146.93   13.40
  -8   1  -4  143.40   13.56
  -8   1  -5  317.64   20.50
  -8   1  -5  329.78   20.17
  -8   1  -6    4.96    4.08
  -8   1  -6   -2.34    3.70
  -8   1  -7  108.50   12.74
  -8   1  -8   -7.39    5.47
  -8   1  -9   97.01   12.86
  -8   1 -10   44.13   10.24
  -8   1 -11  137.53   16.12
  -8   0  17   -7.43    6.42
   8   0 -16   10.43    5.24
  -8   0  16    1.13    6.13
   8   0 -15   12.18    5.20
  -8   0  15   25.04    8.05
   8   0 -14   28.33    6.82
  -8   0  14   47.54   10.68
   8   0 -13   -0.52    3.48
  -8   0  13   -5.55    5.96
   8   0 -12   91.41   10.91
  -8   0  12   99.48   10.64
  -8   0  12   91.06   11.80
  -8   0  11    6.75    3.89
  -8   0  11    5.79    6.06
  -8   0  10   17.46    5.77
  -8   0  10   12.27    5.29
  -8   0   9   21.63    5.44
  -8   0   9   41.01    7.55
  -8   0   8  387.48   20.92
  -8   0   8  399.93   22.06
  -8   0   7   62.97    9.20
  -8   0   7   68.80    8.88
  -8   0   6    4.60    3.78
  -8   0   6    8.42    4.25
  -8   0   5   92.98   11.05
  -8   0   5   95.59    9.00
  -8   0   4  519.77   19.88
  -8   0   4  489.42   24.73
  -8   0   3   28.75    6.45
  -8   0   2    5.22    4.23
  -8   0   1   11.64    5.70
  -8   0   1   18.36    5.57
  -8   0   0   88.49   11.24
  -8   0   0  108.92   11.14
  -8   0  -1    2.05    4.32
  -8   0  -1    4.08    3.72
  -8   0  -2   77.19    9.87
  -8   0  -2   88.71   10.21
  -8   0  -3  115.39   12.10
  -8   0  -3  114.53   12.26
  -8   0  -4    6.64    3.87
  -8   0  -4   19.25    5.75
  -8   0  -5   51.59    8.34
  -8   0  -5   60.75    9.79
  -8   0  -6   30.00    6.72
  -8   0  -6   12.62    5.68
  -8   0  -7   93.75   12.06
  -8   0  -8   -3.41    4.49
  -8   0  -9   -4.17    4.13
  -8   0 -10   58.66   10.68
   8   1 -18    2.19    4.12
   8   1 -17   13.53    6.26
   8   1 -16    9.69    5.95
   8   1 -15   57.16    9.93
   8   1 -14    0.80    4.39
  -8  -1  14   -5.47    6.02
   8   1 -13  124.04   13.59
  -8  -1  13  103.51   13.41
   8   1 -12    1.99    4.36
  -8  -1  12   -1.96    3.77
  -8  -1  12    4.20    3.91
  -8  -1  11   52.64    8.37
  -8  -1  11   56.30    9.61
  -8  -1  10   47.63    8.10
  -8  -1  10   48.39    8.42
  -8  -1   9  184.88   14.76
  -8  -1   9  185.79   15.12
  -8  -1   8   62.17    8.73
  -8  -1   8   59.24    8.45
  -8  -1   7   27.47    7.11
  -8  -1   7   32.72    6.25
  -8  -1   6   37.42    7.64
  -8  -1   6   29.08    5.64
  -8  -1   5  243.47   17.41
  -8  -1   4    0.39    3.96
  -8  -1   3  256.65   17.93
  -8  -1   2   -1.83    4.96
  -8  -1   1    2.29    4.75
  -8  -1   1   -4.63    4.39
  -8  -1   0   64.63    9.52
  -8  -1   0   86.24   10.22
  -8  -1  -1  552.30   26.20
  -8  -1  -1  547.13   26.57
  -8  -1  -2   20.46    5.51
  -8  -1  -2   21.58    6.44
  -8  -1  -3   -3.70    3.79
  -8  -1  -3   -0.99    3.78
  -8  -1  -4  124.96   12.87
  -8  -1  -4  102.34   11.66
  -8  -1  -5  339.65   22.16
  -8  -1  -5  348.24   20.97
  -8  -1  -6   16.51    5.42
  -8  -1  -6   18.15    6.39
  -8  -1  -7   21.64    6.56
  -8  -1  -8   17.30    6.69
  -8  -1  -9   90.58   12.66
  -8  -1 -10    0.47    5.64
   8   2 -17   -5.41    5.51
   8   2 -16   17.19    6.74
   8   2 -15   -3.01    4.47
   8   2 -14  181.27   17.29
   8   2 -13   -2.07    3.92
   8   2 -12  138.48   14.35
  -8  -2  12  175.17   15.10
  -8  -2  11    4.72    4.82
  -8  -2  10   51.41    8.33
  -8  -2   9   -3.12    3.57
  -8  -2   8  283.87   18.94
  -8  -2   7   19.63    6.13
  -8  -2   6   15.06    5.83
  -8  -2   5    6.51    4.09
  -8  -2   4  491.44   25.05
  -8  -2   3  273.82   18.80
  -8  -2   2    8.59    5.50
  -8  -2   1   63.46    9.47
  -8  -2   0  233.25   17.07
  -8  -2   0  192.82   15.98
  -8  -2  -1   22.44    5.98
  -8  -2  -1   26.78    6.78
  -8  -2  -2   66.48    9.63
  -8  -2  -2   88.76   11.00
  -8  -2  -3   -2.79    3.92
  -8  -2  -3   -3.80    5.00
  -8  -2  -4   34.09    7.58
  -8  -2  -4   23.95    7.01
  -8  -2  -5   19.49    6.33
  -8  -2  -5    4.87    4.58
  -8  -2  -6  157.47   15.93
  -8  -2  -6  158.93   14.28
  -8  -2  -7   -2.71    5.21
  -8  -2  -8   39.55    8.66
  -8  -2  -9    4.11    4.76
  -8  -2 -10  152.73   16.94
   8   3 -16   16.77    6.89
   8   3 -15   18.31    7.01
   8   3 -14   19.68    6.23
   8   3 -13   78.21   11.68
   8   3 -12    8.05    5.82
  -8  -3  12   15.75    5.40
  -8  -3  11   13.17    5.89
  -8  -3  10   10.54    5.32
  -8  -3   9  180.49   15.71
  -8  -3   8   -0.02    3.50
  -8  -3   7   39.41    7.46
  -8  -3   6   25.00    7.29
  -8  -3   5  332.27   21.22
  -8  -3   4   45.22    8.93
  -8  -3   3    7.91    4.30
  -8  -3   2   42.69    8.50
  -8  -3   1   64.05    9.66
  -8  -3   0   33.31    7.63
  -8  -3   0   35.32    7.53
  -8  -3  -1  250.57   18.40
  -8  -3  -1  200.03   16.42
  -8  -3  -2   10.74    5.00
  -8  -3  -2   35.08    8.06
  -8  -3  -3    3.91    6.26
  -8  -3  -3    3.01    4.44
  -8  -3  -4   54.97    9.45
  -8  -3  -4   48.74    9.09
  -8  -3  -5  183.66   16.94
  -8  -3  -5  183.57   15.95
  -8  -3  -6   13.86    5.79
  -8  -3  -6    5.27    4.36
  -8  -3  -7   19.49    7.70
  -8  -3  -8    8.08    5.68
  -8  -3  -9   18.70    7.41
   8   4 -16   17.51    7.36
   8   4 -15    2.48    4.37
   8   4 -14  152.52   17.01
   8   4 -13   15.80    6.99
   8   4 -12    2.63    3.89
  -8  -4  12    3.20    4.36
  -8  -4  11    3.85    4.06
  -8  -4  10   39.48    7.68
  -8  -4   9    5.48    5.35
  -8  -4   8  158.54   15.26
  -8  -4   7   16.99    6.47
  -8  -4   6  225.15   17.90
  -8  -4   5   20.43    7.02
  -8  -4   4   75.71   10.55
  -8  -4   3   90.62   11.49
  -8  -4   2   12.24    5.99
  -8  -4   1  153.04   14.80
  -8  -4   0   49.07    8.69
  -8  -4  -1   15.51    5.47
  -8  -4  -1   18.17    6.01
  -8  -4  -2   20.82    6.78
  -8  -4  -2   22.84    7.00
  -8  -4  -3   15.96    6.49
  -8  -4  -3    2.73    4.18
  -8  -4  -4  112.70   13.68
  -8  -4  -4  112.48   12.68
  -8  -4  -5   12.59    6.43
  -8  -4  -5   10.43    5.42
  -8  -4  -6   44.12    9.15
  -8  -4  -6   60.33    9.79
  -8  -4  -7   61.40   10.58
  -8  -4  -8   45.37    9.77
  -8  -4  -9   -1.06    5.47
   8   5 -15   71.34   12.65
   8   5 -14   -1.81    4.95
   8   5 -13   64.47   11.73
   8   5 -12   30.42    7.65
  -8  -5  12   14.54    5.42
  -8  -5  11    0.05    4.45
  -8  -5  10   49.85    9.39
  -8  -5   9   21.09    6.22
  -8  -5   8   25.71    7.04
  -8  -5   7  113.85   13.56
  -8  -5   6   71.66   11.16
  -8  -5   5   80.73   11.57
  -8  -5   4   17.81    6.35
  -8  -5   3  111.83   13.26
  -8  -5   2   14.65    5.06
  -8  -5   1   51.05    9.51
  -8  -5   0    7.57    5.23
  -8  -5  -1   83.14   11.95
  -8  -5  -2   30.18    7.19
  -8  -5  -2   41.54    8.26
  -8  -5  -3   99.57   13.02
  -8  -5  -3  134.33   14.33
  -8  -5  -4   31.93    8.08
  -8  -5  -4   34.34    8.16
  -8  -5  -5  103.96   12.47
  -8  -5  -5   94.30   13.10
  -8  -5  -6   71.19   11.57
  -8  -5  -7  239.12   21.23
  -8  -5  -8    9.61    6.69
   8   6 -13   16.48    7.34
   8   6 -12   49.31    9.95
  -8  -6  12   36.02    8.29
  -8  -6  11   29.45    8.16
  -8  -6  10   39.22    8.81
  -8  -6   9   11.46    5.70
  -8  -6   8   69.69   10.78
  -8  -6   7    8.05    5.48
  -8  -6   6   66.48   10.96
  -8  -6   5   10.93    6.14
  -8  -6   4  102.99   12.86
  -8  -6   3   82.76   11.66
  -8  -6   2  153.15   15.95
  -8  -6   1   33.77    8.21
  -8  -6   0   55.20   10.13
  -8  -6  -1  120.60   14.10
  -8  -6  -2   85.32   12.47
  -8  -6  -3   29.41    7.92
  -8  -6  -3   19.27    6.12
  -8  -6  -4   -6.55    5.09
  -8  -6  -4   -0.08    5.22
  -8  -6  -5    2.33    4.10
  -8  -6  -5    4.93    4.69
  -8  -6  -6   31.24    8.11
  -8  -6  -7   35.06    9.26
   8   7 -12   13.98    7.31
  -8  -7  12    1.02    4.55
  -8  -7  11   87.22   12.74
  -8  -7  10   -3.96    4.53
  -8  -7   9    4.82    4.16
  -8  -7   8   24.88    8.56
  -8  -7   7  208.92   19.17
  -8  -7   6    6.85    6.20
  -8  -7   5   13.33    5.96
  -8  -7   4   42.59    9.04
  -8  -7   3  258.31   21.00
  -8  -7   2   14.94    5.59
  -8  -7   1  106.53   13.78
  -8  -7   0   -7.74    6.56
  -8  -7  -1   22.18    7.74
  -8  -7  -2   38.96    9.27
  -8  -7  -3   45.92    9.41
  -8  -7  -4    8.57    5.49
  -8  -7  -4    3.28    5.67
  -8  -7  -5   14.73    6.84
  -8  -7  -5    4.48    5.23
  -8  -7  -6   17.55    7.38
  -8  -8  11   -7.58    4.97
  -8  -8  10   20.22    7.07
  -8  -8   9   13.33    7.01
  -8  -8   8  130.79   15.96
  -8  -8   7    3.53    4.76
  -8  -8   6   29.19    8.52
  -8  -8   5  -11.30    7.41
  -8  -8   4    8.11    5.76
  -8  -8   3   38.52    9.89
  -8  -8   2  209.89   19.84
  -8  -8   1   31.03    9.01
  -8  -8   0    4.32    5.41
  -8  -8  -1   17.15    7.26
  -8  -8  -2   40.38   10.02
  -8  -8  -3    4.15    4.66
  -8  -8  -4   29.04    8.55
  -8  -8  -5    6.28    5.86
  -8  -9   9   10.80    6.50
  -8  -9   8    7.18    6.23
  -8  -9   7   64.89   12.38
  -8  -9   6   12.48    7.36
  -8  -9   5   40.24   10.02
  -8  -9   4   -2.66    4.97
  -8  -9   3   73.68   12.66
  -8  -9   2   11.24    7.20
  -8  -9   1   39.12    9.97
  -8  -9   0   26.68    8.95
  -8  -9  -1   51.85   10.57
  -8  -9  -2   25.80    8.42
  -8  -9  -3   47.90   10.72
  -9  11   5   22.56    6.98
  -9  11   4  124.38   15.21
  -9  11   4   95.58   13.43
  -9  11   3    2.57    4.94
  -9  11   3   -2.52    3.86
  -9  11   2   11.18    6.31
  -9  10   8   -0.50    4.74
  -9  10   7    6.78    5.11
  -9  10   6    3.75    4.63
  -9  10   5  107.15   13.42
  -9  10   4   -3.84    3.88
  -9  10   4    0.76    3.96
  -9  10   3   23.50    7.10
  -9  10   3   24.67    7.57
  -9  10   2   20.62    7.40
  -9  10   1   55.33   10.80
  -9  10   0    4.15    6.31
  -9  10  -1   82.91   13.25
  -9   9  10  146.27   17.24
  -9   9   9    3.50    4.85
  -9   9   8   23.03    7.17
  -9   9   7   31.06    7.60
  -9   9   6  144.16   15.40
  -9   9   5   29.95    7.63
  -9   9   5   20.17    6.46
  -9   9   4   17.59    6.00
  -9   9   4   -4.62    5.33
  -9   9   3   25.93    6.71
  -9   9   3   42.35    9.34
  -9   9   2   48.36   10.01
  -9   9   1   24.48    7.21
  -9   9   0   16.53    6.78
  -9   9  -1   20.03    7.30
  -9   9  -2   47.08   10.95
  -9   9  -3   17.29    8.10
  -9   8  12   67.56   12.54
  -9   8  11  139.63   16.99
  -9   8  10    5.66    5.28
  -9   8   9  118.21   14.81
  -9   8   8   60.63   10.70
  -9   8   7   88.97   12.42
  -9   8   6   36.65    7.86
  -9   8   6   29.59    7.57
  -9   8   5   88.53   11.51
  -9   8   5   89.62   11.84
  -9   8   4   55.49    9.24
  -9   8   4   46.31    9.30
  -9   8   3   62.81   10.28
  -9   8   2   46.55    9.37
  -9   8   1   35.64    9.37
  -9   8   0    4.19    5.65
  -9   8  -1   90.28   13.64
  -9   8  -2   46.72    9.63
  -9   8  -3   93.19   13.98
  -9   8  -4   85.18   13.32
  -9   8  -5   36.01    9.76
  -9   7  13   19.70    8.87
  -9   7  12   58.85   11.43
  -9   7  11    2.46    5.70
  -9   7  10   74.60   11.92
  -9   7   9   15.09    6.25
  -9   7   8    6.97    4.94
  -9   7   7   -5.18    5.35
  -9   7   6  166.55   15.48
  -9   7   6  170.46   15.40
  -9   7   5   -1.45    3.56
  -9   7   5    5.11    5.47
  -9   7   4   -1.26    3.43
  -9   7   4   10.10    5.60
  -9   7   3    3.23    4.38
  -9   7   2  209.63   18.20
  -9   7   1   35.00    8.68
  -9   7   0    2.30    5.07
  -9   7  -1   10.10    6.10
  -9   7  -2  151.50   16.69
  -9   7  -3    1.47    4.86
  -9   7  -4   47.15   10.01
  -9   7  -5   -0.23    5.35
  -9   7  -6    3.85    5.53
  -9   6  14    6.63    7.06
  -9   6  13   11.09    7.78
  -9   6  12   16.68    7.30
  -9   6  11   55.50   10.07
  -9   6  10   19.20    6.75
  -9   6   9    3.59    5.28
  -9   6   8   11.36    5.67
  -9   6   7   62.29   10.07
  -9   6   7   75.95   10.46
  -9   6   6    3.92    3.77
  -9   6   6    8.87    4.80
  -9   6   5    9.73    4.58
  -9   6   5    6.76    4.97
  -9   6   4    4.60    3.65
  -9   6   4    4.91    5.25
  -9   6   3  336.35   22.27
  -9   6   2   26.59    7.24
  -9   6   1   22.36    6.84
  -9   6   0   -1.43    4.58
  -9   6  -1   71.59   11.13
  -9   6  -2   32.44    8.87
  -9   6  -3  197.56   19.14
  -9   6  -4   -1.50    5.22
  -9   6  -5    9.66    6.50
  -9   6  -6   63.45   12.37
  -9   6  -7  336.01   26.32
  -9   5  14   23.57    8.85
  -9   5  13   -1.47    4.98
  -9   5  12  239.21   21.05
  -9   5  12  259.29   20.45
  -9   5  11   11.28    6.97
  -9   5  10  171.57   17.10
  -9   5   9   14.96    5.91
  -9   5   8  201.75   17.03
  -9   5   7   20.48    6.21
  -9   5   7   14.06    5.54
  -9   5   6  154.35   13.79
  -9   5   6  143.04   14.01
  -9   5   5   18.23    5.74
  -9   5   5   25.87    6.10
  -9   5   4   51.87    9.25
  -9   5   3   32.33    7.88
  -9   5   2  259.25   19.62
  -9   5   1    9.07    5.63
  -9   5   0    5.16    5.57
  -9   5  -1   11.56    6.53
  -9   5  -2  115.48   14.38
  -9   5  -3    9.52    6.26
  -9   5  -4   11.31    6.60
  -9   5  -5    8.46    6.44
  -9   5  -5   -1.47    4.95
  -9   5  -6   87.90   13.19
  -9   5  -7    1.11    5.53
  -9   5  -8  106.37   15.10
  -9   4  15   -1.77    4.67
  -9   4  14   -0.91    5.43
  -9   4  13   32.31    8.51
  -9   4  12   27.82    7.50
  -9   4  12   56.84   10.89
  -9   4  11   69.21   10.69
  -9   4  11   88.86   12.83
  -9   4  10   23.08    7.44
  -9   4  10   10.65    5.65
  -9   4   9  143.74   14.56
  -9   4   8    3.74    3.64
  -9   4   7  227.94   17.07
  -9   4   6   19.75    5.84
  -9   4   5   -1.32    3.78
  -9   4   5    7.70    3.90
  -9   4   4   31.02    7.60
  -9   4   3  123.04   13.53
  -9   4   2    9.85    6.23
  -9   4   1   30.76    7.82
  -9   4   0   28.69    7.77
  -9   4  -1  100.42   13.36
  -9   4  -2   -1.10    3.32
  -9   4  -2    8.20    5.69
  -9   4  -3   66.09   11.07
  -9   4  -3   76.10   11.58
  -9   4  -3   65.15    9.17
  -9   4  -4   28.84    8.08
  -9   4  -4   20.67    7.56
  -9   4  -4   22.57    6.38
  -9   4  -5   15.88    7.10
  -9   4  -5   32.84    8.46
  -9   4  -5   26.01    6.60
  -9   4  -6   29.01    8.89
  -9   4  -6   35.57    7.60
  -9   4  -7  318.31   21.82
  -9   4  -7  254.84   22.68
  -9   4  -8   44.84   10.73
  -9   4  -8   27.92    8.16
  -9   4  -9    7.01    7.21
  -9   4  -9    3.45    4.34
  -9   3  15   39.58   10.27
  -9   3  14   44.08   10.10
  -9   3  13    7.85    5.95
  -9   3  12   36.53    8.55
  -9   3  12   32.12    8.84
  -9   3  11    1.12    4.75
  -9   3  11   16.81    6.54
  -9   3  10   32.99    8.00
  -9   3  10   39.29    8.45
  -9   3   9   18.58    7.26
  -9   3   9   11.01    5.38
  -9   3   8  239.98   17.67
  -9   3   8  256.80   19.61
  -9   3   7   48.02    9.35
  -9   3   7   57.00    8.56
  -9   3   6   57.10    9.67
  -9   3   6   56.72    8.23
  -9   3   5    2.30    4.38
  -9   3   4   46.73    9.03
  -9   3   3   26.26    7.05
  -9   3   3   47.14    9.64
  -9   3   2  147.32   15.22
  -9   3   2  138.95   14.61
  -9   3   1   43.02    8.82
  -9   3   1   69.35   11.20
  -9   3   0   23.19    7.18
  -9   3   0   42.03    9.17
  -9   3   0   37.52    7.04
  -9   3  -1   20.24    6.99
  -9   3  -1   20.37    6.56
  -9   3  -1    8.16    4.38
  -9   3  -2  141.57   12.88
  -9   3  -2  132.50   14.46
  -9   3  -2  123.30   14.95
  -9   3  -3   58.29   10.85
  -9   3  -3   64.17   10.86
  -9   3  -3   65.87    9.58
  -9   3  -4   -0.68    6.19
  -9   3  -4   12.15    5.45
  -9   3  -4   22.99    6.43
  -9   3  -5   76.05   12.17
  -9   3  -5   90.83   12.04
  -9   3  -5   80.37   11.26
  -9   3  -6  152.48   14.97
  -9   3  -6  152.04   17.16
  -9   3  -7   28.31    7.21
  -9   3  -7   40.77    8.59
  -9   3  -8   12.19    5.82
  -9   3  -8   26.76    8.03
  -9   3  -9    3.83    4.39
  -9   2  16   29.87   10.23
  -9   2  15  108.86   15.09
  -9   2  14   -1.66    4.59
  -9   2  13   48.04   10.24
  -9   2  12   27.70    7.41
  -9   2  12   31.75    9.18
  -9   2  11   44.89    8.28
  -9   2  11   44.41    9.36
  -9   2  10    0.31    4.20
  -9   2  10   -5.35    4.14
  -9   2   9  148.87   14.58
  -9   2   9  152.07   14.90
  -9   2   8    3.54    4.47
  -9   2   8   14.60    6.29
  -9   2   7   81.18   11.36
  -9   2   7   79.20    9.97
  -9   2   6   50.56    9.00
  -9   2   6   68.76    8.75
  -9   2   5   80.84   11.51
  -9   2   4   30.02    7.97
  -9   2   3  265.20   19.90
  -9   2   2   19.61    6.75
  -9   2   1   56.39   10.12
  -9   2   0   -3.78    4.92
  -9   2   0   -2.44    3.98
  -9   2  -1  200.60   15.41
  -9   2  -1  227.44   18.30
  -9   2  -2    1.07    4.47
  -9   2  -2   -1.92    3.36
  -9   2  -3   27.58    6.70
  -9   2  -3   15.89    6.26
  -9   2  -4   -0.17    4.62
  -9   2  -4    1.05    3.58
  -9   2  -5  156.68   15.14
  -9   2  -5  143.19   14.43
  -9   2  -6    0.81    3.72
  -9   2  -7  112.45   13.74
  -9   2  -8   78.03   11.55
  -9   2  -9  106.07   13.88
  -9   1  16   32.60    9.62
  -9   1  15    0.99    5.16
  -9   1  14   46.33   10.58
  -9   1  13   14.45    6.83
  -9   1  12    6.78    5.32
  -9   1  12   12.21    7.14
  -9   1  11    9.79    5.10
  -9   1  11   19.11    7.42
  -9   1  10  275.11   19.80
  -9   1  10  279.17   19.66
  -9   1   9   15.54    5.85
  -9   1   9   26.08    7.74
  -9   1   8   61.52    9.64
  -9   1   8   74.21    9.57
  -9   1   7   29.00    7.28
  -9   1   7   24.96    5.96
  -9   1   6  168.66   15.63
  -9   1   5    2.70    4.61
  -9   1   4  208.10   17.15
  -9   1   3   18.44    6.78
  -9   1   2   30.04    7.64
  -9   1   1   22.64    6.67
  -9   1   0   94.11   11.74
  -9   1   0  104.13   11.22
  -9   1  -1  171.36   14.65
  -9   1  -1  164.90   15.57
  -9   1  -2   10.95    6.04
  -9   1  -2    0.36    3.38
  -9   1  -3   30.72    7.47
  -9   1  -3   27.33    7.68
  -9   1  -4   53.57    8.98
  -9   1  -4   52.97    9.18
  -9   1  -5  148.29   15.04
  -9   1  -5  169.55   15.48
  -9   1  -6   -1.63    4.91
  -9   1  -7   28.07    7.41
  -9   1  -8   98.70   13.24
  -9   1  -9   18.83    6.82
  -9   0  16   19.51    7.38
  -9   0  15   41.29   10.28
   9   0 -14   39.97    8.33
  -9   0  14   53.01   10.43
   9   0 -13   25.26    6.67
  -9   0  13   46.35   10.13
   9   0 -12   -5.55    4.61
  -9   0  12    7.43    4.80
  -9   0  12    2.73    5.19
  -9   0  11   54.68    9.18
  -9   0  11   85.36   11.77
  -9   0  10    7.52    4.51
  -9   0  10   10.64    5.18
  -9   0   9   43.69    8.22
  -9   0   9   47.81    8.28
  -9   0   8   -3.84    5.28
  -9   0   8   -1.73    3.61
  -9   0   7   48.49    8.99
  -9   0   7   35.86    6.38
  -9   0   6    3.07    3.97
  -9   0   5  261.92   19.27
  -9   0   4   38.91    7.96
  -9   0   3    6.73    4.83
  -9   0   2   37.55    8.01
  -9   0   1  156.17   14.83
  -9   0   0   89.71   11.66
  -9   0   0   83.39   10.59
  -9   0  -1   10.90    5.54
  -9   0  -1   16.55    6.11
  -9   0  -2   45.72    8.78
  -9   0  -2   34.22    7.77
  -9   0  -3  137.31   14.10
  -9   0  -3  135.32   13.98
  -9   0  -4   10.88    5.46
  -9   0  -4    6.16    4.80
  -9   0  -5   45.99    8.37
  -9   0  -5   40.46    8.60
  -9   0  -6   53.66    9.82
  -9   0  -7   23.73    6.00
  -9   0  -8   22.61    7.74
  -9   0  -9  113.49   14.89
   9   1 -16   34.63    8.67
   9   1 -15    0.21    4.05
   9   1 -14   68.62   10.69
   9   1 -13   12.61    6.32
  -9  -1  12   19.79    5.74
  -9  -1  11    8.48    4.98
  -9  -1  10  230.14   18.00
  -9  -1   9   34.40    7.30
  -9  -1   8   22.15    6.29
  -9  -1   7   -0.70    4.54
  -9  -1   6  174.29   15.46
  -9  -1   5    6.23    4.22
  -9  -1   4  189.17   16.60
  -9  -1   3   53.96    9.28
  -9  -1   2   72.19   10.85
  -9  -1   1  -10.33    6.39
  -9  -1   0  324.40   21.14
  -9  -1   0  323.67   21.61
  -9  -1  -1    0.98    4.40
  -9  -1  -1    3.25    4.71
  -9  -1  -2    7.11    4.99
  -9  -1  -2    5.18    4.36
  -9  -1  -3    5.86    5.57
  -9  -1  -3    7.93    5.33
  -9  -1  -4  336.02   22.68
  -9  -1  -4  327.92   21.91
  -9  -1  -5   14.95    5.73
  -9  -1  -5    4.43    5.43
  -9  -1  -6   -1.15    4.72
  -9  -1  -7   32.73    8.55
  -9  -1  -8  140.26   16.16
   9   2 -16    1.97    4.41
   9   2 -15  112.26   14.38
   9   2 -14    7.70    4.47
   9   2 -13    7.12    5.39
  -9  -2  12    3.82    4.02
  -9  -2  11  329.87   21.92
  -9  -2  10   -2.83    4.50
  -9  -2   9   36.78    7.72
  -9  -2   8    1.40    4.57
  -9  -2   7   72.95   11.23
  -9  -2   6   -5.24    5.79
  -9  -2   5  117.73   13.41
  -9  -2   4    5.29    5.03
  -9  -2   3   -4.30    5.59
  -9  -2   2    4.84    4.20
  -9  -2   1  371.16   23.51
  -9  -2   0   13.98    5.63
  -9  -2   0    9.97    5.23
  -9  -2  -1   10.21    6.10
  -9  -2  -1    5.14    5.15
  -9  -2  -2   29.32    7.48
  -9  -2  -2   26.87    6.91
  -9  -2  -3  150.50   15.44
  -9  -2  -3  132.84   14.25
  -9  -2  -4   13.07    5.90
  -9  -2  -4   10.69    6.07
  -9  -2  -5   12.83    5.76
  -9  -2  -5    9.34    5.06
  -9  -2  -6   26.56    8.23
  -9  -2  -7    9.25    5.73
  -9  -2  -8   14.81    7.16
   9   3 -15   -2.40    5.03
   9   3 -14   65.52   11.70
   9   3 -13    8.50    5.43
  -9  -3  12   48.89    9.47
  -9  -3  11   41.05    8.58
  -9  -3  10  131.29   14.17
  -9  -3   9   19.03    6.73
  -9  -3   8   27.24    7.01
  -9  -3   7    2.60    5.43
  -9  -3   6  193.64   17.43
  -9  -3   5   47.52    8.98
  -9  -3   4   67.69   10.73
  -9  -3   3    9.16    5.51
  -9  -3   2  132.96   14.34
  -9  -3   1    2.29    4.79
  -9  -3   0   36.70    8.86
  -9  -3  -1   18.17    6.31
  -9  -3  -1   13.65    5.79
  -9  -3  -2   45.03    8.98
  -9  -3  -2   60.08   10.38
  -9  -3  -3   65.87   11.00
  -9  -3  -3   36.61    8.00
  -9  -3  -4   16.28    5.55
  -9  -3  -4   22.73    6.55
  -9  -3  -5    6.68    4.71
  -9  -3  -5    9.38    6.56
  -9  -3  -6    3.44    4.96
  -9  -3  -7   35.73    8.81
   9   4 -14   62.53   11.47
   9   4 -13    8.85    5.74
  -9  -4  12    5.39    4.72
  -9  -4  11   92.57   12.76
  -9  -4  10   -5.86    5.39
  -9  -4   9   14.55    5.97
  -9  -4   8   26.60    7.48
  -9  -4   7   39.36    8.61
  -9  -4   6    9.01    4.85
  -9  -4   5   96.20   12.86
  -9  -4   4   -0.08    4.27
  -9  -4   3   40.28    8.69
  -9  -4   2   35.11    8.39
  -9  -4   1   58.48    9.78
  -9  -4   0   69.62   10.87
  -9  -4  -1   32.22    8.35
  -9  -4  -2   23.82    7.70
  -9  -4  -2   16.46    5.70
  -9  -4  -3  104.84   13.21
  -9  -4  -3  111.68   14.21
  -9  -4  -4   29.92    8.89
  -9  -4  -4   21.85    7.23
  -9  -4  -5   43.78    9.10
  -9  -4  -5   29.59    8.05
  -9  -4  -6   -0.43    5.81
   9   5 -13    8.33    5.50
  -9  -5  12   42.40    9.10
  -9  -5  11    9.98    6.12
  -9  -5  10   15.70    6.27
  -9  -5   9    7.83    4.88
  -9  -5   8   40.05    9.17
  -9  -5   7   38.48    9.00
  -9  -5   6   66.83   10.85
  -9  -5   5   69.43   11.49
  -9  -5   4  179.26   17.82
  -9  -5   3   57.51   10.05
  -9  -5   2   17.88    6.96
  -9  -5   1    5.62    4.70
  -9  -5   0  111.98   14.19
  -9  -5  -1   -1.43    4.13
  -9  -5  -2   68.69   11.40
  -9  -5  -3   11.42    5.95
  -9  -5  -3    2.24    4.64
  -9  -5  -4   19.66    7.19
  -9  -5  -4   13.46    5.74
  -9  -5  -5   10.94    6.01
  -9  -5  -5    4.11    5.02
  -9  -6  12   12.00    6.11
  -9  -6  11   55.76   10.68
  -9  -6  10   39.68    9.18
  -9  -6   9   80.26   12.25
  -9  -6   8   17.88    7.03
  -9  -6   7   96.57   13.39
  -9  -6   6   23.02    7.62
  -9  -6   5   89.09   13.18
  -9  -6   4    3.42    4.94
  -9  -6   3   64.35   11.02
  -9  -6   2   -0.13    4.64
  -9  -6   1   63.13   11.34
  -9  -6   0   26.10    7.96
  -9  -6  -1   68.32   11.48
  -9  -6  -2   -1.86    4.53
  -9  -6  -3    9.04    5.04
  -9  -6  -4   13.22    6.51
  -9  -6  -4   12.33    6.11
  -9  -6  -5   14.41    6.29
  -9  -7  12   12.87    6.11
  -9  -7  11   19.07    8.21
  -9  -7  10   17.75    7.69
  -9  -7   9    1.59    4.77
  -9  -7   8  173.84   18.27
  -9  -7   7    4.91    5.29
  -9  -7   6    7.78    6.06
  -9  -7   5   21.12    8.34
  -9  -7   4  227.24   20.92
  -9  -7   3   14.93    7.33
  -9  -7   2   -8.30    5.96
  -9  -7   1   24.68    7.92
  -9  -7   0  225.51   20.86
  -9  -7  -1   21.93    7.77
  -9  -7  -2   14.25    7.25
  -9  -7  -3   11.84    6.21
  -9  -7  -4   11.98    6.71
  -9  -8   8   25.73    9.22
  -9  -8   7    6.46    5.94
  -9  -8   6    6.39    6.20
  -9  -8   5   24.08    8.43
  -9  -8   4    9.75    6.65
  -9  -8   3    6.44    6.26
  -9  -8   2    2.28    4.96
  -9  -8   1   24.01    7.95
  -9  -8   0   -2.82    4.65
 -10  10   4   25.58    7.97
 -10   9   9   18.64    8.53
 -10   9   8    5.56    6.35
 -10   9   7   85.71   12.97
 -10   9   5   29.08    7.70
 -10   9   4   -6.41    5.30
 -10   9   3   46.15    9.76
 -10   9   2   32.53    8.79
 -10   9   1   17.67    7.84
 -10   8  10   52.47   10.69
 -10   8   9   39.44    9.44
 -10   8   8  142.91   15.96
 -10   8   7    9.96    5.71
 -10   8   5   25.50    8.06
 -10   8   4  183.21   17.90
 -10   8   3   47.37   10.16
 -10   8   2   31.77    8.34
 -10   8   1    1.43    5.52
 -10   8   0   14.48    8.08
 -10   8  -1   -1.33    4.85
 -10   7  12   22.19    8.44
 -10   7  11   10.92    6.54
 -10   7  10   39.60    9.33
 -10   7   9   35.05    9.17
 -10   7   8    3.60    5.29
 -10   7   7   -4.14    4.95
 -10   7   6   24.77    7.06
 -10   7   5   93.65   12.75
 -10   7   4   -0.96    4.14
 -10   7   3  127.07   15.25
 -10   7   2   51.35   10.41
 -10   7   1    1.96    5.13
 -10   7   0    4.77    4.82
 -10   7  -1   52.96   10.63
 -10   7  -2   15.90    7.02
 -10   7  -3    3.81    5.24
 -10   6  13   20.06    8.45
 -10   6  12   71.43   12.91
 -10   6  12   78.82   12.35
 -10   6  11   22.03    7.86
 -10   6  10   19.45    7.36
 -10   6   9   31.12    8.60
 -10   6   8  105.30   13.19
 -10   6   7    1.67    3.91
 -10   6   6    4.81    5.85
 -10   6   5   14.05    6.61
 -10   6   4  203.78   18.65
 -10   6   3    3.00    4.46
 -10   6   2   34.10    8.93
 -10   6   1    2.33    6.75
 -10   6   0   70.96   11.93
 -10   6  -1   -8.75    6.69
 -10   6  -2   48.76   10.69
 -10   6  -3   -0.22    4.69
 -10   6  -4   30.16    9.20
 -10   6  -5   10.50    6.26
 -10   5  13  113.61   15.62
 -10   5  12    2.06    5.05
 -10   5  12   16.84    8.31
 -10   5  11   10.12    6.57
 -10   5  11    3.88    5.51
 -10   5  10   67.99   11.22
 -10   5  10   63.62   11.25
 -10   5   9  284.07   21.41
 -10   5   8   32.00    7.47
 -10   5   5   72.29   11.39
 -10   5   4    5.91    5.18
 -10   5   3   41.07    9.16
 -10   5   2    3.74    5.64
 -10   5   1   13.17    7.35
 -10   5   0    5.04    5.19
 -10   5  -1  104.12   14.38
 -10   5  -2    1.85    5.62
 -10   5  -2   15.14    7.14
 -10   5  -3    6.47    6.05
 -10   5  -3   -0.62    4.65
 -10   5  -4   -3.51    5.62
 -10   5  -4   23.00    8.13
 -10   5  -5  234.68   20.77
 -10   5  -5  219.66   21.78
 -10   4  14   55.47   11.59
 -10   4  13    4.04    5.59
 -10   4  12   22.84    7.67
 -10   4  12   12.75    6.58
 -10   4  11    8.28    5.66
 -10   4  11   25.25    8.43
 -10   4  10  162.72   16.43
 -10   4  10  173.80   17.56
 -10   4   9   45.03   10.07
 -10   4   9   64.41   11.01
 -10   4   8  222.87   18.10
 -10   4   8  187.71   18.05
 -10   4   7   89.08   12.68
 -10   4   6  103.24   14.06
 -10   4   5    2.92    4.64
 -10   4   4  245.09   20.84
 -10   4   3    5.44    4.59
 -10   4   3   16.00    7.76
 -10   4   2   31.11    8.60
 -10   4   2   34.59    9.28
 -10   4   1   14.15    7.33
 -10   4   1    4.49    5.94
 -10   4   0  104.38   14.33
 -10   4   0  114.12   15.12
 -10   4  -1   16.27    6.85
 -10   4  -1   19.21    7.45
 -10   4  -2   71.49   12.23
 -10   4  -2   57.40   10.99
 -10   4  -3   17.59    8.02
 -10   4  -3    6.46    5.52
 -10   4  -4   37.24    9.47
 -10   4  -4   30.74    8.13
 -10   4  -5    7.17    6.89
 -10   4  -5   11.61    5.83
 -10   4  -6   75.81   13.10
 -10   3  14   14.77    7.27
 -10   3  13   21.72    7.90
 -10   3  12   73.40   10.66
 -10   3  12   69.58   11.90
 -10   3  11   80.80   11.99
 -10   3  11   65.42   11.34
 -10   3  10   26.34    8.08
 -10   3  10   28.00    7.60
 -10   3   9   97.87   13.31
 -10   3   9  108.40   13.14
 -10   3   8   38.68    9.46
 -10   3   7   23.17    7.71
 -10   3   6   24.37    7.91
 -10   3   5  312.06   23.01
 -10   3   4   11.82    6.67
 -10   3   3   24.19    7.93
 -10   3   2   12.61    6.72
 -10   3   1   70.51   11.67
 -10   3   0    0.76    4.88
 -10   3   0    7.48    4.79
 -10   3  -1   59.86   11.37
 -10   3  -1   99.53   11.68
 -10   3  -2    6.99    5.16
 -10   3  -2    7.39    5.48
 -10   3  -3    7.68    6.40
 -10   3  -3   10.62    4.48
 -10   3  -4   53.21   10.09
 -10   3  -4   46.90    8.87
 -10   3  -5  142.97   14.94
 -10   3  -5  153.14   16.10
 -10   3  -6   39.47    8.44
 -10   3  -7   11.28    5.91
 -10   2  15   56.00   11.88
 -10   2  14  156.71   17.82
 -10   2  13   69.85   12.22
 -10   2  12   96.59   12.79
 -10   2  12   81.39   12.78
 -10   2  11   -0.39    4.92
 -10   2  11    9.98    6.41
 -10   2  10   67.13   10.69
 -10   2  10   56.79    9.98
 -10   2   9    3.95    5.34
 -10   2   9   15.60    6.19
 -10   2   8   19.62    7.02
 -10   2   7   -0.73    4.39
 -10   2   6   48.37    9.44
 -10   2   5   35.86    8.02
 -10   2   4   65.24   10.58
 -10   2   3   49.98   10.37
 -10   2   2   58.33   10.67
 -10   2   1   45.49    9.03
 -10   2   0   12.97    6.36
 -10   2   0   18.56    6.44
 -10   2  -1   24.68    7.41
 -10   2  -1   48.00    8.55
 -10   2  -2   39.20    8.43
 -10   2  -2   53.39    9.03
 -10   2  -3   33.63    8.36
 -10   2  -3   25.02    6.38
 -10   2  -4   28.00    7.51
 -10   2  -4   36.10    8.54
 -10   2  -5   12.60    5.92
 -10   2  -5   12.25    6.33
 -10   2  -6   38.73    8.70
 -10   2  -7   28.81    8.20
 -10   1  15  119.76   16.12
 -10   1  14   -0.49    5.21
 -10   1  13    0.46    5.08
 -10   1  12    2.22    4.42
 -10   1  12   -1.21    4.50
 -10   1  11   42.52    8.66
 -10   1  11   57.53   10.69
 -10   1  10    4.02    4.69
 -10   1  10    7.94    5.73
 -10   1   9    2.55    4.42
 -10   1   8    8.85    4.81
 -10   1   7   45.70    8.93
 -10   1   6  100.06   13.13
 -10   1   5   81.93   11.73
 -10   1   4    6.55    5.81
 -10   1   3   85.77   11.67
 -10   1   2   65.67   11.07
 -10   1   1   65.65   10.61
 -10   1   0   11.53    6.18
 -10   1   0    0.43    4.03
 -10   1  -1    8.27    6.44
 -10   1  -1   18.58    6.99
 -10   1  -2    8.29    4.89
 -10   1  -2    3.10    4.22
 -10   1  -3   21.50    7.01
 -10   1  -3   30.77    8.05
 -10   1  -4   58.74   10.19
 -10   1  -4   47.67    9.45
 -10   1  -5   66.17   10.79
 -10   1  -5   60.05   10.14
 -10   1  -6   45.86    9.53
 -10   1  -7   13.42    6.61
 -10   0  15   -3.12    5.63
 -10   0  14   10.67    6.16
 -10   0  13   -1.60    4.69
 -10   0  12    2.23    4.32
 -10   0  12    9.88    5.50
 -10   0  11   15.95    5.98
 -10   0  11   14.70    6.40
 -10   0  10    8.19    4.51
 -10   0  10   13.65    5.36
 -10   0   9   12.21    6.21
 -10   0   8   55.08    9.86
 -10   0   7    1.22    4.01
 -10   0   6  172.44   16.85
 -10   0   5    0.75    5.11
 -10   0   4  170.00   16.52
 -10   0   3   62.26   10.23
 -10   0   2  772.55   36.01
 -10   0   1    5.02    5.39
 -10   0   0   -1.35    4.51
 -10   0  -1   89.12   12.25
 -10   0  -1   79.30   11.04
 -10   0  -2  219.62   18.44
 -10   0  -2  192.13   17.96
 -10   0  -3    9.33    5.59
 -10   0  -3    7.92    5.16
 -10   0  -4   45.28    9.21
 -10   0  -4   38.55    8.75
 -10   0  -5   22.04    7.29
 -10   0  -5   29.91    8.19
 -10   0  -6   81.65   12.70
  10   1 -14   15.13    6.77
  10   1 -13   17.78    6.57
 -10  -1  12   15.16    5.80
 -10  -1  11  121.10   14.21
 -10  -1  10   -3.51    5.28
 -10  -1   9   19.03    6.53
 -10  -1   8    2.55    4.47
 -10  -1   7   89.51   12.12
 -10  -1   6   -9.13    5.79
 -10  -1   5    4.18    4.37
 -10  -1   4    2.12    4.62
 -10  -1   3  270.89   20.95
 -10  -1   2   -9.42    6.31
 -10  -1   1   12.54    5.63
 -10  -1   0   28.58    7.31
 -10  -1  -1    1.17    4.48
 -10  -1  -1   17.52    6.30
 -10  -1  -2   18.26    6.96
 -10  -1  -2   32.32    8.25
 -10  -1  -3   38.70    9.11
 -10  -1  -3   46.64    9.46
 -10  -1  -4    1.91    4.13
 -10  -1  -4   31.51    7.98
 -10  -1  -5    8.11    5.79
 -10  -1  -5    1.27    4.66
 -10  -1  -6    4.70    5.41
  10   2 -15    5.38    4.19
  10   2 -14   13.68    5.84
  10   2 -13    6.70    5.66
 -10  -2  12  198.08   18.00
 -10  -2  11   15.05    6.41
 -10  -2  10  180.91   17.31
 -10  -2   9   -3.81    4.40
 -10  -2   8  171.20   17.40
 -10  -2   7   15.16    6.76
 -10  -2   6   11.31    6.20
 -10  -2   5   -1.05    5.25
 -10  -2   4   28.45    7.74
 -10  -2   3    3.13    5.80
 -10  -2   2  121.86   14.96
 -10  -2   1   23.45    7.27
 -10  -2   0    5.65    4.80
 -10  -2  -1    9.56    6.24
 -10  -2  -1    8.15    5.36
 -10  -2  -2  222.01   19.50
 -10  -2  -2  218.78   19.23
 -10  -2  -3   -2.21    4.00
 -10  -2  -3   -0.98    4.82
 -10  -2  -4    6.68    5.41
 -10  -2  -4   -5.61    5.20
 -10  -2  -5   17.54    8.25
  10   3 -14   -1.14    4.38
  10   3 -13   61.61   11.33
 -10  -3  12    7.40    5.56
 -10  -3  11  160.83   16.78
 -10  -3  10    4.82    4.78
 -10  -3   9   32.88    8.80
 -10  -3   8   36.30    8.74
 -10  -3   7   90.96   13.13
 -10  -3   6   30.11    7.73
 -10  -3   5    8.36    5.19
 -10  -3   4   13.72    6.30
 -10  -3   3  198.79   18.75
 -10  -3   2   34.00    8.88
 -10  -3   1   19.50    7.06
 -10  -3   0   -5.66    5.50
 -10  -3  -1  142.67   16.10
 -10  -3  -2    4.87    5.04
 -10  -3  -2   -7.16    5.93
 -10  -3  -3   46.95   10.47
 -10  -3  -3   30.05    7.73
 -10  -3  -4   -0.74    3.78
 -10  -3  -4   13.61    7.31
 -10  -3  -5   57.86   11.77
 -10  -4  12   51.00    9.92
 -10  -4  11   24.57    8.10
 -10  -4  10    9.16    5.97
 -10  -4   9   30.29    8.04
 -10  -4   8   12.35    6.68
 -10  -4   7    7.22    4.86
 -10  -4   6    5.66    6.09
 -10  -4   5    6.97    5.32
 -10  -4   4  122.14   14.85
 -10  -4   3   -1.89    4.95
 -10  -4   2  101.12   14.49
 -10  -4   1   17.30    7.08
 -10  -4   0   62.71   11.99
 -10  -4  -1   18.85    7.05
 -10  -4  -2  106.45   13.95
 -10  -4  -3   14.24    7.02
 -10  -4  -3   30.08    8.77
 -10  -4  -4   45.12   10.62
 -10  -4  -4   42.59    9.06
 -10  -5  12   46.48   10.26
 -10  -5  11   38.77    9.67
 -10  -5  10    1.60    5.20
 -10  -5   9   35.62    8.67
 -10  -5   8   14.38    7.65
 -10  -5   7    0.43    5.05
 -10  -5   6   24.42    8.42
 -10  -5   5   30.87    8.30
 -10  -5   4   39.37    9.35
 -10  -5   3  106.06   14.21
 -10  -5   2   23.08    8.35
 -10  -5   1   19.07    7.16
 -10  -5   0   37.73    9.51
 -10  -5  -1   24.01    7.59
 -10  -5  -2   25.21    7.79
 -10  -5  -3   24.63    7.78
 -10  -5  -4   14.78    6.33
 -10  -6  10  113.63   15.20
 -10  -6   9    8.37    5.48
 -10  -6   8   24.33    8.58
 -10  -6   7   43.01   10.51
 -10  -6   6   96.07   14.65
 -10  -6   5    5.60    5.93
 -10  -6   4  121.04   15.77
 -10  -6   3   -4.76    5.51
 -10  -6   2   93.67   14.58
 -10  -6   1   10.20    6.05
 -10  -6   0   49.78   10.12
 -10  -6  -1    8.03    6.64
 -10  -6  -2   32.17    8.66
 -11   8   5  116.65   15.29
 -11   8   4   36.02    9.39
 -11   8   3    9.31    6.71
 -11   7   5    6.47    4.91
 -11   7   4   30.14    8.95
 -11   7   3    5.59    5.89
 -11   7   2  108.69   15.27
 -11   7   1   18.22    8.45
 -11   6  11   25.84    9.02
 -11   6  11   16.86    8.01
 -11   6  10   22.72    8.89
 -11   6   9   40.67   10.40
 -11   6   5   70.76   12.27
 -11   6   4   13.31    6.75
 -11   6   3   19.50    7.99
 -11   6   2    4.73    6.14
 -11   6   1  150.64   18.28
 -11   6   0   11.76    7.65
 -11   6  -1   43.48   10.68
 -11   6  -1   17.07    7.59
 -11   6  -2    1.89    5.42
 -11   6  -3   37.41   10.21
 -11   5  12    2.34    4.98
 -11   5  12   -0.58    4.94
 -11   5  11    6.14    5.10
 -11   5  11   39.55    9.87
 -11   5  10   88.31   13.55
 -11   5   9   38.02    9.50
 -11   5   8    4.88    5.53
 -11   5   7   -1.24    5.84
 -11   5   6  347.49   26.18
 -11   5   5   28.08    9.42
 -11   5   4   18.27    8.96
 -11   5   3    6.24    5.25
 -11   5   3   22.62    8.67
 -11   5   2   76.28   13.23
 -11   5   2   61.04   11.70
 -11   5   1   14.25    7.66
 -11   5   1   23.24    8.36
 -11   5   0   93.88   14.67
 -11   5   0   80.40   13.46
 -11   5  -1   12.29    8.09
 -11   5  -1    5.18    6.36
 -11   5  -2   10.83    7.73
 -11   5  -2   13.15    6.76
 -11   5  -3    4.68    6.94
 -11   5  -4  132.39   16.37
 -11   4  13   21.31    8.93
 -11   4  12    9.32    5.54
 -11   4  12   13.09    6.88
 -11   4  11   93.05   13.70
 -11   4  10   27.15    8.80
 -11   4   9   15.97    7.25
 -11   4   8   -3.65    4.88
 -11   4   7  406.82   27.94
 -11   4   6   -0.30    6.73
 -11   4   5  266.71   22.90
 -11   4   4   61.65   12.47
 -11   4   3   22.04    8.12
 -11   4   2    3.78    6.51
 -11   4   1   94.05   13.90
 -11   4   0   -3.07    5.21
 -11   4  -1    6.41    5.72
 -11   4  -2   23.16    8.06
 -11   4  -3   85.05   12.94
 -11   4  -4    8.32    5.41
 -11   3  13   26.29    9.18
 -11   3  12   68.31   11.43
 -11   3  12   66.15   11.69
 -11   3  11    9.83    6.47
 -11   3  10   -3.52    4.81
 -11   3   9   18.05    7.82
 -11   3   8   33.20    9.37
 -11   3   7   30.17    9.01
 -11   3   6  132.99   15.85
 -11   3   5   47.65   10.30
 -11   3   4    9.51    6.31
 -11   3   3    6.36    5.65
 -11   3   2   72.49   12.90
 -11   3   1    3.69    5.76
 -11   3   0   33.49    9.07
 -11   3  -1   11.11    6.75
 -11   3  -2   34.65    8.67
 -11   3  -3   -0.94    5.65
 -11   3  -4   78.30   12.39
 -11   2  14    4.43    5.87
 -11   2  13  173.91   18.52
 -11   2  12    4.46    5.60
 -11   2  11   63.15   11.41
 -11   2  10   61.73   11.54
 -11   2   9   20.55    7.19
 -11   2   8   14.81    7.01
 -11   2   7   38.82    8.74
 -11   2   6   -4.55    5.77
 -11   2   5   13.18    6.65
 -11   2   4    0.70    5.68
 -11   2   3   16.70    7.92
 -11   2   2   35.37    8.86
 -11   2   1   66.32   11.63
 -11   2   0   77.11   12.67
 -11   2  -1   15.54    6.02
 -11   2  -1   11.89    5.76
 -11   2  -2   57.13   10.24
 -11   2  -2   47.25    9.98
 -11   2  -3   48.74    9.89
 -11   2  -3   51.62    9.77
 -11   2  -4   11.39    6.13
 -11   2  -4   28.56    7.79
 -11   2  -5    6.93    4.56
 -11   1  14   97.56   14.53
 -11   1  13   17.87    6.95
 -11   1  12   84.08   12.55
 -11   1  11    0.02    4.78
 -11   1  10    2.04    4.75
 -11   1   9    3.24    4.73
 -11   1   8   68.03   11.44
 -11   1   7  -10.59    6.03
 -11   1   6   46.26    9.96
 -11   1   5    4.35    4.45
 -11   1   4   72.96   11.70
 -11   1   3   59.39   10.67
 -11   1   2  133.11   15.98
 -11   1   1    0.60    4.55
 -11   1   0   95.88   13.67
 -11   1  -1   -2.75    4.86
 -11   1  -1    7.68    5.92
 -11   1  -2  101.18   14.25
 -11   1  -2   87.07   12.28
 -11   1  -3    5.25    4.73
 -11   1  -3    2.69    5.03
 -11   1  -4  -12.13    6.83
 -11   1  -4   15.29    7.02
 -11   0  12    7.02    5.19
 -11   0  11   13.33    6.38
 -11   0  10   -3.54    5.78
 -11   0   9   13.45    6.28
 -11   0   8  -14.49    6.79
 -11   0   7   10.73    6.58
 -11   0   6   -3.03    5.69
 -11   0   5   59.76   11.10
 -11   0   4   14.54    7.80
 -11   0   3  131.06   15.55
 -11   0   2    8.60    4.55
 -11   0   1   87.53   12.79
 -11   0   0   32.18    8.27
 -11   0  -1  195.59   18.86
 -11   0  -2   66.71   11.16
 -11   0  -2   66.55   11.32
 -11   0  -3   11.88    6.96
 -11   0  -3   23.98    8.06
 -11   0  -4   33.57    8.37
 -11   0  -4   21.64    7.61
 -11  -1  12    0.54    6.04
 -11  -1  11    6.52    4.36
 -11  -1  10   21.43    6.93
 -11  -1   9    3.22    5.29
 -11  -1   8   34.54    8.97
 -11  -1   7    7.30    5.21
 -11  -1   6   12.52    6.55
 -11  -1   5    6.48    6.48
 -11  -1   4   38.63    9.15
 -11  -1   3   11.19    6.51
 -11  -1   2   -2.80    4.82
 -11  -1   1   37.26    9.32
 -11  -1   0  262.92   22.21
 -11  -1  -1    6.18    6.26
 -11  -1  -2    0.72    5.04
 -11  -1  -2   14.67    6.16
 -11  -1  -3   12.57    7.28
 -11  -1  -3   14.58    6.62
 -11  -1  -4   10.45    6.10
  11   2 -13   70.46   11.83
 -11  -2  12   49.58   10.00
 -11  -2  11   47.54   10.34
 -11  -2  10    5.47    6.31
 -11  -2   9  259.44   21.94
 -11  -2   8   -0.24    5.94
 -11  -2   7  201.42   19.53
 -11  -2   6   12.48    7.49
 -11  -2   5   77.83   12.88
 -11  -2   4    5.49    5.21
 -11  -2   3   12.77    7.51
 -11  -2   2    9.92    5.12
 -11  -2   1   20.82    7.71
 -11  -2   0    2.72    6.46
 -11  -2  -1   98.40   14.28
 -11  -2  -2   16.23    6.75
 -11  -2  -3    1.59    4.90
 -11  -2  -4    6.58    5.82
 -11  -3  12    5.07    5.12
 -11  -3  11    5.20    4.38
 -11  -3  10  122.80   15.71
 -11  -3   9   22.45    8.43
 -11  -3   8   82.69   12.98
 -11  -3   7   36.56    9.62
 -11  -3   6   25.85    8.35
 -11  -3   5    4.22    6.41
 -11  -3   4   65.92   12.10
 -11  -3   3   19.69    8.20
 -11  -3   2   -2.85    4.93
 -11  -3   1   15.75    7.06
 -11  -3   0  126.41   16.19
 -11  -3  -1    2.80    5.49
 -11  -3  -2    8.66    6.38
 -11  -3  -3   38.04    9.57
 -11  -4   9   33.73    9.53
 -11  -4   8    0.19    5.30
 -11  -4   7    3.40    7.37
 -11  -4   6   26.85    8.37
 -11  -4   5   15.97    6.68
 -11  -4   4    5.18    6.40
 -11  -4   3    0.25    5.40
 -11  -4   2   18.06    7.53
 -11  -4   1   51.30   11.33
 -11  -4   0   -3.55    5.76
 -11  -4  -1   19.84    7.59
 -12   3   8   17.20    7.46
 -12   3   7   26.95    8.60
 -12   3   6   10.80    5.88
 -12   3   5   45.50   11.08
 -12   3   4    5.35    6.73
 -12   3   3  105.35   14.99
 -12   3   2  126.02   16.95
 -12   3   1   22.75    7.82
 -12   2   9   -8.50    6.05
 -12   2   8  103.67   14.79
 -12   2   7   27.62    7.90
 -12   2   6   -2.23    4.86
 -12   2   5   33.57    9.51
 -12   2   4   22.82    6.66
 -12   2   3   11.91    6.24
 -12   2   2   10.83    8.00
 -12   2   1    6.30    6.15
 -12   2   0    6.23    5.50
 -12   1   9   68.29   11.70
 -12   1   8  -15.44    7.43
 -12   1   7   -2.26    5.07
 -12   1   6    7.43    5.33
 -12   1   5   51.89   11.09
 -12   1   4   13.68    6.63
 -12   1   3    1.85    4.97
 -12   1   2   15.61    6.95
 -12   1   1  150.09   17.55
 -12   1   0   94.47   14.11
 -12   0   8   -2.12    5.62
 -12   0   7    8.15    5.77
 -12   0   6   26.33    7.82
 -12   0   5   45.26   10.25
 -12   0   4    7.70    6.82
 -12   0   3   11.37    6.81
 -12   0   2  118.95   15.86
 -12   0   1    8.58    7.13
 -12  -1   6    9.90    7.22
 -12  -1   5   72.58   12.49
 -12  -1   4   11.65    6.19
   0   0   0    0.00    0.00

TITL XPC 115Abs in P-1
REM P-1 (#2 in standard setting)
CELL 0.71073   8.513550   9.738100  13.309248  90.0476 104.4713  95.7620
ZERR    2.00   0.000460   0.000383   0.000689   0.0037   0.0046   0.0038
LATT  1
SFAC C H N O Cl Cu
UNIT 24.00 44.00 8.00 16.00 2.00 2.00
TREF
HKLF 4
END
_computing_structure_solution     'SHELXT 2014/5 (Sheldrick, 2014)'
;
_shelx_hkl_checksum              34701
_olex2_submission_special_instructions 'No special instructions were received'
loop_
_space_group_symop_operation_xyz
'x, y, z'
'-x, -y, -z'
loop_
_atom_site_label
_atom_site_type_symbol
_atom_site_fract_x
_atom_site_fract_y
_atom_site_fract_z
_atom_site_U_iso_or_equiv
_atom_site_adp_type
_atom_site_occupancy
_atom_site_site_symmetry_order
_atom_site_calc_flag
_atom_site_refinement_flags_posn
_atom_site_refinement_flags_adp
_atom_site_refinement_flags_occupancy
Cu2 Cu 0.0000 0.5000 0.0000 0.01290(11) Uani 1 2 d S T P
Cl2 Cl 0.34020(8) 0.60211(7) 0.21488(5) 0.01588(14) Uani 1 1 d . . .
O3 O -0.1211(3) 0.6732(2) 0.28958(18) 0.0212(5) Uani 1 1 d . . .
O4 O -0.0599(3) 0.4546(2) 0.30777(16) 0.0210(4) Uani 1 1 d . . .
O9 O 0.2274(3) 0.6696(2) 0.25668(17) 0.0263(5) Uani 1 1 d . . .
O10 O 0.2508(3) 0.5004(2) 0.13717(17) 0.0278(5) Uani 1 1 d . . .
O11 O 0.4504(3) 0.5374(2) 0.29547(17) 0.0274(5) Uani 1 1 d . . .
O12 O 0.4318(3) 0.7023(3) 0.16606(19) 0.0301(5) Uani 1 1 d . . .
N3 N -0.0896(3) 0.3572(2) 0.08772(18) 0.0152(5) Uani 1 1 d . . .
H3A H -0.0088 0.3602 0.1568 0.018 Uiso 1 1 calc R . .
N4 N 0.0811(3) 0.3380(2) -0.06164(18) 0.0153(5) Uani 1 1 d . . .
H4 H 0.0021 0.3120 -0.1298 0.018 Uiso 1 1 calc R . .
C7 C -0.1342(3) 0.5448(3) 0.2588(2) 0.0165(5) Uani 1 1 d . . .
C8 C -0.2566(4) 0.5167(3) 0.1537(2) 0.0180(6) Uani 1 1 d . . .
H8 H -0.3668 0.5145 0.1678 0.022 Uiso 1 1 calc R . .
C9 C -0.2498(4) 0.3747(3) 0.1080(2) 0.0187(6) Uani 1 1 d . . .
H9A H -0.2737 0.3034 0.1567 0.022 Uiso 1 1 calc R . .
H9B H -0.3355 0.3599 0.0422 0.022 Uiso 1 1 calc R . .
C10 C 0.2455(4) 0.3630(3) -0.0811(2) 0.0188(6) Uani 1 1 d . . .
H10A H 0.2713 0.2783 -0.1122 0.023 Uiso 1 1 calc R . .
H10B H 0.3275 0.3833 -0.0142 0.023 Uiso 1 1 calc R . .
C11 C -0.0885(4) 0.2202(3) 0.0390(2) 0.0183(6) Uani 1 1 d . . .
H11A H -0.1812 0.2039 -0.0232 0.022 Uiso 1 1 calc R . .
H11B H -0.0985 0.1461 0.0886 0.022 Uiso 1 1 calc R . .
C12 C 0.0707(4) 0.2205(3) 0.0090(2) 0.0180(6) Uani 1 1 d . . .
H12A H 0.1631 0.2319 0.0715 0.022 Uiso 1 1 calc R . .
H12B H 0.0746 0.1322 -0.0269 0.022 Uiso 1 1 calc R . .
Cu1 Cu 0.5000 1.0000 0.5000 0.01035(10) Uani 1 2 d S T P
O1 O 0.1970(3) 0.5222(2) 0.47289(18) 0.0195(4) Uani 1 1 d . . .
O2 O 0.0937(3) 0.7260(2) 0.46623(16) 0.0186(4) Uani 1 1 d . . .
N1 N 0.5127(3) 0.8007(2) 0.46777(18) 0.0123(4) Uani 1 1 d . . .
H1A H 0.4196 0.7715 0.4068 0.015 Uiso 1 1 calc R . .
N2 N 0.3219(3) 0.9556(2) 0.57463(17) 0.0129(4) Uani 1 1 d . . .
H2 H 0.2163 0.9412 0.5203 0.015 Uiso 1 1 calc R . .
C1 C 0.1992(3) 0.6509(3) 0.5034(2) 0.0130(5) Uani 1 1 d . . .
C2 C 0.3485(3) 0.6998(3) 0.5881(2) 0.0145(5) Uani 1 1 d . . .
H2A H 0.3567 0.6281 0.6423 0.017 Uiso 1 1 calc R . .
C3 C 0.3301(4) 0.8337(3) 0.6418(2) 0.0157(5) Uani 1 1 d . . .
H3B H 0.2296 0.8208 0.6668 0.019 Uiso 1 1 calc R . .
H3C H 0.4236 0.8524 0.7032 0.019 Uiso 1 1 calc R . .
C4 C 0.5048(3) 0.7011(3) 0.5507(2) 0.0151(5) Uani 1 1 d . . .
H4A H 0.6000 0.7242 0.6104 0.018 Uiso 1 1 calc R . .
H4B H 0.5123 0.6073 0.5247 0.018 Uiso 1 1 calc R . .
C5 C 0.6656(4) 0.7951(3) 0.4337(2) 0.0185(6) Uani 1 1 d . . .
H5A H 0.6612 0.7074 0.3950 0.022 Uiso 1 1 calc R . .
H5B H 0.7605 0.8002 0.4948 0.022 Uiso 1 1 calc R . .
C6 C 0.3178(4) 1.0838(3) 0.6352(2) 0.0187(6) Uani 1 1 d . . .
H6A H 0.4086 1.0922 0.6987 0.022 Uiso 1 1 calc R . .
H6B H 0.2137 1.0810 0.6559 0.022 Uiso 1 1 calc R . .
Cl1 Cl 0.13771(10) 0.03999(8) 0.28725(6) 0.02792(19) Uani 1 1 d . . .
O5 O 0.1379(3) 0.1827(2) 0.26337(19) 0.0344(6) Uani 1 1 d . . .
O6 O 0.0583(3) 0.0181(4) 0.3725(2) 0.0520(8) Uani 1 1 d . . .
O7 O 0.0476(4) -0.0437(3) 0.2017(2) 0.0520(9) Uani 1 1 d . . .
O8 O 0.3007(3) 0.0040(3) 0.32502(19) 0.0332(6) Uani 1 1 d . . .
H3 H -0.068(5) 0.680(5) 0.339(3) 0.043(14) Uiso 1 1 d . . .
H1 H 0.126(5) 0.502(4) 0.432(3) 0.033(12) Uiso 1 1 d . . .
loop_
_atom_site_aniso_label
_atom_site_aniso_U_11
_atom_site_aniso_U_22
_atom_site_aniso_U_33
_atom_site_aniso_U_23
_atom_site_aniso_U_13
_atom_site_aniso_U_12
Cu2 0.0147(2) 0.0116(2) 0.0130(2) 0.00106(16) 0.00406(17) 0.00330(17)
Cl2 0.0149(3) 0.0171(3) 0.0148(3) -0.0021(2) 0.0011(2) 0.0041(2)
O3 0.0223(11) 0.0203(11) 0.0207(12) -0.0039(9) 0.0030(9) 0.0065(9)
O4 0.0259(11) 0.0183(11) 0.0177(10) -0.0010(8) 0.0043(8) -0.0008(9)
O9 0.0277(12) 0.0270(12) 0.0279(12) -0.0024(9) 0.0106(10) 0.0109(10)
O10 0.0281(12) 0.0239(12) 0.0257(12) -0.0085(9) -0.0040(10) 0.0036(10)
O11 0.0283(12) 0.0293(13) 0.0216(11) 0.0040(9) -0.0027(9) 0.0107(10)
O12 0.0277(13) 0.0307(13) 0.0333(13) 0.0083(10) 0.0113(10) -0.0002(10)
N3 0.0195(12) 0.0123(11) 0.0135(11) -0.0018(8) 0.0031(9) 0.0025(9)
N4 0.0165(11) 0.0159(11) 0.0134(11) -0.0003(8) 0.0032(9) 0.0033(9)
C7 0.0161(13) 0.0197(14) 0.0158(13) -0.0007(10) 0.0079(10) 0.0009(11)
C8 0.0144(13) 0.0220(15) 0.0183(14) -0.0023(11) 0.0061(11) 0.0010(11)
C9 0.0164(13) 0.0239(15) 0.0150(13) -0.0006(10) 0.0043(10) -0.0024(11)
C10 0.0172(14) 0.0237(15) 0.0169(13) 0.0003(11) 0.0044(11) 0.0079(12)
C11 0.0263(15) 0.0121(12) 0.0151(13) 0.0010(10) 0.0018(11) 0.0041(11)
C12 0.0251(15) 0.0152(13) 0.0129(13) 0.0008(10) 0.0014(11) 0.0065(11)
Cu1 0.0114(2) 0.0059(2) 0.0144(2) -0.00110(15) 0.00429(17) 0.00156(16)
O1 0.0201(11) 0.0098(9) 0.0249(11) -0.0026(8) -0.0012(9) 0.0017(8)
O2 0.0192(10) 0.0136(10) 0.0211(10) -0.0027(7) 0.0010(8) 0.0030(8)
N1 0.0106(10) 0.0095(10) 0.0180(11) -0.0009(8) 0.0059(8) 0.0011(8)
N2 0.0146(11) 0.0075(10) 0.0160(11) -0.0014(8) 0.0033(9) -0.0002(8)
C1 0.0151(12) 0.0101(12) 0.0146(12) 0.0007(9) 0.0063(10) -0.0014(10)
C2 0.0174(13) 0.0104(12) 0.0156(13) 0.0024(9) 0.0041(10) 0.0002(10)
C3 0.0212(14) 0.0119(12) 0.0148(13) 0.0011(9) 0.0060(10) 0.0011(10)
C4 0.0151(13) 0.0087(12) 0.0210(14) 0.0016(9) 0.0034(10) 0.0023(10)
C5 0.0155(13) 0.0118(13) 0.0314(16) -0.0051(11) 0.0118(12) 0.0014(10)
C6 0.0212(14) 0.0118(13) 0.0268(15) -0.0060(11) 0.0142(12) -0.0012(11)
Cl1 0.0232(4) 0.0180(4) 0.0323(4) 0.0061(3) -0.0107(3) -0.0019(3)
O5 0.0462(16) 0.0175(11) 0.0296(13) 0.0028(9) -0.0089(11) 0.0029(11)
O6 0.0287(15) 0.076(2) 0.0468(18) 0.0195(16) 0.0035(13) 0.0012(15)
O7 0.0588(19) 0.0247(14) 0.0475(17) -0.0088(12) -0.0339(14) 0.0059(13)
O8 0.0282(13) 0.0321(14) 0.0314(13) -0.0059(10) -0.0090(10) 0.0072(11)
loop_
_atom_type_symbol
_atom_type_description
_atom_type_scat_dispersion_real
_atom_type_scat_dispersion_imag
_atom_type_scat_source
C C 0.0033 0.0016 'International Tables Vol C Tables 4.2.6.8 and 6.1.1.4'
H H 0.0000 0.0000 'International Tables Vol C Tables 4.2.6.8 and 6.1.1.4'
Cl Cl 0.1484 0.1585 'International Tables Vol C Tables 4.2.6.8 and 6.1.1.4'
Cu Cu 0.3201 1.2651 'International Tables Vol C Tables 4.2.6.8 and 6.1.1.4'
N N 0.0061 0.0033 'International Tables Vol C Tables 4.2.6.8 and 6.1.1.4'
O O 0.0106 0.0060 'International Tables Vol C Tables 4.2.6.8 and 6.1.1.4'
loop_
_exptl_crystal_face_index_h
_exptl_crystal_face_index_k
_exptl_crystal_face_index_l
_exptl_crystal_face_perp_dist
_exptl_oxdiff_crystal_face_indexfrac_h
_exptl_oxdiff_crystal_face_indexfrac_k
_exptl_oxdiff_crystal_face_indexfrac_l
_exptl_oxdiff_crystal_face_x
_exptl_oxdiff_crystal_face_y
_exptl_oxdiff_crystal_face_z
2 1 5 0.1684 2.0000 1.0000 5.0000 -0.0317 0.2805 -0.2430
-4 0 5 0.1033 -4.0000 0.0000 5.0000 -0.3832 -0.0274 0.0107
-1 -5 -3 0.1737 -1.0000 -5.0000 -3.0000 0.0049 -0.0211 0.4306
0 -5 1 0.1498 0.0000 -5.0000 1.0000 -0.0596 0.1942 0.3079
0 1 0 0.1527 -0.0000 1.0000 0.0000 0.0058 -0.0309 -0.0661
-1 0 -5 0.1346 -1.0000 0.0000 -5.0000 0.0951 -0.2550 0.1456
-5 -3 3 0.0919 -5.0000 -3.0000 3.0000 -0.3971 -0.0706 0.2861
3 -3 -5 0.1348 3.0000 -3.0000 -5.0000 0.3081 0.0636 0.2190
-4 1 5 0.1117 -4.0000 1.0000 5.0000 -0.3773 -0.0583 -0.0554
5 1 -5 0.1153 5.0000 1.0000 -5.0000 0.4466 0.0530 -0.1081
4 -1 -5 0.0837 4.0000 -1.0000 -5.0000 0.3773 0.0583 0.0554
1 -3 5 0.1546 1.0000 -3.0000 5.0000 -0.1126 0.3476 0.0528
loop_
_geom_angle_atom_site_label_1
_geom_angle_atom_site_label_2
_geom_angle_atom_site_label_3
_geom_angle
_geom_angle_site_symmetry_1
_geom_angle_site_symmetry_3
O10 Cu2 O10 180.0 . 2_565
N3 Cu2 O10 83.94(9) 2_565 2_565
N3 Cu2 O10 96.06(9) . 2_565
N3 Cu2 O10 83.94(9) . .
N3 Cu2 O10 96.06(9) 2_565 .
N3 Cu2 N3 180.0 . 2_565
N3 Cu2 N4 94.55(9) 2_565 .
N3 Cu2 N4 85.45(9) 2_565 2_565
N3 Cu2 N4 94.55(9) . 2_565
N3 Cu2 N4 85.45(9) . .
N4 Cu2 O10 84.98(8) 2_565 2_565
N4 Cu2 O10 95.02(8) . 2_565
N4 Cu2 O10 84.98(8) . .
N4 Cu2 O10 95.02(8) 2_565 .
N4 Cu2 N4 180.00(8) 2_565 .
O9 Cl2 O10 109.23(14) . .
O9 Cl2 O12 109.51(15) . .
O10 Cl2 O12 108.39(15) . .
O11 Cl2 O9 110.38(14) . .
O11 Cl2 O10 110.06(14) . .
O11 Cl2 O12 109.24(15) . .
C7 O3 H3 108(4) . .
Cl2 O10 Cu2 133.10(14) . .
Cu2 N3 H3A 106.7 . .
C9 N3 Cu2 117.61(18) . .
C9 N3 H3A 106.7 . .
C9 N3 C11 111.9(2) . .
C11 N3 Cu2 106.68(17) . .
C11 N3 H3A 106.7 . .
Cu2 N4 H4 107.4 . .
C10 N4 Cu2 116.21(18) . .
C10 N4 H4 107.4 . .
C10 N4 C12 111.7(2) . .
C12 N4 Cu2 106.44(16) . .
C12 N4 H4 107.4 . .
O3 C7 C8 112.2(3) . .
O4 C7 O3 124.9(3) . .
O4 C7 C8 122.9(3) . .
C7 C8 H8 105.8 . .
C7 C8 C10 111.1(2) . 2_565
C9 C8 C7 112.4(2) . .
C9 C8 H8 105.8 . .
C9 C8 C10 115.2(2) . 2_565
C10 C8 H8 105.8 2_565 .
N3 C9 C8 113.0(2) . .
N3 C9 H9A 109.0 . .
N3 C9 H9B 109.0 . .
C8 C9 H9A 109.0 . .
C8 C9 H9B 109.0 . .
H9A C9 H9B 107.8 . .
N4 C10 C8 111.8(2) . 2_565
N4 C10 H10A 109.2 . .
N4 C10 H10B 109.2 . .
C8 C10 H10A 109.2 2_565 .
C8 C10 H10B 109.2 2_565 .
H10A C10 H10B 107.9 . .
N3 C11 H11A 110.2 . .
N3 C11 H11B 110.2 . .
N3 C11 C12 107.4(2) . .
H11A C11 H11B 108.5 . .
C12 C11 H11A 110.2 . .
C12 C11 H11B 110.2 . .
N4 C12 C11 107.4(2) . .
N4 C12 H12A 110.2 . .
N4 C12 H12B 110.2 . .
C11 C12 H12A 110.2 . .
C11 C12 H12B 110.2 . .
H12A C12 H12B 108.5 . .
N1 Cu1 N1 180.0 2_676 .
N1 Cu1 N2 86.76(9) 2_676 .
N1 Cu1 N2 93.25(9) . .
N1 Cu1 N2 93.25(9) 2_676 2_676
N1 Cu1 N2 86.75(9) . 2_676
N2 Cu1 N2 180.0 . 2_676
C1 O1 H1 111(3) . .
Cu1 N1 H1A 107.3 . .
C4 N1 Cu1 117.34(16) . .
C4 N1 H1A 107.3 . .
C4 N1 C5 110.6(2) . .
C5 N1 Cu1 106.46(16) . .
C5 N1 H1A 107.3 . .
Cu1 N2 H2 107.1 . .
C3 N2 Cu1 118.66(17) . .
C3 N2 H2 107.1 . .
C3 N2 C6 110.7(2) . .
C6 N2 Cu1 105.65(17) . .
C6 N2 H2 107.1 . .
O1 C1 C2 113.3(2) . .
O2 C1 O1 124.2(3) . .
O2 C1 C2 122.5(2) . .
C1 C2 H2A 105.6 . .
C1 C2 C3 112.6(2) . .
C1 C2 C4 111.7(2) . .
C3 C2 H2A 105.6 . .
C3 C2 C4 114.8(2) . .
C4 C2 H2A 105.6 . .
N2 C3 C2 114.2(2) . .
N2 C3 H3B 108.7 . .
N2 C3 H3C 108.7 . .
C2 C3 H3B 108.7 . .
C2 C3 H3C 108.7 . .
H3B C3 H3C 107.6 . .
N1 C4 C2 113.3(2) . .
N1 C4 H4A 108.9 . .
N1 C4 H4B 108.9 . .
C2 C4 H4A 108.9 . .
C2 C4 H4B 108.9 . .
H4A C4 H4B 107.7 . .
N1 C5 H5A 110.1 . .
N1 C5 H5B 110.1 . .
N1 C5 C6 108.0(2) . 2_676
H5A C5 H5B 108.4 . .
C6 C5 H5A 110.1 2_676 .
C6 C5 H5B 110.1 2_676 .
N2 C6 C5 107.5(2) . 2_676
N2 C6 H6A 110.2 . .
N2 C6 H6B 110.2 . .
C5 C6 H6A 110.2 2_676 .
C5 C6 H6B 110.2 2_676 .
H6A C6 H6B 108.5 . .
O5 Cl1 O6 107.26(19) . .
O5 Cl1 O8 110.92(16) . .
O7 Cl1 O5 111.14(16) . .
O7 Cl1 O6 108.2(2) . .
O7 Cl1 O8 112.53(17) . .
O8 Cl1 O6 106.49(16) . .
loop_
_geom_bond_atom_site_label_1
_geom_bond_atom_site_label_2
_geom_bond_distance
_geom_bond_site_symmetry_2
Cu2 O10 2.438(2) 2_565
Cu2 O10 2.438(2) .
Cu2 N3 2.028(2) .
Cu2 N3 2.028(2) 2_565
Cu2 N4 2.034(2) 2_565
Cu2 N4 2.034(2) .
Cl2 O9 1.435(2) .
Cl2 O10 1.443(2) .
Cl2 O11 1.430(2) .
Cl2 O12 1.444(2) .
O3 C7 1.301(3) .
O3 H3 0.70(4) .
O4 C7 1.226(4) .
N3 H3A 1.0000 .
N3 C9 1.481(4) .
N3 C11 1.485(3) .
N4 H4 1.0000 .
N4 C10 1.482(4) .
N4 C12 1.491(4) .
C7 C8 1.526(4) .
C8 H8 1.0000 .
C8 C9 1.523(4) .
C8 C10 1.530(4) 2_565
C9 H9A 0.9900 .
C9 H9B 0.9900 .
C10 C8 1.530(4) 2_565
C10 H10A 0.9900 .
C10 H10B 0.9900 .
C11 H11A 0.9900 .
C11 H11B 0.9900 .
C11 C12 1.505(4) .
C12 H12A 0.9900 .
C12 H12B 0.9900 .
Cu1 N1 2.007(2) 2_676
Cu1 N1 2.007(2) .
Cu1 N2 2.023(2) .
Cu1 N2 2.023(2) 2_676
O1 C1 1.315(3) .
O1 H1 0.71(4) .
O2 C1 1.224(3) .
N1 H1A 1.0000 .
N1 C4 1.480(4) .
N1 C5 1.487(3) .
N2 H2 1.0000 .
N2 C3 1.484(3) .
N2 C6 1.493(3) .
C1 C2 1.508(4) .
C2 H2A 1.0000 .
C2 C3 1.526(4) .
C2 C4 1.532(4) .
C3 H3B 0.9900 .
C3 H3C 0.9900 .
C4 H4A 0.9900 .
C4 H4B 0.9900 .
C5 H5A 0.9900 .
C5 H5B 0.9900 .
C5 C6 1.511(4) 2_676
C6 C5 1.511(4) 2_676
C6 H6A 0.9900 .
C6 H6B 0.9900 .
Cl1 O5 1.426(2) .
Cl1 O6 1.464(3) .
Cl1 O7 1.409(2) .
Cl1 O8 1.432(2) .
