#------------------------------------------------------------------------------
#$Date: 2018-01-25 01:53:33 +0200 (Thu, 25 Jan 2018) $
#$Revision: 205585 $
#$URL: file:///home/coder/svn-repositories/cod/cif/4/12/70/4127081.cif $
#------------------------------------------------------------------------------
#
# This file is available in the Crystallography Open Database (COD),
# http://www.crystallography.net/
#
# All data on this site have been placed in the public domain by the
# contributors.
#
data_4127081
loop_
_publ_author_name
'Forse, Alexander C.'
'Gonzalez, Miguel I.'
'Siegelman, Rebecca L.'
'Witherspoon, Velencia J.'
'Jawahery, Sudi'
'Mercado, Rocio'
'Milner, Phillip J.'
'Martell, Jeffrey D.'
'Smit, Berend'
'Bl\"umich, Bernhard'
'Long, Jeffrey R.'
'Reimer, Jeffrey A.'
_publ_section_title
;
 Unexpected Diffusion Anisotropy of Carbon Dioxide in the Metal-Organic
 Framework Zn2(dobpdc).
;
_journal_name_full               'Journal of the American Chemical Society'
_journal_paper_doi               10.1021/jacs.7b09453
_journal_year                    2018
_chemical_formula_moiety         'C14 H6 O6 Zn2'
_chemical_formula_sum            'C14 H6 O6 Zn2'
_chemical_formula_weight         400.93
_chemical_name_common            Zn2(dobpdc)
_space_group_crystal_system      trigonal
_space_group_IT_number           152
_space_group_name_Hall           'P 31 2"'
_space_group_name_H-M_alt        'P 31 2 1'
_symmetry_space_group_name_Hall  'P 31 2"'
_symmetry_space_group_name_H-M   'P 31 2 1'
_atom_sites_solution_hydrogens   geom
_atom_sites_solution_primary     dual
_atom_sites_solution_secondary   difmap
_audit_creation_date             2018-01-20
_audit_creation_method
;
Olex2 1.2
(compiled 2017.08.10 svn.r3461 for OlexSys, GUI svn.r5381)
;
_cell_angle_alpha                90
_cell_angle_beta                 90
_cell_angle_gamma                120
_cell_formula_units_Z            3
_cell_length_a                   21.657(2)
_cell_length_b                   21.657(2)
_cell_length_c                   6.7666(7)
_cell_measurement_reflns_used    9996
_cell_measurement_temperature    298(2)
_cell_measurement_theta_max      31.543
_cell_measurement_theta_min      2.368
_cell_volume                     2748.5(5)
_computing_cell_refinement       'SAINT V8.38A (?, 2016)'
_computing_data_collection       'Bruker APEX3'
_computing_data_reduction        'SAINT V8.38A (?, 2016)'
_computing_molecular_graphics    'Olex2 (Dolomanov et al., 2009)'
_computing_publication_material  'Olex2 (Dolomanov et al., 2009)'
_computing_structure_refinement  'ShelXL (Sheldrick, 2015)'
_computing_structure_solution    'ShelXT (Sheldrick, 2015)'
_diffrn_ambient_temperature      298(2)
_diffrn_detector_area_resol_mean 10.42
_diffrn_measured_fraction_theta_full 0.999
_diffrn_measured_fraction_theta_max 0.999
_diffrn_measurement_device_type  'Bruker D8 with PHOTON100 CMOS detector'
_diffrn_measurement_method       '\f and \w shutterless scans'
_diffrn_radiation_monochromator  'silicon 111'
_diffrn_radiation_type           synchrotron
_diffrn_radiation_wavelength     0.7749
_diffrn_reflns_av_R_equivalents  0.0520
_diffrn_reflns_av_unetI/netI     0.0315
_diffrn_reflns_Laue_measured_fraction_full 0.999
_diffrn_reflns_Laue_measured_fraction_max 0.999
_diffrn_reflns_limit_h_max       26
_diffrn_reflns_limit_h_min       -26
_diffrn_reflns_limit_k_max       26
_diffrn_reflns_limit_k_min       -26
_diffrn_reflns_limit_l_max       8
_diffrn_reflns_limit_l_min       -8
_diffrn_reflns_number            25715
_diffrn_reflns_point_group_measured_fraction_full 0.999
_diffrn_reflns_point_group_measured_fraction_max 0.999
_diffrn_reflns_theta_full        27.706
_diffrn_reflns_theta_max         28.560
_diffrn_reflns_theta_min         2.051
_diffrn_source                   'Advanced Light Source station 11.3.1'
_diffrn_standards_number         0
_exptl_absorpt_coefficient_mu    1.665
_exptl_absorpt_correction_T_max  0.916
_exptl_absorpt_correction_T_min  0.625
_exptl_absorpt_correction_type   multi-scan
_exptl_absorpt_process_details
;
SADABS-2016/2 (Bruker,2016) was used for absorption correction.
wR2(int) was 0.1249 before and 0.0599 after correction.
The Ratio of minimum to maximum transmission is 0.6819.
The \l/2 correction factor is Not present.
;
_exptl_crystal_colour            yellow
_exptl_crystal_colour_primary    yellow
_exptl_crystal_density_diffrn    0.727
_exptl_crystal_density_method    'not measured'
_exptl_crystal_description       prism
_exptl_crystal_F_000             594
_exptl_crystal_size_max          0.1071
_exptl_crystal_size_mid          0.05355
_exptl_crystal_size_min          0.05355
_refine_diff_density_max         0.393
_refine_diff_density_min         -0.357
_refine_diff_density_rms         0.055
_refine_ls_abs_structure_details
;
 Refined as an inversion twin.
;
_refine_ls_abs_structure_Flack   0.38(2)
_refine_ls_extinction_method     none
_refine_ls_goodness_of_fit_ref   1.098
_refine_ls_hydrogen_treatment    constr
_refine_ls_matrix_type           full
_refine_ls_number_parameters     101
_refine_ls_number_reflns         3625
_refine_ls_number_restraints     0
_refine_ls_restrained_S_all      1.098
_refine_ls_R_factor_all          0.0413
_refine_ls_R_factor_gt           0.0328
_refine_ls_shift/su_max          0.000
_refine_ls_shift/su_mean         0.000
_refine_ls_structure_factor_coef Fsqd
_refine_ls_weighting_details
'w=1/[\s^2^(Fo^2^)+(0.0376P)^2^+0.5903P] where P=(Fo^2^+2Fc^2^)/3'
_refine_ls_weighting_scheme      calc
_refine_ls_wR_factor_gt          0.0754
_refine_ls_wR_factor_ref         0.0788
_reflns_Friedel_coverage         0.849
_reflns_Friedel_fraction_full    1.000
_reflns_Friedel_fraction_max     1.000
_reflns_number_gt                3215
_reflns_number_total             3625
_reflns_threshold_expression     'I > 2\s(I)'
_cod_data_source_file            ja7b09453_si_002.cif
_cod_data_source_block           gcell133s
_cod_original_cell_volume        2748.5(6)
_cod_database_code               4127081
_shelx_shelxl_version_number     2017/1
_shelx_space_group_comment
;
The symmetry employed for this shelxl refinement is uniquely defined
by the following loop, which should always be used as a source of
symmetry information in preference to the above space-group names.
They are only intended as comments.
;
_shelx_estimated_absorpt_t_max   0.916
_shelx_estimated_absorpt_t_min   0.842
_olex2_refinement_description
;
1. Twinned data refinement
 Scales: 0.62(2)
 0.38(2)
2. Fixed Uiso
 At 1.2 times of:
  All C(H) groups
3.a Aromatic/amide H refined with riding coordinates:
 C3(H3), C6(H6), C5(H5)
;
_shelx_res_file
;
TITL gcell133s_a.res in P3(1)21
    gcell133s.res
    created by SHELXL-2017/1 at 01:12:02 on 20-Jan-2018
REM Old TITL GCELL133S in P3(2)21
REM SHELXT solution in P3(1)21
REM R1 0.103, Rweak 0.024, Alpha 0.006, Orientation as input
REM Flack x = 0.376 ( 0.009 ) from Parsons' quotients
REM Formula found by SHELXT: C7 O3 Zn
CELL 0.7749 21.6571 21.6571 6.7666 90 90 120
ZERR 3 0.0022 0.0022 0.0007 0 0 0
LATT -1
SYMM -Y,+X-Y,0.333+Z
SYMM +Y-X,-X,0.667+Z
SYMM +Y,+X,-Z
SYMM -Y+X,-Y,0.667-Z
SYMM -X,-X+Y,0.333-Z
SFAC C H O Zn
DISP C 0.004 0.002 13.6
DISP H -0 0 0.7
DISP O 0.013 0.007 40.2
DISP Zn 0.228 1.672 7409.4
UNIT 42 18 18 6

L.S. 10
PLAN  20
SIZE 0.1071 0.05355 0.05355
TEMP 25(2)
BOND $H
list 4
MORE -1
fmap 2
acta
TWIN -1 0 0 0 -1 0 0 0 -1 2
OMIT 0 2 0
REM <olex2.extras>
REM <HklSrc "%./GCELL133S.hkl">
REM </olex2.extras>

WGHT    0.037600    0.590300
BASF   0.38042
FVAR       0.37705
ZN1   4    0.380829    0.662214   -0.020983    11.00000    0.04100    0.03692 =
         0.02007   -0.00020   -0.00094    0.02211
O1    3    0.342438    0.584705    0.774629    11.00000    0.05971    0.05097 =
         0.01782   -0.00212    0.00136    0.04080
O3    3    0.412866    0.618429    0.182404    11.00000    0.05994    0.06612 =
         0.01942    0.00733    0.00685    0.04753
O2    3    0.353120    0.638039    0.410838    11.00000    0.07947    0.06983 =
         0.02838    0.01779    0.01726    0.06193
C1    1    0.376371    0.553905    0.691454    11.00000    0.05668    0.05288 =
         0.02049   -0.00470   -0.00323    0.04065
C7    1    0.388676    0.609407    0.354459    11.00000    0.04437    0.05154 =
         0.02354   -0.00309   -0.00430    0.03287
C2    1    0.399348    0.563695    0.492030    11.00000    0.04852    0.05363 =
         0.02140   -0.00003   -0.00153    0.03777
C3    1    0.434199    0.528394    0.423827    11.00000    0.06800    0.07701 =
         0.01909    0.00051    0.00165    0.05585
AFIX  43
H3    2    0.449778    0.535614    0.293360    11.00000   -1.20000
AFIX   0
C4    1    0.446780    0.483593    0.538548    11.00000    0.08072    0.08252 =
         0.02519   -0.00064   -0.00120    0.06841
C6    1    0.389803    0.509075    0.807321    11.00000    0.10687    0.08489 =
         0.01876    0.00677    0.00939    0.07731
AFIX  43
H6    2    0.375613    0.502315    0.939009    11.00000   -1.20000
AFIX   0
C5    1    0.423213    0.474487    0.734383    11.00000    0.11801    0.09857 =
         0.02515    0.01115    0.00839    0.09220
AFIX  43
H5    2    0.430406    0.444279    0.816763    11.00000   -1.20000
AFIX   0
HKLF 4




REM  gcell133s_a.res in P3(1)21
REM R1 =  0.0328 for    3215 Fo > 4sig(Fo)  and  0.0413 for all    3625 data
REM    101 parameters refined using      0 restraints

END

WGHT      0.0376      0.5898

REM Highest difference peak  0.393,  deepest hole -0.357,  1-sigma level  0.055
Q1    1   0.4304  0.6795 -0.0457  11.00000  0.05    0.39
Q2    1   0.5515  0.7500 -0.2186  11.00000  0.05    0.21
Q3    1   0.1769  0.4055  0.3455  11.00000  0.05    0.20
Q4    1   0.5717  0.7367  0.6509  11.00000  0.05    0.20
Q5    1   0.5871  0.7340 -0.1559  11.00000  0.05    0.20
Q6    1   0.2101  0.4293  0.2953  11.00000  0.05    0.20
Q7    1   0.5324  0.7428  0.3312  11.00000  0.05    0.19
Q8    1   0.4315  0.5597  0.4790  11.00000  0.05    0.18
Q9    1   0.2138  0.4369  1.1694  11.00000  0.05    0.18
Q10   1   0.5555  0.7090  0.7063  11.00000  0.05    0.17
Q11   1   0.4253  0.4699  0.6098  11.00000  0.05    0.17
Q12   1   0.6065  0.7595  0.5075  11.00000  0.05    0.17
Q13   1   0.3575  0.6768  0.3772  11.00000  0.05    0.17
Q14   1   0.2285  0.4056  0.3996  11.00000  0.05    0.16
Q15   1   0.5828  0.7578  0.1215  11.00000  0.05    0.16
Q16   1   0.4847  0.5218  0.5380  11.00000  0.05    0.16
Q17   1   0.0472  0.0783  0.5815  11.00000  0.05    0.16
Q18   1   0.0110  0.0390  0.9693  11.00000  0.05    0.16
Q19   1   0.4299  0.4974  0.4835  11.00000  0.05    0.15
Q20   1   0.4713  0.5673  0.2832  11.00000  0.05    0.15
;
_shelx_res_checksum              8907
_shelx_hkl_file
;
   1  -2   0 9999.00  312.17
   2  -1   0 9944.91  311.57
  -1  -1   0 9635.34  312.17
  -2   0   0  161.48    5.40
  -2   0   0  147.69    5.00
  -2   2   0  150.98    5.20
   0   2   0  167.58    5.50
   2   0   0  157.58    5.20
   0   2   0  145.19    5.00
   2  -2   0  149.59    5.10
   0  -2   0  156.08    5.20
   1  -3   0 2621.14   81.19
   2  -3   0 2612.94   81.29
  -1   3   0 2667.93   81.49
   3  -3   0 1770.12   53.69
  -3   0   0 1688.93   53.69
   3   0   0 1719.53   53.59
   0   3   0 1722.43   53.69
   3  -3   0 1752.32   53.49
   0  -3   0 1710.23   53.59
   2   2   0 3512.05  123.79
  -4   2   0 3344.67  122.99
   2  -4   0 3579.14  125.99
  -2   4   0 3454.55  125.39
  -2  -2   0 3491.15  124.09
   4  -2   0 3549.45  123.89
   3  -4   0  294.57    9.30
  -4   1   0  274.17    9.50
   1   3   0  271.87    9.50
  -4   1   0  271.37    9.00
   1  -4   0  283.27    9.30
   1   3   0  275.67    9.10
  -4   3   0  279.17    9.30
   3   1   0  288.67    9.40
   3  -4   0  299.17    9.50
  -3  -1   0  271.47    9.60
  -3   4   0  280.67    9.60
  -3  -1   0  259.27    9.40
  -1   4   0  262.17    9.10
   4  -1   0  271.17    9.60
  -1   4   0  293.87    9.80
  -1  -3   0  269.67    9.50
   4  -3   0  275.37    9.60
   4  -3   0  273.67    9.80
   4  -4   0 1449.85   45.10
   0   4   0 1425.96   45.30
   4  -4   0 1461.75   45.30
  -4   4   0 1427.56   45.10
   0   4   0 1424.76   44.80
  -4   0   0 1431.26   45.30
   4   0   0 1478.35   45.20
   0  -4   0 1459.65   45.10
  -4   0   0 1436.56   44.90
   2   3   0 1103.89   35.20
   2   3   0 1083.89   34.80
   2  -5   0 1109.09   35.00
  -5   2   0 1124.89   35.30
   3   2   0 1046.70   34.90
   3   2   0 1083.59   35.00
  -5   2   0 1102.79   34.80
   2  -5   0 1073.79   34.90
   3  -5   0 1122.69   35.10
  -5   3   0 1108.19   34.90
   3  -5   0 1113.99   35.00
  -2  -3   0 1106.09   35.30
  -3   5   0 1178.28   35.50
   5  -3   0 1225.38   35.60
   5  -2   0 1148.79   35.40
  -3  -2   0 1104.69   35.30
  -5   4   0  361.86   12.40
  -5   1   0  361.76   12.00
   4  -5   0  382.86   12.70
   1   4   0  373.96   12.90
  -5   1   0  365.86   12.80
   1  -5   0  366.46   12.40
   4   1   0  359.46   12.60
   4  -5   0  376.86   12.40
   1   4   0  366.86   12.10
  -4  -1   0  351.96   12.50
  -4  -1   0  374.36   12.90
  -1   5   0  368.96   12.30
  -1   5   0  379.46   13.10
  -1  -4   0  372.26   12.70
   5  -1   0  351.66   12.80
   5  -4   0  371.46   12.70
   5  -4   0  376.26   13.10
  -4   5   0  379.06   12.80
   0  -5   0  475.85   15.70
   0   5   0  473.05   16.00
   0   5   0  459.65   15.10
   5  -5   0  467.85   15.60
  -5   5   0  458.15   15.60
   5  -5   0  507.05   16.30
  -5   0   0  458.65   15.30
  -5   0   0  461.55   15.90
   5   0   0  456.65   15.70
   3  -6   0  446.36   15.30
   3  -6   0  453.15   15.30
  -6   3   0  451.25   15.10
   3   3   0  447.16   15.50
   3   3   0  448.06   15.10
  -6   3   0  471.45   15.70
  -3  -3   0  485.15   15.80
  -3   6   0  464.55   16.00
   6  -3   0  509.05   16.20
   2  -6   0  413.86   13.80
   2   4   0  397.86   13.40
   2  -6   0  400.76   13.50
   2   4   0  400.26   14.00
  -6   2   0  393.66   14.10
   4  -6   0  413.46   14.00
  -6   4   0  414.46   13.60
   4   2   0  399.26   13.70
  -6   2   0  404.46   13.40
   4  -6   0  422.26   13.60
   4   2   0  392.66   13.70
   6  -4   0  415.26   14.50
  -2   6   0  438.16   14.50
  -4  -2   0  413.76   14.30
  -4   6   0  415.96   14.30
  -2  -4   0  413.86   14.10
   6  -4   0  419.16   14.60
   6  -2   0  395.36   14.30
  -6   1   0  402.46   13.00
   5  -6   0  388.26   13.20
   5   1   0  389.86   13.50
  -6   1   0  394.26   13.90
   5  -6   0  408.56   14.00
  -6   5   0  387.56   13.30
   1   5   0  379.86   12.80
   1   5   0  378.06   13.90
   1  -6   0  386.96   13.40
  -5   6   0  390.26   13.70
   6  -5   0  395.76   13.70
  -1  -5   0  392.36   13.60
  -5  -1   0  378.06   13.50
  -5  -1   0  388.66   13.80
  -1   6   0  385.06   13.10
   6  -5   0  405.46   14.00
   6  -1   0  406.56   14.00
  -1   6   0  410.56   14.10
   6  -6   0   55.49    3.80
   6   0   0   51.39    4.70
  -6   6   0   55.19    4.10
  -6   0   0   60.29    3.80
   6  -6   0   69.39    4.90
   0  -6   0   65.69    4.20
   0   6   0   56.39    3.40
  -6   0   0   49.20    4.80
   0   6   0   57.79    4.90
   4  -7   0   90.89    4.30
  -7   4   0   86.09    4.90
  -7   3   0   89.29    5.10
   3  -7   0   86.29    4.70
   3   4   0   86.09    4.30
   4   3   0   88.19    4.80
   4   3   0   84.59    4.50
   3  -7   0   90.59    4.40
   4  -7   0   84.69    4.90
  -7   4   0   89.79    4.30
  -7   3   0   89.79    4.20
   3   4   0   87.79    5.30
  -3   7   0   98.99    5.90
   7  -4   0  108.09    6.00
  -4  -3   0   98.29    5.60
  -3  -4   0  101.19    5.50
   7  -3   0   97.79    5.80
  -4   7   0   97.39    5.60
  -7   2   0  259.37    9.20
   2   5   0  261.77    9.20
   5   2   0  265.17    9.60
   5   2   0  265.47    9.70
   5  -7   0  262.77    9.60
   2   5   0  265.97   10.20
   2  -7   0  266.97    9.50
   5  -7   0  277.67   10.10
   2  -7   0  253.07    9.20
  -7   2   0  260.77   10.30
  -7   5   0  267.07    9.50
  -2   7   0  284.37   10.60
   7  -5   0  272.17   10.30
   7  -5   0  270.87   10.50
  -5   7   0  262.57   10.10
   7  -2   0  271.47   10.30
  -5  -2   0  261.07   10.30
  -2  -5   0  269.57   10.10
  -7   1   0  426.76   15.60
   1  -7   0  461.55   15.40
  -7   1   0  453.85   14.90
  -7   6   0  453.75   15.30
   6  -7   0  457.45   15.70
   6  -7   0  468.65   15.40
   1   6   0  452.25   14.80
   1   6   0  452.15   16.00
   6   1   0  448.46   15.30
  -6   7   0  435.76   15.40
  -6  -1   0  430.96   15.40
   7  -6   0  465.35   16.00
   7  -1   0  466.25   15.80
  -1  -6   0  446.36   15.50
   7  -6   0  455.05   15.50
  -6  -1   0  447.16   15.70
  -1   7   0  459.45   16.00
  -1   7   0  443.86   15.00
   7   0   0   80.39    5.00
   0   7   0   82.09    4.10
  -7   0   0   77.79    5.40
  -7   0   0   82.89    4.40
  -7   7   0   78.89    4.80
   7  -7   0   79.89    4.90
   0   7   0   80.29    5.70
   7  -7   0   79.39    5.60
   0  -7   0   76.99    4.70
  -8   4   0   46.90    3.10
   4  -8   0   48.90    3.40
   4  -8   0   49.90    4.00
   4   4   0   46.70    4.20
   4   4   0   46.70    3.30
  -8   4   0   38.10    3.90
  -4  -4   0   47.30    4.60
   8  -4   0   43.90    4.90
  -4   8   0   45.30    4.90
   3   5   0  235.78    9.30
   3   5   0  239.88    8.60
   5  -8   0  238.58    8.80
   5   3   0  232.08    8.90
  -8   3   0  235.28    8.50
   5  -8   0  243.08    9.30
   3  -8   0  240.78    8.80
  -8   3   0  236.98    9.40
  -8   5   0  233.18    8.70
   5   3   0  244.38    9.10
   3  -8   0  240.68    8.80
  -3  -5   0  238.88    9.40
   8  -5   0  256.97   10.00
  -3   8   0  244.58   10.00
  -5   8   0  236.08    9.70
  -5  -3   0  238.18    9.60
   8  -3   0  243.68    9.80
  -8   2   0  153.78    7.10
  -8   2   0  153.68    6.10
   2   6   0  154.28    6.20
   2  -8   0  150.78    6.50
  -8   6   0  155.88    6.60
   6   2   0  155.38    6.50
   6  -8   0  153.58    7.50
   2   6   0  154.38    7.20
   6  -8   0  156.38    6.60
   2  -8   0  150.88    6.30
   8  -6   0  162.78    7.40
   8  -2   0  164.48    7.40
   8  -6   0  164.58    7.80
  -2  -6   0  159.58    7.10
  -6   8   0  155.78    7.40
  -6  -2   0  161.28    7.50
  -2   8   0  164.58    7.80
   1   7   0  189.98    7.20
  -8   1   0  188.28    7.20
  -8   7   0  194.68    7.90
   7  -8   0  194.58    7.80
  -8   1   0  188.48    8.30
   7   1   0  188.88    8.10
   1   7   0  192.88    8.40
   7  -8   0  196.58    8.40
   1  -8   0  187.08    7.70
  -1  -7   0  191.18    8.00
   8  -7   0  187.08    8.20
  -7  -1   0  177.18    7.90
  -1   8   0  197.08    8.70
  -7   8   0  189.58    8.10
   8  -7   0  200.28    9.10
  -7  -1   0  188.98    8.40
  -1   8   0  176.78    7.30
   8  -1   0  188.48    8.10
  -8   0   0  195.08    7.90
   0   8   0  197.48    7.50
   0   8   0  201.38    9.00
   8   0   0  189.88    8.20
  -8   8   0  196.48    8.40
   0  -8   0  191.88    8.10
   8  -8   0  210.98    9.30
   8  -8   0  201.18    8.40
  -8   0   0  193.48    8.60
   5  -9   0   22.30    3.30
  -9   5   0   24.30    3.60
   4   5   0   16.70    2.90
   4  -9   0   20.80    3.00
   5   4   0   22.20    3.20
   5  -9   0   22.50    3.30
   4  -9   0   21.20    3.40
   5   4   0   21.60    3.10
   4   5   0   28.20    3.90
  -9   5   0   21.10    2.80
  -9   4   0   20.50    2.90
  -9   4   0   21.20    3.50
  -4   9   0   26.50    4.30
  -5   9   0   23.30    4.10
   9  -4   0   18.50    4.70
  -4  -5   0   23.80    4.20
  -5  -4   0   21.50    4.30
   9  -5   0   16.60    4.60
   6  -9   0  422.26   14.20
  -9   6   0  411.86   14.00
   3   6   0  403.86   14.60
   3  -9   0  413.76   14.30
   3  -9   0  398.66   13.90
   6   3   0  413.46   14.20
  -9   3   0  403.46   13.70
   6  -9   0  407.96   14.50
   3   6   0  400.46   13.70
   6   3   0  397.06   14.00
  -9   3   0  406.06   14.50
   9  -6   0  384.46   15.80
  -3  -6   0  406.36   14.70
  -6   9   0  426.76   14.90
   2  -9   0  204.08    8.20
   2   7   0  196.58    8.80
   7  -9   0  192.48    8.00
  -9   2   0  194.08    8.60
  -9   7   0  197.68    8.00
   2  -9   0  193.08    7.70
  -9   2   0  195.18    7.50
   7  -9   0  211.38    8.90
   7   2   0  188.38    7.90
   2   7   0  192.78    7.50
  -7  -2   0  195.08    8.80
   9  -7   0  197.08    9.10
  -7   9   0  194.38    8.50
  -2   9   0  210.08    9.20
   1  -9   0   43.90    4.50
  -9   1   0   34.90    5.40
   8  -9   0   37.40    4.20
   1   8   0   37.50    3.50
  -9   8   0   36.70    4.40
   8   1   0   38.80    4.10
   8  -9   0   42.10    5.00
  -9   1   0   37.40    3.70
  -8  -1   0   28.50    4.50
  -1   9   0   39.30    5.40
  -8  -1   0   36.80    5.00
  -1  -8   0   31.80    4.70
   9  -1   0   34.40    4.50
   9  -8   0   37.70    4.20
  -1   9   0   34.90    3.70
  -8   9   0   40.90    4.60
   0  -9   0  303.57   11.70
  -9   0   0  311.97   11.60
   9  -9   0  314.07   11.90
   9  -9   0  308.87   12.40
   0   9   0  320.17   11.20
  -9   9   0  298.27   11.70
  -9   0   0  308.07   12.30
   9   0   0  315.07   12.10
   0   9   0  317.57   12.50
   5   5   0  433.16   15.50
   5 -10   0  440.66   15.40
 -10   5   0  427.36   14.80
   5   5   0  428.76   14.90
 -10   5   0  443.66   15.70
   5 -10   0  435.36   15.10
  -5  -5   0  439.86   15.80
  10  -5   0  432.26   16.00
  -5  10   0  462.35   16.20
 -10   6   0  195.58    7.80
   4 -10   0  194.68    8.20
   6   4   0  190.08    8.30
   6 -10   0  202.08    8.20
   6   4   0  188.98    7.80
   4   6   0  202.98    9.00
   4 -10   0  190.28    8.10
 -10   4   0  202.68    9.10
 -10   6   0  203.98    8.50
   6 -10   0  198.28    8.40
   4   6   0  193.58    7.70
 -10   4   0  195.58    7.60
  -6  -4   0  203.08    9.00
  10  -6   0  209.48    9.70
  -4  10   0  205.58    9.40
  10  -4   0  213.68    9.30
  -6  10   0  207.38    9.30
  -4  -6   0  206.68    8.80
   3 -10   0  104.19    5.50
   7   3   0  115.79    6.00
 -10   3   0  111.79    5.30
   7 -10   0  123.79    7.20
   3 -10   0  116.29    6.10
 -10   7   0  114.69    5.90
   3   7   0  107.49    7.00
   7   3   0  115.99    5.90
   7 -10   0  109.79    5.80
   3   7   0  110.99    5.40
  10  -3   0  108.89    6.90
  10  -7   0  124.79    8.00
  -7  10   0  116.99    7.00
  -3  10   0  118.89    7.60
  -7  -3   0  119.59    6.90
  -3  -7   0  126.79    6.50
   8 -10   0  504.75   17.90
 -10   2   0  489.25   16.50
   8   2   0  500.75   16.80
   2   8   0  479.45   17.60
 -10   2   0  475.25   17.50
   2   8   0  493.65   16.50
 -10   8   0  479.25   16.90
   8   2   0  491.45   17.10
   8 -10   0  482.95   17.00
   2 -10   0  484.85   16.50
  -8  -2   0  483.85   17.70
  -2  10   0  510.05   18.10
  10  -2   0  493.95   17.60
  -8  10   0  487.55   17.50
  10  -8   0  492.65   17.90
  -2  -8   0  499.45   17.50
  10  -8   0  489.45   18.00
   9 -10   0  235.38   10.50
   1   9   0  226.58    8.50
 -10   1   0  220.58    9.90
   9   1   0  211.48    9.20
   1 -10   0  221.68    9.10
 -10   1   0  218.98    8.80
   9 -10   0  215.28    9.20
 -10   9   0  217.48    9.30
   1   9   0  228.38   10.60
  10  -1   0  206.88    9.60
  10  -9   0  221.78    9.50
  -1  -9   0  212.18    9.30
  -1  10   0  204.48    8.70
  -1  10   0  217.48   10.80
  -9  10   0  213.78    9.50
  -9  -1   0  203.68    9.40
  -9  -1   0  215.08    9.90
  10  -9   0  233.78   10.40
  10 -10   0   -2.90    4.20
   0  10   0    3.70    4.40
 -10   0   0    2.40    3.50
  10 -10   0    1.00    3.60
   0 -10   0    3.00    3.30
 -10  10   0    3.30    3.90
  10   0   0    6.10    3.80
 -10   0   0    5.00    4.20
   0  10   0   -0.90    2.90
 -11   6   0  169.28    8.10
   5 -11   0  187.98    8.00
 -11   5   0  152.08    9.60
   6   5   0  184.48    8.40
   5   6   0  179.08    8.70
   6   5   0  180.38    7.60
   5 -11   0  181.28    7.90
 -11   5   0  178.98    7.30
   5   6   0  175.58    7.40
 -11   6   0  178.38    7.50
   6 -11   0  187.28    8.30
   6 -11   0  183.98    7.80
  11  -6   0  183.18    9.20
  -5  11   0  184.68    9.30
  -6  11   0  189.48    9.30
  11  -5   0  177.78    9.00
  -6  -5   0  185.98    8.80
  -5  -6   0  183.58    8.70
   7   4   0  704.33   23.80
 -11   4   0  705.73   24.20
 -11   7   0  698.93   24.00
   7   4   0  689.83   23.60
 -11   7   0  691.03   23.50
 -11   4   0  709.03   23.30
   4   7   0  690.83   23.30
   7 -11   0  732.83   24.20
   7 -11   0  715.13   23.80
   4 -11   0  700.53   23.50
  -4  11   0  709.73   24.70
  -7  -4   0  720.23   24.40
  11  -7   0  782.02   25.00
  11  -4   0  722.93   24.60
  -7  11   0  728.53   24.60
  -4  -7   0  702.43   24.20
   8   3   0  229.98    9.40
   3   8   0  218.68    8.70
   8 -11   0  210.08   11.10
   3 -11   0  223.38    9.00
   3 -11   0  226.88    9.20
   8 -11   0  225.68    9.10
 -11   3   0  235.28   10.10
 -11   3   0  227.78    8.80
   3   8   0  212.58   10.10
 -11   8   0  218.38    9.20
  -3  11   0  224.68   10.70
  11  -8   0  221.48   10.40
  -8  11   0  227.78   10.10
  -3  -8   0  223.78    9.80
  11  -3   0  237.98   10.30
  -8  -3   0  235.08   10.20
  11  -8   0  220.28   10.70
   2 -11   0  135.59    6.70
 -11   2   0  131.99    7.70
 -11   2   0  125.59    6.30
   9 -11   0  129.99    7.00
   2   9   0  133.19    6.40
   9   2   0  124.89    6.80
   2 -11   0  127.79    6.40
   9 -11   0  128.59    8.30
 -11   9   0  122.79    6.80
   2   9   0  132.09    8.00
   9   2   0  134.39    6.50
  -2  -9   0  126.29    7.10
  11  -2   0  128.39    7.70
  -2  11   0  159.98    8.80
  11  -9   0  131.09    7.70
  -9  11   0  129.49    7.50
  11  -9   0  122.49    9.00
  -9  -2   0  133.19    8.00
  10 -11   0  250.37   10.60
   1  10   0  244.68    9.50
   1  10   0  245.68   11.10
   1 -11   0  241.88   10.10
  10   1   0  234.78   10.10
 -11   1   0  237.98   10.80
 -11   1   0  244.08    9.80
  10 -11   0  243.58   11.00
 -11  10   0  248.18   10.60
 -10  -1   0  250.97   11.00
 -10  11   0  254.67   10.90
  -1 -10   0  248.28   10.60
  11 -10   0  240.88   11.70
  11 -10   0  238.68   10.50
  11  -1   0  242.98   10.90
  -1  11   0  213.08    9.50
  -1  11   0  271.27   12.00
 -11   0   0  140.39    8.00
  11 -11   0  156.78    9.50
   0 -11   0  154.08    7.60
 -11  11   0  147.29    7.90
   0  11   0  143.29    7.20
  11   0   0  141.19    7.90
 -11   0   0  154.68    8.70
   0  11   0  149.09    9.10
   6   6   0  970.60   32.30
   6 -12   0  987.00   32.80
 -12   6   0  981.00   32.20
   6   6   0  978.40   32.90
   6 -12   0 1050.69   32.80
 -12   6   0 1020.20   33.00
  -6  -6   0  967.90   33.00
  -6  12   0 1011.40   33.50
  12  -6   0 1004.20   33.50
   5 -12   0  204.98    8.90
   5   7   0  205.28    8.40
   5   7   0  198.78    9.90
   7   5   0  210.38    9.30
 -12   7   0  191.18    9.00
 -12   7   0  196.58    8.50
 -12   5   0  201.68    9.40
   5 -12   0  200.58    9.00
   7 -12   0  200.78    9.40
 -12   5   0  203.08    8.20
   7   5   0  193.98    8.50
  12  -5   0  204.68   10.00
  -5  -7   0  202.88    9.40
  12  -7   0  217.48   10.30
  -7  -5   0  203.98    9.70
  -5  12   0  206.88   10.20
  -7  12   0  230.28   10.20
 -12   4   0  261.47   11.40
   8 -12   0  255.77   11.40
 -12   8   0  280.37   11.40
   8   4   0  275.67   10.80
   4   8   0  266.67   10.20
   4 -12   0  251.77   10.50
   4 -12   0  278.57   10.90
 -12   8   0  264.87   10.50
 -12   4   0  267.67   10.20
   4   8   0  277.17   11.70
   8   4   0  265.17   11.00
   8 -12   0  255.47   10.70
  -4  12   0  277.47   12.20
  12  -8   0  286.07   12.10
  12  -4   0  284.27   11.90
  -8  -4   0  282.77   11.70
  -4  -8   0  264.57   11.30
  -8  12   0  268.47   11.70
   3 -12   0  704.03   23.50
 -12   3   0  709.13   23.00
   9 -12   0  727.13   24.40
   3   9   0  688.93   23.00
   3   9   0  691.03   24.20
   9 -12   0  626.74   24.30
   9   3   0  715.03   23.40
 -12   9   0  636.94   24.10
   3 -12   0  676.03   23.00
 -12   3   0  711.63   24.40
   9   3   0  693.13   23.50
  12  -3   0  708.83   24.20
  -9  12   0  720.53   24.40
  12  -9   0  724.93   24.60
  -3  -9   0  699.93   23.90
  -3  12   0  682.73   24.50
  12  -9   0  671.23   24.50
  -9  -3   0  688.93   24.20
 -12  10   0  157.18    7.90
   2 -12   0  168.58    8.00
  10 -12   0  157.48    9.60
   2 -12   0  159.98    7.50
  10   2   0  173.48    7.90
   2  10   0  169.68    7.60
  10   2   0  169.98    8.70
  10 -12   0  167.48    9.60
 -12   2   0  168.88    9.10
   2  10   0  168.38    9.40
 -12   2   0  163.88    7.70
 -10  -2   0  176.58    9.30
  -2  12   0  174.08    9.90
  -2 -10   0  165.78    8.50
  12  -2   0  174.28    9.60
  12 -10   0  165.08    9.60
  12 -10   0  179.48    9.70
 -10  12   0  175.98    8.90
   1 -12   0   16.40    4.00
 -12  11   0   15.30    4.30
 -12   1   0   13.20    5.10
 -12   1   0   18.00    4.30
  11 -12   0    5.10    5.00
   1  11   0   16.70    5.50
  11   1   0   11.50    4.60
   1  11   0   14.70    3.50
  11 -12   0   18.80    4.70
  12 -11   0    6.30    5.70
  -1 -11   0   10.10    4.00
 -11  12   0   16.20    5.00
  12 -11   0   12.10    4.90
 -11  -1   0   17.20    5.30
  -1  12   0   39.40    7.00
  12  -1   0   15.20    4.70
 -12   0   0  116.09    8.20
  12 -12   0  106.59    7.70
   0  12   0  103.99    6.60
   0  12   0  105.59    8.40
   0 -12   0  105.39    6.90
 -12  12   0  106.29    7.80
  12   0   0  100.69    7.30
 -12   0   0   93.79    7.20
  12 -12   0   92.69    8.20
   7   6   0  343.87   13.50
   6 -13   0  340.57   13.20
 -13   6   0  340.17   12.50
 -13   7   0  327.17   13.30
   7 -13   0  325.77   13.30
 -13   6   0  345.77   13.60
   6   7   0  340.77   12.50
   7   6   0  317.07   13.30
 -13   7   0  322.07   12.30
   7 -13   0  339.07   12.90
   6   7   0  342.07   13.50
   6 -13   0  347.87   13.00
  13  -6   0  346.97   14.10
  13  -7   0  341.97   14.20
  -7  13   0  341.97   14.10
  -6  13   0  358.96   14.30
  -6  -7   0  328.17   13.40
  -7  -6   0  345.97   13.70
   5   8   0 1078.09   36.10
 -13   5   0 1073.29   36.00
   8 -13   0 1120.79   36.10
   8   5   0 1077.29   35.70
   8   5   0 1092.19   35.40
   8 -13   0 1105.39   35.60
 -13   5   0 1090.69   35.10
 -13   8   0 1051.29   35.20
   5   8   0 1064.39   35.10
   5 -13   0 1055.09   35.30
   5 -13   0 1090.09   35.50
 -13   8   0 1038.30   35.70
  -8  13   0 1103.59   36.50
  -5  13   0 1089.99   36.50
  13  -5   0 1103.79   36.40
  -5  -8   0 1080.39   35.90
  -8  -5   0 1089.99   36.20
  13  -8   0 1150.88   36.60
   4 -13   0  302.77   12.10
   4 -13   0  315.47   12.30
   4   9   0  331.17   13.40
   9   4   0  311.67   12.50
   9   4   0  318.87   12.50
   9 -13   0  307.97   12.50
   9 -13   0  313.97   13.10
 -13   4   0  315.87   13.20
 -13   9   0  311.57   12.70
   4   9   0  321.67   11.90
 -13   4   0  309.87   11.90
  13  -9   0  308.37   13.60
  -9  13   0  325.27   13.30
  -9  -4   0  324.17   13.40
  -4  -9   0  330.67   13.00
  -4  13   0  329.97   13.90
 -13   3   0  108.99    7.80
   3  10   0  104.59    8.00
 -13   3   0  104.39    6.00
   3 -13   0   93.79    6.30
  10   3   0  101.39    6.30
 -13  10   0   94.49    6.80
   3  10   0  102.79    6.00
  10 -13   0   95.39    8.40
  10 -13   0  103.49    6.40
  10   3   0   92.29    6.40
   3 -13   0   97.39    6.20
  -3  13   0  111.69    8.50
  13 -10   0   98.39    8.30
  -3 -10   0   97.79    7.00
 -10  -3   0   94.69    7.80
  13  -3   0   97.19    7.80
 -10  13   0   98.19    8.40
  11 -13   0  170.78   10.50
 -13  11   0  180.58    9.10
  11   2   0  182.78    8.50
   2 -13   0  177.88    8.60
   2 -13   0  174.68    8.00
   2  11   0  183.18    8.40
  11 -13   0  173.88    8.80
  11   2   0  192.48    9.50
 -13   2   0  177.98    9.80
 -13   2   0  178.38    8.60
   2  11   0  186.78   10.90
  13  -2   0  163.28    9.30
 -11  13   0  185.08    9.60
  -2  13   0  174.68   10.80
  -2 -11   0  182.78    9.70
  13 -11   0  177.78   10.60
 -11  -2   0  182.08    9.90
  13 -11   0  173.98   10.30
 -13   1   0  137.69    8.50
 -13  12   0  140.09    8.20
   1  12   0  152.98    9.90
   1  12   0  155.68    8.00
 -13   1   0  165.48    9.50
  12   1   0  142.09    9.00
   1 -13   0  154.68    8.10
  12 -13   0  152.08    9.10
  12 -13   0  145.59   10.30
 -12  -1   0  158.08    9.70
  -1  13   0  155.48   10.20
  13 -12   0  149.39    9.60
 -12  13   0  134.09    8.70
  -1 -12   0  148.89    8.40
  13  -1   0  152.48    9.60
  13 -12   0  130.59   10.40
   0  13   0   73.19    9.50
  13 -13   0   45.60    7.50
   0  13   0   43.30    5.90
  13 -13   0   58.39    7.40
 -13   0   0   46.90    6.50
 -13   0   0   56.99    7.70
 -13  13   0   47.10    6.60
   0 -13   0   57.09    6.30
  13   0   0   45.90    6.10
   7   7   0 1591.44   52.19
   7 -14   0 1593.94   52.89
   7   7   0 1646.64   53.09
 -14   7   0 1609.24   52.19
   7 -14   0 1668.83   52.69
 -14   7   0 1665.13   53.29
  -7  -7   0 1605.34   53.09
  -7  14   0 1694.93   53.69
  14  -7   0 1703.43   53.59
   8 -14   0  491.05   17.80
   6 -14   0  454.55   17.10
   8   6   0  452.25   16.80
   6 -14   0  466.35   17.20
   8   6   0  458.15   17.50
   6   8   0  471.05   18.00
 -14   6   0  456.85   17.50
 -14   6   0  460.75   16.50
   8 -14   0  448.46   16.80
 -14   8   0  452.95   17.40
 -14   8   0  464.65   16.70
  14  -8   0  480.45   18.40
  -8  14   0  485.25   18.40
  14  -6   0  484.25   18.60
  -8  -6   0  472.35   17.80
  -6  -8   0  480.75   17.70
  -6  14   0  489.75   18.50
   5   9   0  116.69    6.70
 -14   5   0  110.09    8.00
   9   5   0  117.29    7.10
   9   5   0  117.39    7.70
 -14   5   0  111.59    6.50
   5   9   0  130.39    9.30
   9 -14   0  109.19    8.50
 -14   9   0  114.59    6.80
   9 -14   0  114.29    7.10
   5 -14   0  117.69    6.80
   5 -14   0  113.69    7.30
 -14   9   0  118.99    8.00
  14  -5   0  131.09    8.70
  -9  14   0  108.79    8.50
  -9  -5   0  130.79    8.50
  14  -9   0  122.19    9.70
  -5  -9   0  116.09    7.80
  -5  14   0  110.39    9.00
   4 -14   0  465.45   16.90
  10   4   0  437.86   17.30
   4  10   0  468.95   18.00
   4 -14   0  449.36   16.70
 -14   4   0  475.55   16.60
   4  10   0  456.25   16.50
  10 -14   0  471.95   18.00
 -14  10   0  447.26   16.90
 -14   4   0  455.05   17.90
 -14  10   0  447.06   17.20
  10 -14   0  466.95   17.20
  10   4   0  466.35   17.10
 -10  14   0  469.55   18.00
  -4  14   0  471.25   18.50
  -4 -10   0  465.85   17.60
  14  -4   0  466.65   18.00
  14 -10   0  484.95   18.70
 -10  -4   0  461.95   17.90
  11   3   0  143.39    8.20
   3  11   0  154.08    7.60
   3 -14   0  145.39    8.40
  11   3   0  144.09    8.60
  11 -14   0  131.29    9.90
  11 -14   0  137.79    8.50
 -14  11   0  136.29    8.50
 -14   3   0  140.49    9.40
   3 -14   0  140.69    7.60
   3  11   0  151.88    9.70
 -14   3   0  136.69    7.50
  14  -3   0  130.29    9.10
  -3  14   0  153.88   11.10
  -3 -11   0  152.28    8.60
  14 -11   0  130.99    9.80
 -11  14   0  134.69   10.00
 -11  -3   0  147.59    9.50
   2  12   0   78.29    6.30
 -14   2   0   76.79    9.20
   2 -14   0   72.69    6.10
  12 -14   0   78.79    7.40
 -14  12   0   81.99    7.40
   2 -14   0   77.19    7.20
  12 -14   0   68.69    9.00
  12   2   0   60.49    7.50
  12   2   0   84.79    6.60
   2  12   0   76.49    8.50
 -14   2   0   69.19    6.70
  14 -12   0   76.19    8.80
  14 -12   0   67.79    8.40
 -12  -2   0   94.79    8.30
 -12  14   0   78.79    7.70
  14  -2   0   78.99    7.70
  -2  14   0   74.39    9.00
  -2 -12   0   77.99    6.90
   1  13   0   17.40    4.70
   1 -14   0   22.10    4.40
 -14   1   0    8.60    5.30
 -14   1   0   16.00    6.50
   1 -14   0   18.20    4.70
  13   1   0   32.00    5.50
  13 -14   0    1.60    6.10
   1  13   0   22.00    7.30
  13   1   0   19.20    5.80
 -14  13   0   14.40    5.60
  13 -14   0   16.00    5.00
  14  -1   0   10.40    5.60
  -1 -13   0   23.50    5.10
 -13  14   0    7.50    5.40
 -13  -1   0   16.60    6.50
  -1  14   0   18.40    7.20
  14 -13   0    6.50    6.50
  14 -13   0   13.80    5.60
  14 -14   0    7.00    5.50
  14   0   0    4.10    5.80
   0 -14   0    7.20    4.60
 -14  14   0    7.70    6.10
   0  14   0    3.90    6.60
 -14   0   0   22.60    6.60
  14 -14   0    7.20    7.10
   7 -15   0  275.77   11.70
 -15   8   0  273.77   12.60
 -15   7   0  284.67   11.50
   7   8   0  287.07   11.70
   7 -15   0  296.37   12.50
   8 -15   0  290.07   13.30
   8   7   0  296.87   13.10
 -15   7   0  287.07   12.80
 -15   8   0  279.47   11.80
   8   7   0  284.77   11.90
   8 -15   0  287.07   11.80
   7   8   0  290.07   13.30
  -8  15   0  304.17   13.90
  -7  15   0  307.17   13.90
  -7  -8   0  297.07   12.90
  15  -7   0  288.57   13.50
  15  -8   0  294.57   13.70
  -8  -7   0  296.87   13.10
   6   9   0  914.31   31.10
 -15   9   0  883.81   29.70
   9   6   0  872.31   29.80
   6 -15   0  890.31   30.20
   9 -15   0  899.21   30.60
 -15   6   0  872.11   30.60
 -15   9   0  867.71   30.40
 -15   6   0  914.41   29.60
   6   9   0  887.61   29.60
   9 -15   0  875.81   30.00
   9   6   0  901.71   30.50
  15  -6   0  916.51   31.00
  -6  15   0  926.51   31.50
  -9  -6   0  877.71   30.70
  15  -9   0  896.11   31.30
  -6  -9   0  883.01   30.50
  -9  15   0  888.21   31.00
   5 -15   0  258.97   11.40
  10 -15   0  245.48   12.50
 -15  10   0  251.67   12.00
 -15  10   0  255.07   11.10
 -15   5   0  253.17   12.20
  10 -15   0  249.18   11.50
   5 -15   0  243.18   11.30
 -15   5   0  262.97   10.90
  10   5   0  265.37   11.70
  10   5   0  256.27   11.30
   5  10   0  248.48   12.40
  15  -5   0  248.28   12.50
 -10  15   0  281.27   12.70
  -5  15   0  268.97   13.10
  15 -10   0  258.27   12.90
  -5 -10   0  265.77   12.20
 -10  -5   0  265.07   12.50
   4  11   0  100.89    6.90
   4 -15   0   91.09    6.90
 -15   4   0  113.89    9.60
   4 -15   0   97.89    7.00
  11   4   0  101.39    7.80
  11 -15   0   98.99    7.70
 -15  11   0  116.19    8.70
  11 -15   0   80.49    9.00
 -15   4   0  106.49    6.90
   4  11   0   98.29    8.90
 -15  11   0   94.29    7.80
  11   4   0  104.39    7.90
  15 -11   0   95.79    9.00
  -4 -11   0  104.49    8.00
 -11  15   0   81.89    8.50
  -4  15   0   98.69    9.60
 -11  -4   0  118.19    8.90
  15  -4   0   90.39    8.70
   3  12   0  110.29   10.50
 -15  12   0  103.39    8.10
   3 -15   0  103.79    7.30
 -15   3   0  108.79    8.90
  12 -15   0   74.59    9.50
   3  12   0  107.09    7.20
 -15   3   0   90.19    7.30
  12   3   0   97.49    8.60
  12 -15   0  103.59    8.00
  12   3   0  102.39    7.50
   3 -15   0   94.39    7.20
  -3  15   0  103.49    9.70
  -3 -12   0  112.49    8.00
  15  -3   0   85.29    8.30
 -12  -3   0  110.99    9.00
  15 -12   0   82.99    9.10
 -12  15   0   99.99    9.60
   2 -15   0   38.10    6.10
  13 -15   0   27.60    6.10
 -15   2   0   41.80    7.30
  13   2   0   28.30    6.20
  13 -15   0   28.70    7.50
   2  13   0   29.10    7.30
   2  13   0   34.90    6.00
  13   2   0   46.20    6.20
 -15  13   0   23.90    6.00
   2 -15   0   34.10    5.20
 -15   2   0   42.30    6.00
  15 -13   0   26.80    7.00
  15 -13   0   34.00    7.60
 -13  15   0   30.40    6.60
  -2 -13   0   31.10    5.90
 -13  -2   0   44.60    8.00
  -2  15   0   29.20    7.50
  15  -2   0   30.50    6.90
  14 -15   0   21.10    7.30
   1  14   0   25.50    5.30
 -15   1   0   19.70    6.30
   1  14   0   31.80    7.40
  14   1   0   20.00    5.80
   1 -15   0   23.10    4.70
  14 -15   0   19.10    6.10
 -15   1   0   27.60    6.80
   1 -15   0   25.00    5.90
  14   1   0   36.50    6.10
 -15  14   0   19.50    6.10
 -14  15   0   26.40    6.90
  15 -14   0   26.10    7.60
 -14  -1   0   23.80    6.80
  -1 -14   0   17.20    5.50
  15  -1   0   17.10    6.50
  -1  15   0   13.60    7.20
  15 -14   0   26.90    7.20
   0  15   0   13.20    7.80
  15   0   0    8.30    5.70
  15 -15   0   13.10    6.60
 -15  15   0    9.20    6.20
  15 -15   0   19.50    7.50
 -15   0   0   18.10    7.90
   0 -15   0    9.90    5.20
   8   8   0  840.32   29.30
   8   8   0  815.72   28.00
 -16   8   0  847.82   29.30
   8 -16   0  875.31   28.70
   8 -16   0  836.52   29.10
  -8  16   0  821.62   29.70
  16  -8   0  823.82   29.60
  -8  -8   0  811.52   29.10
 -16   9   0  172.88   10.70
   9 -16   0  150.58    8.70
 -16   7   0  180.48    8.70
   7   9   0  178.78   11.30
   7   9   0  163.38    8.80
   7 -16   0  168.28    8.70
 -16   7   0  170.78   10.00
 -16   9   0  174.48    8.70
   9   7   0  186.38    9.40
   9   7   0  162.58   10.50
   9 -16   0  154.38   10.20
   7 -16   0  154.88    9.40
  -7  -9   0  186.98   10.20
  16  -9   0  180.18   11.10
  -9  -7   0  177.18   10.40
  -7  16   0  191.08   11.40
  -9  16   0  178.38   11.00
  16  -7   0  185.78   10.90
  10   6   0  135.09    9.10
 -16   6   0  149.59    9.50
 -16  10   0  152.48    9.80
  10 -16   0  126.99    9.90
   6 -16   0  134.79    7.90
   6 -16   0  123.69    8.90
   6  10   0  130.79   10.50
  10   6   0  127.99    8.20
  10 -16   0  123.39    8.10
   6  10   0  126.99    7.70
 -16  10   0  133.19    8.40
 -16   6   0  141.59    7.80
 -10  16   0  159.48   10.10
  16 -10   0  121.49   10.10
  -6 -10   0  128.29    9.10
  -6  16   0  130.19   10.60
  16  -6   0  122.49    9.80
 -10  -6   0  155.18    9.80
   5  11   0  385.56   14.50
  11 -16   0  367.36   15.10
  11   5   0  367.26   15.50
  11 -16   0  356.86   16.10
  11   5   0  367.66   14.90
 -16   5   0  380.16   14.40
 -16  11   0  371.16   14.80
   5  11   0  362.66   16.00
 -16   5   0  364.26   15.80
   5 -16   0  394.96   15.20
 -16  11   0  362.46   15.50
 -11  -5   0  371.46   15.90
  -5  16   0  381.86   16.60
  16 -11   0  367.86   17.00
  -5 -11   0  383.96   15.50
  16  -5   0  367.66   16.10
 -11  16   0  367.16   16.60
 -16  12   0   93.99    7.90
  12 -16   0   95.69    7.40
   4 -16   0  103.09    7.90
 -16  12   0   97.39    7.80
 -16   4   0  112.29   10.20
   4  12   0   89.79    9.40
   4 -16   0   89.39    7.50
   4  12   0   89.49   10.50
 -16   4   0   94.09    7.20
  12 -16   0   86.19    9.60
  12   4   0   90.19    7.80
  12   4   0   87.99    8.10
  -4 -12   0  110.59    8.40
  16 -12   0   86.69    9.50
  16  -4   0   74.19    8.60
  -4  16   0   94.79    9.90
 -12  16   0   87.49    9.00
 -12  -4   0  117.99    9.20
  13   3   0   35.30    5.90
  13 -16   0   34.80    7.90
  13 -16   0   33.60    6.10
   3 -16   0   32.90    6.20
 -16   3   0   33.30    5.90
   3 -16   0   33.70    5.60
   3  13   0   31.10    7.40
 -16   3   0   30.70    7.20
  13   3   0   39.10    6.80
 -16  13   0   39.90    7.30
  16  -3   0   43.80    7.70
 -13  -3   0   32.90    7.20
  16 -13   0   27.40    7.90
  -3  16   0   29.50    8.00
 -13  16   0   42.90    7.80
  -3 -13   0   37.70    6.80
  14   2   0    9.10    5.90
   2 -16   0   11.90    5.70
 -16  14   0    8.70    5.40
 -16   2   0   13.00    7.00
  14 -16   0   12.70    6.80
   2 -16   0   14.80    5.00
   2  14   0   17.90    7.00
   2  14   0    3.50    5.60
 -16   2   0    4.60    5.80
  14 -16   0    9.10    6.00
  16 -14   0    9.70    7.30
 -14  -2   0   11.30    6.90
 -14  16   0    6.20    6.90
  -2  16   0    9.80    7.40
  16  -2   0    0.40    6.00
  16 -14   0    3.10    7.70
  -2 -14   0    9.70    5.30
   1  15   0   -2.70    5.90
   1 -16   0   11.90    4.70
  15   1   0    0.60    5.40
 -16   1   0   17.30    7.20
  15 -16   0    3.80    6.20
 -16  15   0    3.50    5.90
   1  15   0   -0.20    7.90
  15 -16   0   10.60    8.00
  15   1   0   14.60    5.00
   1 -16   0    9.50    5.70
  16 -15   0   14.00    7.80
  16 -15   0    6.10    7.20
 -15  16   0    0.80    6.20
  -1 -15   0   12.00    6.10
  16  -1   0   -3.20    5.50
 -15  -1   0   20.60    6.90
  -1  16   0    5.30    7.30
 -16  16   0  110.59    9.60
   0  16   0   92.99   11.40
  16   0   0   96.19    8.80
  16 -16   0  107.19   11.60
  16   0   0  115.09    8.00
  16 -16   0   88.69   10.40
 -16   0   0  108.09   10.10
   0 -16   0  120.69    7.70
   0 -16   0  101.59    8.20
   8   9   0  150.48    8.40
   8 -17   0  131.59   10.30
 -17   8   0  168.48   10.90
   9   8   0  143.19   10.70
   8 -17   0  151.78    8.90
 -17   9   0  157.78    9.90
 -17   8   0  148.89    8.50
   9 -17   0  141.29   10.00
 -17   9   0  145.19    8.70
   9   8   0  152.58    8.60
   9 -17   0  157.28    9.10
   8   9   0  149.09   11.10
  17  -8   0  169.18   10.70
  -8  -9   0  150.78    9.90
  -9  17   0  158.28   10.90
  -8  17   0  153.88   11.30
  17  -9   0  141.89   10.70
  -9  -8   0  160.68   10.00
   7 -17   0  479.75   18.10
 -17  10   0  472.15   19.10
  10 -17   0  460.85   19.00
  10 -17   0  477.35   18.00
 -17   7   0  462.55   18.70
   7  10   0  486.95   19.60
   7  10   0  481.45   17.50
   7 -17   0  446.16   18.30
 -17   7   0  468.55   17.60
  10   7   0  470.75   19.20
 -17  10   0  465.25   17.70
  10   7   0  470.15   17.80
  -7  17   0  494.65   19.70
 -10  17   0  479.85   19.10
 -10  -7   0  479.75   18.90
  -7 -10   0  467.95   18.60
  17  -7   0  467.95   19.20
  17 -10   0  487.25   19.40
  11 -17   0  125.59    8.70
 -17   6   0  128.59    9.80
   6 -17   0  105.29    8.80
 -17  11   0  128.49    8.30
   6  11   0  123.99   10.80
   6  11   0  129.79    7.90
   6 -17   0  125.69    8.60
 -17   6   0  124.39    8.00
 -17  11   0  122.19    9.80
  11   6   0  125.59    8.50
  11 -17   0  111.69   10.00
  11   6   0  111.49    9.30
  17 -11   0  120.99   10.60
  -6  17   0  116.59   10.80
  -6 -11   0  146.69    9.60
 -11  17   0  121.19   10.30
 -11  -6   0  151.28   10.00
  17  -6   0  123.69   11.00
 -17   5   0   21.10    7.50
  12 -17   0   12.00    7.20
   5  12   0    7.70    4.50
 -17   5   0    6.00    4.80
 -17  12   0   12.40    6.30
  12 -17   0    9.90    5.40
  12   5   0    2.30    5.00
 -17  12   0   11.90    5.20
   5  12   0    6.80    6.80
  12   5   0    6.40    6.00
   5 -17   0    2.50    5.20
   5 -17   0   11.40    5.30
 -12  17   0    2.50    7.40
 -12  -5   0   17.80    6.80
  -5  17   0   11.80    7.40
  17  -5   0    3.90    6.50
  17 -12   0    7.30    7.00
  -5 -12   0    7.50    6.50
   4  13   0    5.10    6.80
  13 -17   0   14.50    6.80
 -17   4   0   12.60    6.70
 -17  13   0   14.20    5.50
  13 -17   0   11.90    5.60
   4 -17   0   -0.10    7.80
   4  13   0    9.90    5.20
 -17   4   0   13.10    5.30
 -17  13   0   16.80    6.30
   4 -17   0    9.90    5.00
  13   4   0   10.20    5.80
  13   4   0   -0.70    5.20
  17 -13   0    6.90    6.90
  -4  17   0    7.10    7.90
  -4 -13   0   13.10    6.00
 -13  -4   0   18.30    6.90
 -13  17   0   13.00    6.50
  17  -4   0    7.70    6.90
  14   3   0   30.20    6.10
  14 -17   0   39.50    7.10
  14 -17   0   43.00    8.70
 -17   3   0   34.90    6.50
   3 -17   0   30.90    6.40
 -17   3   0   47.10    8.50
   3  14   0   35.20    8.00
  14   3   0   30.90    6.30
 -17  14   0   42.90    6.80
   3  14   0   36.80    5.80
 -17  14   0   39.20    7.40
 -14  -3   0   35.50    7.60
 -14  17   0   37.70    7.30
  17  -3   0   35.20    7.30
  -3  17   0   30.10    8.10
  17 -14   0   46.90    8.80
  -3 -14   0   34.70    6.50
 -17   2   0  125.39   11.00
   2  15   0  108.59    9.20
  15 -17   0  104.59   11.50
 -17  15   0  110.29    9.40
   2  15   0   82.19   10.10
   2 -17   0   92.09   12.20
  15   2   0  109.49    9.40
  15 -17   0  100.79    9.60
   2 -17   0  109.19    9.00
  15   2   0  109.19    8.20
 -15  17   0  104.59   10.30
  17 -15   0   88.29   11.30
  17 -15   0  121.89   11.60
  -2  17   0   94.69   10.20
  -2 -15   0  117.69    9.50
 -15  -2   0   98.79    9.80
  17  -2   0   97.19    9.00
  16   1   0  147.19   10.50
   1  16   0  148.79   11.40
 -17  16   0  150.48   10.60
   1 -17   0  149.79    9.40
 -17   1   0  161.38   11.10
  16 -17   0  149.39   11.40
  16 -17   0  143.29   11.20
 -16  17   0  150.48   10.10
  17  -1   0  158.18   10.10
  17 -16   0  154.98   12.30
  17 -16   0  153.78   12.10
  -1 -16   0  149.19    9.50
 -16  -1   0  172.38   12.00
  -1  17   0  136.39   11.10
   0  17   0   14.10    7.00
  17 -17   0   12.50    7.10
   0 -17   0   15.80    6.10
 -17  17   0   19.40    6.80
 -17   0   0   25.10    7.10
  17 -17   0    2.50    7.40
  17   0   0   14.90    6.60
 -18   9   0  370.36   14.60
   9 -18   0  366.66   15.80
   9 -18   0  363.86   15.10
   9   9   0  362.26   16.60
   9   9   0  364.26   14.80
 -18   9   0  370.06   15.90
  -9  18   0  371.56   16.70
  -9  -9   0  350.16   15.70
  18  -9   0  369.46   16.40
 -18   8   0   95.69    7.60
 -18   8   0  116.99   10.30
   8  10   0   94.59    7.80
  10 -18   0  102.39    9.90
  10   8   0   88.79    9.80
   8 -18   0  114.69    8.10
  10   8   0   88.39    7.60
  10 -18   0   87.39    8.00
 -18  10   0  110.29   10.00
 -18  10   0  111.89    8.00
   8 -18   0   93.29    9.50
   8  10   0   83.99    9.10
  18  -8   0   88.29    9.70
  18 -10   0   86.19   11.20
  -8 -10   0   99.79    8.80
  -8  18   0   84.09   10.40
 -10  18   0  122.99   10.10
 -10  -8   0  100.19    9.10
   7  11   0   23.60    7.10
 -18  11   0   34.40    7.40
   7  11   0   28.70    5.50
  11 -18   0   27.70    7.20
 -18   7   0   38.70    7.80
  11 -18   0   30.40    5.90
  11   7   0   19.70    7.00
   7 -18   0   15.20    6.30
  11   7   0   28.50    5.80
   7 -18   0   26.00    5.30
 -18  11   0   20.00    5.40
  18 -11   0   17.70    7.50
  18  -7   0   17.30    7.00
 -11  18   0   19.90    7.30
  -7  18   0   30.50    8.30
  -7 -11   0   38.60    7.70
 -11  -7   0   26.20    7.00
   6  12   0   65.49    7.00
 -18  12   0   61.89    7.80
   6 -18   0   58.39    7.50
   6  12   0   49.60    8.20
   6 -18   0   45.30    6.80
 -18   6   0   68.99    9.80
  12   6   0   52.59    7.50
  12 -18   0   53.89    7.60
  12   6   0   51.29    7.70
  12 -18   0   76.69    9.80
 -18   6   0   57.39    7.00
 -18  12   0   58.79    7.10
  -6 -12   0   61.29    9.00
 -12  18   0   49.30    8.20
  18 -12   0   66.79    9.50
  18  -6   0   58.79    8.90
 -12  -6   0   76.99    8.60
  -6  18   0   47.60    8.80
 -18  13   0   28.00    6.20
  13 -18   0   29.40    6.60
   5 -18   0   15.00    5.90
  13   5   0   33.30    6.30
 -18   5   0   36.80    7.30
   5  13   0   32.80    7.40
   5 -18   0   31.20    5.70
  13   5   0   26.90    6.80
 -18  13   0   30.80    6.90
  13 -18   0   23.30    7.80
 -18   5   0   34.90    6.00
   5  13   0   40.80    6.00
  -5  18   0   24.00    8.70
  18 -13   0   20.70    7.50
  -5 -13   0   41.80    7.40
 -13  18   0   25.50    8.00
 -13  -5   0   26.80    7.10
  18  -5   0   28.70    6.90
  14 -18   0   52.79    8.10
 -18  14   0   64.89    7.70
   4 -18   0   41.10    6.40
 -18   4   0   73.99   10.00
 -18  14   0   77.59    8.50
  14   4   0   55.19    8.00
 -18   4   0   49.40    7.70
   4  14   0   56.49    7.60
   4  14   0   59.09    9.10
   4 -18   0   59.59    7.70
  14 -18   0   60.49    9.00
  14   4   0   62.19    8.00
 -14  -4   0   55.99    8.50
  -4  18   0   58.99    8.80
  -4 -14   0   65.89    7.70
 -14  18   0   64.79    8.70
  18 -14   0   65.79    9.40
  18  -4   0   69.79    8.50
  15 -18   0   64.79    8.70
   3 -18   0   65.19    7.20
   3  15   0   70.39   10.90
 -18   3   0   68.89   10.10
  15   3   0   49.90    8.10
   3  15   0   52.19    7.80
 -18   3   0   55.49    8.50
   3 -18   0   59.59    7.00
 -18  15   0   82.59    8.80
  15 -18   0   74.09   10.50
  15   3   0   65.89    7.30
 -18  15   0   70.09    8.10
  -3  18   0   54.99    9.20
  -3 -15   0   70.49    7.60
  18  -3   0   57.39    8.30
  18 -15   0   72.49   10.70
 -15  18   0   60.89    8.30
 -15  -3   0   66.59    8.80
  16 -18   0   13.90    6.30
  16   2   0    8.10    5.40
   2 -18   0    3.30    6.30
   2  16   0   -4.30    5.10
  16 -18   0   10.80    8.00
  16   2   0   11.10    6.00
 -18   2   0   11.70    6.80
 -18  16   0   12.10    6.30
   2  16   0    7.80    7.70
   2 -18   0   11.30    5.80
  18  -2   0    7.60    6.50
  18 -16   0   10.70    7.00
  -2  18   0    8.20    6.90
 -16  18   0    7.60    7.00
  -2 -16   0   13.50    5.60
 -16  -2   0   16.00    6.70
  17 -18   0  107.69   10.70
 -18   1   0  104.59    9.70
   1 -18   0  110.39    8.60
  17   1   0  119.39    9.70
  17 -18   0  130.99   11.70
   1  17   0  111.09   10.20
  17   1   0   94.89    9.60
 -18  17   0  112.09    8.90
  18  -1   0  105.29    9.00
 -17  18   0  109.29    9.90
  18 -17   0  102.69   11.20
  18 -17   0  118.19   10.60
  -1 -17   0  119.49    9.30
 -17  -1   0  108.09    9.50
  -1  18   0  106.59   11.30
  18 -18   0  309.67   15.80
   0  18   0  288.07   14.70
 -18  18   0  273.57   13.60
 -18   0   0  300.17   15.10
  18   0   0  280.87   13.50
  18 -18   0  262.97   16.00
   0 -18   0  277.57   13.20
   9 -19   0   24.50    5.70
  10   9   0   27.70    5.50
  10   9   0   20.50    7.60
   9  10   0   36.30    7.90
   9 -19   0   19.50    6.80
  10 -19   0   19.00    7.20
   9  10   0   30.00    5.40
 -19  10   0   31.20    6.70
 -19   9   0   26.00    5.40
 -19  10   0   19.90    5.20
 -19   9   0   30.30    6.60
  10 -19   0   29.50    5.60
  19 -10   0   30.40    8.30
  -9  19   0   26.30    7.50
 -10  -9   0   23.90    6.70
 -10  19   0   25.30    7.40
  -9 -10   0   30.60    6.70
  19  -9   0   14.70    7.00
   8 -19   0   62.99    6.30
 -19   8   0   74.29    7.30
  11 -19   0   64.79   10.00
  11   8   0   64.69    7.10
  11   8   0   52.79    9.00
   8  11   0   62.49    9.90
  11 -19   0   72.39    7.30
 -19  11   0   68.09    7.30
 -19  11   0   76.69    9.00
   8 -19   0   57.99    9.00
 -19   8   0   71.39    8.40
   8  11   0   67.89    6.50
  19 -11   0   64.99    9.40
  19  -8   0   57.79    8.80
  -8 -11   0   64.99    8.50
 -11  -8   0   59.79    8.20
  -8  19   0   68.29   11.00
 -11  19   0   49.99    8.90
  12 -19   0   58.19    9.40
   7 -19   0   50.29    7.60
  12 -19   0   53.59    7.30
 -19   7   0   70.69    8.50
 -19  12   0   52.49    7.20
   7  12   0   65.59    7.00
 -19  12   0   70.89    9.10
   7  12   0   48.60    8.00
  12   7   0   69.59    7.60
 -19   7   0   63.49   10.10
  12   7   0   53.69    9.30
   7 -19   0   56.79    7.30
 -12  -7   0   56.69    8.30
  -7  19   0   53.59    9.40
  19  -7   0   43.90    7.80
  19 -12   0   54.09    8.30
  -7 -12   0   47.80    7.70
 -12  19   0   54.89    8.70
 -19  13   0   69.19    8.80
 -19   6   0   71.39    8.50
   6 -19   0   53.29    7.10
  13 -19   0   67.59    7.90
   6  13   0   57.59    8.70
   6 -19   0   52.59    6.60
  13 -19   0   67.79   10.20
   6  13   0   67.19    7.20
 -19  13   0   68.19    7.80
  13   6   0   51.09    9.20
 -19   6   0   43.70    9.20
  13   6   0   61.19    7.70
 -13  -6   0   73.19    8.60
 -13  19   0   59.29    8.80
  -6  19   0   54.89    9.20
  19 -13   0   69.09    9.60
  19  -6   0   51.89    8.10
  -6 -13   0   73.79    8.10
  14   5   0   17.80    5.70
  14   5   0    6.80    6.30
   5  14   0    8.30    7.70
 -19   5   0   21.30    6.80
  14 -19   0   19.50    5.90
   5 -19   0   18.60    5.80
 -19   5   0   14.60    6.30
   5 -19   0    3.80    5.70
 -19  14   0   46.20    7.90
   5  14   0   27.10    5.50
  14 -19   0   17.80    7.50
 -19  14   0   15.90    5.80
  -5  19   0   19.50    7.20
  19  -5   0   23.50    7.20
  -5 -14   0   25.80    6.70
 -14  19   0   26.70    7.70
  19 -14   0   21.70    7.50
 -14  -5   0   15.20    6.80
   4  15   0    8.80    5.30
   4 -19   0    8.60    4.90
  15   4   0    6.90    6.30
  15 -19   0   11.00    6.10
   4  15   0    6.70    7.60
 -19   4   0   12.40    7.40
  15   4   0    9.50    5.90
 -19  15   0   14.20    6.90
 -19  15   0   12.70    5.80
  15 -19   0   12.10    6.70
 -15  -4   0    9.50    6.40
  19 -15   0    6.00    7.60
  -4  19   0    0.50    6.90
  19  -4   0    5.10    6.20
  -4 -15   0   10.40    5.50
 -15  19   0    9.50    6.60
   3  16   0   55.79    8.40
   3 -19   0   70.19    7.50
  16   3   0   77.69    7.70
 -19  16   0   84.09    8.50
  16   3   0   86.69   13.10
  16 -19   0   54.19    8.80
 -19   3   0   73.49    8.80
  16 -19   0   64.69    9.70
 -19  16   0   92.89    9.00
   3  16   0   63.39    9.60
  -3 -16   0   67.79    7.60
  19  -3   0   56.59    8.90
  -3  19   0   67.09    9.20
  19 -16   0   62.79    9.40
 -16  -3   0   75.09    8.70
 -16  19   0   67.79    8.70
  17 -19   0  184.18   13.10
   2 -19   0  204.78   11.60
  17   2   0  188.28   10.90
 -19  17   0  188.28   11.60
 -19   2   0  193.48   12.00
   2  17   0  176.98   12.20
  17 -19   0  198.58   12.50
  -2 -17   0  190.58   10.80
  19 -17   0  213.78   12.50
 -17  19   0  196.98   11.60
  -2  19   0  187.38   13.10
  19  -2   0  193.98   11.30
 -17  -2   0  195.88   11.80
  18   1   0   67.69    8.10
   1 -19   0   60.09    8.30
   1  18   0   60.09    9.30
 -19   1   0   49.99    8.60
  18 -19   0   70.69   10.30
  18 -19   0   62.19    9.40
 -19  18   0   57.09    9.30
 -18  -1   0   67.29    8.90
 -18  19   0   57.89    9.50
  19 -18   0   64.89   10.80
  -1 -18   0   62.59    7.60
  19  -1   0   51.99    8.10
  -1  19   0   57.09    9.40
 -19  19   0   83.89    9.90
   0 -19   0   66.79    8.80
   0  19   0   61.39   10.60
 -19   0   0   41.40    9.20
  19 -19   0   54.99    9.70
  19   0   0   71.89    9.50
  19 -19   0   66.69   10.50
  10 -20   0   56.29    7.10
 -20  10   0   52.19    6.90
  10  10   0   65.49    6.70
 -20  10   0   58.29    7.70
  10  10   0   56.89    9.90
  10 -20   0   41.50    7.90
 -10 -10   0   53.69    8.00
 -10  20   0   66.59    8.80
  20 -10   0   49.00    8.60
  11 -20   0   44.20    6.90
   9  11   0   65.99    7.10
 -20   9   0   62.99    6.80
  11   9   0   49.40    6.60
   9  11   0   47.70    8.70
   9 -20   0   59.09    8.80
   9 -20   0   50.19    7.00
  11   9   0   39.70    8.30
  11 -20   0   45.10    7.90
 -20   9   0   64.49    9.10
 -20  11   0   51.29    6.80
 -20  11   0   37.90    7.00
  20 -11   0   39.70    7.70
  -9 -11   0   37.10    7.00
 -11  -9   0   41.70    7.60
  20  -9   0   42.00    7.50
  -9  20   0   43.40    8.40
 -11  20   0   39.60    7.90
 -20  12   0   26.40    6.50
   8  12   0   33.60    5.60
  12   8   0   28.60    5.60
  12   8   0   14.40    7.50
 -20  12   0   29.40    6.00
   8 -20   0   33.10    5.80
   8 -20   0   12.60    6.40
 -20   8   0   29.40    5.90
  12 -20   0   26.70    6.10
 -20   8   0   33.80    7.50
   8  12   0   23.30    8.00
  12 -20   0   32.50    7.70
  -8  20   0   24.80    7.60
  -8 -12   0   31.60    6.70
  20  -8   0   31.70    7.30
 -12  20   0   23.70    7.00
  20 -12   0   28.40    7.30
 -12  -8   0   25.40    6.50
   7  13   0    3.40    6.40
 -20  13   0   13.20    6.30
 -20  13   0    5.90    5.20
  13 -20   0    7.30    5.80
   7 -20   0    2.70    5.20
  13   7   0    3.80    5.30
 -20   7   0   14.40    7.00
   7 -20   0   -2.10    6.00
  13 -20   0    2.70    7.20
  13   7   0    2.70    6.90
   7  13   0    4.00    5.10
 -13  -7   0    5.70    5.90
  -7 -13   0    3.80    5.80
 -13  20   0   10.00    7.30
  -7  20   0   -0.40    6.60
  20 -13   0    3.00    6.70
  20  -7   0    6.60    6.20
   6 -20   0   60.19    7.60
  14 -20   0   82.29    8.50
  14 -20   0   69.99   10.40
   6  14   0   79.69    8.20
   6 -20   0   68.49    7.10
 -20  14   0   78.99    9.20
  14   6   0   73.59    9.30
   6  14   0   67.09   10.60
 -20   6   0   88.79    9.00
 -20  14   0   84.99    7.80
  14   6   0   70.29    7.30
 -14  20   0   74.99    8.90
  20 -14   0   72.59    9.40
  -6  20   0   72.39    9.40
  -6 -14   0   60.89    7.70
 -14  -6   0   69.79    8.40
  20  -6   0   65.79    8.50
   5  15   0   42.20    6.70
 -20   5   0   59.79    8.70
   5 -20   0   55.69    6.90
   5  15   0   50.79    9.40
  15 -20   0   44.10    7.60
  15   5   0   58.29    6.90
  15 -20   0   48.40    8.70
 -20  15   0   43.10    7.70
  15   5   0   43.80    7.90
  20 -15   0   45.40    8.40
  -5  20   0   43.80    8.30
  -5 -15   0   50.49    8.30
 -15  -5   0   39.60    7.60
 -15  20   0   44.40    8.30
  20  -5   0   53.59    8.40
   4 -20   0   68.89    7.40
 -20  16   0   63.69    9.20
   4  16   0   71.09    9.90
 -20   4   0   68.09    9.90
   4  16   0   56.39    9.70
  16 -20   0   65.79   11.20
  16   4   0   77.29    8.70
 -20  16   0   79.89    8.50
  16 -20   0   58.39    9.00
  -4 -16   0   65.69    8.70
  -4  20   0   56.99    9.30
 -16  20   0   71.29    8.80
  20  -4   0   61.29    8.40
  20 -16   0   68.29   10.00
 -16  -4   0   62.69    8.80
 -20  17   0   33.00    7.20
  17   3   0   33.80    6.70
  17 -20   0   29.70    8.60
 -20   3   0   35.30    7.80
   3  17   0   26.20    7.80
   3 -20   0   27.40    6.20
  17 -20   0   32.00    7.80
 -17  20   0   24.40    7.60
 -17  -3   0   20.10    8.00
  -3  20   0   29.00   13.00
  -3 -17   0   34.90    7.30
  20 -17   0   31.40    8.30
  20  -3   0   29.10    7.20
 -20  18   0   86.99    9.50
  18   2   0   48.30    7.70
  18 -20   0   46.40    9.10
 -20  18   0   63.59    8.90
   2 -20   0   51.89    7.50
  18 -20   0   39.60    9.00
 -20   2   0   62.99   10.20
   2  18   0   51.69    9.50
 -18  20   0   69.19    8.50
 -18  -2   0   43.80    9.20
  -2 -18   0   49.30    8.40
  20  -2   0   46.90    8.30
  20 -18   0   55.39    9.80
  -2  20   0   59.49    9.40
  19 -20   0  184.48   15.20
   1 -20   0  197.78   11.40
 -20   1   0  189.38   12.00
  19   1   0  217.98   12.70
  19 -20   0  209.18   14.20
  -1  20   0  187.68   12.60
  20  -1   0  225.88   17.90
 -19  -1   0  183.98   11.80
 -19  20   0  186.08   11.80
  -1 -19   0  165.08   12.00
  20 -19   0  193.68   13.90
 -20  20   0   58.19    9.80
  20   0   0   35.70    8.90
 -20   0   0   34.80    7.70
   0  20   0   63.19    9.70
  20 -20   0   26.30   10.00
   0 -20   0   36.60    7.30
  11 -21   0   16.40    7.30
  11  10   0   11.30    5.30
  10  11   0    0.20    7.30
 -21  11   0    9.80    6.10
  11 -21   0   -1.80    4.60
  10 -21   0    7.50    5.40
 -21  10   0   16.30    7.10
 -21  10   0   16.10    5.50
  10  11   0   11.00    5.40
  10 -21   0   -0.80    6.80
  11  10   0   14.10    7.20
 -21  11   0   13.20    5.20
 -10  21   0    8.70    7.40
 -11  21   0   -0.20    6.50
  21 -11   0   -4.00    6.50
 -11 -10   0    8.10    6.10
 -10 -11   0    5.10    5.80
  21 -10   0    3.20    6.30
   9  12   0   48.00    8.70
 -21  12   0   57.69    7.30
  12   9   0   43.30    6.90
   9 -21   0   35.80    7.80
  12   9   0   40.40    8.50
   9 -21   0   40.60    6.70
 -21  12   0   65.29    9.00
  12 -21   0   48.70    8.50
   9  12   0   41.90    6.40
 -21   9   0   54.59    9.40
  12 -21   0   46.70    7.20
  -9 -12   0   28.90    7.00
  21  -9   0   32.70    7.60
 -12  21   0   33.10    7.60
 -12  -9   0   29.60    6.80
  -9  21   0   27.80    7.60
  21 -12   0   38.30    7.70
  13   8   0   99.19    8.20
   8 -21   0   89.49    8.00
   8  13   0   95.69   11.10
  13 -21   0   83.19   11.10
 -21  13   0  110.09   10.00
   8 -21   0   65.49    9.50
  13   8   0   67.49   11.00
   8  13   0   85.09    8.60
  13 -21   0   91.79    8.80
 -21   8   0   92.79    9.30
 -21  13   0   97.99    8.70
 -13  21   0   81.59    9.50
  21  -8   0   74.69    9.00
 -13  -8   0   82.09    8.80
  -8  21   0   69.79   10.60
  21 -13   0   81.49   10.00
  -8 -13   0   84.19    8.30
 -21  14   0   50.49    8.90
   7 -21   0   22.20    5.80
   7  14   0   30.20    6.20
  14   7   0   18.70    8.30
  14 -21   0   30.10    8.30
  14 -21   0   22.10    6.70
 -21   7   0   40.40    8.10
 -21  14   0   47.40    7.20
   7  14   0    8.30    7.60
  14   7   0   27.40    6.60
 -14  21   0   24.40    8.10
  21 -14   0   18.50    7.50
  -7 -14   0   29.40    6.70
 -14  -7   0   26.60   11.80
  21  -7   0   14.50    6.70
  15   6   0   24.40    6.70
 -21   6   0   32.30    7.50
 -21  15   0   22.60    6.80
  15 -21   0   21.50    6.70
 -21  15   0   31.70    7.60
   6 -21   0   21.40    6.50
  15   6   0   32.70    8.10
   6  15   0   20.70    8.90
  15 -21   0   23.20    8.30
  -6  21   0    3.10    8.00
 -15  -6   0   17.00   11.30
 -15  21   0   13.40    7.20
  -6 -15   0   21.80    6.20
  21 -15   0   21.20    9.00
  16 -21   0   55.89    9.10
 -21  16   0   73.99    9.40
  16   5   0   61.59    8.40
   5  16   0   51.09    9.70
  16 -21   0   45.80    9.60
 -21  16   0   59.59    8.30
   5 -21   0   51.99    8.30
 -21   5   0   41.60    8.00
 -16  21   0   44.20    8.10
 -16  -5   0   48.40    8.30
  -5  21   0   37.30    8.20
   4  17   0   23.30    8.50
  17   4   0   33.50    7.30
 -21   4   0   23.10    7.60
  17 -21   0   33.60    8.80
  17 -21   0   19.80    7.90
   4 -21   0   28.90    6.80
 -21  17   0   20.10    7.10
 -21  17   0   36.80    8.10
  -4 -17   0   13.10   10.30
  -4  21   0   16.70    7.50
 -17  21   0   19.40    7.70
  21 -17   0   21.50    9.30
  21  -4   0   20.80    7.90
 -17  -4   0   18.90    7.00
 -21  18   0   91.89   10.70
 -21  18   0   99.59   10.00
   3  18   0   93.59   16.90
   3 -21   0   89.29    8.60
  18   3   0  106.59   10.00
  18 -21   0  101.99   11.90
 -21   3   0   92.39   15.90
  18 -21   0   64.19   10.90
 -18  21   0  107.39   10.80
 -18  -3   0   82.69    9.40
  -3  21   0   88.09   11.50
  21  -3   0   97.79    9.50
  -3 -18   0   83.49    8.40
  21 -18   0   87.29   10.90
   2 -21   0   25.80    7.60
  19 -21   0   38.30    9.30
 -21   2   0   33.40    8.00
   2  19   0   33.20    8.30
  19   2   0   49.99    8.60
 -21  19   0   38.90    8.30
  19 -21   0   30.20    9.40
  21  -2   0   30.80    7.50
  -2  21   0   22.10    8.00
 -19  21   0   36.70    8.80
 -19  -2   0   56.19   10.00
  21 -19   0   39.60    9.70
  -2 -19   0   26.40    6.50
 -21   1   0   49.90    8.70
  20 -21   0   42.70   10.10
  20   1   0   41.20    7.70
   1 -21   0   50.29    7.80
   1  20   0   55.69    9.90
  20 -21   0   42.90    8.90
 -21  20   0   52.09    8.80
 -20  21   0   64.19   10.20
  21  -1   0   59.59    8.80
  -1  21   0   38.60    9.20
 -20  -1   0   50.39    8.90
  21 -20   0   41.50    8.90
  -1 -20   0   35.10    6.90
 -21  21   0  151.98   11.60
   0  21   0  141.89   11.90
   0 -21   0  174.88   11.60
  21   0   0  147.09   11.90
  21 -21   0  171.08   13.70
 -21   0   0  159.38   12.30
  11  11   0   38.50    8.80
  11  11   0   44.10    6.80
  11 -22   0   30.00    6.50
 -22  11   0   34.00    8.10
  11 -22   0   33.20    8.30
 -11 -11   0   26.40    6.80
  22 -11   0   26.90    7.50
 -11  22   0   26.90    8.40
  12  10   0   25.30    6.00
  10  12   0   22.30    6.30
  10 -22   0    6.80    7.50
 -22  10   0   32.60    8.10
  12 -22   0   18.80    8.20
  12 -22   0   25.50    6.60
  10 -22   0   30.60    6.50
 -22  12   0   25.70    7.40
  10  12   0   22.90    8.10
 -22  12   0   25.60    8.30
  12  10   0    9.70    8.30
  22 -10   0   17.50    7.10
 -10  22   0    8.80    7.30
 -12  22   0   16.10    7.10
 -12 -10   0   25.60    6.80
 -10 -12   0   16.40    6.60
  22 -12   0   16.60    7.20
 -22  13   0   12.20    7.40
  13   9   0   22.60    7.70
  13 -22   0   -3.20    7.70
   9  13   0   11.00    5.80
   9  13   0    3.10    6.70
  13 -22   0   10.50    5.90
 -22   9   0    6.20    6.60
   9 -22   0    7.40    5.60
   9 -22   0  -17.10    6.80
  13   9   0    8.70    5.70
 -22  13   0   14.20    6.00
 -13  -9   0    1.70    6.10
  22 -13   0    1.60    7.10
 -13  22   0    6.90    7.10
  22  -9   0    2.10    6.40
  -9  22   0    1.70    7.50
  -9 -13   0   -2.70    5.80
  14   8   0   42.50    7.00
   8  14   0   47.30   10.20
   8  14   0   39.20    9.90
 -22   8   0   62.09    9.90
 -22  14   0   41.40    7.70
   8 -22   0   50.09    7.60
  14 -22   0   64.39   10.40
  14 -22   0   51.89    8.10
 -22  14   0   56.79    8.10
  14   8   0   49.10    9.00
  22 -14   0   47.30    8.90
 -14  22   0   38.60    8.00
 -14  -8   0   41.60    7.40
  -8 -14   0   35.70    7.00
  22  -8   0   36.10    7.50
  -8  22   0   34.40    7.90
  15 -22   0   98.09    9.30
   7 -22   0   78.29    8.70
 -22  15   0   96.89   10.30
  15   7   0   55.39    9.90
  15 -22   0   64.19   10.90
   7  15   0   69.69    9.90
 -22   7   0   71.19    9.40
  15   7   0   83.69    8.90
 -22  15   0   91.49    9.30
  -7 -15   0   69.79    8.10
  -7  22   0   60.89    9.70
  22  -7   0   61.89    8.90
 -15  22   0   57.29   10.50
 -15  -7   0   60.69    8.30
  22 -15   0   83.69   11.60
  16 -22   0    2.20    8.30
   6 -22   0    7.20    5.60
 -22  16   0    9.20    7.20
  16   6   0   14.90    6.60
  16 -22   0   -2.00    7.20
 -22  16   0    9.80    7.00
 -22   6   0    6.20    7.00
   6  16   0   11.80    8.80
  22  -6   0    9.10    6.80
 -16  22   0    6.80    8.70
  22 -16   0    8.70    8.30
  -6 -16   0    7.50    6.60
 -16  -6   0    2.10    6.50
  -6  22   0    7.00    7.20
 -22  17   0   60.09    9.50
 -22  17   0   51.89    8.70
   5 -22   0   40.00    7.50
  17 -22   0   36.90    8.60
   5  17   0   33.80    8.50
  17 -22   0   28.00    8.80
  17   5   0   34.70    7.70
  22 -17   0   29.10    8.90
 -17  -5   0   31.30    8.00
  22  -5   0   31.10    7.20
 -17  22   0   31.00    8.00
  -5 -17   0   24.20    6.50
  -5  22   0   24.20    7.80
   4  18   0   49.10    9.80
 -22  18   0   43.50    8.40
 -22   4   0   68.49    9.40
  18 -22   0   43.00    8.90
  18   4   0   58.99    9.10
   4 -22   0   53.69    8.90
  18 -22   0   69.99   11.40
 -18  -4   0   40.10    7.90
  -4 -18   0   47.40    7.90
  22 -18   0   34.10    8.50
  22  -4   0   53.69    8.70
 -18  22   0   46.00    8.60
  -4  22   0   36.10    8.10
   3  19   0   20.60    8.00
  19 -22   0   32.20    9.50
 -22  19   0   50.79    9.20
 -22   3   0   18.60    7.50
 -22  19   0   19.00    9.00
  19 -22   0   17.90    9.30
   3 -22   0   27.00    7.10
 -19  22   0   16.50    8.20
  22  -3   0   25.40    8.10
  -3 -19   0   17.00    6.30
 -19  -3   0   16.60    7.00
  -3  22   0   18.70    7.60
  22 -19   0   16.00    8.70
  20 -22   0   81.69   12.30
 -22  20   0  109.79   11.10
 -22  20   0  133.99   10.80
  20 -22   0   93.29   10.90
  20   2   0  110.69   10.80
 -22   2   0  103.19   11.10
   2  20   0   92.19   11.90
   2 -22   0  102.89   10.00
 -20  22   0  104.59   11.50
  -2  22   0   73.29   10.20
  -2 -20   0   97.49    9.10
  22 -20   0   92.39   11.00
 -20  -2   0   86.19    9.60
  22  -2   0  113.89    9.90
  21 -22   0    7.90   10.80
   1  21   0   19.10    7.90
  21 -22   0   38.10    9.90
 -22   1   0   17.50    7.40
  21   1   0   31.70    8.10
   1 -22   0   20.80    7.30
  -1 -21   0   20.20    6.70
 -21  -1   0   19.90    7.30
  -1  22   0   17.40    8.00
  22  -1   0   24.60    8.40
  22 -21   0   36.40    9.70
 -21  22   0   46.00    9.40
  22 -22   0   14.30    9.60
   0  22   0   18.90    8.80
  22   0   0   15.20    7.50
 -22  22   0   29.90    9.10
 -22   0   0   22.50    7.80
   0 -22   0   25.20    7.00
  11 -23   0   12.20    6.20
  12 -23   0    8.80    5.60
  11  12   0    7.90    6.10
 -23  11   0   11.20    8.00
  11 -23   0    5.50    7.80
  11  12   0    9.30    8.10
  12 -23   0   -8.60    8.20
  12  11   0   10.60    6.50
 -23  12   0    8.50    6.70
  12  11   0    6.60    7.80
 -12 -11   0    4.40    7.00
  23 -12   0    6.80    6.90
 -11 -12   0   16.80    7.40
  23 -11   0    8.80    7.80
 -11  23   0   -3.00    6.80
 -12  23   0   -2.50    7.40
  10 -23   0   39.40    7.00
  13 -23   0   46.50    9.50
  13 -23   0   61.99    8.30
  10  13   0   61.79    8.30
 -23  13   0   35.10    8.50
  10  13   0   23.00    9.60
  13  10   0   30.60    9.20
  13  10   0   50.49    7.60
 -23  10   0   50.99    8.60
  23 -10   0   19.80    7.10
 -10  23   0   33.10    8.60
  23 -13   0   38.30    8.10
 -10 -13   0   39.20    7.30
 -13  23   0   32.50    7.90
 -13 -10   0   34.50    7.90
 -23   9   0   28.20    7.70
 -23  14   0   33.60    8.00
  14 -23   0   38.80    8.00
  14   9   0   23.30    9.30
  14 -23   0   34.90    9.00
   9  14   0   16.90    8.70
  14   9   0   41.20    7.20
   9 -23   0   43.30    7.80
 -14  -9   0   34.90    7.20
  -9  23   0   22.50    7.50
  -9 -14   0   27.50    7.10
 -14  23   0   33.20    7.60
  23  -9   0   30.00    7.40
  23 -14   0   32.90    8.70
  15   8   0    9.00    6.40
  15   8   0   -6.30   13.30
   8 -23   0    5.50    5.10
  15 -23   0    8.90    8.30
  15 -23   0    5.00    6.80
 -23  15   0    7.50    7.00
 -23   8   0    3.10    8.10
   8  15   0   -1.80    8.30
 -23  15   0   10.80    7.40
  -8 -15   0    1.10    6.40
  -8  23   0   -5.30    6.70
 -15  23   0   -4.00    6.70
  23 -15   0    5.60    7.70
 -15  -8   0   -1.60    6.30
  23  -8   0   -3.90    7.20
   7  16   0   31.70    9.70
 -23  16   0   36.70    8.90
  16 -23   0   21.50   10.00
   7 -23   0   28.80    7.10
  16   7   0   28.40    7.60
  16 -23   0   34.80    8.30
 -23   7   0   26.10    8.30
 -16  23   0   28.00    7.90
  -7  23   0   24.10    7.60
  -7 -16   0   27.70    6.70
 -16  -7   0   24.90    6.90
  23 -16   0   41.20    9.40
  23  -7   0   36.60    8.30
   6 -23   0   43.20    7.60
 -23  17   0   54.19    9.90
  17   6   0   73.39    9.30
  17 -23   0   62.29   10.80
 -23   6   0   31.30    8.10
  17 -23   0   38.50    9.20
 -23  17   0   65.99   10.90
 -17  23   0   53.19    9.40
  -6  23   0   27.50    8.20
  23  -6   0   44.70    8.50
  -6 -17   0   39.70    7.70
 -17  -6   0   36.00    7.50
  23 -17   0   40.70    9.50
  18 -23   0   18.90    7.80
 -23  18   0   30.00    7.80
   5  18   0    8.40    8.80
 -23  18   0   15.90    8.50
  18 -23   0    7.60    8.60
   5 -23   0    6.50    7.20
 -23   5   0    0.60    7.90
  18   5   0    4.60    7.40
  -5 -18   0    1.70    5.90
  -5  23   0    0.60    7.00
 -18  -5   0    3.20    6.10
  23 -18   0   15.00    7.70
  23  -5   0    5.10    7.50
 -18  23   0    0.20    7.40
  19   4   0   58.79    9.60
  19 -23   0   44.70   10.30
   4  19   0   41.00    8.90
 -23   4   0   38.20    8.30
   4 -23   0   49.40    8.50
 -23  19   0   58.39   10.00
  19 -23   0   18.30   15.60
 -19  23   0   64.99   10.30
  23 -19   0   38.80    8.60
 -19  -4   0   31.10    7.70
  23  -4   0   50.79    8.80
  -4  23   0   44.70    9.20
  -4 -19   0   45.20    7.60
 -23  20   0   32.20    9.30
  20 -23   0    8.80    9.90
   3  20   0   32.90    9.30
 -23   3   0   33.90    8.30
   3 -23   0   36.90    7.90
  20   3   0   62.89    9.50
  20 -23   0   24.40    8.40
  23  -3   0   23.30    7.40
 -20  23   0   20.40    8.70
  -3  23   0   31.30    8.20
 -20  -3   0   24.90    7.50
  -3 -20   0   34.90    7.50
  23 -20   0   44.90    9.80
  21 -23   0   17.20   10.40
  21 -23   0   17.70    9.20
  21   2   0   21.10    7.90
   2 -23   0   18.70    7.40
 -23  21   0   13.70    9.70
   2  21   0   12.80    8.10
 -23   2   0    9.40    7.20
 -23  21   0   27.20   13.60
  -2 -21   0    5.00    6.70
 -21  23   0   19.60    8.50
  23 -21   0   11.40    7.70
  -2  23   0    9.00    8.40
 -21  -2   0    1.50    6.90
  23  -2   0   19.00    8.60
   1  22   0   58.99   10.50
 -23  22   0   50.89    9.90
 -23   1   0   29.60    8.20
  22   1   0   57.19    9.60
  22 -23   0   34.20   10.30
   1 -23   0   44.80    8.10
  23  -1   0   45.80    8.50
  -1 -22   0   55.69    9.30
  -1  23   0   34.10    8.80
 -22  -1   0   37.30    8.20
  23 -22   0   51.19    9.50
   0 -23   0   -4.70    7.10
 -23   0   0    5.00    8.30
   0  23   0    0.80    8.00
  23   0   0    9.60    8.50
  23 -23   0    3.90    8.90
 -23  23   0   13.30    8.60
  12  12   0   48.10   11.00
 -24  12   0   70.59   11.30
  12 -24   0   78.79    8.90
  12  12   0   90.39   10.70
 -12 -12   0   64.19    8.50
 -12  24   0   44.80    8.50
  24 -12   0   46.00    8.30
 -24  13   0   30.60    8.60
  13 -24   0   27.90    7.60
  13  11   0   27.40    7.40
 -24  11   0   30.20    8.10
  13  11   0   25.00    9.00
  11 -24   0   26.60    7.10
  11  13   0   14.10   10.00
  13 -24   0   23.90    9.20
 -13 -11   0   23.00    7.00
 -11  24   0   19.50    7.00
 -11 -13   0   28.70    6.90
  24 -13   0   36.00    8.80
  24 -11   0   20.10    7.90
 -13  24   0   19.20    8.10
  14  10   0   22.30    6.50
  14 -24   0   -4.00    8.30
  10 -24   0   10.50    5.80
 -24  14   0   10.00    8.00
  10  14   0   -9.30    8.60
  14 -24   0   17.30    7.60
  14  10   0    0.90    8.00
  24 -10   0    1.90    6.70
  24 -14   0   -5.40    6.50
 -14  24   0    3.40    6.60
 -10  24   0   -1.50    6.70
 -14 -10   0   -0.70    6.10
 -10 -14   0    7.70    6.50
   9 -24   0   28.10    7.40
 -24  15   0   28.80    8.30
  15   9   0   33.90    7.80
 -24   9   0   14.70    8.80
   9  15   0   36.10    9.20
  15 -24   0   23.00    9.90
  15 -24   0   38.10    8.30
  24  -9   0   24.60    8.00
  -9 -15   0   18.00    6.40
 -15  -9   0   21.80    7.10
  -9  24   0   21.10    7.40
  24 -15   0   21.00    7.60
 -15  24   0   21.80    7.70
 -24   8   0   21.80    8.70
  16 -24   0   10.20    9.60
 -24  16   0   33.40    8.40
   8 -24   0   19.90    6.70
  16 -24   0   35.20    8.10
  16   8   0   35.80    7.50
  -8 -16   0   29.90    7.30
  24  -8   0   20.10    8.00
 -16  -8   0   18.60    7.60
 -16  24   0   20.90    7.70
  -8  24   0   15.80    7.40
  24 -16   0   24.30    7.90
 -24  17   0   19.90    9.70
   7 -24   0    5.40    7.90
  17 -24   0    5.80    7.70
 -24   7   0   -7.40    7.10
   7  17   0    4.00    8.70
  17   7   0    2.70    7.20
  17 -24   0   -6.50    8.60
 -24  17   0   -0.10    7.50
  24  -7   0    1.60    6.50
 -17  -7   0    1.70    6.40
  -7 -17   0    0.30    5.90
  -7  24   0   -1.40    6.40
  24 -17   0    2.60    7.70
 -17  24   0    1.80    6.90
   6  18   0   15.90    8.10
 -24  18   0   24.00    8.70
   6 -24   0   15.10    7.30
  18 -24   0    9.50    8.90
 -24  18   0   22.20    8.30
 -24   6   0   22.00    8.00
  18 -24   0   10.20    9.10
  24  -6   0   18.50    7.30
  -6  24   0   14.30    7.40
 -18  -6   0   15.90    6.70
 -18  24   0   16.40    9.00
  24 -18   0   10.80    8.50
  -6 -18   0    9.20    6.80
   5 -24   0   21.60    6.80
 -24  19   0   31.10    8.70
   5  19   0   18.70    9.00
  19   5   0   29.70    8.40
 -24   5   0   22.60    8.80
  19 -24   0   21.10    9.70
  19 -24   0    9.90    9.60
  -5  24   0   23.70    8.00
 -19  -5   0   27.40    7.30
  24  -5   0   21.70    8.20
  -5 -19   0   24.50    6.60
 -19  24   0   15.70    7.70
  24 -19   0   20.40    8.60
  20 -24   0    2.40    8.90
 -24   4   0   -2.00    8.30
 -24  20   0   17.60    8.80
 -24  20   0   24.80    8.90
   4  20   0   -1.50    8.30
   4 -24   0    6.40    6.40
  20   4   0    4.00    7.90
  -4  24   0   -3.30    7.70
  24  -4   0    4.30    8.00
  -4 -20   0    4.40    6.50
 -20  24   0    0.80    8.30
  24 -20   0   11.30    9.00
 -20  -4   0   -2.30    6.50
 -24  21   0   33.90   10.20
  21   3   0   31.00    7.80
  21 -24   0   32.20   10.00
   3 -24   0   34.20    7.60
   3  21   0   21.00    8.70
 -24   3   0   32.20    9.20
  -3 -21   0   28.80    7.70
 -21  24   0   28.30    9.00
  24 -21   0   28.90    8.80
  -3  24   0   20.40    8.00
  24  -3   0   37.90    9.00
 -21  -3   0   20.40    7.70
   2 -24   0    7.30    6.50
 -24   2   0   -0.40    7.40
   2  22   0    4.50    9.10
  22 -24   0   -1.30    9.50
  22   2   0   12.40    8.50
  24  -2   0    5.20    7.40
  -2 -22   0   11.50    6.70
 -22  24   0   15.80    8.20
  24 -22   0   16.40    9.40
  -2  24   0   12.10    7.90
 -22  -2   0    5.10    7.40
  12 -25   0   16.30    7.00
  12  13   0  -10.30    9.30
  13 -25   0   15.80    7.50
 -25  12   0   17.80    8.50
 -12 -13   0   11.80    6.40
  25 -13   0   20.00    8.00
 -13  25   0    3.80    7.10
 -12  25   0   10.00    6.90
 -13 -12   0    5.00    6.60
  25 -12   0   13.20    6.80
  14 -25   0   77.09   10.60
  14  11   0   58.49    9.10
 -25  14   0   47.70   10.60
  11  14   0   43.90   10.80
 -25  11   0   48.70    9.70
  14 -25   0   74.59   13.10
  11 -25   0   55.39    9.30
  25 -11   0   53.09    9.00
  25 -14   0   41.70    8.30
 -14  25   0   44.70    8.30
 -14 -11   0   48.10    8.50
 -11 -14   0   50.49    8.20
 -11  25   0   36.10    8.00
  15  10   0   37.80    7.50
  15 -25   0    4.40   10.20
 -25  15   0   22.40    9.30
 -25  10   0   23.60    9.40
  10  15   0   20.10   16.50
  10 -25   0   34.90   10.40
 -10  25   0   21.80    7.50
  25 -15   0   16.00    7.60
  25 -10   0   33.80    7.70
 -10 -15   0   19.90    6.60
 -15  25   0   19.60    7.70
 -15 -10   0   15.70    6.60
  16 -25   0   -1.70    9.20
  16   9   0    3.00    7.00
 -25  16   0   28.60    8.70
   9  16   0    3.50    8.20
  16 -25   0    7.30    7.20
   9 -25   0    4.70    6.10
 -25   9   0   -5.60    8.40
  -9 -16   0    4.30    6.00
 -16  25   0   -4.20    7.10
  25 -16   0    4.00    7.10
  25  -9   0    7.60    7.90
  -9  25   0    2.20    7.60
 -16  -9   0    1.60    6.50
  17   8   0   21.50    7.80
   8  17   0   -1.80    8.80
 -25  17   0   23.60    8.90
   8 -25   0   13.50    6.60
 -25   8   0   -4.70    7.30
  17 -25   0    1.50    8.50
  17 -25   0   14.30    9.50
  -8 -17   0    9.00    6.80
 -17  25   0    7.00    7.30
  25 -17   0    4.50    7.30
  25  -8   0    4.90    6.70
  -8  25   0    9.90    7.70
 -17  -8   0   10.80    6.60
   7  18   0   -2.60    8.80
  18 -25   0   11.40    9.20
 -25   7   0    2.90    7.70
  18 -25   0    5.50   16.20
   7 -25   0   19.20    6.70
 -25  18   0   40.90    9.50
  18   7   0   27.50    8.10
 -18  25   0   10.60    8.20
  -7  25   0    6.00    7.10
  25 -18   0   26.10    8.90
 -18  -7   0    9.70    6.80
  25  -7   0   13.60    7.50
  -7 -18   0   10.00    6.20
  19 -25   0  -18.50    8.60
  19   6   0    7.90    8.40
   6  19   0  -14.40    8.30
 -25  19   0  -11.10    9.10
   6 -25   0    5.60    7.30
 -25   6   0   -7.90    7.40
 -19  25   0   -0.40    8.00
 -19  -6   0    1.30    7.10
  25  -6   0   -3.30    7.00
  25 -19   0    0.40    8.40
  -6  25   0    1.90    7.20
  -6 -19   0    2.10    5.90
   5 -25   0   14.50    7.30
  20   5   0   24.60    8.60
 -25  20   0   37.80    9.50
  20 -25   0   24.60   10.00
   5  20   0    2.20    8.20
 -25   5   0    0.50    8.00
 -25  20   0   21.10    9.60
  -5 -20   0    7.20    6.30
 -20  25   0    9.20    7.70
  25 -20   0   11.20    8.10
 -20  -5   0   11.20    6.90
  25  -5   0    4.80    7.40
  -5  25   0    6.90    7.20
  13 -26   0   61.59   14.60
  13  13   0   37.10   11.80
 -26  13   0   75.59   11.30
  26 -13   0   63.29    9.10
 -13  26   0   62.39    9.50
 -13 -13   0   71.49    8.70
 -26  14   0   -5.10    9.10
  12 -26   0   26.20    8.00
 -26  12   0   23.30    9.30
  14 -26   0   24.00    8.40
  12  14   0   17.70   13.60
 -12  26   0   15.10    7.40
  26 -14   0   13.60    7.20
 -14 -12   0   10.20    6.70
 -14  26   0   11.60    7.40
  26 -12   0   12.30    8.00
 -12 -14   0   16.30    6.90
  15 -26   0   -0.10    7.80
 -26  11   0   -7.30    8.60
  11  15   0   -6.30    9.20
  11 -26   0    5.40    7.40
 -26  15   0   14.10    9.00
 -11 -15   0   12.30    6.40
 -11  26   0    4.90    7.80
 -15 -11   0    8.90    6.70
  26 -15   0    9.50    7.40
  26 -11   0    3.00    7.20
 -15  26   0    8.70    7.40
  16  10   0   30.60    8.30
  10 -26   0   26.30    8.10
 -26  16   0    8.70    9.50
  16 -26   0   36.80   10.60
  10  16   0   11.60    9.80
 -26  10   0   25.70    8.60
 -10 -16   0   17.20    6.70
 -16  26   0   18.00    7.80
  26 -16   0   20.10    8.10
 -10  26   0   21.20    7.40
  26 -10   0   17.50    8.20
 -16 -10   0   22.50    7.20
 -26  17   0    1.80    9.00
  17   9   0   13.30    8.70
   9  17   0   13.60    9.60
  17 -26   0   13.30   10.60
  17 -26   0   -0.70   10.00
   9 -26   0   22.60    7.90
 -26   9   0   -5.90    7.80
 -17  -9   0   12.30    6.70
  26 -17   0   11.10    7.60
  -9  26   0    2.20    6.90
  26  -9   0   17.60    7.40
  -9 -17   0    5.40    6.50
 -17  26   0   11.30    7.70
 -26   8   0   -6.60    7.90
 -26  18   0   20.30    9.60
   8 -26   0   -2.90    7.60
   8  18   0    8.20    8.70
  18 -26   0   -2.10   10.30
  18   8   0   30.30    8.60
  -8  26   0   -2.30    7.80
 -18  26   0    4.80    8.30
  26 -18   0   14.30    7.80
  -8 -18   0    2.80    6.00
  26  -8   0   10.50    7.60
 -18  -8   0   10.90    7.10
   0   0   1   -0.10    1.00
   0   0   1   -0.90    1.00
   0   0   1    0.40    0.90
   0  -1   1    2.80    1.00
  -1   1   1    3.30    1.50
   1   0   1    4.30    1.20
   0  -1   1    5.70    1.40
  -1   1   1    4.30    1.30
   0  -1   1    3.90    1.00
   1   0   1    3.00    1.00
  -1   1   1    4.00    0.80
   1   0   1    4.50    1.30
   1  -1   1  289.67    9.40
   1  -1   1  288.17    9.30
   0   1   1  281.27    9.40
  -1   0   1  281.57    9.20
   0   1   1  277.27    9.30
  -1   0   1  287.07    9.50
   0   1   1  291.97    9.40
   1  -1   1  279.97    9.40
  -1   0   1  282.57    9.40
   0  -2   1  147.69    5.80
  -2   2   1  147.49    5.50
   0  -2   1  139.29    4.90
   2   0   1  151.08    6.00
   0  -2   1  146.79    5.30
   2   0   1  148.09    5.40
   2   0   1  137.49    4.90
   1  -2   1  691.53   21.00
   1   1   1  678.13   21.00
   1   1   1  642.34   20.70
   1  -2   1  689.83   21.20
   1  -2   1  650.23   20.70
  -2   1   1  641.94   20.60
  -2   1   1  682.73   21.10
   1  -2  -1  644.94   20.50
  -1   2   1  670.43   21.10
  -1  -1   1  656.63   20.90
  -1  -1  -1  664.73   20.90
   2  -1   1  635.04   20.70
   2  -1   1  666.03   20.90
  -1  -1   1  670.03   21.10
  -1   2   1  640.94   21.00
   2  -1  -1  634.04   20.90
   2  -1   1  658.63   21.20
   2  -2   1  397.36   12.90
   0   2   1  411.46   13.10
   0   2   1  401.66   13.00
  -2   0   1  408.56   13.20
  -2   0   1  398.06   12.80
   2  -2   1  397.96   13.20
   0  -2  -1  377.26   12.80
   2   0  -1  392.46   12.90
   2  -2   1  410.76   13.20
   0  -3   1   26.70    4.20
  -3   0  -1   14.40    2.80
   3  -3  -1   15.60    2.80
   3   0   1   16.30    2.50
  -3   3   1   18.40    2.90
   3   0   1   10.00    1.40
   2   1   1  898.81   30.00
   1  -3   1 1021.00   31.10
   1   2  -1  962.30   29.90
   2   1   1  992.00   30.50
   1  -3   1  965.40   29.90
  -3   2   1  984.10   30.50
  -3   2   1  922.11   29.80
   1  -3   1  980.40   30.50
   3  -1   1  947.21   30.40
   3  -1   1 1018.80   31.00
  -2   3   1  934.61   30.50
  -2   3   1  946.81   30.60
  -1  -2   1  994.70   30.80
  -2  -1  -1  975.00   30.50
   3  -2  -1  951.20   30.50
   3  -1   1  941.61   30.00
  -1  -2   1  958.50   30.40
   2   1  -1  191.98    6.90
   2  -3   1  202.78    7.40
  -3   1   1  202.08    6.80
   1  -3  -1  187.58    6.60
  -3   1   1  199.48    7.30
   2  -3   1  195.28    6.80
   1   2   1  195.68    7.00
   1   2   1  202.98    7.40
  -2  -1   1  200.08    7.00
  -1  -2  -1  198.28    7.20
   3  -2   1  211.18    7.60
  -2  -1   1  201.38    7.50
  -1   3   1  203.68    7.40
   3  -2   1  199.38    7.10
   3  -1  -1  207.98    7.40
  -2   3  -1  201.18    7.20
  -1   3   1  199.68    7.30
   0   3   1  139.09    5.90
   3   0  -1  158.18    5.90
   0  -3  -1  139.49    5.50
  -3   0   1  153.58    5.70
   3  -3   1  138.19    6.00
  -3   0   1  150.18    6.00
   3  -3   1  135.39    5.50
   0   3   1  148.89    5.90
  -3   3  -1  137.49    5.60
   4   0   1  762.32   24.90
   0  -4   1  770.82   24.90
   4  -4  -1  778.12   25.10
   0   4  -1  781.52   25.30
  -4   4   1  755.82   25.00
  -4   0  -1  788.22   25.10
   3   1   1  924.81   31.20
  -4   3   1  914.71   31.10
   1  -4   1 1086.29   31.10
   3  -4  -1 1007.10   32.00
   1   3  -1  954.20   31.10
  -4   3   1  993.50   32.00
   1  -4   1 1017.00   31.90
   3   1   1 1048.50   32.00
   4  -3  -1  994.70   32.00
  -1  -3   1 1034.20   32.60
   4  -1   1  984.20   31.90
  -3  -1  -1 1027.40   32.10
  -3   4   1  994.00   32.00
   4  -1   1 1055.69   32.80
  -1  -3   1 1067.59   32.00
  -1   4  -1  973.90   32.00
   2   2  -1  207.18    6.90
   2   2   1  202.68    7.60
   2  -4   1  188.48    6.70
   2  -4   1  212.48    7.60
  -4   2  -1  186.38    6.70
   2  -4  -1  204.88    6.60
  -4   2   1  210.68    7.60
  -4   2   1  204.28    6.90
   2   2   1  192.88    7.10
  -2   4   1  212.28    8.00
  -2  -2   1  196.38    8.10
  -2  -2  -1  196.68    7.90
   4  -2   1  186.18    7.50
   4  -2  -1  194.78    7.80
  -2   4   1  187.08    7.80
  -2  -2   1  198.98    7.40
   4  -2   1  205.48    8.30
  -2   4  -1  182.88    7.80
   1   3   1  555.24   18.60
   3  -4   1  566.14   18.70
   3   1  -1  538.05   18.30
   3  -4   1  535.45   18.20
  -4   1   1  582.24   18.30
  -4   3  -1  545.55   18.20
   1  -4  -1  553.44   18.10
   1   3   1  565.14   18.50
  -4   1   1  585.94   18.80
  -3   4  -1  563.04   18.60
   4  -3   1  568.14   18.50
   4  -3   1  583.74   19.00
   4  -1  -1  598.44   18.80
  -1   4   1  569.44   18.80
  -3  -1   1  597.14   18.60
  -1  -3  -1  570.14   18.50
  -1   4   1  595.74   18.90
   0   4   1   50.79    4.60
   4  -4   1   70.09    4.10
   4  -4   1   52.09    4.10
   4   0  -1   70.09    4.50
  -4   0   1   63.39    3.90
   0   4   1   51.89    4.30
   0  -4  -1   64.79    4.10
  -4   4  -1   58.69    4.00
  -4   0   1   49.80    4.80
  -5   5   1   93.39    5.30
  -5   0  -1   94.49    5.80
   5  -5  -1   90.49    5.60
   0   5  -1   97.39    5.50
   0  -5   1  108.09    5.20
   5  -5  -1   97.79    4.10
   5   0   1   89.69    5.50
   4   1   1  187.38    7.70
   4  -5  -1  201.68    8.00
   1   4  -1  227.58    6.70
   4  -5  -1  189.18    6.50
  -5   4   1  182.48    6.80
   4   1   1  189.88    6.70
  -5   1  -1  191.88    8.30
   1  -5   1  193.28    7.70
  -5   4   1  188.18    7.90
  -1  -4   1  216.28    7.90
   5  -1   1  188.18    7.80
  -1   5  -1  188.98    8.20
   5  -4  -1  211.68    8.30
  -4   5   1  201.28    8.00
  -4  -1  -1  203.68    8.30
   3   2   1 2105.69   63.79
  -5   3   1 2080.39   64.29
   3   2   1 2082.79   64.19
  -5   2  -1 1922.81   63.39
   2  -5   1 2090.39   64.29
  -5   3   1 1956.00   63.69
   2  -5   1 1958.10   63.49
   3  -5  -1 2070.09   64.29
   3  -5  -1 1998.50   63.49
  -3   5   1 2128.09   64.39
   5  -2   1 2090.29   64.29
  -2   5  -1 2046.00   64.39
  -3  -2  -1 2109.99   64.39
   5  -3  -1 2087.89   64.49
   5  -2   1 2121.59   64.99
  -2  -3   1 2076.89   64.29
  -2  -3   1 2050.89   64.79
   3  -5   1  561.54   18.20
   3  -5   1  530.65   17.50
  -5   2   1  528.65   17.70
   2  -5  -1  528.25   17.40
   3   2  -1  546.65   17.70
   2   3   1  520.95   17.90
  -5   3  -1  533.25   17.40
  -5   2   1  533.35   18.10
   2   3   1  539.95   17.90
  -2   5   1  560.24   18.30
   5  -2  -1  571.24   18.30
  -2   5   1  534.85   18.30
   5  -3   1  570.54   18.70
  -3  -2   1  569.64   18.10
  -3   5  -1  550.14   18.40
   5  -3   1  547.95   18.10
  -2  -3  -1  539.75   18.10
  -3  -2   1  563.74   18.70
  -5   1   1  295.87   10.60
   1   4   1  305.77   10.60
   1   4   1  279.77   10.50
   4   1  -1  294.37   10.40
  -5   4  -1  288.77   10.10
   4  -5   1  285.37   10.20
  -5   1   1  292.17   10.30
   1  -5  -1  298.07   10.00
   4  -5   1  298.37   10.70
  -4  -1   1  288.27   10.70
   5  -4   1  286.67   10.90
  -4  -1   1  293.27   10.40
   5  -1  -1  302.97   10.90
  -1   5   1  284.67   10.90
  -1  -4  -1  280.47   10.30
  -1   5   1  286.87   10.70
  -4   5  -1  286.97   10.50
   5  -4   1  283.77   10.50
   5   0  -1   23.60    3.70
   0  -5  -1   34.20    3.20
   5  -5   1   27.00    3.40
  -5   0   1   32.70    3.50
   0   5   1   34.90    3.90
   5  -5   1   24.90    3.60
  -5   5  -1   27.30    3.60
   0   5   1   24.80    3.50
  -5   0   1   27.70    3.40
   6   0   1  610.34   20.70
   6  -6  -1  619.64   20.10
   0   6  -1  601.04   21.00
   6  -6  -1  629.74   20.90
  -6   0  -1  634.54   21.10
   0  -6   1  633.14   20.70
  -6   6   1  636.64   20.80
   5   1   1 1031.20   31.80
   5  -6  -1  986.10   31.80
   1   5  -1  992.60   32.80
   5  -6  -1 1003.50   32.70
  -6   1  -1 1047.40   32.90
  -6   5   1  955.90   31.80
   1  -6   1 1018.20   32.60
   5   1   1 1034.00   32.60
  -6   5   1 1029.30   32.60
  -5   6   1 1028.10   32.80
  -5  -1  -1 1034.30   32.90
   6  -5  -1 1046.10   32.90
  -1   6  -1 1016.10   33.00
   6  -1   1 1009.20   32.60
  -1  -5   1 1036.30   32.70
   2  -6   1  738.43   24.40
  -6   4   1  742.73   24.60
   4  -6  -1  755.52   24.40
  -6   2  -1  814.62   25.80
  -6   4   1  796.82   25.40
   2  -6   1  783.82   25.30
   4   2   1  798.72   24.80
   4  -6  -1  775.22   25.40
   2   4  -1  724.83   24.30
   4   2   1  799.12   25.30
  -2   6  -1  796.42   25.80
   6  -4  -1  799.52   25.70
   6  -2   1  775.42   25.30
  -2  -4   1  786.82   25.40
  -4   6   1  799.22   25.60
  -2  -4   1  783.02   26.30
  -4  -2  -1  797.62   25.60
   3   3   1  603.24   19.60
  -6   3   1  576.64   19.20
   3  -6  -1  582.34   18.80
   3   3   1  621.64   19.50
   3  -6   1  605.04   19.70
   3   3  -1  583.74   19.00
  -6   3   1  599.24   19.60
  -6   3  -1  565.14   18.70
   3  -6   1  604.54   19.00
   6  -3   1  582.84   19.70
  -3  -3   1  596.54   20.40
  -3  -3  -1  586.94   19.90
   6  -3  -1  581.14   19.90
  -3   6   1  595.74   19.90
   6  -3   1  609.64   20.60
  -3   6  -1  592.64   20.00
  -3  -3   1  624.64   19.80
   2   4   1 1059.89   34.10
  -6   4  -1 1035.80   33.60
   2  -6  -1 1069.89   33.60
  -6   2   1 1053.89   34.10
   4  -6   1 1096.89   34.30
  -6   2   1 1065.39   33.90
   4   2  -1 1057.49   33.80
   2   4   1 1090.49   34.10
   4  -6   1 1069.19   33.80
   6  -4   1 1033.10   34.10
   6  -2  -1 1112.29   34.50
  -4   6  -1 1061.99   34.30
  -4  -2   1 1094.29   34.60
  -4  -2   1 1072.79   34.20
  -2   6   1 1084.79   34.30
  -2  -4  -1 1034.10   34.10
   6  -4   1 1083.69   34.70
  -2   6   1 1080.79   34.40
  -6   1   1   -1.40    2.40
   5  -6   1    3.20    2.70
   1   5   1   -0.40    2.40
  -6   5  -1    5.20    2.40
   5  -6   1    3.80    2.50
  -6   1   1    4.30    2.70
   1  -6  -1    3.00    2.10
   1   5   1    2.00    3.20
   5   1  -1    5.10    2.90
  -1   6   1    1.10    2.50
   6  -1  -1    6.50    3.50
   6  -5   1    4.50    2.90
  -5   6  -1    6.60    3.00
  -5  -1   1    3.60    3.10
  -1   6   1    4.40    3.00
  -5  -1   1    5.40    2.70
   6  -5   1    0.80    2.70
  -1  -5  -1    2.20    2.60
   0  -6  -1    4.00    2.60
  -6   0   1    3.70    2.70
  -6   0   1   -0.10    2.90
   6   0  -1    2.20    2.80
   0   6   1    2.10    2.70
   6  -6   1    5.80    2.80
   0   6   1   -1.90    3.00
   6  -6   1    1.50    2.80
  -6   6  -1   -1.20    2.70
   7   0   1 1187.88   34.40
   0   7  -1 1097.59   36.00
   7  -7  -1 1067.69   35.70
   7   0   1 1094.59   35.60
   7  -7  -1 1084.19   35.00
   0  -7   1 1089.09   35.60
  -7   0  -1 1125.69   36.00
  -7   7   1 1098.59   35.70
   1   6  -1  136.79    4.80
   1  -7   1  143.69    6.50
  -7   1  -1  146.09    7.20
   6   1   1  147.39    5.40
   1   6  -1  146.59    7.00
   6  -7  -1  148.99    5.50
  -7   6   1  144.09    5.60
   6  -7  -1  148.29    6.80
  -7   6   1  140.59    6.80
   6   1   1  151.48    6.60
  -6  -1  -1  141.49    7.20
  -1  -6   1  143.49    6.60
  -1   7  -1  147.69    7.20
   7  -6  -1  130.49    7.00
  -6   7   1  141.99    7.10
   7  -1   1  138.39    6.70
   2  -7   1  125.39    4.60
   2   5  -1  119.89    4.50
   2  -7   1  125.69    6.00
   2   5  -1  118.39    6.40
  -7   5   1  124.79    6.00
   5  -7  -1  124.39    4.90
   5   2   1  126.99    5.30
   5   2   1  135.29    6.00
  -7   2  -1  126.79    6.50
  -7   5   1  123.59    5.30
   5  -7  -1  121.29    6.30
  -2   7  -1  135.49    7.00
  -2  -5   1  134.19    6.10
  -5  -2  -1  128.99    6.60
   7  -2   1  136.49    6.20
  -5   7   1  126.49    6.40
   7  -5  -1  129.89    6.60
  -7   4   1 1526.65   48.50
   3  -7   1 1614.44   48.30
   4  -7  -1 1550.74   48.20
  -7   3  -1 1417.96   47.80
   4   3   1 1618.04   48.60
   4  -7  -1 1541.65   48.90
  -7   4   1 1509.45   48.80
   3   4  -1 1468.25   48.10
   4   3   1 1561.04   48.80
   3  -7   1 1562.44   49.00
  -4  -3  -1 1564.84   49.10
  -3   7  -1 1520.45   49.10
   7  -3   1 1549.64   49.10
  -3  -4   1 1580.34   49.10
  -3  -4   1 1561.94   49.80
   7  -4  -1 1614.44   49.30
  -4   7   1 1563.44   49.20
  -7   3   1  126.19    5.80
   3   4   1  133.29    6.10
  -7   4  -1  126.89    5.10
   4   3  -1  134.79    5.50
   4  -7   1  131.99    5.70
   3  -7  -1  129.59    5.30
   3   4   1  133.09    6.20
  -7   3   1  126.69    6.20
   4  -7   1  136.69    6.20
  -4  -3   1  146.79    7.30
  -3  -4  -1  144.89    6.90
  -4  -3   1  140.29    6.50
   7  -4   1  137.89    6.40
   7  -4   1  137.29    7.40
  -4   7  -1  134.79    6.60
  -3   7   1  134.09    6.80
   7  -3  -1  148.89    7.40
  -7   2   1  610.64   20.50
   5  -7   1  625.04   20.70
   5   2  -1  620.34   20.30
   5  -7   1  644.44   20.40
   2  -7  -1  601.94   20.00
   2   5   1  611.64   20.40
   2   5   1  643.74   20.80
  -7   2   1  617.74   20.40
  -7   5  -1  597.84   20.00
   7  -5   1  627.94   21.20
   7  -5   1  634.64   20.80
  -2  -5  -1  599.74   20.50
   7  -2  -1  631.64   21.00
  -2   7   1  625.54   21.00
  -5  -2   1  634.94   20.70
  -2   7   1  601.84   20.60
  -5   7  -1  598.54   20.70
  -5  -2   1  614.04   21.00
   6   1  -1  148.99    6.60
   6  -7   1  138.49    6.80
   6  -7   1  146.39    6.60
   1  -7  -1  147.29    6.30
   1   6   1  137.29    6.50
  -7   6  -1  149.09    6.30
   1   6   1  144.99    6.90
  -7   1   1  142.79    6.60
  -7   1   1  144.19    6.80
   7  -1  -1  151.18    7.00
  -1   7   1  145.69    7.50
  -1   7   1  142.29    6.50
   7  -6   1  151.28    7.10
  -6  -1   1  152.28    7.10
  -6  -1   1  147.89    7.10
  -6   7  -1  145.29    6.90
   7  -6   1  150.38    7.20
  -1  -6  -1  147.99    6.80
   0   7   1   26.20    3.50
   7  -7   1   23.30    3.90
   0   7   1   27.70    4.50
   7  -7   1   32.70    4.10
  -7   0   1   22.70    4.10
  -7   7  -1   26.80    3.50
   0  -7  -1   29.90    3.40
  -7   0   1   32.10    4.00
   7   0  -1   28.40    4.00
   8  -8  -1    1.00    3.60
   8  -8  -1    6.00    2.50
   0  -8   1    3.30    2.80
   0   8  -1    1.60    3.60
   8   0   1   -1.70    1.50
   8   0   1    4.10    3.00
  -8   0  -1    2.00    3.70
   1  -8   1  514.55   14.50
  -8   7   1  464.35   15.10
   1   7  -1  430.86   14.40
   7   1   1  470.95   16.00
   7  -8  -1  477.05   16.20
  -8   7   1  461.05   15.90
   7   1   1  487.05   14.90
   7  -8  -1  474.55   15.20
  -8   1  -1  429.26   17.20
  -7  -1  -1  416.16   16.90
  -1  -7   1  396.66   16.40
  -7   8   1  479.55   16.30
  -1   8  -1  423.56   17.00
  -8   6   1  621.24   20.40
  -8   2  -1  625.64   20.70
   6   2   1  625.24   19.70
   2   6  -1  574.64   19.00
   6  -8  -1  612.44   20.60
   2  -8   1  607.54   20.40
  -8   6   1  589.14   19.60
   6  -8  -1  593.64   19.40
   2  -8   1  629.14   19.20
   2   6  -1  620.64   20.70
   6   2   1  578.84   20.10
  -6  -2  -1  603.04   20.70
   8  -6  -1  615.64   20.90
   8  -2   1  595.44   20.40
  -6   8   1  599.44   20.60
  -2   8  -1  586.54   20.70
  -2  -6   1  599.14   20.40
   3  -8   1  283.67   10.60
   3   5  -1  272.07   10.80
   5   3   1  281.47   10.10
  -8   3  -1  267.07    9.00
   3   5  -1  270.77    9.30
   3  -8   1  289.47    9.60
  -8   3  -1  278.97   11.00
   5  -8  -1  275.17   10.60
   5  -8  -1  278.27    9.50
   5   3   1  277.47   10.30
  -8   5   1  271.37    9.80
  -8   5   1  274.57   10.30
  -5   8   1  280.77   10.90
  -5  -3  -1  291.87   11.00
  -3  -5   1  293.37   10.80
  -3   8  -1  278.97   11.00
   8  -5  -1  276.67   11.00
   8  -3   1  284.77   10.80
   4  -8   1  819.22   25.60
   4  -8  -1  785.92   26.00
   4   4   1  826.92   26.00
   4   4   1  795.12   26.00
  -8   4   1  774.12   25.70
   4   4  -1  769.82   25.30
  -8   4   1  793.72   26.00
   4  -8  -1  763.02   25.30
   4  -8   1  806.32   26.10
  -8   4  -1  755.52   25.00
  -4   8  -1  807.12   26.60
  -4  -4   1  823.22   26.40
  -4  -4  -1  814.02   26.40
  -4   8   1  803.42   26.50
   8  -4   1  803.82   26.40
  -4  -4   1  779.52   27.00
   8  -4  -1  820.42   26.70
   8  -4   1  811.02   27.20
   5   3  -1 1076.99   34.60
  -8   5  -1 1045.40   34.40
  -8   3   1 1059.89   34.90
   3   5   1 1073.49   34.90
   5  -8   1 1116.39   35.30
   3   5   1 1076.79   35.10
  -8   3   1 1066.39   35.00
   3  -8  -1 1076.49   34.50
   5  -8   1 1115.79   34.80
  -5   8  -1 1118.69   35.50
  -3  -5  -1 1065.79   35.20
   8  -5   1 1149.69   35.50
  -5  -3   1 1104.99   35.90
  -3   8   1 1101.69   35.50
  -5  -3   1 1067.59   35.20
   8  -3  -1 1127.99   35.50
   8  -5   1 1140.09   36.10
   2  -8  -1   15.70    2.60
  -8   6  -1   15.60    2.80
   6  -8   1   16.00    3.40
  -8   2   1   17.30    3.00
   6   2  -1   14.20    2.90
   2   6   1   21.20    3.90
   2   6   1   16.50    2.90
  -8   2   1   19.40    3.50
   6  -8   1   21.80    3.40
   8  -2  -1   22.20    4.30
  -2   8   1   22.90    4.00
   8  -6   1   17.00    3.60
  -6  -2   1   19.20    3.90
  -6   8  -1   14.70    3.50
  -2  -6  -1   25.80    4.00
  -2   8   1   20.70    3.80
   8  -6   1   13.40    3.70
  -6  -2   1   21.50    3.50
   7  -8   1  120.39    6.10
   1   7   1  116.99    5.70
  -8   1   1  113.59    6.10
   7  -8   1  120.79    6.70
   1  -8  -1  127.79    5.90
  -8   7  -1  117.39    5.70
   7   1  -1  115.79    6.20
  -8   1   1  120.89    6.10
   1   7   1  114.29    6.50
  -1   8   1  111.69    5.80
  -7   8  -1  121.79    6.60
   8  -1  -1  120.09    6.80
  -7  -1   1  116.19    6.60
  -7  -1   1  113.79    6.70
   8  -7   1  112.19    6.70
  -1  -7  -1  116.99    5.90
   8  -7   1  125.49    6.90
  -1   8   1  112.19    7.20
   8   0  -1  247.78   10.10
   0  -8  -1  261.37   10.00
   0   8   1  260.07    9.90
   8  -8   1  258.37   10.50
  -8   0   1  253.77   10.30
   8  -8   1  272.37   10.60
  -8   8  -1  258.07   10.10
   0   8   1  252.07   10.70
   9  -9  -1   25.50    3.70
   0   9  -1   29.20    4.90
   9   0   1   16.50    2.60
   0  -9   1   21.60    2.10
  -9   9   1   26.30    4.60
   9   0   1   27.60    4.20
  -9   0  -1   22.40    4.80
   9  -9  -1   27.00    4.70
   0  -9   1   26.70    4.30
  -9   8   1  134.59    7.00
   8   1   1  139.19    5.80
   1   8  -1  147.69    7.80
   1   8  -1  128.89    5.10
   8   1   1  130.29    7.00
   1  -9   1  134.19    5.30
   8  -9  -1  133.89    7.60
   1  -9   1  141.39    7.00
   8  -9  -1  142.79    6.40
  -9   1  -1  144.19    7.80
  -8   9   1  142.49    7.30
  -8  -1  -1  150.98    7.90
   9  -1   1  156.68    7.30
  -1  -8   1  156.08    7.20
  -1   9  -1  150.38    7.80
   9  -8  -1  169.48    8.10
  -9   7   1   10.80    3.20
   7   2   1   11.20    3.10
  -9   2  -1   11.40    4.00
   7  -9  -1   15.10    2.50
   7   2   1   12.40    2.70
   2  -9   1   15.30    2.20
  -9   7   1   11.20    2.50
   2   7  -1   12.70    1.70
   2  -9   1   10.40    3.00
   2   7  -1   13.80    4.00
  -2   9  -1   11.00    4.00
  -7   9   1    9.50    3.70
  -2  -7   1    7.70    3.30
   9  -7  -1   13.30    4.10
   9  -2   1    7.60    3.40
  -7  -2  -1   13.50    4.10
  -9   3  -1  311.77   10.50
   6  -9  -1  331.37   11.20
   3  -9   1  297.07   12.90
  -9   3  -1  334.77   12.60
   6   3   1  323.87   12.00
  -9   6   1  337.27   12.20
   3   6  -1  317.27   10.90
   6   3   1  334.17   11.70
  -9   6   1  322.17   11.60
   6  -9  -1  330.87   12.30
   3  -9   1  351.66   11.30
   9  -6  -1  330.07   13.10
  -6  -3  -1  322.47   12.60
  -3  -6   1  335.57   12.40
  -6   9   1  338.67   12.70
  -3   9  -1  328.77   12.80
   9  -3   1  341.27   12.60
   5  -9  -1 1363.46   41.90
   4   5  -1 1392.56   43.00
  -9   5   1 1318.37   42.20
   4  -9   1 1317.77   42.80
   4  -9   1 1380.56   42.10
   5   4   1 1383.26   42.40
  -9   5   1 1349.47   42.50
   4   5  -1 1258.77   41.70
   5  -9  -1 1337.37   42.60
   5   4   1 1348.77   42.50
  -9   4  -1 1278.07   41.40
  -4  -5   1 1358.56   42.80
   9  -5  -1 1337.47   43.00
  -5  -4  -1 1192.78   43.50
  -4   9  -1 1262.17   43.50
  -5   9   1 1418.56   43.20
   9  -4   1 1342.27   42.80
   4  -9  -1   76.49    4.20
   5  -9   1   73.99    5.40
   5  -9   1   80.59    4.90
   5   4  -1   77.69    4.30
   4   5   1   75.19    5.00
   4  -9  -1   71.69    5.00
  -9   5  -1   80.79    3.90
  -9   4   1   78.69    5.10
   4   5   1   79.49    5.50
  -9   4   1   82.09    5.00
  -5   9  -1   78.89    6.20
  -4  -5  -1   75.99    6.30
   9  -5   1   76.29    5.60
  -4   9   1   78.69    5.90
  -5  -4   1   88.59    6.70
  -5  -4   1   82.39    5.30
   9  -4  -1   89.69    6.00
   3  -9  -1  551.54   18.30
  -9   3   1  559.34   18.80
  -9   3   1  549.85   18.70
   6  -9   1  586.94   18.90
  -9   6  -1  566.84   18.20
   6  -9   1  569.54   19.10
   6   3  -1  570.94   18.50
   3   6   1  563.34   19.20
   3   6   1  574.14   18.80
  -6   9  -1  559.84   19.30
   9  -3  -1  497.55   19.90
  -6  -3   1  540.35   19.20
  -6  -3   1  543.05   19.60
  -3   9   1  546.35   19.30
   9  -6   1  517.85   20.90
  -3  -6  -1  554.94   19.00
   2  -9  -1  306.57   11.10
   2   7   1  319.17   12.20
   7  -9   1  327.67   11.90
   7   2  -1  302.77   11.30
   7  -9   1  264.27   12.50
  -9   7  -1  314.97   11.20
   2   7   1  306.07   11.40
  -9   2   1  315.27   11.50
  -9   2   1  304.87   11.70
  -2  -7  -1  319.87   12.00
  -7  -2   1  317.67   12.20
  -7   9  -1  308.47   11.90
  -7  -2   1  306.07   11.90
  -2   9   1  310.97   11.70
  -2   9   1  306.07   12.30
   8  -9   1   27.40    4.50
  -9   8  -1   35.90    4.40
   8  -9   1   28.80    4.30
  -9   1   1   24.20    3.90
   1   8   1   30.20    4.90
  -9   1   1   32.30    4.70
   1  -9  -1   26.10    3.60
   1   8   1   28.50    4.30
   8   1  -1   27.80    4.60
  -1  -8  -1   29.70    4.10
  -1   9   1   30.50    4.80
  -8  -1   1   28.20    4.20
  -8   9  -1   25.20    4.30
   9  -8   1   33.90    5.20
   9  -8   1   30.90    4.70
  -8  -1   1   31.60    4.60
  -1   9   1   32.40    4.30
  -9   0   1  367.86   14.20
  -9   9  -1  365.26   13.80
   0  -9  -1  375.96   13.70
   0   9   1  370.46   14.50
   0   9   1  368.16   13.60
   9  -9   1  371.66   14.20
   9  -9   1  369.66   14.40
  -9   0   1  374.66   14.00
  10 -10  -1  333.47   12.40
   0 -10   1  298.47   10.60
  10 -10  -1  336.07   13.70
 -10  10   1  326.97   13.10
  10   0   1  329.77   12.80
 -10   0  -1  348.77   13.10
   0  10  -1  331.97   13.30
   0 -10   1  330.57   12.60
  10   0   1  301.17   11.00
   9 -10  -1   78.49    6.40
 -10   9   1   75.29    5.80
   1   9  -1   78.69    6.60
   9 -10  -1   79.09    4.90
   1 -10   1   64.29    3.60
   1 -10   1   77.19    5.50
   9   1   1   68.39    4.40
 -10   1  -1   79.89    6.70
   9   1   1   77.19    6.20
   1   9  -1   68.49    3.50
  -9  -1  -1   66.59    6.70
  10  -1   1   81.19    6.60
  -1  -9   1   82.59    5.70
  10  -9  -1   91.89    7.90
  10  -1   1   82.49    4.20
  -9  10   1   74.79    6.60
  -1  10  -1   76.19    6.80
 -10   8   1   72.39    5.40
 -10   2  -1   80.29    6.60
   2 -10   1   68.29    4.10
   8   2   1   73.39    5.50
   8 -10  -1   73.49    6.80
   2 -10   1   82.59    5.40
   2   8  -1   89.29    6.50
 -10   8   1   71.39    4.70
   8   2   1   78.09    4.80
   2   8  -1   72.99    3.60
   8 -10  -1   75.09    4.50
  -8  10   1   83.19    6.30
  10  -2   1   91.69    6.10
  -2  10  -1   82.79    6.80
  10  -8  -1   87.69    6.80
  -2  -8   1   97.39    5.80
  -8  -2  -1   79.19    6.60
 -10   7   1  256.57    9.90
 -10   3  -1  244.48    8.40
   7 -10  -1  254.77    9.40
   3 -10   1  268.77    9.40
   7 -10  -1  265.37   10.90
   7   3   1  247.98   10.20
 -10   3  -1  259.27   11.00
   3   7  -1  255.67   10.90
   7   3   1  254.37    9.90
   3 -10   1  255.97   10.30
 -10   7   1  233.68   11.00
   3   7  -1  250.37    8.80
  -3  -7   1  267.57   10.50
  10  -7  -1  268.27   11.30
  10  -3   1  273.77   10.90
  -7  -3  -1  264.47   11.10
  -7  10   1  263.77   11.00
  -3  10  -1  261.77   11.30
   6 -10  -1  195.08    7.40
   6   4   1  189.28    8.50
 -10   4  -1  182.88    6.70
   4 -10   1  195.48    7.80
   4   6  -1  185.68    7.10
 -10   6   1  186.68    8.10
   4 -10   1  193.98    8.40
 -10   4  -1  190.28    8.90
   6   4   1  169.08    9.00
 -10   6   1  195.38    8.40
   4   6  -1  180.58    8.70
  -6  -4  -1  193.78    9.10
  -4  10  -1  215.28    9.50
  -6  10   1  212.48    9.60
  -4  -6   1  204.38    8.80
  10  -4   1  212.28    9.10
  10  -6  -1  199.18    9.40
   5   5   1  445.66   15.50
   5 -10  -1  435.76   14.70
 -10   5  -1  424.36   14.20
   5 -10   1  441.36   15.40
 -10   5   1  436.66   15.30
   5 -10   1  459.85   15.20
 -10   5   1  424.46   15.30
 -10   5  -1  420.36   16.00
   5   5  -1  434.46   14.50
   5   5   1  432.16   15.20
   5 -10  -1  431.46   15.40
  -5  10   1  453.15   16.20
  10  -5   1  412.86   15.80
  10  -5  -1  425.16   16.10
  -5  -5  -1  432.76   15.90
  -5  -5   1  434.46   15.80
  -5  10  -1  437.16   16.10
   6 -10   1  526.85   18.10
 -10   4   1  509.95   17.90
 -10   6  -1  507.85   17.10
   4   6   1  526.85   18.30
 -10   4   1  499.15   17.90
   4 -10  -1  497.45   17.90
   6 -10   1  557.64   18.00
   6   4  -1  493.45   17.40
   4   6   1  519.95   17.90
   4 -10  -1  524.45   17.30
  10  -4  -1  540.25   18.80
  -6  -4   1  509.45   18.20
  -4  -6  -1  523.95   18.30
  -6  -4   1  492.55   19.10
  10  -6   1  545.65   18.70
  -6  10  -1  522.35   18.60
  -4  10   1  521.85   18.70
  10  -6   1  516.75   19.20
   3   7   1    7.90    4.20
 -10   7  -1    8.50    2.70
   3   7   1    6.80    2.90
 -10   3   1    4.20    3.40
   7 -10   1   11.80    3.70
   3 -10  -1    6.90    2.60
 -10   3   1    5.20    2.80
   7 -10   1    5.50    3.10
   7   3  -1    6.40    3.10
  -3  10   1    8.10    4.20
  -7  10  -1   14.00    4.70
  10  -7   1    6.50    4.60
  -7  -3   1    5.80    4.40
  -7  -3   1    9.40    3.70
  -3  -7  -1    8.40    3.70
  10  -3  -1    4.20    4.20
  10  -7   1    7.70    4.00
 -10   8  -1  384.36   13.70
 -10   2   1  397.26   14.00
   8 -10   1  385.16   14.40
   2 -10  -1  389.26   13.70
   2   8   1  372.36   13.60
   8   2  -1  382.06   13.90
 -10   2   1  360.66   14.30
   8 -10   1  381.06   14.30
  -8  -2   1  382.36   14.80
  -2  10   1  371.06   14.30
  -8  10  -1  382.96   14.30
  10  -8   1  407.46   15.00
  -2  -8  -1  372.76   14.00
  -2  10   1  370.66   14.90
  10  -8   1  370.96   14.70
  -8  -2   1  369.96   14.20
  10  -2  -1  381.56   14.70
   1   9   1  781.02   26.40
   9 -10   1  796.62   27.00
   9 -10   1  777.22   27.70
   1   9   1  779.82   27.10
 -10   9  -1  792.72   26.40
   1 -10  -1  797.32   26.40
 -10   1   1  816.42   26.70
 -10   1   1  778.32   26.70
  -9  -1   1  816.82   27.10
  10  -9   1  831.42   27.30
  -1  10   1  825.22   27.40
  10  -1  -1  779.22   26.80
  -1  10   1  825.42   26.80
  -9  -1   1  782.52   26.80
  -1  -9  -1  774.72   26.40
  10  -9   1  772.82   27.10
  10 -10   1   83.99    7.30
   0  10   1   85.09    6.10
  10   0  -1   84.99    6.70
 -10   0   1   90.69    6.50
   0 -10  -1   94.09    5.80
 -10   0   1   81.79    6.00
   0  10   1   84.79    7.90
  10 -10   1   90.99    7.10
  11   0   1   30.40    4.90
  11   0   1   30.90    3.20
  11 -11  -1   34.90    4.90
   0  11  -1   33.80    6.00
 -11   0  -1   28.40    5.80
  11 -11  -1   38.90    6.30
   0 -11   1   29.50    5.00
   0 -11   1   26.20    2.80
 -11  11   1   28.40    5.00
 -11   1  -1  166.48    9.10
   1 -11   1  161.48    8.00
 -11  10   1  165.58    8.80
  10   1   1  172.98    8.70
  10 -11  -1  169.18    7.60
   1 -11   1  158.98    6.30
  10 -11  -1  169.88    8.90
   1  10  -1  159.08    9.00
  10   1   1  155.28    6.80
  -1  11  -1  159.68    9.30
  11 -10  -1  167.38    9.60
 -10  11   1  150.88    8.40
 -10  -1  -1  165.38    9.30
  -1 -10   1  158.88    8.10
  11  -1   1  155.38    8.40
   9 -11  -1  383.56   13.40
   2 -11   1  358.56   12.60
   9 -11  -1  362.16   14.50
   9   2   1  374.86   13.20
 -11   9   1  364.86   14.00
 -11   9   1  359.06   13.30
   2   9  -1  366.66   12.40
   9   2   1  373.86   14.00
   2   9  -1  376.06   14.70
   2 -11   1  369.76   14.00
 -11   2  -1  379.16   14.80
  -2  -9   1  364.46   14.10
  -9  -2  -1  387.46   14.90
  11  -2   1  389.16   14.40
  11  -9  -1  387.66   15.50
  -2  11  -1  383.96   15.20
  -9  11   1  393.76   14.60
   8   3   1  296.07   11.20
 -11   3  -1  291.67   12.40
   8 -11  -1  290.97   12.00
   3   8  -1  307.27   12.80
   3   8  -1  297.47   10.20
 -11   8   1  292.97   11.10
   8   3   1  292.77   11.80
   8 -11  -1  305.07   10.90
   3 -11   1  301.17   10.70
 -11   3  -1  267.47    9.70
 -11   8   1  302.77   11.90
   3 -11   1  297.47   11.70
  -3  -8   1  296.27   11.90
  -3  11  -1  320.47   12.70
  -8  11   1  290.87   12.30
  11  -3   1  305.57   12.20
  -8  -3  -1  305.67   12.50
  11  -8  -1  304.87   12.60
   4   7  -1    1.10    3.90
   7 -11  -1    3.20    4.10
 -11   7   1    3.80    3.50
   7   4   1    1.20    3.10
 -11   7   1    6.80    3.10
   4 -11   1    3.30    3.00
   7   4   1   -1.20    3.40
 -11   4  -1   -1.20    4.00
   4 -11   1    5.40    3.30
   4   7  -1    4.90    2.00
 -11   4  -1    4.00    1.60
   7 -11  -1    3.60    2.40
  -7  -4  -1    4.10    3.50
  11  -7  -1    2.70    4.70
  -7  11   1    1.60    4.10
  11  -4   1    2.40    4.10
  -4  11  -1    0.70    4.50
  -4  -7   1    8.60    3.80
 -11   6   1  427.46   15.50
 -11   5  -1  443.86   16.50
   6 -11  -1  419.06   15.80
   6   5   1  420.16   15.90
 -11   6   1  428.86   15.80
   6   5   1  445.16   15.70
   5 -11   1  442.26   15.80
   5   6  -1  434.96   16.10
   6 -11  -1  432.06   14.90
 -11   5  -1  406.66   14.30
   5 -11   1  461.85   15.40
   5   6  -1  413.96   14.60
  -6  11   1  455.85   16.60
  -6  -5  -1  450.95   16.40
  11  -6  -1  444.16   16.60
  -5  -6   1  458.95   16.00
  11  -5   1  436.76   16.30
  -5  11  -1  453.15   16.60
 -11   6  -1   73.89    4.00
   6 -11   1   81.89    5.50
 -11   5   1   74.99    5.50
 -11   5   1   66.09    5.70
   6   5  -1   75.69    6.70
   6   5  -1   75.59    4.60
   6 -11   1   74.19    5.80
   5 -11  -1   64.99    6.80
   5   6   1   76.39    5.10
   5   6   1   79.29    6.10
   5 -11  -1   79.69    4.50
  11  -6   1   80.99    6.70
  -6  11  -1   84.59    6.90
  11  -5  -1   82.79    7.00
  -5  11   1   79.59    6.80
  -5  -6  -1   78.69    6.40
  -6  -5   1   84.19    6.00
 -11   7  -1  233.78    8.90
 -11   4   1  234.68   10.10
   7 -11   1  244.18   10.00
   4 -11  -1  240.58    9.20
   4 -11  -1  210.08   10.60
   7   4  -1  230.68    9.30
   7 -11   1  237.58    9.90
 -11   4   1  230.18    9.70
   4   7   1  239.18   10.50
  -4  11   1  248.48   10.80
  11  -7   1  256.17   11.20
  -7  11  -1  237.38   10.70
  -4  -7  -1  235.78   10.20
  -7  -4   1  226.18   11.20
  11  -7   1  241.88   11.30
  11  -4  -1  229.48   10.80
  -7  -4   1  235.48   10.30
   3 -11  -1  398.06   14.00
 -11   8  -1  388.46   13.90
   8 -11   1  411.96   14.90
 -11   3   1  375.66   14.60
 -11   3   1  390.36   14.20
   3   8   1  382.56   15.20
   8 -11   1  395.56   14.60
   8   3  -1  383.26   14.10
  -8  -3   1  349.87   16.20
  -8  11  -1  404.86   15.00
  11  -3  -1  392.16   15.10
  -3  -8  -1  401.86   14.60
  -8  -3   1  391.36   14.90
  -3  11   1  395.06   15.30
  11  -8   1  398.26   15.80
  11  -8   1  408.76   15.30
 -11   2   1   88.69    6.20
 -11   2   1   93.69    6.70
 -11   9  -1  102.49    6.00
   9 -11   1   91.09    6.50
   9   2  -1   89.29    5.80
   9 -11   1   99.69    8.10
   2   9   1   84.89    6.90
  -9  11  -1  107.59    7.40
  11  -2  -1   93.69    6.90
  11  -9   1  100.39    7.20
  -2  11   1   94.09    7.70
  -2  -9  -1   91.39    6.20
  -9  -2   1  100.79    6.90
  11  -9   1  104.99    7.40
  -2  11   1   82.49    7.70
 -11   1   1  507.95   18.30
  10 -11   1  543.25   19.10
 -11   1   1  506.85   18.40
  10 -11   1  517.25   18.60
   1 -11  -1  499.65   17.90
   1  10   1  506.25   18.90
  10   1  -1  513.85   18.40
 -11  10  -1  503.95   18.20
  -1 -10  -1  493.55   18.10
  11  -1  -1  505.15   18.50
 -10  -1   1  502.75   18.50
  11 -10   1  513.95   19.20
  -1  11   1  502.85   18.90
 -10  11  -1  501.25   18.40
  11 -10   1  516.55   18.80
   0  11   1 1175.08   38.00
  11   0  -1 1127.89   38.00
   0 -11  -1 1185.08   38.00
  11 -11   1 1153.58   38.70
 -11  11  -1 1159.18   38.10
   0  11   1 1179.98   39.00
 -11   0   1 1090.69   39.30
 -11   0   1 1177.98   38.50
  11 -11   1 1195.68   38.70
   0 -12   1  162.78    8.90
 -12   0  -1  168.48    9.80
  12 -12  -1  148.59    9.60
  12   0   1  170.98    9.40
 -12  12   1  145.99    8.70
  12 -12  -1  145.99    8.70
   0  12  -1  155.18   10.10
 -12  11   1  337.07   13.70
 -12   1  -1  354.36   14.60
  11   1   1  344.77   14.00
   1  11  -1  349.96   14.50
   1 -12   1  343.67   13.60
  11 -12  -1  351.96   13.30
  11   1   1  320.47   12.30
  11 -12  -1  377.76   15.10
   1 -12   1  324.97   11.70
 -11  -1  -1  355.66   14.60
  -1  12  -1  346.67   14.70
  12  -1   1  321.87   12.70
 -11  12   1  344.77   13.90
  -1 -11   1  355.96   13.70
  12 -11  -1  338.57   14.60
  12  -1   1  352.16   13.80
  10   2   1   72.69    5.40
   2  10  -1   79.49    4.20
   2 -12   1   66.79    4.80
 -12   2  -1   84.79    7.40
   2 -12   1   86.39    6.10
   2  10  -1   84.19    7.30
  10   2   1   82.79    6.30
 -12  10   1   84.79    5.70
 -12  10   1   73.49    6.20
  10 -12  -1   81.79    5.70
  10 -12  -1   84.29    7.10
  12  -2   1   82.79    6.70
 -10  -2  -1   91.29    7.70
  12 -10  -1   94.39    7.70
 -10  12   1   83.19    7.10
  -2 -10   1   83.59    6.40
  -2  12  -1  102.19    7.90
   9 -12  -1   18.10    3.40
   3 -12   1   17.00    3.80
 -12   9   1   14.40    3.70
   9   3   1   15.00    3.90
   3   9  -1   14.00    4.90
   9 -12  -1   22.30    5.30
   9   3   1   12.30    3.60
 -12   3  -1   18.30    5.30
 -12   3  -1   12.80    2.10
 -12   9   1   14.40    4.50
   3   9  -1   17.00    2.90
   3 -12   1   13.50    3.20
  -9  -3  -1   19.00    5.30
  -3  12  -1   16.40    5.60
  -3  -9   1   17.00    4.30
  -9  12   1   14.90    4.80
  12  -3   1   10.80    4.90
  12  -9  -1   11.90    5.30
   4   8  -1  343.67   14.20
   4 -12   1  354.86   13.60
 -12   4  -1  355.86   14.30
   4 -12   1  368.06   12.90
   8 -12  -1  357.56   12.80
   8   4   1  366.86   13.80
   4   8  -1  352.46   12.20
 -12   8   1  340.27   13.30
 -12   8   1  340.97   13.20
   8   4   1  354.46   13.40
 -12   4  -1  350.46   11.80
   8 -12  -1  359.96   14.20
  -4  -8   1  366.86   14.00
  -8  -4  -1  361.46   14.30
  12  -4   1  370.26   14.30
  -4  12  -1  381.36   14.80
  12  -8  -1  342.27   14.50
  -8  12   1  353.16   14.30
 -12   5  -1  233.48   11.10
   7 -12  -1  231.38    9.10
   7   5   1  227.48   10.30
   7 -12  -1  237.58   10.60
   5 -12   1  240.38    9.80
   5   7  -1  224.88    8.80
 -12   7   1  227.38    9.70
   5   7  -1  234.48   10.60
 -12   5  -1  224.78    8.30
 -12   7   1  230.28   10.10
   5 -12   1  238.98   10.00
   7   5   1  238.18   10.10
  -7  -5  -1  240.88   10.90
  -7  12   1  243.08   11.00
  -5  -7   1  245.98   10.50
  -5  12  -1  252.87   11.30
  12  -5   1  249.08   10.90
  12  -7  -1  250.27   11.40
 -12   6   1   68.99    5.90
 -12   6  -1   66.09    3.90
   6 -12  -1   65.89    4.70
   6   6   1   69.29    5.60
 -12   6  -1   71.79    6.40
   6 -12  -1   71.69    6.40
   6   6   1   67.29    6.10
 -12   6   1   63.39    5.00
   6   6  -1   65.89    4.50
   6 -12   1   66.29    5.40
   6   6  -1   65.19    6.00
   6 -12   1   72.49    6.00
  -6  12   1   61.79    6.80
  12  -6   1   72.49    6.70
  12  -6  -1   66.99    7.80
  -6  -6  -1   73.39    6.60
  -6  12  -1   82.49    7.20
  -6  -6   1   74.99    6.30
 -12   5   1  306.97   15.50
   5 -12  -1  345.37   12.50
   5   7   1  345.57   13.00
   5 -12  -1  329.57   13.20
   5   7   1  340.17   13.60
   7 -12   1  323.17   13.10
   7   5  -1  331.27   13.40
   7 -12   1  353.66   13.40
 -12   7  -1  329.27   11.90
   7   5  -1  330.17   12.30
  -5  12   1  346.37   14.10
  12  -5  -1  357.76   14.70
  -7  12  -1  351.36   14.10
  -7  -5   1  347.07   13.50
  -5  -7  -1  345.47   13.50
  12  -7   1  357.96   14.10
   8 -12   1   53.19    6.40
   4 -12  -1   56.69    4.60
 -12   8  -1   47.50    4.30
   4   8   1   49.60    5.20
   8 -12   1   47.80    5.10
   8   4  -1   49.60    4.60
   4   8   1   43.30    5.80
   4 -12  -1   48.60    5.70
 -12   4   1   42.80    5.90
 -12   4   1   50.89    6.20
  -4  -8  -1   57.59    5.90
  -4  12   1   57.59    6.80
  12  -8   1   46.40    7.30
  -8  -4   1   52.59    5.80
  -8  12  -1   60.79    6.50
  12  -8   1   53.39    6.90
  12  -4  -1   53.19    6.70
   3 -12  -1  274.27   10.70
 -12   9  -1  278.97   10.80
   3   9   1  275.77   11.10
   9   3  -1  267.37   11.00
 -12   3   1  235.18   11.90
   3   9   1  276.57   12.40
   9 -12   1  262.47   11.40
 -12   3   1  272.27   11.40
  12  -9   1  291.57   12.80
  -3  12   1  279.57   12.40
  -3  -9  -1  259.77   11.20
  -9  -3   1  276.07   12.90
  12  -3  -1  276.77   11.90
  -9  12  -1  285.07   11.80
  12  -9   1  266.47   12.60
  -9  -3   1  261.47   11.60
   2  10   1  921.91   30.30
   2  10   1  890.71   31.10
  10 -12   1  911.81   31.00
  10   2  -1  918.51   30.40
 -12   2   1  927.41   30.90
   2 -12  -1  903.11   30.20
  10 -12   1  902.11   30.80
 -12  10  -1  884.61   30.10
  12  -2  -1  914.91   30.80
  12 -10   1  907.11   31.40
  -2 -10  -1  885.51   30.30
  -2  12   1  910.71   30.60
 -10  -2   1  897.61   31.30
  12 -10   1  972.40   31.50
  -2  12   1  884.01   31.20
 -10  12  -1  929.91   30.80
 -10  -2   1  901.61   30.80
   1  11   1  159.78    8.40
 -12  11  -1  164.58    8.70
  11 -12   1  160.58    8.90
  11   1  -1  157.68    9.00
 -12   1   1  148.99    8.60
  11 -12   1  170.58    9.90
   1  11   1  155.98    9.50
 -12   1   1  164.38    8.90
   1 -12  -1  155.68    7.90
  -1  12   1  165.38    9.80
  -1  12   1  156.98    9.30
 -11  -1   1  156.98    9.60
 -11  12  -1  167.98    9.40
  12 -11   1  159.28    9.20
  12  -1  -1  157.18    9.50
 -11  -1   1  163.18    9.00
  12 -11   1  163.88    9.50
  -1 -11  -1  164.68    8.40
  12 -12   1  436.86   17.40
   0  12   1  414.56   17.70
   0  12   1  424.96   16.30
   0 -12  -1  425.36   15.90
 -12  12  -1  427.16   16.10
  12   0  -1  427.76   16.70
 -12   0   1  428.76   16.70
 -12   0   1  417.66   16.60
  12 -12   1  432.66   17.00
   0  13  -1  125.39    9.80
  13 -13  -1   99.59    9.10
 -13  13   1  104.19    8.30
 -13   0  -1  113.09    9.50
   0 -13   1  109.39    7.70
  13 -13  -1  107.19    8.50
  13   0   1  114.49    8.30
 -13   1  -1   27.70    6.80
   1 -13   1   37.00    5.70
  12   1   1   34.10    5.60
   1  12  -1   32.10    6.90
  12   1   1   35.10    4.20
 -13  12   1   34.70    5.70
  12 -13  -1   35.50    5.30
  12 -13  -1   31.20    6.20
  13  -1   1   25.60    5.70
 -12  13   1   32.30    6.40
  -1 -12   1   48.10    4.80
  -1  13  -1   47.40    8.30
  13 -12  -1   37.30    7.30
 -12  -1  -1   37.10    6.70
  -1 -12   1   30.30    5.20
 -13  11   1   85.59    6.30
  11 -13  -1   98.79    8.90
 -13   2  -1   91.29    8.30
  11   2   1   84.99    6.80
  11 -13  -1   96.29    6.70
   2  11  -1   96.39    8.20
  11   2   1   71.09    5.80
 -13  11   1   83.49    6.80
   2 -13   1   90.59    6.60
   2  11  -1   75.09    4.70
  13 -11  -1   88.79    8.50
  -2  13  -1   94.49    9.00
 -11  -2  -1  104.79    8.50
 -11  13   1   77.19    7.40
  13  -2   1   86.79    7.50
  -2 -11   1   90.69    7.00
 -13  10   1  200.98    9.00
   3  10  -1  207.98    7.90
 -13  10   1  206.88    9.60
   3  10  -1  212.08   10.60
   3 -13   1  211.28    9.60
  10 -13  -1  198.88    9.00
  10   3   1  196.28    9.30
   3 -13   1  168.48    8.30
  10   3   1  191.08    9.00
  10 -13  -1  206.58   10.30
 -13   3  -1  211.38   10.70
 -10  -3  -1  214.78   11.00
  -3  13  -1  203.98   11.10
  -3 -10   1  215.28    9.80
 -10  13   1  205.78   10.50
  13  -3   1  207.78   10.10
  13 -10  -1  196.98   11.00
   4   9  -1  225.88   11.00
 -13   4  -1  208.18    8.00
   4 -13   1  236.98   10.10
   9 -13  -1  228.68    9.40
 -13   9   1  221.58   10.00
   9   4   1  223.88   10.10
   9 -13  -1  234.28   10.70
 -13   9   1  215.18    9.90
   4   9  -1  227.68    8.50
   4 -13   1  219.18    9.20
   9   4   1  229.18   10.30
 -13   4  -1  208.68   10.90
  -4  13  -1  236.18   11.50
  -9  13   1  221.78   11.00
  13  -4   1  237.48   10.90
  -4  -9   1  232.48   10.40
  13  -9  -1  229.98   11.50
  -9  -4  -1  231.18   11.30
 -13   5  -1   57.29    6.90
 -13   5  -1   57.59    3.60
   8 -13  -1   65.39    7.10
 -13   8   1   60.89    5.90
   5   8  -1   61.19    4.30
   8   5   1   53.49    5.40
   8   5   1   45.30    6.10
   5 -13   1   54.09    5.30
   8 -13  -1   58.79    4.60
   5 -13   1   61.39    5.50
 -13   8   1   62.99    5.80
   5   8  -1   61.99    6.60
  13  -8  -1   60.79    7.60
  -8  13   1   63.39    7.00
  -8  -5  -1   60.49    7.00
  -5  13  -1   58.89    7.50
  -5  -8   1   63.39    6.30
  13  -5   1   68.79    7.00
 -13   7   1   43.10    6.90
   7 -13  -1   53.29    4.20
   6 -13   1   48.30    5.10
   7   6   1   38.40    6.20
 -13   6  -1   51.69    3.70
   6   7  -1   49.00    6.10
   6 -13   1   51.49    5.30
 -13   7   1   49.40    5.60
   7 -13  -1   49.50    6.30
   6   7  -1   48.40    4.40
   7   6   1   42.00    5.50
 -13   6  -1   38.90    6.10
  -7  -6  -1   62.39    6.90
  13  -6   1   41.30    7.20
  -6  13  -1   72.09    7.60
  -7  13   1   45.20    6.90
  -6  -7   1   60.99    6.30
  13  -7  -1   44.60    7.00
 -13   7  -1    5.60    4.70
   6   7   1    5.60    5.10
   7 -13   1    5.20    3.60
   7   6  -1    6.10    3.00
   7 -13   1    4.30    4.30
   6 -13  -1   10.10    4.70
 -13   6   1   10.10    3.80
 -13   6   1   12.00    4.50
   6 -13  -1    8.30    3.00
 -13   7  -1    9.00    2.50
   6   7   1    6.60    3.40
   7   6  -1   13.00    4.90
  -6  13   1    0.20    4.80
  -7  13  -1   12.10    5.50
  13  -7   1    9.50    5.00
  -7  -6   1   10.40    4.50
  13  -6  -1   11.80    5.60
  -6  -7  -1   14.10    4.90
   5   8   1  199.88    9.20
   5 -13  -1  190.58    9.30
 -13   5   1  203.98    9.90
   5   8   1  193.28   10.30
   5 -13  -1  210.58    9.90
   8 -13   1  212.68    9.90
   8   5  -1  211.08    8.80
 -13   8  -1  195.48    8.30
   8   5  -1  211.98   10.40
   8 -13   1  192.18    9.30
 -13   5   1  204.18    9.40
  -8  -5   1  194.98    9.90
  13  -8   1  216.78   10.70
  -8  13  -1  215.38   10.70
  -5  13   1  209.48   10.60
  -5  -8  -1  203.28   10.00
  13  -5  -1  217.18   10.70
 -13   9  -1  529.15   18.30
   9   4  -1  543.05   18.60
   4 -13  -1  520.35   18.90
   4   9   1  551.04   20.00
 -13   4   1  538.45   19.50
   9 -13   1  438.76   20.10
   4 -13  -1  525.15   18.50
   4   9   1  526.35   18.80
 -13   4   1  536.95   18.90
   9 -13   1  536.95   19.20
  -9  13  -1  570.54   20.10
  13  -4  -1  527.05   19.70
  -9  -4   1  527.65   19.40
  -4  13   1  527.35   19.90
  -4  -9  -1  543.85   19.30
  13  -9   1  532.05   20.50
  10 -13   1  180.58    9.90
 -13   3   1  188.08    9.10
   3  10   1  171.98    9.80
   3 -13  -1  181.28    8.60
 -13   3   1  177.98    9.40
 -13  10  -1  187.18    8.50
  10 -13   1  159.88    9.10
  10   3  -1  178.88    9.00
   3  10   1  180.68    8.80
  -3  13   1  174.88   10.30
 -10  -3   1  176.18   11.10
 -10  -3   1  177.48    9.50
  13  -3  -1  176.48    9.90
  -3 -10  -1  171.68    9.10
 -10  13  -1  179.98    9.80
  13 -10   1  194.88   10.20
  13 -10   1  172.18   10.50
 -13  11  -1  291.97   12.20
   2  11   1  285.37   13.70
 -13   2   1  304.57   13.30
   2 -13  -1  292.07   11.90
   2  11   1  293.17   12.20
  11 -13   1  282.97   13.10
  11 -13   1  304.27   13.50
 -13   2   1  302.97   12.60
  11   2  -1  308.37   12.60
  -2  13   1  288.07   13.50
  13 -11   1  292.07   13.60
 -11  -2   1  291.17   13.00
  13  -2  -1  304.97   13.50
 -11  13  -1  291.27   12.90
  13 -11   1  304.17   14.10
  -2 -11  -1  309.37   12.90
  -2  13   1  274.67   12.80
 -11  -2   1  297.97   14.00
 -13  12  -1  926.81   32.20
 -13   1   1  983.00   33.10
   1  12   1  957.30   33.20
   1  12   1 1003.00   32.40
 -13   1   1  969.60   32.80
   1 -13  -1  925.71   32.00
  12   1  -1  971.30   32.50
  12 -13   1  970.70   33.20
  12 -13   1  955.80   33.00
 -12  13  -1  933.61   32.40
  -1  13   1  966.20   32.60
 -12  -1   1  998.90   33.30
  13 -12   1  985.10   33.30
 -12  -1   1  976.50   33.10
  13  -1  -1  949.21   32.60
  -1 -12  -1  954.20   32.30
  13 -12   1  961.00   33.30
  -1  13   1  949.11   33.20
   0  13   1  168.08    9.50
 -13  13  -1  172.78   10.10
  13 -13   1  169.68   11.20
   0  13   1  156.68   10.70
  13 -13   1  163.48   10.80
 -13   0   1  166.68   10.80
  13   0  -1  170.48    9.70
 -13   0   1  169.28    9.90
   0 -13  -1  169.58    8.90
   0  14  -1   29.10    7.80
  14   0   1   17.30    5.70
 -14  14   1   26.20    6.20
   0 -14   1   23.40    5.50
  14 -14  -1   21.50    7.70
 -14   0  -1   29.50    7.40
 -14  13   1   11.30    5.90
  13 -14  -1   12.00    6.30
   1  13  -1   18.40    7.10
  13   1   1    9.00    3.80
 -14   1  -1   17.40    6.80
  13   1   1    7.00    5.10
  13 -14  -1   11.30    5.10
   1 -14   1   10.30    4.80
  -1  14  -1   12.00    7.30
  14  -1   1    8.30    5.40
  14 -13  -1    8.90    7.20
 -13  14   1   12.20    6.10
  -1 -13   1   19.20    5.60
 -13  -1  -1   14.40    6.80
  12   2   1  136.99    7.70
   2 -14   1  156.08    8.60
   2  12  -1  131.49    6.50
  12   2   1  149.59    8.80
 -14   2  -1  155.98   10.30
  12 -14  -1  150.58    9.60
 -14  12   1  143.59    8.70
  12 -14  -1  157.68    8.70
 -14  12   1  148.59    8.30
   2  12  -1  143.69   10.10
  -2  14  -1  142.59   10.70
 -12  14   1  134.49    9.20
  -2 -12   1  148.79    8.90
 -12  -2  -1  178.58   10.70
  14 -12  -1  142.69   10.30
  14  -2   1  157.08    9.40
 -14  11   1   33.90    5.50
   3  11  -1   43.00    7.40
   3  11  -1   43.90    4.30
  11 -14  -1   38.90    7.00
   3 -14   1   38.60    5.70
 -14   3  -1   36.10    6.90
  11   3   1   34.00    5.30
 -14  11   1   35.90    6.10
  11 -14  -1   33.60    5.60
  11   3   1   33.50    5.10
 -11  -3  -1   42.80    7.80
  -3  14  -1   51.79    8.50
  14  -3   1   41.30    6.30
  14 -11  -1   44.50    7.20
 -11  14   1   41.30    6.80
  -3 -11   1   33.80    6.20
 -14  10   1   64.39    7.40
   4 -14   1   63.79    6.00
   4 -14   1   53.99    5.10
 -14   4  -1   47.90    7.40
 -14   4  -1   47.50    3.70
  10 -14  -1   61.49    7.10
 -14  10   1   55.29    6.70
   4  10  -1   67.29    4.50
  10   4   1   39.80    6.20
  10 -14  -1   71.29    5.90
   4  10  -1   59.59    7.50
  10   4   1   60.69    6.20
 -10  -4  -1   65.09    8.20
  14  -4   1   56.89    7.20
  14 -10  -1   66.49    8.50
  -4 -10   1   61.99    6.70
  -4  14  -1   65.09    8.60
 -10  14   1   48.40    7.30
   9 -14  -1  211.68    9.10
   5   9  -1  210.58   10.90
   5 -14   1  206.58    9.80
   9 -14  -1  219.58   11.10
   5 -14   1  177.38    9.20
 -14   5  -1  211.68    7.90
 -14   9   1  211.68   10.10
   9   5   1  215.98    9.70
 -14   5  -1  194.98   10.80
   9   5   1  182.58    9.90
   5   9  -1  207.08    8.40
 -14   9   1  193.28   11.00
  14  -5   1  220.18   10.90
  -9  14   1  216.48   11.10
  14  -9  -1  201.08   11.50
  -9  -5  -1  236.68   11.20
  -5  14  -1  219.98   12.70
  -5  -9   1  224.88   10.40
 -14   8   1   40.30    5.30
 -14   6  -1   53.09    4.00
 -14   8   1   50.29    6.20
   8 -14  -1   48.20    7.20
   8 -14  -1   53.09    5.00
   6   8  -1   49.50    4.30
   8   6   1   41.70    6.00
   6   8  -1   42.40    6.80
 -14   6  -1   40.00    7.00
   6 -14   1   53.79    5.50
   8   6   1   48.70    6.30
   6 -14   1   46.20    5.30
  -8  -6  -1   50.19    7.30
  14  -6   1   45.80    7.00
  14  -8  -1   45.70    8.00
  -6  -8   1   53.99    6.50
  -8  14   1   50.49    7.40
   7   7   1   -1.20    3.80
   7 -14  -1    5.00    3.30
 -14   7  -1    5.00    2.60
   7 -14   1   -8.50    4.20
 -14   7   1    4.40    4.50
   7 -14  -1    5.50    4.30
   7   7  -1    3.60    3.00
   7   7   1   -6.50    4.50
   7 -14   1    2.50    3.90
 -14   7   1    3.20    4.10
   7   7  -1    3.90    5.30
 -14   7  -1   14.60    5.30
  14  -7  -1    5.40    5.90
  -7  -7  -1   13.30    5.40
  -7  14  -1    7.70    6.10
  14  -7   1   -4.80    5.50
  -7  -7   1    7.10    5.00
  -7  14   1   -1.70    5.50
   6 -14  -1  140.89    7.10
   8 -14   1  123.99    8.60
 -14   8  -1  132.39    6.60
   8   6  -1  141.19    8.30
   8   6  -1  128.69    7.10
   6 -14  -1  137.79    8.60
   6   8   1  118.69    8.70
 -14   8  -1  131.99    8.80
   8 -14   1  133.39    7.80
   6   8   1  136.89    7.90
 -14   6   1  131.09    7.80
 -14   6   1  136.69    8.00
  14  -6  -1  133.49    9.40
  -8  14  -1  152.38   10.40
  -6  14   1  132.19    9.50
  -6  -8  -1  134.59    8.70
  -8  -6   1  147.69    8.70
  14  -8   1  146.19   10.20
   5 -14  -1  104.59    6.30
   9   5  -1   97.09    6.40
 -14   5   1  103.49    8.10
   5   9   1   88.79    6.90
   9 -14   1   89.39    7.40
   9   5  -1   83.09    7.80
   5 -14  -1   90.89    7.50
 -14   9  -1   91.79    6.10
   5   9   1   91.29    8.30
   9 -14   1   92.99    7.70
 -14   5   1   91.19    7.30
  -5  -9  -1  105.09    8.60
  -9  14  -1   95.19    8.40
  14  -9   1   90.89    9.20
  -9  -5   1  103.59    7.90
  -5  14   1  108.19    8.60
  14  -5  -1  101.59    8.40
  10 -14   1  188.58   10.60
  10 -14   1  183.48    9.80
   4  10   1  195.78    9.60
  10   4  -1  185.28    9.30
   4  10   1  192.68   10.60
   4 -14  -1  201.58    9.20
 -14  10  -1  193.88    8.90
   4 -14  -1  204.98   10.00
 -14   4   1  200.08    9.80
 -14   4   1  206.88   10.20
  14  -4  -1  198.38   11.60
  14 -10   1  210.88   11.20
  -4  14   1  191.18   11.10
  14 -10   1  189.18   11.50
 -10  14  -1  209.38   11.60
 -10  -4   1  196.88   10.30
  -4 -10  -1  215.18   10.80
 -14   3   1  717.63   25.40
 -14  11  -1  721.33   24.30
  11 -14   1  691.93   25.30
   3 -14  -1  710.93   24.30
   3  11   1  713.33   24.40
   3 -14  -1  705.53   24.70
  11   3  -1  719.03   24.50
   3  11   1  704.53   25.60
  11 -14   1  713.03   25.20
 -14   3   1  701.73   24.50
  14 -11   1  708.63   26.10
  -3 -11  -1  690.13   24.60
 -11  -3   1  674.73   24.80
  -3  14   1  683.33   25.60
  14  -3  -1  681.03   25.00
  14 -11   1  715.43   25.50
 -11  14  -1  710.13   25.10
 -11  -3   1  666.83   26.10
  12   2  -1  201.28   10.50
 -14  12  -1  200.98   10.20
   2 -14  -1  207.28    9.90
   2  12   1  196.88   11.20
 -14   2   1  212.08   11.30
  12 -14   1  175.08   11.40
   2  12   1  192.98   10.10
 -14   2   1  193.48   10.30
  12 -14   1  190.28   10.50
 -12  -2   1  188.38   12.00
  14  -2  -1  207.88   10.90
  14 -12   1  198.18   11.50
  -2 -12  -1  208.68   10.30
  14 -12   1  191.88   12.10
 -12  14  -1  210.48   11.40
 -12  -2   1  201.88   10.80
  -2  14   1  184.78   11.40
 -14   1   1  187.48   10.70
   1  13   1  179.58   11.40
  13   1  -1  187.98   10.10
 -14   1   1  198.28   10.80
   1 -14  -1  192.38    9.60
  13 -14   1  191.18   10.80
   1  13   1  203.48   10.60
  13 -14   1  192.58   12.20
 -14  13  -1  193.98   10.50
  14  -1  -1  185.78   11.30
  -1  14   1  185.58   10.70
  -1  14   1  200.68   11.50
  14 -13   1  208.58   12.10
 -13  14  -1  199.98   11.40
 -13  -1   1  201.18   12.50
 -13  -1   1  196.28   10.90
  14 -13   1  187.38   11.30
  -1 -13  -1  217.18   10.80
  14 -14   1  638.04   24.20
  14   0  -1  647.24   23.10
  14 -14   1  632.04   23.80
   0  14   1  604.54   23.70
 -14   0   1  615.54   23.20
 -14   0   1  639.14   23.80
   0  14   1  656.03   23.30
 -14  14  -1  622.14   22.90
   0 -14  -1  622.64   22.60
 -15   0  -1   30.00    8.00
  15 -15  -1   15.00    7.00
  15   0   1   26.20    6.90
 -15  15   1   17.80    7.10
  15 -15  -1   10.70    7.00
   0 -15   1   22.10    5.80
   0  15  -1   16.00    7.70
  14 -15  -1   22.40    7.80
   1  14  -1   39.50    8.00
  14   1   1   29.90    6.70
 -15   1  -1   25.30    7.50
 -15  14   1   49.70    6.70
 -15  14   1   29.10    6.00
  14 -15  -1   33.80    6.60
   1 -15   1   31.10    6.40
  -1  15  -1   28.60    8.50
 -14  15   1   38.50    7.30
  15  -1   1   30.90    6.80
  -1 -14   1   34.80    6.50
 -14  -1  -1   51.39    8.90
  15 -14  -1   28.40    7.60
   2 -15   1   47.00    7.00
 -15   2  -1   47.20    7.90
   2  13  -1   54.29    8.80
  13 -15  -1   45.30    8.20
  13   2   1   43.70    5.50
 -15  13   1   49.00    6.80
   2 -15   1   43.90    6.30
 -15  13   1   41.30    7.70
  13   2   1   49.99    6.90
  15 -13  -1   31.90    8.30
 -13  -2  -1   50.99    7.90
 -13  15   1   41.60    7.00
  -2 -13   1   41.80    6.70
  15  -2   1   36.70    6.80
  -2  15  -1   58.99    9.10
 -15  12   1   76.29    7.10
   3  12  -1   62.69    8.60
  12   3   1   43.80    6.60
  12 -15  -1   64.39    9.60
 -15  12   1   48.80    6.80
   3 -15   1   66.89    6.70
  12   3   1   53.59    6.60
 -15   3  -1   70.39    8.70
   3  12  -1   61.99    4.90
  12 -15  -1   58.49    7.30
 -12  -3  -1   74.49    8.90
  15 -12  -1   53.69    8.30
  -3  15  -1   55.89    9.20
  -3 -12   1   61.29    7.20
  15  -3   1   67.99    7.80
 -12  15   1   71.89    8.30
  11   4   1  228.98   11.10
 -15   4  -1  240.88   12.40
  11   4   1  242.08   11.50
 -15  11   1  225.18   10.90
   4  11  -1  236.08    9.40
  11 -15  -1  242.68   11.90
   4 -15   1  198.28    9.80
   4  11  -1  242.78   12.30
  11 -15  -1  248.58   10.80
 -15  11   1  239.08   10.90
   4 -15   1  246.28   11.00
 -11  15   1  241.38   12.10
  15  -4   1  234.18   11.80
  -4  15  -1  246.18   13.30
  -4 -11   1  245.68   11.60
 -11  -4  -1  258.97   12.80
  15 -11  -1  229.48   12.80
 -15  10   1   50.29    6.90
   5  10  -1   56.99    4.90
  10 -15  -1   53.19    5.70
 -15   5  -1   48.50    4.10
  10   5   1   51.49    6.90
   5 -15   1   35.50    5.30
 -15  10   1   58.69    7.10
  10   5   1   51.79    6.40
 -15   5  -1   57.49    7.90
   5  10  -1   49.99    7.80
   5 -15   1   53.69    6.10
  10 -15  -1   53.69    8.20
  15  -5   1   53.89    7.50
  15 -10  -1   53.69    7.90
 -10  15   1   47.80    8.90
  -5 -10   1   49.70    6.80
 -10  -5  -1   71.19    8.30
  -5  15  -1   80.49    9.30
 -15   9   1  104.29    7.60
 -15   6  -1   99.39    5.30
   6 -15   1  104.09    7.10
 -15   9   1   94.49    7.60
 -15   6  -1  109.69    9.90
   9   6   1   92.19    7.50
   6   9  -1  100.39    8.50
   9 -15  -1  108.89    8.20
   6   9  -1   88.79    5.90
   9   6   1   81.49    8.20
  -6  -9   1  109.19    8.10
  15  -6   1  101.39    8.70
  -9  -6  -1   95.69    8.80
  -9  15   1  105.09    8.80
  -6  15  -1  134.59   11.40
  15  -9  -1   77.09    9.40
   7 -15   1   24.00    5.30
   7   8  -1   40.20    4.80
   8 -15  -1   42.50    6.40
   7 -15   1   40.90    6.40
   7   8  -1   37.80    7.10
   8   7   1   40.90    6.20
   8   7   1   39.90    6.90
 -15   7  -1   40.70    4.20
 -15   8   1   44.20    6.80
 -15   8   1   45.80    6.00
 -15   7  -1   42.50    6.80
   8 -15  -1   40.50    5.00
  15  -7   1   39.20    6.70
  -7  -8   1   49.20    7.10
  -8  15   1   42.40    7.20
  15  -8  -1   36.90    7.20
  -8  -7  -1   62.59    7.70
  -7  15  -1   55.99    8.70
   7 -15  -1   42.50    6.20
   8 -15   1   15.20    5.60
 -15   8  -1   35.60    4.40
 -15   8  -1   40.40    7.10
   8   7  -1   47.30    7.00
   7   8   1   37.80    5.50
   7   8   1   25.70    6.20
   8 -15   1   38.10    5.60
 -15   7   1   32.90    5.90
 -15   7   1   34.90    6.10
   7 -15  -1   36.20    4.90
  -7  15   1   33.90    6.70
  -8  15  -1   36.90    7.10
  15  -8   1   31.20    6.90
  -7  -8  -1   34.70    6.30
  -8  -7   1   34.30    6.20
  15  -7  -1   30.80    6.80
 -15   9  -1   46.60    5.10
   6 -15  -1   50.19    5.40
   9 -15   1   23.60    6.00
   6 -15  -1   37.20    6.10
   9   6  -1   44.20    7.60
 -15   6   1   47.00    6.60
   6   9   1   40.40    6.00
   6   9   1   25.40    6.20
 -15   6   1   37.70    6.20
 -15   9  -1   42.00    6.80
   9   6  -1   39.10    5.70
   9 -15   1   36.30    6.50
  -9  15  -1   45.70    7.90
  15  -6  -1   38.50    7.10
  -6  15   1   36.10    7.30
  -9  -6   1   55.99    7.30
  15  -9   1   36.40    7.00
  -6  -9  -1   52.89    7.20
   5  10   1  331.87   13.60
 -15   5   1  344.27   14.70
  10 -15   1  347.77   14.40
 -15  10  -1  330.17   12.90
   5 -15  -1  332.47   14.00
 -15   5   1  327.77   13.70
  10 -15   1  339.07   14.70
   5  10   1  352.06   15.20
  10   5  -1  326.37   13.40
  10   5  -1  323.67   14.40
   5 -15  -1  330.77   13.30
 -10  15  -1  346.67   15.00
  15  -5  -1  312.27   15.50
  -5  15   1  350.86   15.10
 -10  -5   1  330.27   14.40
  15 -10   1  334.27   15.00
  -5 -10  -1  355.36   14.80
 -15  11  -1  205.68    9.90
   4 -15  -1  202.58   10.60
  11 -15   1  180.78   11.40
  11 -15   1  201.28   10.60
  11   4  -1  217.08   10.60
   4  11   1  197.48   11.30
   4 -15  -1  212.78   10.00
   4  11   1  199.08   10.20
  11   4  -1  220.38   11.50
 -15   4   1  222.78   11.70
 -15   4   1  222.88   10.90
  15 -11   1  230.88   12.90
 -11  -4   1  224.08   11.20
  15  -4  -1  215.38   11.50
 -11  15  -1  228.88   12.40
  -4  15   1  190.08   11.70
  15 -11   1  234.88   13.50
  -4 -11  -1  228.28   10.90
   3  12   1  104.19   10.10
  12 -15   1  100.69    9.50
 -15   3   1  116.29    8.80
 -15   3   1  118.69    9.80
   3 -15  -1  122.39    8.60
   3  12   1  115.09    8.60
 -15  12  -1  109.29    8.40
   3 -15  -1  135.99    8.10
  12   3  -1  118.99    8.30
  12 -15   1   99.89    8.30
  15 -12   1  130.29   10.40
 -12  -3   1  119.39    8.80
  15 -12   1  115.59    9.70
  -3  15   1  100.89    9.80
  15  -3  -1  101.09    9.00
  -3 -12  -1  124.09    8.60
 -12  15  -1  126.49    9.40
 -15   2   1  545.75   20.90
  13   2  -1  544.85   20.20
  13 -15   1  561.04   21.70
   2  13   1  515.35   21.10
 -15  13  -1  560.54   20.30
   2 -15  -1  546.15   20.10
   2  13   1  566.04   20.30
  13 -15   1  529.15   20.90
 -15   2   1  545.75   21.10
  -2  15   1  515.15   21.40
  -2 -13  -1  549.05   20.70
  15 -13   1  553.84   22.40
 -13  -2   1  526.95   20.70
  15 -13   1  527.55   21.40
 -13  15  -1  573.34   21.20
 -13  -2   1  515.85   22.00
  15  -2  -1  568.54   21.30
  14 -15   1  185.08   11.20
   1 -15  -1  199.48   10.60
  14   1  -1  188.68   10.60
 -15  14  -1  207.38   11.20
 -15   1   1  193.88   11.10
 -15   1   1  187.08   11.50
   1  14   1  211.28   11.40
   1  14   1  180.08   12.80
  14 -15   1  190.48   12.50
  15  -1  -1  177.58   10.90
 -14  -1   1  183.88   12.40
 -14  -1   1  192.28   11.10
  -1 -14  -1  204.68   10.90
  15 -14   1  180.68   11.60
  -1  15   1  179.88   11.80
  -1  15   1  184.28   11.40
  15 -14   1  171.38   12.60
 -14  15  -1  204.78   11.70
  15 -15   1   -4.90    7.10
   0  15   1    6.90    6.20
  15 -15   1    6.10    6.10
   0 -15  -1   11.00    5.30
   0  15   1    4.90    6.70
 -15   0   1    6.90    7.20
  15   0  -1   10.00    6.50
 -15  15  -1   14.40    6.60
 -15   0   1   17.80    6.90
  16   0   1   20.70    6.10
 -16   0  -1   30.90    7.90
   0  16  -1   29.50    7.90
 -16  16   1   24.00    7.20
  16 -16  -1   16.50    7.20
   0 -16   1   15.80    5.80
  15 -16  -1    8.20    6.80
 -16  15   1   28.50    5.70
 -16  15   1    8.80    5.80
 -16   1  -1   16.40    7.60
   1 -16   1    8.40    5.50
  15   1   1   13.50    5.80
  15 -16  -1    3.30    7.80
   1  15  -1    9.90    7.60
  16 -15  -1    4.60    7.10
 -15  -1  -1   16.70    7.70
  16  -1   1   12.10    6.70
 -15  16   1   14.80    7.00
  -1 -15   1   15.50    5.60
  -1  16  -1   15.60    7.80
 -16  14   1   72.49    7.60
   2 -16   1   60.09    7.20
   2  14  -1   65.09    9.70
  14 -16  -1   59.99    8.10
  14 -16  -1   47.40    8.20
 -16  14   1   52.89    7.50
  14   2   1   54.99    8.40
 -16   2  -1   80.59    9.60
 -14  16   1   41.90    7.90
  16 -14  -1   57.69    9.50
 -14  -2  -1   72.99    9.50
  16  -2   1   47.80    8.00
  -2 -14   1   56.09    7.30
  -2  16  -1   58.19    9.30
   3  13  -1  230.08   13.00
  13 -16  -1  215.88   12.20
  13   3   1  234.58   11.70
 -16   3  -1  229.98   13.00
  13 -16  -1  233.48   11.60
 -16  13   1  225.88   11.40
  13   3   1  202.88   10.80
   3  13  -1  200.08    9.20
   3 -16   1  233.98   11.20
 -16  13   1  232.28   11.20
  -3  16  -1  224.48   13.40
  16  -3   1  240.48   12.90
 -13  -3  -1  234.98   13.00
  -3 -13   1  237.68   11.60
 -13  16   1  223.08   12.80
  16 -13  -1  207.28   12.90
  12 -16  -1   51.99    8.50
   4 -16   1   71.19    6.80
 -16  12   1   76.89    7.30
  12 -16  -1   71.79    7.00
   4  12  -1   65.29    5.60
   4  12  -1   67.49   10.20
   4 -16   1   48.10    6.10
 -16  12   1   52.39    6.80
  12   4   1   46.80    7.40
 -16   4  -1   74.19    9.00
  12   4   1   73.39    8.10
  -4 -12   1   61.89    7.50
  16 -12  -1   51.29    8.30
 -12  -4  -1   61.39    9.10
  16  -4   1   63.29    8.20
  -4  16  -1   69.89    9.60
 -12  16   1   59.29    9.60
  11   5   1  132.99    9.50
  11 -16  -1  152.38   10.70
   5  11  -1  157.18   10.50
  11   5   1  137.99    8.80
  11 -16  -1  150.08    8.70
 -16  11   1  141.49    9.40
   5 -16   1  153.08    8.90
 -16  11   1  156.48    9.10
   5 -16   1  130.79    8.30
 -16   5  -1  155.88   10.50
   5  11  -1  153.58    7.50
 -16   5  -1  169.88    7.50
  -5 -11   1  157.98    9.50
  16 -11  -1  146.39   11.10
 -11  -5  -1  160.58   10.60
 -11  16   1  136.19   10.20
  16  -5   1  141.79   10.00
 -16   6  -1  310.57   14.10
   6  10  -1  294.47   11.50
   6 -16   1  262.37   12.50
  10 -16  -1  294.07   14.00
  10 -16  -1  297.17   12.20
 -16  10   1  279.97   12.60
 -16   6  -1  287.67   10.80
 -16  10   1  295.37   12.90
  10   6   1  279.77   12.80
   6 -16   1  308.57   12.80
   6  10  -1  299.97   13.90
 -10  16   1  286.07   13.90
 -10  -6  -1  307.37   14.10
  -6  16  -1  341.97   16.30
  -6 -10   1  312.37   13.50
  16 -10  -1  297.67   14.70
  16  -6   1  309.97   13.90
   7   9  -1   25.10    6.90
   9   7   1   17.10    4.70
 -16   7  -1   20.10    3.50
   7 -16   1   17.90    5.10
   7 -16   1   13.90    4.60
   9 -16  -1   18.70    4.50
 -16   9   1   17.90    5.30
   9 -16  -1   20.30    5.80
 -16   9   1   23.80    5.70
   7   9  -1   27.00    4.10
 -16   7  -1   16.20    6.70
   9   7   1   10.00    5.90
  16  -7   1   24.80    6.30
  -9  16   1   13.50    6.30
  -7  -9   1   14.70    5.90
  -9  -7  -1   45.10    7.80
  -7  16  -1   21.00    7.40
  16  -9  -1    6.80    6.60
   8 -16   1   19.00    4.90
   8 -16  -1   26.90    6.30
   8   8  -1   26.90    6.90
   8 -16   1    3.30    5.70
 -16   8   1   21.10    5.10
 -16   8   1   26.70    5.90
   8   8   1   19.40    5.00
   8   8  -1   22.30    7.60
 -16   8  -1   22.30    3.90
   8 -16  -1   19.70    4.40
 -16   8  -1   23.30    7.20
   8   8   1   18.80    6.20
  16  -8  -1    8.70    6.60
  -8  -8  -1   23.30    6.50
  -8  -8   1   30.90    6.50
  16  -8   1   12.10    6.00
  -8  16   1    8.80    6.70
  -8  16  -1   21.10    7.10
   7   9   1   81.89    7.20
 -16   7   1   83.59    7.30
   7   9   1   89.09    8.70
   9 -16   1   85.59    7.70
   9   7  -1   83.39    6.50
 -16   9  -1   84.49    6.00
   7 -16  -1   91.99    8.30
   9 -16   1   68.99    8.30
   9   7  -1   95.89    9.20
 -16   9  -1   94.39    8.40
   7 -16  -1   82.79    6.50
 -16   7   1   97.49    8.50
  -9  16  -1   82.49    9.30
  -9  -7   1   83.69    8.10
  -7  -9  -1  109.49    8.70
  -7  16   1   71.19    9.10
  16  -7  -1   78.49    9.00
  16  -9   1   81.19   10.20
  10 -16   1   74.69    9.00
   6 -16  -1  104.39    8.60
 -16  10  -1   99.29    6.50
   6  10   1   72.19    8.80
   6 -16  -1   89.09    6.80
  10 -16   1  101.29    8.10
 -16   6   1   93.69    7.50
  10   6  -1   96.19    9.00
 -16   6   1   97.39    8.10
 -16  10  -1   92.29    8.70
  10   6  -1   93.19    7.00
   6  10   1   95.59    7.50
 -10  -6   1  106.59    8.60
  16  -6  -1   69.29   10.20
 -10  16  -1  108.59    9.50
  16 -10   1   86.99    9.30
  -6 -10  -1  101.39    8.40
  -6  16   1   83.39    9.40
 -16   5   1   39.20    6.90
   5  11   1   51.29    6.50
  11 -16   1   44.00    6.90
   5 -16  -1   50.59    6.70
  11   5  -1   48.20    6.90
   5 -16  -1   45.00    6.10
 -16   5   1   39.90    6.70
 -16  11  -1   47.70    6.00
  11 -16   1   31.90    6.90
  11   5  -1   54.29    7.90
   5  11   1   42.60    7.60
  16 -11   1   35.30    7.50
 -11  -5   1   48.70    7.70
  -5  16   1   63.59    8.60
  16  -5  -1   46.00    7.70
  -5 -11  -1   46.50    7.20
 -11  16  -1   51.99    8.50
 -16   4   1  294.07   13.80
 -16  12  -1  293.57   13.00
   4 -16  -1  311.57   13.00
  12   4  -1  307.67   13.20
   4 -16  -1  302.07   13.60
  12 -16   1  286.37   14.40
 -16   4   1  311.87   13.70
  12 -16   1  307.77   14.10
  12   4  -1  313.07   14.00
   4  12   1  302.17   13.10
   4  12   1  276.37   14.60
  16 -12   1  334.57   16.60
 -12  16  -1  303.97   14.40
  -4  16   1  286.77   14.50
  16 -12   1  286.07   14.60
  -4 -12  -1  309.27   13.60
 -12  -4   1  285.87   13.70
  16  -4  -1  265.27   13.90
   3  13   1  178.18   10.60
  13   3  -1  179.38   10.30
   3 -16  -1  174.98    9.90
  13 -16   1  177.18   11.00
 -16  13  -1  179.18   10.10
  13 -16   1  165.78   11.70
 -16   3   1  183.68   10.80
   3 -16  -1  175.28   10.60
   3  13   1  166.48   12.00
 -16   3   1  174.28   10.50
 -13  16  -1  201.38   11.90
 -13  -3   1  165.88   10.60
  -3 -13  -1  165.38   10.00
  16 -13   1  168.38   11.90
  -3  16   1  149.88   12.50
  16 -13   1  182.88   12.50
  16  -3  -1  149.99   10.80
  14 -16   1    1.60    7.30
 -16  14  -1    6.90    6.00
 -16   2   1    7.30    6.80
  14   2  -1    3.50    5.20
   2  14   1    1.60    5.50
   2  14   1    3.30    7.60
  14 -16   1    8.80    6.40
   2 -16  -1    6.20    4.60
 -16   2   1    9.60    6.50
  16  -2  -1   -0.80    6.00
 -14  16  -1   -1.40    6.00
  16 -14   1    8.20    6.90
 -14  -2   1   11.90    7.80
 -14  -2   1   14.40    6.40
  -2 -14  -1   13.50    5.60
  16 -14   1    2.80    6.90
  -2  16   1    1.30    6.70
  15 -16   1   52.59    9.20
 -16  15  -1   50.29    7.40
  15 -16   1   46.90    8.20
 -16   1   1   46.40    8.10
   1  15   1   36.20    7.90
  15   1  -1   37.50    6.90
   1 -16  -1   52.59    7.70
   1  15   1   54.89    7.40
 -16   1   1   44.90    8.10
 -15  -1   1   47.40    9.40
 -15  -1   1   44.60    7.60
  16  -1  -1   40.10    7.10
  -1 -15  -1   43.90    7.00
 -15  16  -1   53.29    8.10
  16 -15   1   51.79    8.80
  16 -15   1   45.10    9.10
  -1  16   1   52.09    8.20
   0  16   1    0.50    7.30
 -16   0   1    8.60    6.10
  16 -16   1   -4.70    7.80
 -16  16  -1    8.30    6.50
   0 -16  -1   10.50    5.30
  16   0  -1    0.30    6.30
  16 -16   1    7.80    6.50
   0  16   1    5.40    5.80
 -16   0   1    1.20    7.50
 -17  17   1   12.20    6.70
   0 -17   1   14.10    5.50
  17 -17  -1   10.30    7.20
  17   0   1   10.10    5.80
   0  17  -1   18.40    7.30
 -17   0  -1   17.10    7.10
   1 -17   1   65.09    7.50
 -17   1  -1  100.59   11.20
  16   1   1   70.49    7.90
   1  16  -1   70.29    9.60
  16 -17  -1   66.49    9.50
  16 -17  -1   65.59   10.40
 -17  16   1   65.69    7.90
  -1 -16   1   81.49    7.80
  17  -1   1   66.39    9.20
 -16  17   1   76.59    9.40
  -1  17  -1   77.89   10.00
 -16  -1  -1   83.99    9.50
  17 -16  -1   68.39    9.60
  15   2   1   86.19    8.20
  15 -17  -1   58.89    9.20
 -17   2  -1   87.19    9.80
 -17  15   1   86.59    9.00
  15 -17  -1   80.89    9.10
   2  15  -1   83.99    9.90
   2 -17   1   84.59    8.80
 -17  15   1  105.79    8.40
  -2  17  -1   73.29   10.30
  -2 -15   1   84.99    7.90
 -15  -2  -1  104.29   10.10
  17  -2   1   83.59    8.50
 -15  17   1   87.69    9.90
  17 -15  -1   77.99   10.00
   3  14  -1   26.20    8.80
  14 -17  -1   27.70    6.30
 -17  14   1   23.70    6.90
 -17  14   1   51.29    7.50
  14   3   1   31.60    6.40
   3 -17   1   29.80    5.80
  14 -17  -1   20.70    8.00
 -17   3  -1   40.30    8.10
 -14  17   1   21.10    6.70
  17 -14  -1   24.70    7.80
  17  -3   1   20.50    7.20
  -3  17  -1   36.30    8.30
 -14  -3  -1   28.60    8.00
  -3 -14   1   32.00    6.30
 -17   4  -1  150.48   11.30
 -17  13   1  172.58   10.20
   4  13  -1  159.18   11.60
 -17  13   1  145.59    9.50
  13   4   1  117.59    9.50
  13   4   1  154.88   10.30
  13 -17  -1  158.18    9.90
   4 -17   1  169.48   10.10
   4  13  -1  150.88    8.20
  13 -17  -1  121.99   11.30
  -4 -13   1  157.58   10.70
 -13  -4  -1  174.48   11.40
  17 -13  -1  143.99   11.50
  -4  17  -1  187.98   12.30
 -13  17   1  157.18   11.10
  17  -4   1  163.08   10.60
  12   5   1  436.46   18.40
   5  12  -1  482.35   17.00
   5  12  -1  481.25   20.20
  12 -17  -1  482.25   19.90
 -17  12   1  466.45   18.30
 -17   5  -1  475.95   19.50
   5 -17   1  471.55   18.40
  12 -17  -1  484.45   18.30
  12   5   1  497.85   18.80
 -17  12   1  449.06   18.20
  17 -12  -1  461.15   19.80
  17  -5   1  477.05   19.10
 -12  -5  -1  503.95   19.70
 -12  17   1  479.15   19.30
  -5 -12   1  484.25   18.80
  -5  17  -1  488.15   20.40
 -17  11   1   51.69    7.50
 -17  11   1   77.39    7.50
  11 -17  -1   59.99    9.20
   6  11  -1   62.99    8.90
 -17   6  -1   61.09   10.00
  11   6   1   46.30    7.40
  11   6   1   57.69    7.80
   6  11  -1   47.90    5.70
  11 -17  -1   51.89    6.90
   6 -17   1   57.79    7.60
   6 -17   1   51.89    7.20
  17 -11  -1   53.39    9.50
 -11  -6  -1   67.49    9.00
  17  -6   1   59.79    8.50
 -11  17   1   49.40    8.90
  -6  17  -1   62.79   10.10
  -6 -11   1   52.69    7.50
  10   7   1  130.69   10.10
  10 -17  -1  129.09   10.20
   7 -17   1  111.89    8.90
 -17  10   1  128.29    9.00
  10   7   1  134.09    8.90
   7  10  -1  130.49    7.70
   7  10  -1  134.09   11.10
 -17  10   1  140.69    9.30
  10 -17  -1  136.69    8.20
 -17   7  -1  137.39   10.40
 -17   7  -1  130.49    6.90
   7 -17   1  125.39    8.90
  17 -10  -1  113.49   11.80
 -10  -7  -1  154.68   10.40
 -10  17   1  138.29   11.20
  -7  17  -1  141.99   11.30
  -7 -10   1  138.99    9.50
  17  -7   1  131.39   10.10
   8   9  -1  160.58   10.20
   8   9  -1  139.19    7.70
 -17   9   1  137.49    9.00
 -17   8  -1  146.09    7.40
   9 -17  -1  151.08    8.50
 -17   9   1  159.98    9.90
   8 -17   1  125.99    9.90
   9   8   1  147.59   10.30
   9   8   1  138.69    9.10
   8 -17   1  128.29    8.60
 -17   8  -1  144.29   10.40
   9 -17  -1  141.19   10.30
  -9  -8  -1  148.69   10.30
  -8  -9   1  149.88    9.90
  17  -9  -1  128.69   11.60
  17  -8   1  130.09   10.20
  -9  17   1  133.99   10.40
  -8  17  -1  147.99   11.40
   8   9   1   90.99    7.80
   9   8  -1   94.29    8.80
   8 -17  -1   91.19    6.70
 -17   9  -1   94.89    6.50
   9 -17   1   88.19    7.50
 -17   8   1  115.89    9.00
   8   9   1   87.49    9.30
 -17   9  -1   79.59    8.90
   9 -17   1   88.49    9.00
   8 -17  -1   91.59    9.00
   9   8  -1   96.59    7.00
 -17   8   1   97.69    7.90
  -8  -9  -1  119.69    9.30
  -9  17  -1   99.59   10.10
  17  -9   1   71.79    9.10
  -8  17   1   71.39    9.30
  -9  -8   1   90.79    8.80
  17  -8  -1   82.19   10.60
  10   7  -1    9.30    4.50
   7 -17  -1    9.40    5.80
 -17  10  -1   21.90    6.60
  10 -17   1    6.10    4.70
 -17   7   1   21.10    6.30
   7 -17  -1    8.10    4.60
 -17  10  -1   12.20    4.30
  10 -17   1    0.80    5.90
   7  10   1   11.80    5.20
 -17   7   1   18.00    5.50
   7  10   1    3.10    6.40
  10   7  -1   17.50    6.90
  17  -7  -1   -2.50    6.60
  -7 -10  -1   15.50    6.10
  -7  17   1    0.70    6.70
 -10  -7   1   11.70    6.10
  17 -10   1    1.50    6.70
 -10  17  -1   11.50    7.90
 -17   6   1   67.19    8.90
  11 -17   1   63.69    8.00
   6  11   1   64.39    7.70
  11   6  -1   52.39    7.10
  11   6  -1   69.29    8.60
   6 -17  -1   55.99    6.50
   6 -17  -1   56.49    8.20
 -17  11  -1   62.89    6.80
 -17   6   1   55.89    8.00
   6  11   1   46.80    7.80
 -17  11  -1   63.89    9.60
  11 -17   1   49.30    8.60
  17  -6  -1   54.79    9.00
 -11  17  -1   78.89    9.40
  17 -11   1   48.50    8.90
 -11  -6   1   70.79    9.40
  -6 -11  -1   49.10    7.80
  -6  17   1   39.70    8.20
  12   5  -1   69.79    8.30
   5  12   1   51.29    9.50
   5  12   1   50.69    7.80
 -17   5   1   56.29    7.50
   5 -17  -1   59.49    8.60
  12   5  -1   63.49    7.80
 -17   5   1   65.69    9.00
 -17  12  -1   53.99    8.40
   5 -17  -1   54.59    6.90
  12 -17   1   59.39    9.70
  12 -17   1   65.49    8.50
 -17  12  -1   56.19    6.80
 -12  17  -1   60.19    9.20
  -5  17   1   64.69    8.90
  -5 -12  -1   57.39    7.90
  17 -12   1   53.99    8.50
 -12  -5   1   57.19    8.10
  17  -5  -1   51.49    8.90
  13   4  -1    6.20    6.00
 -17   4   1    4.30    5.90
   4  13   1   -2.90    5.30
 -17  13  -1   -1.80    4.90
 -17   4   1   10.20    6.90
  13   4  -1    5.40    5.40
   4 -17  -1    4.20    5.20
  13 -17   1    1.30    5.30
   4 -17  -1    2.90    5.80
   4  13   1    5.00    6.40
  13 -17   1    4.10    7.00
 -13  -4   1    5.30    6.10
  -4  17   1    3.10    6.90
 -13  17  -1   13.80    6.60
  17 -13   1   -1.10    6.80
  -4 -13  -1   21.60    6.90
  17 -13   1   12.80    7.90
  17  -4  -1    3.30    6.10
   3 -17  -1   59.19    7.50
   3  14   1   63.09    8.50
 -17   3   1   66.19    8.40
  14   3  -1   66.19    7.30
 -17  14  -1   65.79    7.80
   3 -17  -1   56.99    7.80
 -17   3   1   59.39    8.30
  14   3  -1   79.89    8.70
   3  14   1   58.59    9.10
  14 -17   1   64.69   10.30
  14 -17   1   61.59    7.90
  17 -14   1   72.89    9.80
  17 -14   1   69.79    9.80
  -3  17   1   49.00    9.00
 -14  -3   1   66.89    8.50
 -14  17  -1   63.39    8.70
  17  -3  -1   56.69    8.60
  -3 -14  -1   69.89    8.00
  15   2  -1   10.50    6.40
   2  15   1   11.50    7.80
   2 -17  -1   24.90    6.50
  15 -17   1   13.00    7.10
  15 -17   1   25.10    8.60
 -17   2   1   18.80    7.00
 -17   2   1   15.60    6.80
   2  15   1   13.30    6.30
 -17  15  -1   22.00    6.20
   2 -17  -1   17.60    5.70
 -15  17  -1   26.80    7.40
  17 -15   1   26.00    7.90
  -2 -15  -1   12.90    5.80
  17 -15   1   20.90    7.70
  17  -2  -1    7.90    6.40
 -15  -2   1   19.00    6.60
  -2  17   1    3.80    6.80
  16 -17   1  102.69   11.30
  16 -17   1   93.09   10.20
 -17   1   1   96.59    9.00
 -17  16  -1  101.89    9.40
   1 -17  -1  100.39    7.90
   1  16   1  101.39    9.90
 -17   1   1   82.29   10.20
  16   1  -1   99.89    9.20
   1  16   1   93.89    9.80
 -16  -1   1   72.49   10.90
  17  -1  -1  104.09    8.90
  -1 -16  -1  101.89    8.20
  17 -16   1  116.89   11.40
 -16  17  -1   96.29    8.80
  -1  17   1   83.49    9.70
  17 -16   1  101.49   10.50
 -16  -1   1   97.29    9.00
 -17  17  -1   60.99    7.70
 -17   0   1   68.49    8.20
   0 -17  -1   69.59    8.20
  17 -17   1   65.09   10.90
   0  17   1   58.39    9.10
  17 -17   1   62.69    9.20
 -17   0   1   52.89    9.60
  17   0  -1   60.19    8.80
   0  17   1   57.09    8.20
   0  18  -1   82.49   10.00
 -18   0  -1  106.49   10.10
  18 -18  -1   98.19   10.10
  18   0   1   92.59    8.60
 -18  18   1   84.69    8.40
   0 -18   1   99.39    8.40
   1  17  -1   43.50    8.40
 -18  17   1   78.49    7.90
  17   1   1   48.30    7.60
 -18  17   1   42.50    7.60
   1 -18   1   53.69    7.20
  17 -18  -1   38.50    8.50
 -18   1  -1   57.59    9.20
  17 -18  -1   65.89   10.40
 -17  18   1   50.09    8.30
  18  -1   1   58.69    8.10
  -1 -17   1   51.29    7.10
  -1  18  -1   59.49    9.60
  18 -17  -1   62.19    9.30
 -17  -1  -1   59.99    9.00
   2  16  -1    4.90    7.10
   2 -18   1    9.00    5.20
  16   2   1    6.80    5.40
 -18  16   1   22.10    5.50
  16 -18  -1   10.60    6.80
 -18   2  -1   15.10    7.00
 -18  16   1    8.40    6.40
  16 -18  -1   -4.80    6.60
  18  -2   1   15.60    6.30
  -2  18  -1    9.30    7.50
  -2 -16   1    7.60    5.40
  18 -16  -1    5.80    6.70
 -16  -2  -1    5.90    6.90
 -16  18   1   10.50    6.10
  15   3   1   98.29    8.10
  15 -18  -1   86.59   10.50
 -18  15   1   94.59    8.20
 -18  15   1  108.89    8.60
 -18   3  -1   98.79   11.20
  15 -18  -1   91.89    9.20
   3  15  -1   91.59   11.10
   3 -18   1  100.69    8.10
  -3 -15   1   93.49    8.20
 -15  18   1   90.99    8.90
  18 -15  -1   95.99   10.20
  18  -3   1   96.69    8.80
 -15  -3  -1  104.19    9.80
  -3  18  -1  112.69   10.80
  14   4   1  274.27   13.40
  14 -18  -1  295.37   13.80
 -18  14   1  293.07   13.60
   4 -18   1  272.97   12.80
   4  14  -1  267.67   14.20
  14 -18  -1  253.67   13.80
 -18  14   1  289.77   13.30
 -18   4  -1  290.07   15.30
  -4 -14   1  269.17   13.10
 -14  -4  -1  283.57   14.20
  18  -4   1  275.77   13.60
  -4  18  -1  285.87   15.10
  18 -14  -1  270.47   14.60
 -14  18   1  277.27   13.60
  13 -18  -1   62.19    8.60
 -18   5  -1   57.09    9.00
 -18  13   1   55.59    7.00
  13   5   1   47.30    7.40
  13 -18  -1   73.69    7.80
   5 -18   1   62.59    7.10
   5  13  -1   53.09    9.30
  13   5   1   51.09    8.10
 -18  13   1   76.69    7.70
  18  -5   1   53.09    8.30
 -13  -5  -1   56.29    9.10
  -5 -13   1   60.29    7.70
 -13  18   1   62.19    8.90
  18 -13  -1   74.49   11.00
  -5  18  -1   60.69   10.20
  12 -18  -1  202.08   10.80
 -18  12   1  198.28   11.00
 -18   6  -1  197.98   12.00
  12   6   1  183.38   10.10
  12 -18  -1  176.48   12.50
   6 -18   1  206.28   11.10
  12   6   1  166.88   11.70
 -18  12   1  225.88   11.30
   6  12  -1  193.48    9.40
   6  12  -1  201.38   12.90
  18 -12  -1  192.58   12.40
 -12  -6  -1  212.88   12.40
  -6  18  -1  220.08   14.00
 -12  18   1  190.88   11.70
  18  -6   1  189.98   11.50
  -6 -12   1  205.68   11.00
  11   7   1  347.97   15.90
   7 -18   1  349.57   14.60
  11   7   1  370.56   15.00
   7 -18   1  291.37   14.80
 -18   7  -1  350.06   16.00
   7  11  -1  356.86   16.50
  11 -18  -1  336.47   16.00
 -18  11   1  355.66   15.10
  11 -18  -1  349.87   14.40
 -18  11   1  350.46   15.10
   7  11  -1  336.67   13.60
 -11  18   1  361.56   16.20
  18  -7   1  348.47   15.90
 -11  -7  -1  380.76   16.20
  -7 -11   1  348.67   15.20
  18 -11  -1  355.56   17.00
  -7  18  -1  368.96   16.80
   8 -18   1   34.70   10.30
   8  10  -1   56.69    8.60
  10 -18  -1   60.39    8.10
   8  10  -1   48.00    5.90
  10   8   1   57.89    9.50
  10 -18  -1   61.79    6.90
   8 -18   1   54.69    6.80
 -18  10   1   68.59    8.20
 -18   8  -1   73.09    8.10
 -18   8  -1   65.59    9.10
  10   8   1   59.69    7.60
 -18  10   1   50.59    7.40
  18  -8   1   46.10    7.90
  18 -10  -1   51.99    8.30
  -8  18  -1   52.29    9.70
  -8 -10   1   50.49    8.00
 -10  -8  -1   51.39    8.70
 -10  18   1   68.19    9.00
   9   9  -1   93.99    7.00
 -18   9   1   93.99    8.70
 -18   9   1  109.99    9.20
   9 -18   1   82.19    7.70
 -18   9  -1   91.99    6.50
   9   9  -1  100.09   10.30
   9 -18  -1   83.09    9.50
   9 -18  -1   92.69    7.20
   9   9   1   99.49    8.20
 -18   9  -1  107.19   10.70
   9   9   1   86.49   10.00
   9 -18   1   86.59    9.50
  18  -9   1   73.69    9.00
  -9  -9   1  106.19    9.10
  -9  18  -1  100.59   10.30
  18  -9  -1   75.49    9.70
  -9  18   1   70.19    9.60
  -9  -9  -1  122.99    9.50
  10 -18   1  104.09    8.50
  10   8  -1   86.39    7.20
  10   8  -1   87.69    8.90
 -18   8   1   83.79    8.40
   8  10   1   74.99   10.20
  10 -18   1   78.79    9.50
 -18  10  -1   89.19   10.30
 -18   8   1  109.39    9.10
   8  10   1   77.69    7.60
   8 -18  -1   85.19    8.90
 -18  10  -1   81.99    6.70
   8 -18  -1   88.69    7.00
  18  -8  -1   68.49    9.60
  18 -10   1   84.59    9.50
  -8  18   1   70.49    9.50
 -10  -8   1   91.79    8.90
  -8 -10  -1   92.99    9.00
 -10  18  -1   81.59   10.10
   7 -18  -1   36.00    6.30
   7  11   1   34.70    7.60
  11   7  -1   42.50    5.70
 -18   7   1   52.19    8.60
  11   7  -1   42.40    7.70
 -18  11  -1   44.00    6.20
  11 -18   1   35.40    6.10
   7  11   1   37.70    6.10
  11 -18   1   45.90    7.70
 -18  11  -1   41.30    7.30
 -18   7   1   45.00    6.80
   7 -18  -1   38.30    6.90
  -7 -11  -1   32.20    7.10
  18 -11   1   22.00    7.70
 -11  18  -1   50.59    9.10
 -11  -7   1   26.80    6.70
  18  -7  -1   27.20    7.60
  -7  18   1   30.00    8.40
  12   6  -1   15.80    5.20
   6 -18  -1    9.20    5.10
 -18  12  -1   16.50    5.00
   6  12   1   10.40    7.10
   6 -18  -1   13.80    6.30
 -18   6   1   11.20    5.80
  12   6  -1    8.60    6.40
  12 -18   1   14.70    6.80
   6  12   1   12.20    5.50
 -18  12  -1   10.50    6.60
  12 -18   1   10.50    6.20
 -18   6   1   23.80    6.90
  18 -12   1   -2.20    6.80
 -12  -6   1   10.70    6.10
  18  -6  -1   -3.50    7.60
 -12  18  -1    9.50    7.80
  -6  18   1    2.10    6.70
  -6 -12  -1   22.70    6.40
  13 -18   1   47.40    8.30
 -18  13  -1   48.00    6.50
   5 -18  -1   48.80    8.40
   5 -18  -1   56.89    6.90
  13   5  -1   71.69    8.60
 -18   5   1   54.29    7.40
 -18  13  -1   58.49    8.30
  13   5  -1   44.40    6.50
  13 -18   1   50.29    7.20
 -18   5   1   54.29    7.90
   5  13   1   54.29    8.70
   5  13   1   46.40    7.10
  -5  18   1   45.70    7.90
  -5 -13  -1   64.89    9.20
 -13  -5   1   49.10    7.90
 -13  18  -1   61.89   10.00
  18  -5  -1   43.20    7.70
  18 -13   1   61.29    9.50
   4  14   1   56.79    8.80
 -18  14  -1   57.19    7.90
   4  14   1   56.59    8.10
  14   4  -1   48.90    7.50
   4 -18  -1   46.90    7.50
 -18   4   1   57.19    8.40
 -18   4   1   51.99    7.90
  14 -18   1   47.20    7.30
  14   4  -1   45.80    8.70
   4 -18  -1   55.69    7.30
  14 -18   1   56.79    8.90
  -4  18   1   48.00    8.00
  18 -14   1   53.29    8.70
 -14  -4   1   49.90    7.80
  -4 -14  -1   48.10    7.50
  18  -4  -1   65.19    8.70
 -14  18  -1   51.59    8.40
   3  15   1   96.09    8.90
 -18  15  -1   95.89    8.40
   3  15   1   86.39    9.60
 -18   3   1   85.19    8.60
  15 -18   1   90.19    9.80
  15   3  -1  107.29    8.70
   3 -18  -1   97.19    8.30
   3 -18  -1   92.79    7.60
 -18   3   1   96.39    9.70
  15   3  -1   94.79    8.80
  15 -18   1   81.19   10.80
  18 -15   1   90.79   11.40
  18 -15   1   94.79   11.60
  18  -3  -1   86.69    9.00
  -3  18   1   76.19    9.20
 -15  18  -1   91.09   10.10
  -3 -15  -1  103.19    9.30
 -15  -3   1   78.89    8.60
   2  16   1   69.29    9.10
 -18  16  -1   80.39    8.20
   2 -18  -1   63.99    7.20
  16 -18   1   70.29    9.80
 -18   2   1   58.89    9.00
 -18   2   1   76.09    9.90
  16 -18   1   57.89    8.40
  16   2  -1   68.19    8.70
   2 -18  -1   79.69    8.70
   2  16   1   59.79   10.40
  18 -16   1   62.69   11.00
 -16  -2   1   61.69    8.30
  18 -16   1   80.89   11.40
  -2 -16  -1   66.39    7.60
 -16  18  -1   71.79    9.40
  18  -2  -1   60.59    8.00
  -2  18   1   53.29   10.00
  17   1  -1    0.40    6.10
   1  17   1    1.60    6.80
 -18  17  -1   11.10    5.80
  17 -18   1    2.00    7.80
 -18   1   1    3.20    7.60
  17 -18   1   -0.90    6.60
   1  17   1   -4.50    6.00
 -18   1   1    0.20    6.00
   1 -18  -1    7.30    5.60
  18 -17   1   -4.50    8.10
 -17  18  -1    9.70    6.80
  18 -17   1    0.30    6.80
  -1  18   1   -0.20    6.50
 -17  -1   1   -3.60    6.50
  -1 -17  -1   -0.60    5.50
  18  -1  -1    2.70    5.80
  18 -18   1   70.29   10.70
 -18  18  -1   58.19    9.50
  18 -18   1   76.99   10.60
   0 -18  -1   69.49    8.40
   0  18   1   58.29    9.20
 -18   0   1   60.69    8.30
  18   0  -1   73.79    9.10
 -19  19   1    8.30    6.40
 -19   0  -1    9.50    7.30
  19 -19  -1    8.30    7.20
   0  19  -1    8.80    8.00
  19   0   1    3.60    6.20
  18   1   1   20.60    6.50
 -19  18   1   20.20    6.70
 -19  18   1   43.50    7.70
 -19   1  -1   33.00    9.30
   1  18  -1   16.10    7.80
   1 -19   1   25.80    6.30
  18 -19  -1   30.00    8.70
  19  -1   1   19.00    6.50
  19 -18  -1   14.40    7.50
  -1 -18   1   32.20    6.40
 -18  19   1   23.20    7.10
  17   2   1   99.79    9.40
   2  17  -1   91.49   10.10
 -19   2  -1   98.79   10.00
 -19  17   1  105.89    8.60
  17 -19  -1   80.59   10.90
   2 -19   1   84.69    8.10
  17 -19  -1   97.79    9.90
 -19  17   1  103.09    9.80
  -2  19  -1   85.49   10.40
 -17  19   1   93.29    9.20
  -2 -17   1   95.29    8.40
  19 -17  -1   86.19   10.30
 -17  -2  -1  106.59   10.00
  19  -2   1   91.79    9.00
  16 -19  -1  151.08   11.10
  16 -19  -1  141.79   10.80
 -19  16   1  145.19   10.60
   3  16  -1  133.39   12.20
   3 -19   1  144.49   10.00
 -19  16   1  150.18   10.00
  16   3   1  141.29   10.10
 -19   3  -1  150.38   12.00
  -3 -16   1  133.19    9.20
  -3  19  -1  129.99   12.70
  19  -3   1  135.29    9.70
  19 -16  -1  139.99   11.40
 -16  19   1  136.39   10.00
 -16  -3  -1  144.29   10.70
  15   4   1   31.80    6.30
 -19  15   1   38.00    6.90
   4  15  -1   36.00    8.80
  15 -19  -1   37.40    8.20
  15 -19  -1   34.50    6.60
 -19   4  -1   33.10    7.70
   4 -19   1   32.30    6.10
 -15  -4  -1   32.20    7.50
  -4  19  -1   31.10    8.40
  19 -15  -1   39.10    8.00
  19  -4   1   30.70    7.40
  -4 -15   1   33.70    6.20
 -15  19   1   28.50    6.90
 -19  14   1  125.19    9.30
   5  14  -1  109.09   11.20
 -19   5  -1  107.49   10.10
  14   5   1  103.49    8.30
 -19  14   1  109.19    9.30
   5 -19   1   99.89    8.10
  14 -19  -1   94.79    9.10
  14 -19  -1   95.49    9.60
 -14  -5  -1  115.09    9.70
 -14  19   1  113.29    9.80
  -5 -14   1  104.69    8.50
  19 -14  -1   99.19   10.00
  19  -5   1  108.49   10.20
  -5  19  -1  120.09   11.80
  13 -19  -1  378.76   15.30
  13   6   1  337.97   14.50
  13   6   1  334.87   15.70
   6 -19   1  337.47   14.70
  13 -19  -1  326.07   16.00
 -19   6  -1  355.16   16.20
   6  13  -1  345.87   16.20
 -19  13   1  351.66   15.20
 -19  13   1  369.96   15.30
 -13  19   1  339.97   15.70
  -6  19  -1  339.67   16.30
 -13  -6  -1  359.16   15.90
  19  -6   1  358.96   16.20
  -6 -13   1  343.57   15.00
  19 -13  -1  336.57   16.10
   7  12  -1   32.10    7.70
  12   7   1   29.60    6.00
 -19  12   1   28.40    6.30
  12 -19  -1   12.70    7.20
  12 -19  -1   32.10    6.20
 -19  12   1   24.70    6.20
  12   7   1   20.00    6.60
   7 -19   1   20.10    5.40
 -19   7  -1   22.40    7.00
   7  12  -1   24.10    7.20
  19  -7   1   16.40    7.10
 -12  19   1   21.30    7.60
  -7  19  -1   18.90    7.60
 -12  -7  -1   25.00    7.20
  19 -12  -1   20.90    7.00
  -7 -12   1   26.60    6.20
  11   8   1  171.58   10.10
   8  11  -1  177.18   12.00
  11   8   1  172.38   11.50
  11 -19  -1  144.59   11.20
   8  11  -1  174.98    9.00
 -19  11   1  192.98   10.80
 -19  11   1  176.38   10.80
   8 -19   1  179.28   10.60
 -19   8  -1  167.28   11.10
  11 -19  -1  176.08    9.50
  -8 -11   1  179.28   10.60
 -11  19   1  176.38   12.20
  19 -11  -1  173.18   11.60
  -8  19  -1  180.38   13.00
  19  -8   1  165.08   12.10
 -11  -8  -1  177.38   11.40
   9  10  -1  194.18    9.80
  10   9   1  194.18   12.00
  10 -19  -1  183.48   11.50
  10 -19  -1  200.08   10.00
 -19  10   1  211.88   11.50
 -19  10   1  200.88   11.10
  10   9   1  201.08   10.70
   9 -19   1  189.18   10.90
   9  10  -1  196.88   12.50
 -19   9  -1  199.38   11.90
   9 -19   1  157.58   11.30
  -9 -10   1  193.18   11.10
  -9  19  -1  210.18   12.50
 -10  19   1  199.18   12.60
  19 -10  -1  185.28   12.10
 -10  -9  -1  222.88   12.60
  19  -9   1  192.98   11.80
 -19  10  -1   40.00    5.60
   9 -19  -1   21.90    7.10
  10   9  -1   38.10    6.10
   9 -19  -1   32.70    5.90
 -19   9   1   32.20    6.20
   9  10   1   24.80    7.20
   9  10   1   36.00    6.00
  10 -19   1   29.60    6.30
  10 -19   1   25.10    6.60
  10   9  -1   33.00    7.40
 -19  10  -1   28.30    7.20
 -19   9   1   31.00    6.50
  19  -9  -1   25.10    8.30
  19 -10   1   22.80    7.00
 -10  -9   1   32.20    6.90
  -9  19   1   25.60    7.30
 -10  19  -1   34.60    8.10
  -9 -10  -1   35.50    7.10
  11 -19   1   59.69    8.30
  11 -19   1   67.49    7.90
 -19   8   1   69.19    7.80
   8  11   1   68.19    9.40
 -19   8   1   68.59    8.00
   8 -19  -1   67.39    9.10
  11   8  -1   73.49    8.30
   8  11   1   70.89    7.50
 -19  11  -1   82.09    9.80
  11   8  -1   75.39    6.60
   8 -19  -1   70.99    6.70
  -8 -11  -1   74.99    8.60
  -8  19   1   51.49    8.90
 -11  -8   1   65.99    8.20
 -11  19  -1   78.79   10.60
  19  -8  -1   57.59   10.30
  19 -11   1   52.09    8.90
 -19  12  -1  100.09   10.10
 -19   7   1   87.39    8.80
 -19   7   1  104.99    9.40
   7 -19  -1   77.49    9.20
  12 -19   1   88.69    7.80
   7 -19  -1   97.29    7.60
   7  12   1   87.09    8.00
  12 -19   1   76.59   10.20
 -19  12  -1  103.49    7.70
   7  12   1   84.89   10.10
  12   7  -1   98.69    7.70
  12   7  -1   78.89    9.70
  19  -7  -1   78.29   10.50
  19 -12   1   78.09    9.70
  -7 -12  -1   95.79    8.80
 -12  19  -1   87.99    9.70
  -7  19   1   78.39   10.40
 -12  -7   1  100.09    9.80
  13 -19   1   61.99    8.40
 -19   6   1   72.59    9.10
  13   6  -1   61.09    7.50
 -19  13  -1   72.99    7.10
   6 -19  -1   52.39    6.90
  13 -19   1   65.89   10.30
  13   6  -1   56.99    8.80
 -19   6   1   51.59    8.00
   6 -19  -1   60.29    8.50
   6  13   1   63.89    7.90
   6  13   1   56.19    8.90
 -19  13  -1   59.39    8.00
  -6 -13  -1   57.09    8.00
  19  -6  -1   64.49    8.80
 -13  19  -1   60.99    8.80
  -6  19   1   57.79    8.80
  19 -13   1   44.60    8.40
 -13  -6   1   48.70    7.70
   5 -19  -1   34.20    7.00
 -19  14  -1   35.10    7.30
   5  14   1   37.70    6.60
   5  14   1   29.80    7.90
  14 -19   1   28.70    6.30
  14   5  -1   28.40    7.10
  14 -19   1   41.30    8.20
 -19   5   1   43.40    7.90
   5 -19  -1   40.30    6.60
 -19  14  -1   37.40    6.90
 -19   5   1   35.50    6.80
  14   5  -1   39.60    6.80
 -14  -5   1   37.90    7.60
  -5  19   1   26.30    7.10
  19 -14   1   33.60    7.90
 -14  19  -1   32.70    7.40
  -5 -14  -1   41.30    7.50
  19  -5  -1   37.70    7.20
   4  15   1   19.30    6.10
   4 -19  -1   28.90    6.30
 -19   4   1   19.30    6.40
 -19  15  -1   27.30    6.10
  15   4  -1   25.90    6.40
  15 -19   1   23.20    7.00
   4 -19  -1   20.30    6.20
  15 -19   1   20.50    8.20
   4  15   1   17.70    7.30
 -19   4   1   20.40    7.20
  15   4  -1   49.70    8.60
  19 -15   1   11.40    7.40
  -4  19   1   13.80    6.70
 -15  19  -1   27.30    7.80
  -4 -15  -1   20.40    6.40
 -15  -4   1   17.00    6.20
  19  -4  -1   18.90    6.80
 -19  16  -1   14.40    6.00
 -19   3   1   13.30    6.70
 -19   3   1   -5.40    7.10
   3 -19  -1   -6.20    5.70
   3 -19  -1    9.70    5.60
  16   3  -1    4.80    6.30
  16 -19   1   14.00    6.80
   3  16   1    6.40    6.90
   3  16   1    1.90    6.30
  16 -19   1   -3.00    7.50
  16   3  -1    5.00    5.60
  -3 -16  -1   11.30    6.40
  19 -16   1   10.40    7.30
 -16  -3   1   -1.70    5.80
  19  -3  -1   13.00    6.90
  19 -16   1   -6.80    8.30
  -3  19   1    3.50    6.60
 -16  19  -1    4.10    6.90
  17   2  -1   77.89    8.90
 -19   2   1   50.69    8.30
   2  17   1   61.29    9.70
  17 -19   1   71.09    8.70
   2 -19  -1   68.89    8.30
  17   2  -1   78.59    9.00
 -19   2   1   60.99    9.70
   2  17   1   69.59   10.80
 -19  17  -1   72.59    8.60
  17 -19   1   66.99   11.30
  19 -17   1   64.49    9.90
  -2 -17  -1   59.79    7.70
  19  -2  -1   70.59    8.50
  19 -17   1   62.99   10.10
 -17  19  -1   68.79    8.60
  -2  19   1   49.80    8.90
 -17  -2   1   46.50    8.00
   1  18   1   19.40    7.90
  18 -19   1   29.80    9.10
  18 -19   1   43.80    9.00
   1 -19  -1   35.50    7.30
 -19   1   1   35.90    7.20
  18   1  -1   63.49    9.00
   1  18   1   29.80    7.70
 -19   1   1   15.40    9.60
  18   1  -1   49.40    8.10
   1 -19  -1   32.40    6.80
 -19  18  -1   51.19    8.40
  19 -18   1   31.70    9.40
  19 -18   1   34.70    9.60
  19  -1  -1   44.40    7.80
  -1  19   1   31.10    8.60
  -1 -18  -1   40.60    7.40
 -18  19  -1   41.00    8.30
 -18  -1   1   30.50    7.90
  19 -19   1    0.30    8.80
 -19  19  -1   -0.50    6.50
 -19   0   1   -5.40    5.90
  19 -19   1    8.60    8.30
   0 -19  -1    4.20    5.20
  19   0  -1    4.40    6.40
   0  19   1   -0.70    7.20
 -20   0  -1   23.10    7.90
 -20  20   1   18.60    6.90
   0 -20   1   17.30    6.40
  20   0   1   11.90    7.30
  20 -20  -1   19.40    9.00
   0  20  -1   14.30    9.00
 -20  19   1   38.10    7.80
   1  19  -1   35.90    9.30
  19   1   1   40.70    8.60
 -20   1  -1   42.10    8.40
   1 -20   1   31.30    6.70
  -1  20  -1   25.80    8.60
 -19  20   1   29.50    7.40
  20  -1   1   30.00    7.20
 -19  -1  -1   38.80    8.00
  -1 -19   1   31.00    6.60
  20 -19  -1   21.90    8.40
 -20   2  -1   58.89    9.30
  18   2   1   51.99    8.30
  18 -20  -1   53.39    9.80
   2 -20   1   34.80    6.70
 -20  18   1   56.19    9.30
 -18  -2  -1   45.90    8.20
  20  -2   1   41.80    8.30
  20 -18  -1   55.29   14.20
 -18  20   1   46.30    8.90
  -2  20  -1   44.70    9.00
  -2 -18   1   39.50    7.40
 -20   3  -1   42.30    9.30
  17 -20  -1   20.70    7.50
 -20  17   1   32.00    7.80
   3 -20   1   22.10    6.10
  17 -20  -1   23.40    8.80
   3  17  -1   26.40    8.80
  17   3   1   29.50    7.50
  -3  20  -1   15.90    7.90
 -17  -3  -1   27.40    7.60
  20 -17  -1   17.70    8.40
 -17  20   1   24.00    7.70
   4 -20   1   62.99    7.40
   4  16  -1   59.89    9.90
 -20  16   1   75.49    8.70
  16 -20  -1   43.90    8.20
 -20  16   1   68.39    9.00
  16   4   1   73.19    9.00
 -20   4  -1   70.79    9.30
  16 -20  -1   74.09   10.60
  20 -16  -1   60.49    9.40
  -4 -16   1   60.49    7.50
 -16  20   1   66.99    8.60
  20  -4   1   55.69    8.20
  15 -20  -1  180.38   12.90
 -20  15   1  203.58   11.90
 -20   5  -1  223.28   12.60
  15 -20  -1  193.88   12.20
   5  15  -1  206.78   13.60
  15   5   1  222.98   12.00
 -20  15   1  193.48   11.40
   5 -20   1  202.18   11.50
  -5 -15   1  194.08   11.00
 -15  -5  -1  204.48   12.30
  -5  20  -1  199.48   12.70
  20  -5   1  184.88   11.60
 -15  20   1  191.08   12.40
  20 -15  -1  185.58   12.40
  14 -20  -1   38.50    7.00
 -20  14   1   46.80    7.80
  14   6   1   37.60    6.10
  14 -20  -1   35.90    7.30
 -20   6  -1   41.40    7.90
   6  14  -1   44.30    9.00
 -20  14   1   52.79    7.40
   6 -20   1   44.60    7.80
  -6  20  -1   37.00    8.30
 -14  -6  -1   51.59    8.50
  -6 -14   1   31.70    6.30
  20  -6   1   47.50    8.20
  20 -14  -1   38.10    7.80
 -14  20   1   37.10    7.80
 -20  13   1  145.49   10.30
   7  13  -1  167.78   12.50
 -20  13   1  169.58   10.50
   7 -20   1  158.28   10.10
  13 -20  -1  162.68   10.30
  13   7   1  170.18   10.20
  13 -20  -1  134.09   11.40
  13   7   1  136.59   11.70
 -20   7  -1  184.88   12.50
 -13  20   1  158.08   10.80
 -13  -7  -1  173.48   12.00
  20  -7   1  156.08   10.60
  -7  20  -1  162.98   11.70
  20 -13  -1  158.78   12.20
  -7 -13   1  170.68   10.30
   8  12  -1  277.47   12.20
 -20   8  -1  289.87   14.80
 -20  12   1  278.97   13.40
   8  12  -1  280.57   14.80
  12   8   1  257.17   14.10
  12 -20  -1  300.47   13.30
  12   8   1  279.07   13.10
  12 -20  -1  262.87   14.30
 -20  12   1  274.27   13.60
   8 -20   1  274.77   12.90
  20 -12  -1  267.47   14.10
 -12  -8  -1  284.27   13.90
  -8  20  -1  284.47   15.30
 -12  20   1  268.37   14.00
  -8 -12   1  282.97   13.80
  20  -8   1  283.17   13.90
  11   9   1    8.40    6.90
   9  11  -1   25.20    5.00
   9 -20   1   21.60    5.50
 -20   9  -1   22.50    6.90
   9  11  -1   13.60    7.60
  11 -20  -1    6.40    6.80
 -20  11   1   21.40    6.30
  11   9   1   19.00    5.80
  11 -20  -1   36.40    6.50
 -20  11   1   16.30    5.70
   9 -20   1   11.70    5.80
 -11  -9  -1   23.80    6.80
  -9  20  -1   19.60    7.60
  20  -9   1   20.00    6.70
  20 -11  -1   23.60    7.30
 -11  20   1   21.60    6.90
  -9 -11   1   18.20    6.20
  10  10  -1   97.69    7.40
  10 -20   1   51.19    8.60
  10  10   1   79.09   10.40
 -20  10   1   92.99    8.80
 -20  10  -1   82.99    9.30
  10  10  -1   78.79   10.10
  10 -20   1   90.39    8.30
  10 -20  -1   85.59    7.30
  10 -20  -1   64.79    8.90
  10  10   1   83.69    8.00
 -20  10   1   87.79    8.10
  20 -10  -1   90.99    9.60
 -10 -10   1   79.39    8.20
  20 -10   1   72.79    8.90
 -10  20   1   75.99    8.70
 -10 -10  -1   94.39    8.70
 -10  20  -1   81.79    9.80
 -20   9   1  160.08   10.00
 -20  11  -1  138.09   10.40
   9  11   1  145.69   11.30
  11   9  -1  133.29   11.00
   9  11   1  136.49    9.10
   9 -20  -1  102.49   10.10
 -20   9   1  126.39   10.30
   9 -20  -1  145.39    9.30
  11   9  -1  156.98    8.70
  11 -20   1  139.99    9.60
  20  -9  -1  122.39   10.20
  20 -11   1  121.09   10.10
  -9  20   1  122.59   10.20
 -11  20  -1  146.39   10.90
 -11  -9   1  136.59    9.60
  -9 -11  -1  148.19   10.00
  12 -20   1   33.40    7.70
 -20   8   1   60.29    7.50
 -20   8   1   49.30    7.50
   8 -20  -1   36.00    7.40
 -20  12  -1   53.99    8.20
   8  12   1   54.99    9.60
 -20  12  -1   46.30    6.90
   8 -20  -1   53.79    7.00
  12 -20   1   50.99    7.80
  12   8  -1   41.80    7.70
  12   8  -1   50.29    7.00
   8  12   1   49.00    7.60
 -12  -8   1   46.10    7.80
  -8  20   1   37.50    7.70
  20  -8  -1   39.80    7.70
  20 -12   1   27.90    7.30
  -8 -12  -1   53.79    8.90
 -12  20  -1   38.90    8.20
 -20   7   1    2.40    5.60
 -20  13  -1    9.80    6.90
 -20  13  -1    6.90    4.80
   7 -20  -1    2.00    5.10
 -20   7   1    3.30    6.50
   7  13   1    3.00    5.30
   7 -20  -1   -3.00    6.30
   7  13   1    5.40    7.20
  13   7  -1    6.80    6.80
  13 -20   1    2.70    6.90
  13 -20   1    1.10    5.40
  13   7  -1   11.70    4.90
  -7 -13  -1    1.70    5.50
  20  -7  -1    0.40    6.40
  -7  20   1   -3.20    6.10
 -13  20  -1    3.70    6.60
 -13  -7   1    6.40    6.50
  20 -13   1    3.00    7.60
 -20  14  -1    8.30    5.40
   6  14   1   -1.80    7.20
   6 -20  -1    2.50    5.10
 -20   6   1  -11.10    5.80
  14   6  -1    3.60    5.10
  14   6  -1    0.80    6.60
 -20  14  -1    6.80    7.30
  14 -20   1    0.40    6.70
   6  14   1    4.60    5.50
   6 -20  -1   -1.00    5.70
  14 -20   1   -4.20    5.60
 -20   6   1    8.50    6.10
 -14  20  -1    5.90    7.40
  20  -6  -1   -7.20    5.90
  -6  20   1   -9.90    6.70
  -6 -14  -1    1.50    5.80
 -14  -6   1    1.50    5.70
  20 -14   1   -2.70    6.70
  15   5  -1   14.80    5.80
 -20   5   1    4.60    6.70
   5  15   1   -2.00    5.80
  15 -20   1    8.90    8.00
 -20   5   1    2.40    6.20
   5 -20  -1   10.60    6.20
  15 -20   1    6.40    6.00
   5  15   1    2.80    6.60
   5 -20  -1    2.60    6.40
  15   5  -1   -4.90    6.60
 -20  15  -1    5.70    5.70
 -20  15  -1   14.70    6.80
  20  -5  -1    3.30    7.10
 -15  20  -1    0.70    6.40
  20 -15   1    1.40    7.90
  -5 -15  -1   -0.10    5.60
 -15  -5   1    0.60    6.00
  -5  20   1    2.90    6.20
 -20   4   1   46.10    8.40
 -20   4   1   38.70    8.00
 -20  16  -1   55.49    9.80
  16   4  -1   39.10    7.90
 -20  16  -1   48.20    8.20
  16 -20   1   39.30    8.00
  16   4  -1   33.70    6.60
   4 -20  -1   31.50    7.10
   4  16   1   55.29    7.70
   4 -20  -1   39.90    7.00
   4  16   1   29.70    8.00
  16 -20   1   42.80    9.50
  -4 -16  -1   43.50    7.50
  20  -4  -1   38.10    7.30
 -16  -4   1   40.30    7.20
  -4  20   1   38.50    8.30
 -16  20  -1   38.70    7.90
  20 -16   1   40.40    9.20
  17   3  -1   19.20    6.90
   3  17   1   22.20    7.30
 -20  17  -1   38.80    7.70
   3  17   1   22.20    7.80
  17 -20   1   11.30    6.80
 -20   3   1   19.00    6.60
  17 -20   1   26.70    9.00
 -20   3   1   11.40    8.10
   3 -20  -1   34.90    7.60
  17   3  -1   49.99    8.90
   3 -20  -1   25.30    6.70
  -3  20   1   25.00   10.60
 -17  -3   1   25.00    6.80
  20  -3  -1   25.40    8.00
  20 -17   1   36.30    9.10
  -3 -17  -1   28.60    6.60
 -17  20  -1   27.50    7.50
 -20   2   1   -3.70    6.30
  18   2  -1    9.00    6.60
  18   2  -1    5.00    6.70
   2 -20  -1    4.10    5.40
 -20  18  -1    4.30    6.20
   2  18   1   -1.70    7.70
   2 -20  -1    0.90    6.80
  18 -20   1    9.50    8.90
   2  18   1    0.40    7.10
  18 -20   1   -0.90    7.30
  20 -18   1    1.10    7.70
  20 -18   1   -4.00    8.70
  20  -2  -1    4.30    6.60
  -2 -18  -1   -2.80    5.50
  -2  20   1    5.30   12.50
 -18  20  -1    6.50    7.20
 -20   1   1   12.30    7.80
  19 -20   1   18.30    8.80
  19   1  -1   17.00    7.60
   1 -20  -1   37.20    7.70
   1 -20  -1   13.10    6.00
  19 -20   1    8.30    8.90
 -20  19  -1    8.10    7.00
  -1 -19  -1   12.10    6.70
  20 -19   1   15.50    9.60
 -19  20  -1   13.20    8.20
  20  -1  -1    9.10    6.70
  20 -19   1   17.30    9.40
 -19  -1   1    6.70    6.50
  -1  20   1   14.60    8.20
  20 -20   1  -13.30    8.60
   0  20   1    6.20    7.20
   0 -20  -1   -4.70    5.70
 -20  20  -1   12.00    7.30
  20   0  -1    0.30    6.70
 -20   0   1    1.30    6.50
  20 -20   1  -10.20    8.80
   0  21  -1    1.90    7.60
   0 -21   1    2.70    5.80
 -21   0  -1    2.00    7.20
  21   0   1   10.20    7.60
 -21  21   1   -7.80    7.70
  21 -21  -1    8.90    8.40
 -21   1  -1   10.70    8.40
   1 -21   1    3.60    5.80
  20   1   1   -3.00    6.00
  20 -21  -1    2.10    8.70
   1  20  -1    2.10    8.50
  -1 -20   1    8.80    6.50
  21  -1   1   -4.00    6.10
  -1  21  -1    3.70    8.20
 -20  -1  -1    7.10    7.30
  21 -20  -1   -1.50    7.70
 -20  21   1   16.90    7.90
 -21   2  -1   13.40    7.60
   2  19  -1    6.80    8.80
  19   2   1   11.40    7.10
   2 -21   1   11.30    6.00
  19 -21  -1   21.60    8.40
 -21  19   1   15.00    7.90
  21  -2   1    8.70    7.10
 -19  21   1    9.80    7.10
 -19  -2  -1   16.10    7.50
  -2  21  -1    7.20    7.60
  -2 -19   1   14.70    6.10
  21 -19  -1   11.60    7.50
   3  18  -1   26.30    9.00
   3 -21   1   13.80    6.10
 -21  18   1   24.10    7.90
 -21  18   1   60.09   13.60
  18   3   1   29.20   10.90
 -21   3  -1   44.20    9.20
  18 -21  -1   28.20    8.40
  -3  21  -1   18.90    8.70
  -3 -18   1   16.80    6.10
  21 -18  -1   22.90    7.80
  21  -3   1   31.80    7.80
 -18  -3  -1   21.90    7.60
 -18  21   1   19.00    7.50
 -21  17   1   87.59    9.60
 -21  17   1  103.49   10.10
 -21   4  -1   88.99   10.00
  17   4   1   97.09    9.80
  17 -21  -1   79.29   10.10
   4 -21   1   98.59    9.40
  -4  21  -1   78.59   10.40
 -17  -4  -1   71.39    9.40
  21 -17  -1   93.19   11.40
  21  -4   1   79.09    8.90
  -4 -17   1   85.69    8.20
  16 -21  -1   35.60    8.50
 -21  16   1   48.40    7.70
 -21  16   1   25.50    7.40
   5  16  -1   32.60    8.70
   5 -21   1   31.70    6.60
  16   5   1   38.20    7.50
 -21   5  -1   46.00    9.80
  -5  21  -1   24.70    8.10
 -16  21   1   42.90   13.00
  -5 -16   1   31.80    6.50
  21 -16  -1   28.20    7.60
  21  -5   1   30.30    7.10
 -16  -5  -1   33.40    7.70
  15   6   1   52.09    8.30
  15 -21  -1   59.99    9.30
  15 -21  -1   71.19    9.20
   6  15  -1   54.59    9.50
   6 -21   1   64.39    7.50
 -21  15   1   63.59    8.50
 -21   6  -1   74.09   10.60
 -21  15   1   73.59    8.80
 -15  -6  -1   64.99    9.00
  21 -15  -1   57.59    9.10
  -6  21  -1   51.49    9.60
 -15  21   1   43.80    9.10
  21  -6   1   51.39    8.50
  -6 -15   1   57.09    7.70
   7  14  -1  220.48   13.10
  14 -21  -1  199.98   13.30
 -21  14   1  234.78   12.30
 -21  14   1  183.68   12.30
 -21   7  -1  221.48   12.70
   7 -21   1  200.78   10.90
  14   7   1  239.98   12.00
  14 -21  -1  250.67   12.30
 -14  21   1  200.58   12.40
  -7 -14   1  215.78   13.40
  21  -7   1  159.58   12.90
  -7  21  -1  165.88   13.90
  21 -14  -1  170.78   18.40
 -14  -7  -1  194.58   13.80
 -21   8  -1   34.10    7.80
 -21  13   1   27.60    6.90
  13 -21  -1   16.80    7.50
   8 -21   1   26.40    6.20
  13 -21  -1   18.90    6.40
 -21  13   1   26.90    7.00
   8  13  -1   18.50    7.60
  13   8   1   30.30    6.60
 -13  21   1   26.10    7.80
 -21  12   1  114.49    9.20
 -21   9  -1  133.49   11.30
  12   9   1  108.49   11.20
  12   9   1  128.19    9.10
   9 -21   1  102.39    9.10
  12 -21  -1  117.99    9.10
   9  12  -1  108.29   10.20
 -21  12   1   98.29    9.70
  12 -21  -1   98.19   10.90
  21  -9   1  101.79   13.00
 -12  21   1  101.59    9.60
  21 -12  -1  134.99   16.80
  -9 -12   1   87.39    9.60
  -9  21  -1  109.49   10.50
 -12  -9  -1  113.59    9.60
 -21  10  -1  166.88   11.00
  11 -21  -1  131.09   11.20
  11 -21  -1  163.88    9.60
  10  11  -1  162.68    9.50
  10 -21   1  163.48    9.80
  11  10   1  151.48   12.30
  11  10   1  170.58   10.60
  10  11  -1  160.78   11.20
 -21  11   1  157.08   10.90
 -21  11   1  169.88   10.40
 -11 -10  -1  155.78   10.50
  21 -10   1  157.68   11.20
 -10  21  -1  170.28   13.00
  21 -11  -1  158.78   12.10
 -10 -11   1  143.49   10.20
 -11  21   1  141.99   10.80
  11 -21   1   38.70    6.70
  10 -21  -1   49.20    7.00
  11  10  -1   46.40    6.80
  10  11   1   42.90    6.60
  10  11   1   32.20    8.20
 -21  10   1   48.10    8.40
  10 -21  -1   39.50    7.90
  11 -21   1   21.20    6.90
  11  10  -1   40.00    8.50
 -21  10   1   29.70    7.30
 -21  11  -1   50.79    8.80
  21 -11   1   29.80    7.50
 -10 -11  -1   54.39    8.20
 -11  21  -1   35.70    8.10
 -11 -10   1   36.10    7.60
  21 -10  -1   41.20    7.70
 -10  21   1   33.20    7.40
 -21  12  -1   33.40    8.30
 -21   9   1   27.70    7.20
  12   9  -1   50.19    6.90
   9 -21  -1   12.60    6.90
  12   9  -1   33.10    8.10
  12 -21   1    9.30    6.90
   9 -21  -1   37.70    6.40
   9  12   1   41.70    7.20
   9  12   1   22.20    8.00
 -21   9   1   26.60    7.60
  12 -21   1   39.20    7.10
  21 -12   1   24.70    7.10
 -12  -9   1   29.70    8.40
  21  -9  -1   32.10    7.50
 -12  21  -1   34.50    7.90
  -9  21   1   18.20   10.70
  -9 -12  -1   35.20    7.10
 -21   8   1   -2.20    6.00
 -21   8   1   12.30    6.10
   8 -21  -1   14.50    5.40
  13 -21   1   16.00    7.20
   8  13   1   -8.70    6.90
   8 -21  -1   -5.30    6.90
  13   8  -1   11.90    5.40
  13 -21   1   12.40    6.40
  13   8  -1   14.20    7.40
   8  13   1    7.00    5.90
 -21  13  -1   16.40    7.60
 -13  21  -1    9.50    6.90
  21  -8  -1    6.30    6.80
  -8 -13  -1   14.90    6.50
  21 -13   1    6.50    6.80
 -13  -8   1    4.00    9.40
 -21   7   1    1.30    6.20
   7 -21  -1   12.10    5.30
  14 -21   1    6.40    6.40
  14   7  -1   13.80    7.10
 -21   7   1    7.20    7.10
   7  14   1   -0.70    6.90
 -21  14  -1   14.60    7.00
   7  14   1   -0.60    5.50
  14 -21   1   14.30    7.80
  14   7  -1    4.70    5.40
   7 -21  -1    3.10    6.30
 -21  14  -1   -0.10    5.40
  21 -14   1   -2.30    6.90
  -7  21   1   -8.80   11.00
  21  -7  -1    3.80    6.30
 -14  21  -1    3.50    7.90
  -7 -14  -1    4.80    6.20
 -21   6   1    3.70    7.20
  15 -21   1   24.00    6.60
 -21  15  -1   19.00    6.10
   6 -21  -1   16.70    5.70
   6 -21  -1   -0.10    6.80
 -21   6   1   24.80    7.30
  15   6  -1   18.10    6.10
   6  15   1   29.00    6.90
  15 -21   1    7.00    8.40
  15   6  -1   18.70    7.60
   6  15   1   19.70    7.70
 -21  15  -1   23.40    8.30
  21  -6  -1   15.30    7.90
 -15  21  -1   20.00    7.40
  -6 -15  -1   20.90    7.30
  21 -15   1   27.30    8.10
  -6  21   1   11.50    6.90
 -15  -6   1   10.40   11.10
 -21   5   1   22.00    7.10
  16 -21   1   22.90    7.20
 -21  16  -1   51.39    8.60
   5 -21  -1   25.50    7.10
 -21  16  -1   26.70    6.70
  16   5  -1   24.20    6.70
   5  16   1   30.70    7.10
   5  16   1   18.40    7.80
  16   5  -1   32.60    8.00
   5 -21  -1   28.70    6.60
 -21   5   1   44.90   12.00
  16 -21   1   24.50    9.10
 -16  -5   1   21.50    6.50
 -16  21  -1   29.00    8.50
  21 -16   1   18.70    9.10
  -5  21   1   17.70    7.00
  -5 -16  -1   29.30    7.50
   4 -21  -1  -15.30    6.90
   4  17   1   -4.90    7.30
  17   4  -1   -4.80    7.20
  17   4  -1   11.00    6.40
  17 -21   1   -4.00    6.80
   4  17   1   -0.80    7.00
  17 -21   1    0.10    8.40
 -21   4   1    1.10    6.00
   4 -21  -1    4.80    5.90
 -21  17  -1   12.50    6.60
 -21  17  -1   16.30    8.20
  -4  21   1   -1.50    6.80
  -4 -17  -1    8.00    6.60
  21  -4  -1    0.80   11.20
 -17  -4   1   -0.40    6.20
 -17  21  -1    1.70    7.70
   3 -21  -1   15.20    7.10
   3 -21  -1   10.60    6.00
  18 -21   1   17.20    8.00
   3  18   1   24.40    7.80
  18   3  -1   14.30    7.40
 -21   3   1    6.30    6.90
  18   3  -1   13.30    7.00
 -21  18  -1   22.40    7.50
   3  18   1   -0.80    8.10
  18 -21   1   21.80    9.20
  21  -3  -1   12.50    7.90
 -18  21  -1   16.60    8.10
  -3 -18  -1   11.40    9.70
 -18  -3   1   11.80    7.10
  -3  21   1   18.90    8.20
   2  19   1    3.30    8.40
   2 -21  -1   10.60    6.80
  19   2  -1    6.60    7.40
 -21   2   1    5.70    7.40
 -21  19  -1   17.30    7.20
  19 -21   1   -0.90    8.20
  19 -21   1    0.60    9.50
  21 -19   1    3.80    8.30
 -19  21  -1    5.20    8.20
 -19  -2   1    2.20    6.80
  21  -2  -1    8.00    6.70
  -2 -19  -1    3.30    7.40
  -2  21   1   10.10    7.30
 -21   1   1    2.10    7.30
  20 -21   1   -4.10    9.70
   1  20   1    3.20    7.30
   1 -21  -1    7.70    7.70
 -21  20  -1   11.90    7.20
  20 -21   1    1.90    8.30
  21 -20   1    9.10    9.30
 -20  -1   1   10.00    6.50
  -1 -20  -1    8.90    6.60
  21  -1  -1   -3.10    6.70
  -1  21   1    1.70    7.90
 -20  21  -1    2.40    7.20
  21 -20   1    5.10    9.10
  21   0  -1   10.60    7.10
 -21   0   1    3.80    7.30
  21 -21   1   10.70    9.60
  21 -21   1   -7.70    9.40
 -21  21  -1   -4.40    8.00
   0 -21  -1    4.20    6.80
   0  21   1   -1.10    6.80
   0 -22   1   -4.70    6.20
   0  22  -1    8.30    8.00
  22 -22  -1    5.00    7.40
 -22   0  -1    5.20    8.10
 -22  22   1    9.40    8.20
  22   0   1    0.40    7.40
 -22  21   1   19.70    8.40
   1 -22   1    7.30    5.80
  21 -22  -1    5.60    7.70
   1  21  -1    7.80    7.80
  21   1   1   -1.30    6.50
 -22   1  -1    7.80    7.30
  22 -21  -1    2.50    8.10
  22  -1   1    1.40    6.70
 -21  -1  -1    0.90    7.10
 -21  22   1   15.80    7.60
  -1  22  -1    8.60    7.90
  -1 -21   1    2.30    5.90
  20 -22  -1    0.50    8.80
   2 -22   1    3.40    5.90
  20   2   1    3.70    7.50
   2  20  -1    2.60    7.60
 -22   2  -1    8.80    7.40
 -22  20   1    2.10    8.50
 -20  22   1   -8.50    6.60
  22 -20  -1    0.60    7.10
  -2 -20   1   -0.70    5.60
  22  -2   1   -0.40    6.50
  -2  22  -1    2.30    8.40
 -20  -2  -1   -0.80    6.80
 -22   3  -1   26.10    7.90
  19   3   1   24.00    7.40
 -22  19   1   31.00    8.50
   3 -22   1   27.30    6.80
  19 -22  -1   21.50    8.70
   3  19  -1   12.80    9.20
  -3  22  -1   27.10    8.40
 -19  -3  -1   24.60    7.50
 -19  22   1   31.90    8.60
  -3 -19   1   28.50    7.30
  22  -3   1   24.40    7.90
  22 -19  -1   18.60    7.60
 -22   4  -1   15.90    7.90
  18   4   1   14.50    6.80
   4 -22   1   20.20    6.30
   4  18  -1   23.60    8.90
 -22  18   1   33.90    7.80
  -4 -18   1   15.60    6.10
  -4  22  -1   19.00    8.80
 -18  22   1   14.10    7.10
  22  -4   1   18.70    7.70
  22 -18  -1   24.10    8.10
 -18  -4  -1   24.50    8.10
 -22  17   1   29.40    7.10
  17 -22  -1   19.40    8.00
 -22   5  -1   26.50    8.70
 -22  17   1   24.30    7.60
   5  17  -1   18.10    8.20
  17   5   1   31.70    7.90
   5 -22   1   16.60    6.90
  -5  22  -1   14.30    7.50
  22 -17  -1   22.30    8.40
 -17  22   1   19.90    8.00
 -17  -5  -1   26.80    7.60
  22  -5   1   21.80    7.50
  -5 -17   1   27.80    6.10
 -22  16   1  120.19   10.20
  16 -22  -1  119.19   11.70
 -22   6  -1  115.69   10.40
   6 -22   1  117.89    9.00
  16   6   1  115.59   10.00
   6  16  -1  119.19   12.60
 -22  16   1   97.39   10.40
  22 -16  -1  126.79   12.00
 -16  -6  -1  108.59   10.30
  -6 -16   1   95.99    8.90
  -6  22  -1  102.09   10.80
 -16  22   1  115.99    9.90
  22  -6   1  110.39   10.90
 -22  15   1   31.20    7.70
  15 -22  -1   30.40    8.70
   7  15  -1   47.30    8.80
   7 -22   1   32.00    6.50
  15   7   1   47.50    7.70
 -22  15   1   52.99    8.80
 -15  22   1   30.70    8.10
 -15  -7  -1   36.50    7.90
  22 -15  -1   36.50    8.80
  -7 -15   1   24.60    6.30
  -7  22  -1   28.80    8.40
  22  -7   1   35.40    7.40
 -22  14   1   53.89    8.90
   8 -22   1   56.19    7.80
  14 -22  -1   71.59    9.00
  14   8   1   61.59    8.70
 -22  14   1   46.70    8.40
 -22   8  -1   72.19    9.20
   8  14  -1   50.29    9.80
  14 -22  -1   52.09    9.70
  -8 -14   1   59.79    8.00
 -14  22   1   47.80    8.70
 -14  -8  -1   54.49    8.90
  -8  22  -1   49.20    8.80
  22  -8   1   59.29    8.90
  22 -14  -1   51.29    8.70
   9  13  -1  120.89   12.40
  13 -22  -1  118.39   10.20
  13   9   1  135.19    9.70
 -22  13   1  103.79   10.40
  13 -22  -1  109.49   11.00
 -22  13   1  125.49   10.00
   9 -22   1  113.89    8.80
 -22   9  -1  131.39   10.90
 -13  -9  -1  112.69   10.00
 -13  22   1  105.89   10.00
  22  -9   1  105.89    9.80
  22 -13  -1  135.59   11.00
  -9 -13   1  114.29    9.10
  -9  22  -1  123.09   11.00
  12  10   1   29.30    8.60
 -22  12   1   33.30    7.20
  10  12  -1   27.30    8.90
 -22  10  -1   44.20    8.80
  12  10   1   36.40    7.00
  12 -22  -1   37.40    7.10
  10 -22   1   32.90    6.90
  12 -22  -1   25.00    8.10
 -22  12   1   34.80    7.80
 -10 -12   1   28.80    7.30
 -12  22   1   27.10    8.00
 -12 -10  -1   28.00    7.10
  22 -12  -1   40.70    8.00
  22 -10   1   26.20    8.00
 -10  22  -1   30.80    8.10
 -22  11   1   99.79   10.00
  11 -22  -1  101.99    8.90
  11 -22  -1   81.49   10.50
  11 -22   1   92.19    8.20
  11  11  -1   63.09    9.50
 -22  11  -1  100.99    9.80
  11  11   1   80.59   11.60
  11  11   1  105.49    8.80
 -22  11   1   64.19    9.90
  22 -11  -1   92.19   10.10
 -11  22   1   86.29    9.50
 -11  22  -1   85.69   10.10
 -11 -11  -1   96.39    9.30
 -11 -11   1   86.49    8.60
  22 -11   1   80.79    9.70
 -22  10   1   85.29    9.50
 -22  12  -1   96.09   11.00
  12 -22   1   58.49    7.80
  12  10  -1   64.99   10.70
  10 -22  -1   80.49    8.50
  12  10  -1   59.69    7.90
  10  12   1   80.69    8.20
 -22  10   1   58.69    9.10
  10  12   1   56.39   10.00
  10 -22  -1   50.49    8.90
 -12 -10   1   59.19    8.20
 -10  22   1   65.89    8.80
 -12  22  -1   74.89   10.90
 -10 -12  -1   75.69    8.80
  22 -12   1   66.49    9.40
  22 -10  -1   79.79   11.10
 -22   9   1   11.60    6.50
 -22   9   1   -0.20    6.90
  13 -22   1    6.70    7.10
   9  13   1   -5.30    7.90
   9 -22  -1    6.50    5.80
  13   9  -1   19.10    6.00
   9  13   1   24.30    6.50
  13   9  -1   -2.10    7.60
  13 -22   1    8.70    6.30
 -22  13  -1   15.10    7.00
   9 -22  -1    5.00    7.10
 -13  22  -1    9.20    8.90
  22  -9  -1    4.00    6.60
 -13  -9   1    9.80    7.20
  22 -13   1    5.70    7.50
  -9 -13  -1    7.60    6.40
  -9  22   1   -2.60    6.30
   8  14   1    4.40    8.10
  14 -22   1    7.70    7.90
  14 -22   1   12.30    7.10
 -22   8   1   14.50    6.80
  14   8  -1   10.90    7.70
   8  14   1   14.10    6.40
  14   8  -1   20.70    6.30
   8 -22  -1   12.70    5.50
 -22  14  -1   20.80    8.20
 -22   8   1   11.00    6.80
   8 -22  -1    5.50    7.40
 -14  -8   1   11.90    6.40
  22 -14   1   10.40    7.90
  -8 -14  -1   16.10    6.90
  22  -8  -1    9.10    6.80
  -8  22   1   10.30    7.40
  15   7  -1   27.20    7.10
 -22  15  -1   50.99    8.80
   7  15   1   36.60    7.30
   7  15   1   33.10    9.30
   7 -22  -1   40.90    6.90
  15 -22   1   32.00    7.80
  15   7  -1   27.40    8.50
   7 -22  -1   16.80    7.80
 -22   7   1   20.40    7.10
  15 -22   1   21.40    9.00
  -7  22   1   30.80    8.10
  22  -7  -1   32.30    7.60
 -15  -7   1   27.40    7.00
  -7 -15  -1   29.60    7.10
  22 -15   1   27.70    8.00
  16   6  -1   17.70    7.80
 -22   6   1   -4.50    7.20
  16 -22   1   11.00    7.10
 -22  16  -1   15.00    8.50
   6 -22  -1   -3.30    7.00
  16   6  -1   13.80    6.30
 -22  16  -1   19.00    7.00
   6  16   1   -1.50    8.50
   6 -22  -1    3.20    5.80
  16 -22   1  -16.10    7.80
   6  16   1    2.10    6.90
  22  -6  -1    6.70    7.60
  -6 -16  -1    4.70    6.30
 -16  -6   1    0.60    6.20
  -6  22   1    0.90    7.40
  22 -16   1   10.80    8.50
  17   5  -1   18.80    7.10
   5  17   1   15.50    7.80
  17   5  -1   27.00    8.80
  17 -22   1   16.20    7.80
 -22   5   1   21.90    8.10
   5 -22  -1   16.20    6.90
  17 -22   1   12.50    9.10
   5 -22  -1    2.00    7.40
 -22  17  -1   20.30    8.50
   5  17   1   12.00    8.80
 -22  17  -1   35.00    7.80
  -5  22   1   13.70    7.70
  22  -5  -1   27.60    8.10
  22 -17   1   26.80    9.20
  -5 -17  -1   15.90    6.50
 -17  -5   1    8.90    6.30
   4 -22  -1   51.19    8.20
  18 -22   1   25.30    9.60
  18 -22   1   46.50    9.10
  18   4  -1   37.60    7.50
   4  18   1   23.90   12.80
 -22  18  -1   51.99    9.00
  22 -18   1   34.40    8.80
  -4  22   1   19.40    7.40
  -4 -18  -1   33.00    7.00
  22  -4  -1   28.20    7.60
 -18  -4   1   25.70    7.00
   3  19   1    8.00    8.60
  19 -22   1   -4.30    7.90
  19 -22   1  -11.20    9.60
   3 -22  -1    0.70    6.70
 -22  19  -1   33.80    7.70
  19   3  -1   17.10    6.80
 -22   3   1   -4.40    7.70
 -22  19  -1   30.20    8.40
  22 -19   1    7.10    9.10
 -19  -3   1    9.40    6.90
  -3  22   1   -2.30    6.70
  -3 -19  -1    2.80    6.10
  22  -3  -1   22.70    8.00
  20 -22   1    8.00    9.40
 -22  20  -1    3.00    7.90
 -22   2   1    6.00    7.70
  20   2  -1    2.70    7.70
   2 -22  -1    4.80    6.40
   2  20   1   -4.90    7.80
  22  -2  -1    3.80    7.20
 -20  -2   1    4.40    6.30
  -2  22   1    3.60    7.30
  22 -20   1    6.40    8.30
  -2 -20  -1    4.70    6.10
  21 -22   1    7.40    9.40
  21 -22   1   -3.20   10.00
   1 -22  -1    4.80    7.10
  21   1  -1    5.80    7.60
   1  21   1    8.80    7.40
 -22   1   1   -5.50    7.70
 -22  21  -1   11.90    7.90
 -21  -1   1    4.00    7.30
  -1  22   1    2.90    8.30
  22 -21   1   14.00    9.20
  22  -1  -1   -1.90    7.00
  -1 -21  -1    9.90    6.50
   0  22   1   -2.40    7.80
 -22  22  -1   23.60   10.60
  22 -22   1   -1.20    9.20
   0 -22  -1   11.50    7.30
  22 -22   1   -3.00   10.40
 -22   0   1   19.50    8.20
  22   0  -1   16.60    8.20
   1 -23   1    3.60    6.80
 -23   1  -1    6.20    7.80
  22   1   1    1.60    7.00
 -23  22   1   -4.50    8.30
   1  22  -1    3.70    8.00
  22 -23  -1    2.20    7.70
  -1  23  -1   -3.80    7.70
 -22  23   1    1.50    8.60
 -22  -1  -1    6.00    7.30
  23 -22  -1   -1.10    7.60
  -1 -22   1   -2.10    6.00
  23  -1   1   -3.80    7.70
  21 -23  -1    2.20    8.00
 -23   2  -1   12.70    8.80
   2 -23   1    7.70    6.40
  21   2   1    7.70    8.20
 -23  21   1   12.30    8.60
   2  21  -1    9.30    8.10
 -21  23   1   11.90    8.10
 -21  -2  -1   10.70    7.10
  23  -2   1    1.50    6.70
  23 -21  -1    5.50    8.30
  -2  23  -1    9.20    7.80
  -2 -21   1    3.30    6.40
  20   3   1    2.00    6.60
 -23  20   1   25.80    8.70
   3 -23   1   13.80    6.40
   3  20  -1   14.40    9.20
  20 -23  -1    8.20    9.10
 -23   3  -1   11.30    7.70
  -3 -20   1    8.40    6.00
  -3  23  -1    6.30    8.50
 -20  23   1   12.40    7.60
  23 -20  -1   16.20    7.80
  23  -3   1    1.10    6.80
 -20  -3  -1    9.30    7.20
 -23  19   1   13.70    8.00
   4  19  -1    2.90    9.00
 -23   4  -1    7.00    7.60
   4 -23   1    3.70    5.90
  19   4   1    6.90    6.60
  19 -23  -1   14.40    8.70
  23 -19  -1    1.20    7.80
 -19  23   1    4.00    7.80
  -4  23  -1    0.10    7.50
  23  -4   1    2.90    6.70
 -19  -4  -1    0.70    6.80
  -4 -19   1    4.80    5.50
 -23   5  -1   47.90    9.70
 -23  18   1   37.00    8.50
   5 -23   1   29.00    6.60
   5  18  -1   25.70    8.50
  18 -23  -1   24.80    9.40
  18   5   1   31.00    7.70
  23  -5   1   28.80    7.40
 -18  23   1   31.60    7.80
 -18  -5  -1   31.60    7.80
  -5  23  -1   34.60    8.20
  23 -18  -1   24.90    7.80
  -5 -18   1   24.80    6.40
  17 -23  -1   17.00   13.10
 -23  17   1   23.90    7.80
   6  17  -1   17.00    8.10
   6 -23   1   19.80    7.00
 -23   6  -1   19.80    7.90
  17   6   1   13.80   12.30
  23  -6   1   21.50    7.10
 -17  23   1   18.90    7.20
  -6  23  -1   19.40    8.70
 -17  -6  -1   15.70    7.00
  23 -17  -1   15.40    7.60
  -6 -17   1   20.50    6.70
   7  16  -1   18.80    9.50
 -23   7  -1   19.70    8.50
  16   7   1   20.00    7.10
   7 -23   1   14.90    6.40
 -23  16   1   24.60    8.20
 -23  16   1   15.30    7.50
  16 -23  -1   17.00    8.70
 -16  23   1    5.30    6.60
  23  -7   1   18.20    7.10
  -7 -16   1   14.30    6.20
  23 -16  -1   14.60    7.60
  -7  23  -1    7.50    7.60
 -16  -7  -1   11.50    7.20
  15 -23  -1   81.39   10.90
 -23  15   1   64.19    9.90
 -23   8  -1   91.79   10.30
  15   8   1   89.49    9.50
   8  15  -1   80.49   17.30
 -23  15   1   93.69   10.10
  23  -8   1   89.79    9.50
  23 -15  -1   80.99   10.30
 -15  -8  -1   83.59    9.20
 -15  23   1   93.49   10.00
  -8 -15   1   79.39    8.50
  -8  23  -1   77.99   11.60
   9  14  -1   19.90    8.40
   9 -23   1   19.20    6.10
 -23  14   1   18.60    7.40
 -23   9  -1   25.90    7.80
  14 -23  -1    4.80    8.10
 -23  14   1    5.70    7.70
  14   9   1   27.00    6.60
 -14  23   1   14.50    6.90
  -9 -14   1   17.70    6.80
  23 -14  -1   19.70    7.70
 -14  -9  -1   16.40    7.00
  -9  23  -1   17.90    7.70
  23  -9   1   14.70    6.90
  10 -23   1   57.69    8.70
  10  13  -1   57.79   10.50
  13 -23  -1   80.79    9.50
  13  10   1   48.40    8.50
 -23  13   1   42.00    8.60
 -23  10  -1   46.70   10.50
  13 -23  -1   47.90    9.20
 -23  13   1   83.79    9.90
  23 -10   1   39.20    7.80
 -10  23  -1   59.19    9.80
 -13 -10  -1   61.59    8.60
 -10 -13   1   58.99    7.80
  23 -13  -1   60.49    9.60
 -13  23   1   42.20    8.10
 -23  11  -1   52.59   13.60
  11 -23   1   65.79    8.70
  12  11   1   68.09    9.10
  11  12  -1   62.19   11.10
  12 -23  -1   43.40    8.80
  12 -23  -1   59.49    9.10
 -23  12   1   62.39    9.80
  12  11   1   53.99   10.00
 -23  12   1   35.20    8.50
  23 -12  -1   60.99    9.60
  23 -11   1   51.19    8.90
 -11  23  -1   53.29    9.80
 -12 -11  -1   60.49    8.70
 -12  23   1   57.49    8.80
 -11 -12   1   49.30    8.00
 -23  11   1    0.00    7.80
  11  12   1    3.40    6.20
 -23  12  -1   27.10    8.20
  11 -23  -1   11.10    5.90
  12 -23   1   14.60    6.60
  11  12   1    2.70    8.50
  11 -23  -1   25.50    8.10
 -23  11   1   25.20    7.20
  12  11  -1    0.90    8.10
 -12  23  -1    8.00    7.40
  23 -12   1    3.40    6.70
 -11  23   1    2.90    6.60
 -11 -12  -1   18.80    7.60
 -12 -11   1    6.50    6.20
  23 -11  -1   15.10    7.70
  13  10  -1   49.30    8.10
 -23  10   1   65.29   13.70
  10  13   1   54.59    8.40
  10  13   1   40.70    9.70
 -23  10   1   31.50    8.80
  10 -23  -1   36.40    8.90
  13 -23   1   52.59    7.60
  10 -23  -1   55.69    8.40
 -23  13  -1   47.00    8.80
  13  10  -1   62.09    9.90
 -13  23  -1   51.39    9.50
 -10 -13  -1   49.99    8.40
  23 -13   1   39.10    8.20
 -13 -10   1   36.90    7.00
  23 -10  -1   40.70    8.20
 -10  23   1   39.70    8.40
 -23  14  -1   46.10    9.40
   9  14   1   30.00    9.70
 -23   9   1   12.00    8.20
  14 -23   1   25.00    9.30
  14   9  -1   18.70    9.10
   9  14   1   27.50    7.50
   9 -23  -1   42.60    7.50
   9 -23  -1   20.30    8.10
  14   9  -1   50.99    7.50
  14 -23   1   37.60    8.10
  23 -14   1   15.40    7.40
 -14  -9   1   29.20    7.20
  -9  23   1   27.00    7.30
  23  -9  -1   32.60    8.40
  -9 -14  -1   33.30    7.70
 -14  23  -1   30.00    8.30
 -23  15  -1   11.10    7.80
  15   8  -1   -4.30    8.10
  15   8  -1   10.70    6.50
   8 -23  -1    5.30    7.70
   8 -23  -1    3.10    5.60
  15 -23   1    0.50    8.60
  15 -23   1    5.10    6.90
 -23   8   1   -3.70    7.30
   8  15   1   -1.90    8.30
   8  15   1   -4.50    6.60
  23 -15   1    3.20    6.90
 -15  -8   1   -5.80    6.10
  -8  23   1    0.40    6.50
  23  -8  -1    1.20    7.60
 -15  23  -1    4.20    7.10
  -8 -15  -1    9.20    6.40
  16 -23   1   25.60    9.50
   7 -23  -1    5.50    9.30
 -23  16  -1   34.00    8.50
  16 -23   1   34.60    8.10
 -23   7   1    1.50    7.40
  16   7  -1   36.80    7.60
  16   7  -1   24.10    9.00
   7 -23  -1   32.30    7.40
   7  16   1   42.50    8.70
   7  16   1   22.60    9.60
  -7  23   1   17.30    7.10
  23 -16   1   28.90    8.00
  -7 -16  -1   19.90    6.90
 -16  23  -1   31.00    8.20
  23  -7  -1   40.00    8.60
 -16  -7   1   25.50    6.80
  17 -23   1   58.89   10.50
  17   6  -1   61.99   10.70
 -23   6   1   51.69   14.10
 -23  17  -1   99.59   11.00
   6 -23  -1   73.39    8.90
  17   6  -1   92.69    9.20
  17 -23   1   77.19   12.50
   6  17   1   55.29   10.90
  -6 -17  -1   57.09    8.40
  -6  23   1   49.40    8.90
 -17  -6   1   53.49    8.30
  23 -17   1   63.19   10.20
  23  -6  -1   67.99   10.40
 -17  23  -1   58.29   10.80
  18 -23   1    2.50    9.50
 -23  18  -1    4.40    9.40
   5  18   1    6.00    8.90
 -23   5   1    9.30    7.40
  18   5  -1   18.70    7.20
  18 -23   1   13.90    8.40
   5 -23  -1   11.10    7.20
  23 -18   1    6.20    8.80
  -5 -18  -1    8.70    6.60
  -5  23   1    7.30    6.50
 -18  -5   1   11.20    7.20
 -18  23  -1    5.40    7.30
  23  -5  -1    8.10    7.70
   4  19   1   20.40    9.20
 -23  19  -1   43.40    8.80
 -23   4   1   12.00    7.70
  19 -23   1   21.60    8.60
   4 -23  -1   19.10    7.60
  19   4  -1   39.50    8.40
  -4 -19  -1   27.40    7.00
 -19  23  -1   23.70    8.00
  23 -19   1   20.20    8.60
 -19  -4   1   14.80    7.40
  23  -4  -1   18.60    7.50
  -4  23   1   22.80    8.10
   3  20   1   36.20    9.60
  20 -23   1   27.10   10.70
 -23  20  -1   65.29   10.20
 -23   3   1   44.40    8.60
 -23  20  -1   72.19   16.50
  20 -23   1   20.50   11.40
   3 -23  -1   45.30    8.40
  20   3  -1   55.69    9.20
 -20  -3   1   28.90    7.40
  -3  23   1   34.70    8.00
  23 -20   1   42.50   10.50
  -3 -20  -1   44.90    7.80
  23  -3  -1   57.49    9.80
 -20  23  -1   42.50   10.10
  21 -23   1   19.10   10.00
   2 -23  -1   -1.50    7.30
 -23   2   1    6.60    7.60
  21   2  -1   26.20    7.50
  21 -23   1   27.10   10.70
   2  21   1    8.60    7.80
 -21  -2   1   18.60    7.00
  23  -2  -1   18.80    7.80
  -2  23   1    7.00    7.10
  23 -21   1   22.70    9.20
 -21  23  -1   21.90    8.30
  -2 -21  -1   20.70    6.70
   1  22   1  -10.00    7.70
  22   1  -1    5.60    8.30
   1 -23  -1    0.90    6.20
 -23   1   1    4.90    7.10
 -23  22  -1   16.10    9.60
  22 -23   1   -3.10   10.10
  22 -23   1    4.70    9.70
  23  -1  -1   10.50    8.30
 -22  23  -1   12.70    9.00
 -22  -1   1    7.30    7.70
  -1  23   1   -6.60    7.80
  23 -22   1    6.10    8.80
  -1 -22  -1    1.70    6.30
   3  21  -1    7.00    8.40
   3 -24   1    4.40    6.20
  21 -24  -1   -2.30    8.70
 -24   3  -1   -1.60    7.70
 -24  21   1    5.20    7.90
  21   3   1   11.20    7.50
 -21  -3  -1    1.60    7.40
  24  -3   1    0.20    7.80
 -21  24   1   -7.20    7.80
  24 -21  -1    7.90    8.50
  -3  24  -1    3.70    7.80
  -3 -21   1   -2.80    6.40
 -24  20   1    5.00    8.40
   4 -24   1    9.90    6.50
 -24   4  -1    6.20    7.90
  20 -24  -1    5.40    9.40
  20   4   1    6.50    8.00
   4  20  -1   13.50    9.50
  -4  24  -1    4.80    8.50
  -4 -20   1    4.30    5.90
 -20  -4  -1    7.30    7.20
 -20  24   1    4.50    7.20
  24  -4   1    5.70    7.50
  24 -20  -1    3.50    7.60
   5 -24   1    8.90    6.40
   5  19  -1   -0.70    8.60
  19 -24  -1   17.50    9.10
 -24   5  -1   18.90    8.80
  19   5   1   10.40    7.60
  -5  24  -1    9.00    7.90
 -19  -5  -1    8.50    7.10
 -19  24   1   13.50    7.40
  -5 -19   1   10.50    6.60
  24 -19  -1    8.60    8.30
  24  -5   1    2.90    6.80
 -24  18   1   12.60    8.10
   6 -24   1   -3.40    6.10
  18 -24  -1   -1.40    9.00
 -24   6  -1   11.10    8.00
   6  18  -1    2.60    8.90
  18   6   1    7.30    6.60
 -18  24   1   -9.90    7.70
 -18  -6  -1   -1.90    7.60
  -6  24  -1    2.80    7.40
  24  -6   1    3.40    7.20
  -6 -18   1    6.50    5.80
  24 -18  -1   -1.10    7.00
   7  17  -1   37.00    9.70
  17 -24  -1   23.40    9.90
  17   7   1   43.90    8.50
 -24   7  -1   29.90    8.40
 -24  17   1   43.90    8.80
   7 -24   1   34.00    6.80
  24  -7   1   23.30    8.00
 -17  24   1   34.60    8.40
  24 -17  -1   22.90    8.10
 -17  -7  -1   24.10    7.60
  -7 -17   1   20.40    6.30
  -7  24  -1   28.40    9.20
 -24   8  -1   15.70    8.40
  16 -24  -1   24.90    9.00
 -24  16   1  -11.60    7.90
   8  16  -1    5.00    8.20
   8 -24   1   13.10    7.20
 -24  16   1    8.50    7.70
 -16  -8  -1    6.80    6.70
  24  -8   1    4.00    6.80
  24 -16  -1   15.70    7.70
 -16  24   1    5.40    6.60
  -8  24  -1    3.50    8.20
  -8 -16   1    9.10    6.70
 -24  15   1    8.00    7.50
   9  15  -1   29.50    9.70
   9 -24   1   17.70    7.00
  15   9   1   31.00    7.50
  15 -24  -1   27.90    9.00
 -24  15   1   26.30    8.20
 -24   9  -1   16.80    8.30
 -15  -9  -1   21.80    7.30
  -9 -15   1   21.60    6.30
  24 -15  -1   25.20    7.80
 -15  24   1   17.40    8.30
  24  -9   1   13.30    6.90
  -9  24  -1   17.90    8.50
  14  10   1   50.09    8.30
 -24  14   1   17.10    8.30
  14 -24  -1   37.40    9.40
  10 -24   1   57.59    8.90
 -24  10  -1   67.89    9.60
 -24  14   1   61.69   10.00
  24 -14  -1   30.80    8.10
  24 -10   1   52.09    8.90
 -14  24   1   38.80    7.90
 -14 -10  -1   31.30    7.50
 -10  24  -1   41.40    8.60
 -10 -14   1   31.80    6.80
  11 -24   1    7.10   11.00
  13 -24  -1   12.60    8.80
  11  13  -1    8.70    9.50
 -24  11  -1    8.60    8.90
 -24  13   1  -13.70    7.70
 -24  13   1   13.10    8.20
  13  11   1   33.80    7.20
  24 -13  -1    7.30    7.10
 -13  24   1    5.70    6.60
 -13 -11  -1   16.10    6.70
 -11  24  -1    6.90    7.40
 -11 -13   1    3.00    6.00
  24 -11   1    7.70    6.80
 -24  12  -1   53.69    9.20
 -24  12   1   26.70    9.10
  12 -24  -1   32.60    9.30
  12  12  -1   16.50    9.80
  12  12   1   35.90    7.80
  12 -24   1   27.90   10.40
 -12  24  -1   35.20    8.10
 -12  24   1   28.50    8.10
 -12 -12   1   29.60    6.90
  24 -12   1   30.40    7.60
  24 -12  -1   42.20    8.30
 -12 -12  -1   45.80    8.30
  11 -24  -1   15.00    6.70
  13 -24   1   20.20    7.20
  11  13   1   30.20    9.60
  13  11  -1   29.90    9.80
 -24  11   1    8.50    8.10
  11  13   1   31.60    7.30
  11 -24  -1   19.70    8.80
 -24  13  -1   23.10    7.90
 -11 -13  -1   17.10    6.80
 -11  24   1    9.10    6.80
  24 -13   1   19.00    8.30
  24 -11  -1   13.50    7.40
 -13 -11   1   11.50    6.20
 -13  24  -1   12.70    7.70
  10 -24  -1   -8.90    8.50
  10 -24  -1    3.90    6.20
  10  14   1   -1.70    6.90
  14 -24   1    9.50    6.40
  14  10  -1   11.60    8.50
 -24  10   1   -6.20    8.00
  10  14   1    7.60    8.90
 -24  14  -1    8.80    8.50
 -10  24   1   -4.10    6.20
 -10 -14  -1    1.50    6.90
 -14  24  -1    7.90    7.40
  24 -10  -1    5.20    6.90
  24 -14   1   -1.20    7.60
 -14 -10   1    5.40    6.60
   9 -24  -1   24.40    7.30
   9  15   1   32.20   10.30
   9 -24  -1   13.70    9.40
 -24   9   1   36.10    9.30
  15 -24   1   34.20    8.20
  15   9  -1   43.40    9.80
   9  15   1   40.90    9.20
 -24  15  -1   45.00    9.50
  -9 -15  -1   35.00    7.90
  24  -9  -1   34.00    8.70
  24 -15   1   21.50    8.40
  -9  24   1   32.70    8.00
 -15  24  -1   26.00    8.30
 -15  -9   1   23.40    7.10
  16 -24   1   60.09    9.80
  16   8  -1   60.29    9.20
  16 -24   1   86.89   12.30
 -24   8   1   29.60   15.30
 -24  16  -1   53.99    9.80
  16   8  -1   42.10   10.40
   8  16   1   34.70   10.70
   8 -24  -1   73.49    8.40
  24  -8  -1   60.89   10.30
 -16  24  -1   60.29    9.70
 -16  -8   1   52.99    8.30
  24 -16   1   45.90    9.10
  -8  24   1   47.60    8.70
  -8 -16  -1   58.39    8.80
  17 -24   1   10.60    9.20
 -24  17  -1    9.70    7.80
  17   7  -1   11.30    6.70
   7 -24  -1    5.60    6.70
  17   7  -1  -13.60    9.20
  17 -24   1    5.90    7.80
 -24   7   1    9.80    8.30
  24 -17   1    1.60    8.00
  -7 -17  -1   -3.00    6.60
  24  -7  -1    3.90    7.60
 -17  -7   1   -1.40    6.00
  -7  24   1   -2.70    6.90
 -17  24  -1    2.30    8.40
   6  18   1   30.30    8.90
 -24   6   1   35.50    9.20
  18 -24   1   33.20   11.40
 -24  18  -1   76.49   11.30
  18   6  -1   60.39    9.90
   6 -24  -1   73.69    9.50
 -18  -6   1   46.20    8.30
  -6 -18  -1   47.10    8.20
  24 -18   1   59.59   10.00
  -6  24   1   26.10    7.50
 -18  24  -1   55.09    9.60
  24  -6  -1   44.80    9.20
  19 -24   1   53.29   12.70
 -24   5   1   61.09   11.10
   5  19   1   72.79   10.90
 -24  19  -1   74.79   11.90
   5 -24  -1   73.79   10.10
  19 -24   1   65.69   12.50
  -5 -19  -1   92.99    9.20
 -19  24  -1  101.09   11.70
  24 -19   1   53.69   10.20
  -5  24   1   78.89    9.60
  24  -5  -1   86.49    9.90
 -19  -5   1   72.09    9.10
   4  20   1   18.40    8.40
   4 -24  -1   24.40    8.30
  20   4  -1   32.80    8.70
  20 -24   1   14.10   10.90
 -24  20  -1   11.50    9.30
  20 -24   1   23.00   10.50
 -24   4   1   25.80    8.90
 -20  -4   1   17.40    7.00
  -4 -20  -1   19.00    7.10
  -4  24   1   22.90    8.30
  24  -4  -1   17.10    7.60
  24 -20   1   26.50    9.60
 -20  24  -1   14.40    9.10
   3  21   1   13.40    8.10
   3 -24  -1   26.80    7.70
 -24  21  -1   14.50    9.50
  21 -24   1   14.30    9.60
 -24   3   1   16.30    8.90
  21 -24   1    8.60   10.40
  21   3  -1   15.10    8.60
  24 -21   1   24.90   10.10
  -3  24   1    2.80    7.20
 -21  24  -1   29.20    8.40
  24  -3  -1   21.90    9.00
  -3 -21  -1    5.00    6.30
 -21  -3   1    9.20    7.00
   5  20  -1    5.00    8.80
  20 -25  -1    8.80   10.00
 -25  20   1   24.20    8.60
 -25   5  -1    5.60    9.10
  20   5   1    9.80    8.10
   5 -25   1    4.80    6.50
  25 -20  -1   -8.10    7.20
 -20  25   1    9.60    8.60
  25  -5   1   -3.30    7.50
 -20  -5  -1    0.90    6.80
  -5  25  -1    1.20    7.50
  -5 -20   1   -0.80    5.80
   6  19  -1   -5.50    9.60
   6 -25   1    4.70    6.30
  19   6   1   12.60    8.10
  19 -25  -1    9.70    9.00
 -25  19   1    2.60    8.80
 -25   6  -1   11.30    8.00
  -6 -19   1    0.40    5.70
 -19  -6  -1    0.30    7.50
  25  -6   1   -4.30    6.80
  25 -19  -1    0.50    8.60
  -6  25  -1    4.50    7.70
 -19  25   1    7.10    7.50
  18 -25  -1   14.20    9.30
  18   7   1    2.50    6.50
   7  18  -1   -6.20    9.30
 -25   7  -1   -0.80    8.00
   7 -25   1   11.60    6.80
 -18  -7  -1    6.40    7.00
  25 -18  -1    7.00    7.70
  25  -7   1    6.70    7.00
  -7 -18   1    1.40    5.30
 -18  25   1   -2.70    7.20
  -7  25  -1   -0.10    7.30
  17   8   1   -0.10    7.60
  17 -25  -1  -11.70    9.10
   8  17  -1   13.60    9.20
 -25   8  -1    5.30    7.80
   8 -25   1    1.80    5.90
 -25  17   1    7.90    8.10
  25 -17  -1    3.70    7.30
  -8 -17   1    2.70    5.80
  -8  25  -1    0.50    8.10
  25  -8   1    0.70    6.50
 -17  -8  -1    5.80    6.80
 -17  25   1   -0.80    6.80
 -25   9  -1   38.40    9.60
  16   9   1   35.10    8.10
  16 -25  -1   18.20    9.80
   9 -25   1   16.20    7.20
 -25  16   1   10.70    9.10
   9  16  -1   31.80   10.00
 -25  16   1   17.60    8.60
  -9 -16   1   15.30    6.40
 -16  -9  -1   23.70    7.40
  25 -16  -1   18.30    7.80
 -16  25   1   25.40    7.60
  -9  25  -1   26.40    8.80
  25  -9   1   26.10    8.30
  15 -25  -1   12.60    9.00
 -25  15   1   20.60   11.30
 -25  10  -1   11.00    8.90
 -25  15   1   -6.50    8.40
  10  15  -1   -0.20    9.00
  10 -25   1    8.20    6.90
  25 -10   1    3.70    6.90
 -15 -10  -1   10.70    7.50
 -10  25  -1    5.20    7.40
 -10 -15   1    1.50    5.90
  25 -15  -1    6.80    7.40
 -15  25   1   -1.20    7.10
 -25  11  -1   14.00    8.00
  11 -25   1    4.90    7.10
  11  14  -1   11.40    9.00
  14 -25  -1   -3.80    8.80
 -25  14   1  -16.60    8.50
  14  11   1   25.80    7.60
 -14  25   1    4.80    7.30
 -11 -14   1    7.90    6.20
  25 -14  -1   11.40    7.80
 -11  25  -1    7.50    7.40
 -14 -11  -1    8.90    6.60
  25 -11   1    9.20    7.10
  13 -25  -1   -7.00    8.80
 -25  12  -1   -0.20    7.70
 -25  13   1  -11.20    8.60
  12 -25   1   10.60    6.90
  13  12   1    1.30    7.30
  25 -13  -1   10.40    8.10
 -12  25  -1    5.60    7.10
 -12 -13   1    0.70    5.90
 -13  25   1    4.00    6.70
  25 -12   1    8.50    6.70
 -13 -12  -1    9.20    6.80
  12  13   1   24.90    7.40
  12 -25  -1    6.60    8.90
  13 -25   1   10.70    6.80
 -25  13  -1   18.20    8.50
  13  12  -1  -11.40    9.50
 -25  12   1  -16.10    8.10
  12  13   1   -0.50    9.60
  25 -12  -1    4.80    7.10
 -12  25   1    1.80    6.60
  25 -13   1    3.20    6.90
 -12 -13  -1    4.60    6.60
 -13 -12   1    3.00    6.00
 -13  25  -1    4.40    7.60
  11 -25  -1   21.90    9.40
 -25  11   1   11.30    9.30
  11  14   1   23.30   10.60
  11  14   1   32.80    8.50
 -25  14  -1   44.50    9.60
  14  11  -1   11.50   10.70
  14 -25   1   22.30    8.20
  11 -25  -1   31.60    8.20
 -14  25  -1   39.70    9.30
  25 -14   1   23.30    7.90
 -11 -14  -1   32.90    7.90
 -11  25   1   28.30    7.40
  25 -11  -1   33.70    8.50
 -14 -11   1   37.50    8.00
  15 -25   1   31.80    7.80
  10  15   1   13.50   10.30
 -25  15  -1   30.40    8.90
  10 -25  -1   35.80    7.90
  15  10  -1   22.50    9.90
 -15  25  -1   26.40    8.70
 -10 -15  -1   23.30    7.80
 -15 -10   1   18.80    6.70
  25 -10  -1   25.20    7.90
  25 -15   1   20.40    7.70
 -10  25   1   23.40    7.40
 -25   9   1  -16.60    8.50
  16   9  -1   12.50    9.80
  16 -25   1   23.80    8.10
   9  16   1    2.60    9.30
 -25  16  -1   15.20    8.70
   9 -25  -1   19.60    7.10
  -9  25   1    6.80    6.60
  25  -9  -1   13.70    7.20
 -16  25  -1   15.80    7.80
  25 -16   1   10.80    7.70
 -16  -9   1   -5.80    6.00
  -9 -16  -1    8.20    6.70
 -25   8   1   39.70    9.80
  17 -25   1   28.70   11.80
   8 -25  -1   59.49    8.70
  17 -25   1   42.50    9.30
   8  17   1   35.90   11.00
  17   8  -1   41.50   10.80
  17   8  -1   43.00    8.40
 -25  17  -1   66.09    9.50
  -8  25   1   26.60    7.50
  25 -17   1   33.00    8.50
 -17  25  -1   44.20    9.90
 -17  -8   1   35.00    7.80
  25  -8  -1   40.10    8.90
  -8 -17  -1   30.80    7.40
  18 -25   1   73.39   10.40
   7  18   1  112.59   13.30
 -25  18  -1   94.69   11.80
  18 -25   1   33.50   12.80
  18   7  -1  117.29   10.70
 -25   7   1   79.69   11.50
  -7  25   1   57.39    9.30
  25 -18   1   79.69   11.90
  25  -7  -1   93.79   11.50
  -7 -18  -1   67.69    8.80
 -18  25  -1   84.29   12.00
 -18  -7   1   82.99   10.10
   6 -25  -1   14.40    7.70
   6  19   1   21.20   10.10
 -25   6   1    0.20    8.70
  19 -25   1   14.60    9.50
  19 -25   1  -17.00   17.50
  19   6  -1   27.60    9.20
 -25  19  -1   30.80    9.50
  -6  25   1   15.20    7.90
 -19  -6   1   11.50    6.80
  25  -6  -1   13.70    8.60
 -19  25  -1   10.80    8.10
  -6 -19  -1    9.90    7.20
  25 -19   1    4.30    8.40
  20 -25   1   19.70   10.20
  20 -25   1   32.60   11.60
   5 -25  -1   31.80    8.30
 -25   5   1   20.30    8.30
  20   5  -1   46.20    9.00
   5  20   1   26.20    9.80
 -20  -5   1   20.80    7.60
  25 -20   1   20.80    8.10
  -5  25   1   14.50    7.50
 -20  25  -1   38.50   10.40
  25  -5  -1   29.00    8.20
  -5 -20  -1   17.90    7.30
   9  17  -1    3.80    8.70
 -26   9  -1   -1.40    8.00
  17   9   1   17.00    8.10
   9 -26   1    6.30    6.40
  17 -26  -1  -21.90    9.50
 -17  -9  -1    3.90    6.50
  -9  26  -1   -2.30    8.40
  -9 -17   1    3.50    6.00
  26  -9   1   -0.70    6.90
  26 -17  -1   -6.70    7.40
 -17  26   1    4.20    6.90
 -26  10  -1    5.90    8.00
  10  16  -1    1.40    9.40
  16  10   1   -6.60    7.80
  10 -26   1    3.80    6.80
  16 -26  -1  -17.60    9.60
 -16  26   1   -7.20    6.90
 -10  26  -1    1.20    7.40
  26 -10   1    3.80    7.90
 -16 -10  -1    5.20    6.80
 -10 -16   1    1.00    5.90
  26 -16  -1   -0.50    7.50
  15  11   1    8.80    7.80
  11  15  -1   -6.40    9.70
  15 -26  -1    8.30    9.90
 -26  11  -1   -0.60    9.30
  11 -26   1   11.30    7.40
  26 -11   1   -1.00    6.80
 -11  26  -1    1.00    7.40
 -15  26   1    3.90    7.40
  26 -15  -1    8.60    7.60
 -11 -15   1    9.50    6.20
 -15 -11  -1    1.70    6.60
  14 -26  -1    4.10    9.50
  12  14  -1   -6.40    9.50
 -26  14   1    0.00    9.30
 -26  12  -1    2.40    9.00
  12 -26   1   13.30    7.20
  26 -12   1    9.70    7.20
 -14  26   1    2.80    6.80
 -12 -14   1    3.00    6.00
 -14 -12  -1    8.50    7.50
  26 -14  -1   10.80    7.60
 -12  26  -1    6.60    7.90
 -26  13  -1   -4.90    8.80
  13  13   1   31.30    8.40
 -26  13   1  -15.00    9.80
  13  13  -1   22.60   10.00
  13 -26  -1   -1.40    9.90
  13 -26   1    8.70    7.80
 -13  26  -1    1.40    8.40
  26 -13  -1    9.10    8.20
 -13 -13  -1    3.90    7.40
 -13 -13   1    5.30    6.20
 -13  26   1    2.00    6.50
  26 -13   1   14.30    7.90
  12  14   1  -21.00   10.40
 -26  14  -1    7.40    8.70
  14 -26   1   -0.60    6.40
  14  12  -1   -2.30   10.20
 -26  12   1   -1.50    8.80
  12  14   1   -1.70    8.20
 -14 -12   1   -3.00    5.90
  26 -14   1    4.50    8.00
 -12  26   1    1.20    6.80
 -14  26  -1   -0.30    7.70
  26 -12  -1    2.60    7.20
 -12 -14  -1    5.90    7.70
  15 -26   1    4.90    7.90
 -26  15  -1   22.90    8.90
  11  15   1   -3.40   10.60
 -26  11   1   21.60    9.20
  15  11  -1  -21.60   16.90
 -11  26   1    7.80    6.90
 -15  26  -1   12.30    7.80
  26 -15   1    4.00    8.00
 -11 -15  -1   15.40    7.80
 -15 -11   1   10.90    6.70
  26 -11  -1    8.30    8.30
 -26  16  -1   37.60    9.30
  16  10  -1   -6.70   11.40
  10  16   1   31.60   11.70
 -26  10   1    7.20    9.70
  16 -26   1   46.80    9.00
 -10 -16  -1   37.80    7.80
  26 -10  -1   33.20    8.10
 -10  26   1   23.10    7.40
 -16 -10   1   20.10    7.00
 -16  26  -1   40.00    9.70
  26 -16   1   31.10    9.20
 -26  17  -1   69.29   11.60
  17   9  -1   19.10   12.30
   9  17   1   77.09   13.20
  17 -26   1   66.79   11.00
 -26   9   1   46.10   10.50
  26 -17   1   35.10    9.40
  26  -9  -1   42.50    8.60
 -17  -9   1   53.99    8.40
 -17  26  -1   64.69   10.90
  -9  26   1   32.00    7.80
  -9 -17  -1   61.49    8.70
   0   0   2    0.60    2.30
   0   0   2    1.70    2.70
   0   0   2   -3.70    2.40
   0  -1   2    5.70    2.20
   1   0   2    5.20    2.50
   0  -1   2    0.70    2.70
   1   0   2    0.80    2.40
   1   0   2    5.10    2.40
   0  -1   2    4.90    2.20
  -1   1   2    2.60    2.70
  -1   1   2    3.10    2.00
  -1   1   2   -1.20    2.60
   0   1   2   10.20    2.70
   0   1   2   15.70    3.00
   1  -1   2   13.80    2.70
   1  -1   2   11.50    2.80
  -1   0   2   12.10    3.10
   1  -1   2   10.40    2.70
   0   1   2   13.20    2.70
  -1   0   2   11.90    2.70
  -1   0   2   10.70    2.10
  -2   2   2   22.30    3.90
   2   0   2   15.90    2.90
   0  -2   2   18.20    3.50
   2   0   2   19.70    3.60
   0  -2   2   21.00    3.00
   2   0   2   15.50    2.80
  -2   2   2   14.90    2.10
  -2   2   2   20.20    3.30
   0  -2   2   18.40    2.50
   1  -2   2   -0.80    2.20
   1   1   2   -0.50    2.60
  -2   1   2   -5.70    2.50
   1  -2   2   -0.40    2.10
  -2   1   2    1.80    2.70
   1   1   2   -1.10    2.00
   1   1   2    1.20    2.60
   1  -2   2    4.10    3.10
  -2   1   2   -0.80    1.70
  -1  -1   2    0.10    1.90
   2  -1   2    0.30    2.40
  -1   2   2   -0.90    1.90
   2  -1   2   -2.50    2.20
  -1   2   2   -0.20    2.80
  -1  -1   2   -2.80    2.80
   2  -1   2    1.80    3.00
  -1  -1   2   -2.30    2.40
  -1   2   2    2.70    2.50
  -2   0   2  237.68    8.80
   2  -2   2  225.38    8.80
   2  -2   2  227.98    8.80
  -2   0   2  211.28    8.80
  -2   0   2  229.38    8.10
   0   2   2  230.68    8.70
   0   2   2  227.58    8.50
   0   2   2  223.78    8.80
   2  -2   2  224.78    8.30
  -3   3   2    7.50    3.50
   3   0   2    7.20    3.40
   0  -3   2    3.50    2.30
   0  -3   2    0.70    3.20
  -3   3   2    2.70    1.30
   3   0   2    3.70    2.00
   0  -3   2    1.90    1.90
   3   0   2    1.00    2.50
  -3   3   2    5.10    2.90
   2   1   2   49.90    3.50
   1  -3   2   47.80    3.30
  -3   2   2   48.00    2.70
   1  -3   2   40.00    4.40
   2   1   2   44.60    3.90
   1  -3   2   51.49    3.90
   2   1   2   46.00    4.60
  -3   2   2   41.00    4.10
   3  -1   2   48.00    3.80
  -2   3   2   47.20    4.00
  -1  -2   2   50.39    4.60
  -2   3   2   52.89    3.30
  -1  -2   2   53.69    3.60
   3  -1   2   53.09    3.60
   3  -1   2   55.69    4.50
  -2   3   2   59.39    4.70
  -1  -2   2   55.79    3.70
   1   2   2  332.67   11.60
   2  -3   2  328.37   12.10
  -3   1   2  334.27   11.20
   2  -3   2  339.67   12.00
  -3   1   2  344.37   12.20
   2  -3   2  333.47   11.40
   1   2   2  333.67   12.00
  -1   3   2  326.37   12.10
  -1   3   2  324.37   11.80
   3  -2   2  343.37   11.70
   3  -1  -2  332.47   12.00
   3  -2   2  335.97   11.70
  -2  -1   2  327.37   12.20
   3  -2   2  352.56   12.30
  -2  -1   2  333.07   11.50
   3  -3   2    2.70    2.70
   3  -3   2    0.10    2.00
   0   3   2   -0.20    2.40
   3   0  -2    1.20    2.50
   0   3   2    3.60    2.90
   3  -3   2   -1.80    2.90
  -3   0   2   -0.30    1.80
   0  -3  -2    1.00    2.10
  -3   0   2    1.60    2.80
  -4   4   2  116.59    5.90
   0  -4   2  120.09    5.60
   0  -4   2  116.69    4.80
   4   0   2  123.29    4.90
   4  -4  -2  111.19    6.10
   0  -4   2  118.59    6.90
   4   0   2  110.69    5.70
   3   1   2  115.99    5.80
   1  -4   2  116.09    5.60
   1  -4   2  116.89    4.80
   1  -4   2  121.39    6.90
   3  -4  -2  119.19    4.20
   3   1   2  119.89    5.00
  -4   3   2  118.19    4.30
  -4   3   2  119.39    6.00
   4  -1   2  115.59    5.00
  -3   4   2  127.59    6.50
  -1  -3   2  121.39    5.50
   4  -3  -2  117.79    6.00
  -3  -1  -2  116.99    5.90
  -3   4   2  119.59    5.90
   4  -1   2  114.29    6.70
   4  -1   2  115.29    5.90
  -1  -3   2  121.89    6.60
   2   2  -2   54.89    3.30
  -4   2   2   56.49    4.30
   2   2   2   53.79    3.40
  -4   2   2   49.80    2.70
   2   2   2   50.59    4.20
   2  -4  -2   49.20    2.80
   2  -4   2   52.69    5.00
   2  -4   2   48.80    3.10
   2  -4   2   47.70    4.20
  -2   4   2   46.90    5.00
   4  -2   2   47.90    4.10
  -2   4   2   48.60    4.10
  -2  -2   2   47.50    4.70
   4  -2  -2   46.60    4.10
   4  -2   2   45.20    3.40
  -2  -2  -2   45.10    3.80
   4  -2   2   51.49    4.80
  -2  -2   2   47.00    3.40
   3   1  -2  669.13   22.30
   3  -4   2  679.03   22.80
   1  -4  -2  684.13   22.00
   1   3   2  681.53   22.80
   1   3   2  675.63   22.40
  -4   1   2  689.43   22.90
  -4   1   2  675.73   22.00
   3  -4   2  684.33   23.20
   3  -4   2  679.23   22.20
  -1   4   2  676.03   22.70
   4  -3   2  696.63   22.50
  -3  -1   2  709.93   23.10
   4  -3   2  706.73   22.80
  -1  -3  -2  692.13   22.50
   4  -1  -2  733.23   22.70
  -1   4   2  695.83   22.90
   4  -3   2  703.23   23.10
  -3  -1   2  682.63   22.30
   4  -4   2 1045.80   33.70
   0   4   2 1081.39   34.20
  -4   0   2 1086.09   34.30
   4  -4   2 1051.09   34.40
   4  -4   2 1122.19   34.40
   0   4   2  992.30   33.70
   4   0  -2 1030.70   33.70
  -4   0   2 1044.00   33.50
   0  -4  -2 1069.49   33.50
   5  -5  -2   15.10    3.60
  -5   0  -2   16.80    3.60
   0  -5   2   20.20    3.50
   5   0   2   14.70    2.10
   5   0   2   20.40    3.30
   0  -5   2   22.70    4.80
  -5   5   2   16.60    3.50
   1   4  -2   22.40    2.40
   1  -5   2   22.20    3.50
   1  -5   2   27.70    5.20
   1  -5   2   20.80    2.20
   4   1   2   18.10    2.30
  -5   4   2   20.60    1.40
   4  -5  -2   24.70    4.00
  -5   4   2   19.70    3.60
   4   1   2   23.00    3.70
   5  -4  -2   25.90    3.80
  -1  -4   2   29.90    4.60
  -4  -1  -2   23.40    3.50
   5  -1   2   21.80    3.60
  -1  -4   2   23.60    3.40
   5  -1   2   25.80    4.60
   5  -1   2   21.00    2.50
  -4   5   2   22.90    3.70
   2  -5   2  274.47   11.40
   3   2   2  265.17    9.60
   3   2   2  271.17   10.30
   2  -5   2  275.47   10.40
   2   3  -2  276.27    9.50
   3  -5  -2  262.17    8.90
  -5   3   2  279.47   10.50
  -5   3   2  261.87    9.10
   2  -5   2  270.27    9.30
   5  -2   2  280.17    9.70
  -3  -2  -2  282.07   10.30
   5  -3  -2  284.17   10.50
  -2  -3   2  278.47   10.30
   5  -2   2  271.57   11.20
  -3   5   2  277.57   10.80
  -2  -3   2  285.07   11.00
  -3   5   2  271.47   10.40
   5  -2   2  277.97   10.20
   3  -5   2  891.61   27.90
   2   3   2  915.11   28.70
   3   2  -2  860.21   27.90
   2  -5  -2  859.81   27.60
  -5   2   2  897.21   28.80
   2   3   2  849.81   28.00
  -5   2   2  837.52   27.70
   3  -5   2  902.01   28.70
  -2   5   2  846.52   28.50
  -3  -2   2  900.71   29.00
   5  -3   2  855.91   28.30
   5  -3   2  882.71   28.40
   5  -2  -2  855.11   28.50
  -3  -2   2  875.71   28.30
  -2  -3  -2  914.11   28.50
   5  -3   2  889.41   29.00
  -2   5   2  889.11   28.90
   1   4   2   37.90    4.10
  -5   4  -2   42.40    3.30
  -5   1   2   42.00    3.10
   4   1  -2   41.40    3.80
   1  -5  -2   35.20    3.00
   1   4   2   38.00    3.30
  -5   1   2   37.90    4.20
   4  -5   2   41.30    4.30
   4  -5   2   42.30    3.20
  -4   5  -2   34.50    4.00
  -1   5   2   32.30    4.20
  -1  -4  -2   30.80    3.60
   5  -4   2   32.60    3.30
  -4  -1   2   31.50    4.40
   5  -1  -2   34.00    4.10
  -4  -1   2   38.80    3.50
  -1   5   2   34.80    4.20
   5  -4   2   34.10    4.60
  -5   5  -2 1832.72   58.89
  -5   0   2 1875.01   58.79
   5  -5   2 1829.32   58.79
   0  -5  -2 1873.31   58.69
   5   0  -2 1870.81   58.99
  -5   0   2 1916.61   59.59
   5  -5   2 1927.91   59.59
   0   5   2 1893.21   59.09
   0   5   2 1875.41   59.29
   0   6  -2  145.49    5.30
  -6   6   2  165.88    7.50
   6   0   2  173.48    7.40
   6  -6  -2  167.88    7.70
   6   0   2  166.38    5.70
   0  -6   2  152.38    7.80
   5  -6  -2  155.48    8.40
   1  -6   2  158.28    5.50
   1  -6   2  153.68    7.20
   1   5  -2  150.38    5.60
  -6   5   2  157.88    7.70
   5   1   2  159.08    5.80
  -1  -5   2  160.38    9.80
  -5   6   2  156.58    8.20
   6  -5  -2  159.78    7.60
   6  -1   2  157.78    7.20
  -1  -5   2  171.38    7.10
   6  -1   2  159.08    5.70
  -5  -1  -2  166.48    7.50
   4   2   2  165.18    6.40
   4   2   2  171.18    7.70
   2  -6   2  176.98    7.30
   2  -6   2  169.58    6.10
   2   4  -2  156.68    6.20
  -6   4   2  162.48    5.80
  -6   4   2  160.58    7.50
   6  -2   2  180.88    7.70
  -2  -4   2  176.68    7.20
  -2  -4   2  172.28    8.60
  -4   6   2  166.88    7.50
  -4  -2  -2  176.78    7.70
   6  -2   2  163.68    6.50
  -2   6  -2  173.48    7.80
   6  -2   2  171.28    8.70
   6  -4  -2  172.48    8.00
  -6   3  -2   24.70    2.60
   3  -6  -2   13.50    2.00
   3   3   2   17.70    2.80
   3  -6   2   20.80    2.50
   3   3   2   21.20    3.50
   3  -6   2   19.90    3.50
   3   3  -2   18.90    2.50
  -6   3   2   21.30    3.60
  -6   3   2   16.10    2.40
   6  -3   2   23.80    3.30
   6  -3   2   20.00    4.40
  -3   6  -2   21.60    3.50
  -3  -3   2   25.60    4.40
   6  -3  -2   24.40    3.80
  -3  -3  -2   26.40    3.90
  -3  -3   2   26.90    3.50
  -3   6   2   28.50    4.50
  -3   6   2   22.40    3.30
   2  -6  -2 1472.25   46.30
   4   2  -2 1456.35   46.60
  -6   2   2 1480.55   47.40
  -6   2   2 1490.85   46.50
   4  -6   2 1443.96   46.50
  -6   4  -2 1494.35   46.60
   2   4   2 1463.45   47.20
   2   4   2 1462.05   46.80
   4  -6   2 1496.55   47.40
   6  -2  -2 1484.15   47.10
  -4  -2   2 1510.45   47.60
  -2   6   2 1453.75   47.40
  -4  -2   2 1475.35   47.00
  -2  -4  -2 1499.05   47.00
   6  -4   2 1469.35   47.00
   6  -4   2 1521.15   47.80
  -2   6   2 1541.85   47.30
  -4   6  -2 1470.95   47.10
  -6   5  -2 2140.99   66.89
  -6   1   2 2272.47   67.69
   5  -6   2 2112.09   66.79
   1  -6  -2 2215.58   66.79
   5   1  -2 2132.19   66.99
   1   5   2 2109.59   67.09
   1   5   2 2165.08   67.39
  -6   1   2 2175.48   66.89
   5  -6   2 2069.09   68.49
   6  -1  -2 2165.58   67.29
  -1   6   2 2168.18   67.49
  -1  -5  -2 2168.08   67.09
   6  -5   2 1885.61   68.49
  -5   6  -2 2175.68   67.29
  -1   6   2 2149.98   67.29
  -5  -1   2 2146.59   67.09
   6  -5   2 2109.69   67.09
  -5  -1   2 2155.28   67.69
   0   6   2    2.90    2.70
   0  -6  -2   -0.90    2.50
   6   0  -2    5.60    2.70
  -6   6  -2    3.30    2.60
  -6   0   2    3.10    2.60
   6  -6   2    1.80    2.40
   6  -6   2    5.50    3.30
  -6   0   2    0.10    3.30
   0  -7   2    7.60    3.10
  -7   7   2    4.60    3.40
   7   0   2    4.10    3.20
   0   7  -2    1.40    3.80
   7  -7  -2    7.20    3.90
  -7   0  -2    3.30    3.80
  -7   6   2  139.29    7.20
   6   1   2  145.49    7.00
   1  -7   2  151.38    7.00
  -7   1  -2  152.78    7.60
   6   1   2  141.29    5.30
   6  -7  -2  140.59    7.50
  -1  -6   2  145.29    9.00
  -6  -1  -2  146.79    7.60
   7  -6  -2  151.88    7.50
  -6   7   2  152.98    7.30
  -1   7  -2  143.39    7.40
   7  -1   2  149.69    7.10
  -1  -6   2  147.79    7.00
  -7   2  -2  155.18    5.60
   5   2   2  156.98    7.30
   5   2   2  156.38    6.10
   5  -7  -2  164.38    7.80
   2  -7   2  168.18    7.40
  -7   5   2  163.68    5.70
   2   5  -2  158.38    5.90
  -7   5   2  161.88    7.50
   2  -7   2  166.28    5.60
   7  -5  -2  167.18    7.70
  -2  -5   2  177.18    9.70
   7  -2   2  164.78    7.30
  -2   7  -2  151.58    8.30
  -2  -5   2  143.29    9.80
  -5  -2  -2  177.38    8.30
  -5   7   2  167.48    7.70
   4   3   2  649.83   22.10
   3  -7   2  693.13   21.90
   3   4  -2  687.03   22.10
   4  -7  -2  649.34   21.50
  -7   4   2  705.23   22.00
  -7   3  -2  651.23   21.80
   3  -7   2  701.33   23.10
   4   3   2  688.73   23.10
   7  -3   2  723.43   24.10
   7  -3   2  696.73   25.50
  -3  -4   2  695.43   24.00
  -4   7   2  698.93   23.30
  -3   7  -2  694.03   23.30
  -3  -4   2  703.83   23.00
  -4  -3  -2  696.73   23.10
   4   3  -2 1397.86   43.70
   4  -7   2 1457.05   44.60
  -7   3   2 1451.35   43.60
  -7   4  -2 1359.26   43.40
   3   4   2 1334.37   43.80
   4  -7   2 1322.57   43.40
   3  -7  -2 1327.07   43.20
   7  -4   2 1412.16   44.20
  -4  -3   2 1417.86   44.30
   7  -4   2 1467.55   45.20
   7  -3  -2 1424.06   44.40
  -3   7   2 1247.18   45.30
  -4   7  -2 1421.16   44.60
  -4  -3   2 1315.77   45.50
  -3  -4  -2 1432.06   44.30
   5   2  -2   12.00    2.90
  -7   5  -2    4.70    2.40
   5  -7   2    5.80    3.30
   2   5   2   10.80    2.90
   5  -7   2    8.60    2.40
   2  -7  -2    7.30    2.20
   2   5   2    4.00    3.60
  -7   2   2   11.00    2.70
  -5  -2   2   15.50    3.00
   7  -5   2    8.80    4.00
  -2   7   2   13.70    3.80
   7  -2  -2    9.10    3.30
  -2  -5  -2    6.70    3.30
  -5  -2   2    4.80    4.00
   7  -5   2   11.40    3.30
  -2   7   2    4.90    3.90
  -5   7  -2   11.30    3.20
  -7   1   2 2840.92   86.59
  -7   1   2 2420.46   87.69
   6  -7   2 2675.83   86.39
   1   6   2 2822.22   86.89
   1   6   2 2835.72   86.99
  -7   6  -2 2699.93   86.49
   1  -7  -2 2757.82   86.29
   6  -7   2 2899.31   87.49
   6   1  -2 2775.82   86.59
  -6   7  -2 2781.22   86.89
  -6  -1   2 2765.42   87.29
  -1   7   2 2784.32   86.99
   7  -6   2 2842.52   87.49
  -1   7   2 2800.62   87.09
   7  -1  -2 2808.62   86.89
   7  -6   2 2720.23   86.69
  -1  -6  -2 2772.72   86.69
  -6  -1   2 2944.11   86.89
  -7   0   2 3879.81  116.49
   0   7   2 3754.62  116.79
   7  -7   2 3622.54  116.29
   7   0  -2 3684.23  116.49
   7  -7   2 3816.72  117.19
  -7   7  -2 3531.45  116.29
  -7   0   2 3729.13  116.89
   0   7   2 3894.41  116.79
   0  -7  -2 3762.02  116.19
  -8   0  -2  254.47   11.00
   0  -8   2  252.17   10.30
   8   0   2  247.78   10.40
  -8   8   2  243.68   10.60
   0   8  -2  252.17   10.90
   8  -8  -2  245.78   11.10
  -8   7   2  120.89    7.00
   1  -8   2  135.59    6.80
   7   1   2  125.19    6.90
   7  -8  -2  122.79    7.30
  -8   7   2  135.99    4.80
   7   1   2  122.09    4.60
   1   7  -2  119.89    7.40
  -8   1  -2  122.99    7.30
  -1  -7   2  121.59    6.80
   8  -1   2  125.89    6.80
   8  -7  -2  126.59    7.20
  -7   8   2  128.39    7.10
  -7  -1  -2  127.29    7.60
  -1   8  -2  124.59    7.40
  -8   2  -2  244.38   10.60
   6   2   2  244.58   10.10
   6  -8  -2  242.38   10.40
   2   6  -2  219.28    8.10
  -8   6   2  251.67    8.40
   6   2   2  236.98    8.50
  -8   6   2  257.47   10.20
   2  -8   2  251.97   10.20
  -2   8  -2  250.37   10.50
  -6   8   2  251.57   10.50
  -2  -6   2  258.27   12.10
   8  -2   2  261.57   10.20
  -6  -2  -2  246.28   10.50
  -2  -6   2  255.17   10.10
   8  -6  -2  264.47   11.00
  -8   3  -2  500.65   16.90
   5   3   2  532.15   17.60
   5   3   2  550.24   18.70
   5  -8  -2  525.75   18.80
   3   5  -2  515.25   17.30
   3  -8   2  543.75   18.70
  -8   5   2  533.15   18.70
   5  -8  -2  503.95   16.80
  -8   5   2  555.04   17.50
   3  -8   2  533.85   17.10
  -5  -3  -2  556.14   18.90
  -3  -5   2  546.85   20.00
  -3   8  -2  549.95   19.00
   8  -3   2  553.44   20.00
   8  -5  -2  535.55   18.90
  -5   8   2  548.25   19.00
   8  -3   2  531.15   18.60
  -3  -5   2  547.85   18.60
   4   4   2  247.98    9.30
   4  -8   2  249.58   10.30
   4   4  -2  250.87    9.20
  -8   4   2  248.68   10.30
  -8   4  -2  239.18    8.70
   4  -8   2  238.28    8.70
  -8   4   2  257.97    9.20
   4  -8  -2  238.28    8.40
   4   4   2  246.98   10.00
  -4  -4   2  255.67   11.30
   8  -4  -2  261.07   10.60
  -4  -4  -2  239.28   10.30
  -4   8  -2  249.78   10.50
   8  -4   2  271.27   11.70
  -4   8   2  257.77   10.40
   8  -4   2  261.77   10.10
  -4  -4   2  266.27   10.10
   5   3  -2 1621.04   50.29
   3   5   2 1635.94   50.69
  -8   3   2 1640.04   51.29
   5  -8   2 1601.24   51.19
  -8   5  -2 1487.75   49.99
  -8   3   2 1630.14   50.39
   3   5   2 1620.74   50.99
   3  -8  -2 1552.04   49.90
   5  -8   2 1554.74   50.09
  -5   8  -2 1565.84   51.19
   8  -5   2 1604.24   51.79
  -3   8   2 1635.94   51.29
  -5  -3   2 1630.44   51.69
  -3  -5  -2 1611.84   50.89
   8  -3  -2 1598.34   50.99
  -3   8   2 1627.64   51.39
   8  -5   2 1541.85   50.79
  -8   2   2 3325.87   99.29
   2  -8  -2 3106.49   98.69
   6   2  -2 3241.48   99.19
  -8   6  -2 3104.09   98.89
   2   6   2 3175.58   99.59
   6  -8   2 3206.48   99.89
   6  -8   2 3099.89   98.89
  -8   2   2 3296.37   99.89
   2   6   2 3273.27   99.49
  -6  -2   2 3235.98   99.59
  -6  -2   2 3178.58  100.09
  -2   8   2 3199.48   99.89
  -2   8   2 3254.67   99.79
  -6   8  -2 3158.98   99.59
  -2  -6  -2 3160.88   99.39
   8  -6   2 2929.71  101.49
   8  -6   2 3163.18  100.19
   7   1  -2  332.27   12.30
   1   7   2  336.47   12.90
   7  -8   2  326.27   12.00
  -8   1   2  348.37   12.40
   1   7   2  327.27   12.70
  -8   1   2  325.07   12.80
  -8   7  -2  322.07   12.00
   1  -8  -2  331.57   11.80
   7  -8   2  338.27   12.90
  -7  -1   2  301.87   12.80
   8  -7   2  321.57   13.10
  -7   8  -2  319.57   12.40
  -7  -1   2  327.27   12.30
   8  -7   2  327.27   12.40
   8  -1  -2  303.57   13.80
  -1  -7  -2  312.57   12.20
  -1   8   2  338.47   12.80
  -1   8   2  320.27   12.70
  -8   0   2 1129.49   35.70
   0   8   2 1065.29   35.70
   8   0  -2 1093.09   35.60
  -8   0   2 1069.29   35.90
  -8   8  -2 1057.99   35.30
   0  -8  -2 1080.69   35.20
   8  -8   2 1092.49   35.40
   8  -8   2 1135.69   36.30
   0   8   2 1084.69   35.80
   0  -9   2  353.76   13.50
  -9   0  -2  356.86   14.30
  -9   9   2  346.87   13.70
   9  -9  -2  349.67   14.00
   9   0   2  351.16   13.50
   0   9  -2  350.26   14.10
   8   1   2   25.90    4.50
   8   1   2   31.70    1.90
  -9   8   2   32.40    5.00
  -9   1  -2   28.50    5.20
   8  -9  -2   29.30    5.00
   1  -9   2   27.10    4.60
   1   8  -2   29.80    5.60
   9  -8  -2   33.80    5.60
  -1   9  -2   33.70    5.80
  -8   9   2   22.90    4.60
   9  -1   2   28.40    4.60
  -1  -8   2   26.90    4.60
  -8  -1  -2   21.20    5.00
   2  -9   2  212.58    9.10
   2   7  -2  198.28    9.90
  -9   7   2  204.68    9.10
   7  -9  -2  210.88    9.70
  -9   2  -2  204.78    9.60
   7   2   2  190.28    7.10
   7   2   2  199.68    9.00
  -9   7   2  197.58    7.40
  -7  -2  -2  205.78    9.70
  -2   9  -2  203.98    9.60
   9  -7  -2  211.78   10.30
   9  -2   2  210.48    9.20
  -2  -7   2  206.58    9.00
  -7   9   2  213.38    9.50
   6   3   2  121.49    6.60
   6   3   2  112.39    5.10
   3   6  -2  115.49    4.50
  -9   3  -2  116.99    7.40
   3  -9   2  116.89    6.60
   6  -9  -2  112.69    7.10
   3  -9   2  116.59    4.30
   6  -9  -2  108.59    4.20
  -9   6   2  115.29    5.40
  -9   6   2  107.49    6.70
   9  -6  -2  118.89    7.50
  -3   9  -2  122.39    8.00
  -3  -6   2  138.39    9.10
  -3  -6   2  120.39    6.60
   9  -3   2  115.89    6.80
  -6  -3  -2  112.69    7.30
  -6   9   2  118.29    7.30
   5  -9  -2  617.24   20.90
  -9   4  -2  557.64   18.80
   5   4   2  596.44   20.60
   5  -9  -2  588.64   18.90
   4   5  -2  596.74   19.30
  -9   5   2  601.04   19.70
   4  -9   2  614.74   20.70
   4  -9   2  566.84   19.10
  -9   5   2  610.84   20.80
   5   4   2  596.54   19.70
   9  -5  -2  598.14   21.10
  -4  -5   2  602.04   20.60
  -5   9   2  592.14   20.80
  -4  -5   2  600.64   21.90
  -5  -4  -2  602.24   20.80
   9  -4   2  592.44   21.90
   9  -4   2  590.04   20.60
  -4   9  -2  595.94   21.00
   4   5   2 1463.85   46.10
   5  -9   2 1478.55   46.40
   5  -9   2 1353.66   45.00
   4  -9  -2 1338.97   44.80
  -9   5  -2 1406.56   44.90
   4   5   2 1492.45   45.70
   5   4  -2 1456.75   45.30
  -9   4   2 1425.46   46.20
  -9   4   2 1455.95   45.50
   9  -5   2 1461.05   47.30
  -5  -4   2 1402.26   46.00
   9  -5   2 1405.86   46.00
  -5   9  -2 1459.65   46.50
  -4   9   2 1438.16   46.30
   9  -4  -2 1431.16   46.20
  -5  -4   2 1488.65   47.20
  -4  -5  -2 1410.36   46.10
  -9   3   2  284.57   10.60
   6  -9   2  263.77   10.10
   6   3  -2  284.97   10.60
   3   6   2  276.97   10.80
  -9   6  -2  265.97   10.00
  -9   3   2  270.07   11.40
   3  -9  -2  270.97    9.80
   6  -9   2  294.87   11.40
   3   6   2  269.87   10.90
  -6  -3   2  262.37   11.80
  -3   9   2  273.47   11.60
  -3  -6  -2  251.77   11.00
   9  -6   2  279.57   11.30
   9  -3  -2  276.27   11.20
   9  -6   2  262.27   12.00
  -3   9   2  287.67   11.60
  -6  -3   2  269.57   11.20
  -6   9  -2  263.37   11.00
  -9   2   2  936.01   30.10
   2  -9  -2  889.01   29.50
  -9   2   2  884.21   30.40
   7  -9   2  925.51   30.70
   7   2  -2  907.01   29.90
   2   7   2  983.50   30.60
   7  -9   2  901.41   29.70
   2   7   2  889.11   30.20
  -9   7  -2  897.61   29.70
  -2   9   2  919.81   30.60
  -2   9   2  940.01   30.70
  -7  -2   2  923.81   31.00
   9  -2  -2  889.61   30.40
   9  -7   2  930.51   30.40
   9  -7   2  924.11   31.10
  -7  -2   2  930.61   30.30
  -2  -7  -2  868.31   30.20
  -9   1   2 1814.82   56.79
   8  -9   2 1788.22   57.39
  -9   1   2 1781.52   57.19
   1   8   2 1807.82   57.09
   8  -9   2 1787.02   56.59
   8   1  -2 1765.72   56.69
  -9   8  -2 1757.12   56.49
   1  -9  -2 1741.63   56.29
   1   8   2 1776.42   56.89
  -1   9   2 1768.42   57.09
   9  -8   2 1752.92   56.79
   9  -1  -2 1798.62   56.99
  -8   9  -2 1733.73   56.79
   9  -8   2 1804.12   57.69
  -1   9   2 1840.62   57.39
  -8  -1   2 1784.52   56.89
  -8  -1   2 1812.32   57.49
  -1  -8  -2 1786.52   56.69
  -9   0   2  158.78    8.30
   0   9   2  152.88    9.00
   0   9   2  152.58    8.00
   9  -9   2  153.78    7.90
   0  -9  -2  153.78    7.60
  -9   9  -2  158.28    8.00
   9   0  -2  165.68    8.60
   9  -9   2  141.69    8.60
  -9   0   2  144.99    8.10
  10   0   2   81.89    6.50
 -10  10   2   84.59    4.70
  10 -10  -2   86.09    7.50
 -10  10   2   84.39    6.70
 -10   0  -2   83.39    7.60
   0 -10   2   97.19    6.40
   0  10  -2   85.59    7.50
   1   9  -2  602.94   21.80
   9   1   2  616.34   21.30
   1 -10   2  618.74   21.30
 -10   9   2  607.04   21.40
 -10   9   2  563.04   19.40
   9 -10  -2  617.84   21.80
 -10   1  -2  599.04   21.90
  10  -9  -2  636.14   22.10
  10  -1   2  597.24   21.20
  -9  -1  -2  629.24   21.90
  -9  10   2  595.44   21.40
  -1  -9   2  609.24   21.30
  -1  10  -2  593.64   21.90
 -10   8   2  245.58    9.20
 -10   2  -2  261.27   11.40
 -10   8   2  258.77   11.00
   8   2   2  256.87   10.80
   8 -10  -2  251.77   11.20
   8   2   2  234.98    8.60
   2 -10   2  263.87   10.80
   2   8  -2  248.08   11.30
  -2  10  -2  274.17   11.60
  -8  -2  -2  263.57   11.60
  -2  -8   2  267.77   10.80
  -8  10   2  260.47   11.10
  10  -2   2  253.17   10.80
  10  -8  -2  268.87   11.60
   7   3   2   41.80    3.20
 -10   7   2   36.80    4.90
   3   7  -2   35.10    2.10
   3   7  -2   36.60    5.70
 -10   7   2   29.20    3.80
   7 -10  -2   37.60    2.50
   7 -10  -2   32.30    5.70
 -10   3  -2   32.70    5.70
   7   3   2   30.50    4.80
   3 -10   2   38.40    4.70
  10  -3   2   31.30    5.30
  -3  10  -2   32.60    5.90
  -7  -3  -2   26.40    5.20
  -7  10   2   30.40    5.60
  10  -7  -2   33.40    5.80
  -3  -7   2   29.50    4.80
 -10   6   2  227.98    9.80
   6 -10  -2  209.08    7.60
   4 -10   2  219.08    9.50
   4 -10   2  217.78    7.70
   4   6  -2  212.28    7.80
   6 -10  -2  226.48   10.00
   6   4   2  225.18    9.60
   6   4   2  230.48    8.60
 -10   6   2  210.08    8.60
  10  -4   2  230.08   10.00
  -6  -4  -2  224.48   10.10
  -4  10  -2  222.88   10.20
  -4  -6   2  224.08   11.80
  -4  -6   2  220.98    9.60
  10  -6  -2  203.98   10.20
  -6  10   2  213.48   10.00
   5 -10  -2   61.39    6.20
   5 -10   2   67.59    3.80
   5 -10  -2   63.29    3.50
   5   5  -2   63.99    4.30
   5   5   2   72.79    5.10
   5 -10   2   56.59    5.50
 -10   5  -2   59.89    3.40
 -10   5   2   70.19    5.10
   5   5   2   67.19    6.00
 -10   5   2   61.69    5.50
  -5  10   2   57.09    6.10
  -5  10  -2   73.99    6.20
  10  -5  -2   83.39    7.60
  -5  -5   2   71.39    5.60
  -5  -5   2   58.79    7.50
  10  -5   2   72.79    5.80
  10  -5   2   57.69    7.30
  -5  -5  -2   59.39    6.00
   6 -10   2  339.37   13.60
   4   6   2  341.77   13.30
   6 -10   2  337.87   12.40
 -10   4   2  345.07   13.10
 -10   6  -2  343.57   12.10
   4   6   2  367.66   13.40
   6   4  -2  343.47   12.60
 -10   4   2  334.27   13.40
   4 -10  -2  326.87   12.00
  -6  -4   2  370.56   14.80
  -6  -4   2  377.76   13.60
  10  -6   2  363.16   13.60
  10  -4  -2  366.06   13.90
  10  -6   2  338.67   14.90
  -4  10   2  380.26   14.20
  -6  10  -2  354.96   13.80
  -4  -6  -2  353.76   13.60
   7   3  -2 1156.98   38.00
 -10   3   2 1209.48   38.90
   3   7   2 1160.38   38.60
 -10   7  -2 1150.98   37.70
 -10   3   2 1200.18   38.30
   7 -10   2 1164.78   37.90
   7 -10   2 1186.88   38.90
   3 -10  -2 1174.18   37.70
   3   7   2 1190.48   38.60
  -3  10   2 1189.58   39.10
  -7  10  -2 1164.78   38.80
  -7  -3   2 1216.68   38.70
  10  -7   2 1184.68   39.60
  10  -7   2 1178.68   38.60
  -3  -7  -2 1224.38   38.80
  10  -3  -2 1156.08   38.70
  -3  10   2 1183.58   39.00
  -7  -3   2 1188.88   39.40
 -10   2   2  113.69    7.20
   8 -10   2  116.79    6.80
   8   2  -2  110.49    6.70
   2 -10  -2  111.99    6.20
 -10   8  -2  113.89    6.40
   2   8   2  109.49    7.10
   2   8   2  104.99    6.80
   8 -10   2  111.49    7.50
 -10   2   2  121.19    7.00
  10  -8   2  114.09    7.90
  -2  10   2  111.59    8.30
  10  -8   2  116.59    7.00
  -8  10  -2  107.19    7.00
  -8  -2   2  114.49    6.90
  10  -2  -2  112.39    7.40
  -8  -2   2  118.29    8.40
  -2  10   2  109.59    7.40
  -2  -8  -2  115.19    6.80
   1 -10  -2  481.55   17.10
 -10   9  -2  482.75   17.50
   9 -10   2  421.76   18.40
 -10   1   2  492.65   17.70
 -10   1   2  499.85   18.00
   9 -10   2  489.05   18.30
   9   1  -2  481.65   17.70
   1   9   2  468.55   17.60
   1   9   2  499.45   18.30
  10  -1  -2  508.05   18.20
  -9  -1   2  485.15   18.30
  10  -9   2  495.55   17.90
  -9  10  -2  497.85   17.90
  -1  10   2  496.15   18.60
  -1  10   2  493.95   17.90
  -1  -9  -2  489.65   17.70
  -9  -1   2  504.15   17.90
  10  -9   2  508.45   18.80
 -10   0   2  707.03   24.40
  10 -10   2  702.93   24.50
   0  10   2  674.63   24.10
 -10   0   2  719.53   24.00
   0 -10  -2  678.73   23.30
 -10  10  -2  589.74   24.10
   0  10   2  681.23   23.80
  10   0  -2  695.73   24.00
  10 -10   2  716.73   24.00
   0 -11   2  806.92   27.10
   0  11  -2  771.22   27.70
 -11  11   2  733.93   25.10
  11   0   2  777.82   26.90
  11 -11  -2  792.82   27.60
 -11  11   2  775.12   27.20
 -11   0  -2  850.51   28.00
 -11  10   2  228.78    8.60
 -11   1  -2  242.98   11.80
 -11  10   2  245.38   11.40
   1 -11   2  234.58   10.60
   1  10  -2  239.58   11.50
  10   1   2  240.68   10.70
  10 -11  -2  235.78   11.30
  -1 -10   2  236.68   10.60
  11 -10  -2  229.68   11.40
 -10  11   2  229.98   11.00
  -1  11  -2  236.18   11.70
 -10  -1  -2  253.87   11.80
  11  -1   2  238.98   10.70
   2 -11   2  119.19    7.00
   2   9  -2  101.39    7.90
 -11   2  -2  118.09    8.20
   9   2   2  107.89    7.10
   9   2   2  121.89    4.80
 -11   9   2   93.19    5.40
   9 -11  -2  103.19    8.30
 -11   9   2   94.79    7.10
  11  -9  -2  118.29    8.30
  -2  -9   2  120.59    7.20
  -9  -2  -2  116.89    8.40
  11  -2   2  115.89    7.40
  -2  11  -2  108.39    8.10
  -9  11   2  107.39    7.60
   3   8  -2  198.78   10.00
 -11   8   2  193.48    8.30
 -11   3  -2  182.18    9.90
   8   3   2  197.38    9.20
   8 -11  -2  194.18    7.30
 -11   8   2  207.48    9.50
   3 -11   2  196.38    9.30
   8   3   2  203.28    7.50
   8 -11  -2  207.68   10.00
  11  -3   2  199.68   10.00
  -8  11   2  207.28   10.10
  -3  -8   2  201.38    9.40
  -3  11  -2  200.98   10.30
  -8  -3  -2  214.78   10.50
  11  -8  -2  211.38   10.30
   7   4   2  128.79    7.30
 -11   4  -2  126.69    8.30
   4   7  -2  126.99    5.20
   7 -11  -2  146.69    8.80
   7   4   2  141.29    6.30
   4 -11   2  138.39    7.50
 -11   7   2  129.19    7.60
   4 -11   2  128.49    5.00
   7 -11  -2  139.99    5.40
 -11   7   2  128.49    6.70
  11  -7  -2  135.79    8.60
  -7  -4  -2  138.09    8.50
  -4  -7   2  146.29    7.70
  11  -4   2  149.19    8.00
  -7  11   2  138.19    8.10
  -4  11  -2  137.39    8.40
 -11   6   2   30.10    5.10
   6 -11  -2   23.40    4.90
   5 -11   2   29.70    4.60
 -11   5  -2   26.90    2.00
   6 -11  -2   25.70    2.80
   6   5   2   21.40    4.30
 -11   6   2   25.40    3.80
   6   5   2   37.00    4.70
   5 -11   2   29.80    2.90
   5   6  -2   28.50    3.30
  -6  -5  -2   29.80    5.30
  -5  11  -2   31.10    5.40
  -5  -6   2   31.50    5.00
  -5  -6   2   32.40    7.40
  -6  11   2   28.60    5.40
  11  -6  -2   30.60    5.50
  11  -5   2   26.50    4.70
   5 -11  -2  174.38    9.20
 -11   5   2  188.08    8.70
   6 -11   2  185.08    7.60
   6   5  -2  185.68    7.80
 -11   6  -2  180.08    7.00
   5   6   2  184.48    8.80
 -11   5   2  189.98    9.00
   6 -11   2  188.78    9.10
   5   6   2  202.98    9.00
   5 -11  -2  183.18    7.30
  -5  -6  -2  196.78    9.50
  -6  -5   2  189.08   10.90
  11  -6   2  189.28    9.20
  -6  11  -2  192.28   10.00
  -5  11   2  188.48    9.70
  11  -5  -2  184.58    9.90
  -6  -5   2  194.18    9.10
  11  -6   2  189.28   10.80
   4 -11  -2   57.69    4.20
 -11   4   2   58.99    5.90
   7   4  -2   65.79    5.20
   7 -11   2   63.79    5.10
   7 -11   2   47.90    5.60
   4   7   2   72.39    6.60
   4   7   2   62.69    6.10
 -11   7  -2   61.49    4.40
 -11   4   2   61.49    6.30
  -7  -4   2   62.49    7.70
  -7  -4   2   65.89    6.00
  -7  11  -2   72.79    7.50
  11  -7   2   56.59    7.60
  -4  11   2   52.69    6.70
  11  -7   2   65.19    6.10
  -4  -7  -2   57.19    6.20
  11  -4  -2   68.19    6.80
 -11   8  -2  295.37   11.40
   3 -11  -2  293.37   11.10
 -11   3   2  290.27   12.10
   8 -11   2  304.47   11.70
   8 -11   2  281.47   12.40
 -11   3   2  294.17   12.50
   3   8   2  311.37   12.70
   8   3  -2  296.07   11.80
   3   8   2  292.17   12.00
  11  -3  -2  306.87   13.20
  -8  11  -2  297.77   12.50
  -3  -8  -2  295.17   12.20
  -8  -3   2  305.57   13.40
  11  -8   2  299.97   13.50
  -3  11   2  305.67   13.10
  11  -8   2  295.17   12.40
  -3  11   2  294.27   12.90
  -8  -3   2  313.47   12.70
   2 -11  -2  535.15   18.80
   9   2  -2  545.15   19.20
 -11   2   2  532.75   19.50
 -11   9  -2  516.55   18.80
   2   9   2  539.85   19.90
   2   9   2  548.15   19.50
 -11   2   2  551.34   20.00
   9 -11   2  561.14   20.20
  -2  11   2  537.85   19.90
  -9  -2   2  550.74   19.70
  11  -9   2  528.65   19.50
  -2  11   2  538.65   20.10
  -9  11  -2  548.05   19.90
  11  -9   2  534.15   20.40
  -9  -2   2  538.75   20.20
  -2  -9  -2  565.04   19.60
  11  -2  -2  548.15   20.10
  10 -11   2    6.80    4.70
 -11   1   2   11.40    4.70
   1  10   2   12.80    5.20
   1 -11  -2   18.50    4.20
 -11  10  -2   12.70    4.20
  10 -11   2   14.50    4.80
   1  10   2   12.00    4.50
 -11   1   2   15.40    5.20
  10   1  -2   19.00    4.80
 -10  -1   2    6.70    4.80
  -1  11   2   21.60    5.60
  11 -10   2   23.20    5.40
 -10  -1   2   15.10    5.00
  -1  11   2   13.50    5.20
  -1 -10  -2   14.00    4.50
  11 -10   2   12.90    5.30
  11  -1  -2   20.20    5.80
 -10  11  -2   18.50    5.10
 -11  11  -2  224.68   10.80
  11   0  -2  226.88   11.10
   0  11   2  244.18   11.40
 -11   0   2  252.47   11.50
  11 -11   2  232.68   11.60
  11 -11   2  238.18   11.00
   0 -11  -2  230.78   10.50
 -11   0   2  243.58   11.80
   0  11   2  235.18   12.20
 -12  12   2   45.20    7.00
  12 -12  -2   42.50    7.60
 -12   0  -2   42.60    7.50
   0  12  -2   45.90    8.10
   0 -12   2   56.39    6.50
 -12  12   2   60.99    4.30
  12   0   2   49.60    6.80
 -12  11   2  354.16   14.60
 -12  11   2  338.17   12.40
  11   1   2  360.96   14.80
   1  11  -2  383.76   15.50
 -12   1  -2  355.16   15.30
  11 -12  -2  344.27   15.00
   1 -12   2  360.26   14.30
 -11  12   2  354.46   14.70
 -11  -1  -2  373.46   15.50
  -1  12  -2  354.06   15.40
 -11  12   2  322.17   12.00
  12  -1   2  362.46   14.50
  -1 -11   2  358.56   14.40
  12 -11  -2  358.86   15.20
 -12   2  -2  690.23   24.70
 -12  10   2  665.03   24.00
   2 -12   2  673.93   23.80
   2  10  -2  688.83   24.70
  10 -12  -2  673.03   24.30
  10   2   2  685.33   24.00
 -12  10   2  671.33   22.40
  -2  12  -2  687.93   24.70
 -10  -2  -2  689.73   24.80
  -2 -10   2  676.73   24.00
  12 -10  -2  683.13   24.50
 -10  12   2  686.63   24.30
  12  -2   2  698.43   24.10
 -12   3  -2  106.09    8.60
 -12   9   2  111.19    7.50
   9   3   2  118.79    7.30
   3   9  -2  107.69    8.50
   9 -12  -2  111.69    8.10
   9   3   2  119.09    5.10
 -12   9   2   99.29    6.20
   3 -12   2  107.19    7.20
   9 -12  -2  106.89    5.20
  -9  -3  -2  127.99    8.90
  -3  12  -2  108.89    8.50
  12  -3   2  118.89    7.80
  -9  12   2  110.89    8.20
  -3  -9   2  115.59    7.40
  12  -9  -2  112.49    8.70
   8   4   2   86.89    7.20
   4   8  -2   78.79    3.90
   8 -12  -2   88.59    8.30
 -12   8   2   76.29    7.40
 -12   8   2   85.69    6.00
   4   8  -2   79.59    8.20
 -12   4  -2  102.09    7.80
   8   4   2   99.19    5.20
   8 -12  -2   89.39    4.60
   4 -12   2   89.89    6.60
  -8  -4  -2   92.69    7.90
  -4  -8   2   97.29    6.80
  12  -4   2   97.29    7.30
  -8  12   2   95.39    7.60
  12  -8  -2  103.99    8.30
  -4  12  -2   93.09    8.10
   7   5   2  146.99    7.90
   5 -12   2  142.29    5.80
 -12   7   2  128.19    7.40
   5 -12   2  152.58    8.00
   5   7  -2  134.79    5.90
   7   5   2  154.28    7.50
   7 -12  -2  146.39    6.00
 -12   5  -2  137.09    9.00
   5   7  -2  150.08    9.10
 -12   7   2  149.99    8.70
   7 -12  -2  154.18    8.60
  -7  12   2  147.19    8.90
  12  -7  -2  150.98    9.30
  -5  12  -2  145.59    9.20
  12  -5   2  145.99    8.40
  -7  -5  -2  154.08    9.00
  -5  -7   2  146.19    8.20
   6   6   2  186.78    9.30
 -12   6  -2  169.88    6.60
   6   6  -2  173.28    7.40
   6 -12   2  190.58    9.50
 -12   6   2  175.98    8.60
   6   6   2  197.88    9.00
   6 -12  -2  178.88    9.30
 -12   6   2  175.18    8.90
   6 -12  -2  171.98    7.20
   6 -12   2  181.48    7.40
  -6  12   2  184.58   10.60
  12  -6   2  181.78    9.40
  12  -6  -2  193.08   11.00
  -6  12  -2  186.78   10.10
  -6  -6   2  186.48   11.60
  -6  -6   2  182.58    9.20
  -6  -6  -2  192.18    9.70
   7 -12   2    7.90    4.10
   5   7   2   15.10    4.50
 -12   5   2    8.20    4.30
   5 -12  -2   10.90    2.80
   7   5  -2   17.70    3.50
 -12   7  -2   14.20    2.70
   7 -12   2   15.60    3.50
 -12   5   2    9.90    4.70
   5   7   2   19.20    4.60
   5 -12  -2   14.30    5.00
  12  -7   2   10.30    4.70
  -5  12   2   14.80    5.30
  -5  -7  -2   10.10    5.00
  12  -5  -2   12.40    5.40
  -7  -5   2    8.10    4.30
  -7  -5   2   10.30    6.30
  12  -7   2    8.10    5.70
  -7  12  -2   12.10    5.20
   4   8   2  113.39    7.20
   4 -12  -2  117.09    6.00
   8 -12   2  127.89    7.10
   4   8   2  130.69    8.20
   8   4  -2  117.09    6.80
 -12   4   2  107.89    7.80
 -12   8  -2  119.49    6.40
   8 -12   2  110.69    7.50
  -4  12   2  117.49    8.40
  -8  -4   2  109.69    7.60
  -8  -4   2  126.79    9.50
  12  -4  -2  107.09    8.30
  -4  -8  -2  113.19    8.50
  12  -8   2  116.59    9.40
  -8  12  -2  118.69    8.20
  12  -8   2  114.19    7.90
   9   3  -2    7.70    4.00
   9 -12   2    3.80    5.00
 -12   9  -2    7.60    3.70
   9 -12   2   15.60    4.50
 -12   3   2    4.90    5.00
 -12   3   2    6.50    4.60
   3   9   2    6.20    5.20
   3   9   2    5.70    4.60
   3 -12  -2    6.30    3.40
  -9  12  -2    8.30    5.50
  -3  12   2   12.00    4.90
  -3  12   2   -2.80    5.00
  -3  -9  -2   10.60    5.00
  12  -9   2    4.90    4.70
  12  -3  -2    2.70    5.70
  -9  -3   2    7.50    4.60
  -9  -3   2    4.60    6.10
  12  -9   2   -1.80    5.30
  10 -12   2  195.18   10.70
 -12   2   2  189.08    9.60
 -12  10  -2  178.68    9.30
  10 -12   2  195.68   10.10
  10   2  -2  180.98    9.60
   2  10   2  192.48    9.50
   2 -12  -2  189.78    8.80
   2  10   2  180.18   10.70
 -12   2   2  191.28   10.30
  12  -2  -2  189.88   10.30
 -10  -2   2  194.58    9.90
  -2  12   2  180.38   11.10
  -2 -10  -2  196.08    9.90
 -10  -2   2  182.28   11.10
  12 -10   2  196.08   10.60
 -10  12  -2  204.18   10.20
  12 -10   2  179.58   10.60
  -2  12   2  193.48   10.20
   1  11   2  112.99    8.90
  11   1  -2  117.89    8.50
  11 -12   2  112.59    9.40
 -12  11  -2  129.89    8.10
   1 -12  -2  123.79    7.70
 -12   1   2  129.79    8.10
 -12   1   2  132.29    9.00
   1  11   2  127.99    8.70
  11 -12   2  127.49    8.70
  -1  12   2  114.09    8.20
  12 -11   2  135.09    9.40
 -11  -1   2  131.49    8.90
  12  -1  -2  120.99    8.40
  12 -11   2  116.39    9.10
 -11  12  -2  122.59    8.80
 -11  -1   2  121.69    8.20
  -1 -11  -2  118.39    7.50
  -1  12   2  107.19    8.90
 -12   0   2   18.30    5.40
   0 -12  -2   23.50    5.40
  12 -12   2   27.90    5.80
  12 -12   2   21.80    6.00
   0  12   2   24.40    5.70
 -12  12  -2   23.80    5.60
 -12   0   2   25.20    6.00
   0  12   2   28.30    7.10
  12   0  -2   25.50    6.10
 -13  13   2  402.36   14.80
  13 -13  -2  431.06   17.70
 -13   0  -2  434.76   18.10
   0  13  -2  443.76   18.10
  13   0   2  427.76   17.30
 -13  13   2  429.56   17.20
   0 -13   2  431.46   16.80
  12 -13  -2  667.33   24.80
 -13   1  -2  672.03   24.60
   1 -13   2  674.53   23.80
 -13  12   2  666.83   24.10
  12   1   2  671.53   23.80
   1  12  -2  685.13   24.70
 -13  12   2  631.44   21.90
  13  -1   2  662.83   23.90
 -12  -1  -2  678.93   24.90
  13 -12  -2  676.23   24.50
 -12  13   2  671.23   24.10
  -1 -12   2  675.53   23.90
 -12  13   2  602.64   21.60
  -1  13  -2  689.53   24.70
  11 -13  -2   59.69    8.10
   2  11  -2   66.99    8.40
   2 -13   2   57.99    6.40
 -13  11   2   51.79    5.00
 -13   2  -2   66.69    8.50
  11   2   2   43.40    6.80
 -13  11   2   52.69    6.90
 -11  -2  -2   71.39    8.70
 -11  13   2   61.79    7.50
  13 -11  -2   53.29    8.50
  -2 -11   2   48.80    6.50
  -2  13  -2   69.89    8.40
  13  -2   2   59.89    7.20
 -13  10   2  283.57   12.60
 -13   3  -2  288.67   13.60
  10   3   2  292.37   12.80
   3 -13   2  290.17   12.40
 -13  10   2  275.57   11.20
  10 -13  -2  272.97   10.60
   3  10  -2  306.37   13.60
  10   3   2  282.77   10.10
  10 -13  -2  291.77   13.10
  -3 -10   2  291.07   12.60
  13  -3   2  285.37   12.80
  -3  13  -2  316.37   14.60
  13 -10  -2  280.47   13.60
 -10  -3  -2  297.07   13.80
 -10  13   2  290.47   13.10
 -13   4  -2  287.37   13.30
   9 -13  -2  283.37   10.50
 -13   9   2  278.47   12.80
   4   9  -2  259.27    9.50
   4 -13   2  290.77   12.30
   9   4   2  300.97   10.70
 -13   9   2  274.97   11.30
   4   9  -2  291.87   13.30
   9 -13  -2  287.37   12.80
   9   4   2  279.77   12.20
  13  -9  -2  288.77   13.30
  13  -4   2  309.47   12.90
  -4  -9   2  291.97   12.50
  -4  13  -2  277.67   13.40
  -9  -4  -2  298.97   13.40
  -9  13   2  284.17   12.90
   5   8  -2  182.48    7.50
   5 -13   2  195.28    7.30
   5 -13   2  198.18    9.70
   5   8  -2  211.68   10.70
   8   5   2  213.08    9.10
   8 -13  -2  194.78   10.50
   8   5   2  207.28    9.80
   8 -13  -2  203.38    8.00
 -13   8   2  189.38    9.20
 -13   5  -2  215.58   10.90
 -13   8   2  206.18   10.10
  13  -5   2  207.48   10.40
  -8  -5  -2  217.78   11.00
  13  -8  -2  208.18   11.40
  -5  13  -2  207.48   11.40
  -5  -8   2  204.68   10.20
  -8  13   2  196.28   10.60
   7 -13  -2   44.30    3.90
   6 -13   2   55.99    4.20
 -13   6  -2   47.30    6.90
   7   6   2   44.90    6.60
   6 -13   2   41.20    5.80
   6   7  -2   43.30    4.00
 -13   7   2   31.60    5.80
   7 -13  -2   52.59    6.90
   7   6   2   60.89    6.20
 -13   7   2   39.80    5.90
   6   7  -2   44.00    7.30
  -6  -7   2   54.99    6.50
  -7  -6  -2   53.39    7.30
  13  -6   2   43.60    6.90
  -7  13   2   41.60    6.70
  -6  13  -2   62.59    7.90
  13  -7  -2   63.89    8.00
   7 -13   2   36.20    5.40
 -13   6   2   39.40    5.90
   7 -13   2   50.49    4.90
   6   7   2   47.80    6.20
 -13   6   2   33.40    5.30
   6   7   2   32.00    5.50
 -13   7  -2   39.30    3.50
   7   6  -2   39.10    4.40
   6 -13  -2   35.00    4.00
   6 -13  -2   36.10    5.90
  -7  -6   2   39.30    6.20
  13  -6  -2   46.90    6.90
  -6  -7  -2   39.80    6.90
  -6  13   2   36.60    6.60
  13  -7   2   38.60    6.10
  -7  13  -2   46.10    6.80
   5   8   2   57.99    6.00
   5 -13  -2   54.69    7.90
   5   8   2   66.79    7.60
   8 -13   2   56.39    6.40
 -13   5   2   63.59    6.40
   5 -13  -2   66.29    4.80
 -13   8  -2   62.39    4.80
 -13   5   2   51.59    6.30
   8   5  -2   63.49    5.70
   8 -13   2   78.49    6.10
  13  -8   2   73.69    7.30
  -8  -5   2   68.19    7.00
  -8  -5   2   66.29    9.20
  -5  13   2   60.09    7.60
  -8  13  -2   72.79    8.00
  13  -8   2   66.99    9.90
  13  -5  -2   73.79    8.10
  -5  -8  -2   59.69    8.10
   4   9   2   41.60    7.30
 -13   4   2   38.40    6.00
   9   4  -2   37.70    5.60
   4   9   2   40.50    6.60
   9 -13   2   45.30    6.40
   4 -13  -2   39.00    4.80
   9 -13   2   55.79    6.40
 -13   9  -2   43.10    5.30
 -13   4   2   38.50    5.70
  -9  -4   2   47.00    8.40
  -9  13  -2   43.80    7.40
  -4  13   2   36.30    6.70
  13  -9   2   35.10    6.60
  13  -4  -2   35.50    6.60
  -4  -9  -2   48.00    7.50
  -9  -4   2   37.80    6.40
  13  -9   2   44.80    7.60
  10 -13   2   88.49    7.70
 -13   3   2   85.79    8.00
  10 -13   2  106.59    8.00
  10   3  -2   85.09    7.20
   3  10   2   76.09    8.50
 -13   3   2   80.29    7.80
   3 -13  -2   79.29    6.00
   3  10   2   81.49    6.90
 -13  10  -2   85.09    6.70
  13  -3  -2   85.89    8.40
  -3  13   2   78.69    8.50
 -10  13  -2  111.69    9.50
  -3  13   2   89.39    8.80
  13 -10   2   81.49    8.00
  -3 -10  -2   88.99    7.40
 -10  -3   2   76.69    8.70
  13 -10   2   76.49    9.00
 -10  -3   2   93.59    8.70
  11 -13   2   30.80    5.80
   2  11   2   30.20    6.30
  11   2  -2   28.40    5.80
 -13   2   2   31.60    5.80
   2 -13  -2   30.90    4.80
  11 -13   2   29.70    6.70
 -13   2   2   34.80    6.40
 -13  11  -2   34.30    5.50
   2  11   2   34.10    6.10
  13  -2  -2   24.70    6.20
 -11  -2   2   22.80    5.70
  -2 -11  -2   24.00    5.10
  13 -11   2   32.20    6.80
  13 -11   2   42.30    7.20
  -2  13   2   27.00    6.70
  -2  13   2   33.50    7.20
 -11  -2   2   33.90    7.50
 -11  13  -2   30.00    6.00
   1 -13  -2  112.89    7.80
   1  12   2  100.19    9.00
  12 -13   2  107.59    8.80
  12   1  -2   99.89    8.70
 -13  12  -2  109.69    8.30
 -13   1   2  117.29    9.00
  12 -13   2  121.29    9.10
   1  12   2  102.79    8.70
 -13   1   2  101.09    9.10
  -1 -12  -2  103.19    7.50
  -1  13   2  128.99    9.70
  -1  13   2   90.49    9.10
  13 -12   2  117.69    9.80
 -12  13  -2  111.09    9.00
  13 -12   2  106.89    9.20
  13  -1  -2  107.99    9.40
 -12  -1   2  109.29    9.10
 -12  -1   2  118.59    9.80
  13   0  -2    2.50    6.00
   0 -13  -2    1.90    5.20
 -13   0   2    2.50    5.70
  13 -13   2   -5.70    5.80
   0  13   2    5.00    5.40
 -13   0   2   -4.90    5.60
 -13  13  -2    3.50    5.60
   0  13   2   -1.70    6.10
  13 -13   2   -0.10    6.00
  14 -14  -2  762.02   28.10
 -14  14   2  702.83   24.80
   0  14  -2  746.63   27.50
   0 -14   2  751.82   26.60
 -14   0  -2  761.52   27.80
 -14  14   2  762.72   27.00
  14   0   2  762.22   26.90
 -14   1  -2   62.59    9.30
 -14  13   2   49.10    7.60
   1 -14   2   51.09    6.90
  13 -14  -2   54.89    8.60
   1  13  -2   57.19    9.00
  13   1   2   71.79    7.70
 -13  14   2   42.00    7.70
  -1  14  -2   57.09    9.10
  14  -1   2   66.89    7.80
 -13  -1  -2   74.49    9.40
  14 -13  -2   56.79    9.10
  -1 -13   2   56.69    7.30
   2  12  -2  286.17   14.20
 -14  12   2  285.47   13.30
  12 -14  -2  283.27   14.00
  12   2   2  293.77   13.20
 -14   2  -2  296.07   14.40
 -14  12   2  295.67   11.60
   2 -14   2  299.67   13.00
  -2 -12   2  303.67   13.20
  -2  14  -2  317.17   15.50
  14 -12  -2  308.97   14.80
 -12  14   2  301.47   14.30
  14  -2   2  299.77   13.40
 -12  -2  -2  295.27   14.60
   3 -14   2  456.75   17.70
 -14  11   2  466.65   18.20
 -14   3  -2  478.25   18.90
  11 -14  -2  447.46   18.30
  11   3   2  461.85   17.70
   3  11  -2  463.05   18.70
  11 -14  -2  433.56   16.20
 -14  11   2  451.95   16.40
  14 -11  -2  448.06   18.70
  -3 -11   2  465.65   17.80
  14  -3   2  468.15   18.50
 -11  -3  -2  494.75   19.00
  -3  14  -2  472.05   18.80
 -11  14   2  447.36   18.30
 -14   4  -2   68.99    8.60
   4 -14   2   61.19    6.60
 -14  10   2   62.39    8.00
   4  10  -2   78.49    9.40
  10   4   2   66.59    6.90
  10 -14  -2   64.39    5.20
  10 -14  -2   92.59    9.10
 -14  10   2   58.19    6.00
 -10  14   2   75.19    8.10
  -4 -10   2   65.29    7.10
  14  -4   2   74.19    7.80
  -4  14  -2   74.19    9.20
  14 -10  -2   58.89   10.30
 -10  -4  -2   63.99    8.80
 -14   9   2   86.59    7.10
   9   5   2  114.99    6.70
   5   9  -2   96.89    8.90
   5   9  -2   92.29    4.70
   9 -14  -2   94.89    8.40
   5 -14   2   97.99    7.30
 -14   5  -2   90.69    9.00
   9   5   2   96.59    7.40
   9 -14  -2  103.99    5.80
 -14   9   2  100.09    7.70
  -9  14   2   89.19    8.50
  -9  -5  -2  121.79    9.40
  -5  -9   2  109.69    8.00
  14  -5   2   98.19    8.20
  14  -9  -2  106.99    9.40
  -5  14  -2  130.99   10.90
   6 -14   2   70.89    4.40
   6   8  -2   60.09    7.70
   6 -14   2   64.09    6.60
   8   6   2   47.30    6.40
 -14   8   2   42.10    6.50
 -14   6  -2   67.09    7.90
   8 -14  -2   54.19    7.50
 -14   8   2   46.30    7.30
   8   6   2   79.19    6.80
   8 -14  -2   61.49    4.70
   6   8  -2   45.90    4.20
  -6  -8   2   58.89    7.00
  -8  -6  -2   66.49    8.10
  -8  14   2   57.39    8.10
  14  -8  -2   52.59    8.50
  14  -6   2   49.80    7.40
  -6  14  -2   72.79    8.60
 -14   7   2   62.89    7.30
 -14   7   2   44.40    6.90
   7   7  -2   64.89    4.90
   7 -14  -2   63.19    7.40
   7 -14  -2   65.19    4.80
 -14   7  -2   60.69    3.50
   7   7  -2   55.29    8.90
   7 -14   2   59.69    6.60
 -14   7  -2   53.19    8.00
   7   7   2   60.09    7.20
  -7  -7   2   64.59    7.10
  -7  14  -2   66.29    9.70
  14  -7  -2   63.59    9.80
  14  -7   2   66.29    7.70
  -7  14   2   66.19    8.20
  -7  -7  -2   67.79    8.10
 -14   6   2   86.19    7.50
   8 -14   2  105.09    7.60
 -14   6   2   93.29    8.20
   6   8   2   91.29    7.20
   6   8   2  116.79    8.60
 -14   8  -2   91.99    5.40
   8 -14   2  113.79    7.10
   6 -14  -2   90.19    8.70
   8   6  -2   84.99    6.00
   6 -14  -2  102.59    6.00
  14  -8   2   99.29    9.20
  14  -6  -2  105.39    9.40
  -6  -8  -2  102.49    9.50
  -6  14   2   78.89    8.40
  -8  -6   2   97.49    7.90
  -8  14  -2   97.39    9.20
   5   9   2   16.60    4.90
 -14   9  -2   19.80    3.90
 -14   5   2   15.30    5.00
   9 -14   2   16.00    5.20
 -14   5   2   10.30    5.30
   5 -14  -2   19.70    6.30
   9 -14   2   27.20    4.90
   5 -14  -2   21.10    3.70
   5   9   2   11.90    5.70
  -9  14  -2   24.30    7.20
  14  -9   2   10.10    7.10
  -9  -5   2   22.50    7.70
  14  -9   2   16.80    5.70
  -5  -9  -2   20.40    5.80
  -5  14   2    9.20    6.10
  14  -5  -2   19.20    7.10
  -9  -5   2   14.90    5.50
   4  10   2   -3.30    5.50
 -14   4   2   -2.30    5.40
  10 -14   2   -0.50    4.90
   4  10   2    6.20    4.60
  10   4  -2    5.10    4.50
 -14  10  -2    4.10    3.90
 -14   4   2   -4.80    4.90
   4 -14  -2    3.40    3.70
  10 -14   2    4.80    4.80
  14  -4  -2    6.20    6.90
  14 -10   2   11.20    7.00
  14 -10   2   11.10    6.50
  -4  14   2   -1.90    5.90
  -4 -10  -2   15.80    6.20
 -10  14  -2   10.90    6.80
 -10  -4   2    3.40    7.70
 -10  -4   2    9.30    5.50
  11 -14   2   85.29    8.50
 -14   3   2   72.39    8.10
 -14   3   2   56.49    8.00
   3 -14  -2   70.69    6.20
   3  11   2   74.39    7.80
   3  11   2   60.99    7.80
  11   3  -2   62.89    7.20
  11 -14   2   59.39    7.40
  -3  14   2   71.59    8.60
  14 -11   2   60.09    8.20
  -3  14   2   79.69    9.10
  14  -3  -2   62.69    9.40
 -11  14  -2   81.69    8.30
 -11  -3   2   67.09    7.70
 -11  -3   2   79.29   10.80
  14 -11   2   63.39    9.00
  -3 -11  -2   79.69    7.30
 -14  12  -2   62.79    7.20
   2  12   2   55.59    8.20
  12 -14   2   53.89    8.50
  12   2  -2   64.79    8.00
 -14   2   2   68.59    8.30
  12 -14   2   77.59    8.50
   2 -14  -2   65.59    6.80
   2  12   2   66.09    8.10
 -14   2   2   53.69    8.20
 -12  -2   2   51.49    9.80
  14 -12   2   57.89    8.50
  -2  14   2   56.79    8.90
  14 -12   2   62.39    8.20
 -12  -2   2   58.99    7.60
  -2 -12  -2   71.09    7.90
  14  -2  -2   65.19    8.10
 -12  14  -2   69.29    8.80
  -2  14   2   52.79    8.40
   1  13   2   58.19    8.20
 -14   1   2   48.30    8.10
   1  13   2   52.29    7.90
  13 -14   2   62.89    8.20
  13   1  -2   56.89    8.50
   1 -14  -2   57.19    7.10
 -14   1   2   52.39    8.70
  13 -14   2   71.39    9.10
 -14  13  -2   64.19    8.50
  -1 -13  -2   52.09    7.00
  14  -1  -2   59.39    8.20
  14 -13   2   54.39    8.00
  14 -13   2   75.39    9.40
 -13  14  -2   60.89    7.70
  -1  14   2   57.39    8.80
 -13  -1   2   55.09    9.70
  -1  14   2   67.09    9.20
 -13  -1   2   50.29    7.40
  14   0  -2   15.00    6.80
  14 -14   2   19.90    6.80
   0  14   2    4.60    7.30
 -14   0   2   13.70    6.00
 -14  14  -2   19.30    6.60
   0  14   2   20.50    6.60
  14 -14   2   18.40    7.50
 -14   0   2   22.20    7.50
   0 -14  -2   20.50    5.80
   0  15  -2   38.60    8.00
 -15  15   2   34.50    7.50
  15   0   2   32.00    6.50
   0 -15   2   46.90    7.20
 -15   0  -2   54.39    9.70
  15 -15  -2   34.40    7.50
   1  14  -2  388.96   16.60
  14 -15  -2  344.87   16.20
 -15   1  -2  360.86   16.70
   1 -15   2  366.56   15.20
  14   1   2  346.37   15.30
 -15  14   2  349.67   13.40
 -15  14   2  352.26   15.50
 -14  15   2  336.77   15.50
  -1  15  -2  343.57   16.50
  15  -1   2  375.06   16.10
  -1 -14   2  357.56   15.30
 -14  -1  -2  357.36   16.80
  15 -14  -2  374.26   17.20
   2  13  -2  560.14   21.90
  13   2   2  554.74   20.70
   2 -15   2  524.45   20.10
 -15   2  -2  515.05   21.10
 -15  13   2  505.65   18.60
  13 -15  -2  539.55   21.50
 -15  13   2  530.35   20.40
  15 -13  -2  517.45   21.20
  -2 -13   2  513.45   20.10
  15  -2   2  542.15   20.40
 -13  15   2  522.85   20.50
  -2  15  -2  541.65   21.60
 -13  -2  -2  549.85   21.50
   3  12  -2   52.69    8.70
  12   3   2   63.09    7.50
  12 -15  -2   54.59    6.40
 -15   3  -2   60.79    9.10
  12 -15  -2   48.00    8.60
   3 -15   2   62.39    8.00
 -15  12   2   74.39    6.10
 -15  12   2   51.79    7.40
  15  -3   2   56.29    8.10
  15 -12  -2   51.29    8.50
 -12  15   2   53.79    7.90
  -3 -12   2   72.69    7.60
 -12  -3  -2   64.09    9.40
  -3  15  -2   58.39    9.60
  11   4   2  213.38    8.10
   4 -15   2  184.98   10.10
   4  11  -2  211.68   12.70
  11 -15  -2  175.98    8.60
 -15  11   2  174.88    9.20
  11 -15  -2  180.28   11.10
 -15  11   2  178.58   10.20
 -15   4  -2  179.08   11.80
  11   4   2  189.48   10.70
  15  -4   2  182.48   10.90
  -4 -11   2  187.28   10.30
 -11  -4  -2  211.48   12.10
 -11  15   2  174.78   11.00
  -4  15  -2  217.78   12.40
  15 -11  -2  202.78   11.90
 -15   5  -2   93.09    9.50
   5 -15   2   93.99    7.60
  10 -15  -2  114.79    9.90
  10   5   2  111.49    6.80
   5  10  -2  119.69    6.40
 -15  10   2   86.79    7.60
  10   5   2   91.39    7.70
   5  10  -2   96.39   10.30
  10 -15  -2  107.79    6.20
 -15  10   2   96.29    8.10
  15  -5   2  112.39    8.80
  15 -10  -2   92.99    9.80
 -10  15   2   91.99    9.00
  -5  15  -2  120.99   10.30
 -10  -5  -2  109.49    9.90
  -5 -10   2  109.79    8.30
   6   9  -2   64.49    9.50
   6 -15   2   68.19    6.80
   9 -15  -2   71.69    7.90
 -15   6  -2   52.99    8.50
   9 -15  -2   67.09    5.20
 -15   9   2   46.10    6.80
   9   6   2   86.29    6.90
   9   6   2   64.19    7.60
 -15   9   2   58.69    7.00
   6   9  -2   61.99    4.50
  15  -9  -2   63.69    9.10
  -9  -6  -2   95.79   10.40
  -6  -9   2   60.79    7.40
  -9  15   2   48.60    8.20
  -6  15  -2   68.39    9.40
  15  -6   2   61.39    7.90
   8 -15  -2   58.49    4.90
 -15   8   2   39.70    6.40
   7   8  -2   51.59    4.70
   7 -15   2   56.59    6.70
   8 -15  -2   55.39    7.70
 -15   7  -2   53.09    7.50
   7   8  -2   53.79    8.90
   8   7   2   47.90    7.40
   8   7   2   54.49    7.40
  -8  -7  -2   52.69    8.10
  15  -7   2   50.09    8.00
  -8  15   2   57.49    8.70
  15  -8  -2   61.69    8.30
  -7  15  -2   65.39    9.20
  -7  -8   2   53.49    7.20
   7   8   2   51.49    7.00
   7   8   2   34.00    5.60
 -15   7   2   29.00    6.20
   7 -15  -2   43.70    7.30
   8 -15   2   54.39    5.90
   7 -15  -2   35.40    4.80
 -15   8  -2   38.30    3.60
   8   7  -2   29.00    4.90
   8   7  -2   40.70    6.90
 -15   7   2   30.70    5.70
 -15   8  -2   32.80    7.00
   8 -15   2   31.50    5.60
  15  -8   2   45.30    7.80
  -8  15  -2   37.20    7.70
  -8  -7   2   36.50    6.30
  15  -7  -2   31.60    7.60
  -7  -8  -2   33.90    7.00
  -7  15   2   27.60    7.00
 -15   6   2   15.40    5.40
 -15   6   2   20.70    5.40
   6 -15  -2   26.20    4.60
   9 -15   2   38.90    6.30
   6 -15  -2   30.30    6.20
 -15   9  -2   29.00    4.60
   9 -15   2   24.60    5.60
   6   9   2   20.90    6.10
   6   9   2   24.30    5.70
  -6  15   2   20.70    6.90
  -9  -6   2   33.60    6.40
  15  -6  -2   21.10    7.10
  -9  15  -2   54.29   10.00
  -6  -9  -2   46.10    7.70
  15  -9   2   27.90    7.20
 -15   5   2   49.30    6.90
  10 -15   2   57.39    7.30
  10 -15   2   41.10    6.90
   5  10   2   37.60    7.00
  10   5  -2   44.20    6.40
   5 -15  -2   40.60    7.10
   5 -15  -2   43.40    5.60
 -15   5   2   32.30    6.50
 -15  10  -2   51.39    5.70
   5  10   2   48.90    7.40
  15  -5  -2   44.30    7.70
  -5  15   2   50.89    8.60
  -5 -10  -2   36.20    6.70
 -10  -5   2   48.50    9.00
  15 -10   2   43.60    7.30
 -10  -5   2   42.30    6.70
  15 -10   2   47.70    8.50
 -10  15  -2   52.49    8.80
   4  11   2  114.49    8.70
 -15   4   2   98.59    9.00
   4 -15  -2  104.09    9.80
 -15  11  -2  106.99    7.40
 -15   4   2  111.49    9.10
  11 -15   2  109.19    8.60
  11   4  -2   97.29    8.40
   4  11   2   77.29    9.40
   4 -15  -2  107.49    7.20
  11 -15   2  103.79    8.60
  15 -11   2  123.79   10.90
 -11  -4   2  113.79   11.00
  -4  15   2   90.49    9.50
  -4 -11  -2  111.89    8.60
 -11  15  -2  111.29    9.50
 -11  -4   2  123.19    9.20
  15  -4  -2   93.49    9.50
  15 -11   2  126.49   10.60
 -15   3   2    9.10    6.20
  12   3  -2    7.20    5.50
   3  12   2   -2.40    6.60
   3 -15  -2   12.80    4.70
  12 -15   2    7.10    5.90
 -15   3   2   10.70    5.90
   3  12   2   11.20    5.80
  12 -15   2   20.60    6.30
 -15  12  -2   12.50    4.90
  15 -12   2   10.40    7.30
 -12  -3   2    6.90    7.20
 -12  15  -2   11.70    7.00
  15 -12   2   13.50    7.40
  -3  15   2    3.40    7.00
  15  -3  -2   14.40    6.50
  -3 -12  -2   10.00    5.40
 -12  -3   2   12.10    6.10
  13 -15   2   49.90    8.00
 -15  13  -2   46.30    7.30
 -15   2   2   32.40    7.10
 -15   2   2   43.40    7.60
   2 -15  -2   37.70    6.70
  13 -15   2   55.39    8.70
   2  13   2   21.50    6.80
   2  13   2   47.40    7.30
  13   2  -2   33.10    6.50
  15 -13   2   46.90    8.80
  -2  15   2   37.90    7.60
  15  -2  -2   32.80    7.10
  -2 -13  -2   53.69    8.20
 -13  -2   2   41.90    9.10
 -13  -2   2   34.20    6.80
  15 -13   2   52.69    8.70
  -2  15   2   40.40    7.80
 -13  15  -2   41.80    7.70
 -15   1   2   38.00    7.80
  14 -15   2   34.30    7.60
 -15  14  -2   34.20    6.70
 -15   1   2   32.00    7.10
  14 -15   2   32.10    7.40
   1 -15  -2   38.10    6.30
  14   1  -2   36.00    7.30
   1  14   2   31.80    7.00
   1  14   2   13.40    7.60
 -14  -1   2   34.30    6.70
  -1  15   2   29.60    6.90
  -1 -14  -2   33.20    6.20
  15 -14   2   31.30    7.40
  15 -14   2   34.30    8.20
  -1  15   2   30.80    7.70
 -14  15  -2   39.10    7.50
  15  -1  -2   34.40    7.60
 -14  -1   2   35.10    8.80
  15 -15   2   26.80    7.30
 -15   0   2   16.00    6.20
 -15  15  -2   34.20    7.00
   0 -15  -2   25.90    6.40
 -15   0   2   20.20    7.60
   0  15   2   24.00    7.20
   0  15   2   17.60    7.60
  15 -15   2   20.60    7.80
  15   0  -2   23.90    7.30
  16   0   2  237.28   11.70
 -16  16   2  232.28   12.10
 -16   0  -2  216.48   13.00
   0 -16   2  214.28   11.40
   0  16  -2  220.98   13.10
  16 -16  -2  213.58   12.90
  15   1   2  430.26   17.20
   1 -16   2  419.56   17.00
 -16  15   2  440.36   18.00
  15 -16  -2  402.06   17.70
 -16   1  -2  415.06   18.30
   1  15  -2  400.86   18.00
  16 -15  -2  395.66   18.10
 -15  16   2  410.96   17.20
  -1 -15   2  403.56   17.00
 -15  -1  -2  430.76   18.20
  16  -1   2  418.16   17.10
  -1  16  -2  411.16   18.30
 -16   2  -2   33.30    8.00
 -16  14   2   23.00    6.40
  14   2   2   18.20    6.70
   2  14  -2   27.50    7.60
 -16  14   2   26.60    5.10
   2 -16   2   20.60    5.70
  14 -16  -2   27.50    7.40
  -2 -14   2   21.50    6.00
  16 -14  -2   17.50    8.20
 -14  16   2   19.10    7.00
  -2  16  -2   36.00    8.10
  16  -2   2   24.40    6.90
 -14  -2  -2   26.40    8.30
   3 -16   2  200.68   10.90
 -16  13   2  200.08   11.20
  13 -16  -2  208.28   12.20
  13   3   2  216.48   11.30
  13 -16  -2  197.08   11.00
   3  13  -2  217.48   12.60
 -16   3  -2  211.28   12.60
 -16  13   2  186.78    9.60
  -3 -13   2  215.48   11.30
 -13  -3  -2  229.18   13.00
  16  -3   2  207.38   11.60
 -13  16   2  189.28   11.90
  16 -13  -2  205.18   12.60
  -3  16  -2  233.78   14.10
 -16  12   2  209.78    9.90
   4  12  -2  222.88   13.60
  12   4   2  203.58   11.00
  12 -16  -2  198.78   12.10
 -16  12   2  231.78   12.00
   4 -16   2  223.78   11.80
  12 -16  -2  196.98    9.80
 -16   4  -2  191.08   12.50
  -4  16  -2  223.98   13.10
  -4 -12   2  204.68   11.10
  16  -4   2  207.78   11.70
 -12  -4  -2  221.68   12.80
 -12  16   2  211.28   12.90
  16 -12  -2  199.78   12.60
   5 -16   2   30.60    5.90
   5  11  -2   36.80    7.70
  11   5   2   37.70    6.30
 -16   5  -2   33.20    7.80
  11 -16  -2   34.90    5.60
  11 -16  -2   44.20    8.10
 -16  11   2   39.80    6.80
  11   5   2   37.20    4.90
 -16  11   2   33.20    5.40
 -11  -5  -2   59.19    9.20
 -11  16   2   41.90    7.40
  -5 -11   2   31.10    6.40
  16 -11  -2   37.60    8.00
  -5  16  -2   34.10    8.50
  16  -5   2   50.89    8.00
 -16  10   2   77.59    8.60
   6  10  -2   83.69    5.00
  10 -16  -2   83.89    6.40
 -16   6  -2   71.69    9.40
  10   6   2   83.29    8.40
  10 -16  -2  108.69    9.90
   6 -16   2   76.29    7.20
  10   6   2   91.39    7.10
 -16  10   2   55.69   10.10
   6  10  -2   87.69    9.40
  16 -10  -2   75.49    9.90
  16  -6   2   74.79    8.50
 -10  -6  -2   99.09   10.00
  -6  16  -2   98.39   11.80
  -6 -10   2   79.79    8.10
 -10  16   2   64.59    8.90
   9   7   2   20.00    6.10
   9 -16  -2   11.40    6.30
   9   7   2   -5.90    8.70
 -16   7  -2   17.60    7.00
 -16   9   2   18.20    6.30
   9 -16  -2   21.10    3.90
   7 -16   2   22.40    5.60
   7   9  -2   19.70    7.00
 -16   9   2   19.40    5.50
   7   9  -2   23.30    3.70
  -9  -7  -2   35.00    7.40
  -9  16   2   15.00    6.80
  16  -9  -2   28.70    7.70
  -7  16  -2   23.20    7.90
  16  -7   2   16.00    7.40
  -7  -9   2   35.30    6.30
 -16   8  -2   -8.60    6.00
   8   8  -2    5.10    3.40
   8   8   2    0.90    5.30
 -16   8   2    3.60    5.60
 -16   8   2   -9.20    4.80
   8 -16  -2   10.50    6.90
   8   8   2   -5.00    5.10
   8   8  -2    5.60    6.20
   8 -16   2   -0.10    5.10
   8 -16  -2    3.60    3.60
  -8  -8   2    7.00    5.70
  -8  16  -2    2.30    7.20
  16  -8   2    0.60    6.20
  -8  -8  -2    2.80    6.60
  16  -8  -2   -2.20    6.90
  -8  16   2    2.30    6.70
 -16   7   2  103.29    8.90
   9   7  -2   95.39    9.00
 -16   9  -2  100.79    5.50
   9 -16   2  105.99    8.10
 -16   9  -2   89.29    9.50
   9 -16   2  118.69    7.90
   7 -16  -2   97.89    8.70
   7   9   2   97.49    8.50
  16  -9   2  113.59    9.50
  -7  16   2   82.49    9.40
  16  -7  -2   95.39   10.20
  -7  -9  -2  115.59    9.40
  -9  -7   2  105.89    9.60
 -16  10  -2  114.99    6.70
   6 -16  -2  110.49    9.80
   6  10   2   81.29    9.40
   6 -16  -2  107.69    7.00
 -16   6   2   81.19    8.60
  10 -16   2  106.29    8.40
 -16   6   2  118.09    9.20
  10 -16   2  133.39    8.70
  10   6  -2  108.09    7.60
   6  10   2  101.59    8.80
  -6 -10  -2  111.99   10.50
 -10  -6   2  111.99    9.00
 -10  16  -2  110.69   10.60
  -6  16   2   96.59    9.70
  16 -10   2  107.99    9.50
  16  -6  -2  116.79   11.40
   5  11   2   13.00    7.00
  11 -16   2   38.20    6.60
   5 -16  -2   33.20    6.80
 -16   5   2   17.70    6.50
   5 -16  -2   35.70    5.10
  11   5  -2   31.50    5.50
 -16  11  -2   35.30    5.70
 -16   5   2   34.10    6.90
   5  11   2   26.50    5.70
  11 -16   2   38.20    6.70
  -5 -11  -2   36.60    6.80
  -5  16   2   26.70    7.40
  16 -11   2   39.80    8.20
  16  -5  -2   29.30    7.40
 -11  16  -2   54.69   10.10
  16 -11   2   34.60    8.60
 -11  -5   2   33.10    6.70
   4 -16  -2   50.79    8.10
  12 -16   2   68.39    9.10
  12   4  -2   51.39    7.30
  12 -16   2   50.49    7.70
 -16   4   2   47.10    7.50
 -16   4   2   53.39    8.40
   4  12   2   38.50    7.50
   4 -16  -2   44.80    6.40
   4  12   2   53.89    8.00
 -16  12  -2   64.19    7.10
  16  -4  -2   51.09    8.80
  16 -12   2   54.89    9.80
 -12  -4   2   52.39    8.30
  -4  16   2   56.19   10.00
 -12  16  -2   62.69    8.90
  -4 -12  -2   55.99    7.80
 -12  -4   2   64.69   10.70
  16 -12   2   58.39    8.40
 -16   3   2   89.49    9.30
 -16  13  -2   90.09    8.40
  13   3  -2   80.89    8.30
   3  13   2   55.19    9.80
   3 -16  -2   87.39    7.30
 -16   3   2   56.19    8.80
   3  13   2   82.69    8.80
  13 -16   2   76.79    8.40
  13 -16   2   95.49    9.50
 -13  -3   2   84.59    8.70
 -13  -3   2   93.89   10.90
  16 -13   2   75.39   10.20
  -3 -13  -2   94.99    8.40
  -3  16   2   79.89    9.30
 -13  16  -2   95.09    9.30
  16 -13   2   77.39    9.70
  16  -3  -2   68.79    9.10
 -16   2   2    8.70    6.70
  14   2  -2    6.80    6.10
  14 -16   2   12.90    7.00
   2 -16  -2    7.30    5.30
 -16   2   2   -7.40    5.90
  14 -16   2   -6.30    6.40
   2  14   2   -7.50    5.90
   2  14   2   -0.80    5.70
 -16  14  -2    8.70    5.50
  -2  16   2   -3.90    6.60
  -2  16   2    3.70    6.90
  -2 -14  -2    8.80    5.90
 -14  -2   2    4.00    6.00
 -14  -2   2   10.10    8.60
  16  -2  -2    7.60    6.40
  16 -14   2    0.60    6.60
  16 -14   2    7.40    7.20
 -14  16  -2    8.20    7.00
  15 -16   2   27.80    8.00
 -16   1   2   40.60    8.10
  15   1  -2   24.20    6.70
   1 -16  -2   39.90    6.60
 -16   1   2   26.00    7.10
 -16  15  -2   41.40    7.00
   1  15   2   27.20    7.90
   1  15   2   37.60    7.40
  15 -16   2   25.70    7.70
  -1  16   2   47.90    8.10
  16 -15   2   24.30    8.30
 -15  -1   2   31.10    6.70
  16 -15   2   35.30    7.80
  -1  16   2   21.40    7.40
  -1 -15  -2   40.30    7.10
 -15  -1   2   38.40    8.60
 -15  16  -2   45.50    7.80
  16  -1  -2   36.90    7.70
  16 -16   2  112.39   11.50
  16 -16   2  139.69   10.70
   0 -16  -2  150.18    9.10
   0  16   2  153.68   11.30
   0  16   2  130.49   11.60
 -16   0   2  165.38   12.50
 -16   0   2  133.79   10.50
 -16  16  -2  162.58   10.40
  16   0  -2  140.29    9.70
   0 -17   2   63.29    7.40
 -17  17   2   71.89    9.30
  17   0   2   68.09    8.70
  17 -17  -2   70.29    9.30
   0  17  -2   86.09   11.10
 -17   0  -2   81.39    9.90
 -17   1  -2   10.90    7.50
  16 -17  -2   -6.50    7.20
  16   1   2    8.80    6.30
 -17  16   2    0.40    5.70
   1  16  -2    1.00    7.00
   1 -17   2    7.10    5.60
  -1  17  -2    4.70    7.20
 -16  -1  -2    3.50    7.00
 -16  17   2   -2.30    5.80
  17  -1   2   -1.00    5.10
  17 -16  -2    2.00    6.70
  -1 -16   2    5.30    5.00
 -17   2  -2  190.58   12.40
 -17  15   2  199.68   11.80
   2 -17   2  203.18   10.70
  15 -17  -2  188.68   13.00
   2  15  -2  193.98   13.00
  15   2   2  203.28   11.70
  -2 -15   2  184.28   10.70
  -2  17  -2  197.28   12.40
 -15  17   2  184.18   11.10
 -15  -2  -2  205.28   12.30
  17  -2   2  205.48   11.20
  17 -15  -2  176.88   12.90
   3 -17   2  205.68   11.60
   3  14  -2  207.28   12.30
  14 -17  -2  205.68   12.10
 -17  14   2  202.28   11.20
 -17   3  -2  211.98   12.60
  14   3   2  196.18   11.00
  -3 -14   2  188.98   10.80
  -3  17  -2  200.98   12.70
  17 -14  -2  177.28   13.30
 -14  17   2  187.18   11.60
  17  -3   2  200.98   11.40
 -14  -3  -2  230.38   12.80
   4  13  -2    8.10    6.90
 -17   4  -2   10.80    7.30
 -17  13   2    5.90    4.60
 -17  13   2   11.00    6.20
   4 -17   2    6.00    5.20
  13   4   2    8.60    6.00
  13 -17  -2   20.40    6.90
  17  -4   2    7.70    6.00
  -4  17  -2    9.50    7.50
  17 -13  -2   11.00    7.30
 -13  17   2    9.90    6.30
  -4 -13   2   10.50    5.60
 -13  -4  -2   12.90    7.50
 -17   5  -2  117.89   10.30
 -17  12   2  104.99    8.80
   5  12  -2  114.69   11.30
  12 -17  -2  116.79    7.70
  12   5   2  119.89    9.40
   5 -17   2  123.69    9.30
  12 -17  -2   95.89    9.70
  17  -5   2  112.09    9.50
  -5 -12   2  105.29    8.70
 -12  -5  -2  125.69   10.80
  -5  17  -2  118.59   10.90
 -12  17   2  110.69    9.70
  17 -12  -2   94.19   10.50
  11 -17  -2   31.60    7.80
   6 -17   2   21.20    5.60
 -17  11   2   11.60    5.30
  11   6   2   23.50    5.30
   6  11  -2   30.50    7.50
 -17  11   2   31.50    6.90
  11   6   2   25.80    5.80
  11 -17  -2   31.00    5.40
 -17   6  -2   11.80    7.50
 -11  17   2   20.50    6.90
 -11  -6  -2   26.70    7.70
  17 -11  -2   14.80    8.50
  -6  17  -2   33.40    8.50
  -6 -11   2   28.10    6.30
  17  -6   2   19.40    6.50
 -17   7  -2   11.40    7.30
  10   7   2    9.60    5.90
   7 -17   2    8.30    5.10
  10 -17  -2   17.70    4.30
  10 -17  -2   23.10    7.40
   7  10  -2   11.60    7.10
   7  10  -2   15.10    4.40
 -17  10   2   10.70    6.10
 -17  10   2    0.30    5.30
  17  -7   2    9.90    6.40
 -10  -7  -2   30.00    7.50
  -7 -10   2   10.90    5.90
 -10  17   2    2.40    6.60
  17 -10  -2   14.30    7.80
  -7  17  -2    6.90    8.50
   9 -17  -2   52.79    5.80
   8   9  -2   50.39    5.40
 -17   9   2   39.40    6.50
   8   9  -2   58.19    8.70
   9   8   2   41.90    6.90
   9 -17  -2   45.20    8.00
 -17   8  -2   40.90    7.80
 -17   9   2   48.40    7.20
   9   8   2   45.90    6.90
   8 -17   2   38.40    7.00
  -9  -8  -2   52.79    8.80
  17  -9  -2   41.30    8.60
  -8  -9   2   45.40    7.50
  -9  17   2   47.60    9.00
  -8  17  -2   57.69    9.70
  17  -8   2   54.49    8.80
 -17   9  -2   79.79    9.10
 -17   8   2   86.59    8.80
   8   9   2   68.39    9.20
   9 -17   2   93.29    8.00
   8 -17  -2   96.09    9.00
   8 -17  -2   84.49    6.30
   8   9   2   88.59    8.60
   9   8  -2   85.69    9.00
  17  -8  -2   64.79   10.20
  17  -9   2   96.19    9.50
  -8  -9  -2  108.09    9.50
  -9  -8   2   84.29    8.50
  -8  17   2   71.49    9.40
   7  10   2   21.30    6.20
 -17  10  -2   25.80    4.60
  10   7  -2   19.00    6.70
 -17   7   2   25.00    6.50
  10   7  -2   25.70    4.80
  10 -17   2   16.50    5.80
  10 -17   2   44.50    7.00
 -17   7   2    9.10    5.50
 -17  10  -2   21.00    7.40
   7 -17  -2   25.50    4.80
   7 -17  -2   23.90    7.40
   7  10   2   10.20    6.50
  17  -7  -2   19.30    7.50
  -7  17   2   16.70    7.00
  17 -10   2   18.70    7.60
  -7 -10  -2   34.20    7.90
 -10  -7   2   30.90    6.60
 -10  17  -2   38.90    9.10
   6  11   2   70.49    9.00
  11   6  -2   81.79    7.40
  11   6  -2   86.19   10.30
 -17  11  -2   69.09    6.30
   6 -17  -2   78.79    9.80
  11 -17   2   97.99    8.60
  11 -17   2   70.29    7.90
   6  11   2   70.19    7.30
 -17   6   2   64.59    8.80
   6 -17  -2   78.19    6.80
  -6  17   2   60.49    9.30
  -6 -11  -2   77.39    8.60
 -11  17  -2   80.59    9.70
  17  -6  -2   71.39    9.60
 -11  -6   2   72.79    8.30
  17 -11   2   66.39    9.00
   5 -17  -2  175.88    9.30
 -17   5   2  155.68   10.70
   5  12   2  194.68   10.80
   5  12   2  161.58   12.00
  12   5  -2  177.88   10.20
  12 -17   2  191.18   10.90
 -17   5   2  170.98   11.10
 -17  12  -2  169.18    9.80
  12 -17   2  174.78   11.50
   5 -17  -2  189.68   11.50
  17 -12   2  187.78   14.40
 -12  17  -2  180.98   12.50
  -5  17   2  179.38   11.50
 -12  -5   2  186.48   11.00
  -5 -12  -2  181.78   10.70
  17  -5  -2  173.18   11.50
  17 -12   2  169.28   11.70
   4  13   2   14.90    6.20
  13   4  -2   13.70    5.40
  13 -17   2   17.00    6.20
   4 -17  -2   18.20    6.60
   4  13   2    2.70    6.20
   4 -17  -2   22.10    5.10
  13 -17   2   30.80    7.10
 -17  13  -2   21.10    5.60
 -17   4   2    5.50    5.90
  -4 -13  -2   25.40    6.30
  17 -13   2    4.80    7.00
  -4  17   2   10.40    6.80
 -13  17  -2   20.00    6.90
 -13  -4   2   11.20    9.50
 -13  -4   2   20.20    6.50
  17 -13   2   24.70    9.00
  17  -4  -2    6.70    6.70
  14 -17   2   54.79    8.10
 -17  14  -2   73.59    7.40
  14   3  -2   59.59    8.10
 -17   3   2   41.40    7.40
 -17   3   2   62.79    8.70
   3 -17  -2   72.59    7.10
   3  14   2   57.99    8.50
   3  14   2   65.09    9.20
  14 -17   2   67.09    9.30
  17 -14   2   55.89   10.00
 -14  -3   2   53.59   10.40
  17 -14   2   53.39    8.40
  -3  17   2   46.80    8.60
 -14  -3   2   57.59    9.00
 -14  17  -2   62.29    8.60
  -3 -14  -2   73.29    8.00
  17  -3  -2   54.29    9.70
  15 -17   2  119.99   10.90
   2 -17  -2  126.89    8.80
  15   2  -2  127.09    9.60
 -17  15  -2  123.49    9.20
  15 -17   2  127.49   11.00
 -17   2   2  117.79   10.70
   2  15   2  126.29    9.80
 -17   2   2   92.19    8.70
   2  15   2  102.49    9.80
  17  -2  -2  113.39   10.60
 -15  -2   2  106.09    9.00
 -15  17  -2  135.79   10.30
  17 -15   2  102.39   10.70
  -2  17   2  106.99   10.00
  -2 -15  -2  120.19    8.80
  17 -15   2   80.09   10.20
 -15  -2   2  113.89   12.50
   1 -17  -2   58.09    7.70
   1  16   2   61.99    9.20
 -17   1   2   59.49    9.90
   1  16   2   43.70    7.80
  16 -17   2   45.60    8.90
  16   1  -2   56.79    8.70
  16 -17   2   73.49   10.00
 -17  16  -2   60.49    8.30
 -17   1   2   39.70    6.90
  17 -16   2   57.29    9.20
 -16  -1   2   42.60    7.30
  -1  17   2   57.89    8.70
  -1 -16  -2   58.89    7.20
 -16  -1   2   57.19    9.80
 -16  17  -2   87.59    9.20
  17 -16   2   39.40    9.10
  17  -1  -2   56.49    7.90
  -1  17   2   62.19    9.70
 -17   0   2   -7.00    5.20
   0  17   2   -5.70    6.70
 -17   0   2   14.30    7.60
   0 -17  -2    2.80    5.70
 -17  17  -2    0.00    6.30
  17   0  -2    2.40    6.40
  17 -17   2   -5.40    7.10
   0  17   2   -1.80    6.90
 -18  18   2    8.10    7.10
   0  18  -2   -7.30   11.90
 -18   0  -2   10.50    7.70
  18 -18  -2    4.20    7.10
  18   0   2    4.80    6.70
 -18   1  -2   10.00    7.60
  17 -18  -2   13.20    8.00
   1 -18   2   10.50    5.60
   1  17  -2   12.50    7.70
 -18  17   2   17.10    7.20
  17   1   2    7.10    6.10
 -17  -1  -2   19.50    8.00
  18  -1   2    5.10    5.80
  -1 -17   2   14.70    5.60
  -1  18  -2    9.40    7.40
 -17  18   2   19.30    7.30
  18 -17  -2    0.50    7.00
   2  16  -2   43.10    8.30
   2 -18   2   40.00    6.70
  16 -18  -2   32.10    7.60
  16   2   2   37.50    6.80
 -18  16   2   46.30    7.70
 -18   2  -2   67.49    9.50
  18 -16  -2   44.40    9.00
  18  -2   2   45.60    7.70
 -16  18   2   43.30    7.50
  -2 -16   2   34.90    6.60
  -2  18  -2   51.69    9.50
 -16  -2  -2   52.29    9.20
  15 -18  -2    7.60    6.80
  15   3   2    9.90    5.90
   3  15  -2    4.00    6.50
 -18  15   2    9.00    6.60
 -18   3  -2    8.60    7.20
   3 -18   2    6.40    5.10
 -15  18   2    3.70    6.60
  -3 -15   2    3.40    5.20
  18 -15  -2   -0.20    6.60
  -3  18  -2    3.40    7.10
 -15  -3  -2    8.40    7.30
  18  -3   2    1.80    5.50
   4  14  -2  110.49   10.00
   4 -18   2  112.39    9.20
  14 -18  -2   86.89   10.60
  14   4   2  111.69    9.30
 -18  14   2  117.19    9.60
 -18   4  -2   96.89    9.80
  18 -14  -2   84.59    9.70
 -14  18   2   96.79    9.30
  -4 -14   2  104.79    8.30
 -14  -4  -2  106.89   11.10
  18  -4   2   97.59    8.90
  -4  18  -2  111.99   10.50
 -18   5  -2   33.90    7.90
   5  13  -2   35.10    8.50
   5 -18   2   40.00    6.60
 -18  13   2   43.80    7.40
  13 -18  -2   43.70    8.10
  13   5   2   42.50    6.80
  -5  18  -2   37.40    8.50
  -5 -13   2   33.10    6.30
  18 -13  -2   37.40    8.70
  18  -5   2   39.70    7.20
 -13  18   2   27.70    6.90
 -13  -5  -2   51.29    8.40
 -18   6  -2   16.80    7.40
   6  12  -2   20.40    7.10
  12   6   2   18.90    6.00
  12 -18  -2   26.40    7.00
   6 -18   2   16.70    5.90
 -18  12   2    3.30    5.60
 -18  12   2   16.00    5.80
  18  -6   2   14.50    6.30
 -12  18   2   16.30    6.60
  -6 -12   2   23.10    6.50
 -12  -6  -2   22.50    7.20
  -6  18  -2   21.90    7.90
  18 -12  -2    8.70    7.40
 -18  11   2   12.10    5.70
   7 -18   2   30.10    5.90
 -18   7  -2   23.40    7.50
  11   7   2   30.90    6.50
   7  11  -2   35.20    7.90
 -18  11   2   30.80    6.20
  11 -18  -2   35.20    6.00
  11 -18  -2   33.00    7.70
  -7 -11   2   27.20    6.50
 -11  -7  -2   35.40    7.70
  18 -11  -2   27.30    7.80
  18  -7   2   22.80    6.80
 -11  18   2   25.20    6.90
  -7  18  -2   35.40    8.20
 -18  10   2   12.80    5.90
 -18   8  -2   15.80    7.00
  10   8   2   16.20    6.00
  10   8   2   25.00    6.10
 -18  10   2   15.80    5.80
  10 -18  -2   14.10    6.90
   8  10  -2   19.10    6.90
   8 -18   2   20.40    5.80
 -10  -8  -2   21.10    7.20
  18  -8   2   11.10    6.60
 -10  18   2   14.80    7.00
  -8 -10   2   18.10    6.00
  18 -10  -2    7.10    7.20
  -8  18  -2   42.10    9.20
 -18   9   2   -9.20    5.20
   9 -18  -2    5.20    4.10
   9   9   2    4.30    4.90
   9 -18   2    5.20    5.10
   9 -18  -2   10.20    6.80
 -18   9   2   10.60    6.00
   9   9   2   12.50    6.10
   9   9  -2    7.30    6.90
 -18   9  -2    9.50    6.70
   9   9  -2   14.50    4.60
  -9  -9  -2   12.20    6.70
  18  -9   2   -1.80    6.40
  -9  18  -2   12.50    7.70
  18  -9  -2   -0.20    7.40
  -9  -9   2   14.30    5.90
  -9  18   2    9.00    6.90
   8  10   2   72.59    7.20
 -18  10  -2   79.99    9.00
   8 -18  -2   84.49    9.60
  10 -18   2   92.49    9.30
 -18   8   2   70.19    8.40
  10   8  -2   75.19    9.70
   8  10   2   54.19    8.70
   8 -18  -2   75.09    6.20
  10   8  -2   78.49    6.60
  10 -18   2   75.39    8.40
 -18   8   2   73.59    8.60
  -8  18   2   65.09    8.80
  18 -10   2   77.69    9.50
  18  -8  -2   71.19    9.50
 -10  18  -2   84.79    9.90
 -10  -8   2   70.39    8.20
  -8 -10  -2   83.59   10.30
   7  11   2  164.88   10.30
 -18   7   2  146.49    9.60
  11 -18   2  167.48   10.60
 -18  11  -2  152.88   10.90
 -18   7   2  137.79   10.40
  11   7  -2  155.28    8.70
   7 -18  -2  163.68    8.80
  11   7  -2  158.38   11.30
  11 -18   2  178.68   10.40
   7 -18  -2  161.48   11.20
   7  11   2  130.59   10.90
  -7 -11  -2  175.68   11.60
 -11  18  -2  167.98   12.50
  18  -7  -2  145.39   10.90
  -7  18   2  135.49   10.80
 -11  -7   2  165.48   10.50
  18 -11   2  159.48   11.00
   6 -18  -2   57.79    6.50
   6  12   2   56.49    8.80
  12   6  -2   57.09    9.20
 -18  12  -2   51.99    9.00
 -18   6   2   51.19    8.00
  12 -18   2   75.69    8.70
   6 -18  -2   61.39    9.10
 -18  12  -2   54.09    9.40
   6  12   2   52.69    7.80
  12 -18   2   60.69    8.70
  12   6  -2   60.29    6.90
 -18   6   2   36.90    7.00
  -6 -12  -2   55.89    7.90
  -6  18   2   56.29    8.60
  18  -6  -2   61.69    8.90
  18 -12   2   46.50    8.00
 -12  -6   2   46.00    7.80
 -12  18  -2   49.10    8.70
  13 -18   2  102.69    9.70
  13   5  -2   99.99    8.00
   5 -18  -2   95.69    7.50
 -18  13  -2  111.59    8.00
  13 -18   2  112.79   10.10
   5  13   2  118.39    9.20
   5  13   2   86.69   10.30
 -18   5   2   93.99    8.20
   5 -18  -2  111.89    9.70
 -18   5   2   88.79    9.10
  18  -5  -2   80.99    9.50
  -5 -13  -2  100.69    8.60
  18 -13   2   98.99   11.40
  -5  18   2   88.59    9.60
  18 -13   2   83.79   10.30
 -13  -5   2   92.69    9.00
 -13  18  -2   98.79    9.60
   4 -18  -2  169.68    9.80
   4  14   2  161.58   11.90
   4 -18  -2  180.18   11.20
  14 -18   2  163.68   11.30
   4  14   2  168.88   10.70
 -18   4   2  152.68   11.00
 -18  14  -2  179.08    9.60
 -18   4   2  134.79    9.90
  14 -18   2  160.18   11.90
  14   4  -2  170.48    9.80
 -14  -4   2  158.68   10.50
  -4  18   2  147.99   10.90
 -14  18  -2  168.08   11.00
  18 -14   2  136.19   12.40
  18 -14   2  176.68   13.70
  -4 -14  -2  161.28   10.20
  18  -4  -2  160.78   11.80
   3 -18  -2   47.70    7.10
 -18   3   2   41.40    7.90
   3  15   2   45.90    8.60
  15 -18   2   42.10    8.30
  15   3  -2   54.39    7.90
  15 -18   2   50.49    8.30
 -18   3   2   38.10    6.70
 -18  15  -2   60.29    8.40
   3  15   2   62.69    8.50
   3 -18  -2   75.49    8.90
  18  -3  -2   48.40    8.50
  18 -15   2   64.09   10.10
 -15  18  -2   45.40    8.20
  -3 -15  -2   57.99    8.70
  18 -15   2   31.90    8.00
 -15  -3   2   34.10   10.30
 -15  -3   2   45.10    7.80
  -3  18   2   46.00    7.90
  16   2  -2   37.40    7.40
   2  16   2   36.00    8.20
 -18   2   2   27.30    7.00
   2  16   2   36.40    7.90
 -18  16  -2   59.29    8.50
  16 -18   2   60.79    9.80
   2 -18  -2   40.30    7.10
 -18   2   2   45.70    8.60
  -2 -16  -2   46.70    8.40
  18 -16   2   37.80    9.30
  18  -2  -2   43.80    8.00
 -16  18  -2   47.60    8.50
  18 -16   2   19.60    8.70
  -2  18   2   32.20    7.50
 -16  -2   2   46.80   10.30
 -16  -2   2   20.50    6.70
 -18  17  -2   52.69    8.10
 -18   1   2   34.70    9.00
  17 -18   2   44.00    8.10
  17   1  -2   45.90    7.80
   1  17   2   42.70    8.20
  17 -18   2   20.40    8.90
   1 -18  -2   54.39    8.00
 -18   1   2   42.00    7.70
   1  17   2   63.69    9.10
 -17  -1   2   45.90   10.30
 -17  18  -2   69.09   11.90
  18 -17   2   41.90    8.80
  -1 -17  -2   48.30    8.20
  -1  18   2   48.20    8.60
  18 -17   2   23.10    9.00
  -1  18   2   43.80    8.90
  18  -1  -2   55.69    8.50
 -17  -1   2   38.20    7.70
  18 -18   2   -5.80    8.10
 -18   0   2   12.60    6.10
   0  18   2   13.00    7.80
 -18   0   2   -2.90    9.00
 -18  18  -2   14.70    7.30
  18 -18   2   10.20    7.30
   0  18   2   16.00    7.40
  18   0  -2   16.70    7.00
   0 -18  -2   24.70    6.80
  19 -19  -2   -0.50    7.10
   0  19  -2   -1.70    8.30
 -19   0  -2   15.80    8.00
  19   0   2    7.40    6.40
   0 -19   2    0.40    5.30
 -19   1  -2   11.10    7.80
 -19  18   2    5.40    6.70
  18 -19  -2    7.10   12.40
   1  18  -2   -0.70    7.40
  18   1   2   12.50    7.20
   1 -19   2    5.70    5.60
  19  -1   2   11.00    6.60
  19 -18  -2    5.00    7.20
  -1  19  -2    6.20    7.60
 -18  19   2    9.30    7.20
 -18  -1  -2    9.50    7.70
  -1 -18   2    8.70    5.50
  17 -19  -2    5.20    7.10
  17   2   2   -1.30    5.70
 -19  17   2   -2.90    6.70
 -19   2  -2   -0.20    7.30
  19  -2   2    5.90    9.10
  -2 -17   2    2.40    5.30
 -17  -2  -2    4.80    7.60
 -17  19   2    2.30    6.30
  -2  19  -2    7.00    7.40
  16   3   2   11.10    6.80
   3 -19   2   11.90    5.70
  16 -19  -2    8.20    6.90
   3  16  -2   17.60    7.60
 -19   3  -2   22.60    7.80
 -19  16   2   10.10    6.10
 -16  19   2   16.40    7.10
  -3 -16   2   15.50    6.60
  19 -16  -2   10.90    7.60
  19  -3   2   16.00    7.60
  15 -19  -2    2.80    6.60
   4  15  -2   -0.20    6.60
  15   4   2    1.00    5.80
 -19  15   2    5.30    6.60
 -19   4  -2   12.90    8.30
   4 -19   2    6.20    5.20
  19  -4   2    5.30    6.60
 -15  19   2   -3.60    6.10
  -4  19  -2    1.80    7.30
  -4 -15   2    7.40    5.30
  19 -15  -2    9.00    7.50
 -15  -4  -2    8.70    7.50
   5 -19   2   20.40    5.50
  14   5   2   19.30    5.80
  14 -19  -2   15.10    7.80
 -19   5  -2   17.50    7.20
 -19  14   2   21.30    6.90
   5  14  -2   21.60    7.20
 -14  -5  -2   21.70    7.50
  -5  19  -2   18.10    7.80
  19 -14  -2   10.70    7.60
  -5 -14   2   18.90    5.80
 -14  19   2   13.80    6.70
  19  -5   2   10.50    6.90
  13   6   2   31.70    6.10
 -19   6  -2   30.00    7.40
   6 -19   2   24.60    5.60
  13 -19  -2   37.10    7.80
   6  13  -2   32.00    8.30
 -19  13   2   23.60    6.40
  -6 -13   2   23.60    6.00
 -13  19   2   29.20    6.90
 -13  -6  -2   35.60    7.60
  19  -6   2   23.00    6.70
  19 -13  -2   25.80    7.70
  -6  19  -2   21.00    8.00
  12   7   2   -2.60    4.70
 -19  12   2   -0.50    6.10
  12 -19  -2   -7.70    6.00
   7  12  -2    9.90    6.60
   7 -19   2    5.80    5.00
 -19   7  -2    7.90    6.80
 -12  19   2   -1.70    5.80
  19  -7   2   -6.90    5.50
 -12  -7  -2   -4.40    7.20
  -7 -12   2    8.60    5.40
  19 -12  -2   -3.50    6.70
  -7  19  -2   17.50    8.00
   8  11  -2    4.90    6.70
 -19  11   2    6.10    5.90
 -19   8  -2   11.90    6.80
  11 -19  -2   11.40    6.30
 -19  11   2    0.50    5.30
   8 -19   2    4.90    5.00
  11   8   2   13.50    5.60
  11   8   2    4.40    5.60
 -11  -8  -2    9.00    6.60
  -8 -11   2    3.50    5.50
  -8  19  -2    8.90    7.50
 -11  19   2    4.10    6.20
  19 -11  -2    2.00    7.10
  19  -8   2    6.10    6.10
  10 -19  -2   24.90    7.20
 -19  10   2   21.70    6.30
  10 -19  -2   15.20    4.70
   9 -19   2   21.70    5.80
  10   9   2   30.20    5.80
 -19  10   2    7.70    6.30
  10   9   2   34.40    6.80
   9  10  -2   31.30    7.90
 -19   9  -2   29.90    7.40
  19 -10  -2   18.80    7.30
  19  -9   2   20.70    6.90
  -9  19  -2   29.50    8.50
 -10  -9  -2   36.80    7.40
 -10  19   2   21.00    7.10
  -9 -10   2   29.20    6.30
  10 -19   2  105.79    9.00
  10   9  -2  107.49    7.20
  10   9  -2   96.49    9.50
 -19   9   2   94.89    8.90
   9  10   2   97.29    8.00
   9 -19  -2  108.79    9.90
 -19   9   2   66.79    9.10
 -19  10  -2  106.59    9.70
   9  10   2  114.79   10.50
   9 -19  -2  101.39    7.20
 -10  19  -2  113.29   10.40
  -9 -10  -2  105.89    9.60
 -10  -9   2   92.69    8.50
  19 -10   2  115.99    9.60
  19  -9  -2   93.79    9.80
  -9  19   2   97.79    9.30
 -19  11  -2   54.19    8.40
 -19   8   2   42.70    7.10
   8  11   2   48.90    8.20
  11 -19   2   42.30    6.70
  11   8  -2   61.09    6.50
  11   8  -2   46.40    8.10
 -19   8   2   44.80    7.80
   8 -19  -2   50.49    6.10
   8  11   2   42.70    6.60
   8 -19  -2   50.39    8.10
 -11  19  -2   46.70    8.40
  -8 -11  -2   57.79    9.30
  19 -11   2   35.50    7.60
  19  -8  -2   42.30    8.20
  -8  19   2   36.70    7.30
 -11  -8   2   53.89    8.70
  12 -19   2  109.99    8.80
 -19  12  -2  110.49   10.00
  12 -19   2  143.99    9.90
  12   7  -2  138.09    8.20
   7  12   2  116.29    9.10
   7  12   2  108.99   10.70
   7 -19  -2  130.19   10.40
  12   7  -2  117.49   10.70
 -19   7   2   94.59    9.80
 -19   7   2  102.79    9.60
   7 -19  -2  109.49    8.00
  19 -12   2   78.89    9.40
 -12  -7   2  109.99   10.00
 -12  19  -2  102.89   11.20
  -7  19   2  106.29   10.70
  -7 -12  -2  113.89   10.20
  19  -7  -2   95.59    9.60
  13   6  -2  211.18   12.30
   6  13   2  193.28   12.60
 -19   6   2  195.48   11.70
 -19  13  -2  211.58   13.20
   6  13   2  185.98   11.10
  13   6  -2  179.08   10.30
  13 -19   2  194.28   11.20
   6 -19  -2  180.78   11.80
   6 -19  -2  186.28   10.30
  13 -19   2  195.88   11.80
 -19  13  -2  201.28    9.90
 -19   6   2  173.08   10.60
 -13  -6   2  178.48   10.90
  19  -6  -2  178.98   11.70
  -6  19   2  170.58   11.50
  19 -13   2  176.58   12.90
 -13  19  -2  184.78   12.00
  -6 -13  -2  179.08   11.00
 -19   5   2    5.60    6.40
  14 -19   2   19.60    6.90
   5  14   2   10.80    6.60
   5 -19  -2   11.50    5.20
 -19   5   2    8.90    6.20
 -19  14  -2   23.00    5.40
  14   5  -2   15.50    6.40
   5 -19  -2   11.50    7.00
  14 -19   2    9.80    5.90
   5  14   2    5.20    6.00
  14   5  -2   22.80    5.70
  -5 -14  -2    1.10    5.80
  19 -14   2   -9.80    7.20
 -14  19  -2   13.90    6.90
  19  -5  -2   12.70    7.30
  -5  19   2    5.00    6.40
 -14  -5   2    4.60    6.10
 -19   4   2  115.79   10.30
  15   4  -2  126.79    9.30
  15 -19   2  111.09   10.50
 -19   4   2   94.09    9.80
   4 -19  -2  156.28   11.50
  15 -19   2  113.09   10.70
 -19  15  -2  124.49    9.20
   4 -19  -2  120.19    8.70
   4  15   2  111.49   11.40
   4  15   2  119.29   10.80
  -4 -15  -2  121.49   10.40
 -15  19  -2  132.39   11.20
  19 -15   2  128.09   11.70
  19  -4  -2  106.69    9.70
 -15  -4   2  104.49    9.50
  19 -15   2  108.99   10.80
  -4  19   2   87.59    9.80
   3 -19  -2  132.89   11.00
   3  16   2  147.59   10.60
  16   3  -2  139.29    9.90
  16 -19   2  127.39   11.50
 -19   3   2  120.19   10.40
 -19   3   2  106.39   11.40
 -19  16  -2  147.19    9.70
   3 -19  -2  134.29    9.30
   3  16   2  121.69   10.60
  19 -16   2  132.49   11.80
  -3 -16  -2  130.19    9.60
 -16  -3   2  111.29   10.20
 -16  19  -2  121.59   10.30
  -3  19   2  111.39   10.10
  19  -3  -2  119.79   10.00
  19 -16   2  110.19   11.10
   2  17   2   21.90    7.70
 -19  17  -2   50.89    9.40
  17 -19   2   24.20    8.20
   2 -19  -2   35.30    6.60
  17 -19   2   -3.90    8.20
   2  17   2   27.70    8.40
  17   2  -2   33.80    7.30
 -19   2   2   21.80    9.00
 -19   2   2   14.20    6.90
  -2 -17  -2   31.10    6.60
 -17  -2   2   -2.30    9.80
 -17  19  -2   40.90    8.00
  19 -17   2   16.90    9.00
  19  -2  -2   26.60    7.10
 -17  -2   2   15.30    6.60
  -2  19   2   19.20    8.00
  19 -17   2   19.40    8.30
 -19   1   2   -9.80    8.50
  18 -19   2   -8.90    7.80
 -19   1   2   -0.90    5.90
   1 -19  -2   12.40    6.10
  18 -19   2   -1.30    6.80
  18   1  -2    2.90    7.10
   1  18   2   -4.90    7.50
   1  18   2    3.30    7.90
 -19  18  -2   10.80    6.90
 -18  -1   2   -7.20    5.90
  -1  19   2   -0.90    6.90
  19 -18   2   -3.80    7.50
 -18  19  -2   18.70    7.50
  -1 -18  -2    5.60    6.40
  19 -18   2   -5.50    7.60
 -18  -1   2  -17.60    9.40
  19  -1  -2    4.90    6.10
  19   0  -2    9.70    7.50
 -19   0   2   -8.20    9.70
  19 -19   2   11.40    8.10
   0  19   2    8.50    8.20
  19 -19   2   15.20    9.00
   0  19   2   17.40    9.10
 -19  19  -2   21.00    8.00
 -19   0   2   14.40    6.60
   0 -19  -2   16.30    6.90
   0  20  -2   -1.10    8.30
   0 -20   2   -1.70    5.40
  20 -20  -2   -6.20    8.20
 -20  20   2    0.30    6.90
  20   0   2    3.70    7.20
 -20   0  -2    9.60    7.60
   1 -20   2   12.00    6.50
  19 -20  -2    9.10    7.60
 -20   1  -2   16.30    8.10
  19   1   2   -0.10    6.10
   1  19  -2   17.40    7.90
 -20  19   2   12.90    6.90
  20 -19  -2   11.00    7.70
 -19  -1  -2   22.50    8.60
  20  -1   2    7.10    6.80
  -1 -19   2    4.70    5.40
 -19  20   2   15.30    7.90
  -1  20  -2    9.60    7.80
   2 -20   2    2.50    6.20
   2  18  -2    2.20    7.20
  18 -20  -2    5.40    8.00
 -20   2  -2    3.00    7.50
  18   2   2    0.20    6.10
 -20  18   2    9.00    6.70
  -2 -18   2    5.10    5.50
 -18  -2  -2    8.60    7.40
  -2  20  -2   -0.50    7.50
 -18  20   2   -2.40    6.60
  20  -2   2    2.60    6.00
  20 -18  -2    4.40    7.70
 -20  17   2   15.50    7.60
   3 -20   2   16.20    5.90
 -20   3  -2   24.10    8.80
   3  17  -2    8.70    7.70
  17 -20  -2    9.80   13.10
  20 -17  -2   21.50    8.00
 -17  -3  -2   15.60    8.00
  -3 -17   2    8.70    5.60
  -3  20  -2   10.20    7.80
 -17  20   2    5.70    7.10
  20  -3   2    8.30    6.40
 -20   4  -2   11.90    7.70
 -20  16   2   -0.60    5.80
  16   4   2    9.90    6.00
  16 -20  -2   -0.60    7.60
  20 -16  -2    9.20    7.50
  -4 -16   2   11.40    5.70
  20  -4   2    3.60    6.10
 -16  -4  -2    9.00    7.50
  -4  20  -2    9.20    8.60
 -16  20   2   10.50   11.70
   5  15  -2    2.70    7.80
  15 -20  -2    0.70    6.90
   5 -20   2    9.90    5.90
 -20  15   2    5.70    6.70
  15   5   2    7.90    6.10
  -5  20  -2    5.30    7.40
 -15  -5  -2   10.20    7.20
  -5 -15   2    5.70    5.40
  20  -5   2    0.70    6.90
  20 -15  -2    9.90    8.10
   6 -20   2    4.30    5.20
  14 -20  -2  -10.30    7.30
 -20  14   2    9.40    6.10
  14   6   2    1.90    5.20
 -20   6  -2   10.40    7.30
   6  14  -2    6.90    6.90
 -14  20   2    1.10    6.80
  20 -14  -2    7.70   13.00
 -20   7  -2   34.10    7.60
  13 -20  -2   18.70    6.90
  13   7   2   25.20    6.00
 -20  13   2   31.00    7.50
   7 -20   2   26.10    6.10
   7  13  -2   24.60    7.40
  20 -13  -2   14.50    8.70
 -13  20   2   19.10    6.90
  -7  20  -2   37.70    9.60
  20  -7   2   17.10    7.70
  -7 -13   2   11.60    6.60
 -13  -7  -2   32.90    7.50
 -20  12   2    6.40    5.30
  12 -20  -2   -1.90    7.00
   8 -20   2    6.00    5.10
   8  12  -2    7.60    6.70
 -20  12   2    0.20    6.30
 -20   8  -2    9.20    8.00
  12   8   2    4.60    5.20
  20 -12  -2    7.30    7.20
 -12  -8  -2   14.90    7.60
  20  -8   2  -10.90    5.60
  -8  20  -2    4.00    8.00
  -8 -12   2    3.50    5.50
 -12  20   2   -2.50    6.20
 -20  11   2   43.60    7.10
   9  11  -2   42.50    8.80
  11   9   2   33.30    6.90
 -20   9  -2   40.80    8.00
  11 -20  -2   35.00    8.30
 -20  11   2   27.20    7.20
   9 -20   2   40.00    6.90
 -11  20   2   38.10    7.40
  20  -9   2   29.30    7.20
  -9  20  -2   38.90    8.50
 -11  -9  -2   36.50    7.60
  20 -11  -2   33.30    7.80
  -9 -11   2   34.80    6.70
  10 -20  -2   37.40    7.50
  10  10   2   56.79    9.30
  10 -20   2   43.60    6.90
 -20  10  -2   57.59    8.80
 -20  10   2   38.60    7.40
 -20  10   2   27.00    7.10
  10  10  -2   40.30    8.60
  10  10   2   36.00    6.40
  20 -10   2   38.70    7.70
 -10  20   2   43.50    8.60
  20 -10  -2   38.70    8.40
 -10 -10   2   30.40    6.70
 -10 -10  -2   40.00    7.60
 -10  20  -2   35.80    8.20
  11 -20   2   69.99    7.60
   9 -20  -2   68.89    7.00
   9 -20  -2   75.79    9.60
  11   9  -2   81.29    9.30
 -20  11  -2   75.79    9.20
 -20   9   2   83.69    8.80
   9  11   2   80.99    8.40
 -20   9   2   71.99    8.80
   9  11   2   85.19   10.80
  20  -9  -2   72.09    9.30
 -11  -9   2   74.39    8.10
  20 -11   2   50.79    9.00
  -9  20   2   67.29    9.00
  -9 -11  -2   78.69    8.80
 -11  20  -2   73.99    9.80
   8 -20  -2  142.09    8.70
 -20   8   2  120.19   10.50
   8  12   2  140.89    9.90
   8  12   2  143.59   12.30
  12 -20   2  157.68   10.30
 -20  12  -2  150.88   11.50
  12   8  -2  155.78    8.60
 -20   8   2  123.49   10.50
   8 -20  -2  135.29   10.80
  12 -20   2  130.69    9.40
  12   8  -2  132.69   10.30
  20  -8  -2  125.09   10.50
  20 -12   2  121.19   10.80
 -12  -8   2  135.79    9.90
  -8 -12  -2  132.09   10.90
  -8  20   2  111.39   10.90
 -12  20  -2  133.19   11.00
   7  13   2   15.10    7.90
  13   7  -2   19.80    7.20
 -20  13  -2   10.70    7.10
   7  13   2   13.60    5.60
  13   7  -2   19.40    5.30
 -20   7   2    3.60    6.20
 -20   7   2    3.30    6.60
   7 -20  -2   15.10    5.00
  13 -20   2   11.20    6.70
   7 -20  -2    5.50    7.30
  -7  20   2   12.50    6.70
  20  -7  -2   14.20    8.00
  -7 -13  -2    4.70    6.70
  20 -13   2    2.30    7.20
 -13  20  -2   10.30    8.10
 -13  -7   2    7.00    6.00
   6  14   2  182.38   11.60
 -20   6   2  198.68   12.10
  14   6  -2  191.98   10.60
   6 -20  -2  198.48   12.40
 -20   6   2  183.48   11.40
   6 -20  -2  189.08   10.50
  14 -20   2  218.88   12.50
   6  14   2  199.78   13.40
  14 -20   2  216.48   12.90
 -20  14  -2  214.48   13.30
  14   6  -2  199.68   12.70
  -6  20   2  149.29   11.60
  -6 -14  -2  200.08   12.20
  20 -14   2  186.78   13.70
 -14  -6   2  172.58   11.90
  20  -6  -2  179.38   11.80
 -14  20  -2  190.38   12.30
 -20   5   2  290.47   14.80
   5 -20  -2  280.27   13.10
   5  15   2  289.67   14.80
   5 -20  -2  262.87   14.60
 -20  15  -2  296.67   13.40
  15 -20   2  274.37   15.50
 -20   5   2  249.68   14.50
  15   5  -2  308.77   14.90
   5  15   2  281.37   15.80
  15 -20   2  272.67   14.10
  15   5  -2  281.57   13.30
 -15  20  -2  283.57   15.40
  20 -15   2  256.27   15.80
 -15  -5   2  248.18   13.60
  20  -5  -2  254.47   14.10
  -5 -15  -2  272.57   13.90
   4 -20  -2   37.30    6.60
  16   4  -2   60.99    9.80
 -20   4   2   42.80    8.10
  16   4  -2   63.99    8.30
  16 -20   2   33.60    7.60
 -20   4   2   32.50    8.70
 -20  16  -2   53.69    8.40
  16 -20   2   24.10    8.90
   4  16   2   38.80    8.50
   4  16   2   37.50    7.80
   4 -20  -2   39.70    8.40
 -16  20  -2   48.20    9.00
  20  -4  -2   33.60    8.50
  20 -16   2   30.10    8.60
  -4 -16  -2   43.10    7.60
 -16  -4   2   30.60    7.20
  20 -16   2   26.00    9.30
  17 -20   2   -8.60    8.10
   3 -20  -2   29.90    6.60
   3 -20  -2   34.60    8.60
 -20  17  -2   37.10    7.40
 -20   3   2   20.70    7.50
  17   3  -2   18.00    7.20
  17 -20   2   26.20    8.40
 -20   3   2   15.40    8.10
   3  17   2   16.30    8.40
   3  17   2   13.30    7.70
  20 -17   2   16.50    9.30
  20  -3  -2   20.40    8.00
 -17  -3   2   10.60    6.50
  20 -17   2   26.60    9.90
  -3 -17  -2   23.70    7.20
 -17  20  -2   24.10    8.10
  -3  20   2   14.80    8.10
   2  18   2   35.30    9.40
 -20   2   2   31.00    9.90
  18 -20   2   21.00    9.30
  18 -20   2   37.10    9.10
   2 -20  -2   64.99   10.00
   2 -20  -2   38.60    7.10
  18   2  -2   52.49    8.90
 -20   2   2   33.20    7.30
   2  18   2   35.40    9.40
 -20  18  -2   60.29    8.70
  -2  20   2   20.40    7.50
  -2 -18  -2   33.20    7.70
  20 -18   2   41.30   10.50
  20 -18   2   34.60    9.00
  20  -2  -2   35.70    8.50
 -18  20  -2   41.00    8.40
  19 -20   2   28.90    9.80
   1 -20  -2   30.50    7.10
 -20   1   2   24.20   10.30
  19 -20   2   12.80    8.90
  19   1  -2   31.80    8.20
   1  19   2   20.20    8.90
 -20  19  -2   38.40    8.60
   1 -20  -2   39.90    8.60
 -20   1   2   27.70    7.20
  20 -19   2   26.90   10.20
 -19  -1   2    1.50   11.00
  -1  20   2   19.20    8.30
  -1 -19  -2   23.30    6.60
 -19  -1   2   15.50    8.00
  20  -1  -2   30.80    8.60
 -19  20  -2   26.20    8.70
   0 -20  -2   21.50    7.10
 -20  20  -2   28.50    8.30
  20   0  -2   20.40    8.50
  20 -20   2   19.20   10.00
 -20   0   2   12.00    7.90
   0  20   2    1.80    7.20
  20 -20   2    2.70    9.20
 -21   0  -2   15.80    7.70
 -21  21   2    7.70    7.30
  21   0   2    5.90    7.50
  21 -21  -2   15.30    8.10
   0 -21   2   13.50    5.90
   0  21  -2    9.70    8.70
 -21   1  -2   21.90    8.10
 -21  20   2   26.40    7.80
  20 -21  -2   24.50    8.30
   1 -21   2   31.30    7.20
   1  20  -2   28.60    8.40
  20   1   2   16.00    7.00
  -1 -20   2   24.70    6.30
 -20  21   2   36.40    8.70
 -20  -1  -2   28.10    8.20
  -1  21  -2   21.10    8.20
  21 -20  -2   34.20    9.50
  21  -1   2   26.90    7.00
   2  19  -2    4.90    7.60
   2 -21   2   16.60    6.10
 -21  19   2   23.80    7.50
 -21   2  -2   17.10    7.90
  19 -21  -2   16.30    8.40
  19   2   2   15.60    7.80
  21 -19  -2   10.90    7.70
  -2  21  -2   10.20    7.70
 -19  21   2   14.90    7.20
  -2 -19   2    7.20    5.80
  21  -2   2   18.40    6.60
 -19  -2  -2   25.10    8.20
   3  18  -2    2.80    7.50
  18 -21  -2   11.80    8.40
 -21   3  -2    9.40    7.50
   3 -21   2    5.90    5.60
  18   3   2    5.20    6.30
  21 -18  -2   -3.40    8.00
  -3  21  -2   10.90    9.00
  -3 -18   2    7.90    5.70
  21  -3   2    4.00    6.50
 -18  21   2   11.30    7.70
 -18  -3  -2    2.90    7.40
   4 -21   2    0.30    6.10
  17   4   2    3.60    6.10
  17 -21  -2    4.60    7.30
 -21  17   2   14.60    7.70
 -21   4  -2   15.90    8.20
   4  17  -2    7.60    8.00
  -4  21  -2    7.10    7.90
  21 -17  -2    6.70    7.20
 -17  -4  -2    5.80    7.10
 -17  21   2   -4.10    6.10
  -4 -17   2    4.10    5.60
  21  -4   2   -4.20    5.80
   5  16  -2   24.40    8.20
 -21  16   2   27.00    7.10
  16 -21  -2   26.40    9.70
 -21   5  -2   36.30    8.40
   5 -21   2   19.90    6.00
 -16  -5  -2   30.50    8.00
  21  -5   2   24.80    7.60
  -5  21  -2   24.40    8.70
  21 -16  -2   26.00    8.10
 -16  21   2   22.60    7.30
  -5 -16   2   13.00    6.50
 -21   6  -2   40.20    8.40
   6 -21   2   17.50    6.00
  15 -21  -2   17.70    8.40
 -21  15   2   31.40    7.30
  15   6   2   35.00    6.70
 -15  21   2   28.50    7.60
  -6  21  -2   24.60    8.70
 -15  -6  -2   32.10    8.10
  -6 -15   2   25.40    6.20
  21 -15  -2   27.80    8.20
  21  -6   2   30.40    8.00
  14   7   2    8.70    6.50
 -21   7  -2   13.50    7.60
 -21  14   2    0.10    7.00
  14 -21  -2   -2.20    7.30
   7 -21   2   11.80    6.60
   7  14  -2   18.20    7.50
  -7  21  -2    6.30    8.10
  -7 -14   2    5.40    5.50
  21  -7   2    2.00    6.50
 -14  -7  -2   16.20    7.10
  21 -14  -2   17.80    7.90
 -14  21   2    7.80    6.50
   8 -21   2   30.70    6.40
   8  13  -2   35.10    8.90
  13 -21  -2   27.20    8.30
 -21  13   2   40.30    7.80
  13   8   2   43.70    7.40
  21  -8   2   26.40    7.00
  -8  21  -2   29.20    8.70
  -8 -13   2   32.80    6.70
 -13  -8  -2   41.80    7.90
  21 -13  -2   46.90    9.00
 -13  21   2   27.90    7.10
 -21  12   2   19.70    7.40
   9  12  -2   33.00    8.80
  12   9   2   33.30    6.80
 -21   9  -2   31.50    9.00
  12 -21  -2   16.00    7.70
   9 -21   2   26.50    6.40
 -21  12   2   35.50    7.60
  21  -9   2   21.20    7.20
 -12  -9  -2   27.80    7.60
 -12  21   2   23.50    6.90
  -9 -12   2   24.90    6.50
  -9  21  -2   28.20    9.30
  21 -12  -2   26.10    8.00
 -21  11   2   19.10    7.10
  10 -21   2   20.10    6.00
  11 -21  -2   10.00    8.00
 -21  10  -2   21.00    7.50
  11  10   2   20.30    6.60
  10  11  -2   23.50    8.30
  21 -10   2   10.30    6.80
 -10 -11   2   12.60    6.60
 -11  21   2   10.50    6.70
  21 -11  -2   20.70    8.10
 -21  10   2   69.79    9.90
  10  11   2   67.19    8.50
  11  10  -2   82.69   10.80
  10 -21  -2   73.29    9.90
 -21  11  -2   94.99    9.80
 -21  10   2   66.99    8.90
  11 -21   2   80.49    8.90
  10  11   2   99.79   11.10
 -10 -11  -2   64.59   10.20
  21 -10  -2   66.89    9.50
 -11  21  -2   64.39    9.90
  21 -11   2   62.09    9.30
 -10  21   2   74.59    9.40
 -11 -10   2   78.79    9.20
 -21   9   2   23.40    7.10
   9  12   2   33.60    8.30
  12 -21   2   15.80    6.20
 -21  12  -2   15.40    7.40
   9 -21  -2    1.60    7.10
   9 -21  -2   24.30    6.00
 -21   9   2   13.30    6.90
   9  12   2   26.70    7.00
  12   9  -2   21.30    8.10
  -9 -12  -2   22.20    7.50
  21  -9  -2   15.20    7.50
  -9  21   2    8.80    6.70
 -12  21  -2    8.60    7.50
 -12  -9   2   16.10    6.20
  21 -12   2   21.60    7.60
 -21   8   2  145.89   11.70
  13   8  -2  169.18   12.90
   8  13   2  175.38   13.10
   8  13   2  169.68   11.00
   8 -21  -2  170.18   10.00
 -21  13  -2  163.18   11.80
 -21   8   2  172.18   11.70
   8 -21  -2  172.68   11.90
  13 -21   2  169.18   11.90
  13   8  -2  194.98    9.90
 -13  21  -2  169.18   12.20
  21 -13   2  145.49   18.40
  -8 -13  -2  166.08   11.10
  -8  21   2  149.99   11.90
  21  -8  -2  155.28   11.90
 -13  -8   2  149.09   10.50
   7 -21  -2  287.47   13.50
  14 -21   2  295.97   15.20
  14   7  -2  295.37   15.30
   7 -21  -2  275.17   14.70
  14   7  -2  278.57   13.30
   7  14   2  266.77   14.00
 -21   7   2  273.87   14.40
   7  14   2  281.27   16.10
  14 -21   2  258.37   13.80
 -21  14  -2  268.97   14.40
 -21   7   2  264.57   14.80
  -7  21   2  247.78   14.00
 -14  21  -2  274.07   14.80
  -7 -14  -2  271.47   13.90
  21  -7  -2  245.58   14.30
   6  15   2   36.60    7.50
   6  15   2   40.80    9.30
 -21   6   2   27.50    7.70
 -21   6   2   20.30    7.90
 -21  15  -2   47.70    9.60
  15   6  -2   47.40    8.70
  15 -21   2   26.70    7.20
   6 -21  -2   23.60    6.40
   6 -21  -2   34.20    8.20
  15 -21   2    5.80    7.70
 -15  21  -2   29.10    8.90
  21  -6  -2   21.00    7.70
 -15  -6   2   16.10    7.30
  -6  21   2   17.60    6.90
  -6 -15  -2   30.10    7.30
   5  16   2   69.69    9.70
 -21  16  -2   91.69   10.20
  16   5  -2   74.89    9.40
   5  16   2   83.19   11.40
   5 -21  -2   76.19   11.40
  16 -21   2   73.39   10.60
  16 -21   2   56.49    9.90
  16   5  -2   88.19   10.80
   5 -21  -2   82.99    8.30
 -21   5   2   93.39   11.50
 -21   5   2   69.89   10.10
  -5 -16  -2   99.49   10.10
 -16  21  -2   84.79   11.20
  -5  21   2   61.89    9.30
 -16  -5   2   50.69    8.60
  21  -5  -2   72.99   11.00
  17   4  -2  139.79   11.20
   4  17   2  118.29   12.30
 -21   4   2  113.39   11.00
  17 -21   2  100.29   10.50
   4  17   2  106.69   11.00
 -21   4   2  114.09   11.70
  17   4  -2  127.19   10.10
   4 -21  -2   88.49    9.40
  17 -21   2   93.39   11.90
   4 -21  -2  107.19   11.40
 -17  -4   2   81.89   10.50
  -4 -17  -2  107.79   10.60
  21  -4  -2  103.29   10.10
 -17  21  -2  117.09   11.60
  21 -17   2   99.19   17.40
  -4  21   2   90.59   11.00
   3  18   2   32.00    9.60
   3  18   2   23.10    8.90
  18   3  -2   41.40    8.70
 -21   3   2   29.50    8.20
 -21  18  -2   48.10    8.80
  18   3  -2   37.10    7.80
 -21   3   2   22.70   10.00
   3 -21  -2   38.80    7.40
  18 -21   2   26.60    9.50
  21 -18   2   26.90   10.00
  21 -18   2   19.30   10.70
  -3  21   2   18.70    7.60
  -3 -18  -2   31.30    7.20
 -18  21  -2   32.60    8.80
 -18  -3   2   16.60    6.80
  21  -3  -2   30.00    7.80
   2  19   2   16.70    8.50
  19 -21   2    5.70    8.40
   2 -21  -2   11.80    6.50
  19 -21   2    1.30    9.20
   2 -21  -2   19.00    8.60
 -21  19  -2   14.60    7.60
   2  19   2   16.50    8.20
  19   2  -2   11.90    7.50
 -21   2   2  -20.60    9.90
 -19  21  -2   12.00    8.40
  21 -19   2    5.30    8.70
  -2 -19  -2    0.90    7.60
 -19  -2   2   11.90    6.50
  -2  21   2   15.20    6.90
  21  -2  -2   22.90    8.50
  21 -19   2   10.00    9.80
   1 -21  -2   34.30    9.50
 -21   1   2  -13.50   10.10
 -21  20  -2   24.50    7.90
   1  20   2   -3.90    8.10
 -21   1   2    0.30    7.30
  20 -21   2    7.20    8.20
   1 -21  -2   -1.40    6.90
  20 -21   2    5.00    9.70
 -20  21  -2    9.10    7.70
  -1  21   2   -3.70    6.90
  21 -20   2  -14.60    8.30
  21 -20   2   10.10    9.60
 -20  -1   2   -0.10    6.80
  21  -1  -2    6.10    8.20
   0 -21  -2    2.10    7.20
   0  21   2    3.30    8.20
  21 -21   2    2.40    9.40
 -21   0   2    2.00    7.10
  21 -21   2   -0.10    9.60
 -21  21  -2   15.00    8.40
  21   0  -2   22.90    8.30
   0 -22   2   42.90    7.70
   0  22  -2   30.80    9.20
  22   0   2   30.00    8.70
 -22  22   2   34.20    8.30
 -22   0  -2   33.70    8.80
  22 -22  -2   24.20    8.10
   1 -22   2   11.20    6.00
 -22  21   2   12.10    7.60
  21 -22  -2   18.50    8.50
  21   1   2   17.90    8.10
 -22   1  -2   23.60    8.00
   1  21  -2   12.00    8.00
 -21  -1  -2   14.20    8.00
  -1  22  -2    5.20    9.10
 -21  22   2   13.70    8.40
  22  -1   2   14.30    7.30
  22 -21  -2   16.60    8.70
  -1 -21   2   11.30    5.80
   2  20  -2    9.10    7.90
 -22  20   2   16.20    8.10
  20   2   2   15.70    7.20
 -22   2  -2   19.40    8.20
   2 -22   2    7.60    5.90
  20 -22  -2   11.70    8.00
  -2 -20   2   12.30    6.00
  22 -20  -2   16.00    7.70
 -20  -2  -2   10.90    7.70
  22  -2   2   13.80    6.70
  -2  22  -2   15.50    8.50
 -20  22   2   13.80    7.20
   3  19  -2   16.40    8.00
  19 -22  -2   38.80    9.20
 -22   3  -2   36.00    8.50
   3 -22   2   21.70    6.50
  19   3   2   27.20    7.10
 -22  19   2   35.20    8.80
  22 -19  -2   34.30    9.40
  22  -3   2   27.80    7.20
 -19  -3  -2   35.80    8.30
  -3  22  -2   27.20    8.90
  -3 -19   2   27.20    7.00
 -19  22   2   30.40    8.40
  18   4   2   42.10    8.10
 -22  18   2   47.40    8.60
   4  18  -2   40.20    8.90
 -22   4  -2   56.99    9.50
   4 -22   2   47.40    7.80
  18 -22  -2   44.30    9.60
  22  -4   2   34.90    7.60
  -4  22  -2   31.30    8.90
 -18  -4  -2   65.99    9.70
  22 -18  -2   32.30    8.60
 -18  22   2   34.80    8.40
  -4 -18   2   31.10    6.70
 -22   5  -2   15.80    7.80
   5 -22   2    9.90    5.60
   5  17  -2    7.90    7.80
  17   5   2   22.70    6.70
 -22  17   2   21.30    8.30
  17 -22  -2    9.90    7.50
 -17  22   2   12.90    7.00
  22  -5   2   15.60    7.50
 -17  -5  -2   16.80    7.50
  22 -17  -2   18.60    8.20
  -5  22  -2   10.00    9.20
  -5 -17   2    8.70    5.80
 -22  16   2    4.40    7.40
  16 -22  -2    3.60    7.30
 -22   6  -2   12.90    7.90
   6 -22   2    6.20    5.90
   6  16  -2    3.60    8.40
  16   6   2    4.80    5.90
  -6 -16   2    4.50    6.30
  -6  22  -2   -1.10    8.00
  22 -16  -2    9.00    8.50
 -16  -6  -2   -0.30    7.00
  22  -6   2   -6.40    6.80
 -16  22   2   -0.70    6.50
 -22  15   2   53.29    9.20
   7  15  -2   47.00    9.40
  15 -22  -2   47.80   10.70
 -22   7  -2   58.89    9.90
   7 -22   2   46.30    7.70
  22  -7   2   36.80    7.70
  -7  22  -2   60.79   10.20
 -15  -7  -2   61.49   10.90
 -15  22   2   50.19    8.50
  22 -15  -2   46.70    9.10
  -7 -15   2   46.00    7.40
  14 -22  -2   51.29    9.30
   8  14  -2   44.40   11.20
 -22  14   2   69.79    9.20
   8 -22   2   51.09    7.70
 -22   8  -2   56.79    9.30
  14   8   2   66.79    9.00
 -14  22   2   45.00    8.40
  22  -8   2   55.49    8.90
 -14  -8  -2   68.39    9.50
  -8 -14   2   44.30    7.40
  -8  22  -2   63.89   10.00
  22 -14  -2   46.00    8.70
  13   9   2    7.10    6.80
 -22  13   2   16.00    7.10
   9  13  -2    9.40    9.00
  13 -22  -2    3.70    7.60
   9 -22   2    3.50    5.70
 -22   9  -2   14.40    7.30
  22 -13  -2    6.00    7.00
  -9  22  -2    2.90    7.60
  -9 -13   2    7.40    5.90
 -13  22   2    7.50    7.00
  22  -9   2  -10.10    5.90
 -13  -9  -2    3.10    6.90
 -22  10  -2   31.60    8.20
 -22  12   2   20.90    7.20
  12  10   2   33.40    7.20
  10  12  -2   20.40    8.80
 -22  12   2    8.40    8.00
  12 -22  -2   23.10    8.30
 -10 -12   2   22.80    6.50
  22 -10   2   21.80    7.90
 -12 -10  -2   21.60    7.50
 -10  22  -2   19.90    8.20
 -12  22   2   15.10    6.90
  22 -12  -2   28.10    8.60
  11 -22   2   16.90    9.90
 -22  11   2   24.20    7.80
  11  11  -2   23.30    8.50
  11  11   2   22.60    6.70
  11 -22  -2    7.50    7.30
 -22  11  -2   25.80    7.80
 -22  11   2   25.60    7.40
 -11 -11  -2   32.30    8.20
 -11  22  -2   28.80    8.40
  22 -11  -2   15.90    7.60
  22 -11   2   14.70    7.30
 -11 -11   2   18.50    6.50
 -11  22   2   18.10    7.10
  10  12   2  103.39    9.60
  12 -22   2  100.39   10.20
  10  12   2  133.79   12.40
 -22  10   2   85.59   10.30
  12  10  -2  103.59   11.80
 -22  10   2  100.09   10.20
  10 -22  -2   97.19   10.80
 -22  12  -2   95.29   10.30
 -10 -12  -2   96.09    9.50
  22 -12   2   85.19   10.00
 -12 -10   2   90.89    8.70
  22 -10  -2   99.19   11.40
 -10  22   2   76.59    9.60
 -12  22  -2  114.69   12.30
 -22  13  -2  174.78   12.20
   9  13   2  193.18   11.80
   9 -22  -2  179.98   12.70
 -22   9   2  188.78   12.50
  13   9  -2  189.68   13.80
   9  13   2  205.48   14.80
  13 -22   2  187.38   13.70
  -9  22   2  166.88   12.40
  -9 -13  -2  181.78   11.60
 -13  -9   2  161.98   10.80
 -13  22  -2  191.18   14.20
  22  -9  -2  205.88   13.60
  22 -13   2  185.08   12.50
  14   8  -2   25.40    8.50
  14 -22   2   25.70    7.90
   8  14   2   29.40    7.60
  14   8  -2   21.50    6.40
 -22  14  -2   28.00    8.00
   8  14   2   24.00    9.10
 -22   8   2   11.80    8.00
   8 -22  -2   43.30    7.70
   8 -22  -2   18.70    7.90
 -22   8   2   20.20    7.70
  22  -8  -2   26.50    8.40
  -8  22   2   15.70    7.40
  -8 -14  -2   19.80    7.30
 -14  22  -2   27.90    9.30
 -14  -8   2   13.40    6.50
  22 -14   2   23.30    8.30
 -22  15  -2  112.09   11.70
 -22   7   2   67.09   11.10
  15   7  -2   75.19   11.30
  15 -22   2   55.59   13.80
   7  15   2   98.89   10.60
   7 -22  -2   90.29   10.50
   7  15   2   95.29   12.90
  15   7  -2   95.99    9.30
   7 -22  -2   98.69    8.60
 -22   7   2   96.79   10.90
  -7 -15  -2   82.69    9.50
 -15  -7   2   70.09    8.60
  22 -15   2   80.09   10.20
  22  -7  -2  107.59   11.60
 -15  22  -2   75.49   10.10
  -7  22   2   59.39    8.90
 -22  16  -2  165.28   13.10
  16   6  -2  166.58   12.40
   6 -22  -2  147.19   10.50
   6  16   2  143.29   11.60
   6  16   2  167.48   13.70
   6 -22  -2  144.09   13.00
 -22   6   2  120.19   11.90
  16 -22   2   99.29   16.60
  16   6  -2  170.58   11.20
 -22   6   2  151.28   12.10
  22 -16   2  139.69   11.80
 -16  -6   2  129.19   10.00
  22  -6  -2  128.49   10.90
  -6  22   2  120.59   11.70
 -16  22  -2  121.99   18.20
  -6 -16  -2  141.19   10.40
 -22   5   2   10.20    6.90
  17   5  -2   28.10    7.10
  17 -22   2   15.80    8.10
   5 -22  -2   23.30    8.40
  17   5  -2   33.70    8.70
 -22  17  -2   10.90    8.20
   5 -22  -2   23.70    6.80
   5  17   2   22.10    8.00
   5  17   2   13.90    9.00
 -22   5   2    7.30    8.80
  -5  22   2    0.40    7.40
  22  -5  -2   12.70    7.30
  -5 -17  -2   10.90    7.00
 -17  -5   2    5.20    6.50
  22 -17   2   20.80    9.20
   4 -22  -2   19.10    9.10
  18   4  -2   25.90    9.30
 -22   4   2   31.20    8.60
  18 -22   2   21.70    8.60
  18 -22   2   19.30    9.60
 -22   4   2   12.40    9.90
  18   4  -2   28.40    7.90
   4  18   2   27.70    9.10
   4 -22  -2   20.50    7.50
   4  18   2   38.10   14.30
  22 -18   2   25.40    9.10
  22  -4  -2   44.70    9.20
 -18  -4   2   12.60    7.00
  -4  22   2   10.10    7.20
  -4 -18  -2   26.30    7.10
  19   3  -2   28.90    9.10
   3 -22  -2   29.20    9.90
  19 -22   2   33.30   10.10
   3  19   2   27.40    8.70
  19   3  -2   43.40    8.60
 -22   3   2   24.10    8.10
   3 -22  -2   19.40    6.80
  19 -22   2   29.30    8.40
   3  19   2   15.70    8.80
  22 -19   2   28.00    9.90
 -19  22  -2   26.50   15.00
 -19  -3   2   21.60    7.20
  -3 -19  -2   13.60    7.40
  -3  22   2   17.80    8.20
  22  -3  -2   31.70    7.80
  20   2  -2   21.50    9.50
 -22   2   2   13.40    7.30
  20 -22   2   -0.10    9.80
   2 -22  -2   20.80    7.60
  20 -22   2    5.30    8.90
   2  20   2   25.10    9.10
   2 -22  -2   32.40    9.50
 -22  20  -2   19.30    8.90
  22 -20   2   12.60    9.20
  -2 -20  -2   14.00    7.60
  22 -20   2    1.10    9.70
  -2  22   2    3.00    7.20
 -20  22  -2   18.50   10.20
  22  -2  -2   12.70    7.50
 -20  -2   2   16.70    7.10
 -22  21  -2   16.60    8.40
  21   1  -2   23.40    8.60
   1 -22  -2   18.30    7.80
 -22   1   2   20.20    8.60
  21   1  -2   37.80   10.00
  21 -22   2   24.20    8.90
  21 -22   2   12.50    9.90
   1  21   2   31.10    9.80
   1 -22  -2   44.40   10.50
 -21  -1   2   20.70    7.60
  -1  22   2   17.40    9.00
  22 -21   2   17.20    9.20
  -1 -21  -2   12.30    7.40
  22  -1  -2   35.70    8.70
 -21  22  -2   25.20   11.40
  22 -21   2   17.90    9.50
 -22  22  -2   32.80    9.40
   0 -22  -2   13.50    7.70
  22   0  -2   19.60    8.70
   0  22   2    5.70    9.10
   0 -22  -2   51.69   15.90
 -22   0   2   13.20    7.70
  22 -22   2    0.30    9.40
  22 -22   2    6.00   10.70
 -23  21   2   50.69   10.00
  21 -23  -2   41.50    9.40
   2 -23   2   32.40    7.00
 -23   2  -2   33.00    8.70
  21   2   2   29.10    8.00
   2  21  -2   42.40    9.20
  23  -2   2   33.90    7.80
  23 -21  -2   35.00   10.10
  -2 -21   2   46.80    7.90
 -21  -2  -2   52.79    9.50
 -21  23   2   51.39    9.20
  -2  23  -2   38.00   10.40
   3 -23   2   30.30    6.80
  20   3   2   42.20    8.60
 -23   3  -2   44.80    9.00
  20 -23  -2   35.70    8.80
   3  20  -2   43.70   10.20
 -23  20   2   47.60    9.60
  -3  23  -2   31.00    9.20
  23 -20  -2   21.50    8.60
  23  -3   2   33.70    7.70
 -20  -3  -2   43.40    8.40
  -3 -20   2   33.90    6.90
 -20  23   2   34.30    8.50
  19   4   2   -4.90    7.00
  19 -23  -2   -0.20    8.20
 -23   4  -2   21.20    8.10
   4 -23   2   14.30    6.80
   4  19  -2   11.00    9.10
 -23  19   2   18.00    8.20
  23 -19  -2   13.60    8.60
  -4  23  -2    4.80    8.20
 -19  23   2    4.90    7.60
  23  -4   2   11.40    6.80
 -19  -4  -2    8.30    8.20
  -4 -19   2    0.00    5.60
  18   5   2   28.90    7.80
 -23   5  -2   33.40    8.40
 -23  18   2   18.50    8.20
  18 -23  -2   26.10    9.20
   5 -23   2   25.70    6.40
   5  18  -2   19.80    9.20
  -5 -18   2   22.30    6.30
 -18  -5  -2   21.20    7.70
  23  -5   2   24.20    8.00
  23 -18  -2   27.40    8.00
  -5  23  -2   15.50    8.60
 -18  23   2   21.30    7.80
 -23  17   2   60.09   11.20
   6 -23   2   60.49    7.60
 -23   6  -2   73.89    9.90
  17 -23  -2   67.79   11.70
  17   6   2   77.99    9.80
   6  17  -2   60.49   10.40
  23 -17  -2   66.19   10.00
  -6 -17   2   47.70    7.60
  -6  23  -2   66.49   10.20
 -17  -6  -2   63.59    9.80
 -17  23   2   66.89    9.00
  23  -6   2   56.59    8.90
 -23  16   2   46.80    9.30
  16   7   2   21.00    6.80
   7 -23   2   37.80    7.50
   7  16  -2   36.50    8.90
 -23   7  -2   39.40    8.80
  16 -23  -2   29.70    8.60
  23  -7   2    9.90    6.90
 -16  -7  -2   34.20    8.60
  23 -16  -2   20.90    8.00
  -7  23  -2   22.40    8.40
  -7 -16   2   24.20    6.30
 -16  23   2   27.00    7.30
 -23  15   2   -1.60    7.00
   8  15  -2   -5.10    7.20
   8 -23   2    4.10    5.80
  15   8   2    2.20    7.00
 -23   8  -2   11.20    8.70
  15 -23  -2    1.60    7.80
 -15  -8  -2    4.10    7.10
  -8 -15   2    2.50    6.10
  -8  23  -2   -5.70    7.20
  23  -8   2   -8.10    7.00
  23 -15  -2    7.90    7.20
 -15  23   2   -5.70    6.90
  14   9   2   55.19   13.60
 -23  14   2   75.39    9.50
   9 -23   2   51.89    7.80
  14 -23  -2   51.79   15.70
 -23   9  -2   46.90    8.80
   9  14  -2   57.29    9.80
  -9  23  -2   42.20    9.20
  -9 -14   2   43.70    7.70
 -14  23   2   38.40    7.80
  23 -14  -2   38.70    8.50
 -14  -9  -2   54.69    9.10
  23  -9   2   25.80    7.50
  10 -23   2   52.09    8.80
  13  10   2   53.39    8.80
 -23  10  -2   46.60    9.20
 -23  13   2   68.99    9.70
  13 -23  -2   39.10    9.50
  10  13  -2   29.70    8.60
  23 -10   2   36.00    8.40
 -13  23   2   32.00    7.30
 -13 -10  -2   42.00    8.20
 -10 -13   2   48.00    8.00
  23 -13  -2   38.60    8.90
 -10  23  -2   34.80    8.60
  12  11   2   45.70    8.20
  11 -23   2   43.50    7.70
 -23  12   2   41.10    8.70
 -23  11  -2   27.70    8.40
  12 -23  -2   28.50    8.80
  23 -11   2   21.80    7.40
  23 -12  -2   33.20    8.20
 -12  23   2   30.60    7.90
 -12 -11  -2   33.20    7.70
 -11 -12   2   32.60    7.30
 -11  23  -2   39.30    8.70
  11 -23  -2   60.79    9.70
  12 -23   2   84.49    9.60
 -23  11   2   61.39   10.80
  11  12   2   83.69    9.10
 -23  11   2   87.99   10.20
  12  11  -2   63.59   11.40
 -23  12  -2   89.69   11.30
 -11 -12  -2   72.69    9.20
  23 -11  -2   70.09   11.40
  23 -12   2   55.99    9.60
 -11  23   2   61.99    9.10
 -12 -11   2   58.99    8.30
 -12  23  -2   74.29   10.40
  13  10  -2   16.10    8.80
  10  13   2   14.00    7.30
 -23  10   2   -9.80    7.90
 -23  13  -2   13.90    7.90
  13 -23   2    8.10    6.20
 -23  10   2   11.50    7.90
  10 -23  -2    2.90    8.50
 -10 -13  -2   19.20    7.60
 -10  23   2    5.00    6.70
 -13  23  -2   14.50    8.10
  23 -13   2    5.50    7.20
  23 -10  -2   18.90    7.80
 -13 -10   2    6.90    6.10
  14 -23   2   54.29    8.70
  14   9  -2   46.00    9.30
 -23   9   2   58.29   10.30
 -23   9   2   68.99   10.30
   9 -23  -2   60.99    9.70
   9  14   2   92.79   12.00
 -23  14  -2   77.39   10.00
   9  14   2   63.09    9.10
  -9 -14  -2   60.59    9.10
 -14  -9   2   52.19    7.80
  23 -14   2   57.19    9.80
  23  -9  -2   59.49    9.50
  -9  23   2   55.39    8.70
 -14  23  -2   71.99   10.30
 -23  15  -2  128.99   10.90
  15 -23   2  136.89   11.50
  15   8  -2  126.29   12.90
 -23   8   2  128.09   12.00
   8  15   2  128.59   10.80
 -23   8   2  118.89   12.20
   8  15   2  160.08   13.80
   8 -23  -2  105.09   12.40
 -15  23  -2  136.49   11.40
  23  -8  -2  133.89   11.40
  -8  23   2  125.69   11.20
 -15  -8   2  108.59    9.70
  -8 -15  -2  140.49   11.70
  23 -15   2  112.29   11.50
   7  16   2   19.60    8.00
  16   7  -2    1.80    8.50
 -23  16  -2   15.80    9.20
 -23   7   2   28.70    8.40
   7  16   2   14.20    9.10
   7 -23  -2   10.30    8.40
 -23   7   2    4.90    8.50
  16 -23   2   15.10    6.90
  -7 -16  -2   14.30    7.70
  23  -7  -2   15.70    7.50
 -16  -7   2    2.40    6.10
  -7  23   2    1.70    7.20
  23 -16   2   12.10    7.60
 -16  23  -2    6.80    8.90
   6  17   2   58.69    9.90
   6 -23  -2   42.30    7.80
  17 -23   2    8.30    9.50
 -23   6   2   35.30    9.60
  17   6  -2   45.00   10.10
  17 -23   2   60.89   10.40
   6  17   2   69.89   12.50
 -23   6   2   23.40    9.80
  17   6  -2   53.59    8.90
   6 -23  -2   44.00    9.80
  -6 -17  -2   29.70    7.30
 -17  23  -2   56.29    9.60
  23 -17   2   38.10    9.60
  -6  23   2   28.50    7.70
  23  -6  -2   32.50    7.90
 -17  -6   2   40.90    7.70
   5  18   2   73.79   13.00
   5 -23  -2   49.60   10.40
  18 -23   2   62.59    9.80
  18   5  -2   68.49   10.70
   5  18   2   52.49   10.20
 -23  18  -2   87.69   11.60
   5 -23  -2   57.49    9.30
  18   5  -2   87.99   10.20
  -5 -18  -2   47.50    8.40
 -18  23  -2   70.69   11.20
  23  -5  -2   56.09    9.80
 -18  -5   2   53.09    9.50
  23 -18   2   59.09   10.50
 -23   4   2    3.50    8.00
   4  19   2   24.00    9.60
  19 -23   2   17.50    9.00
   4  19   2    5.40    9.50
  19 -23   2   -0.70    9.40
  19   4  -2   17.10    7.80
 -23  19  -2   22.40    9.60
   4 -23  -2   12.10    8.40
   4 -23  -2   12.30    6.70
  -4  23   2    0.00    7.60
  23 -19   2   12.60    9.20
 -19  -4   2    2.90    7.60
  -4 -19  -2    4.90    7.60
  23  -4  -2   14.90    7.30
 -19  23  -2   15.80    9.20
  20   3  -2   15.50    9.50
 -23   3   2   13.00    8.20
   3 -23  -2   -5.60    8.20
  20 -23   2    7.40   12.30
   3  20   2   13.30    9.40
   3 -23  -2   -2.50    9.20
  20   3  -2   10.70    8.20
   3  20   2   -1.80    8.90
  20 -23   2    5.60    8.00
  23  -3  -2    7.00    8.60
  -3 -20  -2    4.20    7.40
 -20  -3   2    8.10    8.20
 -20  23  -2   12.40    9.00
  23 -20   2    0.70    8.30
  -3  23   2   -5.50    7.20
 -23   2   2   12.60    7.50
   2 -23  -2    3.60    7.40
  21   2  -2   -8.90    9.10
  21   2  -2   11.10    8.30
  21 -23   2   11.60    9.70
  21 -23   2  -14.30    9.50
   2  21   2    6.20    9.30
  23 -21   2    0.60    9.30
  -2 -21  -2   -3.90    6.20
 -21  -2   2   12.00    8.20
 -21  23  -2   14.20    9.30
  23  -2  -2   16.60    8.70
  -2  23   2   -1.00    8.20
 -24  20   2   45.70    9.80
 -24   4  -2   39.40    9.10
   4 -24   2   26.80    6.80
  20 -24  -2   32.00    8.90
  20   4   2   34.70    8.10
   4  20  -2   26.00    9.70
  24  -4   2   38.20    8.60
  24 -20  -2   24.40    8.10
  -4 -20   2   29.90    7.40
 -20  24   2   35.80    8.40
  -4  24  -2   17.10    8.80
 -20  -4  -2   30.00    8.20
   5 -24   2   57.79    8.10
  19 -24  -2   61.59   10.30
   5  19  -2   44.90    9.80
  19   5   2   64.69    9.90
 -24   5  -2   56.19   10.10
 -24  19   2   62.69   10.90
  24 -19  -2   40.70    8.70
 -19  24   2   55.49   10.10
  -5 -19   2   46.80    7.80
  -5  24  -2   49.10   10.30
 -19  -5  -2   58.89    9.70
  24  -5   2   65.49   10.40
   6 -24   2    6.50    6.60
  18 -24  -2    8.10    7.70
 -24  18   2   22.20    8.60
 -24   6  -2    9.40    8.80
   6  18  -2    8.60    8.30
  18   6   2    2.70    6.80
 -18  24   2   15.10    7.90
 -18  -6  -2    7.30    7.40
  -6  24  -2    1.80    8.00
  24 -18  -2   21.40    8.50
  -6 -18   2    7.30    6.00
  24  -6   2    5.30    6.60
  17 -24  -2   18.00    9.10
   7 -24   2   18.10    6.30
 -24   7  -2   15.90    8.40
 -24  17   2    3.10    8.00
  17   7   2   22.30    7.10
   7  17  -2   13.90    8.50
  24 -17  -2   20.30    8.50
  -7  24  -2   11.70    8.20
 -17  -7  -2   24.10    7.60
  -7 -17   2    9.90    6.00
 -17  24   2   20.50    8.00
  24  -7   2   12.40    7.10
 -24   8  -2   78.09   10.30
   8 -24   2   62.39    8.20
  16   8   2   92.09   10.00
   8  16  -2   70.79   12.30
  16 -24  -2   83.69   11.70
 -16  -8  -2   68.19    9.80
  24  -8   2   65.69   10.40
  -8  24  -2   55.99   10.30
 -16  24   2   74.69    9.30
  24 -16  -2   81.39   10.20
  -8 -16   2   65.99    8.00
   9  15  -2   53.39   10.50
 -24  15   2   62.69   10.00
  15   9   2   47.70    8.40
  15 -24  -2   34.20    9.30
 -24   9  -2   42.20    9.80
   9 -24   2   40.10    7.30
  24 -15  -2   43.80    9.00
  -9  24  -2   36.10    8.80
 -15  24   2   26.80    7.50
  -9 -15   2   35.10    6.90
 -15  -9  -2   39.00    8.20
  24  -9   2   27.50    7.70
 -24  14   2    2.50    7.60
  10  14  -2    5.30    7.40
  14 -24  -2    3.90    8.70
  10 -24   2    2.80    6.40
 -24  10  -2   11.00    7.70
  14  10   2    6.00    6.80
  24 -14  -2   -2.70    7.90
 -10 -14   2   -1.80    5.70
  24 -10   2   -2.20    7.20
 -10  24  -2    1.70    7.80
 -14 -10  -2   12.20    7.80
 -14  24   2    8.10    7.20
  13 -24  -2   -5.70   14.80
 -24  11  -2   19.80    7.90
 -24  13   2   14.90    8.10
  11 -24   2   18.30    6.80
  13  11   2   19.10    7.40
  11  13  -2   14.50    8.40
 -11  24  -2   16.40    8.20
 -13  24   2    3.70    6.40
 -13 -11  -2   11.30    7.70
  24 -11   2    6.60    6.70
  24 -13  -2    9.20    7.60
 -11 -13   2    8.10    6.00
 -24  12  -2   17.10    8.80
  12 -24   2   10.80    6.20
 -24  12   2   21.40    8.20
  12 -24  -2    7.40    8.60
  12  12  -2    6.40    9.10
  24 -12   2    6.40    6.90
 -12  24   2   10.10    7.30
 -12  24  -2   24.80    8.30
  24 -12  -2   14.40    7.90
 -12 -12  -2   12.00    7.50
 -12 -12   2    4.80    5.90
 -24  11   2   -3.30    8.90
  11 -24  -2   22.50    9.30
  13  11  -2   27.00    9.40
 -24  11   2   36.50    9.10
  13 -24   2   30.30    7.70
 -24  13  -2   37.50    8.50
  11  13   2   30.60    7.70
  24 -11  -2   23.50    8.00
 -13  24  -2   28.30    8.60
 -11 -13  -2   25.50    7.30
 -13 -11   2   17.90    7.20
 -11  24   2   18.80    7.30
  24 -13   2   21.70    7.90
  10  14   2   77.39    9.70
 -24  14  -2   79.09   10.30
  14  10  -2   60.39   12.30
  14 -24   2   93.19   10.50
 -24  10   2   51.69   10.60
 -24  10   2   79.59   11.50
  10 -24  -2   53.49   10.90
  24 -10  -2   98.19   11.40
  24 -14   2   75.69   10.20
 -10  24   2   52.49    9.20
 -14 -10   2   68.99    8.50
 -10 -14  -2   82.69    9.60
 -14  24  -2   73.09   11.90
 -24   9   2   32.10    8.80
   9 -24  -2   10.70    8.60
 -24   9   2    1.30    8.40
   9  15   2   33.60   10.40
   9  15   2    2.50    7.80
  15   9  -2   37.50   16.80
 -24  15  -2   25.40    8.30
  15 -24   2   15.60    7.00
 -15  24  -2   22.80    9.00
 -15  -9   2    6.20    5.90
  -9  24   2    3.80    6.50
  24 -15   2    9.10    7.70
  24  -9  -2    8.00    8.30
  -9 -15  -2   11.50    7.70
   8  16   2   51.19   11.10
 -24   8   2   56.69   11.70
  16 -24   2   36.20    7.70
 -24   8   2   17.60    9.50
   8  16   2   57.39    9.60
  16   8  -2   27.80   10.30
 -24  16  -2   46.40    9.70
   8 -24  -2   27.70    9.40
  -8  24   2   27.70    7.40
  -8 -16  -2   28.90    7.70
  24 -16   2   25.10    8.40
  24  -8  -2   37.10    8.30
 -16  -8   2   24.10    7.10
 -16  24  -2   30.30    8.90
 -24   7   2   32.10   11.00
  17 -24   2   60.19   10.80
  17   7  -2   52.69   11.30
 -24  17  -2   63.99   10.90
   7  17   2   80.79   12.90
   7 -24  -2   41.90   10.00
   7  17   2   45.70    9.90
  24  -7  -2   58.39    9.50
  24 -17   2   63.09   10.80
  -7  24   2   27.60    7.70
 -17  -7   2   44.30    8.60
 -17  24  -2   75.99   10.30
  -7 -17  -2   56.59    8.70
  18   6  -2   24.70    8.00
  18   6  -2    1.60    9.80
   6 -24  -2   -1.50    7.10
 -24  18  -2   -1.00    9.30
 -24   6   2    2.10    8.30
   6  18   2  -13.90    8.30
   6  18   2   22.10    9.90
  18 -24   2    9.10    7.40
   6 -24  -2    4.50    8.50
  18 -24   2   17.20   10.90
  -6 -18  -2    3.40    7.30
 -18  -6   2    3.30    6.30
 -18  24  -2    5.50    8.80
  24 -18   2    2.20    7.70
  24  -6  -2   10.30    8.70
  -6  24   2   -4.50    6.50
   5  19   2   21.90   10.50
 -24  19  -2   22.70    8.60
  19   5  -2   -2.00   10.30
  19 -24   2   13.40   10.60
  19 -24   2    2.40    8.50
   5 -24  -2    3.10    8.10
   5 -24  -2   -1.80    9.40
  19   5  -2   21.60    8.10
 -24   5   2    9.10    8.20
   5  19   2  -12.20    8.90
  24  -5  -2   11.60    8.10
 -19  24  -2    2.70    8.80
  -5 -19  -2    1.30    7.40
  -5  24   2    1.30    7.70
  24 -19   2    1.80    9.20
 -19  -5   2   10.20    6.70
   4 -24  -2   -4.60    7.40
 -24   4   2    3.90    8.20
  20 -24   2    2.50    8.70
   4  20   2    1.70    8.80
  20   4  -2   19.90    8.20
 -24  20  -2   21.90    8.80
  20   4  -2   -8.10   10.20
 -20  24  -2    3.90    8.60
  24 -20   2    9.00    8.60
  24  -4  -2    4.00    7.90
 -20  -4   2    4.00    7.20
  -4  24   2    0.80    7.10
  -4 -20  -2  -12.50    7.10
 -25  18   2   64.29   11.20
  18   7   2   65.99   10.30
  18 -25  -2   41.90   10.10
   7 -25   2   64.69    8.50
 -25   7  -2   67.19   11.80
   7  18  -2   75.99   12.50
 -18  25   2   63.59    9.60
  -7 -18   2   60.59    9.10
  25  -7   2   56.29    9.10
 -18  -7  -2   48.00    8.90
  25 -18  -2   76.19   10.30
  -7  25  -2   47.10   10.20
   8  17  -2   19.40    8.90
 -25   8  -2   14.90    8.60
   8 -25   2   20.80    7.40
 -25  17   2   27.90    9.30
  17   8   2   17.30    7.80
  17 -25  -2    9.60    9.30
 -17  25   2   13.00    7.30
  25 -17  -2   18.70    8.60
  -8 -17   2   11.00    6.00
 -17  -8  -2   15.10    7.60
  25  -8   2    9.50    7.00
  -8  25  -2   17.40    8.20
   9  16  -2    0.20    8.60
 -25  16   2   19.80    8.80
 -25   9  -2   17.40    8.40
   9 -25   2    5.70    6.10
  16   9   2   11.10    7.90
  16 -25  -2    7.40    8.90
  -9  25  -2    5.90    8.10
 -16  25   2    6.20    6.70
 -16  -9  -2    5.20    7.30
  -9 -16   2   11.40    5.80
  25  -9   2   -4.30    6.40
  25 -16  -2    7.40    8.20
  15 -25  -2   16.30    9.30
  15  10   2   37.10    8.00
  10 -25   2   26.60    7.60
 -25  10  -2   33.60    9.10
  10  15  -2   23.00   10.10
  25 -15  -2   23.70    8.60
 -15 -10  -2   26.40    7.70
 -10 -15   2   25.50    7.10
 -10  25  -2   29.10    9.70
 -15  25   2   22.70    7.40
  25 -10   2   20.70    7.60
  11 -25   2    8.30    6.10
  14  11   2   11.90    7.60
 -25  11  -2   24.90    9.10
  14 -25  -2    5.00    8.90
  11  14  -2   11.40    8.80
 -25  14   2   19.70    9.10
 -11 -14   2   10.90    6.20
 -14  25   2    7.80    6.60
  25 -11   2    7.80    7.90
 -14 -11  -2   12.80    7.20
  25 -14  -2   -2.60    7.50
 -11  25  -2    8.90    8.00
  13 -25  -2   -4.00    9.00
 -25  12  -2    4.90    7.80
 -25  13   2   21.90    8.70
  13  12   2   10.30    7.30
  12 -25   2    2.20    6.30
  12  13  -2   13.10    9.00
 -13  25   2    1.50    6.20
 -12  25  -2   -5.30    7.90
 -13 -12  -2    0.60    6.80
  25 -13  -2    1.60    7.30
  25 -12   2   -2.70    6.60
 -12 -13   2   -3.80    5.70
  13  12  -2   36.10   10.50
  12  13   2   42.20    8.80
 -25  13  -2   32.40    8.50
 -25  12   2   28.90    9.60
  13 -25   2   28.10    7.10
  12 -25  -2   18.80    9.70
  25 -12  -2   39.00    9.20
  25 -13   2   22.50    7.80
 -13  25  -2   22.60    9.50
 -12 -13  -2   25.20    7.40
 -12  25   2   24.30    7.70
 -13 -12   2    6.90    6.30
  11 -25  -2   11.00   11.00
  11  14   2   20.30    8.30
  14 -25   2   17.70    7.20
  14  11  -2   10.50    9.20
 -25  11   2   27.00    9.00
 -25  14  -2   16.80    8.60
 -25  11   2   -5.70    9.50
 -14  25  -2    9.90    8.20
  25 -11  -2   20.40    7.90
  25 -14   2   15.70    7.60
 -14 -11   2    6.00    6.70
 -11  25   2   11.90    6.90
 -11 -14  -2   21.80    7.30
  10  15   2   16.10    9.20
  10  15   2   45.10   11.50
 -25  10   2    7.00    9.40
 -25  15  -2   30.70    8.70
  15 -25   2   14.10    6.90
  10 -25  -2    5.10   12.30
  15  10  -2   23.30   10.10
  25 -10  -2   15.70    7.90
  25 -15   2    2.20    7.50
 -10  25   2    6.80    7.10
 -15 -10   2    6.70    6.20
 -10 -15  -2    9.80    7.80
 -15  25  -2   23.50    8.50
 -25   9   2   14.80    9.50
   9 -25  -2    9.20   10.50
  16   9  -2   36.10   10.20
  16 -25   2   48.30    9.00
   9  16   2   41.50   12.00
 -25  16  -2   40.20   10.10
  25 -16   2   34.70    9.60
 -16  -9   2   29.70    7.90
  -9  25   2   18.10    7.40
 -16  25  -2   27.80    9.10
  25  -9  -2   64.99   11.00
  -9 -16  -2   31.30    8.10
 -25  17  -2    8.60    8.90
 -25   8   2  -10.10    9.20
   8  17   2    8.40   13.50
   8  17   2   -4.70   14.80
   8 -25  -2   11.00    9.40
  17 -25   2   11.10    8.00
  17   8  -2   29.40   10.30
  25 -17   2   -5.10    8.60
  -8  25   2   -6.50    6.30
 -17  25  -2   18.30    9.00
  -8 -17  -2   -3.40    7.40
  25  -8  -2   13.50    8.70
 -17  -8   2   -1.90    6.50
   7  18   2   10.70    9.70
   7  18   2   37.20   11.20
  18 -25   2   19.70    8.00
 -25  18  -2   14.80    8.40
 -25   7   2   -0.20    9.10
  18   7  -2   -3.20   10.50
   7 -25  -2  -22.10    9.70
  25  -7  -2   -2.10    8.50
 -18  -7   2    3.00    6.80
  -7 -18  -2   -6.00    7.40
  25 -18   2   -4.90    8.30
  -7  25   2    4.30    7.40
 -18  25  -2    0.10    9.20
   0   0   3  690.53   22.90
   0   0   3  672.43   22.60
   0   0   3  682.43   22.90
  -1   1   3  537.65   18.20
   1   0   3  543.95   17.90
   0  -1   3  528.25   17.70
   0  -1   3  509.35   18.10
   1   0   3  522.95   17.90
   0  -1   3  501.85   17.80
  -1   1   3  493.05   17.90
  -1   1   3  525.05   17.50
   1   0   3  514.65   17.90
   1  -1   3   48.20    4.90
  -1   0   3   50.99    4.00
  -1   0   3   50.79    4.30
  -1   0   3   47.50    4.50
   1  -1   3   53.19    4.30
   0   1   3   48.60    4.80
   0   1   3   53.59    4.40
   0   1   3   48.90    4.60
   1  -1   3   47.90    4.60
   0  -2   3  623.64   20.40
   2   0   3  620.74   20.90
  -2   2   3  562.34   24.10
   2   0   3  658.93   20.70
  -2   2   3  643.24   20.20
   2   0   3  605.44   21.30
   0  -2   3  642.54   20.60
  -2   2   3  513.35   21.30
   1   1   3 1494.75   47.20
   1  -2   3 1490.55   46.80
  -2   1   3 1485.15   47.30
   1   1   3 1486.85   47.00
   1  -2   3 1522.45   47.20
  -2   1   3 1461.45   46.60
  -2   1   3 1491.45   47.50
   2  -1   3 1474.55   47.00
  -1   2   3 1454.75   47.10
  -1  -1   3 1484.35   47.00
   2  -1   3 1450.65   47.20
  -1  -1   3 1501.65   46.90
   2  -1   3 1410.26   46.90
  -1   2   3 1443.26   46.70
   2  -2   3  791.32   25.60
   0   2   3  760.22   26.00
  -2   0   3  770.52   26.00
   2  -2   3  777.02   26.00
  -2   0   3  801.72   26.30
  -2   0   3  795.02   25.50
   0   2   3  774.42   25.80
   0   2   3  771.82   25.80
   2  -2   3  777.12   26.10
   0  -3   3  788.62   25.50
   0  -3   3  779.42   26.20
  -3   3   3  741.03   24.60
   3   0   3  754.92   25.50
   0  -3   3  751.22   25.00
   3   0   3  761.42   26.10
   3   0   3  785.82   25.20
  -3   3   3  777.32   25.80
  -3   3   3  753.12   25.90
   2   1   3   50.19    5.90
   2   1   3   58.19    4.50
  -3   2   3   66.19    3.80
   1  -3   3   50.99    4.30
   2   1   3   55.39    5.40
   1  -3   3   61.59    4.60
  -3   2   3   54.39    5.10
   1  -3   3   56.69    5.10
  -2   3   3   60.09    4.00
   3  -1   3   59.09    5.20
   3  -1   3   53.19    4.50
  -1  -2   3   67.79    6.00
  -1  -2   3   60.79    4.80
  -1  -2   3   54.59    4.60
  -2   3   3   55.19    5.80
  -2   3   3   51.29    4.70
   3  -1   3   60.19    5.20
   2  -3   3  591.44   20.20
   1   2   3  568.14   20.10
  -3   1   3  591.94   20.20
   2  -3   3  576.54   19.50
  -3   1   3  564.94   20.10
  -3   1   3  597.34   19.30
   1   2   3  574.54   19.70
   2  -3   3  604.74   20.10
   1   2   3  589.34   20.00
  -1   3   3  577.54   20.10
  -2  -1   3  570.34   19.50
  -1   3   3  550.84   19.80
   3  -2   3  591.54   19.80
  -1   3   3  564.04   19.60
  -2  -1   3  589.74   20.30
  -2  -1   3  577.74   19.90
   3  -2   3  589.64   19.90
   3  -2   3  588.54   20.20
   3  -3   3 2128.89   66.09
   3  -3   3 2008.90   67.59
   0   3   3 2119.99   66.29
   0   3   3 2085.29   66.49
  -3   0   3 2051.49   65.79
  -3   0   3 2181.98   66.79
   3  -3   3 2133.79   66.59
   0  -4   3   22.30    3.60
  -4   4   3   21.00    4.20
   0  -4   3   24.70    3.30
  -4   4   3   15.10    2.60
   0  -4   3   16.70    4.50
   4   0   3   19.70    3.80
   4   0   3   25.60    3.40
   3   1   3  423.76   16.10
  -4   3   3  449.06   15.70
   3   1   3  446.36   15.60
   1  -4   3  440.66   15.40
   1  -4   3  433.76   14.80
   3   1   3  432.86   15.00
   1  -4   3  428.66   16.00
  -4   3   3  436.96   14.30
  -3   4   3  407.96   14.40
  -1  -3   3  442.46   15.10
  -3   4   3  415.36   15.90
  -3   4   3  414.96   15.40
   4  -1   3  437.86   15.40
  -1  -3   3  439.06   16.00
   4  -1   3  433.36   15.00
   4  -1   3  365.76   16.80
  -1  -3   3  426.86   15.10
   2  -4   3  778.72   28.90
   2  -4   3  836.32   27.10
   2   2   3  859.61   27.80
   2   2   3  853.31   27.30
  -4   2   3  841.42   26.80
  -4   2   3  858.71   28.00
   2  -4   3  878.91   27.80
  -2   4   3  808.32   27.90
  -2  -2   3  869.81   27.40
   4  -2   3  852.61   28.10
   4  -2  -3  708.63   28.10
   4  -2   3  861.01   27.50
  -2   4   3  827.32   27.70
  -4   1   3  398.96   13.50
   3  -4   3  391.96   15.00
   3  -4   3  402.06   14.70
  -4   1   3  386.16   14.80
   3   1  -3  384.46   14.00
   1  -4  -3  400.46   13.60
   1   3   3  389.46   14.60
   3  -4   3  394.26   13.90
   1   3   3  370.06   13.90
  -3  -1   3  389.76   13.70
  -3  -1   3  402.36   14.80
   4  -3   3  407.46   14.50
   4  -3   3  398.96   14.80
   4  -3   3  387.16   14.10
   4  -1  -3  396.96   14.40
  -1  -3  -3  406.46   14.10
  -1   4   3  386.46   14.60
   4  -4   3  340.37   12.80
   4  -4   3  317.47   11.80
   0   4   3  323.27   12.10
   4   0  -3  314.57   11.90
   0   4   3  326.37   12.90
   4  -4   3  315.37   12.70
   0  -4  -3  324.27   11.70
  -4   0   3  325.17   11.60
  -4   0   3  328.87   13.20
  -5   5   3  206.48    9.30
   5  -5  -3  197.18    9.40
   5   0   3  195.78    8.10
   0  -5   3  212.48    8.10
   0  -5   3  205.08   10.70
   0  -5   3  206.88    9.10
   5   0   3  203.98    9.00
   1  -5   3  451.35   15.40
   1  -5   3  460.75   16.30
  -5   4   3  438.16   14.80
   4   1   3  464.45   16.40
   4  -5  -3  457.85   14.70
  -5   4   3  457.15   16.60
   4   1   3  463.45   15.70
   1  -5   3  444.26   17.30
   5  -1   3  463.45   17.30
  -1  -4   3  465.75   16.20
  -4   5   3  460.25   16.60
   5  -1   3  452.95   16.30
  -1  -4   3  445.86   17.10
   5  -4  -3  460.95   16.50
   5  -1   3  465.35   15.60
  -4   5   3  434.76   16.90
   3  -5  -3   81.59    3.80
  -5   3   3   73.19    5.80
   2  -5   3   70.59    4.60
   2   3  -3   72.39    4.80
  -5   3   3   75.79    3.90
   2  -5   3   74.49    5.50
   3   2   3   75.39    4.70
   3   2   3   73.39    6.10
   2  -5   3   76.29    6.80
   5  -2   3   79.39    6.50
   5  -3  -3   78.19    5.70
  -3   5   3   73.99    5.60
  -3   5   3   78.89    6.40
  -2  -3   3   75.99    6.40
   5  -2   3   72.59    5.30
   5  -2   3   80.69    5.20
  -3  -2  -3   74.09    5.90
  -2  -3   3   62.19    5.90
   3   2  -3  199.58    8.00
  -5   2   3  195.98    8.90
   3  -5   3  193.08    7.70
   2  -5  -3  184.48    7.30
   3  -5   3  201.38    8.70
  -5   2   3  191.68    7.20
   2   3   3  176.48    7.90
   2   3   3  197.28    8.70
  -2  -3  -3  179.98    8.20
  -2   5   3  183.98    8.40
  -3  -2   3  190.88    9.10
   5  -3   3  186.98    9.20
   5  -3   3  180.48    8.30
   5  -3   3  189.08    8.30
   5  -2  -3  173.18    8.30
  -3  -2   3  186.18    8.10
  -2   5   3  187.68    9.00
   4  -5   3  475.55   18.10
   1   4   3  504.15   17.80
   1   4   3  482.65   17.10
   1  -5  -3  504.65   16.70
  -5   1   3  489.65   16.70
   4   1  -3  482.75   17.00
   4  -5   3  488.05   16.90
   4  -5   3  494.95   17.90
  -5   1   3  506.35   18.00
  -1   5   3  497.45   17.80
   5  -1  -3  455.65   18.00
  -4  -1   3  489.15   16.80
   5  -4   3  505.15   17.30
  -1   5   3  484.15   17.30
  -1  -4  -3  498.75   17.10
   5  -4   3  513.25   18.10
  -4  -1   3  518.25   18.10
   5  -4   3  507.15   17.80
   0   5   3   27.60    4.80
   5  -5   3   33.20    6.10
  -5   0   3   24.70    3.50
   5   0  -3   25.70    4.10
   0  -5  -3   21.50    3.50
   5  -5   3   21.70    4.50
   5  -5   3   21.50    3.50
   0   5   3   28.00    4.60
  -5   0   3   21.30    4.80
   0  -6   3   53.89    4.90
  -6   0  -3   39.20    5.50
  -6   6   3   44.10    5.60
   6  -6  -3   44.60    5.70
   6   0   3   44.10    5.20
   6   0   3   46.10    3.70
   0  -6   3   49.90    7.20
   1  -6   3    7.20    5.40
  -6   5   3    7.20    1.40
  -6   5   3    3.30    3.90
   1   5  -3    8.80    2.50
   5   1   3    6.40    3.60
   1  -6   3    7.20    3.50
   5   1   3   11.00    2.70
   5  -6  -3    5.00    4.40
   1  -6   3    8.80    2.40
  -1  -5   3    2.10    3.10
  -5  -1  -3    6.70    4.30
   6  -1   3    5.50    4.00
   6  -5  -3    7.80    4.00
   6  -1   3    6.00    2.60
  -5   6   3    4.70    3.60
   6  -1   3    4.40    4.90
  -1  -5   3    5.90    4.80
   4  -6  -3  169.78    6.30
   2  -6   3  189.08    8.40
   4   2   3  190.88    8.60
   2  -6   3  179.08    7.30
  -6   4   3  171.48    8.60
   4   2   3  184.08    7.50
  -6   4   3  179.88    6.60
   2  -6   3  190.08   10.10
   2   4  -3  178.38    7.40
  -4  -2  -3  182.98    8.80
  -2  -4   3  184.48    8.40
   6  -2   3  179.28    9.80
  -4   6   3  196.68    9.40
   6  -4  -3  174.38    8.60
  -2  -4   3  178.18    9.50
   6  -2   3  184.08    8.30
  -4   6   3  182.78    8.60
   6  -2   3  176.28    7.70
  -6   3   3  196.68    9.30
   3  -6   3  210.68    9.20
   3   3   3  202.08    8.40
   3   3   3  208.08    9.20
   3  -6  -3  196.88    7.40
   3  -6   3  207.68   10.60
   3   3  -3  206.68    8.30
  -6   3   3  200.98    7.50
   3  -6   3  201.28    8.00
   6  -3  -3  204.68    9.20
   6  -3   3  209.48    8.80
  -3   6   3  193.48    9.10
   6  -3   3  207.28    8.80
  -3  -3   3  205.18    9.90
  -3   6   3  208.38   10.30
  -3  -3  -3  205.28    9.20
   6  -3   3  205.38   10.00
  -3  -3   3  205.08    8.80
   4   2  -3  113.59    5.90
  -6   2   3  112.89    5.20
   4  -6   3  119.19    6.90
   4  -6   3  113.09    5.80
   4  -6   3  118.19    7.90
  -6   2   3  116.09    7.10
   2   4   3  117.09    6.90
   2   4   3  103.09    6.00
   2  -6  -3  114.99    5.30
   6  -4   3  123.69    7.60
   6  -4   3  119.19    7.00
  -4  -2   3  118.19    7.50
   6  -2  -3  119.89    7.20
  -4  -2   3  110.09    6.10
  -2   6   3  107.99    6.50
  -2   6   3  119.39    7.30
   6  -4   3  112.59    6.50
  -2  -4  -3  109.99    6.10
  -6   1   3   89.59    6.70
   1   5   3   83.49    6.10
   5   1  -3   84.19    5.60
   5  -6   3   84.59    5.20
   1   5   3   82.79    5.60
   5  -6   3   82.09    6.30
   1  -6  -3   87.09    5.00
  -6   1   3   87.89    4.90
  -1   6   3   87.99    6.40
  -5  -1   3   84.99    7.30
   6  -5   3   93.19    6.70
  -1   6   3   83.49    5.80
  -1  -5  -3   77.39    5.70
  -5  -1   3   84.59    5.30
   6  -1  -3   85.29    5.60
   6  -5   3   65.39    6.30
  -6   6  -3   70.09    5.50
   6  -6   3   70.19    6.20
   6  -6   3   65.39    5.10
  -6   0   3   66.49    6.20
   6   0  -3   65.29    6.40
   0   6   3   64.79    5.10
  -6   0   3   71.79    4.80
   0   6   3   69.19    6.10
   0  -6  -3   68.99    5.00
   7  -7  -3   -1.20    4.30
   7   0   3    3.30    3.70
   7   0   3    3.70    2.20
  -7   7   3   -0.60    3.80
   0   7  -3    5.20    1.90
  -7   0  -3    3.10    4.30
   0  -7   3   14.40    6.60
   0  -7   3    3.20    3.40
   6   1   3   33.50    3.40
   1   6  -3   33.80    3.30
   1  -7   3   51.49    7.60
  -7   6   3   38.60    5.60
   6   1   3   34.60    5.20
   6  -7  -3   39.10    5.80
   1  -7   3   30.80    4.60
   1  -7   3   36.80    3.40
  -6  -1  -3   39.30    5.40
  -6   7   3   40.50    5.40
  -1  -6   3   41.80    7.20
  -1  -6   3   37.30    4.70
   7  -6  -3   46.60    5.90
   7  -1   3   37.80    5.10
   7  -1   3   35.10    3.50
   2  -7   3  120.69    6.80
   2   5  -3  111.29    5.50
   5   2   3  124.29    5.80
  -7   5   3  116.39    4.50
   5   2   3  118.59    7.00
   2  -7   3  116.89    5.30
  -7   5   3  127.99    7.50
  -2  -5   3  114.19    8.40
  -5  -2  -3  120.89    7.10
   7  -2   3  118.99    6.80
  -5   7   3  115.09    7.20
   7  -2   3  124.59    8.50
  -2  -5   3  124.89    6.50
   7  -2   3  121.19    5.90
   7  -5  -3  113.99    7.40
   4   3   3   29.30    3.90
  -7   4   3   27.40    4.80
   4   3   3   25.50    4.50
   4  -7  -3   15.90    2.20
  -7   4   3   22.20    2.50
   3  -7   3   23.00    3.20
   3   4  -3   19.40    3.40
   3  -7   3   30.40    4.60
  -4   7   3   23.40    4.50
  -4  -3  -3   24.90    4.70
   7  -3   3   31.30    4.20
   7  -4  -3   25.90    4.70
  -4   7   3   39.30    5.90
   7  -3   3   22.10    5.70
  -3  -4   3   27.80    5.50
  -3  -4   3   24.50    3.70
   7  -3   3   26.60    4.40
   4   3  -3  365.86   13.30
  -7   3   3  385.86   14.60
  -7   3   3  374.06   12.80
   4  -7   3  371.96   13.10
   3   4   3  373.66   14.30
   4  -7   3  374.36   14.30
   3   4   3  361.26   13.40
   3  -7  -3  368.56   12.60
  -4  -3   3  381.36   14.00
   7  -3  -3  367.26   14.10
  -4  -3   3  402.86   15.50
  -4   7  -3  359.46   14.30
   7  -4   3  384.26   15.10
  -3   7   3  380.96   14.70
   7  -4   3  364.66   13.80
  -3   7   3  368.06   14.40
  -7   5  -3   35.40    4.20
  -7   2   3   29.50    5.00
   2   5   3   33.90    5.20
   2  -7  -3   27.00    3.70
   5  -7   3   30.10    5.10
   2   5   3   35.10    4.50
   5  -7   3   29.00    3.70
  -7   2   3   32.00    3.60
   5   2  -3   31.60    4.50
  -2  -5  -3   27.40    4.80
  -5  -2   3   39.40    4.70
   7  -2  -3   37.40    4.90
  -2   7   3   40.60    5.80
  -5   7  -3   27.30    4.60
  -2   7   3   36.50    5.10
   7  -5   3   36.90    6.00
  -5  -2   3   36.00    5.90
   7  -5   3   35.80    4.50
   1   6   3   18.00    4.40
   6  -7   3    9.20    3.10
   6  -7   3   20.30    4.50
   1  -7  -3   11.70    3.20
   1   6   3   12.20    3.60
  -7   1   3   12.70    4.40
   6   1  -3   13.30    3.90
  -7   6  -3   10.20    3.40
  -7   1   3   16.70    3.10
  -6  -1   3   14.10    4.80
  -1  -6  -3   10.70    3.70
   7  -1  -3   13.80    4.20
   7  -6   3   15.50    4.70
  -1   7   3   17.50    4.20
   7  -6   3   10.50    3.30
  -1   7   3   12.20    4.40
  -6  -1   3   11.80    4.10
   7  -7   3   58.89    6.30
   0   7   3   64.99    6.80
   7  -7   3   54.59    5.00
  -7   0   3   61.19    4.90
   0   7   3   52.09    5.20
  -7   7  -3   61.29    5.40
   7   0  -3   64.99    5.30
   0  -7  -3   59.09    5.10
  -7   0   3   61.39    6.50
   8  -8  -3  107.09    7.80
   0  -8   3  110.39    6.90
   8   0   3  112.59    4.80
   8   0   3  116.59    7.20
   0   8  -3   97.19    4.10
  -8   0  -3  104.79    7.60
  -8   8   3  112.59    7.60
  -8   7   3   86.19    7.00
  -8   1  -3   89.69    7.30
   1  -8   3   89.59    6.30
   1   7  -3   83.79    4.10
   7   1   3   93.79    4.60
   7  -8  -3   87.19    7.20
   7   1   3   93.19    6.60
   8  -1   3   89.99    7.10
  -1  -7   3  103.69    9.40
   8  -7  -3   89.79    7.20
   8  -1   3   81.09    4.60
  -1  -7   3   93.29    6.30
  -7   8   3   95.89    7.00
  -7  -1  -3   86.49    6.90
   2  -8   3    5.60    3.70
  -8   6   3    0.50    4.40
   6  -8  -3   -0.10    4.40
   6   2   3    1.20    3.60
   2  -8   3    6.60    2.10
   2   6  -3    5.00    2.40
   6   2   3    4.30    2.30
  -2   8  -3    4.00    4.40
  -6  -2  -3    0.90    4.20
   8  -2   3    7.70    3.80
  -2  -6   3   11.80    5.80
  -2  -6   3    4.80    3.40
  -6   8   3    5.20    4.20
   8  -2   3    1.00    2.90
   8  -6  -3   10.20    4.70
   3  -8   3  458.85   16.60
   5   3   3  423.36   15.30
   5   3   3  452.45   16.50
  -8   5   3  429.16   14.50
  -8   5   3  453.45   16.80
   3   5  -3  433.96   15.10
   3  -8   3  442.36   15.00
  -3  -5   3  463.35   16.50
  -5   8   3  436.76   16.60
  -3   8  -3  449.16   16.80
   8  -3   3  440.86   16.30
   8  -5  -3  453.15   17.00
  -3  -5   3  451.05   17.80
   8  -3   3  468.65   18.10
  -5  -3  -3  457.05   16.70
   4  -8  -3  364.76   12.30
   4   4   3  390.06   14.80
  -8   4  -3  374.26   13.20
   4   4   3  372.76   13.50
   4  -8   3  391.56   13.20
  -8   4   3  351.06   12.70
   4  -8   3  400.06   14.70
  -8   4   3  380.36   14.70
   4   4  -3  369.26   13.40
   8  -4   3  377.46   14.20
   8  -4   3  396.76   15.80
  -4  -4   3  377.06   14.10
  -4  -4   3  392.16   15.60
  -4   8   3  385.66   15.20
  -4  -4  -3  386.16   14.40
  -4   8  -3  382.26   14.80
   8  -4  -3  358.96   14.40
  -4   8   3  374.56   14.70
   3   5   3   60.49    6.00
  -8   3   3   51.49    5.90
   5  -8   3   54.59    4.30
   3  -8  -3   49.60    4.00
  -8   3   3   50.89    3.90
  -8   5  -3   59.09    4.50
   3   5   3   53.69    4.60
   5   3  -3   53.19    4.80
   5  -8   3   54.29    5.70
  -3  -5  -3   57.49    6.10
   8  -5   3   61.89    6.90
  -5  -3   3   52.79    4.90
  -3   8   3   57.99    6.50
   8  -3  -3   61.09    6.50
  -5   8  -3   46.90    5.40
  -3   8   3   54.29    6.30
   8  -5   3   56.29    5.80
  -5  -3   3   61.29    6.80
  -8   2   3   80.29    4.90
   2   6   3   75.39    6.20
   6  -8   3   71.59    5.20
  -8   6  -3   76.19    5.40
   6   2  -3   87.69    5.70
   2   6   3   67.19    6.20
  -8   2   3   69.09    6.60
   2  -8  -3   79.29    5.10
   6  -8   3   75.29    6.60
   8  -6   3   83.39    5.70
  -2   8   3   82.49    6.70
   8  -6   3   86.29    7.40
   8  -2  -3   85.89    6.40
  -6  -2   3   86.29    5.50
  -6   8  -3   80.39    6.50
  -6  -2   3   85.89    7.20
  -2   8   3   71.49    6.80
   7  -8   3   45.10    6.10
   1   7   3   50.79    6.60
  -8   1   3   43.40    6.20
   1   7   3   47.30    5.60
   1  -8  -3   42.60    5.00
   7  -8   3   47.60    4.70
  -8   1   3   52.09    4.70
  -8   7  -3   44.10    5.10
  -7  -1   3   61.59    6.60
   8  -7   3   52.69    4.90
  -7  -1   3   52.99    4.70
   8  -7   3   51.09    6.40
   8  -1  -3   52.79    6.00
  -1   8   3   52.89    7.00
  -1  -7  -3   49.10    5.50
  -7   8  -3   55.19    5.10
  -1   8   3   48.90    5.50
   8   0  -3   12.30    4.40
   8  -8   3   12.50    4.90
   0   8   3    6.90    5.10
  -8   0   3   10.90    5.40
   8  -8   3    5.00    3.40
   0  -8  -3    9.70    3.90
   0   8   3   10.00    3.90
  -8   0   3   13.30    3.40
   0   9  -3  102.79    8.40
  -9   9   3  120.19    8.80
  -9   0  -3  114.79    8.50
   9  -9  -3  124.79    8.60
   0  -9   3  116.69    7.50
   9   0   3  115.39    7.60
  -9   1  -3   24.10    5.30
  -9   8   3   16.40    5.00
   8  -9  -3   18.60    5.50
   1  -9   3   24.00    4.50
   8   1   3   18.50    4.70
   8   1   3   20.00    3.00
  -1  -8   3   21.50    4.40
   9  -1   3   16.50    4.60
   9  -8  -3   17.60    5.50
  -1   9  -3   13.70    5.20
  -8   9   3   18.50    5.10
  -8  -1  -3   19.50    5.50
   2   7  -3  430.86   14.70
   7   2   3  436.46   15.10
  -9   7   3  484.95   17.60
   7  -9  -3  460.85   17.20
  -9   2  -3  416.56   14.60
   7   2   3  453.55   16.90
   2  -9   3  443.36   16.70
  -9   2  -3  453.75   17.40
  -7  -2  -3  460.05   17.30
   9  -2   3  455.75   16.80
   9  -7  -3  471.25   17.70
  -2  -7   3  466.75   16.80
  -2  -7   3  457.25   18.90
  -2   9  -3  447.66   17.20
  -7   9   3  453.45   17.10
   6   3   3  592.84   19.70
   6   3   3  602.24   21.00
   6  -9  -3  595.94   21.30
  -9   3  -3  557.84   19.20
  -9   6   3  561.34   18.80
   3  -9   3  599.74   19.30
   3  -9   3  610.24   21.10
  -9   6   3  614.04   21.40
   3   6  -3  580.44   19.50
  -3  -6   3  615.34   22.90
  -6  -3  -3  596.34   21.20
  -6   9   3  606.54   21.30
  -3   9  -3  596.84   21.40
   9  -6  -3  587.34   21.20
   9  -3   3  577.84   20.90
  -3  -6   3  609.54   20.90
   4  -9   3   33.80    3.50
   4   5  -3   42.00    4.30
   4  -9   3   30.40    5.50
  -9   5   3   39.60    3.00
   5   4   3   35.50    5.60
  -9   4  -3   32.10    3.70
   5   4   3   37.30    4.20
  -9   5   3   39.20    5.90
  -4   9  -3   31.20    5.80
  -4  -5   3   46.20    7.30
  -5  -4  -3   34.50    5.70
  -4  -5   3   37.50    5.60
  -5   9   3   36.90    5.80
   9  -4   3   45.20    7.00
   9  -5  -3   39.10    5.90
   9  -4   3   29.80    5.20
   5  -9   3  582.64   20.60
   4  -9  -3  545.15   18.50
  -9   4   3  574.14   19.10
   5  -9   3  567.84   19.10
   5   4  -3  562.64   19.50
   4   5   3  555.54   19.70
   4   5   3  575.44   20.50
  -9   5  -3  557.74   19.20
  -9   4   3  573.84   20.90
  -5  -4   3  587.24   20.30
   9  -4  -3  592.64   20.70
  -4   9   3  587.24   21.20
   9  -5   3  613.04   22.00
  -4   9   3  573.34   20.60
  -5  -4   3  600.94   21.60
  -5   9  -3  564.44   20.60
  -4  -5  -3  576.14   20.40
   9  -5   3  579.44   20.30
   3  -9  -3  291.77   10.80
   6  -9   3  292.87   11.20
  -9   6  -3  290.67   11.40
   6   3  -3  292.37   11.60
   3   6   3  305.57   12.50
  -9   3   3  297.67   12.80
  -9   3   3  315.27   11.30
   6  -9   3  301.67   12.60
  -3  -6  -3  287.67   12.40
  -6  -3   3  325.47   13.70
  -6   9  -3  317.67   12.90
  -3   9   3  311.97   13.70
  -6  -3   3  306.67   12.10
   9  -6   3  286.67   12.00
  -3   9   3  293.37   12.50
   9  -3  -3  312.47   12.70
   9  -6   3  320.37   13.70
   7  -9   3   32.10    4.60
   2   7   3   36.00    4.60
   2   7   3   34.90    5.80
   7  -9   3   39.40    6.10
   2  -9  -3   38.40    4.50
  -9   2   3   42.90    6.40
   7   2  -3   38.40    5.20
  -9   2   3   39.50    4.90
  -9   7  -3   32.30    4.80
  -7   9  -3   40.10    6.10
  -2   9   3   33.90    5.40
   9  -7   3   38.60    6.60
   9  -2  -3   48.30    6.60
  -7  -2   3   34.90    6.60
   9  -7   3   39.50    5.50
  -7  -2   3   44.90    4.90
  -2  -7  -3   34.90    5.80
  -2   9   3   36.80    6.30
   1  -9  -3   23.30    4.20
   1   8   3   27.20    5.20
   1   8   3   19.70    4.70
   8   1  -3   20.30    4.80
  -9   8  -3   24.00    4.50
   8  -9   3   21.50    5.40
  -9   1   3   14.00    6.00
  -9   1   3   18.60    5.40
   8  -9   3   27.20    4.80
  -1   9   3   25.60    5.30
   9  -8   3   23.80    5.60
  -8  -1   3   26.80    4.70
   9  -8   3   22.40    4.30
  -8  -1   3   14.80    5.50
  -8   9  -3   19.60    4.70
   9  -1  -3   20.10    5.40
  -1   9   3   22.70    5.20
  -1  -8  -3   20.80    4.60
   9   0  -3  113.59    8.20
  -9   0   3  112.19    8.30
   0  -9  -3  116.59    7.10
   9  -9   3  112.99    8.50
   0   9   3  112.59    8.70
  -9   9  -3  112.89    7.50
   0   9   3  118.09    7.80
   9  -9   3  117.69    7.20
  -9   0   3  123.39    7.50
  10   0   3   32.90    5.60
   0  10  -3   35.60    6.60
 -10   0  -3   35.70    6.80
 -10  10   3   28.50    6.50
  10 -10  -3   30.10    6.50
   0 -10   3   34.60    5.90
   9   1   3  353.46   14.50
   9 -10  -3  355.36   14.80
   1 -10   3  341.07   14.00
   1   9  -3  340.27   15.00
 -10   1  -3  340.47   14.70
 -10   9   3  334.97   14.30
  -1  10  -3  330.17   14.70
  10  -1   3  357.26   14.10
  -9  -1  -3  351.06   14.90
  -1  -9   3  337.97   13.90
  -9  10   3  343.07   14.40
  10  -9  -3  346.07   14.50
   8   2   3  404.86   16.10
   8 -10  -3  440.56   16.80
 -10   8   3  416.46   16.50
   2 -10   3  417.56   16.10
 -10   2  -3  415.56   16.70
   8   2   3  415.86   14.10
  -2  10  -3  406.46   16.80
  -8  10   3  424.86   16.60
  -8  -2  -3  420.26   16.70
  -2  -8   3  425.66   16.10
  10  -2   3  428.06   16.50
  10  -8  -3  425.36   17.00
   3 -10   3    9.60    4.40
   7   3   3    6.40    2.50
 -10   7   3    2.60    4.80
 -10   3  -3    0.90    5.20
   3   7  -3    3.10    2.20
   7   3   3    3.10    4.30
   7 -10  -3   -3.60    5.00
  -3  10  -3    3.50    4.90
  -7  10   3   -1.80    4.40
  10  -3   3    2.00    4.30
  -3  -7   3   13.90    6.90
  -7  -3  -3    1.80    5.00
  10  -7  -3    1.60    5.10
  -3  -7   3   11.30    4.20
   4   6  -3  737.93   24.80
   4 -10   3  765.62   24.60
   6   4   3  765.62   26.40
   6   4   3  736.13   25.10
 -10   6   3  799.62   26.90
   6 -10  -3  762.62   26.70
 -10   6   3  737.93   24.50
 -10   4  -3  696.93   24.40
   4 -10   3  778.62   26.50
  10  -4   3  787.02   26.40
  -4  -6   3  795.42   28.20
  -4  -6   3  774.22   26.40
  -4  10  -3  770.42   26.80
  10  -6  -3  793.22   26.80
  -6  -4  -3  788.02   26.70
  10  -4   3  774.52   28.10
  -6  10   3  773.12   26.60
 -10   5   3  879.01   28.50
   5 -10   3  895.21   30.20
   5 -10  -3  809.52   27.60
   5   5  -3  873.71   28.80
   5   5   3  871.91   29.00
 -10   5  -3  846.02   28.40
   5   5   3  880.31   29.90
 -10   5   3  890.71   30.20
   5 -10   3  873.21   28.50
  -5  -5   3  884.51   31.20
  -5  10  -3  885.01   30.20
  -5  -5  -3  900.61   30.30
  -5  10   3  897.81   30.20
  10  -5   3  897.11   31.40
  -5  -5   3  899.11   29.90
  10  -5  -3  921.61   30.60
  10  -5   3  913.11   30.00
   6   4  -3   46.70    5.20
   4 -10  -3   37.70    3.50
   4   6   3   49.40    5.20
 -10   4   3   43.00    6.40
 -10   6  -3   37.60    4.50
   4   6   3   39.10    6.00
   6 -10   3   31.00    5.70
 -10   4   3   41.80    4.40
   6 -10   3   45.20    4.40
  -4  10   3   39.70    6.10
  -6  -4   3   47.90    5.40
  10  -6   3   43.20    5.50
  -4  10   3   62.59    7.30
  -4  -6  -3   38.60    6.00
  10  -4  -3   51.79    6.60
  10  -6   3   41.80    7.10
  -6  -4   3   47.20    7.80
  -6  10  -3   49.60    6.40
   7 -10   3  169.08    7.80
 -10   7  -3  168.58    8.20
   3   7   3  185.18    9.70
   7   3  -3  176.18    8.70
   7 -10   3  168.08    9.40
 -10   3   3  164.28    9.40
 -10   3   3  178.48    8.20
   3   7   3  166.88    8.40
   3 -10  -3  161.58    7.30
  -7  10  -3  167.78    9.10
  -3  -7  -3  169.38    9.40
  10  -7   3  174.28   10.50
  10  -7   3  167.18    8.60
  -7  -3   3  181.18    9.10
  -3  10   3  172.28    9.30
  10  -3  -3  176.78    9.30
  -7  -3   3  165.98   10.30
  -3  10   3  178.28   10.00
   2   8   3  288.27   12.10
   2 -10  -3  277.97   10.80
   8 -10   3  280.37   12.50
 -10   8  -3  262.57   11.40
 -10   2   3  272.87   12.50
   2   8   3  277.27   12.10
 -10   2   3  243.18   12.20
   8   2  -3  265.67   11.60
  10  -2  -3  269.37   12.70
  -8  10  -3  277.67   12.20
  10  -8   3  273.37   11.80
  10  -8   3  278.07   13.20
  -8  -2   3  286.57   11.70
  -8  -2   3  264.87   12.90
  -2  -8  -3  269.17   11.80
  -2  10   3  294.67   13.00
  -2  10   3  266.57   12.60
 -10   1   3   89.69    7.00
   9 -10   3   91.29    6.90
   9   1  -3   87.99    7.70
   1 -10  -3   95.79    6.90
   1   9   3   88.49    7.70
 -10   1   3  101.19    8.20
   1   9   3   89.69    7.30
   9 -10   3   97.89    7.20
  -1  -9  -3   97.09    7.30
  10  -9   3   86.19    8.50
  -9  10  -3   89.39    7.50
  -1  10   3   99.19    7.90
  -1  10   3   99.69    7.90
  -9  -1   3   97.79    7.40
  10  -9   3   95.59    7.20
  -9  -1   3   93.39    8.30
  10  -1  -3   96.89    8.50
  10 -10   3    5.10    5.60
 -10   0   3    4.20    4.50
 -10   0   3    4.30    5.50
 -10  10  -3    6.50    5.10
   0 -10  -3    5.00    4.50
  10 -10   3    7.00    4.40
   0  10   3    6.90    5.30
  10   0  -3    0.70    5.30
   0  10   3    3.70    5.40
   0  11  -3  333.97   15.80
 -11   0  -3  349.37   15.60
  11   0   3  342.27   14.40
 -11  11   3  359.96   15.00
  11 -11  -3  348.77   15.10
   0 -11   3  347.77   14.40
   1  10  -3  259.57   12.50
  10 -11  -3  250.07   12.40
 -11  10   3  244.58   11.90
   1 -11   3  251.97   11.50
  10   1   3  239.78   11.50
 -11   1  -3  256.07   12.60
  -1  11  -3  242.88   12.50
 -10  11   3  243.88   12.00
  11  -1   3  259.87   11.70
  -1 -10   3  252.57   11.60
 -10  -1  -3  240.08   12.50
  11 -10  -3  244.18   12.40
   9   2   3    6.50    2.50
   9 -11  -3   -2.50    5.70
   2 -11   3   11.30    4.80
 -11   9   3    1.60    5.70
   9   2   3   11.30    5.40
 -11   2  -3    2.00    5.70
   2   9  -3    3.40    5.90
  11  -9  -3    6.80    5.90
  -9  11   3    4.80    5.40
  -2  -9   3    5.50    4.50
  -2  11  -3   10.10    6.20
  11  -2   3    4.00    5.40
  -9  -2  -3    1.70    5.70
   8 -11  -3  521.95   19.90
 -11   3  -3  526.85   20.30
   8   3   3  475.75   17.50
 -11   8   3  520.45   19.70
   3 -11   3  518.05   19.40
   8   3   3  525.45   19.60
  -3  11  -3  556.94   20.30
  -8  -3  -3  542.25   20.20
  -8  11   3  536.65   20.00
  -3  -8   3  544.05   19.50
  11  -8  -3  542.05   20.20
  11  -3   3  539.35   19.60
   4 -11   3  796.72   27.50
   7   4   3  787.12   27.30
   7 -11  -3  797.12   27.60
 -11   4  -3  794.92   28.20
   7   4   3  755.82   25.80
   4   7  -3  718.23   25.30
 -11   7   3  769.42   27.50
   4 -11   3  883.21   25.80
 -11   7   3  737.13   25.20
  -7  11   3  788.42   27.60
  -4  -7   3  801.42   27.40
  -4  11  -3  786.02   27.90
  -4  -7   3  801.02   29.50
  11  -4   3  798.62   27.40
  11  -7  -3  851.61   28.40
  -7  -4  -3  814.32   27.80
 -11   5  -3   18.40    2.60
   6 -11  -3   17.40    5.90
   5   6  -3   24.80    3.50
   5 -11   3   20.50    2.80
   5 -11   3   11.70    5.00
 -11   6   3   15.10    3.00
 -11   6   3   16.10    5.40
   6   5   3   17.00    5.00
   6   5   3   31.50    4.40
  11  -5   3   17.40    5.30
  -5  11  -3   26.00    6.40
  -5  -6   3   23.00    7.60
  -6  11   3   17.80    5.60
  -6  -5  -3   15.40    5.50
  11  -6  -3   20.90    5.80
  -5  -6   3   17.90    4.80
  11  -5   3   22.50    7.00
 -11   6  -3  480.15   16.70
   5   6   3  488.35   17.40
 -11   5   3  497.05   17.10
   5   6   3  492.75   18.30
   6   5  -3  480.25   17.30
   6 -11   3  480.45   16.60
   6 -11   3  493.15   18.40
   5 -11  -3  449.76   15.90
 -11   5   3  502.85   18.80
  -6  11  -3  508.65   19.10
  -6  -5   3  504.05   18.20
  11  -6   3  478.05   18.10
  -6  -5   3  502.55   19.90
  -5  -6  -3  480.25   18.40
  11  -6   3  510.55   20.20
  -5  11   3  487.95   18.40
  11  -5  -3  493.65   18.70
   7 -11   3  526.55   18.60
   4   7   3  528.95   19.30
   7   4  -3  535.05   19.20
 -11   4   3  569.84   20.70
 -11   7  -3  509.95   18.60
   4 -11  -3  516.95   18.10
   7 -11   3  568.54   20.40
   4   7   3  558.14   20.30
 -11   4   3  553.04   19.10
  -4  11   3  584.94   21.20
  -4  -7  -3  551.94   20.00
  -7  11  -3  543.15   20.20
  11  -7   3  547.25   20.10
  -4  11   3  552.64   20.80
  -7  -4   3  540.25   21.30
  11  -7   3  541.15   21.60
  -7  -4   3  559.44   20.10
  11  -4  -3  531.35   20.30
 -11   8  -3   48.20    5.80
 -11   3   3   56.39    5.60
   8 -11   3   55.79    5.40
   3   8   3   61.19    6.80
   3   8   3   48.00    6.60
 -11   3   3   48.10    6.90
   8 -11   3   40.70    7.00
   3 -11  -3   58.09    5.00
  -8  11  -3   54.59    6.80
  11  -3  -3   63.39    7.30
  11  -8   3   56.69    8.10
  -3  11   3   52.99    7.40
  -3  11   3   53.09    8.70
  -8  -3   3   47.20    7.80
  -8  -3   3   59.99    6.30
  11  -8   3   57.19    7.00
  -3  -8  -3   55.09    7.20
 -11   9  -3  111.39    7.70
 -11   2   3  112.69    7.60
   2   9   3  119.99    8.50
   9 -11   3  107.49    7.00
 -11   2   3  105.79    8.50
   9 -11   3  109.09    8.70
   2 -11  -3  111.09    7.00
   2   9   3  118.69    8.30
   9   2  -3  115.99    8.10
  -2  11   3  114.69    9.10
  11  -9   3  114.39    9.30
  -9  -2   3  107.59    8.30
  11  -2  -3  120.49    9.50
  -2  -9  -3  110.19    7.60
  -2  11   3  108.59    8.50
  -9  -2   3  114.49    9.40
  -9  11  -3  112.69    8.70
  11  -9   3  115.69    8.30
   1  10   3  181.28   10.40
 -11   1   3  173.88    9.60
  10   1  -3  177.88   10.00
  10 -11   3  158.58    8.90
   1 -11  -3  167.68    8.70
 -11  10  -3  173.08    9.40
 -11   1   3  159.98   10.00
   1  10   3  164.78   10.50
  10 -11   3  146.39   10.20
  -1  11   3  159.48   10.10
 -10  -1   3  154.18   10.40
  11 -10   3  170.88    9.50
  -1 -10  -3  167.18    9.40
  11 -10   3  157.38   10.70
  -1  11   3  178.98   10.10
  11  -1  -3  170.18    9.80
 -10  11  -3  170.08   10.00
 -10  -1   3  172.18    9.30
   0  11   3   83.49    8.80
 -11   0   3   60.19    8.20
   0 -11  -3   72.79    7.60
  11   0  -3   94.19    8.70
   0  11   3   72.09    7.80
  11 -11   3   73.69    7.40
 -11   0   3   78.59    7.80
 -11  11  -3   74.69    7.90
  11 -11   3   77.49    8.50
   0 -12   3   73.99    7.20
 -12  12   3   47.30    7.70
  12 -12  -3   63.19   10.10
   0  12  -3   75.29    8.90
  12   0   3   70.19    8.40
 -12   0  -3   50.59    8.80
  11   1   3   27.10    5.90
  11 -12  -3   49.50    8.20
 -12   1  -3   14.70    6.90
   1  11  -3   20.00    7.00
   1 -12   3   31.20    5.70
 -12  11   3   33.80    6.50
  -1 -11   3   29.30    5.80
 -11  -1  -3   26.60    7.20
  12  -1   3   26.80    5.90
  -1  12  -3   22.30    7.10
  12 -11  -3   35.30    7.90
 -11  12   3   22.30    6.30
   2 -12   3  332.87   14.00
 -12  10   3  336.67   14.90
  10 -12  -3  341.17   14.70
   2  10  -3  339.87   15.00
  10   2   3  337.17   14.00
 -12   2  -3  322.67   15.00
  -2  12  -3  315.47   15.00
  12  -2   3  318.57   14.10
  12 -10  -3  337.67   15.00
 -10  12   3  314.87   14.30
 -10  -2  -3  331.87   15.00
  -2 -10   3  329.37   13.90
   9 -12  -3  529.85   20.30
   3   9  -3  491.55   20.50
   3 -12   3  521.95   19.60
 -12   3  -3  543.45   20.50
   9   3   3  494.85   17.40
 -12   9   3  541.35   20.10
   9   3   3  558.34   20.10
  12  -9  -3  543.05   20.70
  -3  -9   3  534.15   19.80
  12  -3   3  530.45   19.90
  -9  12   3  540.25   20.30
  -3  12  -3  522.85   20.50
  -9  -3  -3  547.05   20.60
 -12   4  -3   26.80    6.90
   8   4   3   38.80    4.10
   8   4   3   35.40    6.00
   4 -12   3   42.50    6.40
   8 -12  -3   40.40    7.40
   4   8  -3   33.50    2.60
 -12   8   3   37.10    7.00
  -8  12   3   37.00    6.70
  -8  -4  -3   32.80    6.80
  12  -8  -3   28.30    6.80
  -4  12  -3   38.00    7.00
  12  -4   3   30.20    5.90
  -4  -8   3   28.40    5.60
   7   5   3  409.56   14.90
   7 -12  -3  420.26   17.40
   5 -12   3  409.76   14.00
   5   7  -3  395.26   14.30
 -12   7   3  410.56   14.50
   5 -12   3  422.36   16.50
 -12   7   3  397.26   16.50
   7   5   3  405.46   16.40
  -7  -5  -3  432.96   17.00
  -5  -7   3  454.85   19.30
  -7  12   3  427.26   16.90
  12  -7  -3  426.86   17.20
  -5  -7   3  432.56   16.50
  12  -5   3  414.66   16.70
  -5  12  -3  434.96   17.20
   6 -12   3  549.85   20.30
   6 -12   3  539.85   18.20
 -12   6  -3  488.25   17.70
 -12   6   3  567.64   18.80
   6   6   3  520.55   18.90
   6   6  -3  538.85   18.60
   6 -12  -3  544.15   20.60
 -12   6   3  568.94   20.80
   6   6   3  553.04   20.10
   6 -12  -3  513.55   17.60
  -6  12   3  543.45   20.50
  12  -6  -3  573.14   20.80
  -6  12  -3  555.84   20.80
  12  -6   3  554.74   20.20
  -6  -6  -3  553.84   20.50
  -6  -6   3  552.44   22.30
  -6  -6   3  561.14   20.20
  12  -6   3  530.45   22.00
   5   7   3   11.10    5.10
 -12   5   3   15.70    5.50
   7   5  -3   20.30    4.20
   5   7   3   24.50    4.80
   7 -12   3   13.10    5.10
   7 -12   3   19.20    3.50
 -12   7  -3   14.40    3.50
 -12   5   3   14.10    4.20
   5 -12  -3   14.00    2.70
  -7  -5   3   19.00    7.50
  12  -7   3   20.80    7.20
  -5  12   3   11.80    6.00
  12  -7   3   19.40    5.60
  -7  12  -3   13.30    5.60
  12  -5  -3   24.90    7.30
  -7  -5   3   18.00    5.60
  -5  -7  -3   22.10    5.80
 -12   4   3  337.97   13.40
 -12   4   3  316.77   14.10
 -12   8  -3  330.97   12.80
   8   4  -3  312.67   13.20
   4   8   3  337.77   14.30
   4   8   3  341.97   13.70
   8 -12   3  320.67   12.40
   4 -12  -3  316.77   12.00
   8 -12   3  321.27   14.10
  -8  12  -3  305.27   14.10
  12  -8   3  320.37   15.50
  -8  -4   3  321.37   15.50
  12  -8   3  341.77   14.30
  -8  -4   3  336.27   13.90
  -4  12   3  333.57   14.80
  -4  12   3  332.57   14.50
  12  -4  -3  328.87   14.50
  -4  -8  -3  328.47   13.90
   9   3  -3  346.57   14.20
   3   9   3  358.96   14.60
 -12   3   3  362.36   15.50
   9 -12   3  338.37   15.00
   9 -12   3  339.77   13.50
   3 -12  -3  345.37   13.10
   3   9   3  338.87   14.50
 -12   9  -3  332.97   13.70
 -12   3   3  362.66   14.20
  -9  12  -3  336.37   14.80
  12  -9   3  342.67   14.30
  12  -3  -3  355.56   15.50
  -9  -3   3  340.77   15.70
  -3  12   3  338.87   15.00
  12  -9   3  348.87   16.00
  -3  -9  -3  341.67   14.70
  -9  -3   3  357.46   15.00
  -3  12   3  338.57   15.30
 -12   2   3   43.40    6.90
 -12  10  -3   49.90    7.00
   2  10   3   52.29    7.30
 -12   2   3   41.50    7.00
   2  10   3   57.89    8.10
  10 -12   3   49.10    7.60
  10   2  -3   49.90    6.90
  10 -12   3   43.60    6.10
  -2  12   3   60.39    8.20
 -10  12  -3   56.09    8.30
  -2 -10  -3   43.80    7.60
  12 -10   3   52.49    7.90
 -10  -2   3   58.49    9.60
  12  -2  -3   50.09    7.60
 -10  -2   3   48.10    6.70
  12 -10   3   41.10    6.50
  -2  12   3   56.99    8.70
 -12  11  -3   44.40    7.90
   1 -12  -3   35.80    5.50
   1  11   3   44.20    7.40
  11 -12   3   37.10    6.90
 -12   1   3   31.40    6.80
 -12   1   3   33.20    6.20
  11 -12   3   44.80    6.60
   1  11   3   59.19    8.30
  11   1  -3   45.50    7.00
  12 -11   3   34.10    7.20
  12  -1  -3   54.99    7.70
  -1 -11  -3   42.70    7.00
  12 -11   3   42.90    7.40
  -1  12   3   42.10    7.00
 -11  -1   3   41.00    8.10
  -1  12   3   48.60    7.90
 -11  12  -3   42.70    6.90
 -11  -1   3   36.50    6.60
  12 -12   3   68.99    9.00
   0  12   3   81.69    8.40
   0 -12  -3   76.69    7.30
  12   0  -3   87.59    9.60
 -12  12  -3   76.09    8.60
 -12   0   3   70.09    8.40
   0  12   3   62.49    9.00
  12 -12   3   73.99    8.10
 -12   0   3   70.79    8.60
  13   0   3    5.00    5.60
   0  13  -3   14.00    7.10
 -13  13   3   -4.10    6.10
   0 -13   3    7.20    5.10
  13 -13  -3    7.60    7.20
 -13   0  -3   -2.20    7.10
  12 -13  -3   87.59    9.50
 -13   1  -3   85.99    9.90
   1  12  -3  100.99    9.80
 -13  12   3   83.79    8.60
  12   1   3   87.59    9.00
   1 -13   3   80.59    7.80
  13 -12  -3   77.59    9.70
  -1 -12   3   90.29    8.00
 -12  13   3   87.29    9.70
 -12  -1  -3   72.19    9.50
  13  -1   3   82.19    8.30
  -1  13  -3  100.69    9.70
   2  11  -3  210.68   12.10
 -13  11   3  199.38   11.30
  11 -13  -3  213.68   11.70
  11   2   3  203.48   10.90
 -13   2  -3  203.28   12.30
   2 -13   3  219.48   10.90
  13 -11  -3  206.68   12.10
 -11  13   3  206.48   11.50
  -2  13  -3  203.18   12.20
  13  -2   3  199.88   11.10
  -2 -11   3  222.28   11.00
 -11  -2  -3  217.78   12.50
   3  10  -3   72.29    8.60
  10 -13  -3   71.89    8.40
 -13   3  -3   58.19    8.70
  10   3   3   72.99    7.50
   3 -13   3   69.59    7.20
 -13  10   3   53.49    7.50
 -10  -3  -3   54.69    9.00
  -3  13  -3   64.99    9.00
  13 -10  -3   79.79   10.20
 -10  13   3   45.70    7.80
  13  -3   3   70.69    7.70
  -3 -10   3   70.39    7.30
   9   4   3  220.28    8.80
 -13   4  -3  244.98   12.50
   4 -13   3  240.38   11.30
   4   9  -3  208.18   12.30
   9 -13  -3  224.18   12.20
 -13   9   3  230.18   11.70
   9   4   3  219.78   11.30
  -4  -9   3  237.88   11.50
  -9  -4  -3  229.28   12.50
  -9  13   3  226.38   11.90
  13  -9  -3  238.38   12.50
  -4  13  -3  237.78   12.60
  13  -4   3  240.68   11.50
   8   5   3  446.56   17.20
   5   8  -3  390.96   14.50
 -13   5  -3  443.96   18.30
   5 -13   3  433.76   17.30
   8 -13  -3  460.35   17.80
   8   5   3  442.26   15.60
 -13   8   3  448.66   17.70
 -13   8   3  437.36   15.30
  13  -5   3  443.46   17.40
  -8  -5  -3  442.66   18.10
  -5  13  -3  451.65   18.20
  -8  13   3  441.26   17.80
  -5  -8   3  452.55   17.40
  13  -8  -3  464.45   18.20
 -13   7   3    2.50    5.40
   6 -13   3   15.90    2.80
   6 -13   3   12.10    5.10
 -13   7   3    7.30    3.60
   7   6   3    8.30    5.30
   7 -13  -3    4.40    6.00
   6   7  -3   16.50    3.30
  -6  -7   3   22.60    8.50
  -6  13  -3    7.40    6.20
  13  -7  -3   11.30    6.90
  -7  13   3    7.30    6.00
  -6  -7   3    9.40    5.10
  -7  -6  -3    3.90    6.20
  13  -6   3   15.90    6.10
   6   7   3  399.56   16.30
   6 -13  -3  391.96   13.90
   7 -13   3  403.36   16.40
 -13   7  -3  385.16   14.00
   7 -13   3  393.56   14.40
 -13   6   3  424.76   15.50
   6 -13  -3  397.46   16.90
 -13   6   3  411.96   16.70
   7   6  -3  388.96   15.00
   6   7   3  411.96   15.80
  -7  -6   3  430.76   18.90
  -7  -6   3  431.06   16.60
  -6  -7  -3  444.06   17.60
  -6  13   3  410.26   17.20
  -7  13  -3  424.26   17.20
  13  -7   3  425.46   16.60
  13  -6  -3  431.86   17.20
  13  -7   3  423.96   18.80
   8 -13   3  411.96   15.30
   8   5  -3  410.86   15.80
   8 -13   3  425.96   17.10
   5   8   3  433.26   16.80
 -13   5   3  437.36   16.40
 -13   8  -3  398.36   15.00
   5   8   3  424.46   16.80
 -13   5   3  414.46   17.10
   5 -13  -3  399.86   14.70
  -8  -5   3  440.06   19.20
  13  -8   3  433.56   18.90
  -8  -5   3  440.66   17.00
  -5  -8  -3  420.26   17.10
  13  -8   3  427.46   17.00
  13  -5  -3  454.35   18.50
  -8  13  -3  438.26   17.90
  -5  13   3  439.56   17.70
 -13   9  -3   11.50    4.20
   9 -13   3    4.80    5.60
   4   9   3   16.40    5.70
 -13   4   3   11.00    4.80
   9   4  -3   10.40    4.90
 -13   4   3    8.10    5.50
   4 -13  -3   10.40    3.50
   4   9   3    4.40    5.10
  -4  13   3   23.20    7.20
  -9  -4   3   10.90    7.10
  13  -9   3   14.90    6.10
  13  -9   3    9.70    7.50
  -9  -4   3    8.70    5.30
  -9  13  -3   15.30    7.00
  13  -4  -3   24.70    7.20
  -4  13   3    5.10    6.70
  -4  -9  -3   20.70    6.40
 -13  10  -3  148.79    8.90
   3  10   3  160.88    9.70
 -13   3   3  138.99    9.90
  10   3  -3  140.19    9.50
  10 -13   3  155.18    8.50
  10 -13   3  153.48   10.00
   3  10   3  163.18   10.10
   3 -13  -3  151.88    8.10
 -13   3   3  155.88    9.60
  13 -10   3  142.09   11.10
 -10  13  -3  160.18   11.00
 -10  -3   3  161.18   10.20
  13  -3  -3  155.58   11.40
  13 -10   3  158.88   10.40
  -3  13   3  157.38   10.40
 -10  -3   3  169.18   11.50
  -3 -10  -3  162.48    9.50
  -3  13   3  162.88   10.60
  11   2  -3  127.69    9.30
 -13   2   3  124.59   10.30
 -13  11  -3  119.19    8.80
  11 -13   3  119.49    9.60
  11 -13   3  134.39    8.50
 -13   2   3  117.19    9.30
   2  11   3  140.99   10.10
   2  11   3  120.49    9.20
   2 -13  -3  131.99    8.40
 -11  -2   3  136.09   10.50
  13 -11   3  115.69   10.50
  13  -2  -3  142.09   10.90
  -2 -11  -3  139.49    9.50
  -2  13   3  137.39   10.20
 -11  13  -3  136.99   10.20
  -2  13   3  126.19    9.80
  13 -11   3  147.99   10.00
 -11  -2   3  123.69    9.70
   1 -13  -3   23.40    5.50
  12 -13   3   21.30    6.00
 -13   1   3   27.60    6.80
   1  12   3   30.60    6.60
  12   1  -3   21.10    6.50
 -13   1   3   19.50    6.30
  12 -13   3   24.70    7.00
   1  12   3   22.80    7.00
 -13  12  -3   25.90    6.20
  13  -1  -3   22.00    7.40
  13 -12   3   26.10    7.20
  -1 -12  -3   23.50    5.90
 -12  -1   3   18.30    6.50
 -12  -1   3   29.20    8.20
 -12  13  -3   20.50    6.90
  -1  13   3   21.70    7.20
  -1  13   3   23.90    6.90
  13 -12   3   27.20    6.50
 -13   0   3    4.90    6.50
   0  13   3    8.50    6.70
  13 -13   3   15.80    6.00
   0 -13  -3    8.60    5.40
 -13  13  -3    4.40    5.80
 -13   0   3    0.30    6.30
   0  13   3    4.00    6.30
  13 -13   3    4.10    6.90
  13   0  -3    4.60    6.70
 -14   0  -3  -10.70    7.20
  14 -14  -3    5.90    6.90
  14   0   3    1.50    5.50
 -14  14   3   -4.70    5.80
   0  14  -3   -5.70    6.80
   0 -14   3    2.80    5.10
  13   1   3   27.70    6.30
 -14  13   3   31.40    6.70
   1 -14   3   36.20    6.40
 -14   1  -3   37.90    8.10
   1  13  -3   37.40    8.00
  13 -14  -3   54.49    9.20
 -13  -1  -3   46.40    8.50
  -1 -13   3   29.90    6.40
 -13  14   3   38.40    6.90
  14  -1   3   30.30    6.80
  14 -13  -3   52.39    8.90
  -1  14  -3   43.50    8.10
  12   2   3   12.30    6.40
  12 -14  -3   18.60    7.30
 -14   2  -3    8.60    7.60
   2 -14   3   11.90    5.60
 -14  12   3   14.10    6.40
   2  12  -3   24.60    7.60
  14 -12  -3   22.50    8.30
  14  -2   3   14.90    6.10
 -12  -2  -3   14.10    7.70
  -2 -12   3   15.20    5.60
  -2  14  -3   19.90    7.50
 -12  14   3    6.70    6.40
  11 -14  -3  105.59    9.60
  11   3   3  104.29    9.40
 -14  11   3   97.89    9.00
   3  11  -3   92.99    9.80
   3 -14   3  104.59    8.20
 -14   3  -3  114.89   10.20
  14 -11  -3  126.19   10.40
 -11  -3  -3  105.69   10.50
 -11  14   3   87.49    9.00
  -3  14  -3  108.69   10.30
  -3 -11   3  108.19    8.60
  14  -3   3  117.29    9.00
  10   4   3  297.37   14.00
   4 -14   3  285.27   13.20
   4  10  -3  302.67   15.10
 -14  10   3  290.27   13.70
 -14   4  -3  274.57   14.40
  10 -14  -3  304.47   14.20
  -4 -10   3  313.27   13.70
  -4  14  -3  308.37   14.70
  14  -4   3  293.47   13.50
 -10  14   3  304.17   14.10
  14 -10  -3  308.47   14.80
 -10  -4  -3  320.47   14.90
 -14   9   3   32.70    3.90
 -14   9   3   38.70    7.30
   5   9  -3   38.00    7.60
   9   5   3   27.30    6.10
 -14   5  -3   48.70    8.50
   9 -14  -3   34.10    7.40
   5 -14   3   29.30    5.90
  -9  14   3   36.50    7.70
  -5  -9   3   37.20    6.40
  -5  14  -3   58.39    9.90
  -9  -5  -3   40.20    8.30
  14  -5   3   41.20    6.70
  14  -9  -3   35.20    8.00
 -14   6  -3  246.88   13.30
 -14   8   3  235.38   10.60
   8   6   3  242.68   12.00
   6   8  -3  232.78    9.40
   6 -14   3  252.57   12.30
   8 -14  -3  273.27   13.00
 -14   8   3  261.07   13.00
   8   6   3  257.37   10.40
  -6  14  -3  267.27   13.50
  14  -6   3  268.87   12.60
  -8  -6  -3  255.47   13.20
  -8  14   3  255.37   12.90
  -6  -8   3  267.37   12.90
  14  -8  -3  273.57   14.10
   7 -14   3  339.07   12.40
   7   7  -3  325.87   12.80
   7   7   3  343.37   14.60
   7 -14   3  349.17   14.90
   7 -14  -3  331.97   15.20
 -14   7   3  333.77   15.50
 -14   7   3  329.77   13.70
   7 -14  -3  398.46   13.10
  -7  -7   3  364.26   17.90
  -7  -7   3  341.27   14.80
  -7  -7  -3  359.76   15.60
  -7  14   3  325.67   15.50
  14  -7  -3  356.96   16.80
  -7  14  -3  352.66   15.70
  14  -7   3  360.46   15.10
   8 -14   3   20.80    5.80
   8 -14   3   35.30    4.60
   6 -14  -3   33.10    7.80
   6   8   3   31.00    6.20
 -14   6   3   38.70    7.20
   6 -14  -3   24.70    4.00
   6   8   3   51.29    7.10
   8   6  -3   34.90    5.60
 -14   8  -3   33.80    4.10
 -14   6   3   18.90    5.30
  -8  14  -3   29.10    7.30
  14  -8   3   31.80    8.60
  -6  -8  -3   35.30    6.80
  14  -6  -3   32.70    7.60
  14  -8   3   33.70    6.40
  -6  14   3   29.00    7.20
  -8  -6   3   35.20    9.20
  -8  -6   3   23.10    5.90
 -14   5   3  293.47   13.70
 -14   9  -3  270.27   11.70
   9   5  -3  292.97   12.60
   9 -14   3  287.57   11.90
   5 -14  -3  283.17   11.40
   5   9   3  288.17   13.20
   9 -14   3  309.97   14.40
 -14   5   3  283.97   13.30
   5 -14  -3  293.77   14.20
   5   9   3  307.87   13.50
  14  -5  -3  311.37   15.30
  14  -9   3  301.47   15.70
  -9  -5   3  299.07   15.90
  -5  14   3  295.27   15.00
  -9  -5   3  316.77   14.40
  -5  -9  -3  322.67   14.50
  14  -9   3  308.37   13.90
  -9  14  -3  307.07   15.00
   4  10   3  257.17   12.50
  10 -14   3  246.78   11.50
 -14   4   3  241.18   12.70
   4  10   3  291.37   13.50
 -14   4   3  249.48   12.40
  10 -14   3  268.07   13.90
 -14  10  -3  249.97   11.50
   4 -14  -3  250.07   10.80
  10   4  -3  247.68   12.10
  14  -4  -3  264.27   13.40
  -4 -10  -3  279.67   13.50
 -10  -4   3  255.37   14.60
 -10  -4   3  277.17   12.80
  14 -10   3  270.77   13.00
  14 -10   3  262.17   15.00
  -4  14   3  253.07   13.30
 -10  14  -3  281.47   14.20
  11 -14   3    8.10    6.90
   3 -14  -3    7.80    4.30
   3  11   3   12.20    6.40
 -14  11  -3   18.40    5.50
  11   3  -3    7.90    5.80
  11 -14   3   14.50    5.10
 -14   3   3   10.10    5.90
   3  11   3   10.90    5.60
 -14   3   3    6.30    5.60
  14  -3  -3   20.50    6.90
 -11  14  -3   13.80    7.30
  -3  14   3   16.10    6.70
 -11  -3   3   10.00    5.80
  14 -11   3    0.00    6.90
 -11  -3   3   19.30    8.60
  -3 -11  -3   11.30    5.80
  -3  14   3    5.50    6.30
  14 -11   3   16.20    5.90
  12   2  -3   47.80    8.20
 -14   2   3   50.39    7.40
  12 -14   3   42.60    8.30
   2 -14  -3   43.50    7.10
 -14  12  -3   50.49    7.70
   2  12   3   75.79    9.50
  12 -14   3   58.19    7.80
   2  12   3   47.50    7.90
 -14   2   3   49.20    8.00
  14 -12   3   50.39    9.10
  -2 -12  -3   56.19    8.40
  14 -12   3   50.39    8.00
  14  -2  -3   58.99    9.00
  -2  14   3   53.39    8.60
 -12  -2   3   47.40    7.60
 -12  -2   3   43.10    8.40
  -2  14   3   45.90    8.00
 -12  14  -3   58.89    9.60
 -14   1   3   29.70    7.90
   1 -14  -3   25.80    5.90
   1  13   3   27.50    6.90
  13 -14   3   27.00    7.10
   1  13   3   29.60    6.60
 -14  13  -3   28.20    6.30
 -14   1   3   29.60    7.10
  13   1  -3   20.70    6.80
  13 -14   3   48.00    8.10
  -1 -13  -3   29.90    6.10
  -1  14   3   41.00    8.10
 -13  14  -3   19.40    6.80
  14 -13   3   41.40    7.50
 -13  -1   3   26.10    7.80
  14  -1  -3   23.90    6.90
  14 -13   3   26.60    7.50
 -13  -1   3   25.90    7.10
  -1  14   3   34.50    7.50
   0  14   3   15.30    7.00
   0 -14  -3    8.10    5.60
 -14  14  -3   10.40    6.10
  14 -14   3    4.00    6.70
   0  14   3   10.50    7.10
  14 -14   3   22.40    6.40
 -14   0   3    8.20    7.00
  14   0  -3    7.30    6.40
 -14   0   3    5.20    6.50
  15   0   3   32.00    6.90
 -15  15   3   30.50    6.80
 -15   0  -3   32.80    8.10
  15 -15  -3   32.80    7.50
   0  15  -3   26.00    7.20
   0 -15   3   24.40    5.70
   1 -15   3   15.50    5.70
   1  14  -3   10.90    6.80
  14 -15  -3   11.50    6.90
  14   1   3    8.90    5.60
 -15   1  -3   14.50    7.40
 -15  14   3   11.10    6.10
 -14  15   3   12.90    6.80
  -1  15  -3   12.00    7.00
  15  -1   3    8.70    5.90
 -14  -1  -3    8.80    7.20
  15 -14  -3   22.30    7.30
  -1 -14   3    9.30    5.60
  13   2   3    7.80    5.60
   2  13  -3    1.00    7.50
  13 -15  -3   19.10    7.50
 -15   2  -3   13.40    7.40
   2 -15   3    9.60    5.30
 -15  13   3    7.40    6.00
 -13  15   3   12.80    6.40
  15 -13  -3   25.30    7.80
  15  -2   3   12.50    5.80
 -13  -2  -3    3.00    7.60
  -2 -13   3   12.20    5.60
  -2  15  -3   26.50    8.40
 -15  12   3   99.19    9.10
  12 -15  -3  107.29    9.80
 -15   3  -3   78.79   10.20
   3 -15   3   92.99    8.20
  12   3   3   98.69    8.40
   3  12  -3  111.09   10.00
  15  -3   3  109.29    9.10
  -3 -12   3  110.69    8.60
 -12  15   3   85.49    9.10
 -12  -3  -3  111.79   10.40
  -3  15  -3  106.59   10.00
  15 -12  -3  109.39   10.60
  11 -15  -3   35.40    8.30
  11   4   3   39.80    7.10
 -15  11   3   30.90    6.90
 -15   4  -3   35.40    8.80
   4  11  -3   30.10    7.70
   4 -15   3   37.10    6.20
 -11  15   3   32.10    7.20
  15  -4   3   32.90    6.60
  -4 -11   3   33.70    6.70
 -11  -4  -3   36.40    8.10
  -4  15  -3   51.19    9.00
  15 -11  -3   41.20    8.50
  10   5   3  138.19    9.50
   5  10  -3  148.29   10.80
   5 -15   3  140.49    9.40
 -15   5  -3  121.89   10.90
 -15  10   3  155.38   10.90
  10 -15  -3  159.38   10.80
 -10  -5  -3  153.88   11.30
 -10  15   3  132.29   10.20
  15 -10  -3  157.68   11.10
  -5  15  -3  154.88   11.20
  15  -5   3  160.48   11.00
  -5 -10   3  157.38    9.80
 -15   9   3  305.87   14.00
   9   6   3  304.37   13.80
   6 -15   3  292.57   13.80
   9 -15  -3  324.97   14.80
 -15   9   3  259.67   12.30
 -15   6  -3  316.57   14.90
   6   9  -3  305.97   15.00
  -9  -6  -3  361.66   16.20
  15  -9  -3  317.17   15.30
  15  -6   3  317.37   14.40
  -6  -9   3  327.87   14.20
  -6  15  -3  321.87   15.20
  -9  15   3  306.07   14.60
 -15   7  -3    3.80    7.10
   8 -15  -3   21.20    7.80
   7   8  -3   21.80    3.40
   8   7   3   18.60    6.50
 -15   8   3    2.20    5.80
   7 -15   3    9.40    5.50
  -7  15  -3   25.40    7.70
  -8  -7  -3   18.60    7.00
  -8  15   3    6.50    6.70
  -7  -8   3   15.00    5.80
  15  -7   3   14.90    6.90
  15  -8  -3    8.10    7.40
   7 -15  -3  168.88    7.70
   8 -15   3  170.18   10.40
   8   7  -3  177.58    8.70
   7   8   3  172.38   10.30
 -15   7   3  173.78   10.70
   7 -15  -3  185.58   11.20
   8 -15   3  177.18    8.30
   7   8   3  203.68   10.30
  15  -8   3  197.38   11.20
  -8  -7   3  188.18   14.30
  -7  -8  -3  194.38   11.80
  -8  -7   3  197.98   10.80
  15  -7  -3  200.68   12.10
  -7  15   3  191.18   11.80
  -8  15  -3  205.38   12.20
 -15   6   3  216.78   12.40
   6 -15  -3  219.98   12.40
   6 -15  -3  206.98    9.10
   9 -15   3  213.38    9.80
 -15   9  -3  250.07   10.60
   6   9   3  250.27   11.60
 -15   6   3  202.08   11.60
   6   9   3  208.78   11.40
   9 -15   3  220.38   11.70
  -9  -6   3  238.38   12.00
  -9  15  -3  224.98   12.80
  15  -6  -3  207.88   13.90
  15  -9   3  210.18   12.00
  15  -9   3  191.38   13.80
  -6  -9  -3  228.38   12.10
  -6  15   3  208.78   12.40
  -9  -6   3  226.38   14.70
 -15   5   3   -2.10    5.90
   5 -15  -3   19.80    7.40
 -15   5   3   20.50    6.50
   5 -15  -3   16.00    3.90
  10 -15   3   22.80    4.90
 -15  10  -3   33.30    5.70
   5  10   3   22.70    6.10
  10 -15   3   12.40    6.20
  10   5  -3   20.30    5.50
   5  10   3   43.70    7.60
  15 -10   3   22.10    7.20
  -5  15   3   24.10    7.00
 -10  15  -3   27.70    8.10
 -10  -5   3   15.50    9.40
 -10  -5   3   15.20    6.10
  15 -10   3   15.10    8.20
  15  -5  -3   19.30    7.40
  -5 -10  -3   22.10    7.20
 -15  11  -3  160.78    9.50
  11 -15   3  166.98   10.90
  11   4  -3  160.38   10.60
  11 -15   3  189.28   10.00
   4  11   3  199.68   11.60
 -15   4   3  156.88   10.80
   4  11   3  173.18   11.30
   4 -15  -3  164.68    8.90
  -4 -11  -3  199.18   11.90
 -11  15  -3  189.58   12.50
  15  -4  -3  183.28   11.80
  -4  15   3  173.78   11.50
 -11  -4   3  192.58   11.00
  15 -11   3  192.28   12.10
 -11  -4   3  181.68   14.40
  15 -11   3  177.98   13.00
  12   3  -3  106.89    9.00
   3 -15  -3  104.19    7.90
 -15   3   3  117.29   10.30
  12 -15   3  108.29    9.50
   3  12   3  135.09   10.70
   3  12   3  101.99   10.00
  12 -15   3  105.29    9.20
 -15  12  -3  127.19    8.90
  -3  15   3  126.89   11.40
 -12  15  -3  133.09   11.30
  15 -12   3  106.19   11.00
  15  -3  -3  114.99   10.30
  15 -12   3  127.29   10.50
 -12  -3   3  107.99    9.10
  -3 -12  -3  128.29   10.00
  -3  15   3  115.69    9.90
 -12  -3   3  106.89   11.00
  13 -15   3   15.30    6.70
   2  13   3   19.70    6.90
 -15  13  -3   23.60    6.30
  13 -15   3   23.60    6.30
   2  13   3   37.50    8.10
 -15   2   3    8.20    5.60
   2 -15  -3   24.70    5.60
 -15   2   3   19.70    7.30
  13   2  -3   20.40    6.60
 -13  15  -3   21.10    7.00
  -2  15   3   26.80    7.60
  -2 -13  -3   17.00    6.10
  15 -13   3   24.40    7.70
  15 -13   3   27.20    6.70
  15  -2  -3   16.30    6.60
 -13  -2   3   23.50    8.70
 -13  -2   3   20.20    6.30
  -2  15   3   20.10    7.90
  14 -15   3   30.20    7.70
   1  14   3   33.50    7.50
 -15   1   3   21.90    6.30
  14 -15   3   39.40    7.00
   1 -15  -3   32.40    6.30
 -15  14  -3   43.10    8.00
 -15   1   3   37.50    8.40
   1  14   3   34.30    6.90
  14   1  -3   34.90    7.00
  -1  15   3   38.30    8.20
  15 -14   3   45.60    7.80
  -1 -14  -3   40.00    6.40
  -1  15   3   30.00    7.40
 -14  15  -3   29.10    6.70
 -14  -1   3   41.30    7.90
  15  -1  -3   35.60    7.70
 -14  -1   3   37.90    7.60
  15 -14   3   27.30    7.80
 -15  15  -3   46.80    7.50
   0  15   3   37.80    7.50
  15   0  -3   33.30    7.40
  15 -15   3   35.70    7.70
   0 -15  -3   40.00    6.60
  15 -15   3   50.29    8.60
   0  15   3   31.40    7.60
 -15   0   3   34.00    6.60
 -15   0   3   33.90    7.60
  16 -16  -3   -2.40    7.40
  16   0   3    2.40    6.20
 -16   0  -3    3.40    7.30
   0 -16   3   -0.20    5.10
   0  16  -3    8.00    6.80
 -16  16   3    2.70    5.90
 -16  15   3   43.90    7.50
  15 -16  -3   51.39    8.20
   1  15  -3   53.59    8.90
  15   1   3   49.70    8.20
   1 -16   3   45.30    7.00
 -16   1  -3   48.60    8.60
  16  -1   3   45.50    7.30
 -15  16   3   43.70    7.60
  16 -15  -3   51.79    9.10
  -1  16  -3   55.59    9.00
 -15  -1  -3   42.40    8.40
  -1 -15   3   46.00    7.00
 -16  14   3   72.99    8.00
  14 -16  -3   74.09    9.10
 -16   2  -3   66.09    9.10
   2  14  -3   66.09    9.10
   2 -16   3   73.99    7.50
  14   2   3   70.49    7.70
  16 -14  -3   76.29    9.80
  16  -2   3   73.99    8.00
 -14  -2  -3   84.19    9.80
 -14  16   3   73.79    8.30
  -2 -14   3   63.79    7.60
  -2  16  -3   84.59    9.50
   3  13  -3   34.40    8.50
   3 -16   3   40.50    6.80
 -16   3  -3   35.90    7.70
  13   3   3   35.40    6.40
  13 -16  -3   38.70    8.40
 -16  13   3   33.00    7.50
  -3  16  -3   36.20    8.70
  16 -13  -3   29.80    7.80
 -13  -3  -3   29.40    7.80
  16  -3   3   37.50    7.00
 -13  16   3   34.60    7.10
  -3 -13   3   33.30    6.80
  12   4   3   28.90    6.30
 -16   4  -3   30.90    7.80
   4 -16   3   28.20    5.90
  12 -16  -3   43.50    8.40
 -16  12   3   42.10    7.70
   4  12  -3   36.30    7.70
 -12  -4  -3   45.20    8.20
  -4 -12   3   28.50    6.50
  -4  16  -3   34.70    8.60
 -12  16   3   27.00    6.90
  16 -12  -3   36.60    7.80
  16  -4   3   32.70    6.50
   5  11  -3  104.99   10.00
 -16   5  -3  109.39   10.30
  11   5   3   94.49    8.60
 -16  11   3  112.09    9.20
  11 -16  -3  112.89   10.80
   5 -16   3  126.69    8.90
 -11  -5  -3  117.69   10.50
  -5 -11   3  108.49    8.90
  -5  16  -3  116.79   10.30
 -11  16   3  104.19    9.50
  16  -5   3  120.49   10.10
  16 -11  -3  131.89   12.10
   6 -16   3    9.60    5.50
 -16   6  -3   11.40    7.10
   6  10  -3   18.60    7.00
  10 -16  -3   17.70    6.90
 -16  10   3   15.50    6.10
  10   6   3   15.40    5.70
  -6  16  -3   21.40    7.70
  16  -6   3   15.40    6.30
  16 -10  -3   19.00    8.10
 -10  -6  -3   22.20    7.40
 -10  16   3   16.90    6.70
  -6 -10   3   21.70    6.70
   9 -16  -3  165.68   11.00
   9   7   3  176.38    8.60
   7   9  -3  160.78   11.00
 -16   9   3  148.99   10.10
 -16   7  -3  154.78   11.20
   7 -16   3  140.09    9.70
   9   7   3  149.19    9.70
  -9  -7  -3  185.48   11.50
  -9  16   3  163.28   11.00
  16  -7   3  171.28   11.50
  16  -9  -3  175.58   11.80
  -7  -9   3  165.68   10.20
  -7  16  -3  190.38   13.00
   8   8   3  270.17   11.60
 -16   8  -3  232.68   13.30
   8   8   3  223.78   11.70
   8 -16   3  225.98   12.00
 -16   8   3  233.48   12.30
   8   8  -3  226.88    9.80
   8 -16  -3  250.37   13.00
  -8  -8  -3  253.87   13.40
  16  -8   3  242.68   12.70
  -8  -8   3  233.18   12.30
  16  -8  -3  255.27   14.70
  -8  16  -3  244.38   13.50
  -8  16   3  246.98   14.00
   7 -16  -3   21.70    6.90
   9   7  -3   34.50    5.60
   7   9   3   32.40    6.80
 -16   7   3   16.90    6.40
 -16   7   3   17.80    5.70
   9 -16   3   23.70    6.20
   7   9   3   48.30    7.30
   7 -16  -3   27.90    4.70
  -7  16   3   18.00    7.00
  -7  -9  -3   27.50    7.10
  -9  -7   3   27.60    6.60
  -9  16  -3   36.10    8.50
  16  -7  -3   24.50    8.40
  16  -9   3   23.40    6.70
   6 -16  -3  105.19    6.60
  10 -16   3   93.09    8.80
   6  10   3   99.59    8.40
   6  10   3  127.39    8.90
   6 -16  -3  115.09   10.80
 -16   6   3   99.79    8.90
  10   6  -3  102.29    8.10
  10 -16   3   95.99    8.80
  -6 -10  -3  116.49   10.60
  16 -10   3  116.19   11.80
  -6  16   3   99.39   10.60
 -10  16  -3  113.59   11.20
  16 -10   3   98.19   10.40
  16  -6  -3  115.89   10.50
 -10  -6   3  103.79    9.00
 -10  -6   3  108.19   12.30
   5 -16  -3   80.19   10.30
 -16  11  -3   87.59    6.90
  11 -16   3   75.39    8.50
   5  11   3  102.39    9.10
  11   5  -3   92.49    8.10
   5  11   3   78.99    7.90
 -16   5   3   53.89    8.00
  11 -16   3  100.59    7.60
 -16   5   3   82.39    9.50
   5 -16  -3   78.19    6.30
  16 -11   3   71.69   10.60
  16 -11   3   96.69   10.20
  -5  16   3   72.69    9.00
 -11  -5   3   79.09    8.50
 -11  16  -3   88.29   10.80
  16  -5  -3   84.09   11.00
 -11  -5   3   70.69   12.60
  -5 -11  -3   87.29    8.80
   4 -16  -3   34.50    6.00
  12 -16   3   39.20    7.20
  12 -16   3   50.89    7.70
 -16   4   3   24.50    6.90
   4  12   3   45.80    7.60
 -16   4   3   42.50    7.80
  12   4  -3   41.70    6.40
   4  12   3   63.29    9.20
  16  -4  -3   41.70    8.00
 -12  -4   3   35.80    7.00
 -12  16  -3   61.09   10.20
  16 -12   3   62.19    9.50
 -12  -4   3   33.20    9.00
  -4  16   3   35.80    7.40
  16 -12   3   43.70    9.10
  -4 -12  -3   46.50    7.70
   3  13   3  141.39   10.50
 -16   3   3   96.49    9.70
  13 -16   3  122.49   10.00
  13 -16   3  142.99    9.60
  13   3  -3  111.79    9.80
 -16  13  -3  123.79    9.40
   3 -16  -3  129.79    8.60
   3  13   3  148.89   11.40
 -16   3   3  136.59    9.80
 -13  -3   3  125.09    9.60
  16  -3  -3  137.79   10.20
  -3  16   3  135.49   11.60
  -3 -13  -3  135.19    9.80
  16 -13   3  134.89   10.20
  16 -13   3  119.29   11.30
 -13  16  -3  124.39   10.90
 -13  -3   3  136.39   13.00
  -3  16   3  138.89   10.30
 -16   2   3   49.40    9.20
   2  14   3   57.09    8.30
  14 -16   3   61.69    8.50
 -16  14  -3   51.09    8.40
   2  14   3   42.30    8.80
  14   2  -3   51.89    7.70
  14 -16   3   54.49    8.40
   2 -16  -3   41.40    7.00
 -16   2   3   48.00    7.80
  16  -2  -3   45.70    8.10
  -2  16   3   47.30    8.40
 -14  16  -3   50.49    8.90
 -14  -2   3   42.10    8.00
  -2  16   3   52.29    8.50
 -14  -2   3   48.90    9.50
  16 -14   3   59.69    9.60
  16 -14   3   46.00    8.60
  -2 -14  -3   53.99    8.30
   1  15   3   -6.50    7.40
   1 -16  -3   -0.30    4.90
 -16  15  -3    4.20    5.90
   1  15   3   -0.80    6.80
 -16   1   3  -12.10    5.50
  15 -16   3   -0.10    7.10
  15 -16   3   19.70    6.40
  15   1  -3    7.10    6.00
 -16   1   3    8.30    6.60
  16  -1  -3    3.50    6.50
  16 -15   3   11.00    6.60
  -1 -15  -3    1.40    5.90
  16 -15   3   -1.30    6.40
  -1  16   3   -0.50    6.50
  -1  16   3    4.90    7.30
 -15  16  -3    9.40    6.70
 -15  -1   3   -0.40    7.10
 -15  -1   3   -5.30    5.50
   0 -16  -3  121.89    9.50
   0  16   3  138.29   10.70
 -16  16  -3  139.79   10.30
  16 -16   3  134.99   10.90
 -16   0   3  122.59   10.70
   0  16   3   94.99   11.70
 -16   0   3  109.89   10.30
  16   0  -3  143.39   10.70
  16 -16   3  163.48   11.30
   0  17  -3   51.09    9.40
  17   0   3   60.69    7.90
 -17   0  -3   57.49    9.60
  17 -17  -3   49.30    8.80
 -17  17   3   49.70    8.00
   0 -17   3   52.19    7.50
  16   1   3   55.49    8.40
  16 -17  -3   53.89    9.30
   1 -17   3   46.80    8.20
 -17  16   3   60.09    9.40
   1  16  -3   57.59   13.60
  17  -1   3   39.80    8.10
  17 -16  -3   52.39    9.90
 -16  -1  -3   55.09    9.10
 -16  17   3   46.80    8.20
  -1 -16   3   38.70   10.80
  15   2   3    8.20    6.30
   2  15  -3   11.20    7.10
  15 -17  -3   18.60    7.10
 -17  15   3    8.40    5.90
   2 -17   3   11.50    5.40
 -17   2  -3    8.40    7.30
 -15  -2  -3    6.00    7.30
 -15  17   3    5.40    6.80
  17  -2   3    6.30    5.70
  -2 -15   3   13.00    5.40
  17 -15  -3    7.70    7.00
  -2  17  -3    2.80    6.90
 -17  14   3   31.30    7.30
   3 -17   3   25.70    5.90
  14 -17  -3   28.50    8.10
  14   3   3   24.10    6.00
   3  14  -3   25.70    7.40
 -17   3  -3   20.80    7.70
  17  -3   3   27.80    6.70
 -14  -3  -3   31.40    7.90
 -14  17   3   26.20    6.50
  17 -14  -3   23.00    7.50
  -3  17  -3   29.90    7.60
  -3 -14   3   23.70    6.10
  13   4   3   91.09    8.90
   4  13  -3   75.89   10.50
 -17  13   3   77.39    8.30
   4 -17   3   78.09    8.30
  13 -17  -3   83.69   10.60
 -17   4  -3   81.79    9.30
  17 -13  -3   73.29    9.70
  -4  17  -3   79.09   11.00
 -13  17   3   79.99    8.50
 -13  -4  -3   77.29    9.70
  17  -4   3   80.89    9.00
  -4 -13   3   66.09    7.70
   5 -17   3   27.80    5.80
  12 -17  -3   23.60    7.80
 -17  12   3   23.10    6.30
  12   5   3   11.80    5.60
   5  12  -3   24.80    7.30
 -17   5  -3   15.30    7.00
 -12  -5  -3   23.70    7.60
  17  -5   3   14.40    5.90
  -5 -12   3   24.00    5.80
  -5  17  -3   25.20    8.40
 -12  17   3   17.30    6.50
  17 -12  -3   17.20    7.40
  11 -17  -3   36.90    8.00
   6  11  -3   46.00    8.30
  11   6   3   40.50    7.10
 -17  11   3   49.70    7.80
   6 -17   3   36.90    6.70
 -17   6  -3   39.90    7.80
  17 -11  -3   51.39    9.10
  17  -6   3   48.70    7.80
 -11  17   3   42.90    7.60
  -6 -11   3   43.00    7.10
 -11  -6  -3   37.50    8.00
  -6  17  -3   42.70    8.30
 -17  10   3  127.59    9.50
 -17   7  -3  126.19   11.20
   7 -17   3  130.79    9.10
  10 -17  -3  144.79   11.30
   7  10  -3  130.79   10.10
  10   7   3  131.59    9.10
  17  -7   3  137.39    9.90
  -7 -10   3  140.09    9.50
 -10  -7  -3  142.89   10.80
  -7  17  -3  131.69   10.90
 -10  17   3  131.19   10.10
  17 -10  -3  141.59   11.00
 -17   8  -3    1.30    6.30
 -17   9   3    0.60    5.60
   8   9  -3    7.60    6.20
   9   8   3   17.80    6.30
   8 -17   3    5.90    5.30
   9 -17  -3    8.70    7.20
  17  -8   3   14.70    6.10
  -9  -8  -3    7.50    6.70
  -8  17  -3    6.90    7.20
  -9  17   3    1.30    6.30
  17  -9  -3   -1.50    7.00
  -8  -9   3   10.80    5.60
   9   8  -3   74.59   10.20
   8 -17  -3   86.59   10.20
   9 -17   3   74.69    7.80
   8   9   3   88.69    7.80
 -17   8   3   82.99    9.20
 -17   9  -3   62.89   10.50
   8   9   3   85.89    7.90
  -9  -8   3   78.29    8.20
  -9  17  -3   82.29    9.70
  17  -8  -3   77.09    9.80
  -8  -9  -3  103.69   10.50
  17  -9   3   81.99    8.90
  -8  17   3   73.69    8.90
  10   7  -3  124.89    7.60
 -17   7   3  123.79   10.10
   7  10   3  147.99    9.60
   7  10   3  132.59    9.70
  10 -17   3  139.89   10.10
   7 -17  -3  126.29   10.90
 -17  10  -3  104.19   10.30
 -10  -7   3  114.99    9.40
  -7 -10  -3  121.79    9.80
  17  -7  -3  123.99   10.80
 -10  17  -3  122.99   10.50
  -7  17   3  128.79   10.10
  17 -10   3  112.49    9.80
   6  11   3   59.99    8.10
   6 -17  -3   59.09    5.70
  11 -17   3   47.90    7.90
   6  11   3   59.79    8.30
 -17   6   3   54.29    8.10
   6 -17  -3   53.19    9.50
  11   6  -3   73.39    7.30
 -11  17  -3   56.09    8.90
  -6 -11  -3   53.19    8.30
  17 -11   3   47.60    7.70
  17 -11   3   59.69   10.70
 -11  -6   3   45.70    7.60
 -11  -6   3   70.49   12.00
  17  -6  -3   47.50    8.30
  -6  17   3   65.19    9.70
   5  12   3   80.39    9.70
 -17   5   3   92.89    8.80
   5  12   3  107.39    9.40
  12   5  -3  107.09    8.50
   5 -17  -3   97.69   10.60
   5 -17  -3   90.99    7.30
  12 -17   3   99.49    8.90
  12 -17   3  128.49    8.70
  17 -12   3  104.99    9.70
  -5 -12  -3   96.49    9.90
  17  -5  -3   98.29   10.10
 -12  -5   3   93.09   11.60
 -12  17  -3   97.19    9.80
  -5  17   3   93.89    9.20
  17 -12   3  113.19   12.40
 -12  -5   3   86.09    8.70
  13   4  -3   55.29    7.90
 -17  13  -3   28.10    5.80
  13 -17   3   25.50    6.40
   4  13   3   29.50    7.10
   4 -17  -3   28.00    5.30
 -17   4   3    6.70    6.30
   4 -17  -3   29.00    7.40
   4  13   3   21.20    7.90
 -17   4   3   27.30    7.30
  13 -17   3   24.00    6.50
  17 -13   3   23.50    8.30
  17 -13   3   29.40    7.20
  -4 -13  -3   32.90    7.10
 -13  17  -3   34.70    8.20
 -13  -4   3   28.90    9.60
  17  -4  -3   31.30    8.20
  -4  17   3   30.30    7.10
 -13  -4   3   21.90    6.30
   3  14   3   30.60    7.30
 -17  14  -3   50.09    7.40
   3  14   3   13.70    8.30
  14 -17   3   28.50    6.70
   3 -17  -3   24.50    5.60
  14 -17   3   24.10    6.80
  14   3  -3   28.30    6.40
 -17   3   3   20.70    7.50
  17 -14   3   36.60    8.00
  -3 -14  -3   26.00    6.90
  17 -14   3   18.60    8.00
 -14  -3   3   29.00    9.70
 -14  -3   3   28.10    7.30
  17  -3  -3   27.30    7.80
  -3  17   3   20.70    7.00
 -14  17  -3   26.90    6.90
  15   2  -3  142.29   10.10
  15 -17   3  119.79   10.60
   2 -17  -3  130.89    9.70
 -17   2   3  126.59   10.60
  15 -17   3  163.58   11.50
   2  15   3  145.29   11.10
 -17  15  -3  165.78   10.40
  -2 -15  -3  139.19   10.40
  17  -2  -3  132.89   11.10
  -2  17   3  117.89   11.70
  -2  17   3  124.89   12.00
 -15  17  -3  130.49   10.90
  17 -15   3  144.19   11.50
 -15  -2   3  112.69    9.80
 -15  -2   3  144.69   13.30
  17 -15   3  126.19   11.60
 -17  16  -3  135.59   11.00
  16 -17   3  134.69   11.30
  16   1  -3  129.59   10.80
   1  16   3  159.78   11.80
   1 -17  -3  142.89   10.00
   1  16   3  108.89   11.20
  16 -17   3  167.48   11.60
 -17   1   3  158.28   12.30
  17  -1  -3  144.89   11.30
 -16  -1   3  148.09   13.20
  -1  17   3  108.39   11.00
  -1  17   3  137.39   11.10
 -16  -1   3  116.29   10.80
  -1 -16  -3  160.28   10.40
  17 -16   3  145.69   11.80
 -16  17  -3  159.28   11.40
  17 -16   3  177.18   12.30
  17 -17   3   -4.90    6.70
 -17  17  -3    0.00    6.90
 -17   0   3   -0.60    8.50
  17 -17   3   17.30    7.60
   0  17   3    3.30    7.60
  17   0  -3   -2.20    6.90
   0 -17  -3    2.60    5.80
 -18  18   3  128.59   10.20
  18   0   3  122.99    9.80
 -18   0  -3  132.99   11.40
   0 -18   3  120.69    9.20
   0  18  -3  124.99   11.10
  18 -18  -3  110.59   10.80
  17   1   3    5.60    5.80
   1 -18   3    5.20    6.10
  17 -18  -3    3.50    8.30
   1  17  -3    9.60    7.20
 -18   1  -3    4.60    7.70
  18  -1   3    7.00    6.10
 -17  -1  -3    8.30    7.70
  -1  18  -3    2.20    7.20
  18 -17  -3    0.20    8.10
 -17  18   3   12.20    7.30
  -1 -17   3   10.10    5.60
   2  16  -3   34.90    7.70
 -18  16   3   34.30    7.30
 -18   2  -3   44.20    8.50
  16   2   3   31.60   11.70
   2 -18   3   27.20    6.20
  -2  18  -3   37.10    8.50
  18 -16  -3   25.60    8.00
 -16  -2  -3   42.90    9.40
  18  -2   3   28.30    6.80
  -2 -16   3   31.40    6.40
 -18   3  -3   36.80   11.80
  15 -18  -3   36.40    7.80
  15   3   3   35.20    6.80
 -18  15   3   43.30    8.10
 -15  18   3   28.40    7.90
  18 -15  -3   24.90   14.00
 -18  14   3    6.90    6.20
   4  14  -3    4.90    6.80
 -18   4  -3    3.00    6.80
  14 -18  -3    8.30    7.00
   4 -18   3   -1.20    4.90
  14   4   3    2.90    5.50
 -14  18   3    3.40    6.20
  -4 -14   3    2.20    5.20
 -14  -4  -3   10.80    7.50
  -4  18  -3   11.00    8.20
  18 -14  -3    5.30    7.30
  18  -4   3    8.60    5.80
 -18  13   3   25.70    6.70
  13   5   3   25.10    6.60
   5  13  -3   26.60    7.60
  13 -18  -3   20.90    8.00
   5 -18   3   26.10    6.10
 -18   5  -3   20.40    7.60
 -13  -5  -3   25.90    7.90
  -5 -13   3   27.00    6.40
  -5  18  -3   28.70    8.80
  18  -5   3   26.30    6.60
  18 -13  -3   13.90    7.60
 -13  18   3   19.10    6.70
   6  12  -3   70.89    9.00
  12   6   3   66.79    8.50
  12 -18  -3   71.79   10.00
 -18  12   3   53.59    7.70
   6 -18   3   51.59    7.10
 -18   6  -3   61.89    9.00
 -12  -6  -3   61.89    9.20
  18  -6   3   64.49    9.30
  -6 -12   3   54.49    7.60
  -6  18  -3   61.09   10.90
 -12  18   3   54.09    8.10
  18 -12  -3   52.59    8.60
 -18   7  -3   25.40    7.30
  11   7   3   20.10    5.80
 -18  11   3   19.00    6.80
  11 -18  -3   16.60    7.30
   7 -18   3   17.10    5.60
   7  11  -3   19.10    6.80
  -7 -11   3   17.10    6.00
  -7  18  -3   18.40    7.60
  18  -7   3   10.90    6.20
  18 -11  -3   12.00    7.30
 -11  18   3   14.30    6.60
 -11  -7  -3   25.00    7.60
 -18   8  -3   32.60    8.20
   8  10  -3   43.30    8.20
  10   8   3   39.10    7.10
 -18  10   3   40.10    7.00
  10 -18  -3   37.50    7.30
   8 -18   3   29.90    6.20
  -8  18  -3   45.80    9.10
  18  -8   3   39.50    7.20
 -10  -8  -3   41.40    7.80
  -8 -10   3   34.10    6.40
  18 -10  -3   35.20    7.90
 -10  18   3   39.10    7.40
   9 -18  -3   70.59    8.90
   9   9   3   79.19    7.70
 -18   9  -3   79.79    9.00
   9 -18   3   77.49    7.70
 -18   9   3   75.79    9.10
   9   9   3   64.89    7.70
   9   9  -3   80.59    9.00
  18  -9  -3   78.29    9.90
  -9  -9   3   66.19    7.80
  -9  18  -3   74.59    9.80
  -9  18   3   81.19    9.00
  -9  -9  -3   77.49    9.30
  18  -9   3   72.69    8.50
 -18   8   3   16.60    6.50
  10 -18   3   12.10    5.50
 -18  10  -3   11.90    7.10
  10   8  -3   15.50    7.40
   8 -18  -3   14.80    6.80
   8  10   3   14.30    5.50
   8  10   3    8.80    5.40
  -8 -10  -3   11.10    6.70
  18 -10   3   16.50    6.70
  18  -8  -3   13.50    7.40
 -10  -8   3   11.60    5.90
 -10  18  -3   18.80    7.40
  -8  18   3   11.40    6.20
  11   7  -3   48.60    6.50
 -18   7   3   37.20    7.90
  11 -18   3   24.50    6.30
   7  11   3   40.40    6.90
   7  11   3   25.40    6.10
   7 -18  -3   30.80    7.90
 -18  11  -3   21.60    7.60
 -11  -7   3   31.30    6.80
  -7  18   3   34.10    7.40
  -7 -11  -3   24.60    7.00
  18  -7  -3   31.30    7.90
 -11  18  -3   37.60    8.50
  18 -11   3   23.80    7.10
  12 -18   3   12.40    6.10
  12   6  -3   23.50    5.10
   6 -18  -3   21.50    7.60
   6  12   3   12.50    6.40
   6 -18  -3   22.80    5.50
 -18   6   3   16.60    7.10
 -12  -6   3   13.30    6.30
  -6 -12  -3   16.70    7.30
  -6  18   3    8.60    6.30
  18  -6  -3   16.00    8.00
  18 -12   3   13.80    6.80
 -12  18  -3   23.40    8.70
 -18   5   3   40.10    7.90
  13   5  -3   47.00    6.90
   5  13   3   39.50    7.40
   5 -18  -3   37.00    5.80
  13 -18   3   46.10    7.80
   5  13   3   17.80    8.50
   5 -18  -3   50.09    8.60
  13 -18   3   69.69    8.10
 -13  18  -3   44.20    8.50
  18 -13   3   39.90    9.20
  18  -5  -3   36.60    7.80
 -13  -5   3   47.80   11.60
  18 -13   3   45.50    8.20
 -13  -5   3   30.30    6.90
  -5 -13  -3   47.00    7.80
  -5  18   3   42.30    7.60
   4 -18  -3  129.19   11.20
  14 -18   3  111.99    9.80
 -18   4   3  108.29    9.80
   4  14   3  134.19   10.60
  14 -18   3  137.99   10.40
   4 -18  -3  105.99    8.50
 -18  14  -3  139.89    9.30
   4  14   3   80.79   10.20
  14   4  -3  108.09    9.60
  -4  18   3  110.19   10.00
  -4 -14  -3  112.19   10.00
  18  -4  -3  109.39   10.90
 -14  18  -3  125.19   11.10
 -14  -4   3  108.49   10.30
 -14  -4   3   92.89   13.70
  18 -14   3  111.59   11.60
  18 -14   3  116.89   11.50
 -18   3   3   87.29   10.40
  15   3  -3  102.19    9.70
   3  15   3   82.49   10.10
  15 -18   3  109.69   10.70
   3 -18  -3   90.89    8.30
 -18  15  -3   85.79    9.00
  15 -18   3   86.69    9.60
  18  -3  -3   92.59   10.60
 -15  18  -3  103.89   10.70
  -3 -15  -3   84.89    9.50
 -15  -3   3   85.29   13.10
 -15  -3   3   84.49    8.80
  18 -15   3   91.59   12.90
  -3  18   3   68.79    9.40
  18 -15   3   96.39    9.90
   2 -18  -3   13.70    6.10
  16 -18   3   34.60    7.90
 -18   2   3   16.60    8.60
   2  16   3   18.70    8.20
  16   2  -3   21.30    6.90
  16 -18   3   16.90    7.20
  -2  18   3   16.20    7.60
  18 -16   3   21.40    8.40
 -16  -2   3   10.00    9.70
 -16  18  -3   17.40    7.30
  -2  18   3    7.20    7.30
  18  -2  -3   16.50    7.90
  18 -16   3   16.20    8.00
 -16  -2   3    3.30    7.20
  -2 -16  -3   26.10    7.20
 -18   1   3  164.78   13.50
  17 -18   3  194.48   12.80
   1 -18  -3  156.78   10.70
 -18   1   3  121.79   10.50
   1  17   3  152.78   12.90
   1  17   3  130.69   12.00
 -18  17  -3  174.08   11.30
  17   1  -3  177.28   12.00
 -17  18  -3  173.18   12.60
  -1 -17  -3  145.99   10.90
 -17  -1   3  170.48   14.70
  18  -1  -3  158.38   12.30
  -1  18   3  158.78   13.30
  18 -17   3  184.08   13.10
  -1  18   3  142.29   13.10
   0  18   3  207.88   14.40
  18 -18   3  178.48   13.50
 -18   0   3  224.48   15.50
   0 -18  -3  205.28   12.50
   0  18   3  171.48   13.30
  18   0  -3  198.88   12.70
 -18  18  -3  235.98   13.70
  18 -18   3  233.38   14.90
 -19  19   3   13.00    6.70
 -19   0  -3   13.00    7.90
   0  19  -3   16.50    8.80
  19 -19  -3   -0.90    7.40
  19   0   3    8.90    6.90
   0 -19   3    2.90    5.60
  18   1   3   70.09    8.50
   1 -19   3   67.39    8.00
  18 -19  -3   58.19    9.60
   1  18  -3   64.69   10.00
 -19   1  -3   85.89   10.50
 -19  18   3   72.79    9.10
  19  -1   3   77.89   10.00
 -18  19   3   75.49    9.10
  -1  19  -3   75.09   10.30
  19 -18  -3   66.99   11.30
  -1 -18   3   81.09    8.20
 -18  -1  -3   90.79   10.70
  17 -19  -3   80.39   10.30
  17   2   3   96.69    8.90
   2 -19   3   94.29    8.60
 -19  17   3  107.99    9.60
   2  17  -3   98.39   10.30
 -19   2  -3   99.69   10.70
 -17  -2  -3   99.39   10.70
  19  -2   3   99.09   10.20
  -2 -17   3   98.79    9.40
  -2  19  -3  108.79   11.00
  19 -17  -3   81.89   10.30
 -17  19   3  102.79   10.80
   3  16  -3   10.90    7.20
  16   3   3   13.50    6.20
   3 -19   3   10.70    5.70
  16 -19  -3   14.00    8.40
 -19   3  -3   15.60    8.00
 -19  16   3   13.60   11.20
  -3 -16   3   18.20    5.90
 -16  19   3   11.20    7.40
 -16  -3  -3   25.50    9.00
  19  -3   3   11.00    6.50
  19 -16  -3    7.10    7.40
  -3  19  -3   17.20    8.10
   4 -19   3    9.20    5.40
 -19   4  -3    7.70    7.50
  15   4   3    7.00    7.00
 -19  15   3   18.40    7.10
   4  15  -3   11.70    7.40
  -4 -15   3   19.30    6.10
 -15  19   3   13.60    6.40
 -15  -4  -3   12.40    7.80
  19 -15  -3    7.10    7.30
  -4  19  -3   23.60    8.80
  19  -4   3    8.80    6.20
 -19   5  -3    8.30    7.50
  14   5   3    7.70    6.40
  14 -19  -3    5.30    7.00
 -19  14   3   20.00    6.50
   5 -19   3   10.90    5.50
  19  -5   3    8.40    6.70
  -5  19  -3    9.30    7.70
  -5 -14   3    5.50    5.80
  19 -14  -3    3.70    7.20
 -14  -5  -3   10.10   11.30
 -14  19   3    2.60    5.90
 -19  13   3   -4.90    6.30
 -19   6  -3    3.20    8.70
   6  13  -3    6.40    7.00
  13 -19  -3   -5.20    7.70
  13   6   3   -1.70    5.50
 -13  19   3   -0.20    7.20
  -6 -13   3   -3.70    6.60
 -13  -6  -3    1.10    7.00
  19 -13  -3   -7.70    7.20
  19  -6   3   -7.30    5.80
  12   7   3   14.30    6.30
  12 -19  -3   22.00    7.00
   7 -19   3   15.30    5.60
   7  12  -3   16.30    7.00
 -19  12   3   14.70    6.30
 -19   7  -3   12.40    8.50
  -7  19  -3   26.70    9.00
 -12  -7  -3   16.30    7.50
  -7 -12   3    9.20    6.40
 -19  11   3   51.69    7.70
  11   8   3   48.40    8.10
  11 -19  -3   60.69    8.50
   8 -19   3   49.50    7.30
   8  11  -3   60.09   10.30
 -19   8  -3   52.89    9.10
 -11  -8  -3   58.49   10.30
  -8  19  -3   57.29    9.80
  -8 -11   3   61.99    8.70
  19 -11  -3   39.40    8.70
  19  -8   3   46.60    7.70
 -11  19   3   67.99   14.20
   9  10  -3   13.60    6.80
 -19   9  -3    9.00    6.80
   9 -19   3    4.80    5.30
  10   9   3   -1.50    5.10
 -19  10   3    0.40    6.30
  10 -19  -3    2.70    7.00
  -9  19  -3   11.80    8.40
 -10  -9  -3    2.70    6.80
  19 -10  -3    1.20    7.10
  -9 -10   3    1.80    6.10
  19  -9   3    0.30    6.10
 -10  19   3    2.60    7.60
   9 -19  -3   32.90    8.50
  10   9  -3   27.50    7.30
   9  10   3   17.20    7.10
   9  10   3   27.10    6.30
  10 -19   3   21.90    6.00
 -19  10  -3   31.70    7.70
 -19   9   3   26.70    7.30
  -9 -10  -3   26.10    8.00
  19 -10   3   24.20    7.80
 -10  -9   3   23.90    6.40
 -10  19  -3   34.10    8.20
  19  -9  -3   18.20    7.70
  -9  19   3   23.10    7.20
  11 -19   3   27.10    6.40
  11   8  -3   36.60    8.00
   8  11   3   28.30    6.60
   8  11   3   34.50    7.30
   8 -19  -3   25.30    7.40
 -19  11  -3   27.50    7.90
 -19   8   3   34.20    7.60
  -8  19   3   22.50    7.00
  19  -8  -3   25.40    8.00
  19 -11   3   24.70    7.90
 -11  19  -3   56.39   10.00
 -11  -8   3   29.20    6.90
  -8 -11  -3   34.90    8.10
 -19   7   3  -16.80    6.30
   7  12   3   11.60    5.80
 -19   7   3    0.30    6.60
  12 -19   3   -4.50    5.70
  12   7  -3    4.90    6.60
 -19  12  -3    4.50    7.10
   7 -19  -3    1.20    7.30
  -7  19   3    3.10    5.90
  -7 -12  -3    7.40    7.40
 -12  -7   3   -2.00    6.00
  19 -12   3    7.20    7.60
  19  -7  -3    3.10    7.10
 -12  19  -3    9.50    8.40
 -19   6   3   -8.60    6.60
   6  13   3   13.40    6.30
   6 -19  -3   23.30    8.20
 -19   6   3   11.70    7.30
  13 -19   3   16.70    6.40
  13   6  -3   11.10    5.80
 -13  -6   3   11.90    6.40
  19  -6  -3    4.90    7.80
  19 -13   3    4.30    7.90
  -6  19   3   17.40    6.80
  -6 -13  -3   13.40    7.30
 -13  19  -3   17.40    7.70
   5 -19  -3   15.90    7.30
  14   5  -3   19.60    6.10
   5  14   3  -18.70    7.60
  14 -19   3   -0.90    6.00
 -19   5   3    8.70    7.10
   5 -19  -3   -3.10    5.20
   5  14   3    4.80    6.10
 -19   5   3    2.80    6.80
  19 -14   3    5.30    8.40
 -14  -5   3    5.10    6.20
 -14  19  -3   22.50    8.30
  -5 -14  -3   10.30    6.20
  19 -14   3    3.50    7.60
  -5  19   3    4.20    6.30
  19  -5  -3    2.00    6.80
 -14  -5   3   -2.80    9.20
  15   4  -3   30.10    7.00
   4 -19  -3   33.10    6.20
  15 -19   3   55.79    9.00
   4  15   3   29.30    7.70
   4 -19  -3   34.10    8.90
  15 -19   3   24.20    8.20
 -19   4   3   26.30    8.10
 -19   4   3   26.30    8.10
  19 -15   3   26.10    7.80
 -15  -4   3   22.80    6.90
  -4  19   3   14.10   12.20
 -15  19  -3   42.70    9.10
  19  -4  -3   19.10    8.30
  -4 -15  -3   28.50    7.60
 -15  -4   3   15.20   10.00
   3  16   3  143.39   11.40
   3 -19  -3  158.68   12.30
  16 -19   3  108.59   11.00
 -19   3   3   93.59   10.20
  16 -19   3  162.78   12.30
   3  16   3   78.89   12.30
  16   3  -3  124.99   10.50
 -19   3   3  122.69   11.90
   3 -19  -3  126.49    9.80
  19  -3  -3  129.69   11.70
  19 -16   3  126.59   12.50
  19 -16   3  125.09   12.30
  -3 -16  -3  142.49   11.30
 -16  19  -3  133.49   11.80
 -16  -3   3  113.69   13.10
 -16  -3   3  103.79    9.70
   2  17   3  200.38   13.40
   2  17   3  154.98   14.10
 -19   2   3  207.98   14.10
  17   2  -3  227.08   13.10
 -19  17  -3  198.28   12.70
   2 -19  -3  193.08   11.50
 -19   2   3  145.79   12.50
  17 -19   3  222.18   13.70
  19  -2  -3  193.98   13.60
 -17  -2   3  155.88   12.70
 -17  -2   3  177.78   15.90
 -17  19  -3  207.38   13.00
  19 -17   3  196.78   15.40
  19 -17   3  194.08   14.10
  -2 -17  -3  217.18   12.70
  18   1  -3   27.40    7.70
 -19   1   3    4.70    8.40
 -19  18  -3   32.40    8.20
  18 -19   3   14.70    8.40
 -19   1   3    8.70    7.20
   1  18   3   17.40    8.60
   1 -19  -3    8.70    6.90
   1  18   3    9.10    8.20
  -1  19   3    4.90    8.80
  19 -18   3   13.30    8.40
  19  -1  -3   22.90    8.10
 -18  -1   3   -5.80    7.50
  -1  19   3    3.00    8.70
  19 -18   3   13.80    8.20
 -18  19  -3   28.60    7.70
 -18  -1   3    2.60   10.10
  -1 -18  -3   20.30    7.40
  19 -19   3  123.59   12.50
 -19   0   3   82.89   13.80
   0  19   3  102.99   11.70
   0 -19  -3  115.79   10.40
  19   0  -3  124.19   11.30
  19 -19   3  101.19   11.40
 -19   0   3   98.69   11.00
   0  19   3  103.79   12.80
 -20   0  -3   92.29   10.40
   0 -20   3   67.59    8.20
 -20  20   3   75.79    9.30
   0  20  -3   86.39   12.00
  20 -20  -3   68.69   11.50
  20   0   3   72.49    8.60
  19 -20  -3  117.79   11.30
 -20   1  -3  125.29   11.10
   1 -20   3  122.19   10.30
  19   1   3  132.19   10.90
   1  19  -3  115.29   11.30
 -20  19   3  145.69   11.70
  20  -1   3  129.19   10.20
  -1  20  -3  126.09   11.40
 -19  20   3  132.79   11.40
  -1 -19   3  129.69   10.30
  20 -19  -3  126.39   11.10
 -19  -1  -3  133.59   11.70
 -20   2  -3    8.40    7.90
  18 -20  -3   -1.30    8.00
  18   2   3    6.10    6.30
 -20  18   3   18.40    7.80
   2 -20   3   13.60    5.70
   2  18  -3    3.80    7.50
 -18  -2  -3   22.70    8.40
  -2 -18   3    8.40    5.70
 -18  20   3   19.70    7.80
  20  -2   3   10.90    6.50
  20 -18  -3    6.80    7.50
  -2  20  -3    8.90    7.80
  17 -20  -3   38.70    8.60
  17   3   3   62.59    8.30
 -20  17   3   59.09    8.90
   3 -20   3   59.09    7.60
 -20   3  -3   55.59    9.70
   3  17  -3   52.09    9.30
 -17  20   3   51.39    8.60
  -3 -17   3   50.69    7.60
  -3  20  -3   59.09   10.10
 -17  -3  -3   56.49    9.80
  20 -17  -3   42.00    8.80
  20  -3   3   50.59    8.30
  16 -20  -3   33.30    9.10
 -20  16   3   45.70    8.50
 -20   4  -3   60.49    9.80
   4  16  -3   43.00    9.20
   4 -20   3   45.10    8.10
  16   4   3   50.99    8.00
 -16  -4  -3   46.70    9.70
 -16  20   3   30.00    7.40
  20 -16  -3   38.80    9.30
  -4 -16   3   43.50    7.60
  -4  20  -3   46.10    9.20
  20  -4   3   33.20    7.90
   5 -20   3    6.40    5.50
 -20   5  -3   10.20    7.40
  15 -20  -3   -3.20    7.00
  15   5   3    7.00    5.90
   5  15  -3   -5.10    6.90
 -20  15   3   10.60    7.30
 -15  -5  -3   13.00    7.90
  -5  20  -3    1.20    7.70
 -15  20   3    0.90    6.30
  20 -15  -3   -9.00    8.10
  -5 -15   3    5.00    5.70
  20  -5   3   -6.00    5.80
  14   6   3    2.60    6.60
 -20  14   3   -3.10    6.90
   6  14  -3    4.90    7.30
  14 -20  -3  -17.60   10.80
   6 -20   3    1.60    5.20
 -20   6  -3    7.40    7.10
 -14  -6  -3   -3.00    7.10
  -6  20  -3    1.80    8.10
 -14  20   3   -5.20    5.90
  20  -6   3    4.90    6.80
  -6 -14   3    2.90    5.60
  20 -14  -3  -12.50    7.80
  13   7   3    4.70    6.40
 -20   7  -3    7.90    7.70
  13 -20  -3    1.00    7.20
 -20  13   3    9.60    7.10
   7 -20   3   -1.70    5.30
   7  13  -3    2.20    7.70
  -7  20  -3    5.20    7.90
  20 -13  -3   -1.40    7.50
 -13  20   3    0.70    6.60
  20  -7   3   -4.80    6.10
  -7 -13   3    3.00    6.20
 -13  -7  -3    3.60    8.10
   8 -20   3    0.50    5.20
 -20   8  -3   -0.10    7.30
  12   8   3    3.30    5.60
 -20  12   3   -5.40    6.30
  12 -20  -3    3.80    6.90
 -12  -8  -3   -4.20    8.70
  -8  20  -3   -4.60    8.30
  20 -12  -3   -2.20    7.50
  -8 -12   3    0.20    6.20
  20  -8   3   -8.60    6.60
 -12  20   3    1.30    6.20
 -20  11   3   25.60    6.70
   9  11  -3   29.90    8.00
  11   9   3   25.40    6.60
   9 -20   3   29.70    7.00
 -20   9  -3   19.10    8.50
  11 -20  -3   28.70    8.50
  20 -11  -3   25.00    9.00
  20  -9   3   30.30    7.40
 -11  20   3   19.40    6.90
  -9 -11   3   20.50    7.00
 -11  -9  -3   16.20   11.90
  10 -20  -3   32.00    7.60
  10  10  -3   24.50    7.50
 -20  10   3   31.00    7.50
  10 -20   3   19.50    9.90
 -20  10  -3   23.80    7.70
  10  10   3   29.80    6.60
 -10  20   3   23.30    7.30
 -10  20  -3   31.60   10.90
  20 -10   3   19.80    7.10
  20 -10  -3   27.90    8.30
 -10 -10  -3   29.50    7.70
 -10 -10   3   24.60    6.50
  11   9  -3    2.60    6.50
   9  11   3    4.50    6.60
 -20  11  -3    3.00    7.20
 -20   9   3   -0.80    6.70
   9 -20  -3   -4.20    7.50
  20 -11   3  -13.30    7.20
 -11  20  -3  -11.70    8.30
  20  -9  -3   -7.20    7.60
  -9  20   3   -6.40    5.70
 -11  -9   3   -5.60    6.90
  -9 -11  -3   -5.60    6.60
   8 -20  -3    4.60    7.60
   8  12   3   14.60    7.60
 -20   8   3    9.70    7.20
  12 -20   3    5.90    7.40
 -20  12  -3    4.80    7.30
   8  12   3    7.20    5.70
 -20   8   3   -5.80    6.80
  12   8  -3    8.70    7.60
 -12  20  -3    9.10    8.50
  -8 -12  -3   11.60    7.80
  -8  20   3    2.20    6.60
  20  -8  -3   -2.20    8.30
  13   7  -3   13.80    7.90
 -20  13  -3   -3.80    6.80
   7  13   3    0.70    6.30
   7 -20  -3   11.90    8.10
  13 -20   3    4.00    6.30
 -20   7   3    3.90    6.80
 -20   7   3   -8.00    6.80
  -7 -13  -3    6.90    7.40
  -7  20   3   -7.10    6.10
  20  -7  -3   -6.10   12.00
 -13  20  -3    3.50    8.40
  20 -13   3   -5.90   11.50
   6  14   3    3.30    6.70
   6 -20  -3   13.80    8.20
 -20   6   3    2.60    6.90
 -20   6   3    8.00    7.60
  14 -20   3    2.80    6.80
  14   6  -3   24.70    6.30
   6  14   3   -1.20    8.40
  -6  20   3   -4.50    6.20
 -14  20  -3    4.20    7.20
  -6 -14  -3    1.70    7.10
  20 -14   3   -0.40    7.30
   5  15   3   22.50    7.70
  15 -20   3   26.00    7.50
 -20   5   3   19.40    8.30
 -20   5   3   35.20    8.00
   5  15   3   18.90    8.90
  15   5  -3   44.30    7.60
   5 -20  -3   41.10    8.90
  -5 -15  -3   14.40    6.90
  20 -15   3   17.90    9.00
  -5  20   3   20.00    7.20
  20 -15   3   32.40    9.90
 -15  20  -3   33.80    8.80
   4  16   3   79.09    9.20
   4 -20  -3   97.49   11.10
  16 -20   3  107.39   11.30
   4  16   3   68.79   12.40
   4 -20  -3   74.29    8.70
  16 -20   3   70.89    9.60
 -20   4   3   66.39   10.80
  16   4  -3  101.99   10.10
 -20   4   3   80.89   10.80
  20 -16   3   64.09   11.30
  -4 -16  -3   70.89   10.30
  20 -16   3   61.59   10.00
 -16  20  -3   75.49   11.00
  -4  20   3   48.10    9.00
 -16  -4   3   51.99   11.60
 -16  -4   3   32.10   12.50
  17 -20   3   36.80    8.90
   3 -20  -3   46.70    9.10
   3  17   3   28.80   10.00
 -20   3   3   35.10    9.60
 -20   3   3   15.40    8.40
   3  17   3   30.30    8.80
  17   3  -3   27.30    7.90
   3 -20  -3   32.30    7.40
 -17  -3   3    7.50   11.20
 -17  20  -3   35.00    8.10
  -3  20   3   11.50    8.20
 -17  -3   3    7.10    7.00
  20 -17   3   24.20    9.10
  -3 -17  -3   29.60    7.60
  20 -17   3   19.30    9.30
  18   2  -3  131.89   11.10
  18 -20   3  130.99   11.40
 -20   2   3  101.19   13.20
 -20   2   3  105.49   11.60
   2  18   3  116.89   15.10
   2  18   3  106.99   12.50
   2 -20  -3  126.59   10.50
  -2 -18  -3  128.79   10.50
  20 -18   3   92.79   12.30
 -18  -2   3   90.39   11.10
 -18  -2   3   89.89   15.10
 -18  20  -3  108.99   11.90
  -2  20   3   93.89   11.00
  20 -18   3  100.19   12.40
  19   1  -3  175.28   12.80
   1  19   3  168.48   14.20
 -20   1   3  176.28   14.90
   1 -20  -3  177.98   11.80
  19 -20   3  193.48   14.30
 -20   1   3  175.48   15.30
 -20  19  -3  229.38   18.20
  19 -20   3  163.88   13.10
  20 -19   3  172.88   13.80
  20 -19   3  168.58   14.20
  20  -1  -3  159.48   19.70
 -19  -1   3  174.08   16.60
  -1  20   3  153.58   14.00
 -19  -1   3  165.88   13.10
 -19  20  -3  185.08   13.00
 -20   0   3    9.10   10.60
  20   0  -3   20.50    9.50
  20 -20   3   26.30    9.80
   0  20   3   14.50    9.90
 -20   0   3   20.90    8.30
   0 -20  -3   15.60    7.60
 -20  20  -3   10.90    8.70
  20 -20   3   25.90   10.10
 -21  21   3   84.89   11.00
 -21   0  -3  102.69   11.20
  21   0   3   74.19   10.20
   0 -21   3   73.29    9.20
  21 -21  -3   97.79   12.30
   0  21  -3   75.59   10.50
  20 -21  -3    4.30    7.70
   1  20  -3    9.30    8.70
  20   1   3    8.00    6.50
   1 -21   3   -0.60    5.50
 -21   1  -3    3.30    7.70
 -21  20   3    6.70    7.80
  -1 -20   3    9.70    5.80
  21 -20  -3    3.10    7.60
  -1  21  -3    1.90    7.80
 -20  21   3   11.60    8.00
 -20  -1  -3    4.40    7.70
  21  -1   3    3.60    7.30
 -21   2  -3   77.49   10.50
  19   2   3   77.39    9.80
  19 -21  -3   61.89   10.10
 -21  19   3   71.49    9.20
   2  19  -3   63.29   10.00
   2 -21   3   82.19    8.40
  -2 -19   3   69.09    8.30
  21  -2   3   71.39    9.00
  -2  21  -3   63.59   10.20
 -19  -2  -3   70.99   10.60
 -19  21   3   74.29    9.20
  21 -19  -3   74.29   10.20
 -21  18   3   81.09    9.50
   3  18  -3   76.39   10.30
  18 -21  -3   65.09   11.40
   3 -21   3   73.09    8.00
 -21   3  -3   86.49   10.60
  18   3   3   95.19    9.00
 -18  -3  -3   89.89   10.60
  -3  21  -3   77.29   11.90
  21  -3   3   75.59    9.00
 -18  21   3   86.49    9.60
  21 -18  -3   82.19   10.40
  -3 -18   3   69.19    8.10
   4 -21   3    9.60    5.60
  17 -21  -3   -0.60    7.40
   4  17  -3    2.80    7.30
  17   4   3    1.40    6.10
 -21  17   3   11.70    7.90
 -21   4  -3   10.40    8.60
  21 -17  -3   10.90    8.50
 -17  -4  -3   18.20    8.10
  -4  21  -3    9.30    8.10
  21  -4   3    1.00    6.30
 -17  21   3   12.20    6.90
  -4 -17   3    9.90    5.80
 -21  16   3   36.80    7.90
   5  16  -3   27.30    8.00
  16   5   3   26.90    6.80
   5 -21   3   28.70    6.40
 -21   5  -3   28.60    8.50
  16 -21  -3   21.80    8.80
  -5  21  -3   32.20    8.80
 -16  -5  -3   41.30    8.80
  -5 -16   3   22.20    6.30
 -16  21   3   28.00    7.30
  21 -16  -3   28.00    8.10
  21  -5   3   30.10    7.70
   6 -21   3    3.00    5.20
   6  15  -3    9.80    8.20
  15 -21  -3   -3.10    6.90
 -21   6  -3   14.90    7.80
 -21  15   3    4.60    7.70
  15   6   3    3.60    6.70
 -15  -6  -3    3.10    7.50
  -6 -15   3    0.50    6.30
  -6  21  -3   -0.60    7.60
  21  -6   3    2.00    6.20
  21 -15  -3    0.40    8.00
 -15  21   3    5.30    6.30
   7 -21   3    3.50    5.40
  14 -21  -3   -3.90    7.80
 -21  14   3    0.50   10.20
  14   7   3   -3.60    5.70
 -21   7  -3    0.90    7.90
   7  14  -3    0.60    7.70
 -14  -7  -3    7.80    7.50
  -7  21  -3   -3.10    7.70
  21 -14  -3   -4.80    7.30
  21  -7   3   -1.30    6.90
  -7 -14   3   -2.80    6.20
 -14  21   3    0.60    6.00
   8 -21   3    8.20    6.30
   8  13  -3    7.60    7.40
  13 -21  -3   10.20    7.70
 -21   8  -3    8.40    7.80
  13   8   3   15.20    7.10
 -21  13   3    6.30    7.30
  -8  21  -3    8.00    8.20
  21  -8   3    8.90    6.70
 -13  -8  -3   10.10    8.30
  21 -13  -3    5.00    8.70
  -8 -13   3   11.00    6.70
 -13  21   3   10.60    7.20
 -21  12   3   20.20    7.60
  12   9   3    7.30    7.70
   9 -21   3   13.30    5.90
 -21   9  -3    5.10    7.40
   9  12  -3   11.20    7.50
  -9  21  -3   16.80    8.60
 -12  -9  -3   12.40    8.10
  21  -9   3    3.40    6.40
 -12  21   3    1.60    6.30
  21 -12  -3    8.40    7.70
  -9 -12   3    5.50    5.90
 -21  10  -3    1.70    7.10
 -21  11   3    1.40    6.40
  10 -21   3    1.80    5.60
  10  11  -3    1.40    7.20
  11 -21  -3   -5.30    7.20
 -11 -10  -3    1.80    7.20
  21 -11  -3   -5.90    7.30
 -10 -11   3    2.80    5.80
 -10  21  -3    4.20    8.30
  21 -10   3  -15.30    6.60
 -11  21   3   -3.00    7.10
  11 -21   3   20.10    6.60
  10  11   3   37.50    7.70
  10 -21  -3   33.00    8.50
 -21  10   3   32.70    7.90
 -21  11  -3   33.10    8.00
  21 -11   3   16.10    8.20
 -10 -11  -3   21.00    7.50
 -10  21   3   21.10    7.20
 -11 -10   3   18.00    6.60
  21 -10  -3   22.20    8.00
 -11  21  -3   21.40    9.70
   9 -21  -3   17.30    8.50
  12   9  -3   23.60   13.10
 -21   9   3   13.40    8.00
  12 -21   3   22.10    6.70
 -21  12  -3   18.20    7.80
   9  12   3   12.40    6.50
  21  -9  -3   20.50    7.90
  -9 -12  -3   15.30    7.40
  21 -12   3    2.30    7.90
 -12  -9   3   17.10    6.70
 -12  21  -3   20.40    8.50
  -9  21   3    9.40    6.70
   8  13   3   12.70    7.10
  13 -21   3    1.80    6.20
   8 -21  -3   17.40    8.30
 -21   8   3  -11.20    7.30
 -21   8   3    5.20    7.10
 -21  13  -3   15.40    8.40
  13   8  -3   11.70    7.50
 -13  21  -3   11.40    9.90
  -8  21   3   -2.80    6.10
  21  -8  -3    5.10    7.30
 -13  -8   3   -8.70    6.40
  21 -13   3   -9.90    7.70
  -8 -13  -3    7.40   12.00
   7 -21  -3    6.20    8.30
 -21  14  -3   -3.60    7.30
  14 -21   3   -3.40    6.60
 -21   7   3  -12.40    6.40
   7  14   3    5.60    6.60
  14   7  -3    7.10    6.70
 -14  -7   3  -10.20    5.90
  21  -7  -3   -9.30    6.70
  -7  21   3  -10.50    6.50
 -21   6   3  -10.20    7.30
 -21   6   3   18.30    7.90
   6  15   3   11.40    7.40
  15 -21   3    7.90    6.40
  15   6  -3   46.30   12.70
   6  15   3  -13.10    8.80
 -21  15  -3   15.40    8.10
  15   6  -3   10.40    7.50
   6 -21  -3   11.50    8.80
  -6  21   3    1.20    6.30
 -15  -6   3   -6.00    6.70
  21  -6  -3   16.40    7.50
  -6 -15  -3    3.10   12.30
 -15  21  -3    8.80    8.20
  21 -15   3  -11.10    7.50
  16 -21   3    8.10    6.90
   5  16   3   18.60    8.10
   5 -21  -3   16.70    8.80
   5  16   3   16.20    9.80
 -21   5   3   17.90    8.00
  16   5  -3    8.00    7.60
 -21   5   3    8.80    7.50
  21  -5  -3    5.70    8.20
  -5  21   3   -5.10    6.20
  21 -16   3   -8.70    8.80
 -16  -5   3   -3.10    6.00
 -16  21  -3    8.50    8.00
  -5 -16  -3    4.10    7.00
 -21   4   3   39.80    9.80
   4 -21  -3   60.19   10.40
  17   4  -3   58.29    8.90
   4  17   3   52.89    9.40
 -21   4   3   30.50    9.50
  17 -21   3   35.40    8.50
   4  17   3   48.30   11.50
 -17  -4   3   37.50    7.70
  21  -4  -3   37.70    8.30
  -4  21   3   42.90    8.20
  -4 -17  -3   42.80    8.60
 -17  21  -3   66.39   10.90
  21 -17   3   19.50    8.40
  21 -17   3   28.30    9.60
  18 -21   3  148.09   13.70
 -21   3   3  149.49   13.60
 -21   3   3  122.59   12.80
   3  18   3  112.79   14.70
  18   3  -3  156.08   11.10
   3 -21  -3  140.89   13.20
  18 -21   3  129.29   12.70
  21 -18   3  138.09   13.10
  -3 -18  -3  116.79   10.30
  21 -18   3   97.79   13.00
  21  -3  -3  129.39   12.50
 -18  -3   3  104.99   10.10
 -18  21  -3  119.09   12.20
  -3  21   3  107.29   12.30
  19 -21   3   15.50    8.00
   2  19   3    6.20    9.10
   2  19   3   35.50   15.30
 -21   2   3   13.70    9.70
   2 -21  -3   22.60    7.80
 -19  21  -3   32.60    9.10
  21 -19   3   10.50   10.10
  -2  21   3   13.50    8.00
  -2 -19  -3   25.10    8.80
  21 -19   3    9.90   10.00
  21  -2  -3   33.70    8.90
 -19  -2   3   24.00    8.00
  20 -21   3   61.29   10.90
   1  20   3   36.20   11.10
   1 -21  -3   71.59    9.70
  20   1  -3   80.99   12.60
   1  20   3   49.40   11.30
 -21   1   3   58.89    9.50
 -20  -1   3   36.20   15.70
  -1 -20  -3   85.09   15.10
  21 -20   3   23.40   11.00
  -1  21   3   40.80    9.90
  21 -20   3   54.39   10.60
 -20  21  -3   74.79   11.50
 -20  -1   3   50.69    9.20
  21  -1  -3   95.49   11.00
  21 -21   3  103.59   12.40
  21   0  -3  128.79   12.40
 -21   0   3  116.29   11.00
 -21   0   3  116.39   17.80
  21 -21   3  136.79   14.20
   0  21   3   99.79   13.70
   1 -22   3   52.59    7.90
  21 -22  -3   39.20    9.70
 -22   1  -3   61.09   10.20
   1  21  -3   44.10   10.00
 -22  21   3   53.59    9.20
  21   1   3   43.40    8.90
  -1 -21   3   31.30    6.90
 -21  -1  -3   68.59   11.60
  -1  22  -3   42.90    9.60
  22 -21  -3   48.40    9.40
 -21  22   3   50.39    9.20
  22  -1   3   41.40    7.90
   2 -22   3   53.79    8.90
 -22  20   3   82.69    9.50
  20 -22  -3   67.89   10.60
   2  20  -3   57.99   10.70
 -22   2  -3   73.19   10.50
  20   2   3   50.89    8.80
  22  -2   3   73.49   10.50
 -20  -2  -3   75.29   10.20
  22 -20  -3   81.89   10.60
 -20  22   3   75.79    9.60
  -2  22  -3   62.89   10.70
  -2 -20   3   65.09    8.20
   3  19  -3   -3.90    8.40
   3 -22   3    6.40    5.70
 -22   3  -3    4.10    7.60
  19 -22  -3    9.50    7.80
 -22  19   3    6.50    8.00
  19   3   3    1.20    7.10
  22 -19  -3   16.60    8.80
  -3 -19   3    7.30    5.80
  -3  22  -3    5.30    9.00
  22  -3   3    2.90    7.20
 -19  -3  -3    9.60    7.80
 -19  22   3    3.90    7.10
   4  18  -3   62.99   10.00
 -22  18   3   64.69    9.30
  18 -22  -3   55.29   10.00
 -22   4  -3   48.10    9.30
   4 -22   3   41.30    7.40
  18   4   3   52.19    8.80
  -4  22  -3   59.89   10.30
  22 -18  -3   46.90    9.30
 -18  -4  -3   65.29   11.80
  22  -4   3   51.09    8.90
  -4 -18   3   58.09    7.80
 -18  22   3   59.49    8.90
  17   5   3   38.00    8.00
   5  17  -3   31.50    8.40
 -22   5  -3   38.30    8.80
  17 -22  -3   29.60    8.30
 -22  17   3   42.10    8.30
   5 -22   3   44.70    7.50
  -5  22  -3   35.30    9.60
  22 -17  -3   33.50    8.80
 -17  22   3   33.30    7.50
  22  -5   3   30.70    7.40
 -17  -5  -3   30.10    8.40
  -5 -17   3   33.10    7.30
 -22   6  -3   16.40    7.80
  16   6   3    9.40    7.10
   6  16  -3    9.90    7.60
   6 -22   3    7.10    6.20
 -22  16   3    6.80    7.70
  16 -22  -3   -0.30    7.50
  22 -16  -3    9.60    7.80
 -16  22   3    4.70    6.60
  -6  22  -3    6.50    7.90
  22  -6   3    1.40    6.10
  -6 -16   3    7.00    6.40
 -16  -6  -3   15.30    7.70
   7  15  -3   -1.60    7.20
   7 -22   3    7.40    5.70
 -22   7  -3   14.20    7.90
  15 -22  -3   -3.10    8.00
 -22  15   3   16.10    8.10
  15   7   3    6.90    6.40
 -15  22   3    8.40    6.50
  -7 -15   3    8.50    6.40
  22  -7   3    1.20    6.20
 -15  -7  -3   11.30    7.60
  22 -15  -3    2.60    7.60
  -7  22  -3    9.30    7.90
   8  14  -3    2.20    7.30
 -22  14   3   12.30    7.70
   8 -22   3    8.20    5.50
  14 -22  -3    2.30    7.20
  14   8   3   11.60    7.10
 -22   8  -3   17.40    8.50
 -14  -8  -3    9.00    8.10
 -14  22   3    8.50    6.20
  22  -8   3   -4.30    6.40
  -8 -14   3    1.00    6.20
  22 -14  -3    9.00    7.80
  -8  22  -3   10.60    9.60
   9  13  -3    2.30    7.20
  13 -22  -3   -0.30    8.30
 -22   9  -3   16.70    8.10
  13   9   3    9.50    6.40
   9 -22   3    9.30    5.80
 -13  -9  -3    9.80    8.20
  -9 -13   3    2.10    6.00
  -9  22  -3    6.20    9.20
 -13  22   3    7.40    6.40
  22  -9   3    1.90    7.20
  22 -13  -3   -2.00    7.70
  10  12  -3   38.00    8.70
  10 -22   3   47.60    8.40
 -22  12   3   48.20    9.50
  12  10   3   48.20    7.80
  12 -22  -3   37.40    9.00
 -22  10  -3   47.40    9.50
 -10 -12   3   39.60    7.20
 -12  22   3   40.60    7.80
  22 -10   3   36.50    8.10
  22 -12  -3   44.00   10.00
 -12 -10  -3   47.80    9.30
 -10  22  -3   46.60   10.20
  11 -22  -3   23.70    8.20
  11 -22   3   30.40    6.70
  11  11   3   32.00    7.00
 -22  11  -3   42.80    8.70
  11  11  -3   25.90    7.80
 -22  11   3   26.30    7.50
  22 -11  -3   29.10    8.30
  22 -11   3   13.40    7.10
 -11  22   3   19.80    7.00
 -11  22  -3   30.70   10.00
 -11 -11  -3   27.90    7.90
 -11 -11   3   24.90    6.70
 -22  12  -3   10.80    7.30
  12 -22   3    8.50    6.00
 -22  10   3    7.90    8.30
  10  12   3    0.30    6.30
  10 -22  -3    6.00    8.40
  12  10  -3    0.50    7.40
 -10 -12  -3    3.20    7.10
  22 -12   3  -10.80    6.60
  22 -10  -3    8.00    7.30
 -12  22  -3   15.90    8.50
 -12 -10   3    8.80    6.80
 -10  22   3   -0.20    6.00
 -22  13  -3   21.70    8.70
  13   9  -3   17.80    7.70
  13 -22   3   10.70    6.40
   9  13   3   26.80    8.20
 -22   9   3   28.20    8.50
  22  -9  -3   23.90    8.90
  -9  22   3    8.50    7.40
 -13  -9   3   10.40    6.50
  -9 -13  -3   12.40    7.20
  22 -13   3    5.40    7.30
 -13  22  -3   15.00    8.20
  14   8  -3   14.40    8.00
  14 -22   3   21.60    7.70
   8  14   3   23.40    8.30
   8  14   3   25.30    9.50
 -22   8   3   10.20    8.00
 -22  14  -3   26.10    8.00
 -22   8   3  -12.20   13.70
  22 -14   3    8.20    8.60
 -14  22  -3   21.00    9.30
  -8  22   3   13.80    7.90
 -14  -8   3   16.00    6.70
  -8 -14  -3   31.90    8.40
  22  -8  -3   19.10    8.90
  15   7  -3    9.00    8.60
 -22   7   3    6.10    7.70
 -22   7   3    0.00    8.40
 -22  15  -3   19.60    8.30
   7  15   3   12.60    8.70
  15 -22   3   10.70    7.40
   7  15   3    8.20   10.30
 -15  -7   3    2.20    6.40
 -15  22  -3   21.40    9.30
  22  -7  -3   13.20    8.90
  -7 -15  -3   20.20    8.20
  -7  22   3    4.30    7.10
  22 -15   3   -1.50    8.60
 -22  16  -3    6.30    8.10
   6  16   3   -4.10    8.30
   6  16   3   -7.50    9.90
  16   6  -3    7.80    7.90
  16 -22   3    5.30    6.90
 -22   6   3    2.50    7.90
 -22   6   3   13.40    8.90
  -6  22   3   -8.70    6.50
  22  -6  -3    6.80    7.30
  -6 -16  -3   -7.20    7.50
  22 -16   3  -17.10    7.60
 -16  22  -3   -3.60    8.50
 -16  -6   3   -6.70    7.00
   5  17   3   41.80    9.30
 -22   5   3   31.60    9.60
  17   5  -3   64.99   10.90
   5  17   3   28.50   11.00
 -22   5   3   42.00   10.10
  17 -22   3   35.80    8.20
   5 -22  -3   35.60   16.90
  22  -5  -3   37.50    9.40
  -5 -17  -3   40.90    8.90
 -17  22  -3   55.19    9.70
 -17  -5   3   25.40    7.20
  22 -17   3   27.30   10.10
  -5  22   3   22.40    7.40
   4  18   3   23.60    9.60
  18   4  -3   60.99   10.60
   4  18   3    8.10   10.70
   4 -22  -3   34.10   10.50
 -22   4   3   39.30   10.40
 -22   4   3    6.50    8.80
  18 -22   3   49.00   10.50
  18 -22   3   23.20    8.00
  22  -4  -3   29.30    9.00
  -4 -18  -3   14.00    7.60
  22 -18   3    1.40    9.10
 -18  -4   3   10.20    6.90
  -4  22   3   20.70    7.40
 -18  22  -3   20.10    9.50
   3  19   3   23.60   10.30
  19 -22   3   80.89   13.40
  19   3  -3   44.20    9.50
 -22   3   3   25.60    9.40
   3 -22  -3   59.59   11.10
  19 -22   3   36.30    9.50
   3  19   3   12.20   10.00
 -19  22  -3   68.19   11.40
  22 -19   3   20.10    9.00
  22 -19   3   34.20   11.10
  -3 -19  -3   48.70    9.20
 -19  -3   3   38.80    8.00
  -3  22   3   29.80    8.30
  22  -3  -3   39.70    9.50
  20   2  -3  109.49   11.20
  20 -22   3   88.49   14.50
   2  20   3   75.89   12.90
   2  20   3   81.89   14.00
 -22   2   3   94.69   11.50
  20 -22   3   85.79   12.70
   2 -22  -3   78.19   11.20
   2 -22  -3   98.99   13.40
 -22   2   3   58.19   14.40
  22 -20   3   82.09   12.20
  -2 -20  -3   72.79   10.80
  22  -2  -3  121.49   12.10
 -20  22  -3  113.59   20.40
 -20  -2   3   63.59   10.10
  -2  22   3   66.59   12.40
  22 -20   3   71.59   11.90
 -22   1   3   -1.20   12.10
  21 -22   3   12.90    8.80
  21   1  -3   33.50    9.40
 -22   1   3   16.50    9.00
   1  21   3    3.00   10.50
   1 -22  -3   15.20   11.20
  21 -22   3   -9.60   10.60
  22  -1  -3   25.40    9.80
 -21  -1   3   11.40    8.70
  -1  22   3    0.10    8.50
 -21  -1   3  -20.70   13.10
  22 -21   3   30.70   10.30
  22 -21   3   11.40   10.40
  -1 -21  -3    3.70    7.80
 -21  22  -3   41.20   18.90
 -23  19   3   42.60    9.60
 -23   4  -3   40.00    9.20
  19 -23  -3   51.89    9.70
  19   4   3   41.30    8.70
   4 -23   3   51.69    8.60
   4  19  -3   33.90   10.00
 -19  -4  -3   34.70    8.70
  23 -19  -3   32.20    9.00
  23  -4   3   46.80    8.90
  -4 -19   3   33.70    7.40
  -4  23  -3   42.10    9.30
 -19  23   3   41.00    9.10
 -23   5  -3   18.30    8.40
 -23  18   3   -2.80    8.30
   5 -23   3    7.90    6.60
   5  18  -3   16.50    9.20
  18   5   3   14.50    7.70
  18 -23  -3   14.90    9.00
  23  -5   3    0.30    6.90
  -5  23  -3    4.20    7.80
  -5 -18   3   10.60    6.60
 -18  23   3   12.90    7.70
 -18  -5  -3   10.80    7.80
  23 -18  -3   28.50    9.20
  17 -23  -3   32.70    9.40
 -23   6  -3   42.80    9.10
 -23  17   3   30.60    8.00
   6 -23   3   32.40    6.70
  17   6   3   35.90    8.10
   6  17  -3   21.70    8.80
 -17  23   3   24.20    7.40
  -6  23  -3   26.10    9.30
  23  -6   3   26.60    7.90
  -6 -17   3   21.10    7.10
  23 -17  -3   29.30    9.10
 -17  -6  -3   37.90    9.20
 -23  16   3    5.80    7.80
   7 -23   3   10.50    5.90
   7  16  -3   12.50    8.50
  16 -23  -3    2.00    7.90
  16   7   3   -0.60    6.40
 -23   7  -3   12.90    8.80
 -16  -7  -3    8.20    7.50
  23 -16  -3    4.00    7.50
  23  -7   3   -5.60    6.20
 -16  23   3   -2.10    6.30
  -7  23  -3    3.90    8.70
  -7 -16   3    0.10    6.40
 -23  15   3   17.40    8.10
  15 -23  -3    6.20    7.50
   8  15  -3    4.60    8.00
  15   8   3    6.50    6.40
   8 -23   3   11.20    5.90
 -23   8  -3   24.30    8.30
  23 -15  -3    8.00    8.00
 -15  -8  -3    9.50    7.30
  23  -8   3   14.00    7.60
 -15  23   3   10.60    6.40
  -8 -15   3    9.20    6.00
  -8  23  -3    1.10    8.50
   9  14  -3   43.30    9.50
 -23   9  -3   53.39    9.30
 -23  14   3   56.39   10.30
  14 -23  -3   37.60    9.50
   9 -23   3   42.50    7.50
  14   9   3   62.19    9.50
  23  -9   3   37.90    8.10
  -9  23  -3   47.20   10.10
  -9 -14   3   47.70    7.70
 -14  -9  -3   50.49    9.50
  23 -14  -3   72.49   11.80
 -14  23   3   52.69    8.60
  13 -23  -3   13.10    9.20
 -23  13   3   41.80    9.70
 -23  10  -3   41.30    9.00
  10 -23   3   29.20    6.40
  13  10   3   31.50    7.90
  10  13  -3   32.30    8.60
 -13 -10  -3   39.30    8.10
  23 -10   3   20.80    7.30
 -10  23  -3   29.70    9.10
 -13  23   3   24.80    7.10
 -10 -13   3   23.20    6.60
  23 -13  -3   36.70    8.40
 -23  12   3    4.00    7.60
  12 -23  -3    2.20    7.50
 -23  11  -3   14.20    7.90
  12  11   3   12.90    7.40
  11  12  -3    2.10    7.40
  11 -23   3    2.10    5.80
  23 -11   3   -5.20    6.70
 -11  23  -3    5.70    8.10
 -11 -12   3   -4.00    5.40
 -12  23   3    1.50    6.30
 -12 -11  -3    0.00    8.00
  23 -12  -3    6.10    7.60
 -23  12  -3   49.99    9.90
  12  11  -3   42.80    8.80
  11 -23  -3   44.20    9.60
  12 -23   3   56.29    8.00
  11  12   3   50.09    8.80
  23 -12   3   24.60    8.00
 -11  23   3   37.00    8.30
 -12  23  -3   47.00    9.50
 -11 -12  -3   38.10    8.00
  23 -11  -3   39.60    9.20
 -12 -11   3   43.30    8.10
  10  13   3   57.59    9.10
  13 -23   3   43.10    7.80
 -23  13  -3   48.50    8.90
  13  10  -3   48.30    9.60
  10 -23  -3   40.70    9.80
  23 -10  -3   49.00    9.60
 -13 -10   3   34.60    7.40
 -10  23   3   40.40    7.60
 -10 -13  -3   34.70    8.10
 -13  23  -3   58.49   10.20
  23 -13   3   29.60    8.40
  14 -23   3   14.30    7.40
  14   9  -3    8.10    8.60
 -23  14  -3   19.80    8.00
 -23   9   3   15.00   12.30
   9  14   3   16.30    6.90
   9 -23  -3   17.80    8.90
  23 -14   3   12.40    7.80
  -9  23   3    8.00    6.70
  23  -9  -3    7.60    7.60
  -9 -14  -3    8.20    7.70
 -14  -9   3   -0.50    6.70
 -14  23  -3   17.20    8.60
 -23  15  -3   14.70    8.30
 -23   8   3    2.50    8.40
   8 -23  -3    2.10    8.80
   8  15   3   12.80    7.80
  15   8  -3    7.40    8.30
  15 -23   3    9.80    6.40
   8  15   3    2.90    9.40
  23  -8  -3    6.50    7.90
  23 -15   3   -3.40    8.40
  -8  23   3    0.90    6.10
  -8 -15  -3   -0.20    7.70
 -15  -8   3   -4.30    6.00
 -15  23  -3   11.40    9.00
 -23   7   3   22.60    9.00
   7  16   3   12.20    8.00
  16 -23   3   17.80    7.20
 -23  16  -3   20.10    8.40
  16   7  -3   31.00    8.50
   7 -23  -3    9.90    8.90
 -23   7   3   16.90   12.70
   7  16   3   17.40   10.60
  -7  23   3   14.80    7.60
 -16  23  -3   29.40   10.10
  -7 -16  -3   37.60    8.00
 -16  -7   3    7.40    6.80
  23  -7  -3   26.80    8.20
  23 -16   3   12.10    9.20
   6  17   3   35.70   12.50
   6  17   3   38.10    9.40
   6 -23  -3   30.70    9.50
 -23  17  -3   36.40    9.10
 -23   6   3   26.00    9.60
  17   6  -3   30.50    9.80
  17 -23   3   32.60    8.30
 -17  -6   3   16.40    8.00
  23  -6  -3   40.60    9.90
 -17  23  -3   33.00    9.20
  -6  23   3   23.00    7.40
  23 -17   3   22.70    9.20
  -6 -17  -3   30.40    8.60
   5 -23  -3    0.80    9.80
  18 -23   3   -6.70    6.90
   5  18   3   -4.70   11.00
 -23   5   3   -7.40   10.60
  18   5  -3    7.20    8.10
 -23   5   3    1.90   15.40
 -23  18  -3    9.90    8.50
   5  18   3  -11.60    8.90
 -18  23  -3   -4.60    9.00
  -5 -18  -3  -12.90    7.60
  23  -5  -3   12.50    7.90
  23 -18   3  -12.40    9.00
  -5  23   3   -2.60    6.80
 -18  -5   3   -3.70    7.10
   4 -23  -3   23.20   10.50
  19   4  -3   45.10   10.20
   4  19   3   25.40   12.10
   4  19   3   13.30   10.10
  19 -23   3   16.80    8.00
 -23   4   3   10.30   12.00
 -23   4   3   20.10   10.10
  23 -19   3   38.50   11.10
  -4 -19  -3   29.70    8.50
 -19  23  -3   43.40    9.90
  -4  23   3   33.00    9.20
 -19  -4   3   26.50    8.50
  23  -4  -3   33.00    9.40
 -24  17   3   19.50    8.70
  17   7   3   16.10    7.30
  17 -24  -3   15.50    9.50
   7  17  -3   20.80    8.30
   7 -24   3   22.30    6.60
 -24   7  -3   25.60    8.70
  24 -17  -3   21.20    8.70
 -17  24   3   12.60    7.20
  -7  24  -3   18.10   10.10
 -17  -7  -3   23.10    7.80
  24  -7   3   20.60    7.30
  -7 -17   3   22.00    6.50
 -24   8  -3   46.70   10.10
  16   8   3   35.40    8.20
   8 -24   3   28.50    6.80
  16 -24  -3   36.50   10.10
 -24  16   3   62.29   10.60
   8  16  -3   14.00    8.20
 -16  24   3   30.60    7.50
  24 -16  -3   37.30    8.90
  -8  24  -3   37.30    9.80
  -8 -16   3   31.10    7.00
  24  -8   3   31.90    8.60
 -16  -8  -3   38.50    8.50
 -24  15   3   34.60    9.10
  15 -24  -3   17.60    9.50
   9 -24   3   20.40    7.10
 -24   9  -3   29.60    8.90
   9  15  -3   24.20    9.50
  15   9   3   34.20    8.60
  24 -15  -3   24.40    8.40
 -15  -9  -3   23.60    8.70
  -9  24  -3   32.70   10.00
  -9 -15   3   13.70    6.40
 -15  24   3   23.40    7.10
  24  -9   3   22.40    7.60
  14  10   3   13.50    7.20
  14 -24  -3   -2.80    8.30
  10 -24   3    6.20    5.90
 -24  10  -3    6.50    7.80
 -24  14   3  -11.30    8.10
  10  14  -3    4.30    8.60
 -14  24   3    1.50    6.60
  24 -14  -3    6.60    7.90
  24 -10   3   -4.60    6.60
 -10 -14   3    2.50    6.00
 -14 -10  -3    1.40    7.30
 -10  24  -3   -3.80    9.20
  11  13  -3   73.09   11.70
  13  11   3   64.99    8.80
  11 -24   3   63.99    8.50
  13 -24  -3   78.89   11.40
 -24  13   3   62.69   10.60
 -24  11  -3   80.29   11.90
 -11 -13   3   51.99    9.00
 -13  24   3   54.09    8.90
 -13 -11  -3   63.89    9.90
  24 -11   3   54.49    9.50
  24 -13  -3   57.89    9.80
 -11  24  -3   71.89   10.80
 -24  12   3   66.69   11.00
  12 -24   3   77.49    9.80
  12  12   3   81.69   10.00
 -24  12  -3   68.29    9.80
  12 -24  -3   34.00    9.40
  12  12  -3   71.89   10.40
  24 -12  -3   64.39   10.20
 -12  24  -3   65.79   12.10
 -12 -12  -3   55.79    9.50
  24 -12   3   52.19    9.50
 -12  24   3   52.09    9.00
 -12 -12   3   48.40    7.90
 -24  13  -3   13.40    8.30
  13 -24   3   11.70    6.80
  11 -24  -3    1.80    8.20
  13  11  -3    6.60    8.70
 -24  11   3   14.00    8.60
  11  13   3    7.90    6.60
  24 -13   3   -6.40    7.10
 -11 -13  -3    5.80    8.00
 -13  24  -3    6.00    8.50
 -11  24   3    1.60    6.20
  24 -11  -3   10.00    7.60
 -13 -11   3    2.10    6.10
  14 -24   3   17.80    7.20
 -24  14  -3   32.80    8.80
 -24  10   3   27.20    8.90
  10  14   3   30.80    8.00
  10 -24  -3    7.20    9.30
  14  10  -3   29.30    9.40
 -10  24   3    6.20    6.80
 -14  24  -3   21.20    9.10
 -14 -10   3   14.50    6.80
  24 -10  -3   27.20    8.40
 -10 -14  -3   12.10    7.40
  24 -14   3   16.40    8.10
 -24   9   3   38.60    9.50
   9  15   3   45.20    9.10
  15 -24   3   30.60    7.70
   9 -24  -3   46.80   10.20
 -24  15  -3   40.20    9.00
  15   9  -3   29.80    9.10
  24 -15   3   28.80    8.60
 -15  -9   3   19.60    7.90
  -9 -15  -3   25.20    8.70
  -9  24   3   16.80    7.10
 -15  24  -3   31.90    9.40
  24  -9  -3   36.30    9.00
   8  16   3   34.70   11.10
 -24  16  -3   32.30    9.30
 -24   8   3   21.20    9.90
  16   8  -3   23.30    9.90
   8  16   3   28.00    8.60
  16 -24   3   25.10    7.50
   8 -24  -3   38.60   10.10
 -16  24  -3   30.10    9.00
  -8 -16  -3   28.90    7.80
 -16  -8   3    9.50    6.80
  24 -16   3   32.10   10.20
  -8  24   3   15.00    7.00
  24  -8  -3   42.50    9.60
 -24  17  -3   15.30    8.50
   7  17   3    3.80    8.60
   7 -24  -3   -9.00    9.90
  17 -24   3    4.50    7.30
 -24   7   3    6.10    9.20
  17   7  -3   20.30    9.00
 -24   7   3    2.60    9.60
   7  17   3    3.50   18.30
  24  -7  -3   -0.40    8.30
  -7  24   3   -1.70    7.50
 -17  24  -3   11.40    9.30
  -7 -17  -3   -4.00    7.50
  24 -17   3    3.60    8.70
 -17  -7   3   -3.70    6.60
   0   0   4   -1.00    4.30
   0   0   4   -0.50    4.00
   0  -1   4  159.68    8.10
   0  -1   4  146.59    8.30
   1   0   4  146.79    7.90
  -1   1   4  149.09    8.20
   1   0   4  151.38    8.60
   0  -1   4  150.18    8.20
  -1   1   4  153.18    7.60
  -1   1   4  155.98    8.30
   1   0   4  152.38    8.40
   0   1   4   61.59    5.70
  -1   0   4   54.19    6.10
  -1   0   4   55.29    6.40
   1  -1   4   58.29    5.80
   0   1   4   56.89    5.70
   1  -1   4   52.29    6.00
  -1   0   4   54.69    5.20
   1  -1   4   57.59    5.50
   0   1   4   53.99    6.30
   2   0   4   61.69    6.00
   0  -2   4   54.09    5.70
   0  -2   4   58.49    6.30
  -2   2   4   63.69    6.00
   0  -2   4   56.49    5.80
  -2   2   4   61.49    5.10
   2   0   4   60.39    6.20
   2   0   4   51.39    5.70
  -2   2   4   55.49    7.00
  -2   1   4  220.38   10.60
  -2   1   4  241.78   10.70
  -2   1   4  232.18    9.80
   1  -2   4  231.78   10.40
   1  -2   4  236.18   10.70
   1   1   4  234.08   10.80
   1  -2   4  244.18   10.70
   1   1   4  241.48   10.30
  -1   2   4  236.98   10.20
  -1  -1   4  255.97   10.30
  -1  -1   4  234.68   10.30
   2  -1   4  236.68   10.30
  -1  -1   4  245.58   10.90
  -1   2   4  232.78   10.70
  -1   2   4  231.28   10.60
   2  -1   4  244.28   10.40
   2  -1   4  243.18   11.20
   0   2   4  323.97   12.90
   0   2   4  332.37   13.20
   2  -2   4  328.07   13.40
  -2   0   4  324.27   13.40
  -2   0   4  328.27   12.50
   2  -2   4  323.87   13.40
   0   2   4  321.87   13.10
   2  -2   4  316.87   12.80
  -2   0   4  330.77   13.40
   0  -3   4  732.13   24.80
   0  -3   4  719.23   25.60
   0  -3   4  611.04   25.30
  -3   3   4  777.22   25.60
  -3   3   4  715.13   25.30
   3   0   4  748.23   24.90
  -3   3   4  719.93   24.20
   3   0   4  743.73   25.70
   3   0   4  749.62   25.10
   2   1   4  195.88    8.90
   1  -3   4  186.58    8.90
   1  -3   4  193.28    9.80
  -3   2   4  193.08    8.30
  -3   2   4  192.98    9.60
   2   1   4  186.88    9.60
   1  -3   4  187.18    9.10
  -3   2   4  198.78    9.50
   2   1   4  180.78    9.30
  -2   3   4  195.58    9.80
   3  -1   4  184.58   10.00
  -1  -2   4  197.08    8.70
  -1  -2   4  192.18    9.40
  -2   3   4  194.98   10.30
   3  -1   4  197.58    9.30
   3  -1   4  188.18    9.40
  -1  -2   4  183.68    9.80
  -2   3   4  180.68    8.70
  -3   1   4   46.10    4.70
  -3   1   4   56.49    6.60
   2  -3   4   43.40    6.10
   1   2   4   37.60    6.30
   2  -3   4   43.30    5.40
   2  -3   4   41.10    5.80
   1   2   4   42.10    6.40
  -3   1   4   41.10    5.90
   1   2   4   46.00    5.80
   3  -2   4   38.60    5.90
   3  -2   4   50.79    6.10
  -2  -1   4   45.00    4.90
  -1   3   4   47.70    5.90
   3  -2   4   45.10    5.70
  -2  -1   4   42.80    6.10
  -1   3   4   42.20    6.50
  -2  -1   4   52.49    6.00
  -1   3   4   37.30    6.00
   3  -3   4  286.37   12.40
  -3   0   4  295.27   12.50
   3  -3   4  294.37   12.50
   3  -3   4  265.87   11.40
   0   3   4  275.67   11.60
   0   3   4  271.47   12.00
  -3   0   4  287.27   11.20
   0   3   4  276.47   12.00
   0  -4   4  645.84   23.10
   0  -4   4  608.24   21.70
   4   0   4  619.54   22.20
   4   0   4  634.14   23.20
  -4   4   4  625.14   22.20
  -4   4   4  602.74   20.80
   0  -4   4  639.44   21.70
  -4   4   4  605.34   22.50
   1  -4   4   59.89    6.80
   3   1   4   62.79    6.20
   1  -4   4   58.59    5.70
  -4   3   4   59.99    6.40
   3   1   4   52.69    7.50
   3   1   4   55.19    5.80
   1  -4   4   61.99    5.50
  -4   3   4   64.69    4.60
   4  -1   4   54.99    6.90
   4  -1   4   58.59    5.90
  -1  -3   4   62.49    6.90
  -3   4   4   60.39    5.40
  -3   4   4   58.99    6.80
  -1  -3   4   52.59    7.00
  -1  -3   4   62.89    5.90
   4  -1   4   66.19    7.80
  -3   4   4   63.39    6.30
  -4   2   4  309.87   11.60
   2  -4   4  302.17   12.70
   2   2   4  313.97   12.80
  -4   2   4  315.47   13.40
   2   2   4  321.27   12.50
   2  -4   4  311.87   12.30
   2  -4   4  306.27   13.50
   2   2   4  298.77   13.10
   4  -2   4  308.57   12.60
   4  -2   4  294.17   12.30
  -2  -2   4  306.37   12.60
   4  -2   4  311.77   13.20
  -2   4   4  293.87   12.50
  -2   4   4  312.77   13.10
  -2  -2   4  304.77   12.20
  -2  -2   4  313.97   13.30
   3  -4   4  319.97   12.20
   3  -4   4  306.77   13.40
  -4   1   4  302.57   11.60
   1   3   4  309.37   12.50
   3  -4   4  314.17   12.90
  -4   1   4  320.07   13.30
   1   3   4  312.47   13.20
  -3  -1   4  293.27   13.10
   4  -1  -4  295.57   12.40
  -1   4   4  291.87   12.30
  -3  -1   4  305.77   12.10
   4  -3   4  286.67   12.10
   4  -3   4  315.97   13.00
  -1   4   4  308.97   12.90
   4  -3   4  318.17   13.70
   0   4   4    7.90    4.60
  -4   0   4    0.50    4.80
   4  -4   4    6.30    3.50
  -4   0   4    7.20    3.30
   0  -4  -4    6.10    3.40
   0   4   4    7.60    3.80
   4  -4   4    3.50    4.30
   4   0  -4    6.70    4.40
   4  -4   4   11.20    4.70
  -5   5   4   10.60    3.00
   5   0   4   11.80    6.40
   0  -5   4   12.60    6.00
  -5   5   4   11.40    4.80
   5   0   4    5.80    4.20
   5   0   4   14.70    4.10
   0  -5   4   16.90    4.30
   0  -5   4   15.60    4.10
   5  -5  -4    6.90    5.30
   1  -5   4  941.71   31.20
   4   1   4  823.52   31.40
  -5   4   4  950.60   31.60
   1  -5   4  948.51   32.30
  -5   4   4  906.21   29.90
   4   1   4  943.11   31.40
   1  -5   4  923.91   30.60
  -1  -4   4  927.21   31.00
  -1  -4   4  971.10   32.20
  -4   5   4  911.21   31.70
   5  -4  -4  952.70   31.50
   5  -1   4  944.51   31.10
  -1  -4   4  885.51   30.60
   5  -1   4  935.31   30.80
  -4   5   4  926.51   31.40
   5  -1   4  925.01   32.20
   2  -5   4  270.87   12.80
  -5   3   4  283.67   12.30
   3   2   4  289.77   11.50
   3  -5  -4  276.07   10.30
  -5   3   4  281.47   10.50
   2  -5   4  279.97   11.90
   3   2   4  278.17   11.90
   2  -5   4  271.37   11.30
  -2  -3   4  282.57   11.60
   5  -2   4  281.37   12.80
   5  -2   4  274.37   11.80
   5  -2   4  274.57   11.60
   5  -3  -4  274.37   12.50
  -3   5   4  280.17   12.60
  -2  -3   4  269.87   12.80
  -3   5   4  274.37   12.20
   3  -5   4   68.99    5.60
  -5   2   4   66.59    4.80
   3  -5   4   69.29    7.10
   2  -5  -4   64.59    4.90
   2   3   4   67.59    6.00
   3   2  -4   71.49    6.10
   3  -5   4   66.59    6.40
   2   3   4   74.69    6.80
  -5   2   4   60.79    6.80
  -2   5   4   64.19    6.10
  -3  -2   4   71.69    7.30
   5  -3   4   77.29    6.50
   5  -3   4   62.39    6.60
   5  -2  -4   71.99    7.10
  -2  -3  -4   56.49    6.10
  -3  -2   4   66.09    5.20
   5  -3   4   71.39    7.00
  -2   5   4   68.79    7.80
   4   1  -4  100.09    6.80
  -5   1   4  102.09    7.80
   4  -5   4   97.89    7.30
   1   4   4   94.49    7.50
   1  -5  -4  105.09    6.00
  -5   1   4   96.99    5.90
   4  -5   4   93.19    6.50
   1   4   4   95.49    6.40
   4  -5   4   99.19    8.70
  -4  -1   4  103.39    6.20
   5  -4   4   96.79    7.60
  -4  -1   4  103.59    8.00
  -1   5   4   94.59    7.50
   5  -4   4  100.19    7.00
  -1   5   4   96.69    6.80
  -1  -4  -4   89.89    7.10
   5  -4   4   98.69    8.60
   5  -1  -4   95.59    6.70
   0   5   4   46.80    6.50
   5  -5   4   50.49    7.50
   0   5   4   41.00    5.30
  -5   0   4   36.90    6.70
   5  -5   4   46.70    6.50
   0  -5  -4   37.90    5.00
   5   0  -4   41.10    6.20
   5  -5   4   46.20    5.70
   0  -6   4 1140.99   37.10
   6  -6  -4 1066.79   34.70
   0  -6   4 1074.49   36.10
   6   0   4 1143.89   36.30
  -6   6   4 1099.59   37.30
   6  -6  -4 1123.59   37.20
   0  -6   4 1122.09   38.50
   6   0   4 1121.39   37.00
   1  -6   4  831.42   28.90
   5   1   4  836.62   28.90
   5  -6  -4  828.42   26.80
  -6   5   4  789.52   27.10
   1  -6   4  842.82   28.10
   5   1   4  863.91   28.30
  -6   5   4  848.52   29.20
   1  -6   4  862.31   30.60
   6  -1   4  859.41   28.40
  -5   6   4  845.82   29.10
   6  -1   4  867.21   28.90
  -5  -1  -4  835.82   29.00
  -1  -5   4  835.52   28.70
   6  -5  -4  881.91   29.40
   6  -1   4  827.02   30.00
  -1  -5   4  875.61   30.20
   2  -6   4   55.89    5.90
  -6   4   4   50.59    6.80
  -6   4   4   54.09    4.30
   4  -6  -4   61.89    4.00
   4   2   4   52.59    6.50
   2   4  -4   61.09    5.70
   2  -6   4   54.19    5.50
   2  -6   4   70.19    8.30
  -2  -4   4   56.19    7.60
   6  -2   4   55.79    6.80
   6  -4  -4   47.90    6.50
   6  -2   4   52.79    7.70
   6  -2   4   56.09    6.30
  -4   6   4   81.99    7.70
  -2  -4   4   54.39    5.40
  -4   6   4   54.09    6.40
  -4  -2  -4   53.69    6.90
   3   3   4  295.67   12.80
   3  -6   4  311.67   14.70
  -6   3   4  303.07   11.00
   3   3  -4  270.97   12.70
   3  -6  -4  293.77   11.00
   3  -6   4  300.47   11.80
   3   3   4  290.87   12.00
   3  -6   4  297.47   12.70
  -6   3   4  316.47   13.70
  -3  -3   4  295.47   12.10
  -3   6   4  302.67   13.40
   6  -3   4  310.67   13.60
  -3  -3  -4  301.67   12.50
   6  -3   4  303.97   12.40
   6  -3   4  300.17   12.50
  -3   6   4  311.17   12.60
   6  -3  -4  301.87   12.70
  -3  -3   4  296.97   13.60
   4   2  -4  155.78    8.30
  -6   2   4  167.38    9.60
   4  -6   4  165.58    9.80
   2  -6  -4  161.98    7.50
  -6   2   4  170.58    7.40
   4  -6   4  167.48    8.20
   4  -6   4  169.58   10.40
   2   4   4  166.58    9.20
   2   4   4  160.18    8.50
  -2  -4  -4  172.18    8.80
   6  -4   4  136.69   10.10
  -4  -2   4  155.78    7.80
   6  -4   4  181.08   10.00
  -2   6   4  177.98    9.80
  -4  -2   4  162.68    9.80
   6  -2  -4  172.88    8.90
   6  -4   4  173.68    8.90
  -2   6   4  165.78    8.80
  -6   1   4   -0.30    2.80
  -6   1   4   -2.70    5.40
   1  -6  -4   -0.10    3.30
   5  -6   4   -0.40    4.70
   5  -6   4    5.40    6.00
   5  -6   4    2.90    3.80
   5   1  -4    0.90    4.00
   1   5   4    1.30    4.50
   1   5   4    1.20    4.00
  -5  -1   4    0.00    3.40
  -1   6   4    0.20    4.80
   6  -5   4   -1.20    3.90
   6  -5   4    4.50    5.10
   6  -5   4    0.00    5.40
  -1   6   4    2.90    4.10
  -5  -1   4    1.60    5.10
   6  -1  -4   -3.70    4.10
   0   6   4    9.20    5.60
   6   0  -4    7.90    4.50
  -6   0   4    9.90    5.60
   0   6   4    9.10    4.20
   6  -6   4    2.10    5.00
   6  -6   4   10.20    4.20
   0  -6  -4    5.60    4.00
  -6   0   4    9.00    3.40
   6  -6   4   12.00    6.40
   0  -7   4 1002.40   34.40
   7   0   4 1045.10   34.70
   7   0   4 1026.00   33.50
   0  -7   4 1017.00   36.20
  -7   7   4 1012.00   34.80
  -7   0  -4 1047.20   35.20
   7  -7  -4 1012.40   34.70
   6  -7  -4    5.30    6.40
   1  -7   4   22.80    7.10
  -7   6   4    0.80    5.60
   1  -7   4    7.90    4.50
   6   1   4   15.00    5.10
   1   6  -4   15.60    3.80
   6   1   4   15.30    4.00
   1  -7   4   10.20    3.70
   7  -1   4   15.20    5.40
  -6  -1  -4    7.60    5.10
  -1  -6   4   20.00    7.10
  -1  -6   4   12.00    4.20
   7  -1   4   13.30    4.10
  -6   7   4    4.00    5.10
   7  -6  -4    9.10    5.50
  -7   5   4  979.80   31.80
   5  -7  -4  943.11   31.20
  -7   5   4 1040.80   34.30
   5   2   4  991.70   32.90
   2  -7   4  991.60   32.60
   5   2   4 1001.30   33.70
   2   5  -4  981.40   32.60
   2  -7   4 1013.80   33.70
   2  -7   4 1013.50   35.30
   7  -2   4  993.80   33.10
   7  -2   4 1004.70   33.70
  -2  -5   4 1037.90   35.20
   7  -2   4  993.20   34.90
   7  -5  -4 1031.70   34.00
  -5   7   4  967.00   33.70
  -2  -5   4 1012.70   33.50
  -5  -2  -4  998.10   33.80
   3   4  -4  330.67   12.90
   4   3   4  349.57   14.00
   4   3   4  320.67   13.10
   4  -7  -4  322.47   11.50
   3  -7   4  339.47   13.80
  -7   4   4  335.67   11.90
   3  -7   4  333.57   12.70
  -7   4   4  330.97   14.20
   3  -7   4  343.97   15.50
  -4   7   4  330.57   14.60
   7  -4  -4  349.27   14.00
   7  -3   4  329.27   15.20
   7  -3   4  335.27   13.80
  -3  -4   4  339.17   15.50
  -4  -3  -4  334.17   14.00
  -4   7   4  327.17   13.90
   7  -3   4  324.17   13.50
  -3  -4   4  330.97   13.40
   4  -7   4    8.40    3.90
   4  -7   4   13.90    6.60
   3   4   4    6.30    3.90
   3   4   4    7.70    4.90
  -7   3   4   12.10    2.90
   3  -7  -4    0.20    3.00
  -7   3   4    7.00    5.30
   4  -7   4    0.70    4.50
   7  -3  -4   -1.00    5.20
   7  -4   4    9.50    5.80
  -4  -3   4    7.80    5.80
  -4  -3   4    9.10    3.70
  -3   7   4    3.10    5.00
  -3  -4  -4    2.90    4.20
   7  -4   4    4.00    5.20
   7  -4   4    9.00    4.20
  -3   7   4    6.40    6.00
   2   5   4   92.89    7.70
   5  -7   4   82.79    8.20
  -7   2   4   83.39    5.20
   2  -7  -4   73.59    5.60
  -7   2   4   82.39    7.60
   5  -7   4   81.69    6.40
   5   2  -4   82.99    6.50
   2   5   4   81.09    6.50
  -2   7   4   79.79    8.70
  -2   7   4   72.19    6.70
   7  -5   4   67.79    9.00
  -5  -2   4   77.59    5.80
  -2  -5  -4   73.39    6.90
   7  -5   4   71.89    6.90
   7  -5   4   76.19    8.00
   7  -2  -4   77.09    7.10
  -5  -2   4   81.39    8.20
  -7   1   4   15.90    3.70
  -7   1   4    8.60    5.70
   6   1  -4   16.00    4.70
   1   6   4   17.50    5.60
   6  -7   4   13.50    5.60
   1   6   4   12.60    4.20
   6  -7   4   14.00    4.30
   1  -7  -4   18.30    4.00
   7  -6   4   16.90    4.60
  -1   7   4   11.30    4.50
  -1  -6  -4   12.50    4.50
   7  -1  -4   17.60    5.20
  -1   7   4   14.90    5.50
  -6  -1   4   15.70    4.10
   7  -6   4   10.70    5.90
  -6  -1   4   16.80    5.70
  -7   0   4    2.30    5.40
   0   7   4    1.40    4.10
  -7   0   4    0.60    3.30
   7   0  -4    8.40    4.80
   0   7   4   -4.50    4.90
   0  -7  -4    1.90    4.20
   7  -7   4   -7.40    5.10
   7  -7   4    1.30    4.00
  -7   7  -4   -3.40    4.60
  -8   0  -4   33.20    6.40
   0  -8   4   67.89   11.60
   8   0   4   27.30    4.90
   8  -8  -4   38.30    6.90
  -8   8   4   24.00    6.00
   8   0   4   34.60    5.90
   0   8  -4   25.70    4.30
   0  -8   4   29.60    5.30
   7   1   4 1277.57   40.50
   7   1   4 1265.77   41.60
   1  -8   4 1269.57   41.60
   1  -8   4 1247.48   43.40
  -8   7   4 1283.47   42.10
  -8   1  -4 1232.38   42.00
   7  -8  -4 1250.07   41.70
   1   7  -4 1194.38   40.00
   8  -1   4 1248.08   41.50
   8  -1   4 1221.48   40.40
  -7  -1  -4 1291.87   42.00
  -1  -7   4 1213.98   41.30
   8  -7  -4 1266.17   41.70
  -7   8   4 1231.18   41.70
  -1  -7   4 1299.67   43.70
   2  -8   4  866.81   32.30
   6   2   4  893.21   29.60
   6  -8  -4  892.61   30.90
   2  -8   4  873.01   30.60
   2  -8   4  877.81   29.20
   6   2   4  898.41   30.50
  -8   6   4  905.71   30.90
   2   6  -4  861.21   29.20
   8  -2   4  853.11   29.70
  -2  -6   4  936.41   32.40
   8  -2   4  896.81   30.50
   8  -6  -4  922.81   31.20
  -6  -2  -4  906.41   31.00
  -6   8   4  922.31   31.10
  -2  -6   4  886.51   30.30
   8  -2   4  873.21   32.00
   3   5  -4   14.20    3.80
   5   3   4   11.30    5.20
   3  -8   4   20.30    3.90
  -8   5   4   17.40    3.10
   3  -8   4   11.20    4.90
   5   3   4   15.60    3.90
  -8   5   4   11.90    5.40
   8  -3   4   13.80    5.00
   8  -3   4    8.50    4.80
  -3  -5   4   23.50    7.10
  -5  -3  -4   11.20    5.60
  -3  -5   4   21.10    5.00
   8  -5  -4   13.90    5.70
   8  -3   4   17.60    6.70
  -5   8   4   11.20    5.30
   4  -8  -4  231.98    8.80
   4   4  -4  230.98   10.00
   4  -8   4  230.38   11.30
   4   4   4  250.67   11.50
   4  -8   4  233.18   10.00
  -8   4   4  251.17   11.70
   4   4   4  231.78   10.20
  -8   4   4  240.58    9.10
  -4   8   4  225.18   11.20
  -4  -4   4  239.68   12.70
   8  -4  -4  231.28   11.30
  -4  -4  -4  243.58   11.60
   8  -4   4  225.88   10.70
  -4  -4   4  232.28   10.90
   8  -4   4  216.28   11.40
   8  -4   4  241.58   12.80
  -4   8   4  268.17   13.10
   3  -8  -4  155.88    7.40
   5   3  -4  164.48    8.30
  -8   3   4  163.78    9.90
   5  -8   4  168.98    9.60
   5  -8   4  147.99   11.20
   3   5   4  167.98    9.60
   3   5   4  161.38    8.50
  -8   3   4  162.28    7.30
  -5  -3   4  172.08    8.90
  -5   8  -4  161.98    9.70
  -3   8   4  167.78   11.10
  -3  -5  -4  169.88    9.50
   8  -5   4  167.48    9.30
   8  -3  -4  160.38   10.00
   8  -5   4  179.08   10.80
  -3   8   4  162.38    9.30
  -5  -3   4  167.38   10.50
   6  -8   4    4.70    4.00
  -8   2   4    3.70    5.80
  -8   6  -4    5.20    4.20
   6  -8   4    1.60    5.00
   2   6   4   10.80    5.40
   2   6   4    1.20    4.20
   6   2  -4    5.20    4.30
  -8   2   4    4.40    3.30
   2  -8  -4   -0.40    3.50
   8  -2  -4    9.40    5.30
   8  -6   4    4.20    4.10
  -2   8   4    2.20    5.60
  -2  -6  -4    1.40    4.60
   8  -6   4    5.20    5.80
  -2   8   4    5.60    5.00
  -6  -2   4    5.50    3.90
  -6   8  -4    3.30    4.70
  -6  -2   4    6.90    6.10
  -8   7  -4    3.40    4.80
   7  -8   4    4.50    5.50
   1   7   4    5.70    5.50
   7  -8   4   14.70    4.40
   1   7   4   20.10    5.00
   7   1  -4   15.00    5.00
  -8   1   4    9.50    5.80
  -8   1   4   11.20    3.80
   1  -8  -4   12.50    4.60
  -1  -7  -4   10.00    4.80
  -7  -1   4   22.90    6.40
  -1   8   4   17.00    6.00
  -1   8   4   14.60    5.50
   8  -7   4    9.30    6.00
  -7   8  -4   12.30    5.30
  -7  -1   4   12.00    3.80
   8  -7   4   18.50    4.90
   8  -1  -4   16.50    5.40
  -8   0   4   21.40    7.10
   8   0  -4   21.90    5.60
   0   8   4   23.00    5.70
  -8   8  -4   19.20    5.50
   0   8   4   16.40    6.00
   8  -8   4   21.30    6.50
  -8   0   4   21.20    4.40
   8  -8   4   23.30    5.00
   0  -9   4 1266.37   42.20
  -9   0  -4 1286.67   42.70
   9   0   4 1316.17   42.50
   9   0   4 1233.88   40.60
   9  -9  -4 1304.77   42.70
  -9   9   4 1344.47   42.90
   0   9  -4 1145.79   39.90
   8   1   4  867.31   28.60
  -9   8   4  873.91   30.50
   8  -9  -4  867.81   30.40
   1  -9   4  906.21   30.20
   1   8  -4  790.52   28.00
  -9   1  -4  886.71   30.70
   8   1   4  892.71   30.10
  -1  -8   4  887.81   32.40
   9  -1   4  843.22   28.70
  -8  -1  -4  903.81   30.60
  -8   9   4  898.71   30.60
   9  -8  -4  888.11   30.50
   9  -1   4  889.51   30.20
  -1  -8   4  884.21   30.00
  -1   9  -4  802.42   27.90
   7  -9  -4   22.00    6.60
   7   2   4    9.50    5.30
   2   7  -4   14.90    3.60
  -9   2  -4    6.70    6.50
   7   2   4   20.20    4.00
  -9   7   4   12.30    5.80
   2  -9   4   22.50    3.70
   2  -9   4   14.10    5.20
   9  -2   4    9.30    4.40
  -7   9   4   10.50    5.60
   9  -2   4   16.20    5.40
  -2  -7   4   14.90    4.80
   9  -7  -4   15.20    6.80
  -2  -7   4   18.90    7.50
  -7  -2  -4   16.50    6.60
   3  -9   4  680.93   23.00
   6  -9  -4  693.23   25.00
   6   3   4  698.43   24.50
   3  -9   4  696.93   24.60
   6   3   4  682.23   23.40
   3   6  -4  664.23   23.00
  -9   6   4  699.73   25.00
  -3  -6   4  692.13   26.30
  -6   9   4  706.03   24.80
   9  -3   4  682.03   24.40
   9  -6  -4  676.43   24.70
   9  -3   4  676.33   26.10
  -3  -6   4  699.03   24.40
  -3   9  -4  686.73   25.10
  -6  -3  -4  683.63   24.70
  -9   5   4  288.57   10.60
  -9   5   4  304.47   13.60
   4   5  -4  270.27   11.70
   4  -9   4  287.77   11.50
   5   4   4  293.07   13.20
   4  -9   4  288.97   12.90
   9  -5  -4  299.97   13.30
  -4  -5   4  287.87   12.40
  -4  -5   4  298.17   14.80
   9  -4   4  290.17   12.70
  -4   9  -4  298.97   14.10
   9  -4   4  308.67   14.90
  -5  -4  -4  294.47   13.00
  -5   9   4  301.37   13.10
   4   5   4   12.80    4.30
   5   4  -4   12.20    4.50
   5  -9   4   15.70    5.30
  -9   4   4   15.10    3.00
  -9   5  -4   13.00    4.00
   5  -9   4   12.00    3.70
   4  -9  -4    2.60    2.90
  -9   4   4    5.20    5.60
   4   5   4   12.90    5.40
   9  -4  -4   17.50    5.70
   9  -5   4   11.20    4.70
  -4   9   4   12.20    5.30
  -4   9   4   23.70    6.40
   9  -5   4    8.30    7.00
  -5  -4   4   17.10    7.40
  -5  -4   4   16.80    4.40
  -4  -5  -4    9.60    5.70
  -5   9  -4    8.80    5.20
   6   3  -4   36.10    5.90
   6  -9   4   34.20    6.40
  -9   3   4   31.60    4.40
  -9   6  -4   33.20    5.70
   3  -9  -4   27.20    5.00
   3   6   4   29.30    5.10
   6  -9   4   39.00    5.00
  -9   3   4   44.10    6.80
   3   6   4   27.30    6.10
  -6   9  -4   27.10    5.80
  -3   9   4   30.00    5.90
  -6  -3   4   32.10    7.30
  -6  -3   4   27.20    4.90
  -3  -6  -4   31.40    6.10
   9  -6   4   31.50    7.20
  -3   9   4   33.40    7.00
   9  -6   4   29.20    5.60
   9  -3  -4   46.60    8.00
   7  -9   4   18.00    4.50
   2  -9  -4   23.80    4.50
   7   2  -4   31.50    5.60
  -9   2   4   22.10    7.10
   2   7   4   34.60    5.50
  -9   2   4   26.50    5.10
  -9   7  -4   25.10    5.20
   2   7   4   22.50    6.10
   7  -9   4   25.10    6.20
  -2   9   4   28.30    6.50
  -7  -2   4   22.90    4.50
  -2   9   4   27.20    6.20
   9  -2  -4   36.60    6.60
   9  -7   4   24.30    5.30
  -7  -2   4   16.20    6.70
   9  -7   4   33.10    6.90
  -2  -7  -4   25.20    5.50
  -7   9  -4   26.60    6.30
   8   1  -4    1.30    4.90
   8  -9   4   -0.10    4.10
  -9   8  -4    1.70    4.70
   1   8   4    6.00    5.60
   8  -9   4   -6.40    5.50
  -9   1   4   -0.80    5.70
   1  -9  -4    2.70    4.40
   1   8   4    5.00    4.80
  -9   1   4    1.00    3.60
  -1   9   4    4.20    5.30
   9  -8   4    0.60    4.50
   9  -8   4   -8.90    6.00
  -8  -1   4    4.90    4.10
   9  -1  -4    0.70    5.60
  -8  -1   4    0.30    6.10
  -1   9   4   11.10    6.20
  -8   9  -4    1.60    5.50
  -1  -8  -4   -4.70    5.00
   9  -9   4  105.99    9.20
   9  -9   4   89.69    7.40
  -9   0   4   93.49    7.10
   0   9   4   79.09    8.40
  -9   0   4   92.49    9.00
   0  -9  -4   80.09    7.30
   0   9   4   93.59    8.50
   9   0  -4  104.69    8.70
  -9   9  -4   85.39    8.50
   0  10  -4  171.78   11.70
   0 -10   4  198.28   10.30
 -10   0  -4  189.38   11.60
  10   0   4  189.48   10.70
  10 -10  -4  210.38   11.70
 -10  10   4  185.58   10.90
 -10   9   4   77.29    8.30
   9   1   4   89.99    5.60
   9 -10  -4   90.99    9.10
 -10   1  -4   96.39    9.10
   9   1   4   98.69    8.20
   1 -10   4  102.69    7.80
  -1  10  -4   71.39    9.00
  10  -1   4   95.49    8.90
  -9  -1  -4   78.69    9.10
  -1  -9   4   95.69    7.70
  10  -9  -4  106.89    9.30
  -9  10   4   80.29    8.40
   2   8  -4  768.22   27.70
 -10   8   4  879.91   30.30
   8 -10  -4  872.81   30.30
   8   2   4  865.11   28.40
 -10   2  -4  885.71   30.80
   8   2   4  866.81   30.00
   2 -10   4  874.41   30.00
  -2  -8   4  864.31   29.90
  -2  -8   4  881.51   32.30
  -8  -2  -4  863.01   30.40
  -2  10  -4  837.82   30.30
  10  -2   4  852.61   29.80
  10  -8  -4  870.71   30.20
  -8  10   4  893.41   30.50
   3 -10   4  433.06   15.50
   3   7  -4  425.76   15.70
   7 -10  -4  458.05   18.00
   3 -10   4  434.46   17.60
   7   3   4  461.65   17.60
 -10   7   4  475.75   18.00
   7   3   4  449.16   16.10
 -10   3  -4  429.96   15.40
  -3  -7   4  443.26   20.00
  10  -7  -4  444.96   18.00
  -7  10   4  462.15   17.80
  -3  10  -4  439.26   17.90
  -7  -3  -4  449.76   17.90
  -3  -7   4  451.05   17.30
  10  -3   4  442.06   17.30
 -10   6   4   10.40    5.90
   6   4   4   29.70    5.10
   4 -10   4   23.30    5.50
   4 -10   4   24.60    3.80
 -10   6   4   32.50    4.80
   6 -10  -4    9.90    6.90
   6   4   4   19.60    5.70
 -10   4  -4   30.60    4.70
   4   6  -4   13.00    4.10
  -6  10   4   22.80    6.00
  -6  -4  -4   11.80    5.90
  10  -4   4   14.20    7.50
  10  -4   4   21.60    5.40
  -4  10  -4   22.50    7.00
  -4  -6   4   32.70    8.40
  10  -6  -4   30.40    7.10
  -4  -6   4   28.50    5.30
   5   5  -4   85.19    6.80
 -10   5   4   99.59    8.50
   5   5   4   87.59    8.00
 -10   5   4   99.99    5.20
   5   5   4   90.69    6.50
   5 -10   4   97.39    8.10
 -10   5  -4   83.59    6.40
   5 -10   4   93.39    6.40
  -5  -5   4  100.39   11.40
  -5  10   4   96.89    8.40
  10  -5   4   97.39    7.60
  10  -5   4   97.49   10.30
  10  -5  -4  105.69    9.70
  -5  -5   4   95.59    7.10
  -5  -5  -4   80.99    8.70
  -5  10  -4   83.49    8.30
   4 -10  -4   39.40    4.10
   6 -10   4   47.30    5.50
 -10   4   4   46.20    4.60
   4   6   4   46.60    6.30
   4   6   4   46.70    7.20
   6 -10   4   40.90    7.10
 -10   6  -4   46.70    6.00
 -10   4   4   40.70    7.50
  10  -6   4   43.70    8.30
  -6  -4   4   50.29    8.30
  10  -4  -4   54.29    7.70
  -4  10   4   39.90    7.00
  -4  10   4   73.09    9.60
  -6  -4   4   53.19    6.70
  10  -6   4   44.70    6.40
  -6  10  -4   40.10    7.20
  -4  -6  -4   42.60    6.80
   7   3  -4    3.40    4.90
   7 -10   4    0.10    3.90
 -10   3   4    3.50    3.40
   3   7   4   -0.50    5.50
   7 -10   4   -0.20    5.50
   3   7   4    2.70    4.30
 -10   3   4    1.30    6.00
   3 -10  -4   -4.20    3.60
 -10   7  -4    1.60    4.50
  10  -7   4    2.60    6.30
  -7  10  -4   -0.80    6.10
  -7  -3   4    0.00    4.50
  10  -7   4    1.90    4.90
  -3  10   4    3.60    5.20
  -3  -7  -4    4.20    5.60
  -7  -3   4    8.70    6.80
  -3  10   4    0.90    6.30
  10  -3  -4   -1.00    6.20
   8 -10   4   74.19    6.80
   8   2  -4   56.69    8.00
   8 -10   4   55.49    8.00
   2   8   4   50.59    7.80
 -10   2   4   55.69    6.10
 -10   8  -4   50.79    6.90
   2   8   4   63.09    7.20
   2 -10  -4   41.70    6.20
 -10   2   4   54.39    8.20
  -8  -2   4   57.79    8.90
  -2  10   4   68.89    8.70
  10  -2  -4   56.69    8.60
  -8  -2   4   75.19    7.10
  10  -8   4   57.89    6.40
  -2  10   4   74.89    8.60
  -8  10  -4   57.89    7.30
  -2  -8  -4   65.09    7.70
  10  -8   4   52.39    8.80
 -10   1   4   76.99    8.70
   1   9   4   90.59    8.60
   9 -10   4   80.99    7.10
   9   1  -4   94.69    8.80
   9 -10   4   74.49    8.80
   1   9   4   89.59    8.40
 -10   1   4   86.19    7.00
 -10   9  -4   83.29    8.10
  -1  -9  -4   81.59    8.10
  10  -9   4   83.89    7.60
  -1  10   4   83.09    8.80
  -9  -1   4   70.79    9.00
  10  -9   4   70.69    9.30
  10  -1  -4   85.09    8.90
  -9  10  -4   77.19    8.20
  -1  10   4   95.49   10.10
  -9  -1   4   79.69    7.40
 -10   0   4   11.00    7.30
 -10   0   4    8.10    5.00
   0 -10  -4    2.80    5.20
  10 -10   4   11.90    5.00
  10 -10   4   -2.10    6.60
   0  10   4   10.20    5.80
  10   0  -4    9.00    6.10
   0  10   4    5.60    6.70
 -10  10  -4   10.00    5.40
 -11  11   4   51.69    7.80
   0 -11   4   47.00    7.90
   0  11  -4   55.69    8.70
  11 -11  -4   49.20    8.10
 -11   0  -4   35.40    8.00
  11   0   4   46.00    7.40
  10   1   4   87.59    8.20
 -11  10   4   93.49    8.70
  10 -11  -4  107.69   11.00
 -11   1  -4   81.69    9.50
   1  10  -4   82.39    9.50
   1 -11   4  103.19    8.20
 -10  11   4   84.49    8.80
  11 -10  -4   93.59    9.60
  11  -1   4   99.19    8.40
  -1  11  -4   96.69    9.30
  -1 -10   4   82.99    7.70
 -10  -1  -4   72.19   10.40
   9   2   4   94.99    8.20
   9 -11  -4   92.59    9.30
   9   2   4   95.89    5.90
 -11   9   4   89.99    8.60
 -11   2  -4   91.59    9.30
   2 -11   4   85.69    7.80
  11  -9  -4   90.69    9.20
  -2  11  -4   90.09    9.20
  -9  11   4   85.69    9.60
  11  -2   4   83.09    8.00
  -9  -2  -4   85.29   10.40
  -2  -9   4   77.49    7.60
   3   8  -4   88.79    5.80
 -11   8   4   74.49    8.30
   8 -11  -4   91.69    9.10
   3 -11   4   88.59    7.90
   8   3   4   83.39    6.00
 -11   3  -4   69.99    9.20
   8   3   4   80.59    8.20
  -3  -8   4   87.39    7.70
  11  -8  -4  110.39   10.40
  -8  -3  -4   79.49   10.00
  -3  11  -4   79.79    8.80
  -3  -8   4  120.89   12.00
  11  -3   4   85.59    8.80
  -8  11   4   87.29    8.70
   7 -11  -4  315.37   14.60
   4 -11   4  275.47   10.70
   4   7  -4  281.57   11.20
 -11   7   4  286.27   13.50
   4 -11   4  294.57   13.30
   7   4   4  281.67   11.30
   7   4   4  293.77   13.10
 -11   4  -4  258.67   10.50
  11  -4   4  279.97   13.40
  11  -7  -4  287.87   13.70
  -4  11  -4  289.67   14.70
  -4  -7   4  288.47   15.80
  -7  11   4  276.77   13.50
  -7  -4  -4  285.37   13.60
  -4  -7   4  292.57   12.70
 -11   5  -4   61.69    5.40
   5 -11   4   72.89    5.50
 -11   6   4   61.69    8.10
   5   6  -4   66.09    6.40
   5 -11   4   63.39    7.40
   6   5   4   62.09    7.60
   6 -11  -4   49.90    8.90
 -11   6   4   65.99    4.30
   6   5   4   55.89    6.50
  -5  -6   4   92.89   10.70
  11  -5   4   70.59    8.20
  11  -6  -4   71.19    8.50
  -5  11  -4   58.29    8.20
  11  -5   4   63.09    9.80
  -6  11   4   55.69    8.90
  -6  -5  -4   68.69    8.20
  -5  -6   4   64.49    7.00
 -11   5   4    2.00    5.90
   5   6   4    6.10    4.30
   6 -11   4    6.20    5.50
 -11   5   4    3.80    3.00
   6 -11   4    4.90    3.50
   6   5  -4    2.90    4.60
   5   6   4    1.90    5.30
 -11   6  -4    4.70    3.80
  -5  -6  -4    0.10    6.20
  -5  11   4    2.40    5.60
  11  -6   4    3.50    5.50
  11  -5  -4    9.00    6.40
  -6  -5   4   -1.90    7.20
  -6  -5   4    0.90    4.50
  -6  11  -4    4.40    5.90
  11  -6   4    7.50    7.40
 -11   4   4   27.30    4.00
   4   7   4   29.00    5.30
   7   4  -4   25.20    5.60
   4   7   4   28.60    6.10
 -11   7  -4   22.50    5.00
 -11   4   4   18.40    6.30
   4 -11  -4   22.40    3.70
   7 -11   4   25.00    6.40
  11  -7   4   30.70    6.20
  -7  -4   4   26.50    5.80
  -4  -7  -4   21.20    6.40
  -4  11   4   32.50    7.20
  -7  -4   4   19.00    7.60
  -4  11   4   35.00    7.40
  11  -4  -4   17.40    7.00
  11  -7   4   23.00    8.00
  -7  11  -4   21.70    6.30
   3   8   4   61.49    7.90
   8 -11   4   47.00    6.40
 -11   3   4   52.79    5.80
   3   8   4   56.19    7.00
   8 -11   4   55.39    7.80
 -11   3   4   43.80    7.40
   8   3  -4   53.89    8.00
   3 -11  -4   44.10    5.60
  -3  11   4   60.09    8.70
  -3  11   4   56.99    7.60
  -3  -8  -4   54.99    8.20
  11  -8   4   54.29    9.20
  -8  11  -4   53.49    8.70
  -8  -3   4   54.49    9.10
  -8  -3   4   59.19    7.60
  11  -3  -4   52.09    8.00
  11  -8   4   50.09    6.50
   2   9   4    5.20    4.90
   9 -11   4   -1.70    5.80
   9 -11   4    4.30    4.50
   2   9   4   -6.90    5.70
 -11   2   4    0.00    4.40
 -11   2   4   -4.60    6.20
   9   2  -4    8.00    5.70
 -11   9  -4    2.60    5.30
   2 -11  -4   -0.30    4.40
  -2  11   4    5.00    5.60
  11  -9   4    4.40    5.20
  -2  11   4    9.00    7.60
  -9  -2   4    1.40    5.10
  11  -2  -4    7.80    5.90
  -9  -2   4    1.20    6.60
  -9  11  -4    4.70    5.80
  11  -9   4   -5.20    6.50
  -2  -9  -4   -4.20    5.60
  10 -11   4  198.58   12.20
  10   1  -4  208.68   11.70
  10 -11   4  189.08   10.10
 -11   1   4  204.98   10.40
 -11   1   4  189.88   11.90
   1  10   4  194.98   11.40
 -11  10  -4  184.18   11.10
   1 -11  -4  208.48   10.80
   1  10   4  203.68   10.90
 -10  -1   4  200.98   10.80
  -1  11   4  203.68   11.20
  11 -10   4  206.18   12.50
  -1  11   4  202.38   12.80
  11 -10   4  192.08   10.10
 -10  -1   4  203.88   13.20
 -10  11  -4  198.18   11.50
  -1 -10  -4  193.88   11.10
  11  -1  -4  207.38   12.10
  11 -11   4  195.08   10.60
 -11  11  -4  194.38   11.10
  11 -11   4  196.38   12.60
  11   0  -4  209.88   12.10
 -11   0   4  193.78   12.20
 -11   0   4  202.08   10.90
   0  11   4  222.18   12.10
   0 -11  -4  193.18   10.60
   0  11   4  196.58   11.60
   0  12  -4    5.00    6.90
  12 -12  -4   13.30    7.00
   0 -12   4   12.70    5.60
 -12   0  -4    5.90    7.90
 -12  12   4    0.50    6.00
  12   0   4   15.10    5.80
   1  11  -4  104.89    9.80
  11   1   4  107.89    8.80
   1 -12   4   95.29    8.20
 -12  11   4  103.69    9.20
 -12   1  -4  100.39   10.00
  11 -12  -4  103.09    9.70
  12  -1   4  100.49    8.40
 -11  12   4   94.59    9.10
  -1  12  -4   95.99    9.80
  -1 -11   4   99.09    8.50
  12 -11  -4  122.39   10.00
 -11  -1  -4  100.39   10.00
   2 -12   4   71.69    7.70
 -12   2  -4   48.40    8.30
 -12  10   4   61.99    8.30
   2  10  -4   69.79    8.90
  10 -12  -4   56.99    9.00
  10   2   4   69.99    8.00
  12  -2   4   70.89    7.80
 -10  12   4   65.99    8.40
  -2 -10   4   64.49    7.40
 -10  -2  -4   62.19    9.10
  -2  12  -4   48.80    8.80
  12 -10  -4   60.89    9.10
   9   3   4   38.90    6.60
   3 -12   4   47.90    7.10
 -12   9   4   46.60    8.20
 -12   3  -4   40.00    7.80
   9 -12  -4   52.49    8.60
  -3  12  -4   44.70    8.00
  12  -3   4   49.90    7.50
  12  -9  -4   50.79    8.10
  -9  -3  -4   51.89    8.20
  -3  -9   4   51.99    8.20
  -9  12   4   46.50    8.10
 -12   4  -4  -11.90    6.40
 -12   8   4    4.00    6.10
   4 -12   4    1.30    5.40
   8 -12  -4   -7.70    6.40
   8   4   4    4.40    5.70
   8   4   4   -3.80    3.30
  12  -8  -4    2.70    6.70
  -4  12  -4    9.60    6.70
  -4  -8   4   28.40    9.30
  12  -4   4   -3.60    5.20
  -4  -8   4    4.40    5.60
  -8  12   4   -3.20    5.90
  -8  -4  -4   -3.60    6.40
   5 -12   4   90.29    8.40
   5 -12   4   84.79    7.90
   7   5   4   68.69    7.90
   7 -12  -4   73.59   10.10
   5   7  -4   77.09    6.50
 -12   7   4   58.59    8.00
   7   5   4   67.29    6.20
  -5  -7   4   68.09    8.30
  -7  -5  -4   72.79    8.60
  12  -7  -4   90.79    9.60
  -5  -7   4   81.09   11.30
  -5  12  -4   87.19   10.10
  -7  12   4   68.09    8.50
  12  -5   4   56.29    7.60
 -12   6   4   66.49    8.30
   6   6   4   67.89    6.30
   6 -12   4   53.89    7.60
   6 -12  -4   51.99    8.40
 -12   6   4   50.59    4.60
   6   6   4   54.49    8.70
   6 -12   4   65.89    5.60
   6   6  -4   65.49    6.90
  -6  12   4   58.79    8.40
  -6  12  -4   56.89    8.60
  -6  -6   4   60.49    8.00
  12  -6   4   56.89    9.40
  12  -6   4   48.60    7.20
  12  -6  -4   54.89    8.90
  -6  -6   4   74.79   11.00
  -6  -6  -4   56.89    8.20
 -12   5   4    2.40    3.20
   5   7   4    7.90    4.70
 -12   7  -4   -6.00    4.10
   7 -12   4    8.40    3.90
   7 -12   4   -2.40    6.00
 -12   5   4   -5.60    5.80
   5   7   4    6.90    5.70
  12  -5  -4   11.30    6.70
  -7  12  -4    0.50    6.00
  12  -7   4    9.60    7.70
  -7  -5   4    7.80    5.60
  12  -7   4    3.60    5.40
  -5  12   4    1.30    6.50
  -7  -5   4   -2.00    7.40
  -5  -7  -4    1.40    6.20
   8 -12   4    2.00    6.00
   4 -12  -4    2.20    3.30
 -12   8  -4   -3.40    4.80
 -12   4   4   10.70    6.60
   4   8   4   13.60    6.10
 -12   4   4    5.00    6.10
   8   4  -4    7.20    5.40
   8 -12   4   14.20    4.30
   4   8   4   15.20    5.10
  -8  -4   4    4.90    5.50
  -8  12  -4   10.40    6.80
  -8  -4   4   16.80    7.90
  -4  -8  -4   10.30    6.20
  12  -8   4    6.60    7.40
  12  -4  -4   19.00    7.30
  12  -8   4   10.20    5.90
  -4  12   4   25.40    7.10
  -4  12   4    8.70    5.90
   9 -12   4  113.69    9.80
   3   9   4  123.09   10.30
 -12   9  -4  105.79    8.50
 -12   3   4  102.19    9.70
   3   9   4  136.29    9.20
   9   3  -4  114.59    9.40
   3 -12  -4  106.69    7.30
 -12   3   4  119.79    8.00
   9 -12   4  125.49    7.70
  12  -9   4  123.29   11.20
  -9  12  -4  114.39    9.30
  -3  -9  -4  116.29    9.50
  -3  12   4  115.99   10.30
  12  -3  -4  140.09   11.50
  -9  -3   4  112.19    8.50
  -9  -3   4  114.09   10.70
  12  -9   4  115.99    9.40
  -3  12   4  120.79    9.50
   2  10   4  182.18   10.80
  10 -12   4  180.28    9.80
 -12   2   4  173.58   10.10
 -12  10  -4  156.28   10.20
 -12   2   4  182.98   11.40
  10   2  -4  164.88   10.60
   2  10   4  155.88   10.60
  10 -12   4  158.88   11.10
  -2  12   4  173.98   11.70
  -2 -10  -4  171.18   10.60
  12 -10   4  153.88   11.90
 -10  -2   4  184.78   13.20
 -10  -2   4  172.38   10.00
 -10  12  -4  173.38   11.20
  -2  12   4  194.78   11.00
  12 -10   4  173.78   10.60
  12  -2  -4  183.88   12.10
   1  11   4   15.40    6.20
  11 -12   4    9.00    6.70
   1 -12  -4    5.90    5.10
  11   1  -4   12.00    6.60
  11 -12   4    4.70    4.90
 -12   1   4   -0.60    6.30
   1  11   4    3.60    6.20
 -12   1   4    1.20    5.00
 -12  11  -4    1.70    6.10
  -1 -11  -4   -0.40    6.00
 -11  -1   4    1.10    5.60
  -1  12   4    1.50    7.10
  12 -11   4    6.80    6.70
  12 -11   4   10.90    5.30
  -1  12   4   11.30    6.10
  12  -1  -4    9.70    6.60
 -11  12  -4    2.40    6.30
 -11  -1   4    2.50    6.90
  12 -12   4  322.27   14.30
 -12   0   4  332.17   14.80
   0  12   4  336.27   15.40
  12   0  -4  335.87   15.40
  12 -12   4  306.07   16.00
 -12  12  -4  317.57   14.90
   0  12   4  349.27   15.60
 -12   0   4  311.97   15.50
   0 -12  -4  319.47   14.40
   0 -13   4    6.10    5.20
   0  13  -4    4.10    6.50
  13   0   4    5.30    5.40
 -13  13   4    3.40    5.80
  13 -13  -4    4.40    6.50
 -13   0  -4   -5.60    6.60
   1  12  -4   69.09    8.90
  12 -13  -4   79.29    9.10
 -13   1  -4   61.99    9.00
   1 -13   4   66.99    7.40
  12   1   4   73.29    7.70
 -13  12   4   74.49    8.20
  -1 -12   4   62.29    7.60
 -12  -1  -4   51.99    8.90
 -12  13   4   67.99    8.40
  13 -12  -4   83.79    9.40
  13  -1   4   67.39    7.70
  -1  13  -4   55.39    8.90
  11   2   4   -8.40    5.10
 -13  11   4   -2.20    5.50
   2  11  -4    9.70    6.50
 -13   2  -4   -6.10    6.60
  11 -13  -4    2.10    6.60
   2 -13   4    4.60    5.10
  -2 -11   4   -0.50    5.20
  -2  13  -4    3.00    6.80
 -11  -2  -4    2.70    7.00
 -11  13   4    0.90    6.10
  13 -11  -4    0.60    6.90
  13  -2   4   -3.70    5.20
 -13  10   4   96.29    8.80
   3 -13   4   93.89    8.00
  10   3   4  109.49    9.40
  10 -13  -4   89.29   10.80
   3  10  -4   72.49    9.30
 -13   3  -4   76.39    9.40
  -3 -10   4  100.19    8.40
  13 -10  -4  106.99   10.10
  13  -3   4   83.59    9.20
 -10  13   4   83.19    8.80
  -3  13  -4   88.99    9.40
 -10  -3  -4   78.49    9.50
   4 -13   4   33.90    6.50
 -13   9   4   46.10    7.90
 -13   4  -4   38.90    7.80
   9   4   4   54.09    7.60
   9 -13  -4   53.29    8.80
  -4  13  -4   40.90    7.80
  -9  -4  -4   54.69    9.10
  -4  -9   4   45.10    7.20
  13  -4   4   45.40    7.30
  13  -9  -4   48.30    8.90
  -9  13   4   38.30    7.30
 -13   5  -4   -4.20    7.00
   8   5   4    7.10    3.80
   5 -13   4    2.50    5.40
 -13   8   4   -3.30    5.80
   8   5   4    2.00    6.00
   8 -13  -4   -6.00    6.50
  13  -8  -4   16.30    7.20
  -8  13   4   -1.20    6.10
  -5  -8   4    9.10    5.50
  -5  13  -4    8.20    6.70
  13  -5   4    6.00    5.50
  -8  -5  -4   -2.00    7.40
  -5  -8   4   26.70    9.30
   6   7  -4   26.20    4.30
   6 -13   4   19.10    6.00
 -13   7   4   22.70    7.30
   7   6   4   23.90    6.40
   7 -13  -4   26.00    7.90
  -6  13  -4   22.30    7.90
  -7  -6  -4   13.60    6.70
  -6  -7   4   22.70    9.10
  13  -7  -4   20.80    7.20
  -7  13   4   17.50    6.70
  -6  -7   4   21.20    5.90
  13  -6   4   17.60    6.10
   6 -13  -4   44.50    8.20
   6   7   4   51.09    7.10
   7 -13   4   37.50    5.30
 -13   6   4   43.00    7.60
   7 -13   4   49.80    7.60
   7   6  -4   41.80    6.90
 -13   6   4   33.30    5.00
   6   7   4   59.09    6.80
  -7  13  -4   46.70    8.30
  -7  -6   4   50.89    9.60
  -7  -6   4   48.70    7.20
  13  -6  -4   58.49    9.00
  13  -7   4   35.60    6.60
  13  -7   4   58.99    9.80
  -6  -7  -4   40.10    7.70
  -6  13   4   41.80    7.40
   8 -13   4    7.00    6.10
   5   8   4    4.50    5.70
 -13   5   4    3.40    6.20
 -13   5   4    5.30    3.90
 -13   8  -4    3.70    4.70
   8   5  -4    8.20    5.50
   5   8   4   16.80    4.90
  -5  -8  -4    3.90    6.10
  -8  -5   4    3.70    7.80
  13  -8   4   11.20    8.40
  -8  13  -4    7.80    7.10
  13  -5  -4    8.80    6.80
  13  -8   4    2.70    5.30
  -5  13   4   13.40    6.90
  -8  -5   4    4.40    5.40
 -13   4   4   78.39    8.70
   4 -13  -4   61.99    5.90
   9   4  -4   78.89    8.70
   4   9   4   72.09    8.20
 -13   4   4   69.69    6.90
 -13   9  -4   70.99    7.50
   4   9   4   88.59    8.10
   9 -13   4   79.99    7.10
   9 -13   4   76.59    8.60
  -4  -9  -4   71.09    9.00
  -9  -4   4   88.69   10.70
  -9  13  -4   67.99    8.70
  -4  13   4   90.09    8.80
  -4  13   4   92.59    9.80
  13  -9   4   66.79   10.60
  13  -4  -4   90.39   10.10
  13  -9   4   73.89    8.80
  -9  -4   4   66.89    8.70
 -13   3   4    2.90    6.80
   3  10   4   12.60    6.30
  10   3  -4    7.30    5.70
   3  10   4   13.00    5.20
 -13   3   4    6.50    4.80
   3 -13  -4    6.20    4.50
 -13  10  -4    7.10    5.60
  10 -13   4   16.40    4.80
  10 -13   4   10.80    6.40
  13  -3  -4   12.50    7.60
  -3 -10  -4    9.80    6.50
  13 -10   4    2.50    7.50
  13 -10   4    8.40    5.80
 -10  13  -4   12.90    6.90
  -3  13   4   14.30    6.20
  -3  13   4   11.50    6.90
 -10  -3   4    4.00    5.70
 -10  -3   4    4.70    8.10
  11   2  -4  283.97   14.00
   2  11   4  271.17   14.10
  11 -13   4  268.37   14.20
  11 -13   4  249.38   12.30
 -13   2   4  286.77   14.70
   2  11   4  279.57   13.60
 -13   2   4  274.87   13.10
   2 -13  -4  254.27   12.00
 -13  11  -4  258.77   13.00
  -2  13   4  260.47   14.00
  13 -11   4  280.47   13.20
 -11  -2   4  278.97   13.10
  -2  13   4  287.67   13.60
  -2 -11  -4  274.97   13.40
  13 -11   4  251.27   14.70
 -11  13  -4  279.37   14.10
 -11  -2   4  256.47   14.40
  13  -2  -4  280.97   14.40
  12 -13   4  331.87   14.30
   1 -13  -4  327.57   14.20
   1  12   4  359.76   15.60
 -13   1   4  340.47   14.90
  12   1  -4  316.87   15.30
 -13   1   4  353.16   16.60
   1  12   4  327.17   15.20
  12 -13   4  356.26   16.90
 -13  12  -4  297.47   14.90
  -1  13   4  345.17   16.50
  13 -12   4  320.77   14.60
  13 -12   4  321.77   16.10
 -12  13  -4  329.37   15.30
 -12  -1   4  340.77   15.40
  13  -1  -4  325.17   15.60
  -1  13   4  362.06   16.00
  -1 -12  -4  324.67   14.80
 -12  -1   4  324.27   16.80
 -13   0   4   -6.00    5.10
   0 -13  -4    4.80    5.00
 -13  13  -4    4.70    6.10
  13 -13   4    6.90    6.80
  13 -13   4    6.80    4.90
   0  13   4    3.20    6.30
 -13   0   4   -2.30    6.30
  13   0  -4    0.80    6.60
 -14   0  -4   42.60    8.20
 -14  14   4   40.80    7.20
  14 -14  -4   35.60    8.00
  14   0   4   39.70    6.60
   0  14  -4   37.80    8.60
   0 -14   4   42.30    7.10
  13 -14  -4   54.09    8.60
 -14   1  -4   40.80    8.00
 -14  13   4   45.10    7.60
   1 -14   4   45.50    6.70
  13   1   4   61.69    8.30
   1  13  -4   53.29    8.50
  -1  14  -4   47.20    8.70
  -1 -13   4   54.49    7.20
 -13  14   4   39.50    7.50
  14  -1   4   43.30    7.20
 -13  -1  -4   55.99    9.00
  14 -13  -4   50.19    8.20
  12   2   4   28.30    6.30
   2 -14   4   30.90    6.00
   2  12  -4   32.30    7.20
 -14  12   4   34.10    6.70
 -14   2  -4   41.40    7.80
  12 -14  -4   34.00    7.30
 -12  -2  -4   31.70    7.80
  14 -12  -4   50.89    8.90
 -12  14   4   36.20    7.00
  -2 -12   4   33.50    6.30
  -2  14  -4   40.50    8.40
  14  -2   4   31.10    6.30
  11 -14  -4   66.39    9.90
  11   3   4   47.50    8.20
   3  11  -4   54.29    8.40
 -14  11   4   47.60    8.80
   3 -14   4   42.90    7.00
 -14   3  -4   42.80    8.10
  14 -11  -4   53.59    9.00
 -11  14   4   43.20    7.90
  -3 -11   4   46.90    7.10
  14  -3   4   50.99    7.40
  -3  14  -4   62.79    8.80
 -11  -3  -4   50.69    8.90
  10   4   4   38.50    6.50
   4  10  -4   36.70    7.70
  10 -14  -4   36.10    7.70
   4 -14   4   38.70    6.90
 -14  10   4   46.90    7.80
 -14   4  -4   31.00    7.20
 -10  -4  -4   35.40    7.60
  14 -10  -4   41.50    7.90
 -10  14   4   41.90    7.30
  -4  14  -4   31.90    7.60
  14  -4   4   42.60    7.40
  -4 -10   4   41.50    7.10
   9 -14  -4  135.19   10.30
   9   5   4  123.99    9.10
   5 -14   4  110.59    8.80
 -14   9   4  111.29    9.20
 -14   5  -4  101.99    9.80
  -5  14  -4   99.79   10.90
  -9  -5  -4  113.69   10.20
  -9  14   4  113.19   10.50
  14  -5   4  110.99    8.80
  14  -9  -4  134.69   10.50
  -5  -9   4  117.79    8.80
   8   6   4   45.70    7.40
 -14   6  -4   47.60    8.40
   8 -14  -4   48.50    8.00
 -14   8   4   51.19    8.00
   6 -14   4   52.09    7.50
  -8  14   4   55.69    8.50
  14  -8  -4   74.29    9.40
  -8  -6  -4   49.30    8.60
  -6  14  -4   47.00    8.00
  -6  -8   4   56.59    7.60
  14  -6   4   64.59    7.90
  -6  -8   4   77.69   11.90
   7 -14   4   -0.40    5.50
   7 -14  -4    4.00    6.70
   7   7   4    0.20    6.10
   7   7  -4   13.90    4.20
 -14   7   4    3.20    6.30
   7   7   4    8.20    4.20
  -7  -7   4    7.40    5.50
  -7  -7   4    3.80    8.20
  -7  -7  -4   -2.50    7.10
  14  -7  -4    9.30    7.10
  14  -7   4    6.80    5.70
  -7  14   4   -0.40    5.60
  -7  14  -4    7.10    7.30
   6 -14  -4   54.59    8.40
   6   8   4   76.29    7.10
   8 -14   4   56.49    7.70
 -14   6   4   53.89    8.00
   8 -14   4   59.59    5.90
 -14   6   4   53.79    5.80
   6   8   4   51.09    7.60
  -6  -8  -4   60.49    9.70
  14  -8   4   59.09   10.40
  14  -8   4   55.09    7.70
  -8  -6   4   59.29    7.90
  14  -6  -4   70.49    9.40
  -6  14   4   58.69    8.40
  -8  -6   4   61.59   11.10
  -8  14  -4   69.79    9.90
   5   9   4   10.20    5.80
   9   5  -4   18.80    5.50
   5   9   4   39.30    6.80
 -14   5   4   14.20    4.50
 -14   5   4    9.60    6.40
   9 -14   4    6.30    6.30
   9 -14   4   24.70    4.60
  -5  -9  -4   18.80    7.00
  -9  14  -4   22.20    7.40
  -5  14   4   19.70    6.60
  14  -9   4   18.60    8.30
  -9  -5   4   16.80    5.90
  14  -9   4   15.20    6.30
  14  -5  -4   24.00    7.20
  -9  -5   4   15.60    8.30
 -14   4   4   97.19    9.40
  10   4  -4  106.79    9.10
  10 -14   4   93.59    9.30
   4  10   4  121.59    8.80
  10 -14   4  124.09    7.80
   4  10   4   99.79    9.00
 -14   4   4   94.29    8.10
  -4  14   4  115.89   10.40
  -4 -10  -4  108.59    9.80
  14 -10   4  114.19    9.50
 -10  -4   4  117.39   11.10
 -10  14  -4  110.59   10.40
  -4  14   4   95.99   10.00
  14 -10   4  108.69   11.40
  14  -4  -4  134.19   11.40
 -10  -4   4  114.69    9.80
   3 -14  -4  177.88   10.60
  11 -14   4  190.28   10.20
 -14   3   4  201.78   11.00
 -14   3   4  195.68   12.50
   3  11   4  199.18   12.30
  11 -14   4  193.38   11.80
 -14  11  -4  177.58   11.30
   3  11   4  211.28   11.40
  11   3  -4  198.68   11.70
  -3 -11  -4  198.18   11.50
  -3  14   4  217.18   12.50
 -11  -3   4  195.88   12.90
 -11  14  -4  191.98   11.50
  14 -11   4  197.58   10.90
  14 -11   4  187.58   13.30
  14  -3  -4  207.78   12.80
  -3  14   4  197.78   12.20
 -11  -3   4  196.88   11.10
 -14   2   4   -1.50    5.30
 -14  12  -4   -7.30    6.00
  12 -14   4    8.30    5.20
   2 -14  -4    1.50    5.00
 -14   2   4    2.00    6.70
  12   2  -4   -2.70    6.10
   2  12   4    0.90    5.80
  12 -14   4    2.10    6.00
   2  12   4    9.20    6.10
 -12  -2   4   -1.10    5.80
  14  -2  -4    5.40    6.90
  14 -12   4   17.30    6.10
  -2  14   4    8.50    6.60
  -2  14   4   12.70    6.30
 -12  14  -4    9.00    6.50
  -2 -12  -4    4.90    6.10
  14 -12   4    3.50    7.10
 -12  -2   4   -1.00    7.60
   1  13   4  285.47   14.20
   1  13   4  260.17   13.50
  13 -14   4  271.27   13.20
 -14   1   4  285.57   13.70
  13 -14   4  267.97   14.40
 -14  13  -4  222.38   13.70
 -14   1   4  254.57   13.90
  13   1  -4  275.87   14.50
   1 -14  -4  271.67   12.80
  -1  14   4  276.87   14.30
  14  -1  -4  266.87   14.00
 -13  14  -4  269.57   14.40
  14 -13   4  278.37   15.50
  -1  14   4  291.07   13.70
 -13  -1   4  266.57   14.60
  -1 -13  -4  277.27   13.10
  14 -13   4  275.37   13.40
 -13  -1   4  280.87   13.90
 -14   0   4  247.58   13.70
   0  14   4  271.07   13.90
   0 -14  -4  235.68   12.60
 -14   0   4  251.87   13.40
   0  14   4  275.87   14.40
  14   0  -4  246.68   13.80
  14 -14   4  249.97   12.80
  14 -14   4  253.37   14.10
 -14  14  -4  215.08   13.30
 -15   0  -4   32.90    9.90
 -15  15   4   30.20   11.10
 -15   1  -4   11.00    7.20
  14   1   4    5.60    5.80
   1  14  -4    1.80    6.50
   1 -15   4    3.60    5.20
 -15  14   4    6.20    6.20
  14 -15  -4    6.80    7.70
  -1 -14   4    6.80    5.50
  15  -1   4    3.90    5.50
 -14  -1  -4    4.70    7.20
 -14  15   4    7.90    6.70
  15 -14  -4   -0.30    6.90
  -1  15  -4   -1.40    7.60
 -15  13   4   78.59    8.50
  13   2   4   81.29    8.20
   2 -15   4   74.59    7.80
  13 -15  -4   91.29    9.40
 -15   2  -4   90.89    9.90
   2  13  -4   95.79   10.70
 -13  15   4   87.89    8.70
  15 -13  -4   72.09    9.50
 -13  -2  -4   81.49    9.90
  15  -2   4   75.09    8.10
  -2  15  -4   76.89    9.60
  -2 -13   4   79.39    8.00
 -15   3  -4   44.70    8.00
  12   3   4   41.10    7.00
  12 -15  -4   44.50    7.60
   3 -15   4   43.30    7.10
 -15  12   4   33.20    7.10
   3  12  -4   39.30    7.60
  -3  15  -4   34.90    7.70
 -12  15   4   39.50    7.20
  -3 -12   4   33.40    6.30
  15  -3   4   41.50    6.80
 -12  -3  -4   42.20    8.00
  15 -12  -4   33.20    7.60
 -15  11   4  115.49    9.30
   4  11  -4  122.89    9.90
   4 -15   4  121.99    8.90
  11 -15  -4  136.09   10.10
 -15   4  -4  117.49   10.10
  11   4   4  126.09    8.90
  -4 -11   4  129.79    9.10
 -11  15   4  124.69    9.70
  15 -11  -4  121.19   10.40
 -11  -4  -4  130.99   11.80
  15  -4   4  121.59    9.00
  -4  15  -4  125.69   10.20
  10 -15  -4   13.50    6.80
   5  10  -4    9.30    6.60
 -15   5  -4    9.10    6.70
   5 -15   4   12.80    5.50
 -15  10   4   18.40    6.30
  10   5   4   14.30    5.60
  -5  15  -4   15.50    7.00
  15 -10  -4   22.40    7.40
 -10  -5  -4   18.50    7.80
  15  -5   4   17.40    5.80
  -5 -10   4   14.60    5.60
 -10  15   4   13.30    6.10
   6 -15   4   71.39    7.70
   9 -15  -4   81.79    9.20
   9   6   4   66.29    7.70
 -15   9   4   70.69    8.20
 -15   6  -4   70.99    9.10
  -9  15   4   73.59    8.60
  15  -6   4   86.19    9.20
  -6  15  -4   76.09    9.20
  -9  -6  -4   62.79    8.80
  -6  -9   4   72.69    7.90
  15  -9  -4   70.99    9.40
   7 -15   4  125.39    9.10
   8   7   4  131.89    9.30
   8   7   4  146.49    8.10
 -15   7  -4  116.39   10.50
   8 -15  -4  126.99   10.20
 -15   8   4  142.49    9.80
  -8  15   4  137.49   10.20
  -7  15  -4  132.89   11.40
  -7  -8   4  131.59    9.50
  -7  -8   4  137.39   12.90
  15  -8  -4  152.98   12.50
  15  -7   4  138.39   10.50
  -8  -7  -4  140.09   11.30
   7   8   4   46.90    7.20
   7 -15  -4   36.90    7.60
 -15   7   4   39.90    7.10
   8 -15   4   48.40    7.50
  -8  -7   4   51.99   10.10
  15  -8   4   52.79    8.60
  -7  -8  -4   50.39    8.40
  -8  15  -4   49.20    8.50
  -8  -7   4   43.40    7.40
  -7  15   4   46.20    8.00
  15  -7  -4   62.69   10.10
   6 -15  -4   45.10    8.00
 -15   6   4   49.10    8.00
   6   9   4   66.99    7.40
   6   9   4   48.60    7.60
   9 -15   4   44.50    7.30
 -15   6   4   31.90    5.60
   9   6  -4   59.09    6.90
  -9  -6   4   43.40   10.50
  -9  15  -4   51.99    9.40
  15  -9   4   55.59    8.60
  -6  -9  -4   44.40    7.40
  15  -9   4   46.80    9.70
  15  -6  -4   45.30    9.10
  -6  15   4   56.49    9.30
  -9  -6   4   41.20    7.30
   5  10   4  165.88    9.90
   5  10   4  112.49    9.20
 -15   5   4  117.69    8.40
  10 -15   4  118.99    9.50
  10   5  -4  152.48    9.40
  10 -15   4  127.69    7.80
 -15   5   4  134.59   10.00
  -5  15   4  132.49    9.90
  15 -10   4  122.39    9.30
 -10  15  -4  125.99   11.10
  -5 -10  -4  128.19   10.60
  15  -5  -4  121.69   10.40
  15 -10   4  122.79   11.40
 -10  -5   4  129.39   10.30
 -10  -5   4  136.89   12.40
 -15  11  -4    9.20    5.10
   4  11   4   17.20    5.70
 -15   4   4    8.60    5.20
  11 -15   4   15.70    4.50
   4  11   4    8.00    6.50
  11 -15   4   -1.80    5.90
 -15   4   4   -0.10    6.10
  11   4  -4   11.20    5.60
  15 -11   4   11.80    5.80
  -4  15   4   12.10    6.30
  15  -4  -4    8.70    7.40
  -4 -11  -4    7.70    6.40
 -11  -4   4    1.80    8.10
 -11  15  -4    3.40    7.10
 -11  -4   4    4.10    5.60
  15 -11   4    5.70    7.60
 -15   3   4  153.28   11.60
 -15   3   4  147.59   10.50
   3  12   4  171.18   10.80
   3 -15  -4  160.08    9.20
  12 -15   4  126.09   10.50
  12   3  -4  160.18   10.50
 -15  12  -4  151.88    9.80
  12 -15   4  154.28    9.70
   3  12   4  158.28   10.60
  -3  15   4  171.08   10.80
 -12  -3   4  152.38   12.20
  -3  15   4  146.69   11.40
  15 -12   4  155.78   12.20
  15 -12   4  172.88   11.30
  15  -3  -4  162.08   12.00
 -12  15  -4  154.88   11.60
  -3 -12  -4  156.98   10.80
 -12  -3   4  151.68   11.20
 -15   2   4  205.28   13.20
   2 -15  -4  194.48   11.00
  13 -15   4  199.68   12.30
   2  13   4  211.88   12.30
 -15  13  -4  182.28   11.30
 -15   2   4  188.08   11.80
  13 -15   4  205.78   10.90
   2  13   4  210.48   12.70
  13   2  -4  200.18   11.70
 -13  -2   4  211.88   12.40
  -2  15   4  203.88   13.50
  15  -2  -4  204.98   12.80
  15 -13   4  212.08   12.30
  -2 -13  -4  187.98   11.60
  -2  15   4  221.98   12.80
 -13  15  -4  202.98   12.40
 -13  -2   4  203.28   13.00
  15 -13   4  188.38   13.10
   1  14   4   23.60    6.80
  14   1  -4   14.60    6.50
 -15  14  -4   11.90    6.50
  14 -15   4    5.40    7.00
  14 -15   4   21.50    6.50
 -15   1   4   10.80    7.00
   1 -15  -4   -4.30    5.60
   1  14   4   12.90    6.80
 -15   1   4    1.30    6.20
 -14  15  -4   -0.10    7.30
  -1  15   4    4.70    6.80
  -1  15   4   10.90    6.70
 -14  -1   4   12.10    6.60
  -1 -14  -4    6.80    5.90
  15 -14   4    7.20    7.00
 -14  -1   4   11.10    7.40
  15 -14   4   17.40    6.40
  15  -1  -4   12.70    7.40
   0  15   4  358.86   16.60
 -15   0   4  302.57   15.40
 -15   0   4  313.17   16.00
   0  15   4  294.87   15.30
 -15  15  -4  289.47   14.80
  15 -15   4  288.17   14.70
  15   0  -4  304.37   15.20
   0 -15  -4  281.07   14.60
   0 -16   4    4.20    5.60
 -16  16   4   -0.30    6.80
 -16   0  -4    7.10    7.70
   0  16  -4    2.60    6.90
  16   0   4    3.80    5.50
  16 -16  -4    6.20    7.20
   1 -16   4   31.80    6.30
  15   1   4   38.10    7.60
   1  15  -4   23.40    7.80
 -16  15   4   35.50    7.60
 -16   1  -4   34.00    9.10
  15 -16  -4   27.80    8.10
  -1 -15   4   30.90    6.60
  16  -1   4   35.10    6.90
  -1  16  -4   34.40    7.90
  16 -15  -4   36.20    7.90
 -15  -1  -4   48.20    8.70
 -15  16   4   32.50    7.80
   2  14  -4   55.69   10.30
  14   2   4   79.09   10.20
   2 -16   4   54.89    8.40
 -16  14   4   61.19    8.30
  16 -14  -4   74.49   11.00
 -14  -2  -4   70.19   10.00
  16  -2   4   72.39   10.40
 -16  13   4   50.59    9.30
 -16   3  -4   47.00    8.60
   3  13  -4   38.60    9.20
   3 -16   4   48.30    7.70
  13   3   4   33.90    6.60
  13 -16  -4   53.29    8.90
  16  -3   4   45.90    7.50
 -13  16   4   35.20    8.20
  -3 -13   4   40.10    6.70
 -13  -3  -4   42.90    9.30
  16 -13  -4   38.50    8.20
  -3  16  -4   36.20    8.10
  12   4   4   49.00    8.30
  12 -16  -4   45.80    7.80
   4 -16   4   28.60    6.20
 -16   4  -4   35.30    8.10
 -16  12   4   37.30    7.20
   4  12  -4   30.40    7.40
  -4  16  -4   38.60    8.00
  -4 -12   4   33.00    6.60
  16  -4   4   43.50    6.80
 -12  -4  -4   40.50    8.10
 -12  16   4   44.00    8.10
  16 -12  -4   38.20    8.10
 -16  11   4   96.09    9.00
 -16   5  -4   98.89   10.00
  11 -16  -4  115.89    9.90
   5  11  -4  106.89    9.70
  11   5   4  106.19    8.80
   5 -16   4  101.89    8.70
 -11  16   4  110.79    9.50
  -5  16  -4  117.99   10.10
  16 -11  -4  109.99   10.40
  -5 -11   4  109.29    8.80
  16  -5   4  112.69    9.90
 -11  -5  -4  109.29   10.20
  10   6   4  193.68   10.80
  10 -16  -4  188.98   11.70
 -16  10   4  188.28   11.20
   6  10  -4  212.48   12.90
   6 -16   4  173.88   10.60
 -16   6  -4  189.38   12.00
 -10  -6  -4  179.68   11.90
  -6  16  -4  191.78   12.00
  -6 -10   4  185.08   10.90
  16 -10  -4  197.38   13.50
  16  -6   4  192.98   11.10
 -10  16   4  201.48   12.50
   7 -16   4    5.90    5.20
 -16   7  -4   11.00    7.10
   9   7   4   10.40    6.00
 -16   9   4   10.70    6.00
   9 -16  -4   13.80    7.60
  -7  16  -4   19.90    8.00
  16  -7   4   12.60    5.90
  -9  16   4   11.30    6.30
  16  -9  -4    5.20    6.80
  -9  -7  -4   11.40    6.80
  -7  -9   4   14.90    6.00
   8 -16   4   60.19    7.70
 -16   8   4   65.19    9.20
   8   8   4   57.99    7.60
 -16   8  -4   50.49    9.10
   8 -16  -4   73.69    9.90
  -8  16   4   66.79    9.40
  -8  16  -4   66.09    8.90
  -8  -8   4   75.59    8.20
  16  -8  -4   50.19    8.50
  -8  -8  -4   62.29   10.00
  16  -8   4   62.59    8.00
   7   9   4  114.09    8.80
   7 -16  -4  106.69    9.50
   9 -16   4   93.79    8.70
   7   9   4  129.49    8.50
 -16   7   4  114.69    9.30
  16  -7  -4  104.29   10.30
  -7  -9  -4  117.99   11.10
  16  -9   4  103.49    9.20
  -9  16  -4  106.29   10.20
  -7  16   4  104.39    9.40
  -9  -7   4  125.09   10.20
  -9  -7   4  123.19   12.70
   6  10   4   66.89    7.70
   6  10   4   46.70    7.30
   6 -16  -4   50.29    8.60
 -16   6   4   50.19    9.30
  10 -16   4   32.80    7.20
  10   6  -4   45.70    7.40
 -10  -6   4   42.70   10.50
 -10  16  -4   44.30    8.20
  16 -10   4   47.50    7.90
 -10  -6   4   41.90    7.50
  16 -10   4   27.50    8.90
  -6  16   4   40.00    7.40
  16  -6  -4   36.20    7.80
  -6 -10  -4   42.70    8.00
 -16   5   4   61.99    7.80
  11 -16   4   55.79    8.20
   5 -16  -4   84.29    9.60
   5  11   4   85.29    8.80
   5  11   4   69.19    9.10
 -16   5   4   64.49    8.60
  16 -11   4   65.19   10.40
 -11  16  -4   75.39   10.20
  16  -5  -4   69.79   10.50
  16 -11   4   75.29    9.60
  -5  16   4   70.19    8.70
 -11  -5   4   64.99   10.80
  -5 -11  -4   57.29    9.30
 -11  -5   4   64.09    8.30
   4  12   4  150.28   10.40
 -16   4   4   90.69    9.40
  12 -16   4  124.79    8.60
 -16   4   4  109.39    9.90
  12   4  -4  115.19    9.60
  12 -16   4  118.59    9.80
   4  12   4  111.89    9.50
  16 -12   4  129.79    9.60
 -12  -4   4  109.79   10.40
  16  -4  -4  118.29   10.50
  -4  16   4  119.39    9.80
  16 -12   4  110.79   11.70
 -12  16  -4  114.39   11.10
  -4 -12  -4  119.59   11.30
 -12  -4   4  116.79   11.90
  13 -16   4    5.50    6.60
  13   3  -4   19.40    6.60
 -16  13  -4   15.10    6.10
 -16   3   4    7.20    6.20
   3  13   4   31.50    6.90
 -16   3   4   15.00    7.40
   3  13   4   13.40    7.10
 -13  -3   4    8.90    6.00
  -3  16   4   21.60    6.60
  16  -3  -4    7.20    6.70
 -13  -3   4   11.80    8.50
  -3  16   4   14.40    7.50
 -13  16  -4   16.80    7.70
  16 -13   4    0.90    7.50
  -3 -13  -4    6.80    6.70
  16 -13   4   20.90    6.90
   2  14   4  258.67   14.20
  14 -16   4  247.88   13.00
  14   2  -4  248.18   13.30
 -16   2   4  248.28   14.40
 -16  14  -4  230.78   13.00
 -16   2   4  219.18   13.70
   2  14   4  231.88   13.00
   2 -16  -4  238.58   11.90
 -14  16  -4  226.28   14.30
  16 -14   4  245.78   13.30
  -2  16   4  242.08   14.70
  -2 -14  -4  231.58   12.70
 -14  -2   4  238.98   13.80
 -14  -2   4  239.88   15.50
  16  -2  -4  213.18   13.20
  -2  16   4  250.87   14.40
   1  15   4  227.78   13.90
  15 -16   4  203.38   12.50
 -16  15  -4  197.88   12.10
 -16   1   4  182.88   12.80
   1  15   4  227.98   13.30
 -16   1   4  208.98   13.10
  15 -16   4  218.58   14.30
   1 -16  -4  188.48   11.90
  15   1  -4  227.38   12.70
 -15  -1   4  202.18   13.20
  16  -1  -4  205.48   13.00
  -1  16   4  224.38   13.20
 -15  16  -4  206.88   13.00
  16 -15   4  207.38   13.70
  16 -15   4  219.18   12.60
  -1  16   4  211.48   14.20
 -15  -1   4  219.08   14.70
  -1 -15  -4  192.28   12.50
  16 -16   4   15.30    6.80
  16   0  -4    0.80    6.40
   0  16   4    9.40    8.40
 -16   0   4  -14.50    6.40
   0 -16  -4    1.40    6.30
 -16  16  -4    9.30    7.30
   0  16   4   11.10    8.10
  16 -16   4    0.90    7.00
 -16   0   4    8.30    7.70
 -17   0  -4   14.60    8.10
 -17  17   4   23.30    7.70
  17 -17  -4   17.60    7.70
   0  17  -4   19.40    7.80
  17   0   4   23.70    7.00
   0 -17   4   17.20    6.20
  16   1   4   30.70    7.50
   1  16  -4   38.70    8.00
 -17   1  -4   22.10    8.20
  16 -17  -4   32.90    8.00
   1 -17   4   22.50    6.20
 -17  16   4   33.00    8.20
 -16  -1  -4   30.10    8.60
  17 -16  -4   24.40    8.80
  -1  17  -4   30.20    7.80
  -1 -16   4   23.70    6.40
 -16  17   4   33.80    8.00
  17  -1   4   19.50    6.50
   2 -17   4    6.10    5.50
  15 -17  -4   16.00    8.30
  15   2   4   17.90    6.00
 -17   2  -4   18.30    7.90
 -17  15   4    8.80    6.60
   2  15  -4   28.40    7.80
  17 -15  -4   23.80    7.60
  -2 -15   4   11.30    6.00
 -15  -2  -4   19.20    8.20
  -2  17  -4   22.70    7.60
  17  -2   4   19.10    6.80
 -15  17   4   18.20    6.80
 -17  14   4   39.30    7.80
  14 -17  -4   39.30    8.20
  14   3   4   36.50    7.50
   3  14  -4   38.30    8.00
 -17   3  -4   31.80    8.10
   3 -17   4   38.10    6.60
  -3 -14   4   30.40    6.60
  -3  17  -4   48.60    9.00
  17  -3   4   44.60    7.80
  17 -14  -4   41.00    8.60
 -14  17   4   41.10    7.70
 -14  -3  -4   53.39    9.70
   4 -17   4   96.79    8.40
  13 -17  -4   97.59    9.90
 -17  13   4   74.29    9.60
  13   4   4   84.39    8.40
   4  13  -4   95.09    9.80
 -17   4  -4   86.39    9.90
  -4  17  -4   84.79   11.40
  17  -4   4  105.89    9.70
  -4 -13   4   82.79    8.80
 -13  17   4   92.69    9.30
  17 -13  -4   79.09   10.50
 -13  -4  -4   87.39   10.10
   5 -17   4  134.69   10.00
 -17  12   4  172.78   11.50
 -17   5  -4  163.78   11.40
  12   5   4  152.28   14.00
  12 -17  -4  172.38   12.70
  -5  17  -4  151.08   11.60
 -12  -5  -4  160.68   11.50
  17 -12  -4  143.49   18.10
  -5 -12   4  144.89   10.30
 -12  17   4  156.98   10.90
  11   6   4    3.00    5.70
   6  11  -4   15.30    8.20
 -17  11   4    6.10    6.10
  11 -17  -4    7.00    6.80
 -11  -6  -4   12.20    7.10
  17  -6   4    7.10    5.80
  -6  17  -4    8.90    7.30
  -6 -11   4    6.10    5.90
  17 -11  -4    7.40    8.50
 -17   7  -4  118.49   16.80
  10   7   4  159.78   10.80
  10 -17  -4  175.98   12.30
   7 -17   4  122.29   10.70
   7  10  -4  147.59   11.00
 -17  10   4  155.78   10.60
  17 -10  -4  159.98   11.80
  17  -7   4  155.58   10.50
  -7  17  -4  170.38   12.50
 -10  17   4  170.08   12.20
  -7 -10   4  166.38   10.50
 -10  -7  -4  159.98   11.40
 -17   8  -4  135.79   12.80
   9 -17  -4  157.08   11.10
   9   8   4  154.78   10.90
 -17   9   4  166.18   11.40
   8 -17   4  128.29    9.80
  17  -8   4  153.28   10.50
  17  -9  -4  180.98   13.40
  -9  17   4  170.08   11.90
  -8  17  -4  176.58   11.80
  -9  -8  -4  155.78   12.20
  -8  -9   4  163.08   11.50
 -17   9  -4    4.30    7.30
   9 -17   4    3.50    5.60
 -17   8   4    9.80    6.00
   8 -17  -4    0.00    6.60
   8   9   4    1.00    6.20
  -8  17   4   15.30    6.50
  -9  -8   4    9.50    5.80
  -8  -9  -4   11.00    7.20
  17  -9   4    9.20    6.10
  17  -8  -4   18.30    7.50
  -9  17  -4    8.30    8.00
   7  10   4   46.40    7.60
   7 -17  -4   53.79    8.70
  10 -17   4   42.70    7.60
 -17   7   4   56.39    9.30
  -7 -10  -4   40.00    7.80
  17  -7  -4   45.40    8.40
 -10  -7   4   55.79   11.00
  17 -10   4   50.99    8.30
 -10  -7   4   46.50    8.00
 -10  17  -4   54.59    9.20
  -7  17   4   46.10    8.30
 -17   6   4  120.89   10.10
   6  11   4  119.59    9.50
   6 -17  -4  134.19   10.80
   6  11   4  141.39   10.20
  11 -17   4  100.39   14.10
 -11  -6   4  142.39   14.60
  -6 -11  -4  128.79   11.10
  17  -6  -4  133.09   12.00
 -11  17  -4  123.99   10.60
  -6  17   4  131.79   10.40
  17 -11   4  121.69    9.80
 -11  -6   4  132.79   11.00
   5  12   4   63.19    9.40
 -17   5   4   55.19    9.80
 -17   5   4   47.80    8.50
   5 -17  -4   66.19    9.40
  12   5  -4   64.59    7.90
 -12  17  -4   81.39   11.00
 -12  -5   4   63.69   12.00
  17  -5  -4   64.09    9.50
  17 -12   4   72.29   12.60
 -12  -5   4   53.09    8.40
  -5  17   4   67.59    8.80
  17 -12   4   89.79    9.90
  -5 -12  -4   58.19    8.40
  13   4  -4   89.99    9.80
 -17   4   4   73.09    9.30
 -17   4   4  103.39    9.80
   4  13   4  102.19    9.60
  13 -17   4   76.09    9.40
  13 -17   4  134.09    9.20
   4  13   4  124.69   10.20
 -13  -4   4   94.79   10.40
  -4  17   4  114.29   10.10
 -13  17  -4  106.39   11.50
  -4 -13  -4   92.19    9.30
  17 -13   4   99.39   13.00
  17 -13   4  110.39    9.60
 -13  -4   4   79.89   12.00
  17  -4  -4  103.79   11.30
  14 -17   4  155.68   10.30
  14 -17   4  134.39   11.80
   3  14   4  126.89   11.50
  14   3  -4  158.78   10.80
   3  14   4  145.39   11.50
 -17   3   4  112.19   10.60
 -17   3   4   94.69   11.00
  -3  17   4  147.29   11.30
 -14  17  -4  130.39   11.90
 -14  -3   4  135.19   10.50
  17 -14   4  113.99   12.10
  -3 -14  -4  127.09   10.30
  17  -3  -4  121.59   12.00
 -14  -3   4  131.69   12.30
  17 -14   4  156.28   11.50
  -3  17   4  117.09   11.20
   2  15   4    6.90    7.70
   2  15   4   10.60    7.20
  15   2  -4    8.10    6.70
  15 -17   4    0.70    6.90
 -17   2   4    0.20    7.20
  15 -17   4   20.80    7.30
 -17   2   4    2.30    8.20
 -15  -2   4    0.20    8.80
  -2 -15  -4   -0.70    6.80
  17 -15   4   23.30    7.70
 -15  -2   4    8.40    7.30
  17  -2  -4    7.60    7.60
  -2  17   4    1.60    7.90
  -2  17   4   -4.00    7.70
 -15  17  -4    5.70    7.70
  17 -15   4    3.40    7.80
 -17   1   4  125.19   11.70
  16   1  -4  141.19   11.20
   1  16   4  166.48   13.00
   1 -17  -4  147.49   10.50
 -17   1   4   93.19   11.20
 -17  16  -4  130.59   11.50
  16 -17   4  156.18   11.10
  16 -17   4  117.09   11.40
  17  -1  -4  128.49   11.50
 -16  17  -4  138.99   11.60
  17 -16   4  125.89   12.00
  17 -16   4  167.78   11.80
  -1  17   4  138.39   11.60
  -1 -16  -4  106.19   10.60
 -16  -1   4  126.99   14.60
   0  17   4   95.29   10.50
 -17  17  -4   93.39   11.40
   0 -17  -4   70.39    9.40
   0  17   4   84.99   11.80
  17 -17   4   89.69   10.70
  17   0  -4   92.29   10.90
 -17   0   4   76.29   10.70
  18   0   4   13.40    6.70
   0  18  -4   22.00    7.80
   0 -18   4   17.20    6.00
 -18   0  -4   17.20    8.30
  18 -18  -4    7.00    8.50
 -18  18   4   16.90    7.10
   1 -18   4   -1.30    5.30
 -18  17   4   10.60    6.80
  17   1   4    3.70    5.90
 -18   1  -4    7.50    7.80
   1  17  -4    1.70    7.00
  17 -18  -4    3.20    7.20
  -1 -17   4   -1.00    5.50
  18 -17  -4    1.30    7.50
  18  -1   4   -6.00    5.60
  -1  18  -4    8.00    8.10
 -17  -1  -4    8.30    7.90
 -17  18   4    7.50    6.50
  16   2   4   17.40    6.30
 -18   2  -4   10.50    8.00
   2  16  -4    9.90    7.10
   2 -18   4    6.60    5.50
  16 -18  -4    9.30    7.40
 -18  16   4   18.50    7.10
 -16  -2  -4   17.70    8.10
 -16  18   4   15.20    6.80
  18 -16  -4   10.50    8.70
  -2 -16   4    8.00    5.70
  -2  18  -4   14.20    7.90
  18  -2   4   10.00    6.90
  15 -18  -4   83.89   11.40
   3 -18   4   77.99    8.20
  15   3   4   75.79    8.50
 -18   3  -4   90.59   10.30
   3  15  -4   78.99   10.00
 -18  15   4   69.19    8.90
  -3 -15   4   91.79    8.60
 -15  -3  -4   69.69   10.30
  -3  18  -4   83.89   11.50
 -15  18   4   86.09    9.30
  18 -15  -4   85.49   10.30
  18  -3   4   77.19    8.60
   4 -18   4   68.29    7.70
 -18  14   4   61.89    9.70
 -18   4  -4   66.59    9.90
  14 -18  -4   64.79    9.50
  14   4   4   51.29    7.90
   4  14  -4   56.19    9.20
 -14  -4  -4   71.09   11.40
  -4  18  -4   65.79    9.70
 -14  18   4   66.89    8.80
  18  -4   4   71.89    9.40
  18 -14  -4   83.09    9.90
  -4 -14   4   60.59    8.00
   5 -18   4   16.30    6.00
 -18   5  -4   18.50    7.70
  13   5   4   25.10    7.00
  13 -18  -4   19.90    7.60
 -18  13   4   13.70    6.60
   5  13  -4   24.70    7.60
  18 -13  -4   23.30    8.00
 -13  -5  -4   17.70    7.90
 -13  18   4   29.50    7.80
  -5  18  -4   20.50    7.80
  18  -5   4   24.80    6.70
  -5 -13   4   15.60    6.20
  12 -18  -4  169.08   11.50
 -18   6  -4  152.28   11.50
   6  12  -4  162.58   12.60
  12   6   4  160.28   10.40
   6 -18   4  159.28   10.30
  -6  18  -4  175.18   12.20
 -12  18   4  166.58   11.30
  18 -12  -4  155.18   12.20
  18  -6   4  161.28   11.00
 -12  -6  -4  174.88   18.00
  -6 -12   4  159.88   10.60
  11 -18  -4  199.88   14.80
  11   7   4  209.98   11.70
 -18  11   4  230.58   13.20
 -18   7  -4  231.08   13.90
   7  11  -4  214.58   12.90
 -11  -7  -4  222.28   13.30
 -11  18   4  213.98   12.70
  -7 -11   4  206.88   16.20
  18  -7   4  219.68   12.40
  18 -11  -4  238.18   14.90
 -18   8  -4   13.90    7.30
 -18  10   4    1.10    6.00
   8 -18   4    0.60    5.40
   8  10  -4   -0.20    6.20
  18  -8   4   11.00   11.30
 -10  18   4   -1.30    6.00
  -8  18  -4    2.40    7.50
 -10  -8  -4   13.90    8.20
  -8 -10   4    2.50    6.90
  18 -10  -4    3.80    8.00
 -18   9   4  123.89    9.90
   9 -18   4  122.79    9.40
   9 -18  -4  103.59   10.30
 -18   9  -4  114.69   10.60
  -9  18   4  124.49   10.00
  -9  18  -4  112.49   12.20
  18  -9   4  117.39   15.00
  -9  -9  -4  121.09   10.50
  -9  -9   4  106.29    9.70
   8 -18  -4  128.49   11.60
 -18   8   4  122.49   10.00
   8  10   4  121.19   11.00
  10 -18   4  122.89    9.60
 -18  10  -4  117.29   10.60
 -10  18  -4  121.19   11.10
  -8  18   4  125.19   10.20
  18  -8  -4  123.59   13.40
  18 -10   4  134.89   11.50
  -8 -10  -4  122.29   10.30
 -10  -8   4  126.99   11.00
 -18   7   4   47.70    8.60
   7  11   4   72.19    8.70
   7  11   4   42.60    8.00
   7 -18  -4   45.90    8.30
  11 -18   4   40.80    7.60
  18 -11   4   48.70    8.50
  -7 -11  -4   38.80    7.70
  -7  18   4   39.30    7.90
 -11  -7   4   21.90   17.20
 -11  18  -4   43.60    8.70
  18  -7  -4   56.39    9.70
 -11  -7   4   54.29    8.40
   6  12   4   27.70    7.20
  12 -18   4   33.80    7.30
 -18   6   4   26.80    7.50
   6 -18  -4   37.20    8.90
  18  -6  -4   30.30    8.90
  -6 -12  -4   22.20    7.30
 -12  18  -4   37.90    9.20
  18 -12   4   31.80    9.70
  -6  18   4   26.90    7.50
 -12  -6   4   23.20    7.30
  18 -12   4   35.40    7.50
 -12  -6   4   22.90   17.10
 -18   5   4   61.89    8.90
   5 -18  -4   82.49    9.90
  13 -18   4   53.39    8.60
 -18   5   4   73.29   10.30
   5  13   4   83.29   10.10
   5  13   4   67.79    9.90
  -5  18   4   51.79    9.00
  18 -13   4   79.79   10.40
 -13  18  -4   57.59    9.80
  18  -5  -4   56.29    9.30
  -5 -13  -4   63.59   10.00
 -13  -5   4   70.29    9.00
  18 -13   4   72.39   11.00
  14 -18   4   24.00    7.50
   4  14   4   37.20    8.50
   4 -18  -4   28.20   14.10
  14   4  -4   54.39    8.60
 -18   4   4   27.00    8.80
 -14  -4   4   36.40    8.40
 -14  18  -4   30.50    9.40
  -4 -14  -4   26.70    7.90
  18 -14   4   28.20    8.90
  18  -4  -4   31.20    8.90
  -4  18   4   23.50    8.00
  18 -14   4   35.20    8.30
 -18   3   4   65.09    9.50
  15 -18   4   95.79    9.40
 -18   3   4   42.40    8.40
   3  15   4   65.19   10.30
  15 -18   4   62.89    9.50
  15   3  -4   58.09    8.80
   3  15   4   34.10    9.60
 -15  18  -4   65.89   10.60
  -3  18   4   60.49   10.90
 -15  -3   4   75.19   10.30
  18  -3  -4   65.99   10.60
  18 -15   4   95.59   10.80
 -15  -3   4   64.99   13.20
  -3 -15  -4   52.19    9.40
  18 -15   4   63.29   11.00
  16 -18   4   56.19    9.50
  16   2  -4   55.19    9.20
 -18   2   4   37.30    8.80
   2  16   4   70.59   11.00
   2  16   4   50.89    8.80
 -16  18  -4   62.49   10.50
 -16  -2   4   64.49    9.30
  18 -16   4   78.89   11.10
  -2  18   4   63.79   10.80
 -16  -2   4   74.99   11.10
  -2 -16  -4   54.99    9.40
  18 -16   4  100.29   10.80
  -2  18   4   35.10    8.40
  18  -2  -4   66.29   10.60
   1  17   4   -1.40    7.60
  17 -18   4   22.60    7.50
   1  17   4  -15.10    8.00
  17 -18   4    3.30    7.90
  17   1  -4    2.00    7.80
 -18   1   4  -17.10    6.80
 -18   1   4    2.90    8.60
 -17  -1   4  -16.10    6.30
  18 -17   4   15.30    7.90
  -1  18   4    1.40    8.70
 -17  -1   4    6.00    9.40
  -1 -17  -4    2.90    6.80
  18  -1  -4    1.80    7.80
  18 -17   4   10.60    7.60
 -17  18  -4    6.40    7.70
  18   0  -4   45.20    8.70
 -18  18  -4   62.69   11.20
 -18   0   4   33.90    9.90
   0  18   4   36.60    9.90
   0 -18  -4   33.20    7.90
  18 -18   4   30.70    9.30
  19   0   4    0.70    5.70
 -19   0  -4   -2.80    7.50
   0 -19   4    0.50    6.20
  19 -19  -4   -6.90    7.90
 -19  19   4   -0.20    6.60
   0  19  -4   -0.50    7.90
   1 -19   4    8.00    5.60
  18   1   4   18.00    7.40
  18 -19  -4   10.70    7.60
 -19   1  -4   12.10    8.50
   1  18  -4   17.30    7.70
 -19  18   4    8.50    7.10
  -1  19  -4    4.10    7.40
  19 -18  -4   10.10    7.60
 -18  19   4    9.20    6.80
 -18  -1  -4   12.70    8.80
  19  -1   4   11.30    6.40
  -1 -18   4   13.10    6.50
   2  17  -4   27.00    7.80
 -19  17   4   26.30    7.50
 -19   2  -4   26.60    8.80
   2 -19   4   24.40    6.20
  17 -19  -4   28.70    8.90
  17   2   4   27.40    6.60
 -17  -2  -4   32.00    8.50
  -2  19  -4   26.50    7.90
  19  -2   4   32.10    7.60
 -17  19   4   28.50    7.40
  19 -17  -4   23.20    8.90
  -2 -17   4   24.00    7.00
   3  16  -4   33.00    8.70
 -19   3  -4   32.70    8.50
 -19  16   4   34.60    7.50
  16   3   4   32.60    6.80
  16 -19  -4   29.30    8.00
   3 -19   4   33.40    6.60
 -16  -3  -4   28.80    8.60
  -3  19  -4   39.30    8.50
  19  -3   4   25.50    6.80
  19 -16  -4   23.80    8.20
  -3 -16   4   26.80    7.20
 -16  19   4   25.90    7.30
  15 -19  -4   13.30    8.40
   4  15  -4   14.10    7.50
  15   4   4    9.80    6.40
 -19   4  -4   20.00    8.60
   4 -19   4    4.50    5.40
 -19  15   4   16.30    6.90
  -4  19  -4   10.40    7.70
 -15  19   4   22.00    7.80
  19  -4   4   15.00    6.80
  19 -15  -4   11.30    8.10
  -4 -15   4   16.20    6.10
 -15  -4  -4   13.20    7.90
 -19  14   4  116.09    9.80
  14 -19  -4  113.19   10.70
   5 -19   4  120.99   10.00
   5  14  -4  105.89   10.40
  14   5   4  115.79    9.30
 -19   5  -4  121.39   11.10
 -14  -5  -4  107.09   11.00
 -14  19   4  120.19    9.90
  -5 -14   4  111.99    9.40
  19 -14  -4  110.29   11.20
  -5  19  -4  116.49   11.30
  19  -5   4  115.49    9.80
  13   6   4  153.88   11.10
 -19  13   4  165.08   12.00
   6 -19   4  152.38   10.30
  13 -19  -4  146.49   11.50
 -19   6  -4  148.09   11.70
   6  13  -4  138.29   11.50
  -6  19  -4  156.28   12.20
  19 -13  -4  147.49   12.10
  -6 -13   4  153.78   10.50
  19  -6   4  152.68   10.90
 -13  19   4  158.88   11.30
 -13  -6  -4  186.28   13.60
   7 -19   4   -2.10    5.10
  12   7   4    3.80    5.90
  12 -19  -4    9.40    7.80
   7  12  -4    5.90    6.60
 -19  12   4   -4.40    6.10
 -19   7  -4    8.40    7.50
  -7  19  -4    6.90    8.10
  19 -12  -4   -1.70    7.50
  -7 -12   4    0.40    6.20
 -12  -7  -4    6.50    8.30
 -12  19   4   10.30    7.20
  19  -7   4    5.70    6.20
 -19  11   4  166.58   11.80
   8 -19   4  188.58   11.20
  11   8   4  203.88   12.10
 -19   8  -4  178.28   12.30
  11 -19  -4  187.68   12.20
   8  11  -4  173.08   12.00
  19 -11  -4  206.88   14.10
 -11  -8  -4  182.48   15.60
  19  -8   4  209.38   12.90
 -11  19   4  184.08   11.90
  -8 -11   4  186.88   11.70
  -8  19  -4  217.08   14.50
  10   9   4  179.78   11.80
   9  10  -4  177.88   12.70
 -19   9  -4  168.98   11.90
  10 -19  -4  183.68   13.30
   9 -19   4  155.18   10.60
  -9 -10   4  162.78   12.10
  19  -9   4  173.48   12.50
 -10  -9  -4  139.29   11.70
 -10  19   4  174.28   11.50
  -9  19  -4  155.28   12.40
  19 -10  -4  165.58   12.30
   9  10   4   31.20    7.60
  10   9  -4   24.70    7.50
  10 -19   4   20.00    6.30
 -19  10  -4   16.60    7.60
   9 -19  -4   18.90    7.70
  19 -10   4   25.30    8.20
  -9 -10  -4   25.20    8.50
 -10  -9   4   15.70    6.90
  -9  19   4   19.20    6.50
  19  -9  -4   22.30    8.20
   8 -19  -4   18.80    8.60
  11 -19   4    9.10    7.00
 -19   8   4   -0.70   13.00
   8  11   4   16.30    7.30
 -19  11  -4   11.90    7.70
 -11  19  -4   24.20    9.40
 -11  -8   4   11.90    6.60
  19  -8  -4   16.70    9.00
  -8 -11  -4   10.60    8.00
  -8  19   4   10.30    6.70
  19 -11   4   12.30    6.70
   7  12   4   47.40    8.30
   7  12   4   42.10    7.70
  12 -19   4   31.80    7.80
 -19   7   4   24.00   12.50
   7 -19  -4   34.80    8.30
  19 -12   4   32.10    7.60
  -7  19   4   32.80    7.50
  -7 -12  -4   27.70    8.20
  19  -7  -4   34.70    9.40
 -12  19  -4   40.80   10.10
  13 -19   4   21.00    7.10
   6  13   4   39.10    7.70
   6  13   4   30.30    7.30
   6 -19  -4   37.40    9.00
 -13  -6   4   31.40   11.30
  -6  19   4   19.80    7.10
  -6 -13  -4   21.50    8.20
 -13  19  -4   25.70    9.30
  19  -6  -4   32.50    8.80
   5 -19  -4   31.00    9.20
  14 -19   4   23.80    7.20
 -19   5   4    3.80    7.60
   5  14   4   26.30    7.60
  19 -14   4   23.90    9.80
  -5 -14  -4   23.50    7.10
 -14  -5   4   30.50   10.30
  19  -5  -4   22.80   10.10
  -5  19   4   26.90    8.60
 -14  19  -4   37.50    9.70
 -14  -5   4   26.70   12.60
  15 -19   4   40.40    8.10
   4 -19  -4   38.90    8.60
   4  15   4   40.30    8.90
 -19   4   4   32.80    9.10
  19  -4  -4   26.80   13.80
  19 -15   4   50.09   10.60
 -15  19  -4   32.20    9.00
  -4  19   4   28.10    8.80
 -15  -4   4   31.60   11.50
  19 -15   4   31.80    9.10
 -15  -4   4   37.50   12.30
  -4 -15  -4   35.00    8.10
   3  16   4    2.60    7.20
 -19   3   4  -15.00    7.10
  16   3  -4   15.70    6.80
  16 -19   4    2.10    6.90
 -19   3   4   -4.80    8.00
  16 -19   4   29.10    8.40
  19 -16   4   25.00    8.70
  19 -16   4    4.20    8.20
 -16  -3   4    2.10   10.40
  -3  19   4   -5.20    7.00
 -16  -3   4  -17.70   12.10
  -3 -16  -4   -3.80    7.10
 -16  19  -4    4.60    8.20
   2  17   4   20.60    9.10
 -19   2   4   24.60    8.70
 -19   2   4   -9.00    7.90
   2  17   4   11.00    9.20
  17   2  -4   24.30    7.50
  17 -19   4   10.10    7.50
  -2 -17  -4    8.00    7.80
  19 -17   4   42.10    9.50
 -17  -2   4  -23.90   12.50
  -2  19   4  -13.20    7.80
 -17  19  -4   23.30    8.70
  19 -17   4   18.20    9.30
 -17  -2   4   15.60   10.00
   1  18   4  -15.20    8.50
   1  18   4    6.50    8.60
  18 -19   4    8.40    7.50
 -19   1   4    1.50    9.60
  18   1  -4   13.60    8.00
 -18  -1   4    3.40   10.10
  19 -18   4    2.30    7.70
  -1  19   4  -19.90    7.40
  -1 -18  -4  -16.70    7.00
 -18  19  -4   24.80    8.60
  19 -18   4   35.50    9.60
  -1  19   4   -5.40    8.00
  19 -19   4   46.70   10.10
  19 -19   4   11.10    7.90
   0  19   4   -7.90    7.50
  19   0  -4   -9.60   13.50
   0  19   4    9.10    9.50
 -19   0   4    0.70    8.50
  20   0   4    8.20    6.50
  20 -20  -4    4.50    7.90
   0 -20   4    7.80    6.10
   0  20  -4    7.40    8.00
 -20   0  -4   19.20    8.30
 -20  20   4   10.00    8.00
 -20   1  -4    2.60    8.20
  19 -20  -4   -6.70    7.40
   1  19  -4    2.80    8.30
 -20  19   4    3.20    6.70
  19   1   4    5.30    7.20
   1 -20   4    7.80    6.10
 -19  -1  -4   10.40    9.00
 -19  20   4   10.10    7.60
  20  -1   4   -3.60    6.80
  -1 -19   4   -4.00    5.60
  -1  20  -4    5.10    7.90
  20 -19  -4   -1.20    7.80
   2  18  -4    2.00    7.30
   2 -20   4    1.50    5.40
 -20   2  -4    6.60    8.20
  18   2   4    1.70    6.00
  18 -20  -4    7.40    7.70
 -20  18   4   11.40    7.00
  20 -18  -4    1.80    8.70
 -18  -2  -4   22.80    9.10
  20  -2   4   -3.10    5.90
 -18  20   4    7.70    7.60
  -2 -18   4    1.90    5.80
  -2  20  -4   14.40    8.10
   3 -20   4    5.50    5.70
   3  17  -4   10.60    7.30
  17 -20  -4    8.10    8.40
 -20   3  -4    9.60    8.90
  17   3   4    1.40    6.20
 -20  17   4    8.70    7.00
  20 -17  -4    1.20    7.80
 -17  20   4    6.80    6.50
  -3 -17   4    7.70    5.90
 -17  -3  -4   11.90    8.70
  -3  20  -4    5.90    7.80
  20  -3   4   10.10    6.30
  16   4   4   70.89    8.60
  16 -20  -4   69.59    9.90
   4  16  -4   77.19   11.00
   4 -20   4   72.69    8.10
 -20  16   4   72.49    9.10
 -20   4  -4   76.69   10.20
 -16  -4  -4   84.89   10.50
 -16  20   4   75.19    9.00
  20  -4   4   72.79    8.50
  20 -16  -4   68.09   10.30
  -4  20  -4   60.99   10.10
  -4 -16   4   69.19    8.40
   5 -20   4   73.09    8.10
  15   5   4   75.59    8.50
 -20   5  -4   72.99   10.00
 -20  15   4   85.19   10.30
   5  15  -4   74.39    9.90
  15 -20  -4   79.29   11.50
 -15  20   4   73.39    9.00
  -5 -15   4   75.79    8.70
  20 -15  -4   78.19   10.40
  -5  20  -4   77.59   10.60
 -15  -5  -4   83.39   10.40
  20  -5   4   77.59   10.00
 -20  14   4   11.70    7.10
   6  14  -4    9.70    7.20
 -20   6  -4    6.70    8.70
  14   6   4    6.00    6.00
   6 -20   4    8.30    5.70
  14 -20  -4   -1.60    7.10
 -14  20   4   17.00    6.80
  20 -14  -4    6.20    8.60
  -6 -14   4    7.80    5.90
 -14  -6  -4   23.90    8.10
  -6  20  -4    4.60    8.00
  20  -6   4    7.40    6.20
 -20  13   4  147.89   10.70
   7  13  -4  139.39   11.30
  13   7   4  135.19   10.80
   7 -20   4  120.29    9.60
 -20   7  -4  138.49   11.50
  13 -20  -4  153.28   12.60
  -7  20  -4  137.79   11.80
  -7 -13   4  146.19   11.30
 -13  20   4  123.79   10.40
  20  -7   4  142.09   10.80
  20 -13  -4  133.39   11.70
 -13  -7  -4  137.49   11.50
 -20  12   4  192.18   12.60
   8  12  -4  177.78   12.90
   8 -20   4  185.38   11.70
 -20   8  -4  148.79   12.00
  12 -20  -4  157.08   11.70
  12   8   4  170.28   10.80
 -12  -8  -4  182.88   13.50
  -8 -12   4  172.98   11.20
  -8  20  -4  173.58   12.80
 -12  20   4  164.58   11.30
  20  -8   4  174.58   11.50
  20 -12  -4  167.88   12.60
  11 -20  -4   18.20    8.40
   9 -20   4   15.10    6.10
 -20  11   4    8.80    7.70
   9  11  -4   17.90    8.10
 -20   9  -4   13.80    7.50
  11   9   4   21.50    7.20
  20  -9   4    5.30    7.10
 -11  -9  -4    6.30    7.60
 -11  20   4   13.50    6.60
  -9 -11   4   13.90    6.70
  20 -11  -4    7.00    8.80
  -9  20  -4   16.90    9.10
  10 -20  -4   87.09   10.40
  10  10   4   86.99   10.00
  10  10  -4   92.89   11.00
 -20  10  -4   86.59   10.10
  10 -20   4   82.79    8.70
 -20  10   4   89.19   10.50
 -10  20  -4   83.09   11.10
 -10 -10   4   94.69   10.40
  20 -10   4   81.29    9.70
 -10 -10  -4   74.69   10.00
 -10  20   4   87.39    9.40
  20 -10  -4   86.59   10.80
  11   9  -4   58.59    9.00
 -20  11  -4   36.30    8.40
   9 -20  -4   51.89    9.50
  11 -20   4   46.30    8.00
   9  11   4   56.49    9.20
 -20   9   4   48.10    8.70
  -9 -11  -4   45.20    8.80
 -11  -9   4   40.90    7.80
  20  -9  -4   41.80    9.20
  20 -11   4   52.69    8.80
  -9  20   4   42.10    8.60
 -11  20  -4   53.19   10.30
   8  12   4   32.00    7.90
 -20  12  -4   18.70    7.70
 -20   8   4   21.20    7.60
  12   8  -4   17.70    7.50
  12 -20   4   24.90    7.60
   8 -20  -4   10.00    8.40
  -8  20   4   20.10    7.70
  20  -8  -4    0.20    8.50
 -12  -8   4   15.60    7.90
  20 -12   4   16.20    7.20
 -12  20  -4   21.10    9.90
 -20  13  -4   12.40    7.80
   7 -20  -4    4.00    7.30
  13 -20   4    5.90    7.00
   7  13   4   -1.40    6.90
 -20   7   4   -9.00    7.60
  -7  20   4    3.40    6.80
  20 -13   4   13.90    8.00
  20  -7  -4  -11.40    8.50
  -7 -13  -4   -6.40    7.90
 -13  -7   4   -6.20    6.50
 -13  20  -4    0.80    9.40
   6 -20  -4    7.60    8.20
   6  14   4   -6.00    6.70
 -20   6   4    1.60    6.80
  14 -20   4    4.70    7.00
   6  14   4   -5.70    6.10
  -6 -14  -4   -5.90    7.20
  20  -6  -4   -0.80    7.50
  -6  20   4  -10.30    6.90
 -14  -6   4   -5.50    7.00
  20 -14   4    3.00    7.00
   5  15   4    1.00    8.60
   5  15   4   11.40    7.00
 -20   5   4   13.90    8.70
  15 -20   4   11.70    7.50
   5 -20  -4   15.10    9.10
  20  -5  -4    6.10    8.50
  -5 -15  -4    4.10    7.40
 -15  -5   4   -0.30    7.40
 -15  20  -4    7.30    8.50
 -15  -5   4    7.50   10.80
  -5  20   4   -7.70    6.90
  20 -15   4   17.60    8.80
  20 -15   4   11.40    8.60
   4 -20  -4   23.20    9.50
   4  16   4   19.20    8.40
 -20   4   4    2.60    7.60
  16 -20   4   13.20    7.70
   4  16   4    0.30    8.90
 -20   4   4  -11.40    7.80
  20  -4  -4    4.00    7.40
  20 -16   4   27.60    8.70
 -16  -4   4    3.20    7.60
  -4  20   4   -6.30    6.70
  -4 -16  -4    8.60    6.90
 -16  -4   4    4.50   10.30
  20 -16   4    9.20    8.30
 -16  20  -4   10.30    8.60
  17 -20   4    7.60    7.90
  17 -20   4   43.80   16.60
   3  17   4    0.80    9.80
 -20   3   4   -3.50    9.10
 -20   3   4  -17.20    7.90
   3 -20  -4   13.80    9.00
  17   3  -4   18.80    7.90
   3  17   4   -3.30    8.00
  20  -3  -4    2.80    8.50
 -17  20  -4   -0.20    8.40
  20 -17   4   12.30    7.90
  -3 -17  -4  -11.20    7.60
  20 -17   4   -6.90    9.00
 -17  -3   4   -6.30   10.70
   2  18   4   -5.80    8.70
  18 -20   4   15.00    8.20
   2  18   4    4.90    9.30
 -20   2   4   22.90    9.40
 -18  -2   4   -3.70    9.50
  20  -2  -4   13.40    8.30
  20 -18   4   25.40    9.70
  -2 -18  -4   -8.60    7.90
  -2  20   4  -11.00    8.10
  20 -18   4    7.00    8.40
 -18  20  -4    7.30    8.50
  19 -20   4   13.60    8.90
   1  19   4   20.50    9.00
 -20   1   4   -0.30   10.20
 -20   1   4   -5.30    8.70
   1  19   4   27.20   10.20
  19   1  -4   44.00   14.00
 -19  -1   4   17.20   11.50
  -1 -19  -4    0.90    7.50
  20  -1  -4   -2.00    8.90
  -1  20   4   -0.60    7.70
  20 -19   4   12.70    8.70
  20   0  -4   11.90    8.30
   0  20   4   -2.20    8.10
  20 -20   4   -4.30    8.80
 -20   0   4  -10.70    8.00
  20 -20   4   38.40   10.40
 -20   0   4  -11.70   10.70
   0  20   4  -15.10    9.20
 -21  19   4    5.60    8.00
  19 -21  -4   -4.00    8.20
   2  19  -4    5.40    8.40
   2 -21   4    5.30    5.50
  19   2   4    4.90    7.10
 -21   2  -4    5.00    8.10
  21 -19  -4    3.60    8.80
 -19  21   4    3.50    7.10
  21  -2   4    2.40    6.30
  -2  21  -4    1.20    7.90
  -2 -19   4    5.60    6.60
 -19  -2  -4    8.30    8.40
  18   3   4   23.30    7.30
 -21   3  -4   31.30    8.90
  18 -21  -4    4.40    7.80
   3 -21   4   20.10    7.00
 -21  18   4   21.10    8.50
   3  18  -4   11.70    7.60
  21  -3   4   23.00    7.70
 -18  -3  -4   19.90    8.40
  -3  21  -4   26.40    8.80
  21 -18  -4   20.90    8.40
 -18  21   4   18.70    7.10
  -3 -18   4   29.30    7.40
   4 -21   4   49.00    7.50
  17   4   4   44.80    7.90
 -21   4  -4   41.10    9.20
   4  17  -4   41.30    8.50
  17 -21  -4   40.10    9.50
 -21  17   4   49.90    9.30
 -17  -4  -4   54.59   10.20
  21 -17  -4   31.80    8.40
  -4 -17   4   49.70    7.80
  21  -4   4   33.00    7.20
  -4  21  -4   41.40    9.20
 -17  21   4   41.10    8.80
  16 -21  -4    4.10    7.50
 -21   5  -4    4.10    8.60
   5  16  -4   14.10    7.70
   5 -21   4    3.80    5.40
  16   5   4    3.20    5.90
 -21  16   4   10.60    7.60
  -5 -16   4    5.70    6.10
  21  -5   4    5.20    6.40
  21 -16  -4    1.50    8.60
 -16  21   4   14.60    6.70
  -5  21  -4   13.80    8.30
 -16  -5  -4    8.80    7.80
   6 -21   4   94.39    9.60
   6  15  -4   80.79   10.00
  15 -21  -4   90.29   11.90
 -21  15   4   69.69    9.50
  15   6   4   93.69    9.00
 -21   6  -4   87.69   10.20
  21 -15  -4   83.99   11.90
  -6  21  -4   87.09   10.80
  -6 -15   4   78.39    8.70
 -15  -6  -4   75.69   10.70
 -15  21   4   84.69    9.60
  21  -6   4   86.49   10.60
  14 -21  -4   98.59   10.70
 -21  14   4  114.29   11.10
  14   7   4  115.39    9.70
   7  14  -4  103.59   12.00
   7 -21   4   93.99    8.90
 -21   7  -4  112.49   11.10
  -7  21  -4  116.29   11.10
  21  -7   4  100.39   10.00
  -7 -14   4  107.99    9.50
  21 -14  -4  103.29   12.30
 -14  -7  -4  103.99   11.30
 -14  21   4  114.69    9.80
 -21   8  -4   -2.00    7.30
  13 -21  -4    1.30    7.10
  13   8   4    3.20    6.70
 -21  13   4    9.50    7.10
   8 -21   4   11.30    5.90
   8  13  -4   11.60    8.20
  -8  21  -4    3.90    8.00
  21 -13  -4   -5.00    8.50
  -8 -13   4    0.40    6.80
 -13  21   4    7.20    6.50
  21  -8   4    2.00    6.30
 -13  -8  -4    9.40    7.70
  12 -21  -4  102.99   11.90
   9  12  -4  114.79   11.90
  12   9   4   99.49    9.20
   9 -21   4  108.09    9.00
 -21   9  -4  107.19   10.50
 -21  12   4  101.99   10.10
  -9 -12   4  105.69    9.60
 -12  21   4  101.19   10.80
  21  -9   4  106.89   10.30
  21 -12  -4   94.59   11.30
  -9  21  -4   97.59   11.40
 -12  -9  -4  111.69   10.90
  11 -21  -4   71.59    9.80
 -21  11   4   62.79    9.00
  10  11  -4   63.49    9.60
  11  10   4   84.69    9.70
  10 -21   4   71.99    8.50
 -21  10  -4   63.49    9.70
  21 -11  -4   76.09   12.10
 -10 -11   4   56.39    8.70
  21 -10   4   63.49    9.70
 -11 -10  -4   74.89   10.00
 -10  21  -4   81.39   12.20
 -11  21   4   64.19    9.10
  11 -21   4   12.80    6.30
  11  10  -4    8.60    7.70
 -21  11  -4   15.70    7.30
  10  11   4   21.80    7.50
  10 -21  -4   21.70    8.60
 -21  10   4   10.40    7.20
  21 -10  -4    9.50    8.10
 -11 -10   4   15.40    6.90
  21 -11   4   10.50    7.10
 -10  21   4   22.90    7.10
 -10 -11  -4   10.70    8.50
 -11  21  -4   14.20    8.30
 -21  12  -4   23.40    7.80
 -21   9   4   24.50    8.40
   9  12   4   31.40    7.80
  12 -21   4   23.70    6.90
  12   9  -4   22.90    8.30
   9 -21  -4   29.10    9.00
  21 -12   4   12.90    7.00
  -9  21   4   22.60    7.10
 -12  -9   4   24.60    7.20
  -9 -12  -4   27.40    8.10
 -12  21  -4   24.10    9.90
  21  -9  -4    3.50    8.90
 -21   8   4    8.40    8.00
  13   8  -4    5.40    7.70
   8  13   4   -3.40    7.10
 -21  13  -4   -9.60    7.40
  13 -21   4    6.30    7.20
   8 -21  -4    8.10    8.10
  -8  21   4    3.50    6.30
  -8 -13  -4   -0.70    7.80
  21  -8  -4   -2.30    8.80
 -13  -8   4   -2.90    6.40
 -13  21  -4    2.60    8.40
  21 -13   4    0.90    7.70
  14 -21   4    5.00    6.90
 -21   7   4    4.90    7.00
   7 -21  -4    6.00    8.10
   7  14   4   13.50    7.90
 -21  14  -4   10.20    7.90
  21  -7  -4   -5.50    8.20
 -14  -7   4   10.10    7.70
 -14  21  -4    4.70    8.40
  21 -14   4   14.60    7.50
  -7 -14  -4    5.60    7.90
  -7  21   4   -5.20    6.40
   6 -21  -4   16.90    8.20
   6  15   4    7.00    7.10
   6  15   4   10.50    9.20
  15 -21   4    6.80    6.50
 -21   6   4    5.30    8.60
 -15  -6   4   -4.30    6.30
  -6  21   4  -12.00    6.80
  21  -6  -4    2.50    7.80
  21 -15   4   21.40    9.00
  -6 -15  -4   -0.50    6.70
 -15  21  -4    4.40    9.10
   5 -21  -4   16.80    7.80
   5  16   4   15.60    9.50
 -21   5   4   -5.10    7.30
  16 -21   4    4.20    6.60
   5  16   4    1.70    7.00
 -16  21  -4    5.10    9.00
  21 -16   4   12.80    8.10
  -5 -16  -4  -13.50    7.60
  21  -5  -4   -3.40    8.30
  21 -16   4    4.20    8.80
 -21   4   4   -5.20    9.00
   4  17   4   -6.40    8.60
  17 -21   4    0.70    6.90
   4 -21  -4   -7.50    8.10
  -4 -17  -4  -16.00    8.00
  21 -17   4    9.40    9.00
 -17  -4   4  -14.30    6.20
 -17  21  -4    3.40    9.20
 -17  -4   4    0.50   11.90
  21 -17   4    6.40    9.70
  -4  21   4  -17.00    6.50
  21  -4  -4    8.90    8.40
 -21   3   4  -13.00    8.90
   3 -21  -4   35.80    9.40
 -21   3   4    6.70    8.20
   3  18   4   30.20   10.60
  18 -21   4   27.40   12.20
  18 -21   4    4.90    7.30
   3  18   4   13.20    9.20
 -18  -3   4   -2.30   11.90
  -3  21   4    0.60    8.40
  21 -18   4   15.40    9.70
  21 -18   4   16.30    8.80
  -3 -18  -4   14.60   10.10
  21  -3  -4   20.20    8.70
  19 -21   4    1.40    7.50
   2  19   4   19.00    9.90
   2 -21  -4   28.40    9.90
 -21   2   4  -18.70    8.80
 -21   2   4   -7.40   10.80
   2  19   4    5.80    9.30
  19   2  -4   23.00   10.70
 -19  -2   4   -3.20   10.20
  21  -2  -4   -8.80    8.60
 -19  21  -4  -20.90    9.70
  -2  21   4    5.70    8.10
  21 -19   4   23.90   10.10
  21 -19   4   -4.30    8.60
 -19  -2   4  -13.90    8.10
   4 -22   4    8.70    6.50
  18   4   4  -10.50    6.30
 -22  18   4    3.90    7.90
  18 -22  -4   -2.50    7.50
   4  18  -4    1.60    8.50
 -22   4  -4    6.40    8.30
  -4 -18   4   10.00    6.10
  22 -18  -4    4.10    8.90
  -4  22  -4    6.50    8.40
  22  -4   4    0.30    6.90
 -18  -4  -4   -1.70    7.90
 -18  22   4    2.40    6.80
 -22   5  -4   40.90    9.40
  17 -22  -4   41.30    9.90
   5  17  -4   40.50    9.50
 -22  17   4   59.49    9.00
  17   5   4   45.30    8.30
   5 -22   4   44.00    7.90
  22 -17  -4   40.20    8.90
  22  -5   4   25.60    7.10
  -5  22  -4   51.69    9.70
 -17  -5  -4   40.20    9.10
  -5 -17   4   46.60    8.10
 -17  22   4   35.70    7.70
 -22   6  -4   68.19   10.30
  16 -22  -4   57.49    9.90
   6 -22   4   86.79    9.70
 -22  16   4   64.99    9.70
  16   6   4   74.49    9.80
   6  16  -4   64.99   10.00
  -6  22  -4   73.49   12.30
  22  -6   4   60.69    9.40
 -16  -6  -4   66.39   10.40
 -16  22   4   71.79   10.40
  22 -16  -4   62.29   10.60
  -6 -16   4   71.89    8.60
 -22   7  -4    9.00    7.90
  15   7   4    4.10    6.50
   7 -22   4   -1.40    5.40
  15 -22  -4    4.00    7.70
 -22  15   4    4.10    7.80
   7  15  -4    6.80    7.20
  -7 -15   4   -2.70    5.80
  -7  22  -4    0.90    9.20
  22 -15  -4   -0.60    8.00
 -15  22   4    8.40    6.90
 -15  -7  -4   -1.60    7.50
  22  -7   4    2.10    7.40
  14 -22  -4   71.09   11.80
 -22   8  -4   66.69   11.80
  14   8   4   74.19    8.60
 -22  14   4   69.09    9.70
   8  14  -4   59.59   10.00
   8 -22   4   66.19    8.30
  22 -14  -4   48.20    9.50
  -8 -14   4   64.69    8.70
 -14  22   4   73.59   10.20
  22  -8   4   66.89   10.40
 -14  -8  -4   57.39   10.10
  -8  22  -4   75.19   12.30
 -22   9  -4   77.19   10.40
   9 -22   4   77.29    8.40
 -22  13   4   71.89    9.60
   9  13  -4   75.89   10.00
  13 -22  -4   86.99   11.60
  13   9   4   82.79    9.90
 -13  22   4   81.29    9.30
  -9  22  -4   94.59   12.50
  22 -13  -4   84.49   12.40
  -9 -13   4   79.59   10.10
  22  -9   4   72.49    9.60
 -13  -9  -4   72.59   10.10
  12 -22  -4    4.80    7.80
 -22  12   4    9.80    7.90
  10 -22   4   11.00    6.30
  10  12  -4    3.50    7.50
 -22  10  -4    9.40    7.70
  12  10   4   10.90    6.60
  22 -10   4   -5.30    6.70
 -12 -10  -4   13.10    7.70
 -10  22  -4   12.30    8.60
  22 -12  -4    4.50    8.70
 -12  22   4   -2.30    6.40
 -10 -12   4    6.10    6.60
  11  11  -4   36.70    8.00
 -22  11   4   46.30    9.60
  11 -22   4   34.00    7.20
  11 -22  -4   42.90    8.70
  11  11   4   43.00    8.10
 -22  11  -4   46.20    8.80
 -11  22   4   36.70    8.30
 -11 -11   4   44.80    8.70
 -11 -11  -4   20.60    8.40
 -11  22  -4   44.90   11.30
  22 -11   4   38.10    9.00
  22 -11  -4   33.60    9.10
  12 -22   4    8.40    6.60
 -22  10   4    0.00    8.00
  12  10  -4   11.80    8.20
  10  12   4   10.90    7.50
 -22  12  -4    9.00    7.50
  10 -22  -4   13.90    8.60
 -12  22  -4    7.00    8.70
  22 -12   4    5.50    8.00
 -10 -12  -4    8.80    8.30
  22 -10  -4    2.90    8.60
 -12 -10   4    4.90    6.60
 -10  22   4    0.90    6.10
  13 -22   4   10.30    6.40
   9 -22  -4    1.50    8.80
 -22  13  -4    9.60    8.20
 -22   9   4   10.00    7.50
  13   9  -4   11.20    8.30
   9  13   4   11.00    7.80
  -9  22   4   -1.20    5.90
  22  -9  -4    5.20    8.90
  22 -13   4    9.50    7.50
 -13  -9   4   10.20    7.60
 -13  22  -4   11.90    9.00
  -9 -13  -4    0.00    7.50
   8  14   4    8.80    7.70
  14 -22   4   15.10    7.60
 -22  14  -4    9.40    8.00
 -22   8   4    3.20    8.10
   8 -22  -4   14.90    8.90
  14   8  -4   19.50    7.60
  22  -8  -4   13.40    9.20
 -14  -8   4   -2.40    6.80
  -8 -14  -4    6.50    7.30
 -14  22  -4    9.60    8.70
  -8  22   4   -2.90    7.20
  22 -14   4    1.10    7.40
   7  15   4   20.40    9.00
  15   7  -4   11.70    7.50
   7  15   4   -2.40    7.80
 -22  15  -4    6.00    8.10
 -22   7   4   -2.40    8.40
   7 -22  -4    0.00    9.00
  15 -22   4   -2.20    6.10
  -7 -15  -4    1.90    6.90
 -15  -7   4   -7.80    6.50
  22 -15   4   10.90    8.90
 -15  22  -4   20.50    9.50
  22  -7  -4    2.00    8.70
  -7  22   4  -13.50    7.10
 -22   6   4   11.30    7.90
  16 -22   4    2.60    6.80
 -22  16  -4   13.20    8.60
   6  16   4   -2.90   10.00
   6 -22  -4    2.00    9.20
   6  16   4    6.50    7.60
 -16  22  -4    9.80    9.50
  -6 -16  -4   -5.80    7.30
  22 -16   4    0.10    8.50
  22  -6  -4    0.50    7.80
   5 -22  -4   18.00    9.50
  17 -22   4   20.60    7.80
 -22   5   4   15.40    9.40
   5  17   4   18.00    8.80
  22 -17   4    8.40    8.30
 -17  22  -4   18.50   10.30
  -5  22   4   -5.40    8.10
  -5 -17  -4    1.60    8.90
 -17  -5   4   -2.30    6.90
  22  -5  -4   10.80    9.50
   4  18   4   13.00   10.10
   4  18   4   15.60    9.30
  18 -22   4    7.80    7.80
 -22   4   4   12.80    8.90
 -22   4   4  -14.50   10.30
   4 -22  -4    4.70    9.60
 -18  -4   4   -4.80    6.80
  22 -18   4    8.50    9.90
  22  -4  -4   24.10    8.90
  22 -18   4    4.10    9.40
 -18  22  -4   26.20    9.80
  -4  22   4    5.50    7.50
  -4 -18  -4   18.60    8.60
   8 -23   4   61.59    8.30
   8  15  -4   61.19   10.10
 -23  15   4   42.80    9.10
 -23   8  -4   58.89   10.30
  15   8   4   57.59    8.80
  15 -23  -4   57.09   10.40
 -15  23   4   59.39    9.10
  -8  23  -4   67.99   11.10
  23  -8   4   63.29    9.60
  -8 -15   4   61.49    8.60
 -15  -8  -4   60.09   10.20
  23 -15  -4   72.19   12.40
   9 -23   4    5.40    5.90
  14 -23  -4   -3.00    8.20
  14   9   4    6.90    6.90
   9  14  -4    8.20    8.10
 -23  14   4   -2.50    8.60
 -23   9  -4   13.60    9.10
  -9 -14   4    4.20    7.20
 -14  -9  -4    9.90    7.90
 -14  23   4   10.90    6.60
  23  -9   4   -1.40    6.50
  -9  23  -4    7.70    8.90
  23 -14  -4    2.80    8.20
 -23  10  -4   36.30    8.80
  10  13  -4   25.30    8.30
  13  10   4   45.60    8.70
  10 -23   4   41.70    8.00
  13 -23  -4   29.40    8.60
 -23  13   4   55.99    9.70
 -13  23   4   26.90    7.20
 -13 -10  -4   38.70    9.20
  23 -10   4   25.30    8.90
 -10  23  -4   39.20   11.20
  23 -13  -4   35.60    9.40
 -10 -13   4   31.20    7.70
  11  12  -4   17.20    8.00
 -23  12   4   15.60    8.50
  11 -23   4   21.20    6.60
 -23  11  -4   18.40    8.70
  12  11   4    7.40    7.90
  12 -23  -4    4.10    8.60
 -12 -11  -4   15.10    7.90
  23 -11   4    8.80    7.90
 -12  23   4   15.50    7.10
  23 -12  -4   24.90   10.30
 -11  23  -4   26.70    9.80
 -11 -12   4   15.40    6.90
  11 -23  -4    7.20    8.60
  12 -23   4    3.10    7.00
  11  12   4   14.90    7.10
 -23  11   4   10.80    8.70
  12  11  -4   10.00    8.70
 -23  12  -4    9.00    8.00
  23 -12   4    2.40    7.30
 -11  23   4    7.50    6.70
 -12  23  -4   13.80   10.20
 -12 -11   4    8.50    6.80
 -11 -12  -4    4.80    7.70
  23 -11  -4  -12.00    8.00
  13  10  -4   19.00    8.90
  10 -23  -4    4.90    9.00
 -23  10   4   26.00    9.00
  10  13   4   16.70    7.30
 -23  13  -4   11.70    8.00
  13 -23   4    6.70    6.70
 -10  23   4    7.60    6.80
 -13  23  -4   16.70    9.30
  23 -13   4    2.40    7.50
  23 -10  -4   10.70    9.30
 -13 -10   4    1.00    7.40
 -10 -13  -4    2.80    8.60
  14   9  -4   10.00    7.70
 -23   9   4   -0.60    8.80
  14 -23   4    4.60    6.60
 -23  14  -4    9.70    9.10
   9 -23  -4   -1.10    9.40
   9  14   4   -5.60    7.30
  23 -14   4  -11.10    8.50
  -9 -14  -4    2.80    7.40
 -14  23  -4    5.30    8.70
  23  -9  -4   -1.80    9.00
  -9  23   4   -6.50    6.20
 -14  -9   4  -12.90    6.50
   8 -23  -4    7.50    9.60
 -23   8   4    7.20    8.20
   8  15   4   16.60    8.40
 -23  15  -4    3.40    7.90
  15   8  -4   -2.70    8.40
  15 -23   4    3.70    7.20
  -8 -15  -4    6.70    7.50
  23  -8  -4    6.00    9.10
  23 -15   4    0.70    7.80
  -8  23   4   -4.50    6.70
 -15  -8   4  -14.50    6.40
 -15  23  -4   -0.50    8.90
   0   0   5   -0.80    5.40
   0   0   5   -2.00    5.80
   0   0   5    5.00    5.00
   0  -1   5   70.39    7.60
  -1   1   5   61.59    8.50
   1   0   5   77.99    8.30
   1   0   5   66.69    7.30
   0  -1   5   66.79    8.10
  -1   1   5   70.39    7.40
   1   0   5   68.19    8.00
   0  -1   5   67.19    8.60
  -1   1   5   56.09    7.60
   1  -1   5   35.10    6.10
   0   1   5   41.30    6.60
  -1   0   5   36.10    6.00
  -1   0   5   46.50    6.80
   1  -1   5   36.10    6.30
  -1   0   5   45.00    7.30
   0   1   5   36.10    6.70
   1  -1   5   37.80    6.50
   0   1   5   39.60    6.70
   0  -2   5   33.20    5.70
  -2   2   5   36.40    5.60
  -2   2   5   34.50    6.40
   2   0   5   40.20    7.20
  -2   2   5   31.40    7.00
   2   0   5   39.50    6.10
   0  -2   5   34.20    6.20
   2   0   5   26.00    5.80
   0  -2   5   30.50    6.70
   1  -2   5   45.90    7.20
   1   1   5   49.99    8.10
  -2   1   5   40.70    7.00
   1   1   5   58.19    8.20
   1  -2   5   41.30    6.90
  -2   1   5   34.30    6.30
   1  -2   5   42.30    6.60
  -2   1   5   36.50    6.60
   1   1   5   45.80    6.90
   2  -1   5   41.60    6.90
  -1   2   5   49.00    6.50
   2  -1   5   45.10    6.50
   2  -1   5   38.00    6.70
  -1  -1   5   48.30    7.90
  -1  -1   5   42.00    7.40
  -1  -1   5   35.00    5.90
  -1   2   5   46.70    7.80
  -1   2   5   45.70    7.30
   0   2   5  348.47   15.20
  -2   0   5  372.56   14.90
   2  -2   5  373.96   15.90
   0   2   5  366.56   15.00
   2  -2   5  358.16   14.80
   0   2   5  348.27   15.50
  -2   0   5  368.96   15.70
   2  -2   5  370.36   15.90
  -2   0   5  356.86   15.60
   0  -3   5  117.49    8.10
   3   0   5  129.79   10.50
  -3   3   5  113.99    9.50
  -3   3   5  126.39    8.20
  -3   3   5  131.59    9.40
   0  -3   5  112.99    8.80
   3   0   5  116.09    9.00
   3   0   5  118.69    8.70
   0  -3   5  107.89    9.40
  -3   2   5  308.77   13.30
   2   1   5  320.87   14.60
   1  -3   5  334.77   14.40
   2   1   5  321.77   14.20
  -3   2   5  325.97   14.30
   1  -3   5  323.27   14.60
  -3   2   5  312.07   14.80
   1  -3   5  310.07   13.80
   2   1   5  327.97   15.00
   3  -1   5  336.37   15.20
  -1  -2   5  313.57   14.60
  -1  -2   5  315.67   14.20
  -1  -2   5  321.87   13.50
  -2   3   5  303.37   13.90
   3  -1   5  327.47   13.90
   3  -1   5  321.47   13.80
  -2   3   5  306.47   14.50
   2  -3   5  278.77   13.70
   1   2   5  271.67   12.20
   2  -3   5  256.57   11.90
   1   2   5  244.08   13.10
  -3   1   5  278.47   13.30
   1   2   5  279.27   12.70
   2  -3   5  273.97   13.20
  -3   1   5  265.07   13.00
  -3   1   5  266.17   11.70
  -2  -1   5  257.27   13.00
  -2  -1   5  265.47   12.30
   3  -2   5  264.77   12.70
   3  -2   5  269.07   13.50
  -1   3   5  268.67   12.90
  -1   3   5  252.67   12.80
  -2  -1   5  267.57   12.20
  -1   3   5  271.77   13.60
   3  -2   5  258.27   13.10
   3  -3   5   38.60    6.40
   0   3   5   25.00    6.30
   3  -3   5   36.50    7.40
   0   3   5   28.30    5.70
  -3   0   5   37.40    6.80
  -3   0   5   27.30    5.40
   3  -3   5   27.00    6.20
  -4   4   5  243.48   12.00
  -4   4   5  244.68   11.10
   4   0   5  228.38   11.80
   0  -4   5  237.68   11.70
   0  -4   5  246.08   13.80
   4   0   5  246.38   13.70
   4   0   5  247.08   12.50
   0  -4   5  250.07   12.00
   1  -4   5   88.99    8.50
  -4   3   5   80.69    7.10
   3   1   5   78.59    7.90
   3   1   5   94.89    8.20
   1  -4   5   71.49    8.20
  -4   3   5   78.99    8.00
   3   1   5   84.19    9.70
   1  -4   5   72.39    8.80
  -3   4   5   79.69    7.40
  -1  -3   5   77.89    6.90
  -3   4   5   92.39    8.70
  -3   4   5   82.69    7.90
  -1  -3   5   80.19    7.80
  -1  -3   5   80.99   10.00
   4  -1   5   77.09    8.50
   4  -1   5   80.29    8.20
   4  -1   5   80.49    9.80
  -4   2   5   61.09    8.10
   2  -4   5   60.19    7.30
   2   2   5   58.59    8.80
   2   2   5   62.79    7.60
   2  -4   5   52.89    9.10
   2  -4   5   52.59    8.00
  -2   4   5   60.79    7.20
  -2   4   5   68.69    8.60
  -2  -2   5   66.39    7.00
   4  -2   5   64.89    8.30
   4  -2   5   51.89    9.10
  -2  -2   5   65.39    8.50
   4  -2   5   62.79    8.00
   1   3   5  670.33   25.10
   3  -4   5  742.33   26.60
  -4   1   5  714.53   26.20
  -4   1   5  713.63   24.80
   3  -4   5  723.13   26.00
   3  -4   5  714.53   25.30
   1   3   5  714.63   25.70
   4  -1  -5  720.23   25.80
   4  -3   5  711.43   25.20
   4  -3   5  735.03   26.20
  -3  -1   5  715.93   25.00
   4  -3   5  695.83   26.10
  -1   4   5  707.63   25.90
  -1   4   5  694.33   25.60
  -3  -1   5  713.03   26.10
   4  -4   5  587.64   22.50
  -4   0   5  584.14   22.20
   4  -4   5  578.94   21.40
   4  -4   5  580.64   22.10
   4   0  -5  576.34   21.60
   0   4   5  564.04   21.20
  -4   0   5  577.34   20.80
   0   4   5  561.24   22.10
   0  -4  -5  582.04   21.10
   0  -5   5   -2.50    4.50
   0  -5   5    1.30    5.10
   5  -5  -5   -5.70    6.30
   5   0   5    6.20    6.70
   0  -5   5   13.10    7.00
   5   0   5    2.70    5.90
  -5   5   5    1.00    4.10
  -5   5   5    0.70    5.50
   5   0   5    4.30    4.80
   1  -5   5  102.19    7.90
  -5   4   5   99.19    6.90
   4   1   5  101.19    8.10
   4   1   5   92.19    8.40
   1  -5   5  106.69    9.90
   1  -5   5   89.39    7.90
  -5   4   5   98.89    8.60
   5  -4  -5   86.59    8.90
  -1  -4   5  105.59    8.30
   5  -1   5  110.69    8.30
  -4   5   5  125.89   10.70
   5  -1   5  104.29    8.40
  -1  -4   5  103.19    8.10
   5  -1   5  102.89    9.90
  -4   5   5   87.69    8.40
  -1  -4   5   99.09   10.70
  -5   3   5  389.76   14.90
   2  -5   5  387.36   17.80
   2  -5   5  373.66   16.00
  -5   3   5  375.86   16.30
   3  -5  -5  382.76   14.50
   2  -5   5  393.66   15.50
   3   2   5  399.66   16.20
   3   2   5  392.06   15.80
  -3   5   5  392.06   17.40
  -2  -3   5  398.16   15.70
  -3   5   5  375.36   15.90
   5  -2   5  376.66   16.10
   5  -2   5  389.86   15.70
   5  -3  -5  377.66   16.10
   5  -2   5  403.86   17.40
  -2  -3   5  377.96   17.00
  -5   2   5  414.96   17.30
   2   3   5  390.26   16.10
   2   3   5  413.86   17.00
   3  -5   5  422.16   18.40
   3   2  -5  406.16   16.40
   3  -5   5  415.96   16.40
   2  -5  -5  412.96   15.60
   3  -5   5  413.96   17.00
  -2   5   5  400.96   17.40
  -3  -2   5  422.56   17.70
   5  -3   5  411.76   17.10
   5  -3   5  411.46   16.30
   5  -2  -5  426.36   17.20
  -2   5   5  414.36   17.00
   5  -3   5  404.36   17.60
  -3  -2   5  400.46   15.80
  -2  -3  -5  412.56   16.70
   4  -5   5   52.19    7.40
   1   4   5   67.89    8.10
   4  -5   5   53.39    9.40
  -5   1   5   44.20    6.30
  -5   1   5   48.50    7.70
   4   1  -5   43.60    7.60
   1   4   5   53.79    6.70
   4  -5   5   51.89    7.90
  -1  -4  -5   43.20    7.40
   5  -4   5   49.70    8.20
  -4  -1   5   63.09    8.60
  -4  -1   5   56.09    6.40
   5  -1  -5   44.50    8.00
  -1   5   5   46.60    6.90
   5  -4   5   64.99    7.70
  -1   5   5   71.89    8.60
   5  -4   5   54.29    8.90
   0   5   5 1184.58   39.90
  -5   0   5 1190.88   40.50
   0  -5  -5 1181.48   39.30
  -5   0   5 1176.38   39.20
   5  -5   5 1163.98   39.50
   5  -5   5 1169.68   40.80
   5  -5   5 1200.18   40.70
   5   0  -5 1200.68   39.80
   0   5   5 1213.18   40.30
   6   0   5   58.99    7.60
  -6   6   5   48.30    7.60
   0  -6   5   66.99    7.00
   6   0   5   61.19    8.60
   0  -6   5   62.69    9.90
   6  -6  -5   61.09    8.20
   5   1   5  130.29    9.00
   1  -6   5  122.09    8.60
  -6   5   5  108.79    9.00
  -6   5   5  123.79    7.30
   1  -6   5  123.89    8.90
   5   1   5  125.99    8.90
   1  -6   5  120.89   10.80
   5  -6  -5  124.29    6.40
  -5   6   5  118.39    9.90
   6  -1   5  122.29   11.70
   6  -1   5  106.69    8.70
   6  -5  -5  113.09    9.40
  -1  -5   5  118.79    8.10
  -1  -5   5  124.99   10.80
   6  -1   5  134.29    8.80
  -5  -1  -5  100.09    9.90
   2  -6   5  183.78   10.70
   2   4  -5  201.38   10.20
  -6   4   5  193.18    9.30
   2  -6   5  220.28   13.10
   4   2   5  186.88   10.90
  -6   4   5  196.78   11.20
   4  -6  -5  190.28    8.70
   4   2   5  199.78   10.50
   2  -6   5  186.18   10.00
  -2  -4   5  203.08   13.10
   6  -4  -5  199.78   11.00
  -2  -4   5  208.58   10.70
  -4  -2  -5  194.28   11.60
   6  -2   5  191.68   10.60
   6  -2   5  191.98   12.50
   6  -2   5  199.98   11.50
  -4   6   5  213.48   12.00
  -4   6   5  208.08   11.60
   3   3  -5   81.39    7.60
  -6   3   5   70.49    8.30
   3  -6  -5   80.89    6.20
   3  -6   5   73.69    8.90
   3   3   5   86.89    9.30
   3  -6   5   76.89    7.50
   3  -6   5   89.89   10.20
  -6   3   5   79.19    6.50
   3   3   5   79.79    7.60
   6  -3   5   69.79    8.80
  -3   6   5   74.89    9.10
  -3   6   5   74.49    8.60
  -3  -3   5   65.49    9.20
   6  -3   5   78.99   10.80
  -3  -3  -5   78.89    8.30
  -3  -3   5   72.59    7.40
   6  -3   5   72.09    8.40
   6  -3  -5   66.89    7.90
   2  -6  -5  807.22   27.80
   2   4   5  831.72   29.50
  -6   2   5  856.91   29.90
   2   4   5  789.52   28.70
   4  -6   5  828.92   28.60
   4  -6   5  872.21   30.10
   4  -6   5  824.22   30.40
   4   2  -5  847.32   28.70
   6  -2  -5  810.32   29.20
  -4  -2   5  840.92   30.10
  -4  -2   5  810.72   28.60
  -2   6   5  791.92   28.90
  -2  -4  -5  839.92   28.80
  -2   6   5  844.22   30.20
   6  -4   5  866.61   30.70
   6  -4   5  817.02   29.00
   6  -4   5  822.22   29.70
  -6   1   5  930.21   33.00
   1   5   5  906.91   31.90
   1   5   5  927.21   32.50
  -6   1   5  891.91   31.30
   5  -6   5  967.40   34.00
   5   1  -5  931.71   32.10
   5  -6   5  948.41   33.10
   5  -6   5  926.01   31.80
  -1   6   5  927.71   32.80
  -1   6   5  904.81   32.00
   6  -5   5  923.11   31.90
  -5  -1   5  928.41   31.70
  -5  -1   5  987.80   33.50
   6  -5   5  956.30   33.40
  -1  -5  -5  944.51   31.80
   6  -1  -5  950.10   32.10
   6  -5   5  918.91   33.20
   0  -6  -5    6.20    5.00
   6  -6   5   11.40    5.50
  -6   0   5    5.00    7.50
   6   0  -5   12.50    6.10
   0   6   5   11.00    5.60
   0   6   5    8.70    6.40
  -6   0   5   10.80    4.80
   6  -6   5    8.70    6.60
   6  -6   5   16.80    7.90
   0  -7   5   30.90    8.60
  -7   0  -5   18.60    6.90
   7  -7  -5   25.50    7.00
   7   0   5   29.20    6.30
  -7   7   5   26.90    6.60
   0  -7   5   25.30    5.80
   7   0   5   38.50    6.00
   1  -7   5   53.89    9.40
   1  -7   5   57.29    7.00
   1   6  -5   57.99    7.20
   6   1   5   49.60    7.60
  -7   6   5   57.69    8.20
   1  -7   5   57.89    7.40
   6  -7  -5   51.79    8.20
   6   1   5   54.09    7.50
  -6  -1  -5   52.79    9.20
   7  -6  -5   53.89    8.30
   7  -1   5   68.09    7.80
  -1  -6   5   70.39    7.10
  -6   7   5   66.39    9.00
  -1  -6   5   55.89    9.10
   7  -1   5   57.09    8.40
   2  -7   5   63.99    7.60
   5   2   5   67.49    7.40
  -7   5   5   72.89    8.20
   2   5  -5   73.19    7.40
   2  -7   5   74.49   11.70
  -7   5   5   69.59    5.80
   5   2   5   69.99    7.80
   2  -7   5   69.89    7.50
  -5  -2  -5   57.59    8.70
   7  -2   5   64.49    7.50
  -2  -5   5   65.59    7.80
   7  -2   5   65.19    7.40
  -5   7   5   62.29    7.60
  -2  -5   5   78.69   10.10
   7  -5  -5   60.89    8.20
   7  -2   5   65.99    9.60
   3  -7   5  321.67   14.80
   3  -7   5  341.47   14.00
   3   4  -5  332.17   14.10
   4   3   5  336.87   14.80
  -7   4   5  346.07   12.90
   3  -7   5  365.86   17.70
   4   3   5  333.97   14.30
  -7   4   5  322.07   15.00
   4  -7  -5  314.67   12.40
   7  -4  -5  336.97   15.40
   7  -3   5  317.87   16.30
  -3  -4   5  330.27   14.30
  -3  -4   5  330.37   15.90
  -4  -3  -5  319.67   14.70
   7  -3   5  347.97   14.70
   7  -3   5  328.27   15.20
  -4   7   5  346.57   16.30
  -4   7   5  318.47   14.50
   4  -7   5  692.43   26.70
   3   4   5  648.04   23.80
   4   3  -5  659.83   23.80
  -7   3   5  673.93   24.80
   3   4   5  666.83   24.40
   4  -7   5  681.53   24.70
   3  -7  -5  631.64   22.50
   4  -7   5  651.43   23.50
  -7   3   5  676.93   23.00
   7  -4   5  663.83   24.10
   7  -3  -5  679.63   24.60
  -3  -4  -5  681.63   24.30
   7  -4   5  665.53   25.80
   7  -4   5  632.24   24.80
  -3   7   5  666.13   25.00
  -3   7   5  639.14   24.10
  -4  -3   5  662.33   25.20
  -4  -3   5  656.73   23.80
   5  -7   5   60.29   10.00
   2   5   5   34.30    6.10
  -7   2   5   36.30    7.70
   2   5   5   43.90    7.30
   5   2  -5   42.00    6.40
  -7   2   5   29.70    5.40
   5  -7   5   29.80    6.00
   2  -7  -5   30.90    5.00
   5  -7   5   33.00    7.10
  -5  -2   5   34.50    7.90
  -2   7   5   39.90    8.50
  -5  -2   5   35.80    5.60
  -2  -5  -5   32.60    6.30
   7  -5   5   39.40    6.40
   7  -5   5   46.60    8.20
  -2   7   5   44.40    8.10
   7  -5   5   33.40    7.70
   7  -2  -5   42.40    7.50
   1   6   5  389.56   16.40
   6   1  -5  385.36   15.90
  -7   1   5  371.36   15.00
   6  -7   5  373.06   16.80
   1   6   5  368.56   15.70
  -7   1   5  390.56   16.90
   6  -7   5  361.96   18.30
   6  -7   5  391.86   15.60
  -1   7   5  382.66   16.70
   7  -6   5  364.56   17.70
   7  -1  -5  374.96   15.80
  -6  -1   5  379.16   15.30
   7  -6   5  393.96   17.30
  -6  -1   5  404.76   17.20
  -1  -6  -5  375.86   15.40
   7  -6   5  366.16   15.60
  -7   0   5  310.07   12.90
   0  -7  -5  300.97   13.40
   0   7   5  315.97   14.20
   0   7   5  304.37   14.60
   7  -7   5  298.17   13.50
  -7   0   5  306.17   14.90
   7  -7   5  336.77   16.30
   7   0  -5  310.87   14.10
   0  -8   5   51.39    9.60
   0  -8   5   38.10    6.60
   0   8  -5   43.70    5.80
  -8   0  -5   39.80    7.50
  -8   8   5   52.39    8.00
   8   0   5   40.30    7.20
   8  -8  -5   43.10    7.60
  -8   1  -5   72.79    9.10
   1  -8   5   92.19    8.00
   7  -8  -5   93.79    9.20
   7   1   5   96.89    7.80
   1   7  -5   73.59    7.80
   7   1   5   89.19    8.50
   1  -8   5  105.49   11.60
  -8   7   5   89.79    8.80
  -1  -7   5   80.19   11.20
   8  -1   5   97.19    8.30
  -7   8   5   87.19    8.60
   8  -1   5   77.59   10.10
  -1  -7   5   89.79    8.50
  -7  -1  -5   85.79    9.70
   8  -7  -5   88.09    9.20
   6   2   5   45.30    7.70
   2   6  -5   54.19    7.00
  -8   6   5   51.99    7.50
   2  -8   5   78.89   11.20
   6  -8  -5   63.49    9.30
   6   2   5   59.29    7.30
   2  -8   5   54.99    7.50
  -6   8   5   42.70    7.70
   8  -2   5   49.10    8.40
   8  -6  -5   49.90    7.90
  -2  -6   5   47.80    8.90
  -2  -6   5   40.60    6.50
  -6  -2  -5   51.69    8.10
   8  -2   5   46.70    7.60
   5   3   5  220.48   11.00
  -8   5   5  218.48   12.00
   3  -8   5  217.08   11.60
   3  -8   5  219.88   10.50
   3  -8   5  251.77   15.60
   3   5  -5  218.98   10.70
   5   3   5  206.08   11.60
  -5   8   5  224.98   11.70
   8  -3   5  222.18   11.40
  -5  -3  -5  202.28   11.40
  -3  -5   5  226.68   13.50
   8  -5  -5  203.08   12.80
   8  -3   5  226.08   14.80
  -3  -5   5  213.28   10.70
   8  -3   5  192.28   11.90
   4   4   5   44.40    6.80
   4  -8   5   51.79    7.50
   4  -8   5   49.90    7.20
   4   4  -5   43.30    7.20
   4  -8   5   63.59   10.50
   4   4   5   48.10    7.90
  -8   4   5   44.00    8.20
  -8   4   5   47.70    5.50
   8  -4   5   54.49    8.30
   8  -4   5   46.50    8.80
  -4  -4   5   45.10    8.60
  -4  -4   5   50.79    6.40
  -4   8   5   75.79    9.20
   8  -4  -5   49.30    7.60
  -4   8   5   55.59    7.70
   8  -4   5   49.50    8.10
  -4  -4  -5   56.59    7.70
  -8   3   5  239.68   12.70
   5  -8   5  225.58   12.20
   5  -8   5  229.08   11.20
   5   3  -5  192.78   11.10
   3   5   5  234.78   12.00
  -8   3   5  222.28    9.80
   3  -8  -5  211.28    9.70
   3   5   5  209.48   11.00
   8  -5   5  207.48   13.00
  -3   8   5  226.98   12.80
   8  -5   5  239.88   12.00
   8  -3  -5  223.98   11.90
  -5  -3   5  216.28   11.00
   8  -5   5  226.48   13.50
  -5  -3   5  232.58   13.40
  -3   8   5  219.08   11.50
  -3  -5  -5  199.28   11.60
   2   6   5  334.77   14.60
   2   6   5  329.37   15.30
   6  -8   5  342.27   15.70
  -8   2   5  339.77   15.90
   6  -8   5  343.07   14.40
   6   2  -5  341.07   14.50
  -8   2   5  336.97   13.60
   2  -8  -5  328.37   13.70
   8  -2  -5  373.56   15.60
  -6  -2   5  347.07   16.40
  -2  -6  -5  333.07   14.60
   8  -6   5  359.36   15.10
  -6  -2   5  322.97   14.10
  -2   8   5  351.46   16.10
  -2   8   5  343.37   15.40
   8  -6   5  350.16   16.40
   1   7   5   10.00    5.10
   1  -8  -5    6.60    8.40
  -8   1   5   12.10    7.10
   7  -8   5    1.70    6.20
  -8   7  -5    1.40    5.80
   1   7   5    2.80    6.00
  -8   1   5    9.60    4.50
   7   1  -5    4.70    5.70
   7  -8   5    0.40    5.00
   8  -7   5    3.30    5.30
  -7   8  -5    1.50    6.10
   8  -7   5    3.80    6.80
  -7  -1   5   -2.10    4.50
  -1   8   5    5.30    6.70
  -1  -7  -5    4.80    5.60
  -1   8   5    7.10    5.30
   8  -1  -5    5.80    5.60
  -7  -1   5    1.30    6.70
  -8   0   5  285.57   15.00
  -8   8  -5  261.67   13.30
   0   8   5  268.37   13.70
   8   0  -5  288.17   13.40
   0  -8  -5  257.17   12.60
   0   8   5  277.37   13.20
   8  -8   5  269.87   12.70
   8  -8   5  283.77   14.70
  -8   0   5  275.57   11.90
   9  -9  -5   12.50    6.80
   0  -9   5   11.40    5.30
   9   0   5   12.30    5.80
  -9   0  -5    1.30    5.90
   0  -9   5   16.00    8.60
  -9   9   5    9.30    6.80
   8   1   5   16.90    6.00
   8  -9  -5    9.40    6.80
  -9   8   5   16.80    6.20
   1  -9   5   17.50    5.70
   1  -9   5   21.00    8.80
   1   8  -5    8.50    4.20
  -9   1  -5   14.60    6.80
  -1  -8   5   20.80    5.60
  -8   9   5   15.40    6.30
  -1   9  -5   30.10    4.70
   9  -8  -5   19.60    7.90
  -8  -1  -5   12.70    6.40
   9  -1   5   21.30    5.90
  -1  -8   5   30.30    8.60
   9  -1   5   17.00    5.40
   2  -9   5   40.90    5.90
   7  -9  -5   59.49    8.80
   7   2   5   42.80    7.00
   2  -9   5   53.99    8.10
   2   7  -5   45.90    6.30
  -9   7   5   58.19    8.50
  -9   2  -5   43.70    8.10
   7   2   5   54.69    6.70
  -7  -2  -5   44.10    7.40
  -7   9   5   49.60    7.90
   9  -2   5   40.80    6.80
   9  -2   5   47.60    7.30
  -2  -7   5   49.40    7.60
   9  -7  -5   50.39    8.50
  -2  -7   5   48.50    9.50
   6   3   5   48.20    7.60
  -9   6   5   45.30    7.90
   3   6  -5   40.10    6.40
   6   3   5   55.89    6.80
   3  -9   5   33.80    6.70
   6  -9  -5   27.50    7.90
  -6  -3  -5   43.80    7.70
   9  -6  -5   45.00    7.70
  -3  -6   5   43.90    6.70
   9  -3   5   34.10    6.40
   9  -3   5   42.30    9.00
  -6   9   5   48.80    8.00
  -3  -6   5   39.00    8.90
   4  -9   5   47.20    7.30
   4   5  -5   42.90    7.00
   5   4   5   44.90    7.80
  -9   5   5   46.20    7.50
   5   4   5   45.80    6.70
   4  -9   5   46.30    6.10
   9  -4   5   41.20    7.80
   9  -4   5   46.10    8.90
   9  -4   5   51.79    7.40
  -4  -5   5   68.59   10.00
  -4  -5   5   47.00    7.30
  -5  -4  -5   43.70    7.00
  -5   9   5   49.20    7.60
   9  -5  -5   69.49    9.50
   4   5   5  204.78   11.70
   5  -9   5  215.38   12.00
  -9   4   5  219.98    9.50
  -9   4   5  224.18   12.30
   5   4  -5  201.28   10.90
   4   5   5  209.08   10.80
   5  -9   5  209.08   10.70
  -5  -4   5  214.18   14.10
   9  -4  -5  226.48   12.60
   9  -5   5  216.18   13.80
  -4   9   5  221.38   11.60
  -5  -4   5  221.48   11.10
  -5   9  -5  211.78   12.30
  -4   9   5  231.58   12.70
   9  -5   5  203.18   11.10
  -4  -5  -5  213.68   11.90
   3   6   5    1.10    4.90
  -9   3   5   14.20    5.60
   6  -9   5    5.70    5.00
  -9   6  -5   12.60    5.60
   3   6   5    2.50    5.90
  -9   3   5    1.30    6.30
   3  -9  -5   -3.90    4.00
   6   3  -5    9.10    5.10
   6  -9   5   -1.00    6.10
  -6  -3   5   21.50    7.80
  -3  -6  -5    3.50    5.70
  -6   9  -5    5.50    6.90
  -6  -3   5    3.40    4.90
   9  -6   5    1.80    7.40
  -3   9   5    6.10    7.00
  -3   9   5   14.80    6.60
   9  -3  -5    8.30    6.50
   9  -6   5    4.50    5.40
  -9   2   5  273.57   14.80
   2   7   5  280.27   13.00
  -9   2   5  264.87   11.90
   2  -9  -5  263.57   12.10
   7   2  -5  276.17   13.50
   7  -9   5  263.57   13.90
   2   7   5  291.67   13.90
  -9   7  -5  280.07   13.30
   7  -9   5  280.07   12.80
  -2   9   5  290.27   13.90
  -2   9   5  286.97   14.50
  -7   9  -5  293.57   14.10
   9  -2  -5  294.97   13.50
  -7  -2   5  270.97   14.80
   9  -7   5  284.87   13.20
   9  -7   5  301.07   15.90
  -7  -2   5  274.27   12.60
  -2  -7  -5  269.37   13.40
   8  -9   5  169.48   11.50
  -9   8  -5  180.98   10.50
  -9   1   5  172.68    9.20
   8   1  -5  178.88   10.90
  -9   1   5  169.78   11.50
   8  -9   5  164.18    9.80
   1  -9  -5  151.68    9.50
   1   8   5  167.18    9.80
   1   8   5  171.48   11.10
  -8  -1   5  174.68    9.60
   9  -1  -5  190.58   11.30
  -8   9  -5  176.28   11.00
  -1   9   5  169.18   11.40
   9  -8   5  172.58   10.20
   9  -8   5  184.88   12.90
  -1   9   5  168.48   10.20
  -1  -8  -5  165.68   10.40
  -8  -1   5  182.18   11.80
  -9   0   5   10.10    6.80
  -9   9  -5    8.90    6.20
   0   9   5   10.10    6.20
   9   0  -5   12.60    6.10
  -9   0   5   11.90    4.80
   0  -9  -5    0.80    5.40
   9  -9   5    6.80    6.80
   0   9   5   13.70    6.20
   9  -9   5   11.10    5.20
  10   0   5   10.00    5.60
   0 -10   5    8.50    5.40
  10 -10  -5   23.60    7.70
 -10  10   5   11.40    6.10
 -10   0  -5   10.50    6.50
 -10   9   5   19.20    6.30
   1 -10   5   20.70    5.70
   9   1   5   19.80    5.90
 -10   1  -5   13.90    7.40
   9 -10  -5   11.60    6.80
  -1  -9   5   17.70    5.50
  -1  -9   5   19.10    9.00
  -9  -1  -5   10.40    6.50
  10  -9  -5   20.50    7.00
  -9  10   5   21.50    6.40
  10  -1   5   21.00    6.00
 -10   2  -5   33.60    7.70
 -10   8   5   34.10    7.10
   8   2   5   38.10    6.60
   2 -10   5   37.70    6.40
   8 -10  -5   40.80    8.20
  10  -2   5   34.60    6.30
  -8  -2  -5   44.20    8.10
  10  -8  -5   48.30    8.50
  -8  10   5   39.50    7.00
  -2  -8   5   48.60    9.40
  -2  10  -5   36.60    7.70
  -2  -8   5   38.00    6.70
   7 -10  -5  156.28   10.70
   7   3   5  145.19    9.00
 -10   7   5  148.49   10.30
   7   3   5  140.69    9.80
   3 -10   5  178.98   10.50
   3   7  -5  134.49    8.40
   3 -10   5  132.79    9.40
  -7  -3  -5  145.19   11.10
  10  -3   5  148.69    9.50
  -3  -7   5  144.89   12.50
  -7  10   5  149.69   10.00
  10  -7  -5  160.88   11.50
  -3  -7   5  145.19    9.00
  -3  10  -5  147.09   11.70
   4 -10   5  142.79    9.70
   6   4   5  150.48    9.70
   6 -10  -5  125.29   10.80
   6   4   5  135.99    8.70
   4 -10   5  132.99    9.90
   4   6  -5  120.09    8.40
 -10   6   5  144.29   10.20
  -4  -6   5  142.39   12.10
  10  -4   5  150.38   10.10
  -4  10  -5  145.09   11.50
  -4  -6   5  143.39    8.80
  -6  -4  -5  137.09    9.90
  10  -6  -5  154.78   10.30
  10  -4   5  136.09   12.00
  -6  10   5  140.29    9.90
 -10   5   5   34.40    7.80
 -10   5  -5   36.10    6.60
   5 -10   5   31.50    5.30
   5 -10   5   23.20    6.60
   5   5   5   24.70    6.50
   5   5   5   38.50    6.50
   5   5  -5   33.80    6.00
  -5  -5   5   36.10    8.70
  10  -5   5   27.00    8.20
  10  -5  -5   30.90    7.00
  -5  -5   5   30.90    6.00
  10  -5   5   32.80    6.20
  -5  -5  -5   28.00    6.50
  -5  10  -5   20.10    6.60
  -5  10   5   33.90    6.70
   4   6   5  135.69    8.60
 -10   4   5  134.09    7.40
   6 -10   5  134.89    8.60
   6   4  -5  123.99    9.40
   6 -10   5  130.19    9.90
 -10   4   5  138.09   10.40
   4   6   5  137.79    9.90
 -10   6  -5  140.19    9.20
  10  -6   5  122.29   11.80
  -4  10   5  120.49   10.40
  -6  -4   5  133.49    9.20
  -6  10  -5  131.89   10.70
  10  -6   5  140.89    9.80
  -4  10   5  144.99   10.70
  10  -4  -5  128.99    9.80
  -4  -6  -5  122.89   10.00
  -6  -4   5  123.39   11.10
   3   7   5  173.48   10.50
 -10   3   5  183.68   11.60
   7   3  -5  183.28   10.20
 -10   3   5  174.48    9.00
 -10   7  -5  193.18   10.50
   3   7   5  174.58   11.10
   7 -10   5  179.18   11.30
   7 -10   5  177.58    9.70
  10  -7   5  183.98   10.80
  -3  -7  -5  176.78   10.80
  -3  10   5  172.88   11.70
  -7  10  -5  185.18   11.60
  -7  -3   5  169.98   10.10
  10  -3  -5  186.18   10.90
  -7  -3   5  191.48   12.30
  10  -7   5  183.28   12.80
  -3  10   5  183.88   10.80
 -10   8  -5    9.60    6.00
 -10   2   5   21.00    7.10
 -10   2   5   21.50    4.50
   2   8   5   20.80    7.40
   2   8   5   19.60    5.60
   8 -10   5   12.00    6.50
   8   2  -5   20.60    6.10
   2 -10  -5    2.00    4.90
   8 -10   5   21.40    5.40
  10  -8   5   21.30    6.00
  -8  -2   5   11.90    5.00
  -2  -8  -5   16.60    5.90
  -2  10   5   26.90    8.00
  -8  -2   5   10.30    7.40
  10  -8   5    6.00    7.10
  10  -2  -5   21.50    7.10
  -8  10  -5   11.90    6.40
  -2  10   5   12.80    5.70
   9 -10   5  199.78   10.80
 -10   1   5  200.88   11.80
 -10   1   5  185.98   10.00
   1 -10  -5  174.28   10.30
   9   1  -5  192.88   11.20
   1   9   5  180.88   11.40
   1   9   5  189.48   10.60
   9 -10   5  200.88   12.20
 -10   9  -5  199.68   10.90
  10  -1  -5  212.58   11.80
  10  -9   5  190.48   12.40
  -9  -1   5  187.58   10.50
  -1  10   5  174.08   11.60
  -9  -1   5  185.98   12.10
  -1  -9  -5  162.98   10.80
  10  -9   5  186.48   10.70
  -9  10  -5  200.88   11.60
  -1  10   5  198.88   11.50
 -10  10  -5  132.29    9.80
  10 -10   5  126.29   10.80
 -10   0   5  124.29    8.50
   0  10   5  134.39   10.20
  10 -10   5  128.09    9.10
   0  10   5  135.69    9.10
   0 -10  -5  119.59    9.10
  10   0  -5  120.49   10.40
  11   0   5   94.49    8.30
  11 -11  -5   97.09    9.40
 -11  11   5   89.49    8.80
   0  11  -5   85.99    9.40
   0 -11   5  100.49    8.10
 -11   0  -5   91.69    9.50
  10   1   5   16.40    5.70
  10 -11  -5    8.60    6.50
   1 -11   5   13.80    5.40
 -11  10   5   10.00    5.70
 -11   1  -5    7.30    6.60
 -10  11   5   12.60    6.00
  11  -1   5    7.20    5.30
  -1  11  -5   10.80    6.50
 -10  -1  -5    8.40    6.60
  11 -10  -5   10.20    6.40
  -1 -10   5   11.70    5.50
   2 -11   5   35.60    6.50
   9 -11  -5   53.49    9.30
 -11   9   5   33.00    7.30
 -11   2  -5   32.80    8.30
   9   2   5   37.20    6.50
  11  -2   5   41.20    6.70
  -2  -9   5   48.50   10.60
  -2  -9   5   36.90    6.60
  11  -9  -5   36.10    7.40
  -9  11   5   37.90    6.80
  -9  -2  -5   32.40    7.30
  -2  11  -5   33.80    7.20
 -11   3  -5   22.40    7.30
   3 -11   5   25.90    6.10
   8   3   5   34.70    7.30
   8 -11  -5   31.50    7.30
   8   3   5   28.30    6.30
 -11   8   5   29.20    7.20
  -3  -8   5   46.00    9.20
  -8  -3  -5   27.90    7.00
  -3  -8   5   28.80    5.80
  -3  11  -5   27.00    7.60
  11  -3   5   29.40    6.70
  11  -8  -5   31.10    7.20
  -8  11   5   33.70    7.00
   4   7  -5    1.90    4.80
   7   4   5   27.70    5.10
   7 -11  -5   11.20    7.00
   4 -11   5   11.90    5.70
   7   4   5   15.50    5.90
 -11   7   5   19.60    6.70
  -7  -4  -5    6.60    6.10
  -4  -7   5   17.00    5.80
  11  -7  -5   29.50    7.60
  -4  -7   5   23.70    8.40
  11  -4   5   22.70    6.40
  -4  11  -5   15.20    7.50
  -7  11   5   27.40    7.10
   5 -11   5   75.49   10.60
   6   5   5   85.59    8.30
 -11   5  -5   96.39    7.40
   6   5   5  109.49    7.60
   5 -11   5   98.29    8.60
   5   6  -5   80.69    7.50
   6 -11  -5   84.89    9.80
 -11   6   5  109.39    9.10
  -6  -5  -5   96.29    8.60
  11  -6  -5   99.99    9.30
  11  -5   5  101.59   11.20
  -5  -6   5   91.79    7.90
  -5  -6   5  108.99   12.50
  -5  11  -5   92.29    8.90
  -6  11   5   96.89    8.90
  11  -5   5   94.99    8.20
   5   6   5  204.98   10.20
   6 -11   5  204.08   11.60
 -11   6  -5  186.88   10.00
   6   5  -5  175.18   10.40
 -11   5   5  188.18   11.50
   6 -11   5  198.28   10.00
   5   6   5  206.88   11.30
  -6  -5   5  193.48   12.90
  11  -5  -5  201.48   11.60
  -6  11  -5  205.38   11.80
  -6  -5   5  204.58   11.20
  11  -6   5  196.38   11.40
  -5  11   5  201.18   11.40
  -5  -6  -5  193.28   11.20
  11  -6   5  212.68   14.60
   7 -11   5   18.80    5.20
   4   7   5   16.60    6.20
   4   7   5   16.60    5.40
   7   4  -5    7.40    5.50
 -11   7  -5   19.20    5.40
   7 -11   5    7.60    6.10
 -11   4   5   13.20    4.40
 -11   4   5   14.70    6.30
  -7  -4   5   17.80    5.80
  11  -7   5   10.70    5.20
  11  -4  -5   18.70    6.80
  -4  11   5   14.40    6.00
  -7  11  -5   16.30    6.20
  -7  -4   5   18.20    7.50
  11  -7   5    4.00    7.40
  -4  11   5   18.60    7.10
  -4  -7  -5   11.80    6.40
 -11   8  -5  140.69    9.70
   3   8   5  152.88   10.40
   8 -11   5  149.49   10.60
   8   3  -5  151.38   10.30
   3   8   5  163.58    9.80
 -11   3   5  158.98    8.40
 -11   3   5  144.69   10.70
   8 -11   5  156.48    9.20
  -3  11   5  161.88   10.90
  -3  -8  -5  154.28   10.10
  11  -8   5  159.38   12.20
  11  -8   5  156.08   10.10
  11  -3  -5  155.88   11.40
  -3  11   5  149.99   11.10
  -8  11  -5  138.39   10.20
  -8  -3   5  158.48   11.50
  -8  -3   5  164.38    9.90
 -11   9  -5  110.99    8.60
   2   9   5  118.49    8.90
   2   9   5  126.99   10.40
   9 -11   5  105.29    8.80
   9 -11   5  119.29    9.80
 -11   2   5  121.19    9.80
 -11   2   5   96.09    7.50
   9   2  -5  109.59   10.00
  -2  11   5  109.59   10.00
  11  -9   5  105.39   10.50
  -2  -9  -5   94.89    8.90
  -9  11  -5  112.09   10.20
  11  -2  -5  115.79   10.20
  11  -9   5  122.99    9.10
  -2  11   5  121.59   10.00
  -9  -2   5  108.99   10.40
  -9  -2   5  117.49    8.60
  10   1  -5    4.50    6.30
 -11   1   5   11.50    6.60
  10 -11   5    8.70    5.30
   1  10   5   11.10    5.90
  10 -11   5    3.30    6.30
 -11  10  -5    1.40    5.60
 -11   1   5    6.30    4.50
   1  10   5    8.60    6.20
  11 -10   5   -0.10    6.40
  11  -1  -5    1.20    6.40
 -10  -1   5    0.80    6.30
  -1 -10  -5    0.10    5.80
  11 -10   5   11.10    5.20
  -1  11   5   10.80    5.80
 -10  -1   5    4.80    4.80
  -1  11   5   19.30    7.40
 -10  11  -5   11.90    6.20
   0  11   5   36.90    7.70
  11   0  -5   46.80    7.80
 -11   0   5   40.70    6.90
  11 -11   5   45.40    8.40
   0 -11  -5   41.40    6.60
 -11  11  -5   45.10    7.30
   0  11   5   46.30    8.50
  11 -11   5   43.60    7.20
 -11   0   5   54.69    8.40
 -12   0  -5   -0.90    6.50
  12 -12  -5    5.00    6.50
   0 -12   5   -0.20    5.10
   0  12  -5    4.50    7.40
 -12  12   5    8.30    6.10
  12   0   5   -1.10    5.10
   1 -12   5  182.68   10.50
  11 -12  -5  203.08   12.70
  11   1   5  187.98   11.40
 -12   1  -5  169.08   11.50
 -12  11   5  180.08   11.10
   1  11  -5  177.48   12.70
 -11  12   5  171.48   11.00
  -1  12  -5  171.98   11.50
  12 -11  -5  185.68   12.40
  12  -1   5  178.48   10.60
  -1 -11   5  175.98   10.40
 -11  -1  -5  179.28   12.70
  10   2   5  116.89    9.10
 -12  10   5  133.29   10.40
 -12   2  -5  121.29    9.90
  10 -12  -5  119.29   10.10
   2 -12   5  123.49    9.10
  -2  12  -5  133.09   11.10
  12  -2   5  133.49    9.30
 -10  -2  -5  112.39   10.10
  -2 -10   5  125.09    9.50
 -10  12   5  122.19    9.50
  12 -10  -5  132.19   10.00
 -12   9   5   13.60    6.10
   9   3   5   19.70    6.30
   3 -12   5   13.00    5.60
 -12   3  -5    8.90    6.70
   9 -12  -5   11.30    6.70
  -9  -3  -5   10.10    6.40
  -3  -9   5   19.70    9.00
  -9  12   5    8.60    5.90
  -3  12  -5   11.60    6.60
  12  -9  -5   28.60    7.70
  12  -3   5   14.60    5.60
  -3  -9   5   19.60    5.60
   8   4   5   47.60    6.30
   8   4   5   29.50    6.30
 -12   4  -5   13.40    7.10
   4 -12   5   24.80    6.00
 -12   8   5   29.60    6.70
   8 -12  -5   28.00    7.00
  -8  -4  -5   28.70    7.00
  12  -4   5   26.70    6.30
  -4  -8   5   36.50    6.70
  12  -8  -5   30.60    7.10
  -4  12  -5   32.50    7.40
  -8  12   5   29.60    7.50
  -4  -8   5   30.40    9.00
   5 -12   5    7.20    5.50
   7   5   5   10.50    5.60
   7 -12  -5    5.50    6.70
 -12   7   5   10.00    5.90
   7   5   5   14.90    4.70
  -7  12   5    6.40    5.90
  12  -7  -5   15.10    6.60
  -5  -7   5    6.80    5.30
  -5  -7   5    5.70    8.10
  -7  -5  -5    4.30    6.80
  -5  12  -5   10.70    6.90
  12  -5   5   11.80    6.00
   6 -12   5    2.30    5.50
   6   6   5    4.60    5.50
   6 -12  -5  -12.80    6.60
   6   6   5   -1.60    4.30
 -12   6   5   -1.30    5.30
   6   6  -5    2.60    4.90
  12  -6  -5    3.30    6.40
  12  -6   5    3.90    7.40
  -6  -6  -5    1.30    6.30
  -6  12  -5    4.10    6.90
  -6  -6   5    8.60    8.10
  -6  -6   5   -1.50    5.50
  12  -6   5   -1.10    4.90
  -6  12   5    2.60    5.80
 -12   5   5  128.19   10.00
   7 -12   5  125.49    8.50
   7 -12   5  134.89    9.90
   5   7   5  129.39    9.50
 -12   7  -5  115.59   11.00
   5   7   5  138.29    9.00
   7   5  -5  119.39    9.50
  -5  -7  -5  126.49   10.10
  -7  -5   5  126.79    9.00
  12  -7   5  139.69    9.80
  -7  -5   5  128.39   11.40
  12  -5  -5  143.19   10.30
  12  -7   5  145.89   13.10
  -7  12  -5  122.29   10.80
  -5  12   5  138.89    9.70
   4   8   5  133.69    9.80
 -12   8  -5  118.39    9.20
   4   8   5  142.29    9.60
   8   4  -5  144.69   10.30
   8 -12   5  145.49   10.30
   8 -12   5  154.68    8.80
 -12   4   5  145.49   10.50
  12  -8   5  140.29    9.20
  -8  -4   5  140.59   11.40
  -8  -4   5  152.98    9.90
  -4  12   5  141.59   10.10
  -4  12   5  153.38   11.10
  -8  12  -5  135.19   11.20
  12  -4  -5  131.59   10.10
  12  -8   5  144.79   12.00
  -4  -8  -5  134.19   10.00
 -12   3   5    0.70    5.90
   3   9   5   11.80    5.60
 -12   3   5    3.00    4.30
   3   9   5    8.40    5.90
   9   3  -5    7.30    6.00
 -12   9  -5    0.30    5.60
   9 -12   5   -0.80    5.60
   9 -12   5    8.90    5.20
  -3  12   5    8.80    6.40
  -9  -3   5    5.00    5.50
  -3  12   5   12.80    6.00
  12  -3  -5    6.70    6.80
  12  -9   5    5.10    5.60
  -9  -3   5    0.20    6.60
  -9  12  -5    4.90    6.60
  -3  -9  -5   -6.00    5.90
  12  -9   5    2.80    7.10
 -12   2   5   58.49    6.90
  10   2  -5   50.89    8.00
  10 -12   5   73.59    8.00
   2  10   5   63.29    9.40
   2  10   5   82.59    8.30
 -12  10  -5   48.30    8.20
  10 -12   5   58.69    8.70
 -12   2   5   61.99    8.60
  12 -10   5   63.79    9.80
  -2 -10  -5   45.80    8.20
 -10  -2   5   60.79    9.60
  -2  12   5   61.09    9.00
 -10  12  -5   65.29    8.90
 -10  -2   5   56.79    7.70
  12 -10   5   70.29    8.30
  12  -2  -5   71.09    9.70
  -2  12   5   76.19    9.40
 -12   1   5   42.90    8.00
  11 -12   5   36.70    7.90
 -12  11  -5   36.20    7.40
   1  11   5   44.80    7.50
   1  11   5   49.80    8.10
 -12   1   5   39.00    6.20
  11   1  -5   47.60    8.00
  11 -12   5   32.40    6.40
   1 -12  -5   26.80    7.70
 -11  -1   5   40.80    8.10
  -1  12   5   48.10    7.60
  12  -1  -5   37.20    7.90
  12 -11   5   46.90    7.70
  -1  12   5   56.89    9.00
 -11  12  -5   41.30    7.70
 -11  -1   5   44.50    7.00
  -1 -11  -5   30.60    6.80
  12 -11   5   37.20    8.00
  12 -12   5   16.40    5.50
  12   0  -5    0.30    6.80
 -12   0   5    7.90    5.20
 -12  12  -5   11.20    6.60
 -12   0   5    3.50    6.80
  12 -12   5    2.50    6.80
   0  12   5   -3.70    6.40
   0  12   5   11.40    6.60
   0 -12  -5    2.70    5.80
   0  13  -5  318.17   15.90
  13 -13  -5  330.97   15.70
  13   0   5  319.97   14.80
 -13   0  -5  346.07   17.00
 -13  13   5  333.37   15.50
 -13   1  -5  275.17   14.40
   1 -13   5  274.97   13.10
 -12  -1  -5  279.17   14.20
  -1  13  -5  234.18   14.70
  -1 -12   5  248.58   12.70
   2  11  -5   -5.10    6.30
   2 -13   5    2.20    5.50
 -13   2  -5   -4.60    6.60
  11   2   5    3.10    5.60
  11 -13  -5   13.50    7.50
 -13  11   5    5.10    6.50
 -11  -2  -5   -4.40    6.30
  13 -11  -5    9.90    6.70
  -2 -11   5    5.70    5.30
  13  -2   5    1.30    5.40
 -11  13   5    3.70    6.80
  -2  13  -5   -0.40    6.70
 -13  10   5   78.79    8.70
 -13   3  -5   89.19   10.50
  10 -13  -5   80.79    9.40
  10   3   5   83.59    8.20
   3 -13   5   84.49    9.10
 -10  -3  -5   79.59    9.40
  -3  13  -5   82.69    9.30
  -3 -10   5   91.09    8.10
  13  -3   5   88.59    8.50
  13 -10  -5   84.59    9.30
 -10  13   5   81.69    8.80
   4 -13   5  119.29    8.90
 -13   4  -5  109.79   10.10
   9   4   5  107.49    8.80
 -13   9   5  104.69    9.40
   9 -13  -5  124.69   10.10
  -4  -9   5  115.59   12.60
  13  -4   5  113.69    9.00
  13  -9  -5  117.99   10.00
  -9  13   5  112.89    9.50
  -4  13  -5  119.09   10.10
  -4  -9   5  113.69    9.40
  -9  -4  -5  102.69    9.80
   5 -13   5   23.10    6.20
 -13   5  -5    9.60    7.10
   8   5   5   26.80    6.30
 -13   8   5   19.40    6.40
   8 -13  -5   13.70    6.90
  13  -8  -5   26.90    8.10
  -8  13   5   25.30    6.60
  -5  -8   5   16.70    8.90
  -5  -8   5   20.00    5.90
  -8  -5  -5   24.70    7.50
  13  -5   5   22.10    5.80
  -5  13  -5   20.40    7.20
   7   6   5    1.60    5.20
 -13   7   5    9.00    6.10
   7   6   5   14.70    4.70
   7 -13  -5    1.80    6.90
   6 -13   5    5.80    5.60
  13  -6   5    3.10    5.90
  -7  -6  -5    2.60    6.10
  -7  13   5    9.00    5.80
  -6  13  -5    8.90    6.50
  13  -7  -5    8.60    6.60
  -6  -7   5    8.00    8.00
  -6  -7   5    4.70    6.00
   7   6  -5   17.50    5.60
   6   7   5   12.20    5.90
   7 -13   5   12.30    6.10
   6   7   5   21.50    5.40
   6 -13  -5    2.00    6.80
 -13   6   5    8.30    6.20
  -7  -6   5    8.70    5.40
  13  -7   5   10.30    5.60
  -6  -7  -5    2.10    5.80
  -7  13  -5    3.30    7.40
  -7  -6   5   15.30    8.50
  -6  13   5   18.70    6.50
  13  -6  -5   19.10    6.80
  13  -7   5    7.30    7.70
   5   8   5   18.00    5.10
   5   8   5   28.00    6.70
   8 -13   5   13.80    6.30
   8   5  -5   46.00    7.80
 -13   5   5   15.60    6.60
   8 -13   5    7.20    5.00
  -8  -5   5   11.50    7.80
  -5  -8  -5    9.80    6.50
  13  -8   5   21.60    6.40
  13  -5  -5   12.80    6.60
  -8  13  -5   20.90    7.60
  -8  -5   5   18.10    6.20
  -5  13   5   22.90    6.70
  13  -8   5    7.50    7.50
   9   4  -5  134.09    9.60
   4   9   5  140.39    9.30
   4   9   5  117.39    9.60
   9 -13   5  125.59    8.30
 -13   4   5  112.19   10.90
   9 -13   5  107.09    9.60
 -13   9  -5   88.09    9.10
  -9  -4   5  116.99    9.60
  13  -4  -5  114.79   10.00
  13  -9   5  108.39    8.90
  -9  13  -5  117.19   10.70
  -4  -9  -5  100.89    9.60
  13  -9   5  113.49   11.60
  -4  13   5  134.49    9.70
  -4  13   5  130.09   11.80
  -9  -4   5  129.09   11.40
  10   3  -5   55.59    8.80
   3  10   5   63.09    9.00
  10 -13   5   57.99    8.60
 -13   3   5   54.69    8.80
 -13  10  -5   60.49    7.90
   3  10   5   87.39    8.30
  10 -13   5   68.09    8.00
  -3  13   5   84.09    9.70
 -10  -3   5   50.19    8.10
  13 -10   5   61.29    8.40
  -3 -10  -5   54.19    8.20
 -10  -3   5   59.79    9.50
 -10  13  -5   59.79    9.30
  -3  13   5   53.09    9.10
  13  -3  -5   66.89   10.10
  13 -10   5   52.29    9.40
   2  11   5    1.50    7.00
  11   2  -5    6.60    6.30
 -13  11  -5    3.90    6.50
 -13   2   5    7.80    6.50
  11 -13   5    2.00    5.40
  11 -13   5    6.20    6.60
 -13   2   5    2.70    4.90
   2  11   5    9.30    6.70
 -11  -2   5    1.80    7.10
 -11  -2   5   -5.00    5.10
 -11  13  -5    2.30    7.00
  -2 -11  -5   -5.60    6.20
  13 -11   5    6.40    6.00
  -2  13   5   15.00    6.90
  -2  13   5   -1.00    7.40
  13 -11   5    9.70    7.40
  13  -2  -5   14.50    7.50
 -13  12  -5   -1.80    6.70
   1  12   5   21.20    7.00
 -13   1   5   10.00    7.10
   1  12   5    5.40    7.50
  12 -13   5    2.10   12.30
  12 -13   5   15.30    5.90
 -13   1   5    9.80    5.60
  12   1  -5   17.30    7.00
  13 -12   5    6.10    5.90
  -1  13   5   16.50    7.40
 -12  -1   5    6.70    7.60
  -1  13   5   16.80    6.60
 -12  13  -5    6.50    6.70
  -1 -12  -5   -0.70    6.30
 -12  -1   5   12.20    5.80
  13  -1  -5    9.30    7.20
   0  13   5   21.90    7.20
  13 -13   5   10.00    7.30
  13 -13   5   19.40    6.70
   0 -13  -5    0.60    6.60
   0  13   5    9.70    8.00
 -13  13  -5    2.80    7.40
  13   0  -5   19.30    7.30
 -13   0   5   11.30    6.00
   0 -14   5  164.08   11.20
 -14  14   5  158.48   11.00
  14 -14  -5  158.38   11.60
  14   0   5  186.18   11.50
   0  14  -5  159.28   11.80
 -14   0  -5  168.78   11.90
 -14   1  -5    6.00    8.20
  13 -14  -5   12.40    7.20
   1  13  -5   12.40    7.20
 -14  13   5   13.00    6.40
   1 -14   5    6.20    5.60
  13   1   5   17.00    6.50
  -1 -13   5   14.20    5.80
  14  -1   5   15.10    5.90
  14 -13  -5   19.40    7.50
 -13  14   5   18.80    7.00
  -1  14  -5   18.60    7.70
   2  12  -5  261.67   14.00
   2 -14   5  251.47   13.10
 -14  12   5  257.47   13.40
  12   2   5  260.27   13.00
  12 -14  -5  257.77   13.90
 -12  14   5  255.47   13.50
  14 -12  -5  266.37   14.10
 -12  -2  -5  282.37   15.30
  14  -2   5  255.97   13.20
  -2 -12   5  289.27   18.60
  -2  14  -5  265.37   14.50
  11   3   5  168.98   10.50
 -14   3  -5  162.88   13.10
 -14  11   5  148.29   12.10
  11 -14  -5  176.18   11.70
   3  11  -5  182.38   12.60
 -11  -3  -5  164.78   11.60
  -3 -11   5  184.68   11.40
  -3  14  -5  158.38   11.50
 -11  14   5  166.38   12.00
   4 -14   5   19.90    7.10
 -14   4  -5   14.80    7.30
  10 -14  -5   22.90   13.20
  -4 -10   5   19.40    6.20
  14 -10  -5   25.30    7.70
 -10  -4  -5   27.60    7.60
  -4  14  -5   28.00    7.60
  14  -4   5   22.10    6.10
   5 -14   5   81.19    8.10
 -14   5  -5   67.09    9.50
   9 -14  -5   80.59   14.50
 -14   9   5   80.19    8.60
   9   5   5   92.39   12.50
  14  -5   5   88.39    8.60
  -5  -9   5   87.09    8.40
  -5  14  -5   85.19    9.60
  14  -9  -5   73.19   10.80
  -9  -5  -5   88.89    9.60
  -9  14   5   81.39    8.70
 -14   6  -5   15.20    7.60
   8 -14  -5   21.70    7.30
   8   6   5   19.10    6.20
 -14   8   5   22.80    6.60
   6 -14   5   20.20    6.10
  14  -8  -5   24.30    7.50
  -6  14  -5   21.50    7.90
  -8  -6  -5   22.50    7.80
  -6  -8   5   14.80    6.10
  -6  -8   5   34.20   11.50
  -8  14   5   26.50    7.60
  14  -6   5   32.00    6.50
 -14   7   5   24.70    6.90
   7 -14   5   27.10    6.60
   7 -14  -5   34.40    7.80
   7   7   5   34.70    7.40
  -7  14  -5   30.60    7.60
  -7  14   5   44.00    8.20
  -7  -7  -5   28.90    6.90
  -7  -7   5   28.90    9.30
  -7  -7   5   25.60    6.90
  14  -7   5   43.80    7.40
  14  -7  -5   45.20    8.70
 -14   6   5   53.99    8.60
   6   8   5   57.39    8.90
   6 -14  -5   62.19    9.40
   8 -14   5   45.70    7.80
   6   8   5   70.09    7.50
  -8  14  -5   56.79    9.20
  -8  -6   5   41.70    7.50
  14  -8   5   48.20    9.50
  -6  14   5   57.59    8.30
  -8  -6   5   48.20    9.80
  14  -6  -5   58.29    9.20
  -6  -8  -5   39.90    8.00
  14  -8   5   49.00    7.50
   5   9   5   19.90    7.20
   9 -14   5   22.40   10.70
   5   9   5   48.60    8.10
   9   5  -5   32.90    8.40
 -14   5   5   16.20    7.00
  -9  14  -5   28.90    8.20
  -9  -5   5   11.80    6.30
  14  -9   5   23.20    6.80
  14  -9   5   15.00    8.50
  -9  -5   5   14.00    8.30
  -5  14   5   24.30    6.80
  14  -5  -5   22.40    8.20
  -5  -9  -5   23.30    7.30
  10   4  -5   21.60    6.70
   4  10   5   31.30   10.40
  10 -14   5   37.90    6.20
 -14   4   5   27.60    7.30
  -4  14   5   28.80    9.00
  14  -4  -5   28.90    7.50
  -4  14   5   43.90    8.50
 -10  -4   5   21.80    9.30
  14 -10   5   34.90    7.10
 -10  -4   5   29.50    7.10
 -10  14  -5   26.00    8.00
  -4 -10  -5   29.50    7.80
  11 -14   5   99.09    9.00
 -14  11  -5   82.19    9.20
  11 -14   5   99.49    9.90
 -14   3   5   99.79    9.10
 -14   3   5   91.99   11.70
   3  11   5  119.09   10.00
  11   3  -5  108.99    9.80
 -11  -3   5  110.49    9.80
  14 -11   5   99.89   11.40
 -11  14  -5  114.89   10.70
  14  -3  -5  118.69   11.50
  14 -11   5  109.39    8.90
  -3  14   5  132.49   11.00
  -3 -11  -5   87.39   10.60
 -14   2   5   26.10    6.00
  12 -14   5   51.19    7.90
   2  12   5   21.90    7.40
  12 -14   5   19.90    7.30
 -14  12  -5   16.00    7.20
  12   2  -5   17.30    7.50
  14 -12   5   26.20    6.50
  14  -2  -5   21.90    8.10
  14 -12   5   20.50    7.90
  -2  14   5   27.30    8.70
 -12  -2   5   23.90    6.80
 -12  14  -5   27.50    8.10
 -12  -2   5   23.20    9.80
  -2 -12  -5    7.60    7.00
  -2  14   5   45.60    8.30
  13 -14   5    0.00    6.90
 -14   1   5    5.70    7.00
   1  13   5    1.90    6.90
  13   1  -5    5.90    7.30
   1  13   5   11.60    7.20
 -14   1   5    5.80    5.70
 -14  13  -5   -5.80    7.10
  13 -14   5    6.00    6.20
  14 -13   5   13.50    6.20
  -1 -13  -5  -15.30    6.50
 -13  -1   5    3.70    6.00
  14  -1  -5    3.60    7.20
 -13  -1   5   -1.60    8.30
  14 -13   5   -1.60    7.10
  -1  14   5    9.20    7.40
 -13  14  -5   -1.60    7.50
  -1  14   5   20.80    7.50
 -14   0   5    1.00    7.20
   0  14   5    0.00    7.20
 -14  14  -5    0.10    7.60
 -14   0   5   -1.60    6.50
  14 -14   5    9.30    6.30
  14 -14   5   -3.40    6.90
  14   0  -5    3.30    7.50
   0  14   5   26.20    8.00
 -15  15   5    2.50    6.30
  15 -15  -5    3.90    7.70
  15   0   5    6.80    5.80
   0 -15   5   13.70    6.10
 -15   0  -5   -1.70    7.60
   0  15  -5   13.10    7.00
  14   1   5  190.48   11.00
 -15   1  -5  185.68   12.60
 -15  14   5  187.18   11.70
   1 -15   5  177.48   10.90
   1  14  -5  182.58   12.30
  14 -15  -5  175.38   12.00
 -14  -1  -5  168.48   12.60
  15  -1   5  187.18   11.10
  -1 -14   5  171.98   10.80
  -1  15  -5  189.58   12.30
 -14  15   5  184.08   11.60
  15 -14  -5  200.48   13.70
  13 -15  -5  132.19   10.60
   2  13  -5  121.59   10.80
 -15  13   5  137.49   10.30
 -15   2  -5  125.09   11.10
   2 -15   5  125.99   10.40
  13   2   5  126.29    9.70
  15 -13  -5  147.29   11.30
  -2 -13   5  135.69    9.80
 -13  15   5  155.68   11.40
  -2  15  -5  128.19   11.10
 -13  -2  -5  146.59   12.70
  15  -2   5  141.59   10.90
 -15   3  -5   20.40    7.70
   3  12  -5   20.30    7.40
  12 -15  -5   13.90    8.00
  12   3   5   19.30    6.30
 -15  12   5   13.10    7.30
   3 -15   5   12.70    6.00
  15  -3   5   12.30    5.90
  -3  15  -5    8.80    7.20
 -12  15   5    5.30    6.60
 -12  -3  -5   12.00    9.00
  -3 -12   5   13.40    6.20
  15 -12  -5   17.40    7.70
  11   4   5  135.29    9.70
 -15   4  -5  145.39   12.30
 -15  11   5  135.79   10.30
   4  11  -5  127.79   10.80
   4 -15   5  133.39    9.70
  11 -15  -5  167.88   12.40
  -4  15  -5  136.49   13.30
 -11  -4  -5  145.49   12.60
  15 -11  -5  129.29   11.00
  15  -4   5  138.99   10.00
 -11  15   5  153.18   11.50
  10   5   5  104.89    9.00
  10 -15  -5  112.19   10.30
 -15   5  -5  112.89   11.40
 -15  10   5  106.99    9.60
   5 -15   5   94.69    8.70
 -10  15   5  100.39    9.50
  -5  15  -5  106.39   11.50
 -10  -5  -5   92.19   11.40
  -5 -10   5  100.49    9.20
  15 -10  -5  128.19   12.80
   6 -15   5   38.90    7.60
   9 -15  -5   39.30    8.00
 -15   9   5   43.20    8.20
   9   6   5   45.60    7.80
 -15   6  -5   45.60    9.40
  15  -6   5   53.49    8.70
  15  -9  -5   42.70    9.40
  -9  15   5   44.10    8.30
  -6  15  -5   40.90    8.90
  -6  -9   5   44.10    7.60
  -9  -6  -5   40.10    7.80
 -15   8   5   44.90   11.40
   8   7   5   51.99    7.80
 -15   7  -5   41.00    8.50
   8 -15  -5   39.30    8.00
   7 -15   5   53.69    7.90
  15  -7   5   61.09    9.00
  -7  -8   5   41.70    7.60
  -7  -8   5   48.00   10.80
  15  -8  -5   58.19    9.40
  -7  15  -5   55.29    9.10
  -8  -7  -5   47.10    8.70
   7 -15  -5    1.70    7.50
   8 -15   5    4.40    6.00
   7   8   5    4.20    5.70
  -7  -8  -5   -4.20    7.20
  15  -7  -5   -2.40    7.00
  -8  -7   5    1.60    8.60
  -7  15   5   11.60   10.60
  15  -8   5    6.90    5.80
  -8  -7   5    7.00    6.40
  -8  15  -5    3.90    7.60
   9 -15   5   27.00    7.10
   6 -15  -5   30.60    8.00
   6   9   5   28.30    6.90
  15  -9   5   27.70    9.10
  -9  15  -5   37.70    8.70
  -9  -6   5   37.90    9.80
  15  -6  -5   26.80    8.00
  -6  15   5   52.39    9.70
  -6  -9  -5   43.60    8.40
  -9  -6   5   30.90    6.90
  15  -9   5   38.50    7.70
   5  10   5  108.49    9.60
  10 -15   5  109.09    9.90
 -15   5   5  117.49   11.70
  15  -5  -5  114.49   11.70
  15 -10   5  116.29    9.40
 -10  -5   5  125.19   12.50
  -5 -10  -5  102.09   10.80
 -10  15  -5  113.99   11.60
  15 -10   5  107.59   11.90
  -5  15   5  138.59   11.40
 -10  -5   5  117.59    9.60
   4  11   5   81.09    9.20
  11 -15   5   47.20    8.60
   4  11   5   54.39    8.70
  11   4  -5   54.49    8.40
 -15   4   5   55.69    9.00
  -4 -11  -5   49.70    8.50
  15 -11   5   62.59    9.10
  15  -4  -5   66.09   10.90
 -11  -4   5   54.19    9.70
  -4  15   5   73.49    9.30
 -11  -4   5   60.09    8.80
 -11  15  -5   63.29    9.00
  15 -11   5   63.89   11.00
 -15   3   5   20.40    6.70
  12 -15   5   24.70    7.50
   3  12   5   22.20    7.20
  12   3  -5   15.60    7.70
 -15   3   5   24.10    7.20
  12 -15   5   20.90    6.50
  15 -12   5   33.30    7.60
 -12  15  -5   14.70    8.30
 -12  -3   5   30.80    7.60
  15 -12   5   22.90    8.40
  15  -3  -5   36.20    8.80
  -3  15   5   30.80    9.00
 -12  -3   5   29.60    9.00
  -3  15   5   50.19    8.80
  -3 -12  -5    7.80    7.20
   2  13   5   63.79    9.10
  13 -15   5   89.29    9.30
  13 -15   5   48.80    8.90
  13   2  -5   58.49    9.00
 -15   2   5   43.20    7.80
   2  13   5   90.09   10.30
 -15   2   5   49.90    8.80
 -13  -2   5   60.69    9.30
  -2  15   5   68.29   10.00
  15  -2  -5   62.79   10.50
  -2 -13  -5   43.80    8.70
  15 -13   5   62.99    9.20
 -13  15  -5   54.39   10.00
  15 -13   5   47.50    9.50
 -13  -2   5   55.79   10.10
  14   1  -5   34.30    8.80
   1  14   5   24.90    7.80
  14 -15   5   22.80    7.90
 -15   1   5   27.80    8.30
  14 -15   5   28.20    7.40
 -15   1   5   23.30    7.80
  15 -14   5   15.50    8.10
 -14  -1   5   10.20    8.00
  15  -1  -5   31.20    9.00
  -1 -14  -5    9.90    7.10
  -1  15   5   22.60    7.70
  -1  15   5   38.60    9.20
 -14  15  -5   12.70    8.20
 -14  -1   5   12.20    7.80
  15 -14   5   34.60    7.40
 -15   0   5   14.90    8.10
 -15   0   5   13.40    7.50
  15   0  -5   13.40    8.10
  15 -15   5   21.30    7.00
  15 -15   5   17.60    7.80
   0  15   5   23.10    8.60
   0  15   5   25.00    8.10
   0 -16   5   91.99    8.90
  16 -16  -5   99.29   11.80
   0  16  -5   94.49   10.40
 -16   0  -5  107.99   11.10
 -16  16   5   96.39    9.40
  16   0   5  107.29   10.10
 -16   1  -5   69.69   10.20
 -16  15   5   76.69    8.90
  15 -16  -5   70.29   11.30
   1  15  -5   73.89    9.70
  15   1   5   69.39    8.20
   1 -16   5   64.79    8.10
  -1 -15   5   67.29    8.20
 -15  -1  -5   84.09   10.70
 -15  16   5   79.09    9.20
  -1  16  -5   75.39   10.00
  16 -15  -5   80.39   10.00
  16  -1   5   54.29    8.20
 -16   2  -5   10.90    8.00
   2  14  -5   18.40    7.50
  14   2   5   11.00    5.90
   2 -16   5    9.30    5.90
  14 -16  -5   11.50    7.20
 -16  14   5    9.90    6.50
  16 -14  -5    5.00    8.10
  -2 -14   5    5.40    6.40
  16  -2   5   11.70    6.20
 -14  -2  -5    6.20    8.80
  -2  16  -5   12.60    8.20
 -14  16   5   15.30    6.80
  13 -16  -5  153.58   11.30
   3 -16   5  150.78   10.30
 -16  13   5  161.68   10.90
   3  13  -5  150.48   11.50
  13   3   5  148.79   10.10
 -16   3  -5  152.88   11.70
  16  -3   5  147.59   10.30
  -3  16  -5  143.39   11.60
  16 -13  -5  150.88   11.50
 -13  -3  -5  148.49   11.80
  -3 -13   5  149.88   10.40
 -13  16   5  155.88   11.00
   4 -16   5   83.49    9.30
  12   4   5   85.89    9.60
 -16   4  -5   64.29   10.00
   4  12  -5   89.49   10.70
  12 -16  -5   74.69    9.60
 -16  12   5   83.89    9.90
  -4 -12   5   69.29    8.50
  -4  16  -5   76.69    9.90
 -12  16   5   79.39    9.10
  16 -12  -5   69.39    9.90
  16  -4   5   85.69    8.80
 -12  -4  -5   77.69   11.80
  11 -16  -5   16.90    8.20
 -16  11   5   17.90    6.80
  11   5   5   19.80    6.40
   5  11  -5   12.40    7.10
 -16   5  -5   17.40    7.70
   5 -16   5   17.40    6.20
  16 -11  -5   26.10    8.60
  -5  16  -5   18.60    7.70
  -5 -11   5   14.50    7.00
 -11  -5  -5   17.40    7.70
  16  -5   5   19.40    6.90
 -11  16   5   15.80    6.90
   6 -16   5   85.79    9.30
 -16   6  -5   92.79   10.00
  10 -16  -5   89.39   10.00
  10   6   5   84.19    8.60
 -16  10   5   94.99    9.20
  16 -10  -5   96.29   11.60
 -10  -6  -5   94.19   11.30
  -6  16  -5   95.99   10.50
 -10  16   5   89.69   10.40
  16  -6   5   89.99    8.80
 -16   9   5    9.50    7.20
 -16   7  -5    4.80    8.20
   9 -16  -5   13.80    7.30
   7 -16   5    8.20    6.00
   9   7   5    9.60    6.00
  16  -9  -5   14.90    7.90
  -9  16   5   10.80    6.40
  -9  -7  -5    4.30    7.70
  -7  16  -5    5.10    8.30
  -7  -9   5   13.70    7.00
  16  -7   5    5.50    6.00
 -16   8   5   54.19    9.50
   8 -16  -5   54.69    9.10
 -16   8  -5   45.40    9.00
   8   8   5   49.40    8.00
   8 -16   5   41.30    7.50
  -8  16   5   61.49    8.80
  -8  -8   5   47.80    8.20
  -8  -8  -5   41.80    8.90
  16  -8  -5   43.50   10.10
  -8  -8   5   66.79   12.30
  -8  16  -5   56.09    9.80
   9 -16   5   91.99    9.40
   7   9   5  102.79   10.20
   7 -16  -5   93.09   10.10
 -16   7   5  112.99   11.30
  -9  -7   5   83.49   10.30
  16  -9   5  102.29   10.10
  16  -7  -5   87.49   16.30
  -7  16   5  113.29   10.10
  -9  16  -5   94.09   11.70
  -9  -7   5   94.79   14.00
  -7  -9  -5   88.29   10.80
   6  10   5   43.60    7.60
 -16   6   5   59.69    9.50
   6 -16  -5   48.80    9.70
  10 -16   5   48.10    8.30
  16  -6  -5   48.20    9.90
 -10  16  -5   49.99    9.20
 -10  -6   5   58.19    8.90
 -10  -6   5   48.30   10.30
  -6  16   5   59.19    9.00
  -6 -10  -5   50.09    9.10
  16 -10   5   44.30    9.70
  16 -10   5   47.80    8.30
  11 -16   5   12.40    7.30
   5  11   5   14.90    6.80
   5 -16  -5   17.30    8.00
 -16   5   5   24.40    8.40
 -11  -5   5   20.30    7.30
  16 -11   5   20.30    7.50
  16  -5  -5   15.50    8.00
 -11  -5   5   28.20    9.50
 -11  16  -5   20.10    8.60
  -5 -11  -5   14.30    6.90
  -5  16   5   21.20    7.20
  16 -11   5   22.70    8.80
  12   4  -5  138.19   10.90
  12 -16   5  135.69   11.90
 -16   4   5  139.59   11.00
   4  12   5  140.69   10.60
  -4  16   5  136.79   13.20
 -12  16  -5  107.09   10.90
  16 -12   5  122.39   12.50
  16  -4  -5  146.39   12.70
  16 -12   5  159.98   11.40
 -12  -4   5  140.09   10.70
 -12  -4   5  145.29   12.70
  -4 -12  -5  108.29   11.50
   3  13   5  111.09   10.80
  13   3  -5  101.09   10.70
   3  13   5   82.29    9.50
  13 -16   5   86.59    9.80
 -16   3   5   88.29   10.30
  -3  16   5   87.29   12.30
  16  -3  -5   78.79   11.50
 -13  -3   5   70.09    9.50
 -13  -3   5   83.19   11.20
 -13  16  -5   83.99   10.80
  16 -13   5   76.49   11.40
  -3 -13  -5   61.29   10.20
  16 -13   5  101.99   10.30
  -3  16   5   89.39   12.10
 -16   2   5   10.20    7.30
   2  14   5   35.60    9.20
 -16   2   5   32.30    9.00
  14   2  -5   41.10    8.00
  14 -16   5   27.40    7.80
  14 -16   5   28.60    7.40
  16 -14   5   23.00    8.90
 -14  16  -5   35.80    9.30
  16  -2  -5   22.60    8.20
  -2 -14  -5   18.70    7.90
 -14  -2   5   29.50    9.00
 -14  -2   5   17.00    7.80
  -2  16   5   37.60    9.40
 -16   1   5    8.10    7.10
   1  15   5   38.10    9.20
  15 -16   5   12.20    7.40
   1  15   5   22.70    8.70
  15 -16   5   32.80    7.60
  15   1  -5   25.10    8.10
 -16   1   5   21.70    9.00
 -15  -1   5    7.90    7.50
  16 -15   5   15.20    8.20
 -15  16  -5  -15.70    9.40
  16 -15   5   40.40    8.10
 -15  -1   5   19.10    9.30
  -1  16   5   13.80    8.60
  16  -1  -5   10.00    8.40
 -16   0   5   19.30    8.50
   0  16   5   32.30    9.30
 -16   0   5   35.00    8.80
  16 -16   5   22.00    8.20
  16   0  -5   27.20    8.50
   0 -17   5   15.10    6.40
 -17   0  -5   23.70    8.80
   0  17  -5   21.10    7.80
  17   0   5   21.90    6.30
  17 -17  -5   22.30    8.50
 -17  17   5   25.90    7.70
 -17   1  -5   11.90    8.10
   1 -17   5    2.70    5.50
  16   1   5    7.80    6.20
 -17  16   5   -0.40    7.20
   1  16  -5   12.10    7.40
  16 -17  -5    0.80    7.30
  17  -1   5    7.30    6.20
  17 -16  -5   -6.80    7.20
  -1 -16   5    1.20    5.80
  -1  17  -5   -1.20    8.00
 -16  17   5    8.00    6.70
 -16  -1  -5    0.20    7.90
   2 -17   5   72.69    8.20
  15 -17  -5   79.19   10.00
 -17  15   5   83.19   10.20
   2  15  -5   80.49    9.70
  15   2   5   76.09    8.50
 -17   2  -5   84.19   10.00
  17 -15  -5   72.09   10.00
  -2  17  -5   77.09    9.90
 -15  -2  -5   71.79   10.40
  -2 -15   5   56.59    7.90
 -15  17   5   78.59    9.00
  17  -2   5   82.69    9.60
 -17   3  -5   59.79   10.30
   3  14  -5   58.79    9.40
  14 -17  -5   61.39    9.40
   3 -17   5   59.89    8.00
 -17  14   5   61.39    9.60
  14   3   5   59.39    8.00
 -14  -3  -5   69.79   11.70
  17  -3   5   69.09    9.40
  17 -14  -5   67.89   10.30
 -14  17   5   63.09    8.80
  -3 -14   5   62.39    8.40
  -3  17  -5   58.09    9.80
  13 -17  -5   24.20    7.60
   4  13  -5   23.30    7.50
 -17  13   5   23.00    7.10
 -17   4  -5   28.40    9.10
  13   4   5   29.20    6.80
   4 -17   5   18.60    6.30
  17  -4   5   28.50    6.90
 -13  -4  -5   15.60    8.00
  -4  17  -5   20.40    8.00
  17 -13  -5   20.10    8.20
  -4 -13   5   22.70    6.80
 -13  17   5   18.10    6.80
   5  12  -5   82.29    9.70
 -17  12   5   70.89    8.70
  12   5   5   82.29    8.50
  12 -17  -5   87.09    9.70
   5 -17   5   75.99    8.50
 -17   5  -5   66.39   10.00
  -5  17  -5   82.69   10.20
 -12  17   5   70.09    8.80
 -12  -5  -5   79.39   10.10
  -5 -12   5   80.59    9.90
  17 -12  -5   81.99   11.70
  17  -5   5   83.09    8.70
   6  11  -5   25.30    7.40
  11 -17  -5   18.80    7.60
 -17  11   5   17.40    6.80
 -17   6  -5   23.00    8.00
  11   6   5   21.60    6.40
   6 -17   5   22.00    6.30
  17 -11  -5   20.80    9.30
  17  -6   5   18.60    6.50
  -6 -11   5   25.00    7.10
 -11  -6  -5   21.80    7.70
  -6  17  -5   26.90    8.00
 -11  17   5   31.00    7.50
  10   7   5   45.30    7.80
 -17  10   5   42.20    8.00
 -17   7  -5   47.70    8.80
   7 -17   5   38.90    7.10
   7  10  -5   37.00    8.50
  10 -17  -5   40.30    8.10
  -7 -10   5   46.70    8.50
  17 -10  -5   48.40    9.10
 -10  -7  -5   32.70    9.40
 -10  17   5   49.10    8.50
  -7  17  -5   44.40    8.90
  17  -7   5   44.10    7.90
   9   8   5   92.59    9.70
   9 -17  -5  103.59   11.30
   8 -17   5   77.39    8.70
 -17   8  -5   92.09   11.70
 -17   9   5   87.59   10.30
  -9  17   5   93.89    9.80
  17  -9  -5   92.49   12.00
  17  -8   5   91.29   10.20
  -8  17  -5   81.29   11.80
  -8  -9   5   74.59    9.20
  -9  -8  -5   88.09   11.60
   8 -17  -5   27.50    7.80
   8   9   5   30.90    7.10
 -17   8   5   26.00    7.40
 -17   9  -5   21.30    8.30
   9 -17   5   25.50    7.00
  -8  17   5   28.20    7.30
  17  -9   5   24.20    6.90
  -9  -8   5   24.50   12.30
  -8  -9  -5   17.20    7.80
  -9  -8   5   24.80   11.00
  17  -8  -5   26.20    8.50
  10 -17   5   15.40    6.60
   7 -17  -5   17.40    8.20
 -17   7   5   14.50    6.90
   7  10   5   13.10    6.70
  -7 -10  -5    5.70    6.70
 -10  -7   5   14.30   10.60
  -7  17   5   24.30    7.40
 -10  17  -5   17.50    8.20
 -10  -7   5   11.40    6.90
  17  -7  -5   20.80    8.30
  17 -10   5   21.60    7.40
  11 -17   5  133.79   10.60
   6  11   5  136.49   10.40
 -17   6   5  138.29   11.90
   6 -17  -5  143.59   11.20
  17 -11   5   81.59   14.80
 -11  -6   5  127.99   13.30
  17 -11   5  135.69   13.10
 -11  17  -5  116.39   11.60
  17  -6  -5  130.79   11.40
  -6  17   5  138.59   11.10
 -11  -6   5  133.09   10.80
  -6 -11  -5  115.89   11.50
   5  12   5  102.89    9.80
 -17   5   5   95.79   11.20
   5  12   5  121.89   11.50
  12 -17   5   87.49    9.80
   5 -17  -5   98.19   10.70
 -12  -5   5   83.29   11.30
  -5  17   5  104.59   10.60
  17 -12   5   89.19   11.50
  17  -5  -5   90.79   16.50
  17 -12   5  120.79   14.40
  -5 -12  -5   70.89   11.00
 -12  -5   5   80.39   11.90
 -12  17  -5   85.59   11.50
 -17   4   5   43.50    8.70
   4  13   5   42.10    8.60
  13 -17   5   23.30    7.50
  17 -13   5   31.30    9.30
 -13  -4   5   51.29   11.50
  17 -13   5   68.99   10.10
 -13  17  -5   28.00    9.30
 -13  -4   5   35.90    9.40
  -4 -13  -5   35.00    8.60
  -4  17   5   68.59   11.30
   3  14   5  104.49   11.10
 -17   3   5   92.99   10.50
  14 -17   5   86.59   10.40
 -14  -3   5   98.69   11.60
  17  -3  -5  108.09   11.80
 -14  17  -5  116.29   12.00
  -3  17   5  105.89   11.20
 -14  -3   5   97.39   13.10
  -3 -14  -5   84.69   11.50
  17 -14   5   91.49   11.90
  17 -14   5  139.19   11.60
 -17   2   5   44.30    9.10
  15   2  -5   35.30    8.30
  15 -17   5   37.60    8.70
   2  15   5   46.20    8.60
  15 -17   5   55.39    8.90
 -17   2   5   36.60    9.00
   2  15   5   82.39   11.90
  -2  17   5   50.79   10.30
 -15  -2   5   44.70    9.90
 -15  -2   5   53.19    9.40
  -2  17   5   48.30   10.20
  17 -15   5   73.79   10.60
  17 -15   5   25.40    9.10
  17  -2  -5   44.90   10.20
 -17   1   5    6.90    8.30
   1  16   5    8.90    7.90
  16 -17   5   39.20    8.60
 -17   1   5   25.70    9.70
  16 -17   5   16.10    7.80
  16   1  -5   14.50    7.80
 -16  -1   5    2.60    8.50
  -1  17   5   18.40    8.80
 -16  17  -5    6.20    8.90
  -1  17   5   29.20    8.30
  17  -1  -5   11.70    8.20
  17 -16   5    7.80    8.00
 -16  -1   5   12.20    7.80
  17   0  -5    0.60    8.10
   0  17   5   -8.40    7.70
  17 -17   5   -6.80    8.10
 -17   0   5    7.60    8.30
   0  17   5   24.70    8.30
 -17   0   5   -1.70    8.70
 -18  18   5    1.10    6.40
   0  18  -5    6.20    8.20
  18   0   5    1.30    5.90
   0 -18   5   -6.30    5.60
 -18   0  -5    7.20    8.60
  18 -18  -5    4.70    7.80
  17 -18  -5   21.70    8.00
  17   1   5   16.60    6.50
 -18  17   5   27.30    8.20
 -18   1  -5   11.30    8.40
   1 -18   5   13.70    6.10
   1  17  -5    9.60    7.50
 -17  -1  -5    6.60    8.50
  -1  18  -5   18.20    7.90
 -17  18   5   15.50    7.10
  -1 -17   5   11.80    6.10
  18  -1   5    8.30    6.30
  18 -17  -5   10.50    7.80
  16 -18  -5   11.50    7.70
   2  16  -5   13.60    7.50
 -18   2  -5   12.80    9.00
 -18  16   5   13.20    6.80
  16   2   5   12.30    6.90
   2 -18   5   10.60    6.60
  18  -2   5   15.80    7.00
  -2  18  -5   14.20    7.90
 -16  18   5   11.30    6.70
 -16  -2  -5   10.20    8.20
  18 -16  -5   18.60    8.10
  -2 -16   5   12.50    6.80
 -18  15   5   11.10    7.20
  15 -18  -5    3.60    7.30
   3  15  -5    9.30    7.00
 -18   3  -5   15.20    8.10
  15   3   5    2.20    5.80
   3 -18   5    1.40    6.30
  18  -3   5    2.10    5.90
  -3  18  -5    5.30    8.10
 -15  -3  -5    6.10    8.60
  -3 -15   5    6.80    6.30
  18 -15  -5   12.20    8.90
 -15  18   5    3.80    7.00
   4 -18   5   41.50    7.20
 -18   4  -5   43.90    9.40
   4  14  -5   35.60    8.30
  14   4   5   53.99    8.10
 -18  14   5   52.69    8.90
  14 -18  -5   52.29    9.40
 -14  18   5   54.69    8.60
  -4 -14   5   50.39    8.20
 -14  -4  -5   40.10    8.70
  -4  18  -5   45.00    8.60
  18 -14  -5   46.10    9.20
  18  -4   5   55.09    8.40
 -18  13   5   14.90    6.90
   5 -18   5   13.90    6.10
   5  13  -5   17.50    8.00
  13 -18  -5   -3.30    6.90
  13   5   5   15.30    6.10
 -18   5  -5   17.30    8.20
 -13  18   5   13.90    7.40
  18 -13  -5   13.30    8.10
  -5  18  -5   12.80    7.90
 -13  -5  -5   19.50    8.80
  -5 -13   5   23.30    7.40
  18  -5   5   14.90    6.40
 -18   6  -5   35.30    9.40
   6  12  -5   22.60    7.50
  12 -18  -5   38.10    8.60
 -18  12   5   30.90    7.30
   6 -18   5   23.30    6.30
  12   6   5   25.70    7.30
  18  -6   5   27.30    6.80
  -6 -12   5   29.70    7.30
 -12  -6  -5   21.20    8.00
 -12  18   5   30.70    7.60
  -6  18  -5   25.20    8.60
  18 -12  -5   36.20    9.40
  11 -18  -5   78.89   10.10
 -18   7  -5   72.29   10.00
   7  11  -5   69.49    9.30
 -18  11   5   69.29    9.10
   7 -18   5   70.09    9.30
  11   7   5   73.59    8.60
 -11  18   5   79.89    9.20
  -7 -11   5   56.09    9.80
 -11  -7  -5   62.29   10.30
  -7  18  -5   76.09   10.30
  18 -11  -5   80.69   11.80
  18  -7   5   63.59    8.70
   8  10  -5   13.50    7.00
 -18  10   5    6.80    7.10
  10 -18  -5   15.50    8.20
 -18   8  -5   18.70    8.00
  10   8   5   19.50    7.10
   8 -18   5    4.90    6.00
  18  -8   5    9.70    6.20
 -10  18   5   11.90    6.80
 -10  -8  -5    9.40    8.60
  -8  18  -5   14.40    8.60
  18 -10  -5   11.80    8.40
  -8 -10   5   13.60    6.80
   9 -18   5   33.30    7.90
 -18   9   5   36.40    8.60
   9 -18  -5   27.50    8.10
 -18   9  -5   23.40    8.30
   9   9   5   35.80    7.10
  -9  -9   5   41.90    8.60
  -9  18  -5   43.50    9.30
  18  -9  -5   33.00    9.60
  18  -9   5   33.20    7.80
  -9  18   5   40.50    8.50
  10 -18   5  103.39    9.70
 -18  10  -5  100.89   10.80
 -18   8   5  127.69   11.60
   8 -18  -5  124.49   11.70
   8  10   5  104.59    9.50
  -8 -10  -5  101.49   11.90
  -8  18   5  119.79   11.50
  18 -10   5  111.49   10.90
 -10  18  -5  102.99   12.90
  18  -8  -5  111.49   12.70
 -10  -8   5  102.09   10.00
   7  11   5   71.19   10.00
   7 -18  -5   86.29   11.10
  11 -18   5   72.89    9.20
 -18   7   5   74.79   10.60
  -7  18   5   89.39    9.80
 -11  18  -5   68.79   12.10
 -11  -7   5   87.19   14.70
  18 -11   5   98.09    9.70
  18  -7  -5   93.89   12.00
 -11  -7   5   76.39    9.80
  -7 -11  -5   84.19   11.20
   6 -18  -5    8.90    7.70
 -18   6   5   10.80    8.30
  12 -18   5   11.50    6.70
   6  12   5   19.10    7.80
  18 -12   5   15.40    7.40
  18  -6  -5   15.70    9.20
 -12  -6   5    3.90    8.10
  -6  18   5   19.60    7.80
 -12  -6   5   24.20   11.20
  -6 -12  -5   -1.00    7.20
  18 -12   5   12.90    9.10
   5  13   5  157.38   11.30
 -18   5   5  175.98   13.00
   5 -18  -5  157.18   12.10
  13 -18   5  160.58   12.60
  18  -5  -5  176.18   13.90
  18 -13   5  155.78   13.70
 -13  18  -5  142.09   12.50
 -13  -5   5  160.28   15.70
  18 -13   5  198.98   13.00
  -5 -13  -5  167.48   12.60
 -13  -5   5  134.69   13.10
   4 -18  -5  103.89   11.10
  14 -18   5  100.49   10.30
   4  14   5  100.29   10.10
 -18   4   5   87.59   10.30
  18 -14   5  116.19   11.50
  -4 -14  -5   93.29   11.10
 -14  -4   5   94.29   12.30
 -14  18  -5  105.19   12.40
  -4  18   5  107.79   12.30
  18  -4  -5   77.49   11.90
  18 -14   5   90.59   11.90
   3  15   5    1.00    7.50
 -18   3   5    7.70    7.80
   3  15   5   17.60    9.70
  15 -18   5   15.20    7.50
  18  -3  -5    3.00    8.50
 -15  -3   5    7.30    9.60
  -3  18   5   24.00    7.90
  -3 -15  -5   16.40    7.80
  18 -15   5    1.10    8.70
 -15  18  -5   -5.80   10.00
  18 -15   5   15.20    8.60
 -18   2   5   22.70    9.10
  16 -18   5    8.60    7.50
   2  16   5    6.20   16.70
 -18   2   5   22.30    8.90
   2  16   5   29.70    9.20
  16   2  -5   32.90    9.90
 -16  -2   5   23.40   10.20
 -16  -2   5   21.80   10.40
  -2  18   5   15.50    8.50
  18 -16   5   18.00    8.70
 -16  18  -5   26.60    9.60
  18  -2  -5   17.00    8.80
 -18   1   5   30.80    9.60
   1  17   5   26.30    9.50
   1  17   5   65.49   11.70
  17   1  -5   30.40    9.20
  17 -18   5   24.70    8.50
 -18   1   5   28.20    9.90
 -17  -1   5   27.90    9.80
  -1  18   5   28.00    9.40
  18  -1  -5   23.20    9.20
  18 -17   5   26.10    8.80
  18 -17   5   53.19   11.60
 -17  -1   5   27.40    9.40
  18 -18   5   12.50    8.50
   0  18   5   12.30    9.60
   0  18   5   19.70    9.70
 -18   0   5   -0.70   10.30
 -18   0   5    1.60    9.20
  18   0  -5   -4.90    9.80
   1  18  -5    8.70    8.70
   1 -19   5   15.00    6.40
  18   1   5   16.50    7.40
 -19  18   5   14.70    8.20
 -19   1  -5   15.40    9.80
  18 -19  -5   16.10    8.80
  19  -1   5   14.70    6.90
 -18  -1  -5   15.30    8.70
  -1 -18   5   14.20    6.20
 -18  19   5   15.80    7.20
  -1  19  -5   14.30    8.20
  19 -18  -5    5.10    9.00
  17 -19  -5    1.40    7.30
  17   2   5    2.60    6.00
   2 -19   5    0.30    6.40
 -19  17   5    6.60    6.70
 -19   2  -5    0.60    8.30
   2  17  -5    5.20    7.40
  -2  19  -5    4.10    7.70
  -2 -17   5   -7.50    6.10
  19  -2   5   -4.20    6.40
 -17  -2  -5   -6.90    7.70
 -17  19   5   -5.60    6.20
  19 -17  -5   -3.60    7.80
  16   3   5   12.90    6.30
  16 -19  -5   11.70    8.40
   3  16  -5    6.90    7.60
 -19   3  -5   -2.60    8.10
 -19  16   5   11.70    6.70
   3 -19   5   11.40    6.00
  -3  19  -5    1.70    7.70
  19 -16  -5    6.40    8.60
  19  -3   5    5.30    6.20
 -16  -3  -5    2.70    7.80
 -16  19   5    7.90    6.70
  -3 -16   5   10.80    6.40
 -19   4  -5    9.00    7.90
  15 -19  -5    7.30    7.50
  15   4   5    4.10    6.30
 -19  15   5   11.70    6.90
   4  15  -5    5.20    8.00
   4 -19   5    6.00    5.70
  -4  19  -5   11.20    8.80
  19 -15  -5   -0.80    7.70
  19  -4   5    5.20    6.40
 -15  19   5   -0.10    6.20
 -15  -4  -5    9.30    8.80
  -4 -15   5   13.00    6.30
 -19  14   5   15.00    7.70
   5  14  -5    8.80    7.40
  14   5   5   15.00    6.40
 -19   5  -5    8.10    7.90
  14 -19  -5   16.00    8.20
   5 -19   5   20.60    6.20
  -5  19  -5   13.80    8.00
  19  -5   5   15.90    6.50
  -5 -14   5    9.60    6.50
  19 -14  -5   18.10    8.20
 -14  -5  -5    5.50    8.00
 -14  19   5   10.40    6.80
  13 -19  -5   13.90    7.20
   6 -19   5   10.70    6.50
 -19   6  -5   14.30    8.20
   6  13  -5   14.20    7.40
  13   6   5   16.70    6.50
 -19  13   5   11.00    6.90
 -13  19   5   14.10    7.00
  -6  19  -5    5.70    7.90
 -13  -6  -5   16.90    9.00
  19  -6   5   17.40    7.10
  19 -13  -5   16.90    8.30
  -6 -13   5   10.40    6.60
  12   7   5    3.40    6.00
   7 -19   5    1.60    5.70
   7  12  -5    0.10    6.50
  12 -19  -5    9.40    7.40
 -19   7  -5    6.10    7.60
 -19  12   5    2.30    7.30
  19 -12  -5   -1.20    7.80
  -7  19  -5    8.20    8.00
 -12  -7  -5   -2.40    8.70
  19  -7   5    3.90    6.70
  -7 -12   5    4.80    7.20
 -12  19   5    7.80    6.50
  11   8   5   45.70    8.20
   8 -19   5   44.70    8.00
 -19   8  -5   36.70    8.50
 -19  11   5   38.20    7.80
  11 -19  -5   36.20    9.20
   8  11  -5   44.80    9.00
  19  -8   5   37.60    7.50
 -11  -8  -5   52.69   10.00
  -8 -11   5   35.20    7.90
 -11  19   5   37.80    8.00
  19 -11  -5   52.19   10.20
  -8  19  -5   38.90    9.20
  10 -19  -5   57.59    9.80
   9 -19   5   71.99    8.60
 -19  10   5   70.89    9.10
   9  10  -5   73.19   10.80
  10   9   5   64.19    8.50
 -19   9  -5   73.39    9.80
  -9 -10   5   65.99   10.40
 -10  19   5   75.69   10.30
  19  -9   5   71.59    9.10
  19 -10  -5   72.89   10.60
 -10  -9  -5   67.69   10.50
  -9  19  -5   69.49   11.30
   9 -19  -5   40.10    9.20
  10 -19   5   31.60    7.30
 -19   9   5   41.60    9.60
 -19  10  -5   32.80    8.70
   9  10   5   43.40    8.20
  19 -10   5   43.20    8.70
 -10  19  -5   20.70    9.10
  -9 -10  -5   35.70    9.60
 -10  -9   5   41.00    8.70
  19  -9  -5   39.00    9.80
  -9  19   5   47.00    8.80
  11 -19   5   10.00    6.60
   8 -19  -5   13.00    8.30
 -19   8   5   11.40    8.10
   8  11   5   17.50    7.80
 -19  11  -5   12.20    8.00
 -11  -8   5   17.40    7.50
  19  -8  -5   27.00    9.40
  -8  19   5   23.60    8.10
  19 -11   5   22.10    7.50
 -11  19  -5    8.40    8.30
  -8 -11  -5   16.50    8.30
 -19   7   5  166.58   13.00
   7  12   5  151.68   11.10
   7 -19  -5  150.68   11.60
  12 -19   5  139.29   11.00
 -12  -7   5  140.59   11.60
 -12  19  -5  139.59   12.60
  19  -7  -5  154.08   13.90
  -7  19   5  164.68   13.10
  19 -12   5  163.58   12.40
 -12  -7   5  150.48   16.50
 -19   6   5  132.69   12.20
  13 -19   5  129.49   10.70
   6  13   5  122.79   10.80
   6 -19  -5  145.19   11.60
  -6  19   5  123.29   11.50
 -13  -6   5  115.29   15.60
 -13  19  -5  139.79   13.20
  -6 -13  -5  126.49   12.10
 -13  -6   5  122.09   12.40
  19 -13   5  130.79   10.80
  19  -6  -5  125.59   13.50
   5 -19  -5    6.50    7.90
  14 -19   5    8.60    6.90
 -19   5   5    8.30    8.60
   5  14   5    9.30    7.20
 -14  -5   5    6.10    8.40
 -14  -5   5    3.00    9.70
 -14  19  -5    2.10   10.30
  19 -14   5   15.10    8.80
  19 -14   5   11.70    7.90
  19  -5  -5   14.00    8.40
  -5  19   5   12.50    7.40
  -5 -14  -5    0.40    8.00
   4 -19  -5   79.69   10.40
  15 -19   5   55.69    9.70
 -19   4   5   66.39    9.90
   4  15   5   64.09    9.40
   4  15   5   77.79   12.60
  -4  19   5   74.29   11.50
  19  -4  -5   62.49   11.30
  19 -15   5   56.39   10.60
 -15  -4   5   66.29   11.10
 -15  -4   5   67.29   12.50
  -4 -15  -5   53.49    9.80
  19 -15   5   83.69   11.40
   3  16   5   33.50    8.70
  16 -19   5   33.90    8.50
 -19   3   5   32.10    9.10
   3  16   5    5.70   19.20
  -3 -16  -5   13.80    8.40
 -16  -3   5   32.20   11.90
  19 -16   5   57.49   10.10
  -3  19   5   38.30    9.80
  19 -16   5   24.40    9.60
 -16  19  -5   29.90   10.50
  19  -3  -5   41.30    9.50
 -16  -3   5   21.80    9.30
  17 -19   5    8.20    8.40
   2  17   5    3.30    8.50
   2  17   5   11.60   10.40
 -19   2   5    7.70    8.40
 -17  -2   5    8.90   10.20
  19 -17   5    7.80    8.70
 -17  -2   5    5.10    8.70
 -17  19  -5   14.50    9.80
  19  -2  -5    9.00    9.00
  -2  19   5   16.90    8.10
  19 -17   5   29.90    9.50
   1  18   5   -7.50    9.30
 -19   1   5  -18.10    8.70
   1  18   5    7.20    8.60
  18 -19   5    8.80    8.20
 -19   1   5   -0.20    9.80
  19  -1  -5   10.80    9.20
 -18  -1   5   -0.80   10.10
  19 -18   5   -1.10    9.20
  -1  19   5   -1.10    9.80
 -18  -1   5   -6.70    9.00
  -1  19   5  -10.90    8.20
 -20   4  -5    1.50    8.10
  16   4   5    8.10    7.10
  16 -20  -5    3.90    8.40
   4  16  -5    2.90    7.60
   4 -20   5    0.30    5.60
 -20  16   5   -0.20    6.90
  -4 -16   5    1.20    7.00
  20 -16  -5   -1.50    7.80
 -16  20   5    0.90    7.20
  20  -4   5   -4.00    6.20
 -16  -4  -5   -1.30    7.90
  -4  20  -5   -1.20    8.50
 -20  15   5   10.80    7.70
   5 -20   5    2.80    5.90
   5  15  -5    1.10    7.10
 -20   5  -5    3.40    8.20
  15 -20  -5   -6.00    7.20
  15   5   5   -6.10    6.60
  -5 -15   5    1.40    6.40
 -15  20   5    7.00    6.80
  20 -15  -5   -1.90    8.10
 -15  -5  -5   -2.50    9.00
  -5  20  -5   -1.10    7.90
  20  -5   5    2.60    6.20
 -20   6  -5    5.50    9.00
   6 -20   5    6.40    5.70
  14 -20  -5    8.60    7.40
  14   6   5    0.80    6.80
 -20  14   5    1.60    7.60
   6  14  -5   13.30    8.20
  -6 -14   5    7.20    6.40
  20 -14  -5   -0.80    8.00
 -14  20   5   12.60    7.80
 -14  -6  -5   10.50    8.20
  20  -6   5    8.70    7.20
  -6  20  -5   -0.10    8.20
 -20  13   5   14.00    7.20
   7  13  -5   20.40    8.20
   7 -20   5   15.50    6.00
  13 -20  -5   10.10    8.40
  13   7   5   22.50    7.40
 -20   7  -5    7.10    8.30
  -7 -13   5   13.50    7.00
 -13  20   5   18.80    7.00
 -13  -7  -5   12.20    8.20
  20 -13  -5    1.80    8.40
  -7  20  -5   18.50    8.90
  20  -7   5   17.30    7.60
   8  12  -5   15.60    7.20
   8 -20   5   23.90    6.70
  12 -20  -5   19.00    7.70
 -20  12   5   18.50    8.20
  12   8   5   17.30    6.70
 -20   8  -5   23.10    9.20
  -8  20  -5   15.80    9.00
  20 -12  -5   15.70    8.40
  -8 -12   5   13.40    7.00
 -12  20   5   24.60    7.40
 -12  -8  -5   17.60    8.30
  20  -8   5   21.50    7.80
 -20   9  -5   18.30    8.10
  11 -20  -5   17.20    8.20
   9 -20   5   12.70    6.40
  11   9   5   20.40    6.70
 -20  11   5   20.80    7.30
   9  11  -5   22.10    7.50
  20 -11  -5   22.80    9.70
  20  -9   5   19.70    7.20
 -11  20   5   25.70    7.30
 -11  -9  -5   28.40    8.60
  -9  20  -5   16.40    8.90
  -9 -11   5   16.00    7.10
  10  10   5   26.20    7.20
  10 -20   5   26.00    7.80
 -20  10  -5   36.40    8.70
 -20  10   5   18.00    8.00
  10  10  -5   32.40    7.60
  10 -20  -5   26.00    9.00
 -10  20  -5   38.90   10.20
 -10 -10   5   36.90    8.80
  20 -10  -5   28.10    8.90
  20 -10   5   27.20    7.50
 -10  20   5   30.00    8.30
 -10 -10  -5   21.50    9.20
 -20  11  -5  108.29   11.00
  11   9  -5   85.59   10.50
 -20   9   5  119.19   11.80
   9  11   5  121.99   11.10
   9 -20  -5  115.29   12.10
  11 -20   5   95.89    9.90
  -9 -11  -5   72.19   10.20
  20 -11   5  117.19   11.50
 -11  -9   5  100.99   10.50
 -11  20  -5   99.29   13.00
  20  -9  -5  105.79   11.30
  -9  20   5  106.59   11.50
  12 -20   5   88.69    9.60
   8 -20  -5   92.19   10.70
   8  12   5   80.99    9.40
 -20  12  -5   94.59   11.00
 -20   8   5   95.69   11.50
 -12  20  -5   84.19   12.80
  20  -8  -5   82.39   12.70
  -8 -12  -5   77.49   11.80
 -12  -8   5   95.89   10.50
  -8  20   5  107.99   11.90
  20 -12   5  106.69   10.10
  13 -20   5   -4.50    6.00
 -20  13  -5    8.90    8.30
   7  13   5   12.40    7.10
   7 -20  -5    1.80    7.70
 -20   7   5    2.60    8.30
  20  -7  -5   11.90    9.50
 -13  -7   5  -14.00    7.20
 -13  20  -5    8.80    9.40
  -7  20   5   -3.10    7.30
  20 -13   5   11.80    8.10
  -7 -13  -5    5.90    8.40
 -20   6   5  100.99   11.90
  14 -20   5   76.49    9.90
   6  14   5  104.49   11.30
   6 -20  -5   98.79   10.70
 -14  20  -5   71.39   13.20
  20  -6  -5   84.69   12.70
  -6 -14  -5   74.89   11.50
  20 -14   5   99.09   11.90
 -14  -6   5   60.19   12.90
 -14  -6   5   81.79   10.60
  -6  20   5   87.69   10.50
   5 -20  -5   63.59   10.70
  15 -20   5   55.19    9.50
   5  15   5   80.79   11.20
 -20   5   5   74.89   11.50
   5  15   5   97.09   12.80
  -5  20   5   50.39   10.40
  20  -5  -5   54.49   10.70
 -15  20  -5   61.29   11.80
 -15  -5   5   49.70   13.20
  20 -15   5   84.49   12.40
 -15  -5   5   50.89    9.60
  20 -15   5   77.09   11.80
  -5 -15  -5   60.49   10.40
  16 -20   5    5.80    8.30
   4  16   5    7.40    9.30
   4 -20  -5   14.00    9.10
   4  16   5   11.40   13.40
 -20   4   5    7.40    8.50
 -16  -4   5    8.30   11.40
  20 -16   5    7.90    8.50
  -4  20   5  -10.90    7.30
 -16  -4   5    3.10    7.80
  20  -4  -5    8.10    9.00
  20 -16   5   12.80    9.10
 -16  20  -5    6.50    9.30
   7 -21   5    3.10    5.90
   7  14  -5    5.00    7.60
  14 -21  -5    5.30    7.70
  14   7   5    4.70    6.50
 -21  14   5   -3.10    6.90
 -21   7  -5    3.50    8.10
 -14  21   5    3.50    6.40
  21 -14  -5   -9.40    8.70
  -7  21  -5    7.30    8.80
  -7 -14   5   -1.10    6.70
 -14  -7  -5    2.30    8.30
  21  -7   5   -0.80    7.00
 -21  13   5   15.90    7.60
  13   8   5   12.10    7.30
  13 -21  -5   11.20    7.90
   8 -21   5   11.30    6.30
 -21   8  -5    9.50    8.60
   8  13  -5   15.50    7.50
  21 -13  -5    2.20    8.20
 -13  -8  -5   18.80    8.70
  -8 -13   5    9.60    7.20
  -8  21  -5   18.00    8.90
 -13  21   5    7.50    7.00
  21  -8   5   15.30    7.90
  12   9   5   23.80    7.80
 -21  12   5   31.70    8.70
   9 -21   5   21.50    7.30
 -21   9  -5   34.40   10.00
   9  12  -5   19.20    7.80
  12 -21  -5   21.30    8.80
  21  -9   5   16.20    7.10
  21 -12  -5   13.70    8.80
  -9 -12   5   27.80    7.70
  -9  21  -5   27.70    9.50
 -12  21   5   17.30    7.20
 -12  -9  -5   14.20    8.50
  10  11  -5   36.90    8.50
  11  10   5   32.20    7.60
  11 -21  -5   36.80    9.50
  10 -21   5   38.30    7.80
 -21  10  -5   29.90    8.70
 -21  11   5   41.90    9.50
 -10  21  -5   32.00   10.40
  21 -10   5   25.40    7.70
 -11  21   5   36.60    8.30
 -10 -11   5   30.90    8.30
  21 -11  -5   38.20   10.50
 -11 -10  -5   24.30    9.10
 -21  11  -5   44.70    9.30
 -21  10   5   45.60    8.80
  11  10  -5   42.60    8.30
  11 -21   5   38.30    7.70
  10  11   5   64.79    9.90
  10 -21  -5   41.40    8.90
  21 -10  -5   28.90    9.80
 -11 -10   5   60.79   10.60
 -10 -11  -5   51.09   10.00
 -11  21  -5   33.10   10.10
 -10  21   5   50.19    9.10
  21 -11   5   53.69    9.20
   9  12   5    5.70    6.80
 -21  12  -5    1.90    7.90
 -21   9   5   -0.10    7.30
   9 -21  -5   12.90    8.10
  12   9  -5   15.80    8.30
  12 -21   5    0.40    6.40
  -9 -12  -5   -2.10    8.70
  -9  21   5    3.50    7.40
  21  -9  -5   -1.80    9.40
  21 -12   5    6.00    7.00
 -12  -9   5    6.20    8.10
 -12  21  -5    3.40    9.90
   8  13   5   67.89    9.60
 -21  13  -5   67.49   10.80
   8 -21  -5   74.89   10.80
 -21   8   5   70.89   11.50
  13 -21   5   61.29    9.00
  -8 -13  -5   58.49   10.00
  21  -8  -5   74.59   11.60
  21 -13   5   76.89   11.90
 -13  21  -5   73.69   12.60
 -13  -8   5   53.79    9.70
  -8  21   5   41.20    8.90
   7 -21  -5   68.69   10.40
 -21   7   5   80.99   11.60
   7  14   5   69.59   11.10
  14 -21   5   69.29    9.60
 -21  14  -5   62.19   10.80
  -7 -14  -5   57.39   10.10
 -14  21  -5   69.59   13.20
  21 -14   5   70.89   10.90
  -7  21   5   70.29   10.20
 -14  -7   5   42.20    9.40
  21  -7  -5   68.89   12.30
   0   0   6  382.46   17.40
   0   0   6  393.46   17.30
   0   0   6  400.96   17.60
  -1   1   6   36.10    7.80
   0  -1   6   31.70    7.60
   1   0   6   33.40    7.30
   1   0   6   31.90    7.20
  -1   1   6   34.70    7.20
   1   0   6   31.30    7.70
   0  -1   6   31.40    7.10
  -1   1   6   25.80    7.20
   0  -1   6   23.20    6.70
  -1   0   6  601.34   23.00
   1  -1   6  587.74   23.00
  -1   0   6  590.14   23.20
   0   1   6  590.34   22.70
  -1   0   6  590.24   23.20
   1  -1   6  576.44   22.80
   1  -1   6  587.54   22.90
   0   1   6  621.54   23.60
   0   1   6  577.54   23.00
  -2   2   6  450.75   19.10
   0  -2   6  465.05   19.10
   0  -2   6  476.75   20.40
  -2   2   6  478.65   19.90
   2   0   6  490.35   19.50
  -2   2   6  469.35   19.60
   2   0   6  492.15   20.50
   0  -2   6  460.45   18.90
   2   0   6  455.05   18.90
   1  -2   6  305.07   15.10
   1   1   6  299.77   14.60
  -2   1   6  303.97   14.50
   1   1   6  290.67   15.70
  -2   1   6  295.17   15.10
  -2   1   6  292.97   14.30
   1   1   6  302.27   14.20
   1  -2   6  287.87   15.40
   1  -2   6  308.27   14.70
  -1  -1   6  299.57   14.30
  -1  -1   6  294.67   14.60
   2  -1   6  286.87   14.70
  -1   2   6  297.57   14.70
  -1   2   6  296.57   15.20
  -1   2   6  298.77   15.30
   2  -1   6  314.27   15.60
   2  -1   6  289.47   14.40
   2  -2   6   31.60    7.10
   0   2   6   26.30    6.80
   0   2   6   28.80    6.80
   2  -2   6   21.30    6.80
   0   2   6   27.80    7.30
  -2   0   6   27.50    7.60
  -2   0   6   18.60    7.10
   2  -2   6   16.70    6.50
  -2   0   6   29.10    6.70
   0  -3   6   62.99    7.50
  -3   3   6   86.69    8.60
   0  -3   6   74.79    8.80
  -3   3   6   72.29    8.90
   3   0   6   66.79    9.20
   0  -3   6   71.69   10.40
   3   0   6   79.69    8.70
   3   0   6   76.09   10.70
  -3   3   6   70.39    8.40
   2   1   6   41.00    8.30
   2   1   6   45.30    7.70
  -3   2   6   43.80    7.40
   1  -3   6   43.80    8.00
   1  -3   6   37.20    6.80
   1  -3   6   46.70    7.80
   2   1   6   43.40    7.30
  -3   2   6   47.00    7.80
  -1  -2   6   42.30    7.70
  -2   3   6   50.69    8.40
  -2   3   6   43.30    7.90
   3  -1   6   41.00    7.80
  -1  -2   6   41.90    7.70
  -1  -2   6   51.19    8.40
  -2   3   6   46.80    7.70
   3  -1   6   49.40    7.90
   3  -1   6   54.69    8.20
  -3   1   6  347.67   16.40
   1   2   6  345.27   15.80
   1   2   6  346.77   17.00
  -3   1   6  354.76   15.80
   1   2   6  338.47   16.10
   2  -3   6  356.26   17.00
   2  -3   6  355.76   15.70
   2  -3   6  352.76   16.10
  -1   3   6  337.37   16.40
   3  -2   6  368.56   17.10
  -2  -1   6  351.56   15.50
  -1   3   6  344.07   16.20
   3  -2   6  339.27   15.90
   3  -2   6  356.16   15.90
  -1   3   6  368.66   16.20
  -3   0   6  108.69    8.60
   0   3   6  108.09   10.70
   0   3   6  109.39    9.70
   3  -3   6  101.59   10.40
   3  -3   6  103.69    9.50
  -3   0   6  106.99    9.40
   3  -3   6   98.39   10.40
   4   0   6   -1.80    5.40
   4   0   6    0.40    7.10
   0  -4   6   -8.20    6.40
  -4   4   6   -4.50    5.30
  -4   4   6    0.90    5.30
   4   0   6    1.40    6.10
   0  -4   6    4.30    6.00
   0  -4   6   -2.20    5.60
   1  -4   6   76.59    8.00
   1  -4   6   77.89   10.40
  -4   3   6   75.89    8.50
  -4   3   6   68.69    9.20
   1  -4   6   64.59    8.80
   3   1   6   76.69    8.70
   3   1   6   83.79    9.60
  -3   4   6   94.59   10.40
   4  -1   6   77.49    9.60
  -3   4   6   74.99    8.10
  -1  -3   6   81.29    8.50
  -1  -3   6   71.79   10.60
   4  -1   6   82.59    8.30
  -1  -3   6   74.49    9.00
   4  -1   6   90.49    9.20
  -4   2   6   27.60    6.90
   2   2   6   35.70    7.10
   2  -4   6   29.20    7.30
   2  -4   6   29.10    7.00
   2  -4   6   39.50    7.40
   2   2   6   40.80    7.80
  -4   2   6   28.90    6.10
   4  -2   6   22.80    7.60
  -2   4   6   33.70    7.50
   4  -2  -6   36.10    8.00
  -2   4   6   37.80    7.30
   4  -2   6   26.70    6.80
   4  -2   6   38.00    7.30
  -2  -2   6   43.20    6.90
  -2  -2   6   35.40    7.90
   1   3   6  115.99   10.30
   3  -4   6   92.09   10.80
  -4   1   6   94.09    9.40
   1   3   6   95.39    9.50
   3  -4   6   99.49    9.30
   3   1  -6  102.79    9.00
   1  -4  -6  126.79    8.40
  -4   1   6  103.59    8.90
   3  -4   6   91.79    9.10
  -1   4   6  107.69   10.90
  -1   4   6  100.59    8.40
   4  -3   6  106.79   10.20
  -1  -3  -6  123.29    9.10
   4  -1  -6  103.09    8.80
  -3  -1   6  108.89    9.70
   4  -3   6  100.59    9.50
  -3  -1   6   92.69    8.90
   4  -3   6  120.59    9.90
   0   4   6  329.47   15.70
  -4   0   6  316.67   14.30
  -4   0   6  310.77   14.90
   0  -4  -6  331.37   14.10
   4  -4   6  310.67   14.70
   4   0  -6  309.77   14.70
   4  -4   6  309.27   15.20
   0   4   6  295.47   13.90
   4  -4   6  294.67   15.80
   5   0   6    5.40    5.90
   0  -5   6   -6.70    6.80
   5  -5  -6   -5.40    6.20
   0  -5   6  -12.00    5.40
   5   0   6    0.80    5.70
   0  -5   6    4.70    5.80
  -5   5   6    0.10    5.40
   1  -5   6    4.00    6.00
   1  -5   6   -2.40    5.90
   4   1   6    7.50    5.80
   1  -5   6   11.10    7.90
  -5   4   6    1.90    5.60
   4   1   6    9.00    6.40
  -1  -4   6    4.70    5.10
   5  -4  -6    2.60    6.10
  -1  -4   6    5.30    6.70
   5  -1   6    3.40    7.40
   5  -1   6    0.00    5.60
  -4   5   6    6.80    5.50
   5  -1   6   14.10    6.20
   3   2   6   29.50    7.40
  -5   3   6   24.70    5.50
   2   3  -6   20.10    6.10
   2  -5   6   21.70    6.00
   3   2   6   25.80    6.10
   2  -5   6   22.40    7.50
   2  -5   6   19.20    6.10
  -5   3   6   25.00    6.70
  -2  -3   6   23.80    8.40
  -3   5   6   27.50    6.10
  -3   5   6   17.50    7.00
  -3  -2  -6   21.80    6.00
  -2  -3   6   29.00    6.20
   5  -2   6   20.30    7.10
   5  -2   6   18.30    7.50
   5  -3  -6   19.70    6.50
   5  -2   6   26.80    6.70
   2   3   6  116.39    9.50
   3   2  -6  114.69    9.40
   3  -5   6  121.19   10.60
  -5   2   6  114.29    8.70
   3  -5   6  123.59    9.80
   3  -5   6  112.49   10.50
  -5   2   6  117.69    9.50
   2   3   6  120.09   10.50
   2  -5  -6  121.69    8.30
  -2  -3  -6  138.99    9.30
   5  -2  -6  111.19    9.90
   5  -3   6  127.99   10.80
  -3  -2   6  122.49    9.10
  -2   5   6  122.59    9.60
   5  -3   6  114.89   10.20
   5  -3   6  112.89    9.90
  -2   5   6  140.19   11.20
  -3  -2   6  123.69   11.60
   1  -5  -6   16.40    5.20
   4   1  -6   19.80    6.00
   1   4   6   21.10    7.20
   4  -5   6   16.30    6.90
   4  -5   6   14.50    6.10
   4  -5   6   18.00    7.10
   1   4   6   20.00    6.00
  -5   1   6   17.80    7.30
  -5   1   6   16.20    5.40
   5  -4   6   20.20    7.60
  -1   5   6   25.40    7.10
   5  -1  -6   25.30    6.60
  -1   5   6   16.40    5.60
   5  -4   6   21.20    7.20
  -1  -4  -6   11.50    5.90
   5  -4   6   13.60    5.70
  -4  -1   6   13.90    7.50
  -4  -1   6   16.70    5.70
   5  -5   6  126.49   10.30
  -5   0   6  126.59   10.10
   0  -5  -6  133.49    8.90
   5   0  -6  120.89    9.60
   0   5   6  137.89   10.20
   5  -5   6  122.69    9.60
   5  -5   6  106.59   11.70
  -5   0   6  125.09    9.10
   0   5   6  115.89    8.90
   0  -6   6    2.00    5.60
   6   0   6    9.20    6.20
  -6   6   6    3.70    5.40
   6   0   6   11.70    6.00
   6  -6  -6   10.20    6.30
   0  -6   6   14.80    7.50
  -6   0  -6    6.40    6.70
   1   5  -6    4.00    5.20
   1  -6   6   -1.40    7.30
   5  -6  -6    0.00    6.60
   5   1   6    4.10    5.90
   1  -6   6    6.10    5.60
  -6   5   6    4.10    5.40
   5   1   6    6.30    5.50
   1  -6   6   -7.70    5.60
  -5  -1  -6    3.00    5.50
  -1  -5   6    7.90    5.10
   6  -1   6    9.40    5.50
   6  -5  -6    0.00    6.60
  -5   6   6   -2.10    5.40
  -1  -5   6    7.60    7.20
   6  -1   6    1.10    5.90
   2  -6   6   29.60    7.00
   2  -6   6   28.70    9.00
   4   2   6   25.10    6.70
   4   2   6   39.80    7.20
   2   4  -6   34.80    6.40
   2  -6   6   21.70    6.20
  -6   4   6   24.70    6.70
   6  -4  -6   28.80    6.60
  -4   6   6   30.60    7.10
  -2  -4   6   23.60    7.40
   6  -2   6   15.60    7.40
  -2  -4   6   23.20    6.10
   6  -2   6   26.50    6.90
  -4  -2  -6   28.10    6.70
   6  -2   6   33.70    6.50
  -6   3   6   61.39    9.90
   3  -6   6   39.90    8.60
   3   3   6   47.70    8.00
   3  -6   6   44.90    7.10
   3  -6   6   41.30    7.00
  -6   3   6   41.90    7.40
   3   3  -6   49.70    6.80
   3   3   6   44.10    7.10
  -3  -3  -6   29.90    6.50
   6  -3   6   45.10    9.20
  -3   6   6   52.19    8.90
  -3   6   6   43.70    7.30
  -3  -3   6   45.50    6.80
  -3  -3   6   43.30    8.50
   6  -3  -6   42.40    7.40
   6  -3   6   44.30    8.20
   6  -3   6   41.00    7.10
   2   4   6   58.49    8.40
   4  -6   6   48.70    7.20
  -6   2   6   56.39    6.80
   2   4   6   43.30    7.60
  -6   2   6   43.70    7.60
   4  -6   6   49.90    8.40
   2  -6  -6   46.00    6.30
   4  -6   6   49.60    9.10
   4   2  -6   42.10    7.40
   6  -4   6   37.50    7.70
  -2   6   6   45.30    8.10
  -2  -4  -6   44.90    7.10
   6  -2  -6   49.10    7.70
  -2   6   6   51.99    8.50
   6  -4   6   50.89    9.10
   6  -4   6   46.40    8.20
  -4  -2   6   40.00    8.10
  -4  -2   6   49.20    7.20
   5   1  -6  135.29    9.90
   5  -6   6  134.39   10.60
   1   5   6  148.29   11.20
   1   5   6  141.09    9.20
   5  -6   6  150.38    9.90
   5  -6   6  132.39   12.50
  -6   1   6  135.59   10.30
   1  -6  -6  152.08    8.90
  -6   1   6  136.49    9.10
   6  -5   6  118.19   12.10
  -1   6   6  138.89   10.60
   6  -5   6  150.58   11.00
   6  -5   6  138.29   10.10
  -1   6   6  138.59    9.30
  -5  -1   6  137.09   10.70
  -5  -1   6  138.59    9.20
  -1  -5  -6  140.59    9.70
   6  -1  -6  131.59   10.30
   0   6   6   28.00    5.90
  -6   0   6   33.70    8.10
   6  -6   6   27.60    7.50
   6   0  -6   32.70    6.70
   0  -6  -6   31.60    6.10
  -6   0   6   28.10    5.60
   0   6   6   30.90    8.00
   6  -6   6   36.20    6.50
   6  -6   6   23.60    8.30
  -7   7   6   -0.40    5.50
   0  -7   6   15.70    8.90
   7   0   6   13.80    6.00
  -7   0  -6   -0.40    6.20
   0  -7   6    6.20    5.50
   7   0   6    8.90    5.60
   7  -7  -6    1.10    6.70
   1   6  -6   31.90    6.10
  -7   6   6   27.60    6.50
   6  -7  -6   26.60    7.20
   6   1   6   27.10    6.60
   1  -7   6   21.60    8.40
   1  -7   6   32.50    6.40
   6   1   6   23.80    6.80
   7  -1   6   30.40    6.20
   7  -6  -6   24.20    6.80
   7  -1   6   27.10    6.90
  -1  -6   6   28.70    6.60
  -6   7   6   30.50    6.40
  -1  -6   6   29.20    8.40
  -6  -1  -6   29.40    7.60
   5   2   6   22.80    6.50
   2  -7   6   22.50    9.40
  -7   5   6   19.60    6.30
   2   5  -6   26.80    5.80
   5   2   6   24.40    7.10
   2  -7   6   29.70    6.50
   2  -7   6   22.70    6.20
   7  -5  -6   23.40    7.20
  -5   7   6   17.70    6.00
   7  -2   6   22.50    6.80
  -2  -5   6   18.10    5.50
  -2  -5   6   11.80    7.60
   7  -2   6   22.90    6.30
  -5  -2  -6   11.70    6.80
   7  -2   6   17.30    7.80
   3  -7   6    2.30    7.60
   3   4  -6    4.80    5.30
   4   3   6    5.30    5.30
   3  -7   6    5.40    5.70
  -7   4   6    6.20    6.10
   4   3   6    4.80    6.00
   3  -7   6    1.90    6.40
  -4   7   6    2.70    6.10
  -4  -3  -6    2.30    5.50
  -3  -4   6    1.90    5.20
  -3  -4   6   -1.80    6.60
   7  -3   6    1.80    5.90
   7  -3   6    4.00    8.00
   7  -3   6    2.00    6.10
  -4   7   6   -3.00    6.20
   7  -4  -6    1.20    6.70
  -7   3   6  114.59    9.60
   4  -7   6  104.79    9.30
   4  -7   6   91.29   11.00
   4  -7   6  107.99    9.20
   3   4   6  110.59    9.20
   3   4   6  107.49    9.50
   4   3  -6   94.19    8.60
  -4  -3   6  102.29    7.90
   7  -4   6  105.79    9.30
   7  -3  -6  107.19    9.90
  -3   7   6   97.69    8.70
   7  -4   6   95.09   11.20
  -3  -4  -6  109.59    9.00
  -4  -3   6  105.19   10.50
   7  -4   6  105.39   10.80
  -3   7   6  111.59    9.80
   5  -7   6   84.59    9.10
   5   2  -6   87.29    8.50
  -7   2   6   94.39    9.30
   5  -7   6   89.79   12.50
  -7   2   6   98.39    9.10
   2   5   6   88.79    9.10
   2   5   6   91.59    8.50
   5  -7   6   96.19    8.80
  -2   7   6   89.59    9.50
   7  -5   6   99.59   11.60
   7  -2  -6   81.99    9.30
  -2  -5  -6   73.09    8.80
  -5  -2   6   96.29    9.90
  -5  -2   6   89.79    7.90
   7  -5   6   90.49   11.40
   7  -5   6   96.49    8.10
  -2   7   6   88.59    9.00
   6  -7   6    2.50    7.70
   1   6   6   13.00    6.40
  -7   1   6   15.10    6.80
   6  -7   6    4.30    6.50
   6   1  -6   10.90    6.20
   1   6   6   17.40    5.60
   1  -7  -6   11.40    5.10
   6  -7   6   10.60    6.30
  -7   1   6   21.20    5.20
   7  -6   6   20.00    6.40
  -6  -1   6    5.40    6.70
   7  -1  -6   14.80    6.60
   7  -6   6   13.10    7.00
  -1  -6  -6    8.90    5.70
   7  -6   6    4.10    8.40
  -1   7   6   16.20    5.60
  -1   7   6   20.50    7.30
  -6  -1   6   20.20    5.40
   7   0  -6   19.60    6.30
   0   7   6    9.60    5.30
   7  -7   6   14.00    7.00
   0  -7  -6    8.00    5.50
  -7   0   6   16.10    6.90
   0   7   6   12.30    7.30
   7  -7   6   16.10    6.30
   8  -8  -6    1.80    6.50
   8   0   6    6.90    5.80
   0   8  -6   25.40    8.40
  -8   0  -6    0.70    6.90
   0  -8   6    6.00    5.40
  -8   8   6   10.30    6.00
   0  -8   6   13.80    8.40
  -8   7   6   13.00    6.30
   7   1   6   20.30    6.20
   7   1   6   16.40    6.50
   1   7  -6   25.80    5.80
   1  -8   6   16.40    8.40
   7  -8  -6   13.20    6.60
  -8   1  -6   14.20    6.80
   1  -8   6   12.60    5.90
  -7  -1  -6    8.20    6.40
   8  -7  -6   14.80    6.60
  -7   8   6   11.30    5.90
   8  -1   6   16.30    6.40
  -1  -7   6   21.70    8.70
   8  -1   6   15.00    6.20
  -1  -7   6   15.30    5.60
   2  -8   6   22.30    8.60
   6   2   6   21.40    6.10
   6  -8  -6   14.50    7.90
  -8   6   6   11.50    6.10
   6   2   6   15.90    6.20
   2  -8   6    4.90    6.30
   2  -8   6   14.40    6.10
   2   6  -6   18.60    5.90
  -2  -6   6   20.20    8.30
  -6   8   6   19.10    6.00
  -6  -2  -6   15.00    6.00
  -2  -6   6   14.30    5.90
   8  -2   6    8.40    6.70
   8  -2   6   18.80    5.90
   8  -6  -6   18.10    6.80
  -8   5   6   96.79    9.10
   3  -8   6   79.99    9.20
   3   5  -6  109.39    8.50
   3  -8   6  114.59   12.10
   5   3   6  101.19    8.60
   3  -8   6   96.39    8.90
  -3  -5   6  104.69    8.80
   8  -5  -6   93.89    9.10
  -5   8   6   90.69    9.30
  -3  -5   6  113.09   11.10
  -5  -3  -6   89.19    9.30
   8  -3   6   91.99    8.50
   8  -3   6   72.89    9.70
   8  -3   6   97.79   12.10
   4   4   6  136.59    9.50
   4  -8   6  128.69   12.60
   4   4   6  135.19   11.10
   4  -8   6  139.79   10.20
  -8   4   6  128.79    9.90
   4   4  -6  118.99    9.60
   4  -8   6  137.49    9.70
  -4   8   6  141.19   10.90
  -4  -4  -6  128.29   10.00
  -4   8   6  134.09    9.50
   8  -4  -6  141.29   11.00
   8  -4   6  135.39    9.30
   8  -4   6  127.99   11.90
  -4  -4   6  141.89   11.30
   8  -4   6  137.29   11.70
  -4  -4   6  124.49    9.30
   3   5   6   50.29    7.80
  -8   3   6   41.60    7.80
   5  -8   6   41.80    7.30
   3   5   6   46.60    7.40
   5  -8   6   48.90    7.90
   5   3  -6   43.50    6.90
   8  -5   6   27.80    8.90
  -3   8   6   39.40    7.20
  -3   8   6   47.60    8.20
   8  -5   6   44.90    9.50
  -3  -5  -6   47.50    7.70
   8  -5   6   42.50    6.60
  -5  -3   6   31.90    6.30
  -5  -3   6   55.29    9.50
   8  -3  -6   43.00    7.90
   6  -8   6   50.49    8.40
   2   6   6   56.39    8.40
  -8   2   6   62.29    8.80
   6  -8   6   49.40    8.00
   6   2  -6   74.49    8.40
   2   6   6   46.20    8.00
  -2  -6  -6   54.49    7.70
   8  -6   6   58.39    9.50
   8  -2  -6   49.70    8.80
   8  -6   6   53.39    8.50
  -6  -2   6   51.49    9.20
  -2   8   6   59.09    7.50
  -2   8   6   68.39    9.10
  -6  -2   6   56.59    7.40
   1   7   6   68.99    7.50
  -8   1   6   75.79    7.70
   7  -8   6   65.39   10.20
   7  -8   6   60.69    8.30
   7   1  -6   68.89    8.30
  -8   1   6   69.69    9.00
   1   7   6   67.19    8.80
  -7  -1   6   66.99    7.50
   8  -1  -6   81.09    9.00
  -1   8   6   78.49    9.00
  -7  -1   6   65.79    9.30
  -1   8   6   79.79   10.70
   8  -7   6   72.49    9.40
  -1  -7  -6   60.49    8.30
   8  -7   6   69.79    8.70
   8  -8   6   21.00    6.30
   0   8   6   24.10    7.20
   0  -8  -6   11.10    9.50
  -8   0   6   19.50    5.40
   8  -8   6   24.10    8.40
   8   0  -6   22.40    7.10
   0   8   6   25.00    6.70
  -8   0   6    8.60    7.10
  -8   8  -6   34.50    7.30
   9  -9  -6   10.50   11.70
   0  -9   6   22.70    9.20
  -9   9   6    6.70    7.10
   9   0   6    7.20    6.20
  -9   0  -6    4.50    6.40
   0  -9   6   13.20    5.60
   1  -9   6    9.10    9.70
   8   1   6    5.80    6.30
   8  -9  -6    4.70    6.40
   1  -9   6   -1.20    5.40
  -9   1  -6    1.50    7.40
  -8   9   6   -1.90    5.50
   9  -1   6    2.10    6.10
   9  -8  -6    3.80    7.20
  -1  -8   6   -1.90    5.80
  -8  -1  -6    8.70    7.20
  -1  -8   6    7.30    8.60
   7  -9  -6  101.49    9.60
   2  -9   6  107.89   12.20
   2  -9   6   92.39    8.50
   7   2   6   85.99    8.90
  -9   7   6   89.39    8.90
  -9   2  -6   88.09    9.60
   7   2   6   98.29    8.80
  -2  -7   6   90.69    9.10
   9  -2   6   96.29    8.70
  -7  -2  -6   91.79   10.20
  -7   9   6   95.79    8.80
   9  -7  -6  103.79   10.60
  -2  -7   6   98.59   11.50
   3  -9   6  132.49    9.80
  -9   6   6  119.79    9.70
   6  -9  -6  120.79   10.50
   6   3   6  129.19    9.80
   6   3   6  147.79    9.90
   3  -9   6  138.39   10.10
   3   6  -6  115.59    8.80
  -3  -6   6  138.09    9.90
  -6  -3  -6  130.19   10.80
   9  -3   6  123.09    9.30
  -3  -6   6  128.59   11.90
   9  -6  -6  140.09   11.10
  -6   9   6  132.09    9.70
   5   4   6   55.59    8.60
  -9   5   6   65.89    8.70
   5   4   6   61.39    9.50
   4   5  -6   71.59    8.00
   4  -9   6   55.29    8.30
   4  -9   6   50.49    7.90
   9  -4   6   61.39   10.20
   9  -5  -6   60.69    8.60
  -4  -5   6   61.69   10.10
   9  -4   6   61.89    8.70
  -5   9   6   62.49    8.10
  -5  -4  -6   68.99    9.40
  -4  -5   6   60.19    7.80
   9  -4   6   43.70    9.40
   5   4  -6   85.69    8.80
  -9   4   6  101.89    9.50
   4   5   6  101.79    9.50
   5  -9   6   98.69    9.30
   5  -9   6   99.99    9.10
   4   5   6  112.39    8.70
   9  -4  -6  111.59   10.20
  -4  -5  -6   91.19    9.30
   9  -5   6   99.99    9.40
  -4   9   6   90.49    8.60
  -5  -4   6   94.89   10.40
   9  -5   6   95.09   12.20
  -5  -4   6   94.79    8.60
  -4   9   6  114.69   10.40
  -9   3   6   42.10    7.90
   6  -9   6   46.90    7.30
   3   6   6   43.40    7.80
   6   3  -6   50.29    7.40
   3   6   6   54.29    7.90
   6  -9   6   47.10    8.30
   9  -3  -6   58.89    8.50
   9  -6   6   53.89    9.20
   9  -6   6   52.59    8.30
  -3  -6  -6   47.20    7.90
  -6  -3   6   53.89    7.40
  -3   9   6   56.69    8.70
  -6   9  -6   58.49    9.10
  -3   9   6   54.69    7.70
  -6  -3   6   45.80    8.60
   7  -9   6    5.90    6.60
   2   7   6    4.30    6.90
  -9   7  -6   17.20    6.40
   2   7   6   12.90    5.80
  -9   2   6    8.50   11.50
   7  -9   6    0.50    5.90
   7   2  -6    2.80    5.80
  -7   9  -6    5.40    6.60
  -2   9   6   -0.70   10.40
  -2  -7  -6   -7.40    5.70
  -7  -2   6   11.30    5.30
  -7  -2   6   -6.30   11.40
   9  -7   6    7.00    5.20
  -2   9   6   13.30    6.30
   9  -2  -6    4.10    6.50
   9  -7   6    0.10    7.10
   1   8   6   79.99    8.90
   8   1  -6   82.09    8.80
   8  -9   6   66.39    9.60
  -9   1   6   65.49    7.50
   8  -9   6   78.39    8.50
  -9   8  -6   63.79    9.00
  -8  -1   6   79.79    7.70
  -8   9  -6   68.79    9.50
   9  -8   6   69.29    8.80
   9  -8   6   66.19   11.10
   9  -1  -6   80.19    9.20
  -1   9   6   77.19    8.00
  -1  -8  -6   59.99    8.60
  -9   0   6  118.49    8.50
   9  -9   6  110.19    9.50
   9  -9   6  120.79   10.80
   9   0  -6   95.89   10.00
  -9   9  -6  118.69   10.20
   0   9   6  121.79    9.80
   0   9   6  104.89   11.20
  -9   0   6   97.29   10.30
   0 -10   6   -0.80    5.50
  10   0   6    3.30    6.10
  10 -10  -6    1.30    6.80
 -10  10   6    0.90    5.80
 -10   0  -6   -6.70    7.50
   9   1   6   31.40    6.60
 -10   1  -6   34.30    8.00
 -10   9   6   27.40    6.90
   9 -10  -6   28.40    7.80
   1 -10   6   49.10    7.80
  -1  -9   6   40.50   10.90
  -9  10   6   41.30    7.80
  10  -9  -6   34.20    9.00
  -9  -1  -6   39.90    7.90
  -1  -9   6   39.40    7.00
   8   2   6   51.89    8.40
   2 -10   6   69.49    8.30
   8 -10  -6   66.79    9.00
 -10   2  -6   61.79   10.50
 -10   8   6   67.29    8.50
  -8  -2  -6   60.59   10.20
  10  -2   6   75.09    9.10
  -2  -8   6   72.69   18.70
  10  -8  -6   66.29    9.00
  -2  -8   6   70.69    8.60
   7 -10  -6   15.10    8.40
 -10   7   6   14.80    6.40
   3 -10   6   11.20    6.20
 -10   3  -6   12.50    7.50
  -7  10   6   18.50    6.30
  10  -3   6   14.00    5.90
  -7  -3  -6   18.00    7.30
  10  -7  -6   14.10    7.00
  -3  -7   6   18.60    5.90
   6   4   6  115.39    9.50
   6 -10  -6  136.69   17.20
 -10   6   6   96.29   10.90
   4 -10   6  125.69   10.00
  -4  10  -6  135.79   11.80
  10  -4   6  133.09   10.10
  -6  -4  -6  120.39   10.70
  -6  10   6  129.89   10.50
  -4  -6   6  112.69    9.00
  10  -6  -6  125.39    9.80
 -10   5   6   78.89   10.60
   5 -10   6   78.39    9.10
   5 -10   6   70.29    8.80
   5   5   6   86.89    8.10
   5   5  -6   63.09    7.50
  -5  10   6   75.39    9.30
  10  -5  -6   81.49    9.80
  -5  -5   6   65.49    7.60
  -5  -5  -6   73.59    9.20
  10  -5   6   82.39    9.00
  10  -5   6   76.59   12.20
  -5  10  -6   81.19   10.50
   4   6   6   32.90    6.70
 -10   4   6   20.20    7.30
   4   6   6   38.40    9.20
   6 -10   6   32.80    7.80
   6   4  -6   20.10    6.70
 -10   6  -6   50.49    8.30
   6 -10   6   43.30    7.30
  -4  10   6   25.60    9.30
  10  -6   6   37.30    7.30
  -6  10  -6   44.00    8.20
  10  -6   6   32.40    9.20
  -4  10   6   33.10    6.90
  -4  -6  -6   45.20    7.60
  10  -4  -6   41.90    8.30
  -6  -4   6   45.10    7.10
  -6  -4   6   30.90   14.60
 -10   3   6  179.08   11.80
   7   3  -6  155.58   11.40
 -10   7  -6  183.08   11.70
   7 -10   6  196.28   12.80
   7 -10   6  172.98   10.90
   3   7   6  186.08   12.70
   3   7   6  182.58   11.10
  -7  -3   6  182.98   10.80
  10  -3  -6  186.78   12.30
  -7  10  -6  190.08   12.60
  -7  -3   6  177.08   12.40
  -3  -7  -6  167.78   11.10
  -3  10   6  162.48   11.80
  10  -7   6  189.58   11.40
  10  -7   6  176.98   13.20
  -3  10   6  190.98   11.90
   8 -10   6   98.69    9.40
   2   8   6   87.39    9.40
 -10   8  -6  116.19    9.60
   8   2  -6   81.29    9.80
   2   8   6   94.09    9.30
   8 -10   6   85.49   11.90
 -10   2   6   83.99    9.70
  -8  10  -6  102.29   10.20
  10  -8   6   94.89    9.10
  -2  10   6   90.59    8.70
  -8  -2   6   90.89    8.40
  10  -8   6   95.29   12.20
  -2  -8  -6   72.09    9.40
  -2  10   6   71.69    9.80
  10  -2  -6   87.69    8.90
  -8  -2   6   88.39   10.40
   9   1  -6    5.40    6.40
 -10   1   6   20.20    5.20
   9 -10   6    1.30   11.90
   1   9   6   14.90    6.10
   1   9   6    5.50    6.70
 -10   9  -6   -4.60    6.60
 -10   1   6    2.60    6.70
   9 -10   6   -0.30    6.10
  -1  -9  -6   -6.70    6.10
  10  -9   6    1.20    5.80
  10  -1  -6   -1.50    6.90
  -9  -1   6   -2.70    7.30
  10  -9   6    8.20   13.00
  -1  10   6   11.30    6.70
  -9  -1   6    8.50    5.30
  -1  10   6    7.70    7.00
  -9  10  -6    1.60    6.80
   0  10   6   64.59    9.40
 -10   0   6   70.39    9.90
  10   0  -6   67.79    9.50
 -10  10  -6   89.49   10.00
  10 -10   6   79.79    9.60
   0  10   6   84.89    9.70
 -10   0   6   91.39    8.60
  10 -10   6   65.59   11.20
  11   0   6    7.80    5.60
   0 -11   6   10.60    6.70
  11 -11  -6    9.10    8.00
 -11  11   6    7.40    6.90
   0  11  -6   -0.60    7.00
  10   1   6   27.30    7.20
 -11  10   6   25.10    6.90
  10 -11  -6   27.50    8.50
 -11   1  -6   27.20    9.30
   1 -11   6   27.00    6.50
  -1  11  -6   18.90    7.70
 -10  11   6   28.30    6.90
 -10  -1  -6   23.10    7.80
  11  -1   6   22.30    6.90
  11 -10  -6   29.90    7.60
  -1 -10   6   30.30    7.60
   9   2   6    0.90    5.60
 -11   9   6    2.20    5.80
 -11   2  -6   -1.30    7.10
   9 -11  -6   -1.00    7.70
  -2  11  -6    2.00   11.90
  -9  -2  -6    3.50    6.60
  -2  -9   6    2.60    5.50
  -2  -9   6   -4.00    9.00
  11  -9  -6    9.10    6.70
  -9  11   6   -1.50    5.80
  11  -2   6   -3.10    5.50
 -11   8   6   72.39    8.80
   8   3   6   70.69    8.40
 -11   3  -6   78.69    9.90
   8 -11  -6   77.89   10.50
  -3  11  -6   77.39    9.50
  -8  11   6   88.29    8.70
  -3  -8   6   97.79   12.10
  -3  -8   6   79.49    8.30
  -8  -3  -6   73.69   10.50
  11  -3   6  101.39   11.90
   7 -11  -6   48.50    9.10
   7   4   6   43.60    7.80
 -11   7   6   50.19    8.30
   4 -11   6   43.00   12.20
  11  -7  -6   48.20    8.70
  -4  11  -6   51.89    8.50
  -4  -7   6   44.30    7.10
  -7  -4  -6   38.50    8.30
  -4  -7   6   44.90    9.70
  11  -4   6   54.09    7.70
   6   5   6   84.59    8.70
   6   5   6   83.99    9.10
 -11   6   6   72.49    8.80
   6 -11  -6   73.69    9.70
  11  -5   6   84.29   11.70
  11  -6  -6   71.99    9.40
  -5  -6   6   93.09   11.60
  -5  11  -6   75.79    9.50
  -6  11   6   74.39    8.50
  -5  -6   6   74.89    8.90
  -6  -5  -6   72.19    9.70
  11  -5   6   69.09    9.40
 -11   5   6  338.87   16.20
   5   6   6  340.27   15.80
   5   6   6  337.77   15.20
  -5  -6  -6  304.37   16.00
  -5  11   6  344.77   16.30
  11  -6   6  337.27   15.80
  11  -5  -6  345.27   16.60
  -6  -5   6  348.67   15.80
  -6  -5   6  336.07   17.50
  -6  11  -6  366.16   17.20
  11  -6   6  349.77   18.40
   7   4  -6  111.89   10.50
   4   7   6  140.69   10.10
 -11   4   6  144.09   10.90
   7 -11   6  149.29   10.10
   7 -11   6  111.79   14.80
   4   7   6  155.38   11.80
  -4  11   6  141.79   11.40
  11  -7   6  133.79   10.50
  -7  -4   6  145.99   12.20
  -4  11   6  146.59   10.50
  -7  -4   6  142.59   10.10
  -4  -7  -6  137.99   10.90
  -7  11  -6  158.58   11.10
  11  -4  -6  165.68   11.70
   3   8   6   16.30    6.90
   8   3  -6    8.10    6.70
 -11   8  -6   16.00    7.00
   3   8   6   28.30    6.80
   8 -11   6   11.80    6.90
   8 -11   6   27.00    6.70
 -11   3   6   13.30    7.20
  11  -3  -6   12.90    7.70
  -3  11   6   12.40    7.40
  -3  -8  -6    7.60    6.40
  -8  -3   6   14.30    5.90
  11  -8   6   13.20    9.20
  11  -8   6   12.80    6.60
  -8  -3   6   10.70    7.20
  -8  11  -6   13.70    6.90
  -3  11   6   24.70    7.00
   9 -11   6  114.09   10.20
 -11   9  -6  141.39   11.40
   9   2  -6   97.39   10.70
   9 -11   6  116.29   10.80
   2   9   6  135.79   10.60
   2   9   6  118.99   10.30
 -11   2   6  122.19   10.60
  -9  -2   6  112.79    9.60
  -9  -2   6  127.69   11.60
  11  -2  -6  130.39   11.10
  -2  11   6  132.69   10.90
  -2  11   6  119.39   10.90
  -2  -9  -6   85.39   10.40
  11  -9   6  121.49   10.10
  11  -9   6  128.29   11.90
  -9  11  -6  124.49   11.30
 -11   1   6   96.09    8.40
 -11   1   6  100.69   10.30
 -11  10  -6   89.09   10.80
  10 -11   6  122.59   10.20
  10 -11   6   94.39   10.60
  10   1  -6   68.79   10.60
   1  10   6   97.49   10.20
   1  10   6  107.39   10.20
  -1  11   6   99.99   10.50
 -10  -1   6   77.99    8.80
  11 -10   6  106.79    9.30
 -10  11  -6   88.79   10.80
  11  -1  -6   95.99   11.10
 -10  -1   6   76.39   10.20
  11 -10   6   72.39   10.40
  -1  11   6   91.39   10.30
  11 -11   6   -1.10    6.90
 -11   0   6   -5.20    5.50
   0  11   6   -0.50    7.10
  11 -11   6   25.90    6.70
 -11  11  -6    9.80    7.10
 -11   0   6    2.90    7.30
   0  11   6    4.60    7.10
  11   0  -6    4.50    7.20
   0  12  -6   -1.00    6.70
 -12  12   6    4.80    6.00
  12 -12  -6    2.10    7.00
   0 -12   6    9.80    6.80
 -12   0  -6   -3.30    7.10
  12   0   6    1.40    5.60
 -12   1  -6    4.10    7.40
   1  11  -6   -4.50    8.00
  11   1   6    1.60    5.50
   1 -12   6    2.50    5.80
  11 -12  -6   -0.50    7.30
 -12  11   6    1.70    6.00
  -1 -11   6   -0.90    5.70
 -11  12   6    5.90    6.20
  12 -11  -6   -2.40    7.50
  12  -1   6   -0.70    5.30
  -1  12  -6    3.40    6.90
 -11  -1  -6   -6.70    9.10
  10   2   6   21.40    6.20
 -12  10   6   19.60    6.80
   2 -12   6   19.80    6.30
  10 -12  -6   16.20    7.50
 -12   2  -6   14.60    8.40
  -2 -10   6   16.40    6.80
  12 -10  -6   31.70    8.60
  12  -2   6   25.30    7.10
 -10  12   6   23.00    6.60
  -2  12  -6   31.00    8.30
 -10  -2  -6   17.20    7.80
   3 -12   6   22.00    6.60
   9 -12  -6   11.30    7.30
 -12   9   6   14.50    6.60
 -12   3  -6   10.50    7.40
   9   3   6   19.10    6.90
  -9  -3  -6   17.70    8.20
  -3  -9   6   15.70    9.70
  -3  -9   6   15.30    6.30
  12  -9  -6   26.90    8.40
  12  -3   6   15.70    6.10
  -3  12  -6   13.50    7.70
  -9  12   6   15.80    6.50
 -12   4  -6   58.49    9.90
   8 -12  -6   75.89    9.30
 -12   8   6   72.79    8.80
   8   4   6   66.79    8.40
   4 -12   6   69.49    8.50
  -4  -8   6   74.49    8.40
  -8  12   6   72.79    8.70
  -8  -4  -6   75.09   10.40
  -4  -8   6   80.49   11.80
  12  -8  -6   66.59   10.60
  12  -4   6   71.29    9.60
   7   5   6  306.77   15.30
   7 -12  -6  337.07   16.20
 -12   7   6  299.07   15.00
  -7  -5  -6  301.77   15.00
  12  -5   6  287.57   15.20
  -7  12   6  309.37   15.00
  -5  -7   6  293.17   14.30
  -5  12  -6  315.97   16.30
  -5  -7   6  299.47   17.10
   6 -12  -6  123.99   11.00
   6   6   6  146.39    9.90
   6 -12   6  121.19   10.20
   6   6   6  133.69   10.20
 -12   6   6  134.19   10.70
  12  -6   6  132.49   13.20
  12  -6  -6  131.39   11.80
  12  -6   6  121.39   10.60
  -6  12   6  110.29   10.20
  -6  -6   6  127.79   12.60
  -6  12  -6  126.99   10.90
  -6  -6  -6  113.19   11.10
  -6  -6   6  121.29    9.40
 -12   5   6   53.19    9.40
   7 -12   6   53.89    9.10
   5   7   6   51.79    8.70
   5   7   6   66.19    8.30
  -7  12  -6   69.79   10.90
  -7  -5   6   55.29    9.80
  12  -5  -6   47.60    9.30
  -7  -5   6   56.29    8.00
  12  -7   6   59.59    9.40
  -5  -7  -6   52.59    8.70
  12  -7   6   53.99   10.00
   4   8   6  322.57   15.10
   8   4  -6  269.07   14.70
   4   8   6  317.97   14.50
 -12   4   6  284.77   15.00
   8 -12   6  296.67   15.20
  -4  12   6  294.37   14.90
  -8  -4   6  317.17   17.50
  12  -4  -6  313.87   16.00
  12  -8   6  295.87   14.90
  12  -8   6  297.67   16.90
  -8  -4   6  283.17   14.60
  -4  -8  -6  291.47   14.90
  -8  12  -6  319.47   16.20
   9   3  -6  105.89   10.50
   9 -12   6  138.29   10.70
   3   9   6  128.09   10.30
   3   9   6  117.29   10.40
 -12   3   6  108.39   10.30
   9 -12   6  121.19   10.70
  -9  -3   6  107.59   11.30
  12  -9   6  117.79   10.60
  -3  12   6  123.79   11.30
  -9  -3   6  108.19    9.70
  -3  12   6  135.99   10.20
  -9  12  -6  121.99   11.80
  12  -9   6   97.49   11.80
  12  -3  -6  131.19   11.30
   2  10   6   24.90    7.30
  10 -12   6   32.40    7.50
 -12   2   6   28.60    7.90
  10 -12   6   19.30    7.70
  10   2  -6   20.50    7.70
   2  10   6   39.50    7.80
 -12  10  -6   19.70    7.50
 -10  -2   6   20.10    6.20
  12 -10   6   22.30    7.30
  -2  12   6   31.60    7.00
  -2  12   6   30.30    8.00
  12  -2  -6   33.60    8.50
  12 -10   6   22.20    8.40
  -2 -10  -6   10.10    7.40
 -10  -2   6   17.60    8.10
 -10  12  -6   38.00    8.80
  11   1  -6   45.70    8.60
 -12  11  -6   47.90    8.90
 -12   1   6   49.40    8.70
   1  11   6   70.99   10.00
  11 -12   6   50.49    9.00
  11 -12   6   67.29    9.20
   1  11   6   52.09    9.10
 -11  -1   6   48.80    7.60
  -1  12   6   65.49   10.00
 -11  -1   6   50.79    9.40
  12 -11   6   37.80    9.10
 -11  12  -6   56.59   10.00
  12  -1  -6   56.29    9.40
  -1  12   6   51.09    9.50
  12 -11   6   52.69    9.00
 -12   0   6   47.10    7.30
 -12   0   6   35.20    8.40
 -12  12  -6   25.40    8.70
  12 -12   6   30.30    7.50
  12 -12   6   29.60    8.30
   0  12   6   38.00    9.30
  12   0  -6   47.40    8.70
   0  12   6   42.70    8.60
   0  13  -6    0.10    7.10
  13 -13  -6    4.20    7.00
  13   0   6   10.50    5.80
   0 -13   6    6.20    5.90
 -13   0  -6   -4.20    8.80
 -13  13   6    5.20    6.50
  12 -13  -6    8.40    7.80
 -13   1  -6   -0.20    7.60
   1 -13   6    5.80    6.00
 -13  12   6   -1.70    6.00
  12   1   6    1.10    5.60
   1  12  -6    4.40    6.70
  -1 -12   6    8.10    6.00
  13 -12  -6    6.00    7.30
 -12  13   6    9.70    6.90
  13  -1   6    4.10    5.70
  -1  13  -6   -1.40    6.90
 -12  -1  -6    1.10    8.30
 -13   2  -6   15.10    7.90
   2 -13   6    9.10    6.00
 -13  11   6   14.20    6.60
  11 -13  -6   17.60    8.30
  11   2   6   13.00    6.00
   2  11  -6   15.60    8.30
  13  -2   6   16.00    7.00
  -2  13  -6   14.80    7.30
 -11  -2  -6   11.30    7.50
  13 -11  -6   20.00    7.80
  -2 -11   6   17.20    6.50
 -11  13   6   14.60    6.40
  10 -13  -6   20.30    7.60
 -13  10   6   19.40    6.70
 -13   3  -6   19.60    7.70
  10   3   6   18.60    6.20
   3 -13   6   17.00    7.00
  -3 -10   6   12.40    6.30
  13  -3   6   17.30    6.80
 -10  13   6   18.20    6.70
  13 -10  -6   20.30    8.50
 -10  -3  -6   17.50    9.80
  -3  13  -6   21.10    7.70
 -13   4  -6  136.99   11.40
   4 -13   6  156.68   10.70
 -13   9   6  146.19   10.80
   9 -13  -6  149.49   11.40
   9   4   6  149.49   11.10
  -4  13  -6  154.48   11.60
  -9  -4  -6  154.48   12.60
  -4  -9   6  148.89   14.30
  -9  13   6  157.18   10.90
  13  -9  -6  146.09   12.30
  13  -4   6  148.59   10.30
   8   5   6   66.39    8.50
 -13   5  -6   60.49    9.70
 -13   8   6   62.69    8.60
   8 -13  -6   70.39    9.40
   5 -13   6   76.49    9.80
  -5  13  -6   62.89    9.50
  13  -5   6   71.39    9.40
  -5  -8   6   78.99   12.00
  -8  -5  -6   64.69   10.70
  13  -8  -6   61.89    9.60
  -5  -8   6   80.39    9.90
  -8  13   6   72.09    9.10
 -13   7   6   66.89    9.00
   7   6   6   64.09    9.80
   6 -13   6   61.49    8.80
   7 -13  -6   68.29   10.90
  -6  -7   6   63.89   11.50
  13  -6   6   59.89    8.20
  -7  -6  -6   58.69   10.10
  -6  -7   6   63.89    9.40
  13  -7  -6   71.99   11.30
  -7  13   6   71.29    8.90
  -6  13  -6   67.79   14.60
 -13   6   6  338.07   16.20
   6 -13  -6  325.57   16.30
   6   7   6  366.36   19.40
   6   7   6  320.17   15.60
   7 -13   6  336.67   16.20
  -7  13  -6  335.77   17.40
  -7  -6   6  331.37   15.90
  13  -7   6  311.07   20.10
  -7  -6   6  332.77   18.20
  -6  13   6  331.57   15.80
  13  -7   6  335.47   18.50
 -13   5   6  111.69   10.50
   8 -13   6  109.59   10.10
   5   8   6  132.39    9.60
   5   8   6  118.99   11.10
  -5  13   6  138.59   11.40
  -8  -5   6  111.99    9.90
  -8  -5   6  125.09   13.30
  13  -8   6  104.49   12.00
  13  -5  -6  121.59   10.50
  -8  13  -6  129.49   12.40
  13  -8   6  133.09   10.90
  -5  -8  -6  102.49   10.60
   9 -13   6   43.90    8.10
   9   4  -6   36.70    8.10
   4   9   6   51.29    9.30
   4   9   6   51.09    8.70
 -13   4   6   43.60    8.40
  13  -4  -6   42.20    8.90
  -4  -9  -6   34.40    8.70
  -9  13  -6   33.70    9.00
  -4  13   6   52.89    8.80
  -9  -4   6   52.59    8.20
  13  -9   6   64.89    9.50
  13  -9   6   40.60    9.80
  -9  -4   6   47.30    9.60
   3  10   6  152.48   11.10
   3  10   6  156.88   11.70
  10 -13   6  147.39   11.50
  10   3  -6  124.29   11.70
 -13   3   6  144.79   11.20
  13  -3  -6  153.08   12.50
 -10  -3   6  157.98   12.40
 -10  -3   6  148.49   10.90
 -10  13  -6  166.68   12.60
  -3  13   6  157.28   12.00
  -3 -10  -6  112.99   11.90
  -3  13   6  129.59   13.50
  13 -10   6  148.59   13.10
  13 -10   6  156.68   11.40
 -13   2   6   63.59    9.50
  11 -13   6   90.49    9.40
  11 -13   6   59.49    9.80
  11   2  -6   57.29    9.90
   2  11   6   87.89   10.60
   2  11   6   78.19    9.70
  13 -11   6   82.99   10.20
 -11  -2   6   76.09    9.50
  13 -11   6   59.99   10.80
  -2  13   6   63.19   10.00
  13  -2  -6   63.49   10.70
 -11  -2   6   59.99   10.00
 -11  13  -6   73.69   11.50
   1  12   6   23.90    8.40
  12 -13   6   21.00    7.90
 -13   1   6   25.70    8.30
  12 -13   6   22.30    7.10
   1  12   6   40.40    8.50
  12   1  -6    9.00    8.30
 -12  -1   6   14.80    8.90
 -12  -1   6   33.40    7.30
  13 -12   6   14.90    8.20
  13 -12   6   38.80    7.90
 -12  13  -6   14.90    8.90
  -1  13   6   26.10    9.40
  -1  13   6   32.80    8.00
  13  -1  -6   20.50    8.20
   0  13   6    1.10    7.90
 -13  13  -6   -8.10    7.50
 -13   0   6   -0.60    5.80
  13 -13   6   10.90    7.80
  13   0  -6   -8.80    7.60
   0  13   6    2.10    8.00
  13 -13   6   -6.30    6.80
 -13   0   6   -0.40    7.20
 -14  14   6   22.10    7.20
 -14   0  -6   27.30    9.20
  14   0   6   19.30    6.30
   0 -14   6   17.70    6.60
   0  14  -6   13.80    8.40
  14 -14  -6   18.80    8.50
 -14   1  -6   15.70    9.10
  13 -14  -6    9.10    7.20
   1 -14   6    7.90    6.00
 -14  13   6    7.10    6.10
  13   1   6    7.40    5.80
   1  13  -6    4.80    7.10
 -13  14   6    8.10    6.40
  -1  14  -6    5.60    7.30
  14  -1   6    9.90    6.00
  -1 -13   6   12.90    7.00
 -13  -1  -6   -3.90    7.30
  14 -13  -6    6.50    7.20
   2 -14   6    5.10    5.90
   2  12  -6    4.50    7.10
  12   2   6    5.50    5.80
  12 -14  -6    2.90    7.10
 -14   2  -6   -3.20    7.80
 -14  12   6    7.70    6.80
 -12  -2  -6   -4.80    7.40
  14 -12  -6    8.30    7.40
  -2 -12   6   -2.20    5.50
  -2  14  -6    8.10    7.10
 -12  14   6   -1.60    6.00
  14  -2   6   -2.50    6.30
   3  11  -6   71.09   11.10
 -14   3  -6   59.69    9.60
   3 -14   6   57.79    7.90
  11 -14  -6   53.79    8.80
 -14  11   6   56.69    8.40
  11   3   6   44.00    7.90
  14 -11  -6   62.79    9.60
  14  -3   6   65.39    9.20
  -3  14  -6   66.09    9.90
 -11  14   6   75.99    9.80
  -3 -11   6   58.29    8.30
 -11  -3  -6   70.89   10.70
  10 -14  -6   49.50    9.40
   4 -14   6   61.69    8.40
  10   4   6   54.29    8.00
 -14   4  -6   48.20    9.00
 -14  10   6   55.09    8.60
 -10  -4  -6   43.50   10.20
  -4  14  -6   61.89   11.20
  14  -4   6   53.29    8.10
  -4 -10   6   50.99    8.10
  14 -10  -6   54.99    9.30
 -10  14   6   63.19    8.80
 -14   9   6   23.60    7.60
   9   5   6   24.10    7.10
   9 -14  -6   21.60    7.80
   5 -14   6   23.20    6.80
 -14   5  -6   28.10    8.50
  14  -9  -6   23.40    8.20
  14  -5   6   30.30    6.80
  -9  14   6   28.30    7.00
  -5  14  -6   28.80    9.20
  -9  -5  -6   31.20    8.80
  -5  -9   6   28.30   11.20
  -5  -9   6   26.00    7.80
 -14   6  -6  218.88   14.60
   8   6   6  209.68   12.20
   8 -14  -6  207.48   12.70
 -14   8   6  210.28   12.60
   6 -14   6  199.48   12.50
  -6  14  -6  229.28   14.60
  14  -8  -6  227.48   14.40
  -8  14   6  217.98   12.60
  -8  -6  -6  207.78   14.40
  14  -6   6  212.68   12.70
  -6  -8   6  203.78   15.30
   7 -14   6   90.99    9.60
   7   7   6  109.19   10.80
 -14   7   6  102.29   10.10
   7 -14  -6  108.39   10.50
  -7  14   6  108.59    9.90
  -7  -7   6  107.39   12.70
  -7  -7   6  101.59   10.10
  14  -7   6  119.09   10.40
  14  -7  -6  124.49   10.70
  -7  -7  -6   97.89   10.90
  -7  14  -6   99.29   11.20
   6   8   6   26.20    7.50
 -14   6   6   44.00    8.90
   6 -14  -6   35.00    8.60
   8 -14   6   41.60    8.00
  -8  -6   6   41.80    8.10
  14  -8   6   50.09    8.10
  14  -6  -6   35.00    9.00
  -8  -6   6   55.39   11.20
  -6  -8  -6   41.70    8.60
  14  -8   6   26.20    9.70
  -8  14  -6   41.30   10.50
  -6  14   6   61.89   10.20
   5 -14  -6  212.38   13.50
   5   9   6  226.38   13.20
   9 -14   6  208.28   12.70
   5   9   6  223.58   13.60
 -14   5   6  204.28   12.80
  -5  -9  -6  179.98   13.50
  -9  -5   6  209.38   14.40
  14  -5  -6  198.28   14.00
  -5  14   6  222.38   13.10
  -9  14  -6  216.78   14.40
  -9  -5   6  210.48   12.90
  14  -9   6  213.08   16.00
  10 -14   6   40.70    9.00
   4  10   6   57.69    8.70
 -14   4   6   53.79    9.10
  14 -10   6   50.59    8.00
 -10  -4   6   72.29   10.90
  -4  14   6   60.19    9.10
 -10  -4   6   52.69    8.10
  14 -10   6   46.10   10.10
 -10  14  -6   67.29   10.90
  -4 -10  -6   48.20    9.10
   3  11   6   17.50    7.30
 -14   3   6   20.90    7.80
  11 -14   6   27.50    7.80
  14  -3  -6   28.60    9.10
  -3  14   6   24.70    8.20
 -11  -3   6   24.40    7.70
  14 -11   6   20.60    8.90
 -11  -3   6   22.90    8.80
  14 -11   6   38.00    8.00
 -11  14  -6   19.10    9.00
  -3  14   6   57.09   10.60
  12   2  -6   80.29   12.70
   2  12   6   58.49   10.00
  12 -14   6   32.50    8.40
   2  12   6   54.49    9.40
 -14   2   6   42.10    8.60
  -2  14   6   62.29   11.20
 -12  14  -6   42.30    9.50
 -12  -2   6   46.60    8.70
  -2  14   6   48.00    8.80
  14 -12   6   69.39    9.90
  14  -2  -6   43.00    9.50
 -12  -2   6   48.50   10.20
  14 -12   6   48.40   10.40
   1  13   6   11.80    8.20
   1  13   6   21.20    8.80
  13 -14   6    6.50    7.30
  13 -14   6    4.10    7.20
 -14   1   6    1.60    7.50
  13   1  -6   17.20    8.30
  14  -1  -6   13.60    8.10
 -13  14  -6   -1.00    8.20
 -13  -1   6    6.50    7.20
  -1  14   6    2.40    7.30
 -13  -1   6    3.00    7.80
  -1  14   6   34.90    9.50
  14 -13   6   23.30    7.90
  14 -13   6    2.50    7.40
  14 -14   6   38.70    8.50
  14 -14   6   13.00    8.70
 -14   0   6  -18.10    9.70
   0  14   6   30.50    9.40
  14   0  -6   13.20    8.20
   0  14   6    8.00    8.10
 -14   0   6    5.50    8.00
 -15   0  -6   40.70    9.40
  15   0   6   54.69    9.20
 -15  15   6   47.50    8.50
   0  15  -6   43.10    8.90
   0 -15   6   42.10    8.40
  15 -15  -6   37.40    8.70
 -15   1  -6    4.10    7.70
  14 -15  -6    6.40    7.30
 -15  14   6   -0.30    6.20
  14   1   6    3.10    5.50
   1  14  -6   -3.90    7.00
   1 -15   6   -0.50    5.70
  15  -1   6    9.50    6.70
  -1 -14   6   -5.30    5.80
  -1  15  -6   -2.60    7.40
 -14  -1  -6   -3.40    7.70
 -14  15   6   -1.70    7.00
  15 -14  -6    1.90    8.50
 -15   2  -6   -2.30    7.50
   2 -15   6   12.30    6.50
 -15  13   6    5.90    6.30
  13 -15  -6   -0.20    7.80
   2  13  -6   14.50    7.30
  13   2   6    1.30    5.60
  -2  15  -6   14.60    8.50
 -13  -2  -6    2.00    7.90
 -13  15   6   16.00    6.70
  15 -13  -6   14.60    8.10
  15  -2   6    5.80    6.30
  -2 -13   6   13.90    6.40
 -15  12   6   19.60    7.10
  12 -15  -6   12.80    7.40
  12   3   6   19.20    6.40
   3  12  -6   19.70    7.40
 -15   3  -6   26.00    8.30
   3 -15   6   18.50    7.20
  -3  15  -6   16.70    7.90
 -12  15   6   24.50    7.20
  -3 -12   6   25.40    7.50
  15 -12  -6   22.50    8.30
  15  -3   6   18.50    6.40
 -12  -3  -6   14.50    9.30
   4 -15   6   10.30    6.20
  11   4   6   13.40    6.00
 -15   4  -6    7.70    7.60
   4  11  -6   12.80    7.30
 -15  11   6   12.10    6.40
  11 -15  -6   11.70    7.30
 -11  15   6   11.70    6.60
  -4 -11   6   13.20    6.80
  15  -4   6   14.10    6.20
 -11  -4  -6    5.40    7.70
  15 -11  -6   10.60    7.80
  -4  15  -6   11.10    7.80
 -15   5  -6  133.39   11.50
 -15  10   6  131.59   10.30
  10   5   6  133.79   10.70
  10 -15  -6  144.39   12.50
   5 -15   6  129.69   10.20
  -5 -10   6  134.89   10.60
  15  -5   6  140.59   10.00
  15 -10  -6  137.09   11.60
 -10  15   6  130.39   11.30
  -5  15  -6  147.79   13.10
 -10  -5  -6  135.99   11.70
 -15   6  -6   72.99   10.10
   6 -15   6   75.89   10.00
 -15   9   6   76.89    9.10
   9   6   6   76.19    8.70
   9 -15  -6   87.99   10.00
  15  -6   6   89.39    9.90
  -6  15  -6   83.59   11.70
  15  -9  -6   59.89    9.80
  -6  -9   6   82.59    8.80
  -9  15   6   90.19   10.40
  -6  -9   6   66.49   12.40
   8 -15  -6   17.30    8.30
   8   7   6   15.90    6.50
 -15   7  -6   21.70    9.20
   7 -15   6   14.20    6.80
 -15   8   6   16.80    7.20
  -7  -8   6   18.30    9.90
  -8  -7  -6   15.10    8.20
  15  -8  -6   20.60    8.80
  15  -7   6   27.50    6.90
  -8  15   6   26.10    8.30
  -7  15  -6   19.20    8.20
  -7  -8   6   23.60    7.70
   7 -15  -6  197.68   12.80
 -15   7   6  211.38   12.80
   8 -15   6  206.28   12.60
   7   8   6  202.58   13.00
  15  -7  -6  229.28   14.50
  15  -8   6  209.88   12.30
  -7  -8  -6  167.48   13.60
  -8  -7   6  216.28   16.50
  -7  15   6  218.68   13.60
  -8  -7   6  194.58   13.50
  -8  15  -6  206.28   14.50
   6   9   6   85.19    9.40
   9 -15   6   65.59    9.00
 -15   6   6   75.99    9.60
   6 -15  -6   68.79   10.10
  -9  15  -6   70.19   10.60
  15  -9   6   79.09   12.30
  -9  -6   6   71.19   11.60
  15  -6  -6  108.09   11.80
  -6  15   6   99.69   10.10
  15  -9   6   94.59   10.60
  -9  -6   6   94.79   12.10
  -6  -9  -6   69.39   10.80
  10 -15   6    8.10    6.90
 -15   5   6   23.30    7.70
   5 -15  -6   20.20    9.10
   5  10   6    9.60    7.10
  -5  15   6   19.20    7.60
 -10  -5   6   18.50    7.80
  15 -10   6   13.90    8.00
  15  -5  -6   20.20    9.20
  15 -10   6   17.10    8.90
 -10  -5   6   15.00    9.20
  -5 -10  -6    8.90    8.60
 -10  15  -6   23.90    9.30
 -15   4   6   52.59    8.80
   4  11   6   62.49    9.60
  11 -15   6   61.09    9.60
   4  11   6   66.19   10.20
 -11  -4   6   39.60    8.70
  15 -11   6   62.39   11.30
 -11  -4   6   57.39   10.10
  -4  15   6   79.89   11.00
  15  -4  -6   61.89   10.60
  -4 -11  -6   39.20    9.70
  15 -11   6   64.99   10.00
 -11  15  -6   57.39   10.50
   3  12   6   19.50    7.20
 -15   3   6    1.00    7.00
  12 -15   6   10.60    7.20
   3  12   6    9.60    7.00
 -12  -3   6    1.20    7.20
  -3  15   6   11.50    7.70
  -3  15   6   20.60    8.60
 -12  -3   6   10.80    9.40
  15  -3  -6    2.60    8.50
 -12  15  -6   18.40    8.50
  15 -12   6   12.40    8.60
   2  13   6   21.80    9.30
 -15   2   6   23.70    8.90
  13 -15   6   -0.80    7.20
   2  13   6   22.30    7.80
  15 -13   6   17.70    8.60
 -13  -2   6   24.80    8.90
  -2  15   6   32.70    8.30
  15 -13   6   18.40    8.60
 -13  -2   6   12.60    8.20
  -2  15   6   18.90    8.20
 -13  15  -6    5.30    9.30
 -15   1   6   -0.80    8.40
  14   1  -6   -3.10    8.00
   1  14   6   22.50    9.50
  14 -15   6    6.20    8.40
   1  14   6    5.60    8.50
  14 -15   6    1.00    7.30
  -1  15   6   -1.90    7.40
  15  -1  -6   -8.70    8.60
  -1  15   6   17.40    7.80
 -14  -1   6    4.10    7.90
 -14  15  -6    9.50    9.00
  15 -14   6    0.40    7.90
 -14  -1   6   -3.90    7.70
  15 -14   6   14.10    8.40
   0  15   6   23.30    8.70
  15 -15   6    0.70    8.40
  15   0  -6   15.90    8.80
  15 -15   6   32.60    8.50
   0  15   6    3.40    8.40
 -15   0   6    8.00    9.00
   0 -16   6    0.10    6.40
 -16  16   6    6.00    7.10
  16   0   6   -8.80    5.90
 -16   0  -6    0.70    8.30
  16 -16  -6    3.50    8.00
   0  16  -6    3.50    7.90
   1 -16   6   39.50    7.70
   1  15  -6   35.00    8.90
 -16  15   6   42.40    8.60
  15 -16  -6   44.10    9.70
  15   1   6   46.80    8.10
 -16   1  -6   42.70    9.50
 -15  -1  -6   34.40    9.50
  -1 -15   6   40.60    7.80
  16  -1   6   27.80    6.90
  16 -15  -6   42.20    9.70
  -1  16  -6   40.80   10.00
 -15  16   6   34.00    7.60
   2  14  -6   15.80    7.80
  14 -16  -6   18.70    8.10
 -16   2  -6   14.90    8.70
  14   2   6   23.70    7.20
   2 -16   6   23.80    6.90
 -16  14   6   15.30    6.60
  16 -14  -6   18.90    8.10
 -14  16   6   29.10    7.20
  -2 -14   6   23.00    6.90
  -2  16  -6   23.00    8.60
  16  -2   6   15.70    6.40
 -14  -2  -6   21.10    9.10
   3  13  -6    0.00    6.80
  13   3   6    7.60    6.60
 -16   3  -6   -2.80    7.70
 -16  13   6   -3.80    6.70
  13 -16  -6    2.80    7.10
   3 -16   6   -4.40    5.50
  -3 -13   6   13.70    6.60
 -13  16   6   13.30    7.50
  16  -3   6   10.10    6.10
  16 -13  -6   10.70    8.00
 -13  -3  -6    0.80    7.90
  -3  16  -6    2.50    8.60
   4 -16   6   51.99    8.20
  12 -16  -6   64.39    9.40
  12   4   6   52.39    8.00
   4  12  -6   51.19    9.00
 -16  12   6   50.59    9.50
 -16   4  -6   55.69   10.10
 -12  16   6   61.79    8.80
  16 -12  -6   47.10    9.10
  -4 -12   6   57.19    9.70
  -4  16  -6   57.59   10.20
  16  -4   6   47.50    8.00
 -12  -4  -6   54.69    9.90
  11   5   6   60.89    9.30
   5  11  -6   61.59    9.60
  11 -16  -6   49.30    8.60
   5 -16   6   53.99    8.40
 -16  11   6   60.89    8.80
 -16   5  -6   57.29   10.20
 -11  -5  -6   48.80   10.00
  16 -11  -6   62.59   10.10
  -5 -11   6   53.39    9.70
  16  -5   6   54.89    9.50
 -11  16   6   55.39    8.60
  -5  16  -6   56.49    9.90
 -16  10   6   13.60    6.60
 -16   6  -6    5.70    7.90
  10 -16  -6   14.20    7.60
  10   6   6   13.20    6.70
   6 -16   6   16.80    7.20
  16 -10  -6    8.60    7.80
  -6  16  -6   12.90    8.00
 -10  -6  -6   11.30    8.30
  16  -6   6    7.20    6.20
 -10  16   6   20.90    7.30
  -6 -10   6    2.90    6.30
   9 -16  -6  136.29   11.20
   7 -16   6  137.69   10.70
 -16   9   6  125.39   10.60
 -16   7  -6  129.69   11.70
   9   7   6  140.09   10.30
  16  -7   6  128.39   11.30
  -7  -9   6  122.39   10.60
  -9  -7  -6  117.79   12.10
  16  -9  -6  138.69   13.00
  -7  16  -6  142.69   12.00
  -9  16   6  148.19   11.20
 -16   8   6   96.99   10.00
   8 -16   6   87.39    9.50
   8   8   6   83.79   10.40
   8 -16  -6   95.89   10.20
 -16   8  -6   81.39   11.80
  16  -8  -6  105.69   10.80
  -8  -8   6   90.29   13.00
  -8  -8   6   87.19    9.60
  16  -8   6   83.69   10.40
  -8  16  -6   81.19   12.10
   7   9   6    7.00    6.70
   7 -16  -6   14.30    8.40
   9 -16   6   17.20    7.20
 -16   7   6   17.70    7.60
  -9  -7   6    7.70    9.40
  16  -9   6   10.30    7.70
  -9  16  -6    7.30    8.00
  16  -7  -6    8.10    9.20
  -9  -7   6    2.10    7.10
  -7  16   6   12.40    7.20
  -7  -9  -6   -2.80    8.30
 -16   6   6  106.19   10.50
   6  10   6  103.39   11.10
  10 -16   6  101.19   10.90
   6 -16  -6   97.59   10.50
  -6  16   6  134.79   12.10
  16 -10   6   99.49   11.10
 -10  16  -6  102.49   12.70
 -10  -6   6  109.49   12.90
  -6 -10  -6   96.19   12.00
  16  -6  -6  116.49   12.60
  11 -16   6   19.30    7.30
 -16   5   6   32.50    8.80
   5  11   6   22.70    7.30
   5 -16  -6   18.80    8.00
   5  11   6   46.00    9.90
  16 -11   6   23.30    8.20
  16  -5  -6   52.19   10.20
  -5  16   6   56.09    9.40
  16 -11   6   28.90    9.40
  -5 -11  -6    3.10    8.70
 -11  16  -6   28.30    9.50
 -11  -5   6   27.50    9.80
 -11  -5   6   17.20    8.60
   4  12   6   26.10    8.40
   4  12   6    7.20    7.80
 -16   4   6   -3.00    8.00
  12 -16   6    0.60    6.70
 -12  -4   6   -0.30    8.20
  16 -12   6   12.30    8.00
  16 -12   6    5.30    8.30
 -12  -4   6    6.30    9.30
  -4  16   6   24.80    8.70
  16  -4  -6    6.20    8.80
  -4 -12  -6  -11.90    8.30
 -16   3   6   16.20    7.80
   3  13   6   28.00   10.00
  13 -16   6    7.60    7.10
   3  13   6   10.80    7.70
 -13  -3   6    3.80    9.30
 -13  -3   6    6.70    8.60
 -13  16  -6   -6.40    9.70
  16 -13   6    9.00    8.70
  16  -3  -6   12.70    8.90
  -3  16   6   15.40    7.70
  16 -13   6   17.20    8.80
  14 -16   6    3.60    7.40
 -16   2   6    1.00    7.60
   2  14   6    4.40    7.40
  16  -2  -6   -2.60    9.30
  16 -14   6   11.30    8.80
 -14  -2   6   -0.50    8.80
  16 -14   6    4.20    8.40
 -14  -2   6    4.40    8.50
 -14  16  -6   10.60    9.50
  -2  16   6   -4.90    7.90
  -2  16   6   27.40    9.00
  15 -16   6   53.99   13.50
   1  15   6    2.70    7.60
   1  15   6   27.10    9.30
  15 -16   6   -6.30    7.00
  15   1  -6   -9.30    9.60
 -16   1   6    8.90    8.80
 -15  -1   6   -7.70    9.10
  16  -1  -6    4.10    8.70
  16 -15   6    3.30    8.10
  -1  16   6    0.70    7.60
 -15  -1   6   -6.00    8.20
 -16   0   6   21.90    9.10
  16 -16   6   24.80    9.40
  16   0  -6    1.10   11.70
  16 -16   6    6.50    9.10
   0  16   6   10.90    9.10
   2 -17   6   -1.20    5.90
  15 -17  -6   -1.10    7.40
 -17   2  -6    0.90    8.40
   2  15  -6   10.20    8.00
 -17  15   6   -1.80    6.50
  15   2   6   -1.00    6.00
 -15  -2  -6   -2.50    8.40
  17  -2   6   -0.80    6.70
  -2 -15   6   -2.60    6.40
  -2  17  -6   -4.60    7.70
  17 -15  -6    0.50    8.40
 -15  17   6   -2.20    7.20
  14   3   6   19.70    6.70
 -17   3  -6   22.20    9.30
 -17  14   6   18.60    7.20
   3 -17   6   10.50    6.40
   3  14  -6   20.70    7.80
  14 -17  -6   13.20    8.00
  17  -3   6   23.10    7.30
  17 -14  -6   15.20    8.20
 -14  -3  -6   11.20    9.00
 -14  17   6   13.30    7.20
  -3  17  -6   16.10    9.30
  -3 -14   6   30.70    8.40
   4  13  -6   31.80    8.20
   4 -17   6   32.10    7.00
  13   4   6   27.30    7.50
  13 -17  -6   23.60    7.80
 -17  13   6   29.70    7.40
 -17   4  -6   33.30   10.10
  17  -4   6   25.40    7.50
 -13  17   6   35.50    7.70
 -13  -4  -6   27.00    9.60
  -4  17  -6   30.30    8.80
  -4 -13   6   26.70    7.50
  17 -13  -6   22.60    8.60
   5 -17   6    3.50    6.80
 -17   5  -6    7.50    8.10
 -17  12   6    2.80    6.60
  12   5   6    2.00    6.50
  12 -17  -6    5.10    7.20
   5  12  -6   10.20    7.10
  17 -12  -6    9.00    8.00
  17  -5   6    5.40    6.30
  -5  17  -6   14.30    8.40
  -5 -12   6    4.20    6.30
 -12  -5  -6    4.30    7.50
 -12  17   6   11.90    6.60
  11   6   6   75.49    8.60
 -17   6  -6   74.99   10.50
   6  11  -6   76.69   11.10
  11 -17  -6   83.69   10.10
   6 -17   6   74.09    8.60
 -17  11   6   75.19   10.20
  17  -6   6   66.19    9.10
 -11  17   6   66.19   10.50
 -11  -6  -6   48.30    9.20
  -6 -11   6   83.09    9.30
  -6  17  -6   83.49   10.90
  17 -11  -6   68.69   10.70
  10   7   6   54.09    8.50
  10 -17  -6   48.70    9.00
 -17  10   6   49.30    8.80
   7 -17   6   56.49    8.80
 -17   7  -6   67.39   10.60
 -10  -7  -6   38.10    8.80
  17 -10  -6   57.59   10.20
  -7 -10   6   61.29    9.80
  17  -7   6   65.49   10.30
  -7  17  -6   61.09   10.30
 -10  17   6   75.09   10.70
   9 -17  -6    2.90    8.10
 -17   8  -6   -4.00    7.80
   8 -17   6    0.10    6.30
 -17   9   6    5.40    7.80
   9   8   6    3.80    6.20
  -9  17   6   11.80    7.80
  -9  -8  -6  -15.90    8.60
  17  -9  -6    5.30    9.10
  -8  -9   6    9.10    7.80
  17  -8   6    6.20    6.50
  -8  17  -6    0.30    8.90
 -17   9  -6   65.69   10.20
 -17   8   6   77.89    9.70
   9 -17   6   78.09    9.30
   8   9   6   75.09   10.30
   8 -17  -6   67.59    9.80
  17  -8  -6   81.79   12.00
  -8  17   6   80.19    9.80
  -9  -8   6   73.89   10.90
  17  -9   6   74.89   10.60
  -9  -8   6   70.59   13.10
  -8  -9  -6   42.50    9.70
  -9  17  -6   66.09   11.20
 -17   7   6   38.40    8.90
   7  10   6   30.10    7.80
  10 -17   6   19.50    6.80
   7 -17  -6   28.60    8.00
  -7  17   6   53.39    9.30
  17 -10   6   29.90    8.10
  17  -7  -6   44.50    9.40
 -10  17  -6   38.30   10.30
 -10  -7   6   33.60    9.40
 -10  -7   6   33.40   10.50
  11 -17   6    7.50    6.70
 -17   6   6   18.40    7.50
   6 -17  -6   19.70    8.20
   6  11   6    7.30    7.80
 -11  -6   6   17.30    8.80
  17  -6  -6   19.80    9.00
 -11  17  -6   17.30    9.80
  -6  17   6   19.00    7.50
  -6 -11  -6  -10.40    8.40
 -11  -6   6    9.20    9.70
  17 -11   6   17.50    7.30
  12 -17   6   35.70    8.00
   5  12   6   65.79   11.70
   5  12   6   31.50    7.90
   5 -17  -6   29.20    8.50
 -17   5   6   20.00    7.90
 -12  17  -6   26.20   10.80
  -5 -12  -6   11.40    9.10
 -12  -5   6   24.10    9.80
 -12  -5   6   43.30    9.70
  -5  17   6   59.19   10.90
  17 -12   6   53.39    9.30
  17  -5  -6   35.40    9.60
  17 -12   6   32.70    9.80
 -17   4   6    1.80    7.70
   4  13   6   14.10    7.40
   4 -17  -6    9.50    8.30
   4  13   6   15.80    9.10
  13 -17   6    6.30    7.30
 -13  17  -6    2.70    9.40
 -13  -4   6   12.60    8.50
  17 -13   6   13.90    8.80
 -13  -4   6   11.80   10.80
  17  -4  -6    2.20    9.00
  17 -13   6   12.60    8.20
  -4  17   6   11.20    8.50
 -17   3   6   -2.20    7.70
   3  14   6    5.40    8.50
   3  14   6   39.40   22.10
  14 -17   6    0.60    7.00
  17 -14   6   18.80    8.80
 -14  17  -6   -1.70   17.40
 -14  -3   6    4.40    8.90
  17  -3  -6    1.70    9.70
  17 -14   6    2.00    8.50
 -14  -3   6    8.60    8.80
  -3  17   6   20.00    8.60
 -17   2   6   22.80    9.00
   2  15   6   18.90    8.40
  15 -17   6   16.90    7.90
  17 -15   6   18.80    9.40
 -15  -2   6   20.10    9.30
 -15  17  -6   24.60   10.60
  17 -15   6   43.00    9.60
  -2  17   6   29.80   10.20
 -15  -2   6   21.40    9.50
  17  -2  -6   25.00    9.60
  -2  17   6   10.10    8.40
 -18   5  -6    1.90    8.30
 -18  13   6   17.90    7.40
   5 -18   6    9.00    6.50
  13 -18  -6   11.30    7.60
   5  13  -6   20.30    7.70
  13   5   6   13.10    6.50
 -13  18   6   24.70    8.00
  18  -5   6   23.50    7.90
 -13  -5  -6    5.10    7.90
  -5  18  -6   10.70    8.60
  -5 -13   6   14.90    6.90
  18 -13  -6   20.70    9.60
  12   6   6   32.00    7.40
 -18  12   6   26.90    7.50
  12 -18  -6   25.90    8.10
   6 -18   6   25.20    7.20
 -18   6  -6   32.40    9.00
   6  12  -6   27.00    8.10
  -6  18  -6   21.80    9.00
 -12  18   6   32.10    7.90
  18 -12  -6   36.90   10.10
  -6 -12   6   33.80    8.60
  18  -6   6   37.60    8.40
 -12  -6  -6   33.20    9.70
  11   7   6    2.30    6.20
   7  11  -6   10.00    7.30
 -18   7  -6    1.30    8.00
 -18  11   6    0.70    6.60
  11 -18  -6    3.60    8.60
   7 -18   6    6.20    6.50
  18  -7   6   11.90    6.80
  -7 -11   6    7.60    7.00
  -7  18  -6  -12.30    8.20
  18 -11  -6    2.60    8.30
 -11  18   6   12.00    7.00
 -11  -7  -6   -7.00    8.90
   8 -18   6   31.30    7.60
  10 -18  -6   40.00    8.70
 -18  10   6   40.20    9.10
 -18   8  -6   31.80    9.10
   8  10  -6   34.40    8.70
  10   8   6   33.90    7.40
 -10  -8  -6   39.60   10.20
  -8  18  -6   30.70   10.20
 -10  18   6   36.90    8.40
  18  -8   6   44.20    8.60
  18 -10  -6   38.80    9.40
  -8 -10   6   34.10    8.50
 -18   9   6   37.50    8.30
   9 -18   6   24.30    7.40
   9 -18  -6   33.80    8.60
   9   9   6   36.00    8.30
 -18   9  -6   30.10    9.10
  -9  18  -6   47.70   10.80
  -9  18   6   36.70    8.10
  18  -9  -6   36.10   10.30
  -9  -9   6   15.10    8.00
  18  -9   6   42.90    8.50
  -9  -9  -6   19.70    9.30
 -18   8   6    3.30    7.00
  10 -18   6    0.50    6.50
   8  10   6    5.20    7.10
   8 -18  -6    5.50    7.30
 -18  10  -6    5.40    8.40
  18  -8  -6   -6.40    9.60
 -10  -8   6    2.20   10.40
  -8 -10  -6   -3.40    8.20
  18 -10   6   15.30    8.30
 -10  -8   6   15.40    7.90
  -8  18   6   12.00    8.10
 -10  18  -6   -4.40    9.10
  11 -18   6   18.40    7.20
   7 -18  -6   29.30    8.90
 -18  11  -6   24.30    9.00
   7  11   6   33.50    8.70
 -18   7   6   25.80    9.30
  -7  18   6   32.50    8.40
 -11  18  -6   21.80    9.50
  -7 -11  -6   -0.70    9.10
  18  -7  -6   28.60   10.00
 -11  -7   6   12.30    7.80
 -11  -7   6   24.80   11.20
  18 -11   6   32.90    8.50
   6  12   6    5.40    7.10
   6 -18  -6   -1.80    8.70
 -18   6   6   -1.80    7.30
  12 -18   6   14.70    7.10
  -6  18   6    9.20    7.60
  18  -6  -6    1.00    9.40
 -12  -6   6   -2.80    8.30
  -6 -12  -6  -20.40    8.40
 -12  18  -6  -24.40    9.20
 -12  -6   6    1.70    9.90
  18 -12   6   17.10    7.50
   5  13   6   24.10    8.70
   5 -18  -6   23.70    9.70
  13 -18   6   14.10    7.30
 -18   5   6    8.10    8.30
  -5  18   6   18.00    9.20
 -13  18  -6   23.20   10.30
  18  -5  -6    6.50    9.80
 -13  -5   6   10.80   11.30
  18 -13   6   26.30    8.00
  18 -13   6    5.50    8.90
 -13  -5   6   16.80    9.20
  -5 -13  -6    8.90    9.50
   0   0   7    3.30    7.60
   0   0   7   -4.70    6.80
   0   0   7   -7.20    7.30
   0  -1   7    7.40    8.10
  -1   1   7   13.40    7.50
  -1   1   7   10.40    7.10
  -1   1   7   10.50    7.60
   1   0   7    0.50    8.00
   1   0   7    8.10    8.30
   1   0   7    5.40    6.40
   0  -1   7   11.70    7.50
   0  -1   7    6.60    7.50
  -1   0   7   -3.40    7.80
   1  -1   7    7.70    7.20
   0   1   7   -9.20    7.50
   1  -1   7    2.70    7.70
  -1   0   7    4.90    7.30
   1  -1   7   -6.20    7.20
  -1   0   7   -1.70    7.00
   0   1   7    1.60    7.30
   0   1   7    4.20    6.70
  -2   2   7   12.50    8.20
   2   0   7   30.40    9.20
   0  -2   7   15.80    8.40
   2   0   7   28.80    8.20
   2   0   7   18.50    7.50
   0  -2   7   25.90    8.20
  -2   2   7   18.00    6.80
   0  -2   7   21.50    9.00
  -2   2   7   14.50    8.30
   1   1   7   42.60    8.50
   1  -2   7   40.50    8.60
  -2   1   7   58.29    9.20
   1  -2   7   59.89    9.40
  -2   1   7   47.30    8.80
   1  -2   7   49.40    8.90
   1   1   7   44.10    9.20
   1   1   7   44.90    9.30
   2  -1   7   45.30    9.40
   2  -1   7   56.99    9.80
  -1   2   7   53.59    9.50
  -1  -1   7   59.59    9.60
  -1   2   7   41.60    8.00
  -1   2   7   49.00    9.30
  -1  -1   7   39.80    9.10
   2  -1   7   37.70    8.20
  -1  -1   7   60.79   10.00
   0   2   7   16.30    6.40
  -2   0   7   20.00    7.90
   2  -2   7   11.20    8.10
  -2   0   7   18.20    7.20
   2  -2   7   13.30    8.20
   2  -2   7    7.80    7.20
   0   2   7    8.60    7.40
   3   0   7   56.59   10.10
   3   0   7   85.69    9.40
   0  -3   7   54.59    9.20
   0  -3   7   71.59   10.10
   3   0   7   69.69   11.00
   0  -3   7   59.69   10.80
  -3   3   7   51.29    9.30
  -3   2   7   17.70    8.70
   1  -3   7    9.90    7.50
   2   1   7    3.30    8.00
  -3   2   7    7.80   11.00
   1  -3   7    5.20    7.70
   1  -3   7   10.30    7.80
   2   1   7    2.90    7.00
  -2   3   7    5.90    6.30
  -1  -2   7    5.80    7.40
   3  -1   7    6.50    8.40
   3  -1   7    7.70    7.60
  -2   3   7    4.80    7.70
   3  -1   7   11.60    7.40
  -1  -2   7   18.70    7.20
   1   2   7   41.40    8.30
   2  -3   7   53.99    9.40
   2  -3   7   39.30    8.50
   2  -3   7   38.40    8.90
   1   2   7   44.20    8.10
  -3   1   7   37.80    8.30
   3  -2   7   37.90    9.30
  -1   3   7   40.60    9.20
   3  -1  -7   30.90    8.50
  -2  -1   7   34.40    7.70
  -1   3   7   32.40    7.30
   3  -2   7   39.50    8.70
   3  -2   7   25.50    8.10
   3  -3   7  112.79   12.20
   3  -3   7   89.19   10.40
   0   3   7  103.49    9.40
   0  -3  -7  145.19    9.70
   3   0  -7  114.49   10.60
   3  -3   7  112.79   11.30
  -3   0   7  112.19   10.70
  -3   0   7  105.99   12.30
   0  -4   7   67.79   10.30
   4   0   7   86.99   10.70
  -4   4   7   68.89    8.80
   4   0   7   81.09   13.20
   0  -4   7  109.39   18.60
   1  -4   7   15.50    7.60
   3   1   7    8.50    7.50
   1  -4   7   10.80    9.10
  -4   3   7   16.40    7.70
   3   1   7   22.30   12.00
   1  -4   7   18.90    7.90
   4  -1   7   11.30    8.20
  -3   4   7    8.60   10.50
   4  -1   7    7.00    7.40
   4  -1   7   14.80    8.70
  -1  -3   7   15.60    7.40
   4  -3  -7    3.70    7.80
   2   2   7   79.89    9.70
   2  -4   7   68.69    9.50
  -4   2   7   69.09    9.00
   2  -4   7   60.29   10.60
   2  -4   7   59.29   10.50
   2   2  -7   74.89    9.20
  -2   4   7   69.09    9.70
  -2  -2  -7   99.29    9.40
   4  -2   7   74.89   11.00
  -2  -2   7   66.09   11.90
  -2  -2   7   74.49    9.70
   4  -2  -7   72.99   10.30
   4  -2   7   85.09   10.30
   4  -2   7   57.29   10.20
   3  -4   7   14.30    7.70
   3  -4   7   15.20    7.40
   1   3   7   11.80    7.20
  -4   1   7   13.00    7.20
   3  -4   7   18.50    7.90
  -4   1   7    7.50    7.00
   1   3   7    7.30    7.10
   3   1  -7   13.20    7.40
   4  -3   7    3.10    8.00
  -1   4   7   14.70    7.20
   4  -3   7   13.60    6.70
  -3  -1   7   16.60    8.70
  -3  -1   7    9.70    7.20
  -1   4   7   10.60    7.90
   4  -3   7    8.50    8.60
   4  -1  -7    4.90    7.00
   4   0  -7   62.69    9.50
   4  -4   7   65.49   11.10
   0   4   7   56.59    9.20
  -4   0   7   65.79    9.00
  -4   0   7   55.99    9.20
   4  -4   7   68.39    9.70
   4  -4   7   61.69    9.90
   0  -4  -7   51.69    9.10
   0   4   7   62.09   10.10
  -5   0  -7   38.10    8.10
   5   0   7   25.00    7.70
   0  -5   7   35.20    9.10
   5   0   7   34.60    8.30
  -5   5   7   28.10    7.70
   0  -5   7   38.40    7.80
   5  -5  -7   29.40    8.20
   1  -5   7  199.38   12.50
   4   1   7  215.58   13.50
   4  -5  -7  203.38   13.00
  -5   4   7  200.78   12.40
   1  -5   7  169.88   13.30
   1  -5   7  202.68   20.20
   4   1   7  203.68   13.00
   1   4  -7  243.68   12.50
   5  -4  -7  182.28   18.50
   5  -1   7  225.28   13.80
  -4   5   7  191.88   12.10
   5  -1   7  191.08   13.70
  -1  -4   7  212.58   12.90
  -1  -4   7  197.88   13.80
  -4  -1  -7  233.58   13.20
   3   2   7   79.19    9.80
   2  -5   7   76.59    9.50
   2   3  -7   77.29    9.60
   2  -5   7   82.29   11.00
   2  -5   7   81.49   10.40
   3   2   7   76.89   10.70
  -5   3   7   72.49    9.40
   5  -2   7   85.79   10.70
   5  -2   7   77.29   12.20
  -3  -2  -7   97.59    9.70
  -2  -3   7   94.49    9.70
   5  -3  -7   76.29    9.40
  -2  -3   7   62.79   10.00
   5  -2   7   86.69   11.10
   3  -5   7    5.30    8.90
   2   3   7    0.20    7.10
  -5   2   7   12.70    7.40
   3  -5   7   12.20    7.60
   2   3   7    8.20    6.90
   3  -5   7   10.50    6.80
   3   2  -7    4.30    6.40
   5  -3   7    1.10    7.60
  -3  -2   7    9.20    6.50
  -2  -3  -7   -6.50    6.40
   5  -3   7    4.70    7.00
  -2   5   7    0.10    8.00
   5  -3   7   10.50    8.40
  -3  -2   7    7.50    7.60
  -2   5   7    8.00    7.00
   5  -2  -7   11.80    7.40
  -5   1   7   76.99   10.70
   1   4   7   76.99   10.90
   1   4   7   90.19    9.80
   4   1  -7   79.39    9.50
   4  -5   7   67.39   12.50
   4  -5   7   70.99   10.60
   4  -5   7   70.09   10.30
   5  -1  -7   88.69    9.90
  -1   5   7   75.09   10.10
  -1  -4  -7   97.29    9.30
   5  -4   7   81.89   12.30
  -1   5   7   72.19   10.00
   5  -4   7   69.99   10.90
  -4  -1   7   82.39   10.00
  -4  -1   7   78.19   10.30
   5  -4   7   76.29   10.40
   5  -5   7   -2.80    8.20
   0   5   7    8.60    7.00
   5  -5   7    5.90    8.40
  -5   0   7   -0.90    6.90
   5   0  -7    2.40    7.00
  -5   0   7   10.00    6.70
   0   5   7    1.90    7.40
   5  -5   7   -6.80    6.80
  -6   0  -7  474.85   20.10
   0   6  -7  465.95   18.80
   6   0   7  392.36   19.60
   6   0   7  434.16   19.50
   0  -6   7  409.96   20.70
   6  -6  -7  437.96   19.50
  -6   6   7  415.26   19.10
   0  -6   7  415.96   19.50
   5  -6  -7  158.48   12.80
  -6   5   7  140.09   10.80
   5   1   7  169.88   12.50
   1  -6   7  140.39   13.20
   5   1   7  154.28   11.30
   1  -6   7  157.18   12.10
   1   5  -7  166.38   11.60
   6  -1   7  141.69   11.90
  -5  -1  -7  168.38   12.00
  -1  -5   7  163.78   11.90
   6  -5  -7  161.58   12.20
   6  -1   7  156.48   12.30
  -1  -5   7  145.59   12.60
  -5   6   7  150.18   10.80
   2  -6   7   17.50    7.20
   2   4  -7   28.90    7.00
  -6   4   7   26.10    7.40
   4   2   7   26.30    7.60
   2  -6   7   35.20    8.20
   2  -6   7   12.20   10.70
   4   2   7   29.90    8.00
   6  -2   7   28.60    8.80
  -2  -4   7   39.00    8.20
  -4  -2  -7    4.50    7.10
   6  -2   7   14.90    9.90
   6  -2   7    8.50    8.10
  -4   6   7   25.90    7.40
  -2  -4   7   12.10    8.20
  -6   3   7  188.78   13.00
   3  -6   7  173.98   12.30
   3  -6   7  195.48   15.30
   3   3  -7  192.88   11.80
   3   3   7  181.18   13.00
   3   3   7  179.48   12.40
   3  -6   7  164.28   13.40
   6  -3  -7  202.78   12.90
  -3  -3   7  178.38   12.20
  -3   6   7  177.88   12.50
   6  -3   7  175.58   13.80
  -3  -3   7  173.18   12.90
   6  -3   7  173.68   14.10
  -3  -3  -7  205.18   12.00
   6  -3   7  184.68   12.00
   2   4   7   89.29   10.20
   4  -6   7   93.89   13.30
   4  -6   7   78.89   11.30
   4  -6   7   85.29   10.70
  -6   2   7   85.79    9.50
   2   4   7   93.89    9.90
   4   2  -7   72.89    9.60
   6  -2  -7   75.39   10.40
   6  -4   7   73.29   11.50
   6  -4   7   79.59   12.60
  -4  -2   7   74.19   11.80
  -2   6   7   82.49   11.70
  -2  -4  -7   98.59    9.50
  -2   6   7   75.49    8.60
  -4  -2   7  106.39    9.80
   6  -4   7   66.39   10.40
   5   1  -7   14.90    6.90
   1   5   7   -0.60    5.70
   1   5   7    5.80    7.70
   5  -6   7    8.80    6.90
   5  -6   7    7.00    9.60
  -6   1   7    1.90    7.00
   5  -6   7    5.00    8.10
   6  -5   7    5.30    7.40
   6  -5   7    0.50    8.90
  -1   6   7    5.40    5.90
   6  -1  -7    0.00    6.40
  -5  -1   7   16.40    7.00
  -5  -1   7    3.90    7.60
   6  -5   7   -6.20    8.20
  -1   6   7    4.80    7.20
  -6   0   7   19.00    6.50
   6  -6   7  -13.20    9.00
   6   0  -7    1.10    6.60
   0   6   7   -0.70    7.20
   0   6   7    2.70    6.40
   6  -6   7    7.40    7.80
  -6   0   7   -1.70    6.90
   0  -7   7  117.69   14.30
   7   0   7  142.99   11.70
  -7   7   7  121.49    9.90
   0  -7   7  109.19   11.10
   7  -7  -7  115.79   10.50
  -7   0  -7  112.69   10.50
   6  -7  -7   73.39   10.00
   1  -7   7   84.59    9.50
   6   1   7   83.69   10.80
  -7   6   7   83.99    9.50
   1   6  -7  122.69   11.10
  -7   1  -7   92.19   11.20
   1  -7   7   78.99   12.10
   6   1   7   88.79   10.50
  -6   7   7   84.79    9.00
  -1  -6   7   84.59   13.50
   7  -6  -7   83.39   11.00
  -6  -1  -7   73.29   10.30
  -1  -6   7   89.49    9.40
   7  -1   7   80.29   10.60
   7  -1   7   71.79   10.60
   2  -7   7  312.47   17.80
  -7   5   7  357.76   17.10
   5   2   7  379.66   17.40
   2   5  -7  384.56   17.20
   2  -7   7  394.56   20.80
   2  -7   7  396.26   18.10
   5  -7  -7  366.86   17.50
  -5  -2  -7  411.16   18.00
  -5   7   7  370.36   17.30
   7  -2   7  364.66   19.00
   7  -5  -7  381.16   18.10
  -2  -5   7  364.76   17.50
  -2  -5   7  395.36   19.70
   7  -2   7  384.26   17.80
   3   4  -7  176.78   12.10
   4   3   7  172.48   12.00
   3  -7   7  189.58   14.30
   4   3   7  166.58   12.60
  -7   4   7  164.48   12.30
   3  -7   7  189.88   15.90
   3  -7   7  165.78   12.70
   7  -3   7  125.89   14.30
  -4   7   7  166.48   11.00
  -3  -4   7  165.88   12.00
   7  -3   7  184.98   15.20
  -4  -3  -7  202.68   12.40
  -3  -4   7  176.08   13.30
   3   4   7    6.00    6.90
   3   4   7   12.90    6.50
  -7   3   7    3.50    6.60
   4  -7   7   12.70    6.90
   4  -7   7   -1.00    9.00
   4   3  -7   10.20    6.70
  -3   7   7    6.20    6.00
   7  -4   7   15.10    8.80
  -3  -4  -7   -0.30    6.70
   7  -3  -7   16.40    8.00
   7  -4   7   16.00    6.90
  -3   7   7    5.30    7.50
   7  -4   7   -0.40    8.30
  -4  -3   7    4.00    7.20
  -4  -3   7    5.40    6.50
   2   5   7   74.39    9.70
   5  -7   7   62.29   10.10
   5  -7   7   89.19   13.20
   5  -7   7   79.79    9.80
   5   2  -7   68.39   10.10
  -7   2   7   70.39    9.30
   2   5   7   90.59   10.10
  -5  -2   7   76.69   10.60
  -5  -2   7   85.19    9.50
   7  -5   7   81.79   10.20
  -2  -5  -7   58.19    9.20
  -2   7   7   74.59   10.10
   7  -5   7   67.19   12.30
   7  -2  -7   70.39   10.20
   6  -7   7   -1.40    8.20
   1   6   7   13.40    6.70
   1   6   7   10.70    7.10
   6  -7   7  -12.00    9.60
  -7   1   7   13.30    8.00
   6  -7   7    4.10    7.20
   6   1  -7   -0.60    6.90
  -6  -1   7   13.40    6.90
  -1   7   7   16.30    6.90
   7  -6   7   20.00    7.40
   7  -1  -7    8.60    7.00
   7  -6   7   11.40    8.30
   7  -6   7   -4.50   10.10
  -1   7   7    8.60    7.40
  -6  -1   7    4.10    8.10
   7  -7   7    9.40    7.40
   7  -7   7    6.90    8.60
   0   7   7   16.40    7.80
  -7   0   7   21.20    7.80
   7   0  -7    6.90    6.80
   0   7   7   13.00    6.60
  -8   8   7   46.20    8.10
   8  -8  -7   53.69    9.40
   0  -8   7   66.09    9.00
   8   0   7   63.59   10.20
   0  -8   7   71.09   12.00
   1  -8   7  350.26   17.50
  -8   7   7  353.76   16.90
   7   1   7  358.26   17.00
   1  -8   7  369.36   20.60
   7  -8  -7  349.96   16.60
  -1  -7   7  306.67   18.40
   8  -1   7  334.67   16.90
   8  -7  -7  344.27   16.60
  -7   8   7  338.87   16.50
  -1  -7   7  342.57   18.70
  -7  -1  -7  380.36   17.70
   2  -8   7  144.09   12.00
   6   2   7  146.09   11.00
   6  -8  -7  139.39   11.30
   2  -8   7  123.99   13.90
  -8   6   7  142.79   10.80
   6   2   7  147.19   12.60
   8  -2   7  132.39   10.60
  -2  -6   7  137.19   14.60
  -6   8   7  129.19   10.20
  -2  -6   7  142.39   11.70
   8  -6  -7  137.69   10.90
  -6  -2  -7  139.29   11.70
   3  -8   7   29.60   11.30
   3  -8   7   18.20    7.30
   5   3   7   36.00    7.90
  -8   5   7   27.00    8.00
   5  -8  -7   31.00    9.00
   5   3   7   29.80    7.90
  -3  -5   7   25.10    6.70
   8  -5  -7   19.10    7.70
  -5   8   7   26.10    6.80
  -3  -5   7   26.30    8.60
  -5  -3  -7   15.80    7.90
   8  -3   7   37.00    8.70
   4   4  -7  140.09   11.50
   4   4   7  167.98   12.70
   4  -8   7  156.68   13.10
   4  -8   7  178.98   13.30
   4   4   7  176.48   12.40
  -8   4   7  176.18   11.60
  -4  -4   7  179.68   11.80
   8  -4   7  161.78   13.70
  -4  -4   7  167.18   13.20
   8  -4   7  160.38   14.90
  -4  -4  -7  177.68   11.90
   8  -4  -7  170.98   12.80
  -4   8   7  159.68   11.00
   3   5   7   95.49    9.90
   5  -8   7   78.99   11.00
   5  -8   7   88.19   11.40
  -8   3   7   90.99    9.60
   5   3  -7   61.89    9.80
   3   5   7   82.39    9.80
  -3   8   7  102.59   10.60
   8  -3  -7   81.09    9.60
  -3   8   7   82.29   10.10
  -3  -5  -7   73.79    9.80
   8  -5   7   77.39   11.70
   8  -5   7   81.59   13.00
  -5  -3   7   90.69   10.60
   8  -5   7   96.89   10.90
   6   2  -7   13.90    6.80
   2   6   7   12.80    8.40
   6  -8   7   18.20    7.50
  -8   2   7   15.40    8.00
   2   6   7   14.20    6.70
   6  -8   7    6.30    7.20
  -6  -2   7   10.20    7.70
  -2   8   7   15.60    7.50
   8  -2  -7   16.90    6.80
  -2   8   7   15.00    7.60
  -6  -2   7   21.70    7.10
   8  -6   7   19.10    8.50
   8  -6   7    5.80    8.20
   7  -8   7   18.20    8.10
   1   7   7   16.80    7.70
   7  -8   7   10.80    7.40
   1   7   7   23.30    6.80
   7   1  -7    2.90    7.30
  -8   1   7   14.50    7.30
  -7  -1   7    1.00    7.20
   8  -7   7    2.90    7.20
  -1   8   7   11.90    7.70
   8  -7   7   10.40    8.10
  -7  -1   7   15.00    7.00
   8  -1  -7   20.40    7.30
   0   8   7    5.10    6.80
  -8   8  -7   22.30    8.30
   8  -8   7    1.10    8.40
   0   8   7   -8.60    7.90
  -8   0   7   -3.40    7.20
   8  -8   7    2.10    7.20
   8   0  -7  -13.30    6.90
   9  -9  -7  261.47   15.20
  -9   0  -7  267.07   15.30
  -9   9   7  234.58   13.20
   0  -9   7  234.68   16.60
   0  -9   7  250.27   14.40
   9   0   7  229.28   13.00
  -9   8   7  123.99   10.20
   1  -9   7  129.39   11.60
   1  -9   7  120.59   13.80
   8  -9  -7  155.38   12.60
  -9   1  -7  121.19   11.50
   8   1   7  123.79   10.60
  -1  -8   7  143.79   11.50
  -8   9   7  132.59   10.30
  -1  -8   7  126.79   13.40
   9  -1   7  135.89   11.20
   9  -8  -7  119.49   10.90
   7  -9  -7   45.50    9.10
   7   2   7   43.10    7.90
  -9   2  -7   48.20    9.20
   2  -9   7   45.30    8.10
  -9   7   7   58.69    9.80
  -2  -7   7   35.00   10.00
  -7  -2  -7   53.49    9.80
   9  -2   7   29.60    7.00
  -7   9   7   32.20    7.20
   9  -7  -7   35.70    8.20
   3  -9   7  181.98   12.00
   6  -9  -7  186.08   12.70
  -9   6   7  176.78   11.70
   6   3   7  182.18   12.00
   9  -6  -7  190.98   13.50
  -6  -3  -7  175.38   12.90
  -6   9   7  186.58   12.20
  -3  -6   7  190.48   15.70
  -3  -6   7  185.38   12.70
   5   4   7   63.09    9.70
   5   4   7   76.59   10.60
  -9   5   7   79.89   10.40
   5  -9  -7   85.89   10.30
   4  -9   7   72.89   10.40
  -4  -5   7   89.19    9.90
  -5   9   7   64.19    8.70
  -4  -5   7   69.49   10.90
  -5  -4  -7   57.19   10.40
   9  -4   7   69.59    8.90
   9  -5  -7   88.59   11.20
  -9   4   7   10.10    7.30
   4   5   7   18.80    7.40
   4   5   7   20.30    7.10
   5  -9   7   18.60    7.20
   9  -5   7   21.30    9.90
  -4  -5  -7    5.90    7.10
   9  -5   7   16.10    7.50
  -4   9   7   11.00    7.10
   9  -4  -7   19.10    7.30
  -5  -4   7   15.90    7.10
  -5  -4   7   19.40    9.50
   3   6   7   68.19   10.50
   3   6   7   71.29    9.70
   6  -9   7   73.79    9.80
   6   3  -7   56.39    9.20
  -9   3   7   58.89    9.00
   6  -9   7   83.99   10.50
   9  -6   7   71.79   12.40
  -6   9  -7   62.99   11.50
  -6  -3   7   59.49   10.20
  -3  -6  -7  101.19   14.30
   9  -6   7   63.39   11.60
  -3   9   7   69.89   10.10
  -3   9   7   63.29    9.90
  -6  -3   7   65.39    9.40
  -9   2   7   11.10    7.90
   2   7   7   21.90    7.00
   7   2  -7    0.10    6.80
   2   7   7    1.70    7.30
   7  -9   7    1.50    7.60
   7  -9   7    2.50    8.00
  -7   9  -7    7.80    7.80
  -2   9   7    7.80    6.40
   9  -7   7    5.30    8.20
   9  -7   7   16.40    7.50
  -7  -2   7   19.40    6.90
  -7  -2   7    5.80    7.60
   9  -2  -7    6.90    7.60
  -2   9   7    7.80    8.40
   1   8   7   71.19   10.00
  -9   8  -7   68.49   11.70
   8   1  -7   59.89    9.60
   8  -9   7   68.89   10.10
  -9   1   7   64.69    9.80
   8  -9   7   62.59   10.00
   1   8   7   56.59    9.40
   9  -8   7   69.79   11.10
  -1   9   7   73.89   10.20
  -1   9   7   62.19    8.60
   9  -8   7   69.79   10.90
   9  -1  -7   83.29   10.20
  -8   9  -7   65.79   11.70
  -8  -1   7   63.99   10.20
  -8  -1   7   80.99   11.00
  -9   0   7  100.09   11.00
   0   9   7   92.29   10.60
   9  -9   7   98.59   11.30
   9   0  -7   91.39   10.90
   9  -9   7   97.19   11.50
  10   0   7   72.19    8.70
 -10   0  -7   76.49   10.20
 -10  10   7   80.09   10.00
   0 -10   7   85.59   10.30
  10 -10  -7   80.69    9.90
 -10   9   7   30.30    7.00
   9   1   7   33.50    7.00
 -10   1  -7   36.00    9.30
   1 -10   7   24.90    7.40
   9 -10  -7   26.00    8.00
  10  -1   7   20.80    6.70
  -1  -9   7   35.20   11.80
  -1  -9   7   29.50    7.50
  10  -9  -7   40.90    9.40
  -9  -1  -7   20.00    8.90
  -9  10   7   33.90    7.50
   8   2   7  174.28   12.50
   8 -10  -7  180.88   12.20
   2 -10   7  177.98   12.70
  10  -8  -7  178.28   13.30
  10  -2   7  182.18   12.10
  -2  -8   7  175.18   12.40
  -8  10   7  159.18   11.30
  -2  -8   7  166.18   14.50
 -10   3  -7   69.89   10.40
   3 -10   7   59.79    9.20
 -10   7   7   84.79   10.50
   7   3   7   74.19   10.30
   7 -10  -7   73.69    9.60
  -3  10  -7   91.49   10.80
  -3  -7   7   69.19   11.80
  -7  10   7   73.79    8.80
  10  -3   7   77.59    9.70
  -7  -3  -7   65.29   11.20
  10  -7  -7   66.69   10.80
  -3  -7   7   61.79   10.30
 -10   6   7   16.00    7.00
   4 -10   7    8.30    7.20
   6   4   7   20.40    7.30
   6 -10  -7   25.60    9.00
  -6  -4  -7   19.80    8.10
  -4  -6   7   19.40    7.70
  10  -6  -7   28.30    8.50
  -4  -6   7   25.50    9.50
  10  -4   7   10.70    6.10
  -4  10  -7   32.00    9.80
  -6  10   7   23.80    7.70
   5   5   7   97.39    9.80
   5   5   7   67.79    9.40
   5 -10   7   63.89    9.20
 -10   5   7   66.79    9.00
   5 -10  -7   69.09   10.20
  10  -5   7   53.09    9.50
  10  -5   7   65.79   12.00
  -5  10   7   64.49    8.80
  10  -5  -7   73.99    9.40
  -5  -5  -7   58.79   10.10
  -5  -5   7   61.49   10.70
  -5  10  -7   78.29   11.80
  -5  -5   7   69.69    8.70
   4   6   7   22.00    8.00
   6 -10   7   18.20    8.10
 -10   4   7   20.30    7.50
   4   6   7   22.00    8.30
  -4  10   7   25.30    7.90
  -6  -4   7   12.20    8.50
  -4  -6  -7   21.80    8.20
  10  -6   7   31.20    7.80
  -6  10  -7   26.00    8.80
  10  -6   7    9.10    8.80
  -6  -4   7   29.90    7.40
  10  -4  -7   18.70    8.60
   3   7   7   69.79    9.30
   3   7   7   62.49    9.30
 -10   3   7   64.09   10.20
   7 -10   7   60.59    9.70
  -3  10   7   66.59    8.80
  10  -3  -7   66.09   10.10
  -7  -3   7   52.59    9.60
  -3  10   7   50.69    9.10
  10  -7   7   60.99   11.40
  -7  10  -7   72.39   11.60
  -7  -3   7   67.79    9.50
   2   8   7   76.49   10.10
   8 -10   7   68.39   11.10
   2   8   7   93.69   10.00
 -10   2   7   90.89   10.10
   8 -10   7   78.09   10.50
   8   2  -7   78.99   10.20
  -8  -2   7   81.79   12.00
  10  -8   7   80.09   11.40
  -8  -2   7   63.49   10.30
  -8  10  -7  104.89   11.60
  -2  10   7   80.99   11.80
  10  -8   7   92.89   10.30
   1   9   7    7.00    7.70
   9 -10   7   15.30    8.30
   9   1  -7   20.90    7.70
 -10   9  -7   18.30    8.80
 -10   1   7    5.40    7.60
   1   9   7   21.00    8.20
   9 -10   7   12.10    8.40
  -1  10   7   23.50    7.30
  10  -1  -7   12.20    8.30
  -9  -1   7   15.70    8.90
  10  -9   7   22.20    7.90
  10  -9   7    7.40    9.00
  -1  10   7   11.20    8.50
  -9  10  -7   23.40    8.50
 -10  10  -7   51.49   10.80
  10 -10   7   48.40    9.70
   0  10   7   50.69    8.90
  10 -10   7   82.89   10.80
   0  10   7   72.89   10.20
  10   0  -7   39.50    8.90
 -10   0   7   65.29    9.90
  11 -11  -7   18.60    8.10
   0 -11   7   21.30    8.00
 -11  11   7   26.10    7.60
 -11   0  -7   15.90    8.70
   0  11  -7   19.50    8.40
  11   0   7   22.60    6.60
 -11   1  -7  123.19   11.40
  10 -11  -7  106.79   10.80
  10   1   7  101.69    9.60
   1 -11   7  114.09   11.20
 -11  10   7  114.19    9.90
  -1 -10   7  116.79   11.30
  11  -1   7   94.39   10.30
 -10  -1  -7  142.39   12.60
  11 -10  -7  124.19   12.00
  -1  11  -7  123.79   11.50
 -10  11   7  110.49   10.80
 -11   9   7   72.19    8.80
   9 -11  -7   65.19   11.00
 -11   2  -7   66.29   11.70
   9   2   7   57.59    8.40
   2 -11   7   61.29    9.10
  11  -9  -7   74.79   11.00
  -2  -9   7   65.29    9.90
  11  -2   7   53.49    8.40
  -2  11  -7   70.29   11.60
  -9  -2  -7   65.29   10.20
  -2  -9   7   73.89   13.10
  -9  11   7   65.49    9.80
   3 -11   7   10.80    7.10
 -11   8   7   10.50    6.70
 -11   3  -7    6.80    8.60
   8   3   7    9.50    6.80
   8 -11  -7    6.80    7.40
  11  -3   7   14.70    7.00
  -8  11   7   15.60    6.70
  -3  11  -7   10.20    7.80
  -3  -8   7    7.50    9.50
  -3  -8   7    9.80    6.60
  -8  -3  -7   -4.40    8.50
  11  -8  -7    9.70    8.40
   7   4   7   44.00    8.20
 -11   7   7   58.79    9.80
 -11   4  -7   51.99   10.30
   4 -11   7   57.49    9.50
   7 -11  -7   43.40    8.50
  -4  11  -7   46.90    8.90
  -7  11   7   36.50    7.60
  -4  -7   7   57.19   11.70
  -4  -7   7   53.29    8.80
  11  -7  -7   54.09    9.30
  11  -4   7   56.99    9.60
  -7  -4  -7   49.99    9.50
   6   5   7   33.40    7.60
   5 -11   7   12.30    6.80
 -11   6   7   19.40    7.10
   6 -11  -7   26.30    9.10
  -5  11  -7   19.90    8.70
  -5  -6   7   23.00    9.60
  11  -5   7   17.90    7.60
  -6  -5  -7   15.20    7.90
  11  -6  -7   18.00    8.10
  -6  11   7   27.50    7.70
   5   6   7   44.10    8.90
   5 -11  -7   59.69   10.20
 -11   5   7   52.59    8.60
   5   6   7   46.60   10.20
   6 -11   7   42.10    8.80
  -6  -5   7   64.69   10.50
  11  -6   7   39.60   10.40
  -6  -5   7   61.19    9.60
  11  -5  -7   48.80    9.50
  11  -6   7   51.09    8.70
  -6  11  -7   36.00    9.90
  -5  11   7   61.69    8.60
  -5  -6  -7   31.20    9.20
   4   7   7   57.69   10.40
 -11   4   7   72.99    9.50
   7 -11   7   67.29    9.60
   4   7   7   65.79    9.40
  11  -4  -7   62.49   10.90
  -4  -7  -7   44.90    9.20
  11  -7   7   69.39   11.60
  -7  -4   7   83.39    9.60
  11  -7   7   60.99    9.90
  -4  11   7   79.49   10.10
  -7  11  -7   90.19   11.80
  -7  -4   7   70.19   11.60
   3   8   7    5.40    7.80
 -11   3   7    8.40    7.60
   8 -11   7    9.90    7.40
   3   8   7   21.10    6.70
  -3  11   7   13.80    7.60
  11  -8   7    6.00    9.50
  -8  -3   7    8.10    6.70
  -3  11   7   16.10    7.10
  -8  -3   7    1.60    7.60
  11  -8   7    6.90    7.00
  11  -3  -7   -3.00    8.50
   2   9   7   55.59   10.30
   9 -11   7   43.90    9.00
   9 -11   7   64.29   10.90
 -11   2   7   62.99    9.50
   2   9   7   42.50    8.70
   9   2  -7   37.30    9.20
  -9  -2   7   53.49   10.00
  11  -9   7   41.10    9.70
  11  -2  -7   59.89    9.90
  -2  11   7   50.49    9.40
  -9  -2   7   54.89    9.10
  -2  11   7   68.89    8.80
  -9  11  -7   48.80   11.20
  10 -11   7  154.68   12.60
  10   1  -7  122.19   12.60
 -11   1   7  158.68   12.40
  10 -11   7  145.49   12.40
   1  10   7  117.49   14.70
   1  10   7  157.68   13.20
  11 -10   7  148.19   13.20
  -1  11   7  152.28   12.10
 -10  11  -7  192.48   13.60
  -1  11   7  162.68   11.30
  11 -10   7  154.68   12.10
 -10  -1   7  148.09   13.70
   0  11   7   60.79   10.00
  11 -11   7   36.80   10.20
   0  11   7   56.39   10.00
  11   0  -7   40.20    9.40
 -11   0   7   37.30    8.90
  11 -11   7   78.99   10.70
 -11  11  -7   39.00   10.30
   0  12  -7   21.80    8.00
  12 -12  -7   15.20    7.90
   0 -12   7   11.80    6.90
 -12  12   7    8.30    6.50
 -12   0  -7   11.50    8.40
  12   0   7   13.60    7.00
   1 -12   7    3.90    6.30
   1  11  -7    8.30    8.80
 -12  11   7    9.80    6.50
 -12   1  -7   -0.50    8.20
  11 -12  -7    7.40    8.80
  11   1   7   12.60    7.10
  12 -11  -7   14.30    7.80
 -11  -1  -7    6.60    9.40
  12  -1   7    4.30    6.30
  -1  12  -7    5.80    8.70
 -11  12   7   12.20    7.10
  -1 -11   7   12.80    6.80
 -12  10   7   10.00    6.20
  10 -12  -7   14.80    7.80
   2 -12   7   14.90    7.60
 -12   2  -7    3.40    7.90
  10   2   7    8.20    7.00
  12 -10  -7    2.30    8.20
 -10  -2  -7    9.70    7.90
  -2 -10   7   10.00    7.30
  -2  12  -7   16.10    8.40
  12  -2   7   14.30    7.20
 -10  12   7   10.00    7.20
 -12   9   7   31.20    7.30
   9 -12  -7   41.60    8.80
   9   3   7   53.49    9.20
 -12   3  -7   53.09    9.90
   3 -12   7   46.10    8.40
  -9  -3  -7   58.19   10.30
  -3  -9   7   53.09    8.80
  12  -3   7   58.89    8.30
  -3  -9   7   39.20   12.10
  -3  12  -7   48.20   10.40
  12  -9  -7   55.69    9.80
  -9  12   7   40.90    7.80
   4 -12   7   19.40    7.40
   8 -12  -7   25.10    8.80
 -12   8   7   19.80    7.30
   8   4   7   31.80    8.10
 -12   4  -7   23.80    8.60
  -4  -8   7   13.00    6.70
  -8  -4  -7   23.30    8.90
  -8  12   7   29.20    7.00
  12  -8  -7   20.70    9.00
  12  -4   7   22.50    6.80
  -4  12  -7   22.40    9.50
  -4  -8   7   22.20   10.10
 -12   5  -7   -3.50    7.80
   7 -12  -7   17.20    7.70
   7   5   7   18.30    7.40
   5 -12   7   12.20    7.80
 -12   7   7   16.20    7.70
  -5  12  -7   22.10    9.10
  -5  -7   7   10.00    7.60
  12  -7  -7   12.60    7.60
  12  -5   7   11.30    7.10
  -7  -5  -7   -5.30    8.30
  -5  -7   7    9.60    9.20
  -7  12   7   22.00    6.80
 -12   6   7    7.70    6.80
   6 -12  -7    2.20    8.50
   6   6   7    3.20    7.20
   6 -12   7   12.60    6.90
  -6  -6   7    2.30    7.40
  12  -6   7   15.40    7.50
  -6  -6  -7    7.80    8.10
  -6  12  -7   27.20    9.50
  -6  -6   7    7.60    9.10
  -6  12   7   16.40    7.40
  12  -6  -7   10.70    8.50
   5   7   7   -7.80    7.50
   5   7   7    3.00    6.60
   5 -12  -7   -5.50    7.60
 -12   5   7   -0.20    7.70
   7 -12   7    5.00    7.60
  -7  -5   7    0.40    8.00
  -7  -5   7   -0.60    8.30
  -7  12  -7    7.50    8.50
  12  -5  -7    0.00    7.90
  -5  -7  -7  -11.40    7.80
  -5  12   7    8.70    6.60
  12  -7   7   10.90    7.30
  12  -7   7   -8.40    9.20
   4   8   7   87.89   10.30
 -12   4   7   53.39    9.30
   4   8   7   61.29    9.50
   8 -12   7   48.60    8.90
  12  -4  -7   59.89    9.80
  -8  12  -7   74.19   12.00
  12  -8   7   62.39   10.00
  -8  -4   7   48.70   10.10
  12  -8   7   39.60   10.00
  -4  12   7   73.39   10.60
  -8  -4   7   59.79   10.20
   9 -12   7   90.59   11.90
   3   9   7   95.69   11.00
 -12   3   7  101.19   10.70
   3   9   7  101.19   10.50
  12  -3  -7   85.09   11.60
  12  -9   7   67.99   10.80
  12  -9   7   85.89   13.70
  -9  -3   7   85.39   11.10
  -3  12   7  108.39   11.50
  -9  -3   7  103.69   11.90
  -9  12  -7  118.59   13.10
   2  10   7   51.59    9.60
   2  10   7   59.79   14.80
  10 -12   7   35.80    8.80
 -12   2   7   32.40    8.40
  12 -10   7   43.20    9.90
 -10  -2   7   47.10    9.40
  12  -2  -7   33.80    9.70
  -2  12   7   51.59   10.20
  -2  12   7   57.79   10.60
 -10  12  -7   33.20   10.90
 -10  -2   7   39.70    8.90
  12 -10   7   29.90    8.60
   1  11   7   38.10    9.10
  11 -12   7   83.09   11.40
   1  11   7   78.09   10.70
  11   1  -7   38.00    9.60
 -12   1   7   56.39   10.30
  11 -12   7   44.60   10.00
 -11  -1   7   47.80    9.50
  -1  12   7   36.50    9.30
  12 -11   7   36.70    9.90
 -11  12  -7   50.99   11.00
  -1  12   7   51.69    9.90
  12  -1  -7   65.99   11.40
   0  12   7  197.28   14.40
  12 -12   7  186.88   14.40
   0  12   7  192.38   14.40
  12 -12   7  181.78   14.20
 -12   0   7  204.78   14.10
   1  12  -7    9.60    8.00
   1 -13   7    5.60    7.20
 -13  12   7    6.90    6.50
  12   1   7    0.20    6.60
  12 -13  -7    4.30    7.70
 -13   1  -7   11.70    8.50
 -12  13   7    1.30    6.40
  -1 -12   7    3.10    6.70
  13  -1   7    4.40    6.20
  -1  13  -7    0.70    7.90
  13 -12  -7    6.60    8.20
 -12  -1  -7    3.90    9.20
 -13   2  -7   -3.20    8.10
   2 -13   7   -2.20    6.30
   2  11  -7    1.40    8.90
  11   2   7   -2.10    5.90
  11 -13  -7   -0.50    7.80
 -13  11   7    2.60    6.20
 -11  13   7    5.30    6.20
  13  -2   7    3.60    6.90
 -11  -2  -7   -3.50    8.60
  -2 -11   7    2.30    6.60
  -2  13  -7   -5.10    8.40
  13 -11  -7    4.10    8.40
 -13  10   7    0.60    6.10
   3 -13   7    0.00    7.40
 -13   3  -7    0.00    7.80
  10   3   7    0.70    6.00
  10 -13  -7    0.50    8.40
 -10  -3  -7    5.20    8.80
 -10  13   7    5.90    6.30
  13 -10  -7   -6.00    8.40
  13  -3   7    1.60    6.10
  -3  13  -7    7.60    8.10
  -3 -10   7   -4.30    7.10
   9 -13  -7   10.20    7.80
 -13   4  -7    1.10    8.40
   9   4   7   11.00    7.00
   4 -13   7    4.80    7.60
 -13   9   7   11.50    6.90
  13  -9  -7   21.30    9.00
  -9  -4  -7   -1.90    8.40
  13  -4   7   18.50    7.30
  -4  -9   7   -3.30    9.60
  -9  13   7   12.50    6.70
  -4  13  -7   16.90    9.30
  -4  -9   7   10.60    7.70
 -13   8   7   26.80    7.50
   8   5   7   29.80    7.50
   5 -13   7   20.90    7.80
   8 -13  -7   21.00    8.60
 -13   5  -7   21.60   10.10
  13  -8  -7   22.40    8.30
  -5  -8   7    8.90    7.20
  -5  -8   7   21.90    9.90
  13  -5   7   18.10    6.60
  -8  -5  -7    4.70    8.90
  -5  13  -7   47.10   10.00
  -8  13   7   17.40    7.10
   7   6   7   17.20    8.00
 -13   7   7   18.30    7.10
   6 -13   7   12.90    6.70
 -13   6  -7   10.80    8.40
   7 -13  -7    1.90    7.30
  -6  13  -7    7.80    9.70
  -6  -7   7    7.60    7.80
  13  -7  -7    4.80    8.80
  13  -6   7   10.30    6.40
  -6  -7   7   13.40    9.70
  -7  13   7   15.60    7.70
   6 -13  -7   17.70    9.30
 -13   6   7   15.70    7.30
   6   7   7   21.20    7.80
   7 -13   7   18.60    7.30
  -7  13  -7   13.10    8.90
  -6  -7  -7    5.90    8.80
  13  -7   7   24.20    6.80
  13  -6  -7   25.70    9.20
  -7  -6   7   33.70    8.40
  -7  -6   7   13.00    9.20
  -6  13   7   20.40    7.40
   5 -13  -7   16.50    8.40
   5   8   7   24.90    7.60
   5   8   7   65.19   11.40
 -13   5   7   27.10    7.90
   8 -13   7   20.90    7.60
  -8  -5   7   35.30   10.10
  13  -5  -7   32.90    9.60
  -5  -8  -7   32.80    9.40
  -8  -5   7   57.79   10.00
  -8  13  -7   41.30   10.30
  13  -8   7   34.80    7.60
  -5  13   7   38.20    8.90
  13  -8   7   23.90   11.00
 -13   4   7   36.10    8.00
   4   9   7   51.49    9.60
   9 -13   7   30.80    8.50
   4   9   7   47.00    9.00
  13  -9   7   45.10   10.00
  -9  -4   7   30.10    8.50
  -9  -4   7   28.00    9.50
  13  -9   7   44.50    8.80
  13  -4  -7   44.50   10.10
  -4  13   7   38.20    8.30
  -9  13  -7   11.40    9.90
  10 -13   7   32.60    8.80
   3  10   7   59.29   10.00
   3  10   7   63.29   10.80
 -13   3   7   39.60    8.60
  13 -10   7   55.79    9.50
  13 -10   7   24.40   10.00
  13  -3  -7   30.70    9.60
 -10  -3   7   46.60   10.20
 -10  13  -7   58.19   11.20
  -3  13   7   68.49   11.00
   2  11   7  142.39   11.80
 -13   2   7  139.79   13.20
   2  11   7  167.78   13.70
  11 -13   7  127.59   12.10
  13  -2  -7  113.79   13.70
  13 -11   7  145.39   12.40
  13 -11   7  140.39   13.60
  -2  13   7  152.98   13.30
 -11  13  -7  137.89   24.80
  -2  13   7  131.49   12.40
 -11  -2   7  133.49   12.60
  12   1  -7   85.49   15.20
   1  12   7   91.99   10.70
 -13   1   7   77.69   10.70
  12 -13   7   65.69   10.90
   1  12   7   92.99   12.20
  -1  13   7   95.49   12.20
  13 -12   7   67.09   11.70
  13 -12   7   80.39   11.90
  13  -1  -7   72.29   11.00
 -12  13  -7   62.99   12.70
 -12  -1   7   83.89   12.50
  -1  13   7   75.69   10.90
  10 -14  -7   10.00    7.90
 -14   4  -7    6.10    9.20
   4 -14   7    9.30    8.00
  10   4   7    9.60    6.30
 -14  10   7    6.40    6.80
  -4 -10   7   19.30    8.30
 -10  -4  -7   -3.40    8.50
  14 -10  -7   11.70    9.30
 -10  14   7   11.20    6.80
  -4  14  -7    3.90    8.90
  14  -4   7   11.20    6.90
   9   5   7   17.60    7.20
 -14   5  -7    2.20    8.70
 -14   9   7   15.50    7.50
   5 -14   7   19.90    7.60
   9 -14  -7   19.40    8.30
  -5  14  -7    3.60    8.90
  -9  -5  -7   13.20    8.80
  -5  -9   7    8.40   10.30
  -9  14   7   14.30    7.10
  -5  -9   7   20.00    8.10
  14  -9  -7   15.00    9.40
  14  -5   7   15.80    6.50
   8   6   7   10.10    7.10
   6 -14   7    1.70    7.20
 -14   6  -7   -1.80    8.20
   8 -14  -7    2.60    8.30
 -14   8   7   -1.50    7.20
  -8  14   7   13.00    8.00
  14  -8  -7    6.40    8.00
  -8  -6  -7  -13.10    8.30
  14  -6   7    8.20    7.30
  -6  -8   7    7.20    6.80
  -6  14  -7    4.50    8.30
  -6  -8   7    7.10   10.00
   7 -14   7    0.70    6.30
   7   7   7   -1.60    7.90
 -14   7  -7    2.00    9.20
   7 -14  -7   -0.10    7.20
 -14   7   7    3.40    7.00
  -7  -7   7    3.20    7.70
  14  -7  -7   11.00    9.10
  -7  -7  -7    2.70    8.20
  -7  14   7   11.30    7.00
  -7  14  -7   17.30    8.70
  14  -7   7    4.30    6.90
  -7  -7   7   -4.80   10.20
   8 -14   7   15.10    7.30
   6   8   7   22.60    8.30
 -14   6   7   22.70    8.80
   6 -14  -7   20.20    8.80
  14  -6  -7   15.40    9.20
  -6  14   7   25.00    7.40
  -6  -8  -7   21.20    9.20
  -8  -6   7   26.40   11.10
  -8  14  -7    8.60   10.30
  -8  -6   7   25.20    7.70
  14  -8   7   24.50    7.90
   5   9   7   26.30    8.00
   9 -14   7   20.60    7.90
 -14   5   7   28.80    8.30
   5 -14  -7   34.20    8.90
  -9  -5   7   32.40   11.40
  -5  14   7   43.90    9.10
  14  -5  -7    8.80    8.60
  -9  -5   7   23.20    9.00
  14  -9   7   37.00    8.50
  -9  14  -7   46.50   10.50
  14  -9   7   23.90   10.10
 -14   4   7   61.49   11.50
  10 -14   7   74.19   12.00
   4  10   7   74.89    9.90
   4  10   7   65.49   12.00
 -10  -4   7   77.59   11.40
  14 -10   7   92.29   10.60
 -10  -4   7   71.59   12.10
 -10  14  -7   71.99   12.70
  14 -10   7   74.99   13.70
  -4  14   7   86.59   11.50
  14  -4  -7   90.09   12.20
   0   0   8  -15.70    8.70
   0   0   8  -11.50    9.40
   0   0   8    6.50    7.70
   0  -1   8    4.50    9.00
   1   0   8   -3.20    7.90
   1   0   8    0.00    8.60
   0  -1   8    2.40    8.50
  -1   1   8    6.80    8.30
   1   0   8  -20.50    9.70
   1  -1   8  -11.50    7.40
   0   1   8  -16.10    8.90
  -1   0   8   12.20    8.50
   1  -1   8    4.40    7.50
   0   1   8    2.10    8.40
   0  -2   8    6.90    7.70
   2   0   8    7.70    9.00
   0  -2   8   -6.80    9.40
  -2   2   8    1.00    7.80
   2   0   8   -6.60    8.40
   1   1   8   -0.80    7.40
   1  -2   8    0.70    9.20
   1  -2   8  -25.70    9.30
   1   1   8    1.80    9.10
  -2   1   8    7.60    7.80
   1  -2   8   12.40    8.70
   2  -1   8    1.30    8.10
  -1  -1   8   -2.60    9.40
   2  -1   8   10.70    8.70
  -1   2   8   14.60    7.90
   2  -1   8   15.60   10.50
   2  -1  -8    0.10    8.70
  -1  -1   8    1.50    7.80
   2  -2   8   39.90    9.10
   0   2   8   30.00    7.90
   2   0  -8   47.70    9.40
   0   2   8   26.10   10.50
  -2   0   8   48.60   10.20
   2  -2   8   14.20    9.00
   2  -2   8   24.20   11.00
   0  -3   8    0.70    9.50
   3   0   8   -5.20    8.70
   3   0   8    4.80    9.30
  -3   3   8    1.30    6.30
   0  -3   8    7.70    8.60
   3  -3  -8   16.80    8.70
   2   1   8   28.60   10.20
   1  -3   8   17.30    9.20
   1  -3   8   22.60   10.30
   1  -3   8    7.00   11.10
  -3   2   8   23.00    8.40
   2   1   8   40.60   10.00
   3  -1   8   16.70    9.80
  -1  -2   8   33.30    9.20
   3  -2  -8   50.09    9.90
  -1  -2   8   33.50    9.70
   3  -1   8   47.00   10.00
  -2   3   8   23.60    8.10
   3  -1   8   16.40   11.30
   2  -3   8   10.20    9.90
   1   2   8    5.20    9.20
  -3   1   8   15.70    7.90
   2   1  -8   17.70    8.70
   2  -3   8   12.10   11.90
   2  -3   8   16.50    9.30
   1   2   8   20.90    8.50
  -1   3   8    5.80    7.70
   3  -2   8   -4.70    8.80
  -2  -1   8   -1.20    9.70
  -1   3   8   17.00    9.90
  -2  -1   8   16.70    8.40
   3  -1  -8    6.60    9.00
   3  -2   8   -1.40    8.70
  -3   0   8   54.29   10.60
   3   0  -8   38.50    9.00
   3  -3   8   34.70    9.70
   3  -3   8   51.39   11.30
   3  -3   8   45.30   10.90
   0   3   8   41.60    9.30
   0   3   8   43.40    9.50
   0  -4   8   14.40    8.90
   4  -4  -8   34.70    9.90
   4   0   8   21.10    8.90
  -4   0  -8   51.29   15.40
   0  -4   8   28.30    9.40
  -4   4   8   20.80    7.20
   3   1   8   13.90    8.30
   3   1   8   12.00    9.10
   3  -4  -8   16.80    9.10
   1  -4   8   19.50    9.50
   1  -4   8    9.70    9.50
  -4   3   8   18.30    8.10
   4  -1   8    5.60    9.00
   4  -3  -8    5.60    9.00
   4  -1   8    9.90    9.10
  -1  -3   8    5.30    8.60
  -1  -3   8    0.00    9.20
  -3   4   8   12.80    6.80
   2  -4   8   37.00    9.70
   2   2  -8   28.90    9.00
   2   2   8   27.80    9.40
   2   2   8   46.30    9.60
  -4   2   8   30.40    7.80
   2  -4   8   19.50    9.10
   4  -2  -8   30.30    9.10
   4  -2   8   27.30    8.90
  -2   4   8   26.30    7.50
   4  -2   8   34.60   11.50
  -2  -2   8   27.80    9.40
  -2  -2   8   42.90   10.00
   4  -2   8   15.20   10.10
   3  -4   8  126.49   15.00
   1   3   8  143.69   13.50
   3  -4   8  152.18   14.00
   1   3   8  126.59   12.50
  -4   1   8  135.79   11.80
   3  -4   8  142.09   14.80
  -1   4   8  136.89   10.80
   4  -3   8  135.79   14.30
  -1   4   8  122.59   12.40
   4  -3   8  101.89   15.00
   4  -1  -8  169.98   12.60
  -3  -1   8  134.69   12.30
  -3  -1   8  194.58   22.70
   4  -3   8  146.99   13.10
   4  -4   8   47.80   12.10
   4  -4   8   35.70   10.70
   0   4   8   60.59   11.00
   4   0  -8   53.09    9.90
   0   4   8   45.80    8.90
   4  -4   8   44.70   10.30
  -4   0   8   50.29   10.30
   0  -5   8    5.90    8.40
   0  -5   8   -5.20   10.50
  -5   5   8    4.30    7.00
  -5   0  -8   30.70    8.90
   5   0   8    8.60    8.80
   5  -5  -8    7.40    8.40
   5   0   8   -1.00    8.60
   4  -5  -8   10.20    8.00
   1   4  -8   16.60    7.70
   1  -5   8   15.50    9.40
   4   1   8   12.30    9.50
   1  -5   8    7.90    9.60
  -5   4   8   13.50    7.70
  -5   1  -8   34.70    8.90
   5  -4  -8   12.30    8.50
  -4   5   8   13.10    7.60
  -1  -4   8   29.00   10.00
   5  -1   8   -6.50   10.10
  -1  -4   8    8.00    9.50
   5  -1   8   17.80    8.00
  -4  -1  -8    8.20    8.50
   3   2   8   90.19   11.80
  -5   3   8   70.69   10.80
   3  -5  -8   76.39   11.10
   2  -5   8   74.39   12.30
   3   2   8   80.39   11.80
   2  -5   8   82.49   13.10
   2   3  -8  103.79   11.50
   2  -5   8   74.89   10.70
   5  -3  -8   79.89   11.20
  -2  -3   8   92.79   12.50
  -2  -3   8   69.79   11.50
   5  -2   8   71.59   11.90
  -3  -2  -8   73.29   11.40
  -3   5   8   77.39   11.00
   3  -5   8   37.90   11.20
   2   3   8   49.80   10.00
  -5   2   8   51.79    9.10
   3   2  -8   49.60   11.60
   3  -5   8   60.69   11.00
   2   3   8   26.90    9.20
   5  -3   8   46.40   10.40
  -3  -2   8   31.10   10.00
   5  -3   8   48.80   11.70
  -2   5   8   49.99    9.50
   5  -3   8   41.30   11.90
  -3  -2   8   57.39   10.60
   5  -2  -8   41.10    9.20
   1   4   8   51.09    9.70
   4  -5   8   30.80   11.20
   4  -5   8   22.50   10.60
   4  -5   8   46.40   10.20
  -5   1   8   48.80   10.20
   1   4   8   41.50    8.70
   4   1  -8   24.60    9.40
   5  -4   8   12.30   10.90
   5  -4   8   30.10   11.40
  -1   5   8   32.80   10.30
  -4  -1   8   31.90    9.00
   5  -4   8   29.60    9.50
  -1   5   8   44.90    9.20
   5  -1  -8   35.90    9.80
   5  -5   8  145.09   14.40
   0   5   8  146.39   12.60
   5  -5   8  176.28   15.40
  -5   0   8  164.88   12.70
   5  -5   8  141.09   16.00
   5   0  -8  136.09   12.80
  -6   6   8   10.00    6.80
   0  -6   8    2.70    8.50
   6  -6  -8    0.30    7.60
   6   0   8    2.30    9.70
   6   0   8   11.60    9.00
  -6   0  -8   -8.20    8.60
   0  -6   8   -4.10    9.30
   5   1   8   31.30   10.50
   5   1   8   48.60   10.10
   5  -6  -8   31.80    8.90
   1  -6   8   33.80    8.80
  -6   1  -8   48.20    9.90
   1  -6   8   26.50   11.60
  -6   5   8   33.30    8.90
  -1  -5   8   29.50   10.60
   6  -1   8   29.40    9.50
  -5  -1  -8   24.30    9.90
  -1  -5   8   28.60    9.70
   6  -5  -8   40.90    9.70
   6  -1   8   21.50   11.10
  -5   6   8   29.80    7.60
   4   2   8   34.60   10.40
   2  -6   8   26.60    9.60
   2   4  -8   50.29    9.40
   4  -6  -8   33.00    9.40
  -6   4   8   30.40    8.10
   2  -6   8   33.00   10.80
  -2  -4   8   40.70   10.60
   6  -4  -8   30.60    9.60
  -4   6   8   31.50    8.40
  -2  -4   8   13.80    9.60
   6  -2   8   26.60   11.00
  -4  -2  -8   69.49   10.70
   6  -2   8   31.90    8.70
   3  -6   8   -0.20   10.90
   3   3  -8   -4.10    8.00
  -6   3   8    3.80    7.20
   3  -6   8   13.90    9.20
   3   3   8    6.50    8.90
   3   3   8   18.30    9.10
   6  -3   8  -17.70   10.50
  -3  -3   8    9.70    9.80
  -3  -3   8    7.70    8.80
   6  -3   8   21.00    9.10
   6  -3  -8   10.90    8.10
   6  -3   8    8.10   10.30
  -3   6   8   19.30    7.90
   2   4   8   97.69   11.70
   4  -6   8  118.39   18.40
   4  -6   8   98.59   12.90
   2   4   8  123.99   11.90
   4  -6   8  101.69   15.50
   4   2  -8  112.09   17.20
  -6   2   8  101.19   11.60
  -4  -2   8  159.38   17.60
   6  -4   8  107.19   12.20
  -4  -2   8  119.69   13.00
   6  -4   8  120.19   14.70
   6  -2  -8  102.59   12.10
  -2   6   8  106.19   11.40
   5  -6   8   22.40   10.60
   5  -6   8   34.10   10.90
   1   5   8   18.50    8.80
   5   1  -8   35.80    9.00
   5  -6   8    7.60   12.10
  -6   1   8   23.20    8.80
   1   5   8   21.20    9.00
  -1   6   8   42.40    9.00
   6  -5   8   26.60    9.60
  -1   6   8   26.20   10.70
  -5  -1   8   32.30    9.90
   6  -5   8   33.00   12.10
   6  -5   8    8.60    9.60
   6  -1  -8   43.00    9.10
   6  -6   8   31.00   13.20
   0   6   8   65.79   10.50
   6  -6   8   65.19   11.50
   6  -6   8   57.99   11.30
  -6   0   8   72.19   10.30
   6   0  -8   61.89   10.30
   0   6   8   67.59   10.30
   6  -7  -8    4.50    7.90
  -7   1  -8   23.30    9.10
   6   1   8   26.00    9.40
   6   1   8   25.90    9.60
   1  -7   8    1.80    8.60
   1  -7   8    5.90   11.20
  -7   6   8    8.70    7.50
   7  -1   8    6.90    9.00
  -1  -6   8    2.90   10.70
   7  -6  -8    8.60    9.10
  -6   7   8    9.30    6.80
  -1  -6   8   20.00    8.50
  -6  -1  -8   32.10    9.20
  -7   2  -8   17.40    8.60
   5  -7  -8   -7.10    9.10
   2  -7   8   10.40    7.80
   2  -7   8  -18.00   10.80
   5   2   8    7.90    8.80
  -7   5   8    2.80    6.90
   5   2   8   15.20    9.50
  -2  -5   8    2.60    9.50
  -2  -5   8   10.10    8.20
   7  -5  -8  -13.30    8.10
  -5  -2  -8    2.50    8.50
  -5   7   8    9.10    7.20
   7  -2   8    3.60    8.70
   7  -2   8  -14.10   11.00
   3  -7   8   37.50   12.10
   3  -7   8   44.20    9.90
  -7   4   8   59.49    9.30
   4  -7  -8   64.09   10.30
   4   3   8   68.79   11.50
  -3  -4   8   71.29   11.50
   7  -4  -8   58.69    9.80
  -3  -4   8   65.19   11.80
   7  -3   8   62.59   13.20
  -4   7   8   55.79   10.30
   7  -3   8   68.39   11.10
  -4  -3  -8   56.19   11.80
   4  -7   8   14.60   12.10
   3   4   8   40.00   10.00
   4  -7   8   35.60   10.00
   4   3  -8   19.10    8.50
   4  -7   8   15.00   10.70
   3   4   8   25.20    9.30
  -7   3   8   41.50    9.30
  -4  -3   8   39.20   10.20
  -3   7   8   35.20    8.30
   7  -4   8   51.79   10.50
   7  -4   8   30.10   12.10
   7  -3  -8   38.60    9.70
  -4  -3   8   28.30    9.80
   7  -4   8   20.70   11.00
   5  -7   8   32.10    9.00
   2   5   8   44.00   10.00
   5  -7   8   22.50   11.00
  -7   2   8   38.10    8.50
   2   5   8   38.60    9.30
   5  -7   8   26.30   11.50
   5   2  -8   17.30   15.40
   7  -5   8   32.40   10.80
  -5  -2   8   36.50    9.10
   7  -2  -8   24.10    8.90
   7  -5   8   51.89   10.40
  -2   7   8   43.00    8.60
   1   6   8  149.09   12.40
   6   1  -8  127.29   12.00
   6  -7   8  140.69   14.80
   1   6   8  135.59   12.50
  -7   1   8  126.49   12.20
   6  -7   8  116.79   14.10
   7  -6   8  152.08   13.30
   7  -6   8  137.59   15.70
  -1   7   8  162.98   12.40
  -6  -1   8  135.19   12.40
  -1   7   8  155.28   14.50
   7  -1  -8  115.49   12.50
   0   0   0    0.00    0.00


_computing_structure_solution     'SHELXT 2014/5 (Sheldrick, 2014)'
_computing_structure_solution     'SHELXT 2014/5 (Sheldrick, 2014)'
;
_shelx_hkl_checksum              24413
_olex2_submission_special_instructions 'No special instructions were received'
loop_
_space_group_symop_operation_xyz
'x, y, z'
'-y, x-y, z+1/3'
'-x+y, -x, z+2/3'
'y, x, -z'
'x-y, -y, -z+2/3'
'-x, -x+y, -z+1/3'
loop_
_atom_site_label
_atom_site_type_symbol
_atom_site_fract_x
_atom_site_fract_y
_atom_site_fract_z
_atom_site_U_iso_or_equiv
_atom_site_adp_type
_atom_site_occupancy
_atom_site_site_symmetry_order
_atom_site_calc_flag
_atom_site_refinement_flags_posn
Zn1 Zn 0.38083(2) 0.66221(2) -0.02098(5) 0.03149(13) Uani 1 1 d .
O1 O 0.34244(17) 0.58471(15) 0.7746(3) 0.0370(7) Uani 1 1 d .
O3 O 0.41287(18) 0.61843(18) 0.1824(4) 0.0414(8) Uani 1 1 d .
O2 O 0.35312(18) 0.63804(17) 0.4108(4) 0.0483(9) Uani 1 1 d .
C1 C 0.3764(2) 0.5539(2) 0.6915(5) 0.0375(10) Uani 1 1 d .
C7 C 0.3887(2) 0.6094(2) 0.3545(6) 0.0359(10) Uani 1 1 d .
C2 C 0.3993(2) 0.5637(2) 0.4920(6) 0.0357(10) Uani 1 1 d .
C3 C 0.4342(3) 0.5284(3) 0.4238(6) 0.0460(12) Uani 1 1 d .
H3 H 0.449778 0.535614 0.293360 0.055 Uiso 1 1 calc R
C4 C 0.4468(3) 0.4836(3) 0.5385(6) 0.0505(13) Uani 1 1 d .
C6 C 0.3898(3) 0.5091(3) 0.8073(6) 0.0571(14) Uani 1 1 d .
H6 H 0.375613 0.502315 0.939009 0.069 Uiso 1 1 calc R
C5 C 0.4232(3) 0.4745(3) 0.7344(6) 0.0637(16) Uani 1 1 d .
H5 H 0.430406 0.444279 0.816763 0.076 Uiso 1 1 calc R
loop_
_atom_site_aniso_label
_atom_site_aniso_U_11
_atom_site_aniso_U_22
_atom_site_aniso_U_33
_atom_site_aniso_U_23
_atom_site_aniso_U_13
_atom_site_aniso_U_12
Zn1 0.0410(3) 0.0369(3) 0.02007(18) -0.0002(2) -0.00094(19) 0.0221(2)
O1 0.060(2) 0.0510(17) 0.0178(11) -0.0021(11) 0.0014(13) 0.0408(17)
O3 0.060(2) 0.066(2) 0.0194(12) 0.0073(14) 0.0069(14) 0.0475(18)
O2 0.079(2) 0.070(2) 0.0284(14) 0.0178(14) 0.0173(14) 0.0619(19)
C1 0.057(3) 0.053(3) 0.0205(19) -0.0047(18) -0.0032(18) 0.041(2)
C7 0.044(2) 0.052(3) 0.024(2) -0.0031(17) -0.0043(17) 0.033(2)
C2 0.049(2) 0.054(3) 0.0214(19) 0.0000(18) -0.0015(18) 0.038(2)
C3 0.068(3) 0.077(3) 0.0191(19) 0.001(2) 0.002(2) 0.056(3)
C4 0.081(4) 0.083(4) 0.025(2) -0.001(2) -0.001(2) 0.068(3)
C6 0.107(5) 0.085(4) 0.0188(19) 0.007(2) 0.009(2) 0.077(4)
C5 0.118(5) 0.099(4) 0.025(2) 0.011(3) 0.008(3) 0.092(4)
loop_
_atom_type_symbol
_atom_type_description
_atom_type_scat_dispersion_real
_atom_type_scat_dispersion_imag
_atom_type_scat_source
C C 0.004 0.002
'ANOMDisVal Program in PLATON Spek, A. L. J. Appl. Crystallogr. 2003, 36, 7-13'
H H 0 0
'ANOMDisVal Program in PLATON Spek, A. L. J. Appl. Crystallogr. 2003, 36, 7-13'
O O 0.013 0.007
'ANOMDisVal Program in PLATON Spek, A. L. J. Appl. Crystallogr. 2003, 36, 7-13'
Zn Zn 0.228 1.672
'ANOMDisVal Program in PLATON Spek, A. L. J. Appl. Crystallogr. 2003, 36, 7-13'
loop_
_geom_angle_atom_site_label_1
_geom_angle_atom_site_label_2
_geom_angle_atom_site_label_3
_geom_angle
_geom_angle_site_symmetry_1
_geom_angle_site_symmetry_3
Zn1 Zn1 Zn1 112.873(19) 2_665 3_564
O1 Zn1 Zn1 142.57(9) 1_554 2_665
O1 Zn1 Zn1 43.29(8) 1_554 3_564
O1 Zn1 Zn1 119.76(8) 2_664 3_564
O1 Zn1 Zn1 43.11(7) 2_664 2_665
O1 Zn1 O1 160.72(12) 1_554 2_664
O1 Zn1 O2 97.26(12) 1_554 3_564
O1 Zn1 O2 80.91(10) 2_664 2_664
O1 Zn1 O2 81.39(12) 2_664 3_564
O1 Zn1 O2 79.84(10) 1_554 2_664
O3 Zn1 Zn1 85.72(7) . 2_665
O3 Zn1 Zn1 139.40(10) . 3_564
O3 Zn1 O1 100.14(12) . 1_554
O3 Zn1 O1 98.74(13) . 2_664
O3 Zn1 O2 105.43(13) . 3_564
O3 Zn1 O2 171.51(13) . 2_664
O2 Zn1 Zn1 70.96(8) 3_564 3_564
O2 Zn1 Zn1 99.49(9) 2_664 2_665
O2 Zn1 Zn1 46.18(8) 3_564 2_665
O2 Zn1 Zn1 44.23(7) 2_664 3_564
O2 Zn1 O2 82.95(4) 3_564 2_664
Zn1 O1 Zn1 93.60(12) 1_556 3_565
C1 O1 Zn1 128.9(2) . 3_565
C1 O1 Zn1 127.3(3) . 1_556
C7 O3 Zn1 120.1(3) . .
Zn1 O2 Zn1 89.58(11) 2_665 3_565
C7 O2 Zn1 135.9(3) . 2_665
C7 O2 Zn1 134.5(3) . 3_565
O1 C1 C2 124.4(4) . .
O1 C1 C6 118.1(3) . .
C6 C1 C2 117.5(4) . .
O3 C7 O2 120.9(4) . .
O3 C7 C2 120.2(4) . .
O2 C7 C2 118.8(3) . .
C1 C2 C7 123.1(4) . .
C3 C2 C1 118.6(4) . .
C3 C2 C7 118.3(4) . .
C2 C3 H3 118.2 . .
C4 C3 C2 123.6(4) . .
C4 C3 H3 118.2 . .
C3 C4 C4 122.3(4) . 4_556
C3 C4 C5 116.6(4) . .
C5 C4 C4 121.1(5) . 4_556
C1 C6 H6 118.9 . .
C5 C6 C1 122.2(4) . .
C5 C6 H6 118.9 . .
C4 C5 H5 119.3 . .
C6 C5 C4 121.4(4) . .
C6 C5 H5 119.3 . .
loop_
_geom_bond_atom_site_label_1
_geom_bond_atom_site_label_2
_geom_bond_distance
_geom_bond_site_symmetry_2
Zn1 Zn1 2.9304(5) 3_564
Zn1 Zn1 2.9304(5) 2_665
Zn1 O1 2.013(3) 2_664
Zn1 O1 2.007(3) 1_554
Zn1 O3 1.983(3) .
Zn1 O2 2.044(3) 3_564
Zn1 O2 2.114(3) 2_664
O1 C1 1.339(5) .
O3 C7 1.251(5) .
O2 C7 1.265(5) .
C1 C2 1.417(5) .
C1 C6 1.387(6) .
C7 C2 1.459(6) .
C2 C3 1.394(6) .
C3 H3 0.9300 .
C3 C4 1.372(6) .
C4 C4 1.476(8) 4_556
C4 C5 1.398(6) .
C6 H6 0.9300 .
C6 C5 1.368(6) .
C5 H5 0.9300 .
loop_
_twin_individual_id
_twin_individual_mass_fraction_refined
1 0.62(2)
2 0.38(2)
