#------------------------------------------------------------------------------
#$Date: 2019-11-02 07:54:28 +0200 (Sat, 02 Nov 2019) $
#$Revision: 221019 $
#$URL: file:///home/coder/svn-repositories/cod/cif/4/12/78/4127848.cif $
#------------------------------------------------------------------------------
#
# This file is available in the Crystallography Open Database (COD),
# http://www.crystallography.net/
#
# All data on this site have been placed in the public domain by the
# contributors.
#
data_4127848
loop_
_publ_author_name
'Siegelman, Rebecca L.'
'Milner, Phillip J.'
'Forse, Alexander C.'
'Lee, Jung-Hoon'
'Colwell, Kristen A.'
'Neaton, Jeffrey B.'
'Reimer, Jeffrey A.'
'Weston, Simon C.'
'Long, Jeffrey R.'
_publ_section_title
;
 Water Enables Efficient CO<sub>2</sub> Capture from Natural Gas Flue
 Emissions in an Oxidation-Resistant Diamine-Appended Metal-Organic
 Framework.
;
_journal_issue                   33
_journal_name_full               'Journal of the American Chemical Society'
_journal_page_first              13171
_journal_page_last               13186
_journal_paper_doi               10.1021/jacs.9b05567
_journal_volume                  141
_journal_year                    2019
_chemical_formula_moiety         'C7 H14 N2 O2'
_chemical_formula_sum            'C7 H14 N2 O2'
_chemical_formula_weight         158.20
_chemical_name_common            2-ampd-CO2
_space_group_crystal_system      monoclinic
_space_group_IT_number           14
_space_group_name_Hall           '-P 2yn'
_space_group_name_H-M_alt        'P 1 21/n 1'
_symmetry_space_group_name_Hall  '-P 2yn'
_symmetry_space_group_name_H-M   'P 1 21/n 1'
_atom_sites_solution_hydrogens   mixed
_atom_sites_solution_primary     dual
_atom_sites_solution_secondary   difmap
_audit_creation_date             2019-01-12
_audit_creation_method
;
Olex2 1.2
(compiled May 18 2018 14:05:52 for OlexSys, GUI svn.r5506)
;
_cell_angle_alpha                90
_cell_angle_beta                 102.214(4)
_cell_angle_gamma                90
_cell_formula_units_Z            4
_cell_length_a                   5.0969(3)
_cell_length_b                   18.5652(11)
_cell_length_c                   8.4393(5)
_cell_measurement_reflns_used    3614
_cell_measurement_temperature    100(2)
_cell_measurement_theta_max      24.517
_cell_measurement_theta_min      2.250
_cell_volume                     780.49(8)
_computing_cell_refinement       'SAINT V8.38A (Bruker-AXS, Madison WI, 2016)'
_computing_data_collection       'Bruker APEX3 Bruker-AXS, Madison WI'
_computing_data_reduction        'SAINT V8.38A (Bruker-AXS, Madison WI, 2016)'
_computing_molecular_graphics    'Olex2 (Dolomanov et al., 2009)'
_computing_publication_material  'Olex2 (Dolomanov et al., 2009)'
_computing_structure_refinement  'ShelXL (Sheldrick, 2015)'
_computing_structure_solution    'ShelXT (Sheldrick, 2015)'
_diffrn_ambient_temperature      100(2)
_diffrn_detector_area_resol_mean 7.39
_diffrn_measured_fraction_theta_full 0.998
_diffrn_measured_fraction_theta_max 0.998
_diffrn_measurement_device_type  'Bruker D8 with PHOTON II detector'
_diffrn_measurement_method       '\f and \w shutterless scans'
_diffrn_radiation_monochromator  'silicon 111'
_diffrn_radiation_type           synchrotron
_diffrn_radiation_wavelength     0.7288
_diffrn_reflns_av_R_equivalents  0.0596
_diffrn_reflns_av_unetI/netI     0.0338
_diffrn_reflns_Laue_measured_fraction_full 0.998
_diffrn_reflns_Laue_measured_fraction_max 0.998
_diffrn_reflns_limit_h_max       5
_diffrn_reflns_limit_h_min       -5
_diffrn_reflns_limit_k_max       21
_diffrn_reflns_limit_k_min       -21
_diffrn_reflns_limit_l_max       9
_diffrn_reflns_limit_l_min       -9
_diffrn_reflns_number            9923
_diffrn_reflns_point_group_measured_fraction_full 0.998
_diffrn_reflns_point_group_measured_fraction_max 0.998
_diffrn_reflns_theta_full        24.547
_diffrn_reflns_theta_max         24.547
_diffrn_reflns_theta_min         2.250
_diffrn_source
;
Advanced Light Source, station 12.2.1
;
_diffrn_standards_number         0
_exptl_absorpt_coefficient_mu    0.104
_exptl_absorpt_correction_T_max  0.999
_exptl_absorpt_correction_T_min  0.825
_exptl_absorpt_correction_type   multi-scan
_exptl_absorpt_process_details
;
SADABS-2016/2 (Bruker,2016) was used for absorption correction.
wR2(int) was 0.1369 before and 0.0623 after correction.
The Ratio of minimum to maximum transmission is 0.8256.
The \l/2 correction factor is Not present.
;
_exptl_crystal_colour            colourless
_exptl_crystal_colour_primary    colourless
_exptl_crystal_density_diffrn    1.346
_exptl_crystal_density_method    'not measured'
_exptl_crystal_description       plate
_exptl_crystal_F_000             344
_exptl_crystal_size_max          0.107
_exptl_crystal_size_mid          0.04
_exptl_crystal_size_min          0.014
_refine_diff_density_max         0.266
_refine_diff_density_min         -0.277
_refine_diff_density_rms         0.062
_refine_ls_extinction_method     none
_refine_ls_goodness_of_fit_ref   1.127
_refine_ls_hydrogen_treatment    mixed
_refine_ls_matrix_type           full
_refine_ls_number_parameters     109
_refine_ls_number_reflns         1208
_refine_ls_number_restraints     3
_refine_ls_restrained_S_all      1.128
_refine_ls_R_factor_all          0.0643
_refine_ls_R_factor_gt           0.0522
_refine_ls_shift/su_max          0.000
_refine_ls_shift/su_mean         0.000
_refine_ls_structure_factor_coef Fsqd
_refine_ls_weighting_details
'w=1/[\s^2^(Fo^2^)+(0.0611P)^2^+0.5882P] where P=(Fo^2^+2Fc^2^)/3'
_refine_ls_weighting_scheme      calc
_refine_ls_wR_factor_gt          0.1291
_refine_ls_wR_factor_ref         0.1362
_reflns_Friedel_coverage         0.000
_reflns_number_gt                974
_reflns_number_total             1208
_reflns_threshold_expression     'I > 2\s(I)'
_cod_data_source_file            ja9b05567_si_003.cif
_cod_data_source_block           pjm029s
_cod_depositor_comments
;
The following automatic conversions were performed:

'_atom_sites_solution_secondary' value 'diffmap' was changed to
'difmap'.

Automatic conversion script
Id: cif_fix_values 4973 2017-02-22 13:04:09Z antanas 
;
_cod_database_code               4127848
_shelx_shelxl_version_number     2016/6
_shelx_space_group_comment
;
The symmetry employed for this shelxl refinement is uniquely defined
by the following loop, which should always be used as a source of
symmetry information in preference to the above space-group names.
They are only intended as comments.
;
_shelx_estimated_absorpt_t_max   0.999
_shelx_estimated_absorpt_t_min   0.989
_olex2_refinement_description
;
1. Fixed Uiso
 At 1.2 times of:
  All C(H) groups, All C(H,H) groups, All N(H) groups, All N(H,H) groups
2. Restrained distances
 N2-H2A = N2-H2B
 0.91 with sigma of 0.02
 N1-H1
 0.88 with sigma of 0.02
3.a Ternary CH refined with riding coordinates:
 C3(H3)
3.b Secondary CH2 refined with riding coordinates:
 C2(H2C,H2D), C4(H4A,H4B), C5(H5A,H5B), C6(H6A,H6B), C7(H7A,H7B)
;
_shelx_res_file
;
TITL pjm029s_a.res in P2(1)/n
    pjm029s.res
    created by SHELXL-2016/6 at 00:11:28 on 12-Jan-2019
REM Old TITL PJM029S in P2(1)/n
REM SHELXT solution in P2(1)/n
REM R1 0.181, Rweak 0.008, Alpha 0.022, Orientation as input
REM Formula found by SHELXT: C7 N3 O
CELL 0.7288 5.0969 18.5652 8.4393 90 102.214 90
ZERR 4 0.0003 0.0011 0.0005 0 0.004 0
LATT 1
SYMM 0.5-X,0.5+Y,0.5-Z
SFAC C H N O
DISP C 0.0034 0.0017 11.9
DISP H 0 0 0.7
DISP N 0.0065 0.0035 20.6
DISP O 0.0115 0.0064 34.2
UNIT 28 56 8 8
EQIV $1 -1+X,+Y,+Z
EQIV $2 0.5+X,1.5-Y,0.5+Z
EQIV $3 -0.5+X,1.5-Y,0.5+Z
DFIX 0.91 N2 H2a N2 H2b
DFIX 0.88 N1 H1

L.S. 50
PLAN  20
SIZE 0.107 0.014 0.04
TEMP -173(2)
HTAB N1 O2_$1
HTAB N2 O1_$2
HTAB N2 O1_$3
HTAB N2 O2_$3
BOND $H
list 4
fmap 2
acta
HTAB
MORE -1
CONF
REM <olex2.extras>
REM <HklSrc "%./PJM029S.hkl">
REM </olex2.extras>

WGHT    0.061100    0.588200
FVAR       0.70233
O1    4    0.284912    0.879209    0.547258    11.00000    0.05942    0.02593 =
         0.02972   -0.00141    0.02339   -0.01376
O2    4    0.630834    0.819746    0.695999    11.00000    0.02137    0.05096 =
         0.06610   -0.02913    0.02205   -0.01113
N1    3    0.217611    0.806098    0.747264    11.00000    0.01718    0.02714 =
         0.02595    0.00316    0.00750    0.00237
H1    2    0.039471    0.817290    0.717821    11.00000   -1.20000
N2    3    0.257762    0.617707    0.903269    11.00000    0.04377    0.03191 =
         0.03028    0.01088    0.02403    0.01789
H2A   2    0.440194    0.618463    0.954512    11.00000   -1.20000
H2B   2    0.169704    0.630788    0.982343    11.00000   -1.20000
C1    1    0.385476    0.835819    0.660722    11.00000    0.03188    0.02725 =
         0.02971   -0.01513    0.01757   -0.01134
C2    1    0.292024    0.746576    0.856511    11.00000    0.03230    0.03332 =
         0.02134    0.00206    0.00628    0.01184
AFIX  23
H2C   2    0.203939    0.752106    0.949706    11.00000   -1.20000
H2D   2    0.488593    0.747499    0.898777    11.00000   -1.20000
AFIX   0
C3    1    0.213387    0.674203    0.775609    11.00000    0.01980    0.02901 =
         0.02500    0.00731    0.00732    0.00341
AFIX  13
H3    2    0.017370    0.675624    0.725196    11.00000   -1.20000
AFIX   0
C4    1    0.362915    0.653928    0.646468    11.00000    0.02722    0.02837 =
         0.02135    0.00034    0.00587   -0.00138
AFIX  23
H4A   2    0.558190    0.654607    0.693159    11.00000   -1.20000
H4B   2    0.325621    0.690045    0.558253    11.00000   -1.20000
AFIX   0
C5    1    0.283503    0.579868    0.576752    11.00000    0.05518    0.03724 =
         0.02381   -0.00392    0.00062   -0.00427
AFIX  23
H5A   2    0.392596    0.567339    0.496591    11.00000   -1.20000
H5B   2    0.092272    0.580189    0.520396    11.00000   -1.20000
AFIX   0
C6    1    0.326970    0.523795    0.711537    11.00000    0.02986    0.02645 =
         0.03337   -0.00331    0.00278   -0.00561
AFIX  23
H6A   2    0.261867    0.476340    0.665983    11.00000   -1.20000
H6B   2    0.521193    0.519492    0.759334    11.00000   -1.20000
AFIX   0
C7    1    0.180040    0.544632    0.840978    11.00000    0.02773    0.03130 =
         0.06314    0.01606    0.02232    0.00486
AFIX  23
H7A   2   -0.015758    0.543223    0.796110    11.00000   -1.20000
H7B   2    0.221291    0.509555    0.931184    11.00000   -1.20000
AFIX   0
HKLF 4




REM  pjm029s_a.res in P2(1)/n
REM R1 =  0.0522 for     974 Fo > 4sig(Fo)  and  0.0643 for all    1208 data
REM    109 parameters refined using      3 restraints

END

WGHT      0.0611      0.5882

REM Instructions for potential hydrogen bonds
HTAB N1 O2_$1
HTAB N2 O1_$2
HTAB N2 O1_$3
HTAB N2 O2_$3
HTAB C2 O2_$3
EQIV $4 -x+1/2, y-1/2, -z+3/2
HTAB C7 O1_$4

REM Highest difference peak  0.266,  deepest hole -0.277,  1-sigma level  0.062
Q1    1  -0.0584  0.5794  0.5700  11.00000  0.05    0.27
Q2    1  -0.0014  0.8366  0.6526  11.00000  0.05    0.26
Q3    1   0.4505  0.6248  1.0651  11.00000  0.05    0.24
Q4    1   0.0269  0.6205  1.0459  11.00000  0.05    0.24
Q5    1   0.3800  0.8802  0.3996  11.00000  0.05    0.23
Q6    1  -0.0205  0.5259  0.7170  11.00000  0.05    0.22
Q7    1  -0.0057  0.6511  0.6529  11.00000  0.05    0.22
Q8    1   0.5517  0.6189  0.9007  11.00000  0.05    0.21
Q9    1   0.0105  0.6738  0.7922  11.00000  0.05    0.19
Q10   1   0.5347  0.7428  0.8459  11.00000  0.05    0.19
Q11   1   0.5741  0.5681  0.5548  11.00000  0.05    0.19
Q12   1   0.0437  0.6192  0.9148  11.00000  0.05    0.18
Q13   1   0.5807  0.6785  0.7895  11.00000  0.05    0.17
Q14   1  -0.1099  0.7435  0.8635  11.00000  0.05    0.17
Q15   1  -0.0381  0.5587  0.8684  11.00000  0.05    0.15
Q16   1   0.7708  0.8384  0.6700  11.00000  0.05    0.15
Q17   1   0.5412  0.5378  0.8375  11.00000  0.05    0.14
Q18   1   0.4281  0.6672  0.7570  11.00000  0.05    0.14
Q19   1   0.0015  0.4622  0.6580  11.00000  0.05    0.13
Q20   1  -0.0298  0.7174  0.5943  11.00000  0.05    0.13
;
_shelx_res_checksum              42870
_shelx_hkl_file
;
  -1   0   0    0.90    1.00
  -1   0   0    1.40    1.60
   1   0   0    0.20    1.10
  -1   0   0    1.50    1.00
   1   0   0    0.80    1.20
   2   0   0 3594.34  181.68
   2   0   0 3715.63  172.38
  -2   0   0 3954.40  179.68
  -2   0   0 3434.56  185.08
  -3   0   0   -0.80    1.30
  -3   0   0    0.90    2.30
   3   0   0   -2.80    2.00
   3   0   0   -1.20    1.60
  -3   0   0   -1.00    1.50
  -4   0   0    8.80    3.50
  -4   0   0    6.60    2.60
   4   0   0   10.20    3.20
   4   0   0   11.40    3.80
   5   0   0    2.70    3.60
  -5   0   0    3.00    3.90
   5   0   0    1.20    2.50
  -5   0   0    1.60    2.30
   5   0   0    3.70    2.60
  -1  -1   0   11.40    1.50
  -1  -1   0   15.10    2.50
   1  -1   0   11.00    1.70
   1  -1   0   11.40    1.60
  -1  -1   0   13.20    1.70
  -1  -1   0   13.40    2.40
  -1   1   0   14.80    1.80
   1   1   0   13.40    2.30
  -1   1   0   13.90    1.60
  -1   1   0   15.70    2.00
  -1   1   0   14.30    2.00
  -2  -1   0    6.20    1.40
  -2  -1   0    4.80    1.60
  -2  -1   0    5.30    2.30
  -2   1   0    4.40    2.00
  -2   1   0    3.70    1.40
   2   1   0   11.00    2.80
  -2   1   0    5.20    2.00
  -2   1   0    5.60    1.70
  -3  -1   0    6.00    2.70
  -3  -1   0   13.80    2.30
   3  -1   0    9.60    2.60
  -3  -1   0    8.20    1.90
   3  -1   0   13.40    3.70
   3   1   0    7.80    2.70
   3   1   0    6.60    2.40
  -3   1   0   11.40    1.90
  -3   1   0    9.90    2.60
  -3   1   0    7.20    1.80
  -4  -1   0   -1.60    2.60
   4  -1   0    2.40    2.90
  -4  -1   0   -1.70    3.00
   4  -1   0   -1.80    2.50
  -4   1   0    1.30    2.80
   4   1   0   -2.30    2.30
   4   1   0   -0.10    2.30
  -4   1   0   -1.40    1.80
   5  -1   0    1.20    2.40
   5  -1   0   -2.70    2.30
  -5  -1   0    2.50    2.40
   5  -1   0   -5.30    3.60
  -5  -1   0   -2.30    3.50
  -5   1   0   -0.40    2.30
   5   1   0    0.50    2.70
  -5   1   0    2.40    3.40
   5   1   0    1.30    3.30
   5   1   0    3.40    2.60
   0  -2   0  585.04   25.10
   0  -2   0  564.34   24.90
   0   2   0  632.14   25.00
  -1  -2   0  970.90   44.50
   1  -2   0 1079.19   43.80
  -1   2   0 1075.09   43.80
  -1   2   0 1052.99   44.40
  -2  -2   0   25.30    2.20
  -2  -2   0   22.40    2.50
   2  -2   0   21.60    2.50
  -2  -2   0   32.80    3.90
  -2   2   0   23.40    3.40
  -2   2   0   20.60    2.50
  -2   2   0   23.70    2.70
  -2   2   0   18.70    2.60
   2   2   0   25.20    3.80
  -3  -2   0    0.80    1.30
  -3  -2   0    1.80    1.50
   3  -2   0    3.50    2.30
  -3  -2   0    2.60    2.70
  -3   2   0   -0.90    1.90
   3   2   0    2.40    2.10
  -3   2   0    0.30    1.50
  -3   2   0    1.10    2.10
   3   2   0    2.80    2.60
  -4  -2   0   -0.40    3.10
   4  -2   0    1.20    2.70
   4  -2   0    5.80    4.10
  -4   2   0    0.60    2.60
  -4   2   0    2.70    2.00
   4   2   0    1.00    2.40
   4   2   0   -6.50    2.20
   5  -2   0   12.00    3.70
  -5  -2   0    8.10    4.30
   5  -2   0   11.30    4.50
   5  -2   0   21.40    4.40
  -5  -2   0    9.50    2.70
  -5   2   0   13.70    3.00
   5   2   0   13.60    4.10
   5   2   0    9.20    2.70
  -5   2   0   12.30    3.80
   5   2   0   16.20    3.80
   0  -3   0    0.60    1.10
   0  -3   0    0.00    1.00
   0  -3   0   -0.20    1.30
   0   3   0    0.40    0.70
   0   3   0   -0.10    0.80
   0   3   0    2.10    1.40
  -1  -3   0  192.28    8.80
  -1  -3   0  201.08   10.30
  -1  -3   0  218.18    9.10
  -1  -3   0  215.08    9.90
   1  -3   0  201.38    9.60
   1   3   0  197.48    8.80
   1   3   0  223.18   10.00
  -1   3   0  209.98    9.80
  -1   3   0  214.98    9.30
  -1   3   0  196.78    9.10
   2  -3   0  102.59    4.80
  -2  -3   0   95.49    5.10
  -2  -3   0  101.89    4.90
  -2   3   0  100.39    5.30
  -2   3   0  100.89    5.10
  -2   3   0   96.79    6.30
  -2   3   0   95.79    5.20
   2   3   0  106.89    6.60
  -3  -3   0   88.69    5.10
   3  -3   0   89.29    6.00
  -3  -3   0   92.19    4.80
  -3  -3   0   90.99    6.60
   3   3   0   90.19    6.40
  -3   3   0   79.59    5.10
   3   3   0   92.69    6.80
  -3   3   0   86.19    5.30
  -3   3   0   84.19    6.20
   4  -3   0   15.30    4.40
  -4  -3   0    6.30    3.80
  -4   3   0   19.10    3.30
  -4   3   0   13.70    2.60
   4   3   0   12.90    3.80
   4   3   0   14.40    3.40
   5  -3   0   11.40    3.20
  -5  -3   0    6.10    4.40
   5  -3   0    9.20    3.40
   5  -3   0    1.00    4.00
  -5  -3   0    7.90    2.40
   5   3   0    9.60    3.90
   5   3   0    2.10    2.40
  -5   3   0   12.70    3.10
   5   3   0   10.20    3.30
   0  -4   0 1001.50   39.90
   0  -4   0  894.61   39.80
   0  -4   0  952.50   40.20
   0  -4   0  931.41   39.70
   0   4   0  952.30   40.20
  -1  -4   0  244.88   11.20
   1  -4   0  248.28   11.00
  -1  -4   0  235.08   10.10
  -1  -4   0  244.88   11.60
   1   4   0  239.88   11.40
   1   4   0  229.28   10.60
  -1   4   0  246.98   10.60
  -1   4   0  232.28   10.40
   1   4   0  228.78   10.00
  -1   4   0  234.68   11.10
   2  -4   0   89.19    5.70
  -2  -4   0   90.19    4.40
  -2  -4   0   95.19    4.80
  -2  -4   0   93.79    6.30
   2  -4   0   98.59    4.30
  -2  -4   0   91.29    6.60
  -2   4   0   93.99    5.00
  -2   4   0   87.99    5.90
   2   4   0   93.39    6.30
  -2   4   0   83.59    4.90
   3  -4   0   76.39    5.50
  -3  -4   0   76.39    4.60
  -3  -4   0   75.99    6.30
  -3   4   0   69.09    5.70
  -3   4   0   79.29    4.50
   3   4   0   75.69    6.70
  -3   4   0   75.49    4.70
  -4  -4   0   -0.10    3.40
   4  -4   0   -1.90    4.10
  -4   4   0   -1.60    1.90
  -4   4   0   -0.60    2.00
   4   4   0    3.00    2.90
   4   4   0   -2.50    2.60
   4   4   0    2.30    2.70
  -4   4   0    1.70    2.40
  -5  -4   0   10.90    4.70
   5  -4   0    7.20    4.40
   5  -4   0    7.80    3.10
   5  -4   0    7.80    3.20
  -5  -4   0   13.30    2.80
   5   4   0    7.00    3.40
   5   4   0    7.40    3.10
  -5   4   0   10.40    3.00
   5   4   0   11.20    3.10
   0  -5   0    1.70    1.60
   0  -5   0   -0.20    2.00
   0  -5   0    0.10    1.50
   0   5   0    1.30    2.20
   0   5   0   -0.10    1.10
  -1  -5   0   20.50    1.30
  -1  -5   0   21.00    3.40
  -1  -5   0   18.20    2.90
   1  -5   0   20.00    1.40
   1  -5   0   18.20    2.40
   1   5   0   17.50    2.80
   1   5   0   20.90    2.50
   1   5   0   19.40    1.10
  -1   5   0   18.80    2.00
  -1   5   0   18.80    1.40
  -1   5   0   19.50    3.00
  -2  -5   0   10.80    1.40
  -2  -5   0   13.10    3.10
  -2  -5   0    9.30    3.00
   2  -5   0    9.50    2.30
  -2  -5   0   12.00    1.70
  -2   5   0   10.50    1.60
   2   5   0    9.60    1.50
   2   5   0    6.90    2.40
  -2   5   0   11.80    2.50
   3  -5   0    2.90    2.00
  -3  -5   0   -1.80    1.50
  -3  -5   0   -2.00    2.80
  -3  -5   0   -0.80    2.50
   3   5   0    0.40    2.10
  -3   5   0    0.50    1.70
  -3   5   0   -1.40    2.00
  -4  -5   0   -0.30    3.40
   4  -5   0    8.20    4.40
   4   5   0    7.50    3.20
  -4   5   0    6.20    2.30
   4   5   0    0.00    2.90
  -4   5   0    2.30    2.80
  -4   5   0    2.30    1.80
   4   5   0    0.60    2.80
   5  -5   0   30.20    4.80
  -5  -5   0   23.10    3.40
  -5  -5   0   32.80    6.20
   5  -5   0   26.90    5.50
   5   5   0   31.90    5.30
   5   5   0   20.40    4.90
  -5   5   0   27.10    4.40
   5   5   0   23.80    3.60
   0  -6   0 1104.29   47.50
   0  -6   0 1046.70   46.80
   0   6   0 1142.59   46.70
   0   6   0 1153.48   47.40
  -1  -6   0  213.28   10.80
  -1  -6   0  214.78    9.00
   1  -6   0  209.08   10.20
   1  -6   0  211.78    9.30
  -1  -6   0  225.58   10.50
  -1   6   0  213.08   10.30
   1   6   0  224.58   10.90
   1   6   0  210.68    9.10
  -1   6   0  199.48    9.50
   1   6   0  217.28    9.70
  -1   6   0  205.98    9.20
   2  -6   0    9.00    2.40
  -2  -6   0    4.10    3.10
  -2  -6   0   10.10    1.40
  -2  -6   0   13.30    3.50
  -2   6   0   10.90    2.80
  -2   6   0    9.10    1.80
   2   6   0   12.10    3.10
   2   6   0    8.30    1.00
  -3  -6   0    9.20    2.90
   3  -6   0    8.00    2.30
   3   6   0   10.50    2.90
  -3   6   0    8.70    2.50
  -3   6   0    9.90    2.00
  -4  -6   0  147.59    9.90
   4   6   0  127.09    7.90
  -4   6   0  140.19    9.10
  -4   6   0  147.19    7.70
   4   6   0  128.49    9.30
  -5  -6   0   48.40    7.40
   5  -6   0   42.40    5.20
   5  -6   0   49.99    6.90
  -5  -6   0   39.40    4.10
   5   6   0   42.10    5.20
   5   6   0   40.50    6.00
  -5   6   0   37.20    4.80
   0  -7   0   -0.60    1.90
   0  -7   0    1.10    1.70
   0  -7   0    0.80    1.40
   0   7   0    0.70    1.20
   0   7   0    0.40    2.10
   1  -7   0    2.00    1.20
  -1  -7   0    3.90    2.60
   1  -7   0    1.40    3.00
  -1  -7   0    2.90    0.70
  -1   7   0    1.90    1.80
   1   7   0    7.80    2.60
   1   7   0    4.70    1.70
  -1   7   0    2.20    1.10
   2  -7   0  234.88   11.00
  -2  -7   0  206.68    9.30
  -2  -7   0  225.18   11.50
  -2  -7   0  227.68   11.80
   2   7   0  218.88   11.60
   2   7   0  195.48    9.30
   2   7   0  225.18   10.60
  -2   7   0  230.38   10.20
  -2   7   0  224.18   11.20
  -3  -7   0   -0.30    2.80
  -3  -7   0    8.90    4.00
   3  -7   0    2.60    3.70
   3  -7   0    2.60    1.90
   3   7   0    4.90    2.80
  -3   7   0    3.40    2.60
  -3   7   0    3.30    1.80
  -4  -7   0  107.59    8.70
   4  -7   0   91.79    9.30
  -4  -7   0  119.99    9.20
  -4   7   0  133.89    7.20
  -4   7   0  124.19    8.40
   4   7   0  120.09    8.80
   4   7   0  135.19    6.80
   5  -7   0    9.30    3.40
  -5  -7   0    3.90    2.20
  -5  -7   0    3.70    4.70
   5  -7   0   10.60    4.50
   5   7   0    2.00    2.10
   5   7   0    4.60    3.10
   5   7   0    6.20    3.50
  -5   7   0    6.80    3.20
  -5   7   0    1.40    2.60
   0  -8   0   34.40    2.90
   0  -8   0   38.60    6.00
   0  -8   0   41.70    3.70
   0   8   0   39.10    2.90
   0   8   0   40.90    4.20
  -1  -8   0  195.68    8.40
  -1  -8   0  192.28   10.10
  -1  -8   0  186.38   10.20
   1  -8   0  202.38    8.90
   1  -8   0  196.48   10.00
  -1  -8   0  179.88    8.40
   1   8   0  201.18   10.40
   1   8   0  200.08    9.20
  -1   8   0  199.08    9.00
  -1   8   0  192.08    9.80
  -2  -8   0   30.80    4.60
   2  -8   0   27.00    3.60
   2  -8   0   33.20    5.50
  -2  -8   0   31.90    4.90
  -2   8   0   25.80    2.90
   2   8   0   27.50    3.30
   2   8   0   26.30    3.90
  -2   8   0   26.20    4.00
   3  -8   0    2.30    4.20
  -3  -8   0    4.80    3.20
   3  -8   0    1.00    2.00
  -3  -8   0    4.40    3.30
  -3   8   0    2.30    2.40
   3   8   0    2.70    2.90
  -3   8   0    4.60    1.90
   3   8   0    2.90    1.30
  -4  -8   0   29.50    5.10
   4  -8   0   28.40    5.30
  -4  -8   0   24.60    5.30
   4   8   0   26.80    4.80
  -4   8   0   27.10    3.80
  -4   8   0   18.90    3.60
   5  -8   0   26.70    5.10
  -5  -8   0   18.40    5.40
   5  -8   0   19.60    3.90
  -5   8   0   26.30    3.90
   5   8   0   17.00    4.30
   5   8   0   12.90    3.90
  -5   8   0   17.20    4.10
   0  -9   0   -1.70    1.90
   0  -9   0    0.30    1.50
   0  -9   0    2.80    2.20
   0   9   0    0.10    2.10
   0   9   0    0.10    1.30
   1  -9   0   98.19    6.90
   1  -9   0  102.19    5.50
  -1  -9   0  113.09    6.90
   1  -9   0  102.39    6.50
  -1  -9   0  110.59    4.90
  -1  -9   0  104.29    7.00
   1   9   0  103.89    6.80
   1   9   0  103.39    5.80
  -1   9   0  107.19    6.40
  -1   9   0  110.49    5.50
   2  -9   0  360.76   16.50
  -2  -9   0  360.26   17.70
  -2  -9   0  351.36   17.00
  -2   9   0  349.47   16.70
   2   9   0  342.87   15.80
   2   9   0  336.37   17.10
  -2   9   0  344.97   15.50
  -3  -9   0   22.90    4.60
   3  -9   0   36.30    4.20
   3  -9   0   34.20    5.40
  -3  -9   0   38.30    5.50
   3   9   0   21.70    4.20
  -3   9   0   35.30    4.50
  -3   9   0   30.90    3.30
   3   9   0   36.90    4.30
  -4  -9   0   98.99    8.40
  -4  -9   0   87.29    8.50
   4  -9   0  105.59   10.40
  -4   9   0  109.09    6.60
   4   9   0   84.29    7.80
  -4   9   0   98.09    7.60
   5  -9   0   -0.60    2.80
  -5  -9   0    0.80    4.50
  -5   9   0   -1.20    2.40
   5   9   0   -1.70    2.40
  -5   9   0    2.50    2.70
   5   9   0   -7.30    2.70
   0 -10   0   33.80    4.50
   0 -10   0   28.10    2.90
   0 -10   0   26.70    3.50
   0  10   0   25.20    4.00
   0  10   0   25.40    2.80
  -1 -10   0   56.69    5.30
   1 -10   0   46.80    3.40
   1 -10   0   43.30    4.70
  -1 -10   0   48.40    5.00
   1 -10   0   43.50    4.60
  -1 -10   0   48.80    2.80
   1  10   0   49.20    4.90
  -1  10   0   48.50    3.30
   1  10   0   47.90    3.70
  -1  10   0   51.59    4.40
  -2 -10   0   32.20    5.10
   2 -10   0   29.00    3.70
   2 -10   0   30.40    4.50
  -2 -10   0   22.60    3.90
   2  10   0   31.00    3.50
  -2  10   0   27.60    2.90
   2  10   0   28.90    4.40
  -2  10   0   32.10    4.00
  -3 -10   0    2.30    3.60
  -3 -10   0   -1.70    3.30
   3 -10   0    1.30    2.30
   3 -10   0    3.60    3.90
   3  10   0    4.80    2.40
   3  10   0    1.90    2.60
  -3  10   0   -0.90    2.10
  -3  10   0   -0.50    1.60
   4 -10   0   69.19    7.60
  -4 -10   0   43.70    6.50
  -4 -10   0   52.09    7.20
   4 -10   0   60.19    7.10
   4  10   0   62.79    6.80
  -4  10   0   59.19    5.20
   4  10   0   54.09    6.10
  -4  10   0   55.69    6.10
   0 -11   0    0.00    2.70
   0 -11   0    0.30    1.50
   0 -11   0   -1.60    2.10
   0  11   0   -1.90    2.30
   0  11   0   -0.20    1.70
  -1 -11   0   20.90    6.10
   1 -11   0   15.70    3.10
   1 -11   0   16.30    2.70
   1 -11   0   20.20    3.00
  -1 -11   0   18.70    1.90
  -1 -11   0   23.00    4.00
   1  11   0   14.30    2.30
  -1  11   0   10.40    2.40
   1  11   0   14.70    3.10
  -1  11   0   18.80    2.60
   2 -11   0   35.40    5.50
  -2 -11   0   30.50    5.10
   2 -11   0   30.50    4.10
  -2 -11   0   32.70    4.90
  -2  11   0   31.40    3.10
   2  11   0   31.40    3.80
   2  11   0   31.00    4.60
  -2  11   0   31.70    4.20
  -3 -11   0    0.80    3.70
   3 -11   0    1.10    4.30
   3 -11   0    0.00    2.40
   3  11   0   -0.20    2.50
  -3  11   0    0.80    2.50
  -3  11   0   -0.40    2.00
   3  11   0    2.30    3.00
   4 -11   0    2.90    3.80
  -4 -11   0    2.10    5.00
  -4 -11   0    5.30    3.70
   4 -11   0    2.00    3.80
   4  11   0   -1.30    3.00
  -4  11   0   -4.00    2.30
  -4  11   0    1.10    2.90
   4  11   0   -3.10    2.20
   0 -12   0   21.10    3.40
   0 -12   0   20.80    3.80
   0 -12   0   20.50    2.80
   0  12   0   22.40    3.20
   0  12   0   23.00    3.80
  -1 -12   0    1.90    1.30
  -1 -12   0   -0.30    2.50
  -1 -12   0   -0.40    2.90
   1 -12   0    1.20    2.30
   1 -12   0   -1.20    1.70
   1 -12   0   -0.40    2.10
  -1  12   0   -1.00    1.90
   1  12   0    2.90    2.70
  -1  12   0    1.70    1.60
   1  12   0    0.30    2.10
   2 -12   0   37.90    5.10
   2 -12   0   40.60    4.70
   2 -12   0   35.80    2.80
  -2 -12   0   23.50    4.60
  -2 -12   0   35.70    5.50
  -2  12   0   35.80    3.50
   2  12   0   32.60    4.10
  -2  12   0   40.70    4.50
   2  12   0   37.00    5.00
  -3 -12   0    5.50    4.80
  -3 -12   0    7.20    4.10
   3 -12   0   14.30    3.30
   3 -12   0    9.80    4.00
   3  12   0    7.20    2.50
  -3  12   0   13.70    2.80
  -3  12   0   14.90    3.70
   3  12   0    9.30    3.30
   4 -12   0   41.30    6.20
  -4 -12   0   42.30    6.50
   4 -12   0   37.70    5.50
  -4 -12   0   23.40    5.30
  -4  12   0   34.30    4.50
   4  12   0   23.70    4.20
   0 -13   0   -1.40    2.40
   0 -13   0    0.60    1.70
   0 -13   0    1.60    2.70
   0  13   0    0.80    1.90
   0  13   0   -0.70    2.40
   1 -13   0   19.40    3.20
  -1 -13   0   19.90    2.30
  -1 -13   0   11.90    3.20
   1 -13   0   13.80    3.10
  -1 -13   0   19.20    3.80
   1 -13   0   23.70    3.70
   1  13   0   14.00    3.40
  -1  13   0   19.80    2.80
   1  13   0   19.70    2.60
  -1  13   0   14.60    3.10
   2 -13   0   -0.50    1.60
   2 -13   0    1.10    2.80
  -2 -13   0    3.10    3.20
   2 -13   0    1.30    2.80
  -2 -13   0   -2.10    3.00
   2  13   0   -1.40    2.40
  -2  13   0    2.00    2.40
  -2  13   0    1.00    1.70
   2  13   0    2.70    2.10
  -3 -13   0   29.20    5.50
  -3 -13   0   19.10    4.70
   3 -13   0   30.50    4.80
   3 -13   0   32.50    4.60
   3  13   0   13.60    3.90
  -3  13   0   17.70    3.60
   3  13   0   27.40    4.20
  -3  13   0   28.40    4.00
  -4 -13   0    1.30    3.90
   4 -13   0   -2.40    2.60
  -4 -13   0   -1.80    3.60
   4 -13   0    2.40    3.70
   4  13   0    2.50    3.20
  -4  13   0   -3.30    2.30
   4  13   0   -0.50    3.10
  -4  13   0    2.00    3.10
   0 -14   0  568.64   25.90
   0 -14   0  527.25   24.70
   0 -14   0  546.25   25.10
   0  14   0  554.84   24.00
   0  14   0  549.25   25.20
  -1 -14   0  114.49    5.60
   1 -14   0  106.39    6.70
  -1 -14   0  119.09    8.40
  -1 -14   0  111.09    7.90
   1 -14   0  114.59    7.70
   1 -14   0  105.79    6.80
   1  14   0  110.09    6.50
  -1  14   0  125.29    6.30
   1  14   0  107.59    7.80
  -1  14   0  101.99    7.10
  -2 -14   0   89.59    7.80
   2 -14   0   98.69    7.00
  -2 -14   0   87.49    7.90
   2 -14   0   99.49    7.10
   2 -14   0   97.89    5.60
   2  14   0   83.89    7.30
  -2  14   0   93.09    5.70
  -2  14   0   95.99    7.00
   2  14   0   99.99    6.30
   3 -14   0   40.90    5.70
  -3 -14   0   20.40    5.00
   3 -14   0   41.60    5.20
  -3 -14   0   40.60    6.20
  -3  14   0   36.50    4.40
   3  14   0   42.60    5.00
  -3  14   0   31.50    5.10
  -4 -14   0   -1.10    4.00
   4 -14   0    7.70    3.60
  -4 -14   0    0.30    3.00
   4 -14   0    6.70    3.30
  -4  14   0    7.40    2.70
   4  14   0   -2.30    2.70
  -4  14   0    3.00    3.00
   4  14   0    2.70    3.00
   0 -15   0   -2.60    2.70
   0 -15   0    0.50    1.90
   0 -15   0   -1.10    2.70
   0  15   0    0.30    2.00
   0  15   0   -2.10    2.50
  -1 -15   0   17.80    4.20
   1 -15   0   21.40    4.00
   1 -15   0   19.60    3.50
  -1 -15   0   21.40    4.10
   1 -15   0   25.00    4.10
  -1 -15   0   19.60    2.70
   1  15   0   21.00    3.80
   1  15   0   16.70    2.70
  -1  15   0   15.80    3.00
  -1  15   0   15.10    2.40
  -2 -15   0   97.99    8.40
   2 -15   0  104.49    7.70
  -2 -15   0   78.59    7.90
   2 -15   0  102.79    6.90
   2  15   0  108.89    6.40
  -2  15   0   90.59    7.00
  -2  15   0  106.39    5.90
   2  15   0   94.79    7.50
   3 -15   0   17.00    4.00
  -3 -15   0   10.20    4.70
  -3 -15   0   19.20    5.00
   3 -15   0   18.90    4.00
   3  15   0   10.70    3.10
   3  15   0    3.00    3.50
  -3  15   0    5.90    2.80
  -3  15   0    8.20    2.40
  -4 -15   0   10.60    4.90
   0 -16   0   86.59    5.50
   0 -16   0   87.19    7.00
   0 -16   0   91.49    7.60
   0  16   0   99.29    5.90
   0  16   0   86.59    6.80
   1 -16   0   17.40    3.70
  -1 -16   0   23.50    5.10
  -1 -16   0   18.10    4.40
   1 -16   0   15.50    3.10
  -1 -16   0   17.00    2.30
   1 -16   0   29.80    4.60
  -1  16   0   17.40    2.60
   1  16   0    7.40    3.20
   1  16   0   12.90    2.70
  -1  16   0    9.30    2.90
   2 -16   0   86.59    6.30
   2 -16   0   77.69    5.60
  -2 -16   0   60.79    8.20
  -2 -16   0   84.49    7.80
   2 -16   0   90.79    7.00
  -2  16   0   70.99    6.30
  -2  16   0   74.19    5.10
   2  16   0   75.69    5.90
   2  16   0   67.49    6.70
   3 -16   0   18.50    3.80
  -3 -16   0   24.20    5.10
   3 -16   0   11.50    3.40
  -3 -16   0   23.90    5.10
  -3  16   0   18.60    3.80
   3  16   0   27.70    4.00
   3  16   0   16.30    4.10
  -3  16   0   14.60    3.00
   0 -17   0    1.80    3.60
   0 -17   0   -2.30    2.10
   0 -17   0   -1.40    3.10
   0  17   0    1.40    2.30
   0  17   0    2.00    2.90
   1 -17   0   49.90    4.80
   1 -17   0   49.80    6.30
  -1 -17   0   46.40    6.50
  -1 -17   0   42.70    6.20
   1 -17   0   48.60    5.60
   1  17   0   44.30    5.80
  -1  17   0   55.19    5.30
   1  17   0   40.40    4.40
  -1  17   0   51.09    4.30
   2 -17   0    4.10    3.20
   2 -17   0    3.80    3.40
  -2 -17   0    3.80    3.70
  -2 -17   0   -2.00    3.50
  -2  17   0    1.90    2.40
   2  17   0    4.20    3.00
  -2  17   0   -0.10    1.90
   2  17   0    2.50    3.20
  -3 -17   0   60.19    7.80
   3 -17   0   83.09    6.70
  -3 -17   0   63.59    8.00
   3 -17   0   81.49    7.00
  -3  17   0   65.49    6.60
  -3  17   0   83.69    5.80
   3  17   0   64.79    5.80
   0 -18   0   -0.90    2.30
   0 -18   0   -0.10    3.20
   0 -18   0   -2.20    3.30
   0  18   0    0.70    3.10
   0  18   0    1.60    2.40
  -1 -18   0    2.20    2.00
   1 -18   0    4.10    3.30
  -1 -18   0    0.00    3.60
  -1 -18   0    7.80    4.30
   1 -18   0    2.00    3.10
   1  18   0    4.40    2.60
  -1  18   0   -2.20    2.20
  -1  18   0    2.50    2.30
   1  18   0    6.40    3.10
  -2 -18   0    9.80    4.40
   2 -18   0    8.50    3.50
   2 -18   0   15.10    3.70
  -2 -18   0    5.40    4.10
  -2  18   0    2.10    2.00
  -2  18   0    5.80    2.60
   2  18   0    6.80    3.00
   2  18   0    7.70    3.80
   0 -19   0   -2.00    3.10
   0 -19   0   -1.70    2.40
   0 -19   0   -0.30    3.60
   0  19   0   -2.10    2.10
   0  19   0   -1.10    2.90
  -1 -19   0   -1.50    3.40
   1 -19   0    0.60    3.50
   1 -19   0   -3.20    2.70
   1 -19   0   -0.20    3.50
  -1 -19   0   -2.40    3.50
  -1  19   0   -1.80    2.10
   1  19   0    2.60    2.60
  -1  19   0   -0.90    2.30
   1  19   0    0.50    3.10
   2 -19   0    0.30    3.20
  -2 -19   0    2.90    4.00
  -2 -19   0    2.60    4.40
   2 -19   0    0.70    3.10
   2  19   0    3.10    2.80
  -2  19   0    1.60    2.10
   2  19   0    1.20    3.40
  -2  19   0   -0.80    2.30
   0 -20   0   22.30    4.70
   0 -20   0   41.00    4.50
   0 -20   0   30.20    5.60
   0  20   0   34.00    4.40
   0  20   0   38.80    5.30
   1 -20   0    3.00    3.90
  -1 -20   0    6.00    4.10
   1 -20   0    9.40    4.20
  -1 -20   0    6.70    4.00
   1 -20   0    3.70    2.90
   1  20   0    2.30    3.20
  -1  20   0    4.40    2.90
   1  20   0    3.70    2.80
  -1  20   0    5.60    2.70
   0 -21   0    1.20    2.80
   0 -21   0    3.60    3.70
   0 -21   0    1.40    4.00
   0  21   0    0.20    2.50
   0  21   0    2.10    3.00
   5   0  -1    8.90    2.90
  -5   0   1    9.40    2.80
   5   0  -1    9.90    3.50
  -5   0   1    8.00    3.80
  -4   0   1    0.50    1.80
   4   0  -1   -3.90    1.80
   4   0  -1   -0.70    2.20
  -4   0   1   -2.70    2.70
  -4   0   1   -2.00    1.70
  -3   0   1   36.70    3.10
  -3   0   1   43.60    3.40
   3   0  -1   36.40    4.40
   3   0  -1   33.60    3.80
  -3   0   1   33.90    4.20
   2   0  -1    0.80    1.60
  -2   0   1    1.70    2.00
   2   0  -1    3.50    2.00
  -1   0   1 4331.57  189.08
   0   0  -1    0.50    0.90
   0   0  -1    0.50    0.60
   0   0   1    0.30    0.60
   0   0   1    0.30    0.30
   0   0  -1   -0.10    0.40
   0   0   1   -0.20    0.60
   0   0   1    1.00    0.90
  -1   0  -1 9999.00  430.66
   1   0   1 9094.39  447.26
   2   0   1    0.20    1.80
   2   0   1    0.00    2.10
  -2   0  -1    0.70    1.50
  -2   0  -1   -2.20    1.60
   2   0   1    1.00    2.40
   3   0   1 1452.75   63.39
  -3   0  -1 1496.05   62.19
  -3   0  -1 1546.25   62.79
   3   0   1 1354.76   62.29
   3   0   1 1480.65   63.99
  -4   0  -1    0.90    2.20
   4   0   1    2.20    2.70
   4   0   1    1.80    2.30
  -4   0  -1   -2.10    2.80
   4   0   1    0.10    2.50
   5   0   1    6.30    2.80
   5   0   1    6.30    3.20
   5   0   1   12.00    4.00
  -5   0  -1    5.60    2.70
  -5   0  -1    8.30    4.10
   5  -1  -1  108.59    7.80
   5  -1  -1  100.59    8.40
  -5  -1   1  100.79    6.60
  -5  -1   1  105.19    8.70
   5   1  -1  108.89    7.90
   5   1  -1   99.29    8.60
  -5   1   1  120.19    7.00
  -5   1   1  114.59    8.20
  -4  -1   1    1.60    1.80
  -4  -1   1    0.70    3.00
   4  -1  -1    2.40    2.70
  -4  -1   1    1.60    1.80
   4  -1  -1    1.60    2.10
  -4   1   1    2.10    2.10
   4   1  -1   -0.40    2.20
  -4   1   1    0.90    1.80
  -4   1   1    3.90    3.30
   4   1  -1    2.30    2.30
   3  -1  -1   42.30    4.70
  -3  -1   1   38.60    3.20
   3  -1  -1   43.10    4.10
  -3  -1   1   38.90    3.40
  -3  -1   1   37.50    4.50
  -3   1   1   39.80    4.10
  -3   1   1   39.70    3.40
  -3   1   1   35.40    3.20
   3   1  -1   44.20    4.10
   3   1  -1   44.60    4.70
  -2  -1   1   16.10    2.60
   2  -1  -1   17.30    2.60
  -2  -1   1   14.10    2.10
  -2  -1   1   15.30    3.00
   2   1  -1   14.90    2.30
  -2   1   1   19.00    2.10
  -2   1   1   17.50    2.70
   2   1  -1   15.80    2.50
  -2   1   1   18.20    3.00
  -2   1   1   20.00    3.10
  -1  -1   1  440.36   20.00
  -1  -1   1  458.45   19.80
   1  -1  -1  463.25   19.80
  -1  -1   1  470.25   20.20
  -1   1   1  466.65   19.90
   1   1  -1  468.75   20.00
   0  -1   1  386.56   17.70
   0  -1  -1  438.16   18.00
   0  -1   1  415.46   17.90
   0  -1  -1  432.16   17.90
   0  -1  -1  433.76   18.00
   0   1   1  436.86   18.00
   0   1  -1  395.36   17.70
   0   1   1  442.26   17.80
   0   1  -1  428.96   17.90
   0   1   1  417.86   18.00
   0   1   1  423.56   17.90
   0   1  -1  434.16   18.00
  -1  -1  -1  333.07   14.00
   1  -1   1  313.97   14.50
  -1  -1  -1  360.06   14.30
   1  -1   1  299.17   14.00
  -1  -1  -1  319.07   14.00
   1   1   1  332.77   13.90
  -1   1  -1  329.27   13.80
  -1   1  -1  292.07   13.90
  -1   1  -1  304.77   14.50
   1   1   1  339.67   14.90
   2  -1   1  283.57   12.90
  -2  -1  -1  265.07   12.50
   2  -1   1  280.67   13.40
  -2  -1  -1  278.27   12.80
   2   1   1  278.57   12.50
  -2   1  -1  289.47   12.50
   2   1   1  261.17   13.40
  -2   1  -1  279.47   12.50
   2   1   1  281.77   13.90
  -2   1  -1  273.07   13.40
   3  -1   1  182.28    9.40
   3  -1   1  155.18   10.30
  -3  -1  -1  175.18    8.80
   3  -1   1  172.08    9.70
  -3  -1  -1  186.68    9.50
   3   1   1  170.88   10.40
  -3   1  -1  171.68    8.70
   3   1   1  181.58    8.90
  -3   1  -1  179.88    9.20
   3   1   1  172.78    9.80
   4  -1   1    9.70    3.00
   4  -1   1   23.40    3.90
  -4  -1  -1   12.00    2.50
  -4  -1  -1   14.90    4.10
   4  -1   1   18.00    3.40
  -4   1  -1   21.20    4.00
   4   1   1   10.90    3.20
   4   1   1   22.30    3.30
   4   1   1   33.40    5.40
  -4   1  -1   23.80    3.20
   5  -1   1   30.40    5.50
  -5  -1  -1   27.40    4.30
   5  -1   1   19.00    3.60
   5  -1   1   17.70    3.80
  -5  -1  -1   35.10    5.70
   5   1   1   17.60    3.60
   5   1   1   27.10    3.70
   5   1   1   35.30    5.80
  -5   1  -1   27.60    4.40
  -5   1  -1   24.20    4.90
   5  -2  -1  152.48   10.30
   5  -2  -1  155.88    9.70
  -5  -2   1  156.48    8.40
  -5  -2   1  152.68   10.60
  -5   2   1  153.78    9.50
   5   2  -1  156.18    9.90
  -5   2   1  144.59    8.60
  -4  -2   1   27.30    3.30
  -4  -2   1   25.50    3.40
   4  -2  -1   29.80    4.30
  -4  -2   1   29.20    4.80
   4  -2  -1   32.40    5.00
   4   2  -1   30.80    4.80
  -4   2   1   26.20    3.40
  -4   2   1   25.50    4.10
   4   2  -1   27.10    4.40
  -4   2   1   22.50    3.50
   3  -2  -1  117.89    7.00
  -3  -2   1  114.19    7.60
  -3  -2   1  120.79    6.20
  -3  -2   1  115.89    6.00
   3   2  -1  107.79    7.00
  -3   2   1  118.39    6.30
  -3   2   1  119.79    6.10
   3   2  -1  101.09    7.40
  -3   2   1  111.09    7.10
  -3   2   1  120.19    6.70
  -2  -2   1   14.00    2.00
  -2  -2   1   12.80    2.10
   2  -2  -1   18.10    2.50
  -2  -2   1   12.00    3.50
  -2   2   1   17.50    2.80
  -2   2   1   15.40    2.30
  -2   2   1   14.00    2.20
  -2   2   1   14.50    1.80
   2   2  -1   10.50    2.50
  -1  -2   1   14.30    2.30
  -1  -2   1   13.50    1.50
   1  -2  -1   17.80    1.90
  -1  -2   1   13.60    2.10
   1  -2  -1   22.80    2.30
  -1  -2   1   14.40    2.50
   1  -2  -1   15.40    2.10
   1   2  -1   13.50    2.00
  -1   2   1   16.20    2.40
  -1   2   1   14.30    1.40
  -1   2   1   17.70    2.50
   0  -2  -1  140.69    6.20
   0  -2  -1  134.79    6.10
   0  -2   1  134.79    6.30
   0  -2   1  125.99    6.00
   0  -2  -1  137.39    6.60
   0  -2  -1  144.79    6.30
   0  -2   1  139.09    6.20
   0  -2   1  140.09    6.40
   0   2  -1  133.09    6.00
   0   2   1  145.09    6.60
   0   2   1  136.99    6.10
   0   2   1  142.89    6.20
   0   2   1  162.88    6.40
   0   2  -1  134.49    6.40
   0   2  -1  141.39    6.20
   0   2  -1  138.09    6.30
   1  -2   1    0.80    1.80
  -1  -2  -1   -0.20    1.00
   1  -2   1    1.20    1.60
  -1  -2  -1    1.70    1.30
  -1  -2  -1    2.00    1.60
   1  -2   1    0.80    0.70
  -1  -2  -1    1.00    2.20
  -1   2  -1    0.00    1.80
  -1   2  -1    1.10    0.70
   1   2   1    2.70    0.80
  -1   2  -1    1.10    1.10
   1   2   1    0.00    2.00
   2  -2   1  123.39    7.00
   2  -2   1  120.59    7.20
  -2  -2  -1  132.39    7.00
  -2  -2  -1  132.59    6.40
   2   2   1  124.49    6.20
   2   2   1  139.69    7.90
  -2   2  -1  122.69    7.40
  -2   2  -1  126.69    6.40
  -2   2  -1  122.59    6.20
   3  -2   1   26.40    4.00
  -3  -2  -1   29.00    3.20
   3  -2   1   30.40    4.50
  -3  -2  -1   37.90    4.30
  -3   2  -1   24.90    3.30
  -3   2  -1   24.90    3.00
   3   2   1   35.50    3.30
   3   2   1   22.70    3.80
   3   2   1   26.40    4.50
  -4  -2  -1   52.59    5.80
   4  -2   1   50.29    5.40
   4  -2   1   53.29    5.40
   4  -2   1   50.19    6.10
  -4  -2  -1   48.20    4.40
  -4   2  -1   49.00    5.00
   4   2   1   44.60    6.00
  -4   2  -1   47.60    4.50
   4   2   1   50.99    5.70
  -5  -2  -1    1.90    3.90
   5  -2   1   -0.20    2.60
   5  -2   1    4.30    3.20
  -5  -2  -1    3.20    2.30
   5  -2   1    2.60    3.00
  -5   2  -1    2.70    2.60
   5   2   1    6.90    3.90
   5   2   1    5.70    2.80
   5   2   1    1.60    2.70
  -5  -3   1   -2.20    1.90
   5  -3  -1    1.60    3.10
   5  -3  -1    1.40    2.40
  -5  -3   1   -0.60    4.00
  -5   3   1    1.20    2.30
   5   3  -1    2.60    2.50
   5   3  -1   -1.40    2.50
  -5   3   1    0.40    2.70
  -4  -3   1   -0.80    1.60
  -4  -3   1    1.00    1.70
   4  -3  -1   -1.50    2.00
  -4  -3   1   -1.50    3.10
  -4   3   1    1.50    1.90
  -4   3   1    3.20    2.40
   4   3  -1   -1.50    2.20
  -4   3   1    2.50    2.20
   4   3  -1   -1.80    2.00
  -3  -3   1   28.70    4.80
  -3  -3   1   26.10    2.70
   3  -3  -1   24.30    3.30
  -3  -3   1   21.90    2.60
   3   3  -1   22.70    3.70
   3   3  -1   12.50    2.80
  -3   3   1   23.90    2.80
  -3   3   1   19.90    3.30
  -3   3   1   24.20    3.10
   2  -3  -1    6.10    2.00
  -2  -3   1    4.20    1.40
  -2  -3   1    4.30    2.70
  -2  -3   1    2.00    1.20
  -2  -3   1    1.90    3.20
  -2   3   1    5.20    1.60
   2   3  -1    4.80    2.30
  -2   3   1    4.40    2.10
  -2   3   1    4.30    1.40
  -2   3   1    5.00    1.80
  -1  -3   1  359.06   16.20
   1  -3  -1  380.26   16.30
   1  -3  -1  378.36   16.40
  -1  -3   1  381.86   17.10
  -1  -3   1  396.06   16.80
  -1   3   1  376.66   16.50
   1   3  -1  389.96   16.80
  -1   3   1  377.26   16.40
   1   3  -1  362.76   16.20
  -1   3   1  369.16   16.50
   0  -3   1  776.02   33.20
   0  -3   1  790.02   33.20
   0  -3  -1  741.13   32.90
   0   3   1  837.72   33.40
   0   3  -1  785.62   33.10
   0   3   1  766.52   32.90
  -1  -3  -1  444.86   18.50
  -1  -3  -1  450.35   18.80
   1  -3   1  444.36   19.10
  -1  -3  -1  414.46   18.20
   1  -3   1  423.86   18.70
  -1  -3  -1  426.06   19.50
   1   3   1  427.96   19.50
  -1   3  -1  416.86   18.50
  -1   3  -1  444.36   18.10
  -1   3  -1  435.96   19.20
   1   3   1  418.96   18.10
   2  -3   1  351.86   16.00
  -2  -3  -1  343.97   15.60
   2  -3   1  325.27   15.50
  -2  -3  -1  331.57   16.40
  -2  -3  -1  360.46   15.10
   2  -3   1  309.57   14.40
  -2   3  -1  342.57   16.10
   2   3   1  353.06   16.60
  -2   3  -1  331.77   15.00
  -2   3  -1  337.87   14.80
   2   3   1  345.27   14.70
   3  -3   1   14.80    3.10
   3  -3   1   14.90    3.40
  -3  -3  -1   13.30    2.30
  -3  -3  -1   14.70    3.30
   3   3   1   10.40    2.80
  -3   3  -1   10.30    2.30
   3   3   1   13.00    2.00
  -3   3  -1    9.80    2.10
   3   3   1    7.90    2.70
  -3   3  -1    8.50    2.70
  -4  -3  -1    9.70    3.70
   4  -3   1   12.40    3.30
   4  -3   1    3.60    3.00
  -4  -3  -1    9.30    2.50
   4   3   1    6.40    2.90
   4   3   1    6.00    2.20
  -4   3  -1   10.10    2.90
   4   3   1    8.50    3.10
  -4   3  -1   10.80    2.70
  -5  -3  -1   -1.20    4.00
   5  -3   1    2.90    3.20
   5  -3   1    2.00    3.10
  -5  -3  -1    0.50    2.20
   5  -3   1    1.60    2.60
   5   3   1    7.20    3.40
   5   3   1   -3.50    2.70
   5   3   1    1.00    2.50
  -5   3  -1   -0.40    2.30
   5  -4  -1    1.20    2.50
  -5  -4   1   -2.20    4.00
   5  -4  -1    3.40    3.30
  -5  -4   1    0.00    2.20
   5   4  -1   -0.40    2.30
   5   4  -1    1.10    3.10
  -5   4   1    1.50    2.50
  -5   4   1    3.90    3.70
   4  -4  -1   63.49    5.50
  -4  -4   1   61.29    6.60
  -4  -4   1   56.29    4.30
  -4  -4   1   56.89    4.10
   4   4  -1   57.49    6.50
  -4   4   1   56.79    5.60
  -4   4   1   56.89    4.60
  -4   4   1   59.39    4.50
   4   4  -1   57.69    5.60
  -4   4   1   55.89    4.60
   3  -4  -1   82.99    5.50
  -3  -4   1   73.39    4.50
  -3  -4   1   79.29    6.40
  -3  -4   1   72.09    4.40
  -3   4   1   76.99    4.60
   3   4  -1   82.99    6.50
  -3   4   1   73.59    5.60
  -3   4   1   80.59    4.90
  -2  -4   1   82.59    4.60
   2  -4  -1   80.69    4.80
  -2  -4   1   85.99    4.40
  -2  -4   1   80.99    6.30
  -2   4   1   84.99    4.70
   2   4  -1   90.29    5.80
  -2   4   1   79.69    4.80
  -2   4   1   89.89    5.50
   1  -4  -1   95.29    4.70
   1  -4  -1   95.79    5.10
  -1  -4   1   92.79    6.10
  -1  -4   1   87.49    4.70
  -1  -4   1   95.69    5.70
   1   4  -1   96.09    4.80
  -1   4   1  101.59    5.10
  -1   4   1  101.89    5.40
   1   4  -1   97.39    5.70
  -1   4   1   98.19    4.60
   0  -4  -1 1927.71   82.19
   0  -4   1 2006.30   82.59
   1  -4   1   84.59    4.80
  -1  -4  -1   70.39    5.90
  -1  -4  -1   77.69    4.70
   1  -4   1   79.39    4.80
  -1   4  -1   79.89    4.10
   1   4   1   81.09    5.60
   1   4   1   78.79    3.50
  -1   4  -1   78.79    5.00
  -2  -4  -1  104.09    5.40
   2  -4   1   98.09    6.20
   2  -4   1  111.29    6.60
  -2  -4  -1  107.39    7.00
   2   4   1   99.99    5.00
  -2   4  -1   97.79    5.40
   2   4   1   97.39    4.70
   2   4   1  107.29    7.20
  -2   4  -1  100.59    6.50
   3  -4   1   35.10    4.10
  -3  -4  -1   50.49    4.90
   3  -4   1   45.10    5.90
  -3  -4  -1   44.90    3.40
  -3   4  -1   36.70    4.60
  -3   4  -1   45.50    3.30
  -3   4  -1   36.80    3.60
   3   4   1   40.00    5.20
  -4  -4  -1    4.20    3.60
  -4  -4  -1    3.70    2.10
   4  -4   1    7.00    3.00
   4  -4   1    2.00    2.80
  -4   4  -1    6.60    2.40
   4   4   1    2.30    1.90
  -4   4  -1    3.30    2.40
   4   4   1    4.70    3.00
   4   4   1    6.50    3.30
  -5  -4  -1    3.40    4.40
   5  -4   1    1.60    2.80
  -5  -4  -1    4.70    2.40
   5  -4   1    4.80    3.10
   5  -4   1    5.30    3.30
   5   4   1    6.00    3.30
   5   4   1    2.60    2.40
  -5   4  -1    1.60    2.60
  -5  -5   1  101.49    9.30
  -5  -5   1  119.79    6.70
   5  -5  -1  112.59    7.80
   5   5  -1  104.89    8.20
   5   5  -1  105.09    8.80
  -5   5   1  102.59    6.90
  -4  -5   1  101.69    5.70
  -4  -5   1   97.39    5.50
   4  -5  -1   92.39    6.80
  -4  -5   1   91.99    8.20
  -4   5   1   92.89    7.10
  -4   5   1   96.59    6.00
   4   5  -1   82.69    7.40
   4   5  -1  104.89    7.50
  -4   5   1   91.39    5.90
   3  -5  -1   28.40    3.70
  -3  -5   1   31.50    2.80
  -3  -5   1   35.80    5.20
   3  -5  -1   34.60    3.40
  -3  -5   1   36.10    4.70
  -3  -5   1   32.50    2.80
  -3   5   1   31.70    3.20
  -3   5   1   34.60    3.30
   3   5  -1   24.50    4.20
  -3   5   1   32.00    4.10
   2  -5  -1  519.15   22.10
   2  -5  -1  491.55   22.40
  -2  -5   1  495.65   23.00
  -2  -5   1  487.65   21.50
   2  -5  -1  504.85   21.50
  -2   5   1  488.15   22.40
   2   5  -1  491.75   22.80
  -2   5   1  507.05   21.80
   1  -5  -1  624.24   26.90
  -1  -5   1  624.74   27.50
  -1  -5   1  589.14   26.30
  -1  -5   1  613.24   27.20
   1  -5  -1  617.74   26.30
  -1   5   1  633.44   26.40
  -1   5   1  643.34   27.00
  -1   5   1  608.74   26.60
   1   5  -1  645.44   27.20
   0  -5   1   76.09    4.20
   0  -5   1   79.79    5.10
   0  -5   1   81.69    4.90
   0  -5  -1   84.39    4.30
   0  -5  -1   84.59    5.20
   0   5   1   82.69    4.10
   0   5  -1   76.69    4.00
   0   5   1   81.59    5.10
   0   5   1   75.79    3.90
   0   5  -1   76.69    4.80
   1  -5   1    0.90    1.50
  -1  -5  -1   -0.80    1.90
   1  -5   1    1.10    1.80
  -1  -5  -1   -4.00    2.10
   1   5   1   -0.90    2.00
  -1   5  -1    0.90    1.10
   1   5   1   -0.50    1.40
  -1   5  -1    0.00    1.80
  -2  -5  -1    6.40    1.40
  -2  -5  -1   15.50    3.00
  -2  -5  -1   12.70    3.50
   2  -5   1    8.60    2.50
   2  -5   1   10.60    2.40
   2   5   1    6.30    2.60
   2   5   1    8.30    1.30
  -2   5  -1   12.10    2.10
  -2   5  -1    9.70    2.80
   2   5   1    9.50    1.10
  -3  -5  -1   21.20    4.30
  -3  -5  -1   27.60    3.00
   3  -5   1   28.70    3.90
   3  -5   1   30.80    4.90
  -3  -5  -1   32.50    4.70
   3   5   1   31.90    2.40
  -3   5  -1   22.10    3.10
   3   5   1   31.20    5.00
  -3   5  -1   28.10    4.20
  -4  -5  -1   -2.50    3.30
  -4  -5  -1    0.60    1.90
   4  -5   1    3.80    3.10
   4  -5   1   -0.70    2.50
   4   5   1    2.20    3.30
  -4   5  -1    0.60    1.80
   4   5   1   -0.40    2.80
  -4   5  -1   -1.00    2.50
  -4   5  -1   -0.80    2.00
   4   5   1    1.70    1.70
   5  -5   1   28.70    4.90
  -5  -5  -1   22.60    3.40
   5  -5   1   18.70    4.60
   5  -5   1   22.50    4.00
  -5  -5  -1   21.10    6.00
   5   5   1   17.40    4.80
   5   5   1   21.20    3.00
  -5   5  -1   15.80    3.10
  -5  -6   1    5.90    4.70
   5  -6  -1    6.00    3.00
  -5  -6   1    2.00    2.10
  -5   6   1    5.90    2.60
   5   6  -1    2.70    2.80
   5   6  -1    5.60    3.30
   4  -6  -1   53.59    5.10
  -4  -6   1   53.39    4.00
  -4  -6   1   53.09    6.80
  -4  -6   1   54.89    3.80
   4  -6  -1   48.20    4.10
  -4   6   1   47.40    4.30
  -4   6   1   48.80    5.30
  -4   6   1   41.40    4.30
   4   6  -1   44.00    5.60
   3  -6  -1   31.30    3.70
  -3  -6   1   24.40    2.60
  -3  -6   1   31.60    4.70
   3  -6  -1   25.50    2.80
  -3  -6   1   23.40    2.60
  -3  -6   1   28.30    4.80
  -3   6   1   26.90    3.10
   3   6  -1   30.30    4.40
  -3   6   1   28.60    4.10
  -3   6   1   29.70    3.30
  -2  -6   1  167.78    9.40
   2  -6  -1  147.29    7.20
   2  -6  -1  172.28    8.30
   2  -6  -1  148.99    8.20
  -2  -6   1  177.38    9.40
  -2  -6   1  159.38    7.50
  -2   6   1  173.38    8.70
  -2   6   1  160.18    8.00
   2   6  -1  143.29    9.50
   1  -6  -1   14.10    1.70
  -1  -6   1   13.00    3.00
  -1  -6   1   15.60    1.90
   1  -6  -1   20.90    3.20
  -1  -6   1   19.60    3.10
  -1   6   1   15.50    2.00
  -1   6   1   14.00    1.90
   1   6  -1   17.10    2.00
  -1   6   1   17.30    2.50
   1   6  -1   15.20    2.90
   0  -6   1    3.10    1.50
   0  -6  -1   10.80    2.70
   0  -6   1    5.40    2.00
   0  -6  -1    6.70    1.70
   0  -6   1    6.20    2.30
   0   6   1    8.70    1.50
   0   6   1    7.50    2.50
   0   6  -1    7.70    2.30
   0   6  -1    7.50    1.50
   0   6   1    7.10    1.20
   1  -6   1  353.26   15.30
  -1  -6  -1  365.36   15.60
   1  -6   1  322.87   14.60
   1   6   1  347.77   16.20
  -1   6  -1  332.97   14.50
   1   6   1  346.97   15.10
  -1   6  -1  326.57   15.70
  -1   6  -1  343.67   14.90
   2  -6   1   58.79    4.90
   2  -6   1   59.19    4.60
  -2  -6  -1   55.09    3.60
  -2  -6  -1   56.89    5.60
  -2  -6  -1   54.79    4.90
  -2   6  -1   57.69    3.70
   2   6   1   59.79    5.30
  -2   6  -1   61.29    4.90
   3  -6   1   31.30    4.60
  -3  -6  -1   34.90    5.10
   3  -6   1   31.60    4.00
  -3  -6  -1   36.60    3.10
  -3  -6  -1   33.00    4.90
   3   6   1   33.70    4.90
   3   6   1   35.30    2.30
  -3   6  -1   32.30    4.50
  -3   6  -1   38.00    3.70
   4  -6   1   19.40    3.40
   4  -6   1   22.80    4.10
  -4  -6  -1   22.40    5.00
  -4  -6  -1   24.10    3.10
  -4   6  -1   26.40    4.50
  -4   6  -1   24.80    3.30
   4   6   1   21.30    2.60
   4   6   1   24.90    4.90
   4   6   1   26.50    5.00
  -5  -6  -1    6.60    2.50
   5  -6   1   14.90    3.80
  -5  -6  -1    8.00    4.90
   5  -6   1    7.60    3.30
  -5   6  -1    5.90    2.80
   5   6   1    4.50    2.20
   5   6   1    5.30    3.60
   5  -7  -1  146.59   10.30
  -5  -7   1  122.49   10.40
  -5  -7   1  123.29    7.20
   5  -7  -1  125.59    8.40
  -5   7   1  132.59    7.80
   5   7  -1  106.09    9.10
   5   7  -1  122.29    9.30
  -5   7   1  130.19    9.10
   4  -7  -1   20.00    3.70
  -4  -7   1   24.90    5.10
  -4  -7   1   18.90    3.00
  -4  -7   1   17.60    2.60
   4   7  -1   16.30    3.80
  -4   7   1   13.40    2.40
  -4   7   1    9.50    2.90
  -3  -7   1    1.20    3.10
   3  -7  -1    2.00    2.10
  -3  -7   1   -0.10    2.70
   3  -7  -1    1.70    1.00
  -3  -7   1    1.40    1.30
  -3   7   1    2.80    2.00
   3   7  -1    2.70    2.60
  -3   7   1    2.70    1.60
  -3   7   1    0.60    2.10
  -2  -7   1  114.39    5.70
   2  -7  -1  116.69    6.70
  -2  -7   1  126.29    7.90
   2  -7  -1  117.39    5.40
  -2  -7   1   99.49    7.80
  -2   7   1  111.09    7.00
  -2   7   1  128.59    6.80
  -2   7   1  121.99    6.30
  -1  -7   1   25.40    3.80
   1  -7  -1   24.50    2.10
  -1  -7   1   24.10    2.00
  -1   7   1   19.60    2.50
   1   7  -1   22.50    3.30
  -1   7   1   22.30    2.40
  -1   7   1   20.70    3.20
   1   7  -1   24.50    2.60
   0  -7   1  402.36   18.30
   0  -7   1  377.46   17.40
   0  -7   1  412.26   18.10
   0  -7  -1  425.46   17.70
   0   7  -1  386.96   17.40
   0   7   1  414.86   17.50
   0   7  -1  387.96   18.10
   0   7   1  411.56   18.30
   0   7   1  407.76   17.30
  -1  -7  -1   38.50    4.60
   1  -7   1   32.80    2.50
   1  -7   1   36.40    3.50
  -1  -7  -1   42.80    4.00
   1  -7   1   37.70    3.60
   1   7   1   42.10    4.50
  -1   7  -1   38.70    2.20
  -1   7  -1   34.40    3.70
   1   7   1   37.60    3.20
  -1   7  -1   36.80    2.80
  -2  -7  -1   72.29    6.20
  -2  -7  -1   68.79    5.40
   2  -7   1   68.29    4.90
   2  -7   1   68.89    5.30
  -2   7  -1   62.79    5.20
   2   7   1   65.29    5.70
  -2   7  -1   59.69    4.20
   2   7   1   71.09    4.50
   3  -7   1    4.50    2.50
  -3  -7  -1    4.60    2.80
  -3  -7  -1    5.10    1.60
  -3  -7  -1    7.70    3.30
   3  -7   1   13.10    3.10
   3   7   1    8.40    1.20
  -3   7  -1    4.40    2.10
  -3   7  -1    1.60    2.50
   3   7   1    2.80    2.80
  -4  -7  -1    2.00    1.80
  -4  -7  -1    0.30    3.70
   4  -7   1    2.70    3.00
  -4   7  -1    9.40    3.20
   4   7   1    1.20    2.60
  -4   7  -1    6.80    2.50
  -5  -7  -1  112.89    6.80
  -5  -7  -1  105.49    9.60
   5  -7   1  114.49    8.20
  -5   7  -1  111.39    7.40
  -5  -8   1    8.40    5.20
   5  -8  -1   14.90    3.90
   5   8  -1    9.50    3.60
   5   8  -1    6.00    3.80
  -5   8   1   13.00    3.00
  -5   8   1   11.80    3.30
   5   8  -1   20.60    4.80
   4  -8  -1   -1.30    2.30
  -4  -8   1   -0.50    1.40
  -4  -8   1    2.90    3.30
  -4  -8   1   -0.30    3.90
  -4   8   1    0.70    2.30
  -4   8   1   -0.50    2.50
   4   8  -1   -1.10    2.80
  -3  -8   1    3.10    1.30
   3  -8  -1    5.80    2.40
   3  -8  -1    4.40    1.00
  -3  -8   1    1.00    3.10
  -3  -8   1    7.20    3.10
  -3   8   1    1.40    1.50
   3   8  -1    3.10    2.50
  -3   8   1    5.90    2.40
  -3   8   1    2.20    2.10
   3   8  -1    1.80    2.70
  -2  -8   1    5.50    2.80
  -2  -8   1    9.50    3.40
   2  -8  -1    9.80    2.10
   2  -8  -1    8.60    2.00
  -2  -8   1    9.70    1.60
   2   8  -1    9.40    4.20
  -2   8   1   10.10    2.20
  -2   8   1    6.50    1.60
  -2   8   1    6.30    2.20
  -1  -8   1   64.79    5.30
   1  -8  -1   66.29    5.10
  -1  -8   1   62.39    5.50
   1  -8  -1   66.69    3.70
  -1  -8   1   64.49    3.50
  -1   8   1   68.19    5.00
  -1   8   1   65.69    4.10
  -1   8   1   67.79    4.00
   1   8  -1   62.29    4.00
   1   8  -1   65.99    5.20
   0  -8  -1  270.07   12.80
   0  -8  -1  267.07   11.80
   0  -8   1  251.97   11.50
   0  -8   1  256.87   12.60
   0  -8   1  257.67   12.30
   0   8   1  238.28   11.40
   0   8  -1  248.68   12.30
   0   8  -1  248.98   11.40
   0   8   1  268.57   12.50
   0   8   1  255.97   11.20
  -1  -8  -1   15.20    3.00
   1  -8   1   10.00    1.80
   1  -8   1    8.90    2.40
  -1  -8  -1   16.00    3.60
   1  -8   1   10.00    2.40
   1   8   1   13.40    2.30
   1   8   1    9.80    3.20
  -1   8  -1   10.30    1.70
  -1   8  -1   13.30    2.60
   2  -8   1  105.69    6.40
  -2  -8  -1   96.99    6.70
  -2  -8  -1   93.09    7.20
   2  -8   1  101.09    6.30
   2   8   1  101.39    7.00
   2   8   1   88.69    5.90
  -2   8  -1  107.49    5.50
  -2   8  -1  103.69    6.70
  -3  -8  -1   56.99    9.00
   3  -8   1   54.19    5.30
   3  -8   1   51.79    5.00
  -3  -8  -1   58.89    6.30
  -3   8  -1   49.40    5.40
   3   8   1   52.59    5.90
  -3   8  -1   50.89    4.20
  -4  -8  -1    4.70    4.00
   4  -8   1    2.10    2.90
   4  -8   1    5.20    2.60
  -4  -8  -1    6.20    2.10
  -4   8  -1    5.70    2.40
   4   8   1    5.50    1.70
   4   8   1   11.40    4.00
  -4   8  -1    1.40    2.50
  -5  -8  -1   19.70    5.60
   5  -8   1   28.90    4.80
  -5  -8  -1   31.10    3.90
  -5   8  -1   16.80    3.90
   5   8   1   12.40    3.90
   5   8   1   27.40    5.20
  -5   8  -1   16.50    3.20
  -5  -9   1    6.10    4.80
   5  -9  -1   20.30    5.90
   5  -9  -1   11.90    3.40
   5   9  -1    6.60    3.90
  -5   9   1    6.50    2.90
   5   9  -1   11.90    3.90
  -5   9   1    8.40    2.80
   4  -9  -1    9.10    3.30
  -4  -9   1   17.70    4.70
  -4  -9   1    3.80    4.20
   4   9  -1    6.60    3.60
  -4   9   1    2.80    2.80
  -4   9   1    8.40    2.70
   4   9  -1   11.70    3.40
   3  -9  -1    3.40    2.40
  -3  -9   1    1.40    3.00
  -3  -9   1    2.00    3.60
  -3  -9   1    2.00    1.20
  -3   9   1    2.50    1.80
   3   9  -1    5.00    2.70
  -3   9   1    1.70    2.00
  -3   9   1    1.60    2.50
   3   9  -1    3.10    2.30
   2  -9  -1   94.89    4.50
   2  -9  -1   82.89    5.80
  -2  -9   1   97.89    6.90
  -2  -9   1   85.29    7.00
  -2  -9   1   91.09    4.60
  -2   9   1   94.89    5.00
  -2   9   1   82.89    6.00
   2   9  -1   87.79    6.70
  -2   9   1   86.59    5.20
   1  -9  -1    0.60    1.40
  -1  -9   1   -2.10    1.10
  -1  -9   1   -1.10    2.60
   1  -9  -1    1.50    2.10
  -1  -9   1    0.40    2.40
  -1   9   1    1.40    1.40
  -1   9   1    1.50    1.50
   1   9  -1   -2.40    2.20
   1   9  -1    0.70    1.60
  -1   9   1    0.00    1.80
   0  -9   1  245.28   12.10
   0  -9  -1  250.07   12.30
   0  -9   1  243.38   11.00
   0  -9   1  247.48   11.90
   0  -9  -1  239.28   11.30
   0   9  -1  241.18   11.90
   0   9   1  225.88   11.00
   0   9   1  246.48   12.10
   0   9  -1  240.68   11.00
   1  -9   1  166.28    8.40
  -1  -9  -1  146.39    8.80
   1  -9   1  147.69    7.40
  -1  -9  -1  152.98    8.40
   1   9   1  140.69    8.70
  -1   9  -1  155.58    7.30
   1   9   1  148.39    7.60
  -1   9  -1  154.98    8.30
   2  -9   1  125.99    7.30
  -2  -9  -1  114.09    8.60
   2  -9   1  138.49    7.50
  -2  -9  -1  127.49    7.80
  -2   9  -1  126.69    6.60
   2   9   1  113.89    8.00
  -2   9  -1  125.69    7.80
   2   9   1  120.69    6.80
   3  -9   1  117.19    7.50
  -3  -9  -1  125.19    8.90
   3  -9   1  118.19    7.60
  -3  -9  -1  122.59    8.40
  -3   9  -1  112.39    7.90
  -3   9  -1  119.59    6.70
   3   9   1  120.89    7.30
   3   9   1  111.89    8.30
   4  -9   1   62.99    6.00
   4  -9   1   68.79    6.20
  -4  -9  -1   62.39    7.20
  -4  -9  -1   56.79    7.40
  -4   9  -1   66.29    6.50
  -4   9  -1   69.39    5.30
   4   9   1   74.89    7.30
  -5 -10   1   16.40    5.80
   5 -10  -1   11.70    5.40
   5 -10  -1   17.00    3.70
   5  10  -1   14.80    4.20
   5  10  -1   27.00    4.50
  -5  10   1   12.70    3.40
  -5  10   1   15.60    3.20
  -4 -10   1    3.60    3.50
   4 -10  -1    1.20    2.50
  -4 -10   1   -0.30    4.10
  -4  10   1    0.90    2.40
  -4  10   1    5.10    3.20
   4  10  -1    3.00    2.90
   4  10  -1   -3.20    2.30
  -3 -10   1   64.09    7.00
   3 -10  -1   75.69    5.80
  -3 -10   1   68.79    7.00
  -3 -10   1   67.69    3.80
   3  10  -1   72.79    6.40
  -3  10   1   58.19    5.80
  -3  10   1   82.99    5.10
   3  10  -1   75.79    5.30
  -2 -10   1   26.90    2.40
  -2 -10   1   30.00    5.10
   2 -10  -1   30.30    2.30
   2 -10  -1   33.40    4.00
  -2 -10   1   28.90    4.80
   2  10  -1   24.70    4.20
  -2  10   1   29.70    3.20
  -2  10   1   34.30    3.10
  -2  10   1   30.20    4.00
   1 -10  -1   -0.10    2.20
   1 -10  -1    2.90    1.60
  -1 -10   1    1.40    2.50
  -1 -10   1    1.50    1.40
  -1 -10   1    1.50    2.90
   1  10  -1    4.50    1.90
  -1  10   1    4.20    2.20
  -1  10   1    3.20    1.80
   1  10  -1   -1.20    2.30
   0 -10   1  287.77   13.90
   0 -10  -1  270.67   13.90
   0 -10  -1  268.87   13.00
   0 -10   1  268.87   12.60
   0 -10  -1  282.07   13.10
   0 -10   1  278.27   13.50
   0  10  -1  290.87   13.60
   0  10   1  286.37   12.60
   0  10  -1  285.97   12.60
   0  10   1  281.27   13.70
   1 -10   1   69.59    5.30
   1 -10   1   69.29    4.70
  -1 -10  -1   74.69    6.00
   1 -10   1   66.59    4.50
  -1 -10  -1   78.59    5.50
  -1 -10  -1   65.59    3.40
  -1 -10  -1   73.49    3.30
  -1  10  -1   65.99    4.10
   1  10   1   71.19    5.80
  -1  10  -1   71.49    5.30
   1  10   1   76.69    4.70
   2 -10   1   28.90    4.00
  -2 -10  -1   20.10    4.20
   2 -10   1   28.80    3.70
  -2 -10  -1   28.70    4.20
   2  10   1   21.50    3.50
  -2  10  -1   27.60    3.20
  -2  10  -1   22.80    3.50
   2  10   1   19.20    3.50
  -3 -10  -1   28.40    5.10
   3 -10   1   17.90    3.40
  -3 -10  -1   14.80    3.90
   3 -10   1   20.80    3.40
  -3  10  -1   14.40    3.40
   3  10   1   12.60    3.50
   3  10   1   18.50    3.30
  -3  10  -1   15.30    2.60
   4 -10   1   85.39    6.60
   4 -10   1   91.89    7.00
  -4 -10  -1   78.79    7.90
  -4 -10  -1   73.79    8.20
  -4  10  -1   82.59    7.30
   4  10   1   92.69    6.80
  -4  10  -1   84.29    6.20
   4  10   1   81.39    7.60
  -4 -11   1   40.90    7.00
   4 -11  -1   48.80    5.30
  -4 -11   1   45.80    6.80
   4 -11  -1   45.60    7.50
   4  11  -1   42.60    5.10
  -4  11   1   36.20    5.50
  -4  11   1   46.80    4.70
   4  11  -1   48.20    6.10
   3 -11  -1    2.50    2.70
  -3 -11   1   -0.60    3.30
  -3 -11   1    0.20    3.40
  -3  11   1   -1.60    2.10
   3  11  -1    0.10    2.50
   3  11  -1    1.60    2.30
  -3  11   1   -1.70    2.30
   2 -11  -1  206.78   10.40
   2 -11  -1  181.18    8.60
  -2 -11   1  181.08   11.00
  -2 -11   1  196.28   11.00
  -2 -11   1  182.28    8.50
   2  11  -1  173.48   10.60
  -2  11   1  188.88    9.00
  -2  11   1  187.98   10.30
   1 -11  -1   34.30    3.20
  -1 -11   1   36.30    2.90
  -1 -11   1   41.30    5.00
   1 -11  -1   38.00    4.40
  -1 -11   1   37.40    5.00
  -1  11   1   47.40    3.50
   1  11  -1   38.50    4.50
   1  11  -1   38.40    3.50
  -1  11   1   38.50    4.20
   0 -11  -1   80.99    5.50
   0 -11   1   95.39    6.60
   0 -11   1   94.19    6.20
   0 -11   1   96.09    5.20
   0 -11  -1   94.19    6.60
   0 -11  -1   99.89    5.90
   0  11  -1   88.39    6.10
   0  11   1   81.79    6.20
   0  11   1   85.59    5.00
   0  11  -1   90.99    5.10
   1 -11   1   21.40    3.10
  -1 -11  -1   17.60    1.60
  -1 -11  -1   22.20    3.70
  -1 -11  -1   15.80    1.60
   1 -11   1   20.50    3.10
  -1 -11  -1   23.00    4.10
   1 -11   1   22.40    3.30
  -1  11  -1   18.60    2.50
  -1  11  -1   20.20    3.30
   1  11   1   16.10    3.40
   1  11   1   21.20    3.00
  -2 -11  -1   -0.80    2.80
  -2 -11  -1   -2.10    2.80
   2 -11   1   -0.50    1.80
   2 -11   1    0.70    2.30
   2  11   1    3.50    2.20
   2  11   1   -4.30    2.30
  -2  11  -1   -1.20    2.00
  -2  11  -1    1.10    1.70
   3 -11   1   35.90    4.80
   3 -11   1   32.30    4.60
  -3 -11  -1   33.90    5.80
  -3 -11  -1   40.40    6.20
   3  11   1   22.00    4.20
  -3  11  -1   40.90    3.80
   3  11   1   30.50    4.30
  -3  11  -1   32.30    4.80
  -4 -11  -1   -2.50    3.00
   4 -11   1    1.40    2.70
  -4 -11  -1   -2.40    3.80
   4 -11   1   -1.40    2.60
   4  11   1   -3.50    3.00
  -4  11  -1   -1.10    2.20
  -4  11  -1    2.80    2.90
   4  11   1    3.10    3.20
   4 -12  -1    4.30    5.00
  -4 -12   1    1.90    3.80
   4 -12  -1    1.20    2.80
  -4 -12   1    2.00    4.10
   4  12  -1    2.00    3.10
  -4  12   1    0.90    2.60
  -4  12   1    1.90    2.30
   4  12  -1    3.70    3.10
   3 -12  -1    3.20    2.50
  -3 -12   1    0.40    3.40
   3 -12  -1    3.30    4.60
  -3 -12   1   -1.40    2.90
  -3  12   1   -0.90    2.00
   3  12  -1    0.90    2.60
   3  12  -1    0.00    2.10
  -3  12   1   -1.10    2.60
  -2 -12   1    6.80    3.30
  -2 -12   1    5.20    1.50
  -2 -12   1    3.20    2.90
   2 -12  -1    1.50    2.40
   2 -12  -1    5.90    1.70
  -2  12   1    3.20    1.70
   2  12  -1    3.20    2.80
  -2  12   1    2.70    2.50
  -1 -12   1    4.20    2.60
  -1 -12   1    5.10    3.10
   1 -12  -1    6.80    3.40
  -1 -12   1    4.60    1.60
   1 -12  -1    4.20    2.40
   1 -12  -1    3.70    2.00
   1  12  -1    7.60    2.90
  -1  12   1    2.30    2.40
   1  12  -1    4.50    2.00
  -1  12   1    6.80    2.20
   0 -12   1   67.19    4.50
   0 -12  -1   72.49    6.10
   0 -12  -1   64.19    4.60
   0 -12  -1   74.49    5.20
   0 -12   1   83.09    6.20
   0 -12   1   79.99    5.80
   0  12   1   71.79    4.50
   0  12   1   65.59    5.70
   0  12  -1   77.19    5.60
   0  12  -1   65.09    4.50
  -1 -12  -1    0.50    2.40
   1 -12   1    0.70    1.90
  -1 -12  -1    1.20    2.70
   1 -12   1    1.10    2.00
  -1 -12  -1    0.30    1.00
   1 -12   1    0.70    2.60
  -1  12  -1    0.20    1.90
   1  12   1    0.20    2.00
  -1  12  -1    2.10    1.40
   1  12   1   -3.10    2.30
  -2 -12  -1   -1.20    2.80
  -2 -12  -1    0.40    3.10
   2 -12   1    0.20    2.30
   2 -12   1    0.50    2.30
  -2  12  -1    1.40    1.60
   2  12   1    2.60    2.60
   2  12   1   -0.60    2.10
  -2  12  -1    0.50    2.30
   3 -12   1    2.30    2.50
   3 -12   1    7.40    3.20
  -3 -12  -1    0.70    3.60
  -3 -12  -1    6.30    3.50
   3  12   1    5.10    2.70
  -3  12  -1    4.80    2.30
   3  12   1   10.10    3.60
  -3  12  -1    8.20    3.40
   4 -12   1    4.10    2.80
  -4 -12  -1    0.00    2.90
   4 -12   1   -5.90    2.30
   4  12   1    1.50    3.20
  -4  12  -1    3.80    2.90
   4  12   1    7.10    3.70
  -4  12  -1   -1.20    2.80
   4 -13  -1   -0.20    4.60
   4 -13  -1    4.50    3.20
  -4 -13   1    3.70    3.80
  -4 -13   1    5.00    4.40
   4  13  -1   -0.20    2.80
  -4  13   1    7.80    3.40
  -4  13   1    6.80    2.80
   4  13  -1    7.70    3.00
   3 -13  -1   19.10    5.10
   3 -13  -1   20.00    3.60
  -3 -13   1   15.70    4.50
  -3 -13   1   16.60    4.70
  -3  13   1   26.40    4.50
   3  13  -1   10.40    3.50
   3  13  -1   17.10    3.30
  -3  13   1   26.40    3.80
  -2 -13   1   72.59    7.00
  -2 -13   1   76.59    7.10
   2 -13  -1   77.79    7.40
   2 -13  -1   76.39    4.70
  -2 -13   1   75.49    4.30
   2 -13  -1   78.99    6.40
  -2  13   1   85.09    5.00
  -2  13   1   80.29    7.20
   2  13  -1   67.19    6.30
  -1 -13   1   18.50    4.00
  -1 -13   1   19.00    4.20
   1 -13  -1   21.40    3.30
   1 -13  -1   15.70    3.80
   1 -13  -1   28.00    4.30
  -1 -13   1   18.50    2.60
   1  13  -1   22.50    3.40
  -1  13   1   18.20    3.40
   1  13  -1   23.00    4.00
  -1  13   1   26.10    3.30
   0 -13  -1  365.86   18.70
   0 -13   1  396.36   18.50
   0 -13   1  395.46   17.10
   0 -13  -1  377.46   18.00
   0 -13   1  390.96   18.80
   0  13   1  393.66   17.20
   0  13   1  364.76   18.30
   0  13  -1  389.26   18.30
   0  13  -1  392.06   17.10
  -1 -13  -1  101.59    7.50
  -1 -13  -1   98.69    7.00
   1 -13   1   97.39    6.30
   1 -13   1  105.39    6.10
   1 -13   1   97.09    6.90
  -1 -13  -1  103.19    4.80
   1  13   1   96.59    6.00
   1  13   1   88.49    7.00
  -1  13  -1   93.59    6.60
  -1  13  -1   98.99    5.50
  -2 -13  -1  131.79    9.40
   2 -13   1  134.99    8.00
  -2 -13  -1  124.69    8.80
   2 -13   1  146.59    8.60
  -2  13  -1  144.59    7.20
  -2  13  -1  130.69    8.40
   2  13   1  115.29    8.70
   2  13   1  139.89    7.80
   3 -13   1   45.60    5.10
   3 -13   1   45.30    5.20
  -3 -13  -1   35.80    6.30
  -3 -13  -1   40.40    6.40
   3  13   1   43.00    4.70
  -3  13  -1   41.10    4.50
  -3  13  -1   33.60    5.10
   3  13   1   43.60    5.80
  -4 -13  -1    7.10    4.40
   4 -13   1   13.40    3.30
  -4 -13  -1   15.60    4.80
   4 -13   1    8.10    3.20
  -4  13  -1    3.80    3.00
   4  13   1   14.90    4.30
  -4  13  -1    4.40    2.70
   4  13   1   13.00    3.80
  -4 -14   1   -2.00    3.70
  -4 -14   1    2.00    4.10
   4 -14  -1    0.90    2.90
   4 -14  -1    0.10    4.50
   4  14  -1    0.30    2.90
   4  14  -1    2.60    3.20
  -4  14   1    2.20    2.80
  -4  14   1    2.30    2.60
  -3 -14   1   54.89    7.20
   3 -14  -1   59.59    6.00
  -3 -14   1   72.49    7.70
  -3  14   1   52.69    5.90
  -3  14   1   68.29    5.00
   3  14  -1   50.49    6.10
   3  14  -1   52.99    5.20
   2 -14  -1   17.90    3.90
  -2 -14   1   23.40    3.40
   2 -14  -1   20.30    4.70
  -2 -14   1   15.50    4.30
  -2 -14   1   29.70    5.10
   2 -14  -1   19.20    2.80
  -2  14   1   14.80    2.40
   2  14  -1   14.10    3.60
   1 -14  -1   75.19    6.00
   1 -14  -1   63.39    5.30
  -1 -14   1   67.99    6.60
  -1 -14   1   77.39    4.40
   1 -14  -1   69.09    6.30
  -1 -14   1   71.39    8.80
  -1  14   1   72.79    6.00
   1  14  -1   77.09    5.00
   1  14  -1   65.59    6.20
  -1  14   1   71.89    4.80
   0 -14  -1  114.29    6.40
   0 -14   1  122.59    8.00
   0 -14   1  125.79    8.60
   0 -14  -1  120.29    8.30
   0 -14  -1  114.79    7.50
   0 -14   1  122.69    6.60
   0  14   1  107.39    7.80
   0  14   1  123.69    6.70
   0  14  -1  127.29    7.90
   0  14  -1  125.19    6.50
   1 -14   1   74.19    6.50
  -1 -14  -1   80.39    7.00
  -1 -14  -1   71.29    6.20
   1 -14   1   88.39    5.90
   1 -14   1   81.19    5.50
  -1 -14  -1   79.19    4.20
   1  14   1   80.99    5.50
   1  14   1   67.99    6.50
  -1  14  -1   76.99    5.90
  -1  14  -1   79.29    4.90
  -2 -14  -1   83.59    7.80
   2 -14   1   93.19    6.20
  -2 -14  -1   77.39    7.30
   2 -14   1   97.59    6.90
  -2  14  -1   89.79    6.70
   2  14   1   77.49    5.90
  -2  14  -1   87.59    5.40
   2  14   1   75.89    7.00
   3 -14   1   45.90    5.50
  -3 -14  -1   33.20    5.60
   3 -14   1   42.40    5.30
  -3 -14  -1   65.89    7.00
  -3  14  -1   49.90    5.90
   3  14   1   45.20    6.00
   3  14   1   43.20    5.00
  -3  14  -1   47.20    4.80
   4 -14   1   17.30    3.70
  -4 -14  -1   14.40    3.90
  -4 -14  -1   11.80    4.90
   4 -14   1   15.70    3.70
   4  14   1   31.10    4.70
   4  14   1   20.90    4.80
  -4  14  -1   15.40    4.00
  -4  14  -1   23.30    3.70
   4 -15  -1    4.80    4.40
  -4 -15   1    1.10    4.50
   4 -15  -1    4.10    3.00
  -4 -15   1    1.30    3.90
   4  15  -1    3.00    3.40
  -4  15   1    4.60    2.60
   4  15  -1    6.00    3.40
  -4  15   1    3.50    3.10
  -3 -15   1   27.30    6.10
   3 -15  -1   25.30    5.20
  -3 -15   1   13.10    4.40
   3 -15  -1   28.90    4.60
   3  15  -1   17.40    3.20
  -3  15   1   31.50    5.10
  -3  15   1   27.50    4.20
   2 -15  -1    4.30    2.40
   2 -15  -1    9.10    4.10
  -2 -15   1    5.70    3.50
  -2 -15   1    6.30    1.60
  -2 -15   1    6.50    3.90
   2 -15  -1   11.30    4.00
   2  15  -1    2.30    3.00
  -2  15   1   10.70    2.50
  -1 -15   1  133.09    9.20
  -1 -15   1  167.58   14.30
   1 -15  -1  133.09    7.80
  -1 -15   1  146.29    6.90
   1 -15  -1  133.59    8.10
   1 -15  -1  143.89    9.10
   1  15  -1  118.09    7.10
   1  15  -1  104.19    8.40
  -1  15   1  128.29    8.40
  -1  15   1  131.79    7.20
   0 -15   1    4.00    3.20
   0 -15   1    2.10    2.30
   0 -15  -1   -2.90    2.60
   0 -15   1    1.20    3.50
   0 -15  -1    0.90    1.90
   0 -15  -1   -1.00    3.00
   0  15  -1   -0.90    2.80
   0  15  -1    0.00    2.10
   0  15   1    3.10    2.90
   0  15   1    5.80    2.50
   1 -15   1   22.00    3.90
   1 -15   1   29.40    4.20
  -1 -15  -1   28.20    4.80
  -1 -15  -1   30.10    3.10
  -1 -15  -1   30.60    4.80
   1 -15   1   28.60    4.40
   1  15   1   26.20    4.10
   1  15   1   33.20    5.00
  -1  15  -1   25.40    4.20
  -1  15  -1   23.70    3.20
  -2 -15  -1   15.00    4.30
   2 -15   1   12.70    3.40
   2 -15   1    9.80    2.90
  -2 -15  -1   22.50    4.50
   2  15   1    5.00    3.40
  -2  15  -1   11.00    2.40
  -2  15  -1   11.10    2.90
   2  15   1   13.20    2.80
  -3 -15  -1   12.50    4.70
   3 -15   1    6.10    3.00
   3 -15   1    7.40    3.30
  -3 -15  -1    8.20    4.00
  -3  15  -1    1.50    2.80
  -3  15  -1    6.30    2.50
   3  15   1    6.50    3.60
   3  15   1    6.20    3.10
  -3 -16   1  108.69    9.80
  -3 -16   1   81.79    8.60
   3 -16  -1   98.89    8.40
   3 -16  -1  101.99    7.90
  -3  16   1   98.49    6.80
   3  16  -1  120.19    6.90
   3  16  -1   89.09    7.80
  -3  16   1   89.19    7.70
  -2 -16   1   48.70    6.70
   2 -16  -1   48.80    6.20
   2 -16  -1   47.10    4.40
   2 -16  -1   47.30    6.90
  -2 -16   1   39.70    6.50
   2  16  -1   60.39    8.90
   2  16  -1   40.70    5.70
  -2  16   1   42.70    4.00
  -1 -16   1    9.90    2.20
   1 -16  -1    2.00    2.80
  -1 -16   1    8.00    4.00
  -1 -16   1    6.80    4.00
   1 -16  -1    4.70    2.90
   1 -16  -1    6.40    3.50
   1  16  -1    4.90    2.20
   1  16  -1    3.80    3.80
  -1  16   1    4.60    2.60
  -1  16   1    4.80    2.20
   0 -16  -1    3.70    3.40
   0 -16  -1    1.60    2.10
   0 -16   1    2.10    3.40
   0 -16  -1    3.80    3.10
   0 -16   1   -1.30    3.30
   0 -16   1    5.00    2.70
   0  16   1    4.10    3.20
   0  16   1    4.80    2.60
   0  16  -1    6.50    3.10
   0  16  -1    4.30    2.20
   1 -16   1   -0.40    2.90
  -1 -16  -1    1.60    3.30
  -1 -16  -1    1.00    1.70
   1 -16   1   -1.00    2.40
   1 -16   1    3.80    3.10
  -1 -16  -1    1.60    3.30
   1  16   1    0.50    2.30
   1  16   1   -2.40    3.00
  -1  16  -1    0.00    2.10
  -1  16  -1    2.00    1.80
   2 -16   1   36.40    5.40
  -2 -16  -1   17.40    4.20
  -2 -16  -1   21.40    4.70
   2 -16   1   28.00    4.50
   2  16   1   15.10    3.70
  -2  16  -1   29.20    3.70
   2  16   1   27.50    4.30
  -2  16  -1   30.00    4.60
   3 -16   1   23.10    3.90
  -3 -16  -1   21.00    5.10
   3 -16   1   23.20    4.30
  -3 -16  -1   20.90    5.10
  -3  16  -1   26.70    4.10
  -3  16  -1   12.60    3.40
   3  16   1   26.40    3.90
   3  16   1   14.10    4.10
  -3 -17   1   11.60    4.40
  -3 -17   1   15.40    4.60
   3 -17  -1   36.90    5.50
  -3  17   1   24.40    4.40
  -3  17   1   17.30    3.90
   3  17  -1   22.00    3.40
   2 -17  -1  123.29    7.90
  -2 -17   1   92.69    9.10
   2 -17  -1  146.79    8.40
   2  17  -1  112.19    8.70
  -2  17   1  127.89    7.00
   1 -17  -1   -0.40    2.70
  -1 -17   1    1.90    3.50
  -1 -17   1    1.40    3.60
   1 -17  -1    4.10    3.40
  -1 -17   1    1.50    2.10
  -1  17   1    1.20    2.40
   1  17  -1    4.60    2.60
  -1  17   1    1.70    2.60
   1  17  -1   -0.30    4.00
   0 -17  -1  208.08   12.30
   0 -17  -1  209.68   10.10
   0 -17   1  204.08   10.30
   0 -17  -1  204.68   11.50
   0 -17   1  210.18   12.50
   0  17  -1  198.68   11.40
   0  17   1  187.68   11.50
   0  17  -1  219.88   10.30
   1 -17   1    1.00    2.60
   1 -17   1    2.90    3.30
  -1 -17  -1    4.00    3.80
  -1 -17  -1    0.70    3.40
   1 -17   1    2.60    3.10
  -1  17  -1    2.80    2.60
   1  17   1   -4.60    2.80
   1  17   1   -1.80    2.30
  -1  17  -1    0.00    2.00
  -2 -17  -1   19.10    5.00
   2 -17   1   15.20    3.70
   2 -17   1    7.40    2.90
   2  17   1   10.90    3.00
   2  17   1   11.90    3.80
  -2  17  -1    9.10    3.40
  -2  17  -1   14.40    2.90
   3 -17   1    3.10    3.30
  -3 -17  -1    2.30    3.70
  -3 -17  -1    0.60    4.00
   3 -17   1    0.80    2.90
  -3  17  -1    4.50    3.30
   3  17   1   -0.90    2.60
   3  17   1   -1.20    2.90
  -3  17  -1    2.00    2.60
   3 -18  -1   23.70    4.90
   3 -18  -1   12.90    3.80
  -3 -18   1   22.60    5.70
  -3 -18   1   13.40    5.00
  -3  18   1    9.70    3.30
   3  18  -1   23.00    3.80
  -3  18   1    7.70    3.10
   3  18  -1   13.20    4.20
   2 -18  -1   27.40    7.10
  -2 -18   1   15.60    4.90
   2 -18  -1   15.70    3.80
   2 -18  -1   15.90    3.90
  -2 -18   1    6.10    3.60
  -2  18   1    9.90    3.10
   2  18  -1   12.40    3.90
  -2  18   1   14.00    2.70
  -1 -18   1   14.20    4.70
  -1 -18   1   11.30    4.40
   1 -18  -1   14.20    3.70
   1 -18  -1   16.10    3.30
  -1 -18   1   17.20    2.70
   1 -18  -1   24.90    5.00
   1  18  -1   12.10    3.30
   1  18  -1   15.80    3.90
  -1  18   1   10.50    3.00
  -1  18   1   14.70    2.70
   0 -18   1    1.60    2.70
   0 -18  -1    7.70    3.80
   0 -18   1   -0.20    3.70
   0 -18  -1    0.90    2.20
   0 -18   1    4.00    3.70
   0 -18  -1    1.30    3.30
   0  18  -1    5.20    3.00
   0  18  -1    3.30    2.50
   0  18   1    7.10    2.90
   0  18   1    3.00    3.20
  -1 -18  -1    2.10    3.70
   1 -18   1    2.90    2.70
   1 -18   1    0.80    3.40
  -1 -18  -1    0.40    3.40
   1 -18   1    1.00    3.30
  -1  18  -1   -0.70    2.30
  -1  18  -1    1.80    1.80
   1  18   1    0.10    2.40
   1  18   1    0.70    2.90
  -2 -18  -1    5.30    3.70
   2 -18   1    0.30    3.10
   2 -18   1    0.70    3.20
  -2 -18  -1    6.00    4.20
  -2  18  -1    1.10    2.60
   2  18   1   -1.20    2.60
  -2  18  -1    0.50    2.00
   2  18   1   -1.30    2.70
  -2 -19   1   42.10    6.60
   2 -19  -1   26.40    5.20
   2 -19  -1   19.70    4.00
  -2 -19   1   28.90    6.20
   2  19  -1   33.40    5.60
  -2  19   1   40.50    4.10
  -2  19   1   29.90    4.60
   1 -19  -1   28.50    4.60
  -1 -19   1   20.70    5.20
   1 -19  -1   20.70    4.30
  -1 -19   1   25.30    5.70
   1 -19  -1   20.00    4.30
   1  19  -1   14.50    3.00
  -1  19   1   25.20    4.00
   1  19  -1   12.10    3.50
   0 -19  -1    1.00    2.20
   0 -19   1   -5.40    3.40
   0 -19  -1   -1.70    3.30
   0 -19  -1   -0.10    3.40
   0 -19   1    2.80    2.90
   0 -19   1    3.10    3.60
   0  19  -1   -1.00    2.50
   0  19   1   -1.00    2.90
   0  19  -1    0.90    2.50
   0  19   1   -0.80    2.40
   1 -19   1   -0.40    3.10
  -1 -19  -1    1.10    3.70
   1 -19   1   -0.40    3.50
   1 -19   1    1.10    3.60
  -1 -19  -1   -1.40    3.40
   1  19   1   -0.20    2.80
   1  19   1   -0.10    2.30
  -1  19  -1    0.10    2.00
  -1  19  -1    2.80    2.50
  -2 -19  -1   14.80    4.50
   2 -19   1   10.40    4.20
   2 -19   1    9.30    3.30
  -2 -19  -1    5.40    4.00
  -2  19  -1    6.10    2.60
   2  19   1   14.90    3.30
   2  19   1    2.70    3.40
  -2  19  -1    5.10    2.80
   1 -20  -1   -3.10    3.30
   1 -20  -1   -1.80    3.40
  -1 -20   1   -0.50    4.00
   1 -20  -1   -3.10    2.80
  -1 -20   1    7.70    4.40
  -1  20   1    0.40    2.50
   1  20  -1    4.60    2.80
   1  20  -1   -1.80    3.00
  -1  20   1    0.50    2.20
   0 -20  -1    3.40    2.80
   0 -20   1    7.50    4.40
   0 -20   1   -4.00    3.60
   0 -20   1    2.80    3.00
   0 -20  -1   -0.70    3.80
   0 -20  -1    2.10    4.20
   0  20  -1    0.70    2.70
   0  20   1    2.70    3.10
   0  20   1    0.90    2.30
   0  20  -1   -1.70    2.60
  -1 -20  -1    5.90    4.10
  -1 -20  -1   -0.10    3.50
   1 -20   1   -0.80    3.20
   1 -20   1    3.80    6.30
   1 -20   1   -3.70    2.80
   1  20   1    0.90    3.10
   1  20   1   -1.20    2.70
  -1  20  -1    1.00    2.10
  -1  20  -1   -2.80    2.20
   0 -21  -1    7.50    2.80
   0 -21  -1    8.80    4.30
   0 -21   1    8.80    4.90
   0 -21   1    8.60    3.40
   0  21  -1    4.30    3.20
  -5   0   2    1.40    2.40
   5   0  -2   -1.80    2.20
   5   0  -2   -3.60    1.80
  -5   0   2    0.90    3.10
  -5   0   2    1.20    2.10
  -4   0   2  185.58    9.60
   4   0  -2  180.58   10.20
  -4   0   2  178.28    9.20
   4   0  -2  190.48   11.00
  -4   0   2  188.98   10.70
   3   0  -2   -0.70    1.50
  -3   0   2   -0.40    1.70
  -3   0   2    0.40    1.30
  -3   0   2    0.80    2.20
  -2   0   2  214.08   10.10
   2   0  -2  216.58    9.90
  -2   0   2  200.88    9.20
   2   0  -2  200.38   10.10
  -2   0   2  203.08   10.20
   1   0  -2   -0.40    0.40
   1   0  -2    0.50    0.80
  -1   0   2    0.70    0.50
  -1   0   2   -0.80    1.90
  -1   0   2    0.00    1.70
   1   0  -2   -2.30    0.90
   0   0   2 1386.96   60.89
   0   0   2 1514.35   60.89
   1   0   2    0.30    1.90
   1   0   2   -1.10    1.70
   1   0   2    0.50    2.00
  -1   0  -2   -0.30    1.20
  -1   0  -2   -0.80    1.20
   2   0   2  362.36   15.90
   2   0   2  359.26   17.40
   2   0   2  348.47   17.00
  -2   0  -2  368.26   16.00
  -2   0  -2  358.66   16.00
   3   0   2    1.20    1.90
  -3   0  -2    1.90    2.00
   3   0   2    0.50    1.90
   3   0   2    0.70    2.00
  -3   0  -2   -2.20    1.90
  -4   0  -2    3.20    2.30
   4   0   2    2.30    2.50
   4   0   2    2.30    2.40
   4   0   2    1.60    2.40
  -4   0  -2   -0.30    2.90
   5   0   2    2.80    2.90
  -5   0  -2    2.10    2.40
  -5   0  -2   -2.80    3.60
   5   0   2   -2.00    2.60
   5  -1  -2    4.60    2.70
  -5  -1   2   -1.10    2.10
  -5  -1   2    2.40    2.30
  -5  -1   2   -0.50    3.40
   5  -1  -2    1.70    2.40
   5   1  -2    1.00    2.40
  -5   1   2    2.50    2.20
   5   1  -2    3.00    2.40
  -5   1   2    4.00    2.40
  -5   1   2    1.00    3.20
  -4  -1   2  494.15   22.30
   4  -1  -2  514.35   23.50
   4  -1  -2  549.05   24.30
  -4  -1   2  518.45   24.00
  -4  -1   2  496.65   22.60
  -4   1   2  524.95   23.50
   4   1  -2  502.25   23.60
   4   1  -2  439.06   23.80
  -4   1   2  510.05   22.70
  -4   1   2  501.35   22.40
   3  -1  -2   34.90    4.20
  -3  -1   2   35.80    3.70
  -3  -1   2   35.10    2.80
  -3  -1   2   37.00    4.50
  -3   1   2   35.50    3.70
  -3   1   2   39.50    4.00
   3   1  -2   37.40    4.00
  -3   1   2   36.70    3.00
  -2  -1   2  650.63   29.00
   2  -1  -2  660.03   28.90
  -2  -1   2  653.03   29.50
  -2  -1   2  629.44   28.30
  -2   1   2  675.13   29.00
   2   1  -2  756.82   29.40
   2   1  -2  654.63   29.00
  -2   1   2  651.63   28.90
  -2   1   2  692.53   29.20
   1  -1  -2  102.09    4.80
  -1  -1   2  104.39    5.00
   1  -1  -2  106.49    6.30
  -1  -1   2  109.19    5.60
  -1  -1   2  104.99    5.80
   1  -1  -2  103.69    4.60
  -1   1   2  104.79    4.90
   1   1  -2  105.99    5.00
  -1   1   2  104.59    4.60
   1   1  -2  101.59    4.60
  -1   1   2  112.89    5.80
   0  -1  -2  191.98    8.30
   0  -1  -2  182.08    8.80
   0  -1   2  181.88    8.20
   0  -1  -2  200.18    8.90
   0  -1   2  201.48    8.60
   0  -1   2  187.28    8.60
   0   1   2  217.08    8.70
   0   1   2  189.18    8.80
   0   1   2  182.38    8.30
   0   1  -2  202.58    9.30
   0   1  -2  187.98    8.60
   0   1  -2  189.58    8.30
  -1  -1  -2   53.69    3.50
  -1  -1  -2   54.49    3.40
   1  -1   2   55.99    3.60
   1  -1   2   52.09    4.00
   1   1   2   57.09    4.20
   1   1   2   55.79    4.70
  -1   1  -2   56.09    4.30
  -1   1  -2   59.19    3.20
  -1   1  -2   57.19    3.30
   1   1   2   53.59    3.30
  -2  -1  -2   41.20    3.40
   2  -1   2   38.90    3.40
   2  -1   2   40.00    4.20
  -2  -1  -2   42.60    3.30
  -2   1  -2   38.00    3.20
   2   1   2   37.00    4.00
  -2   1  -2   39.60    3.00
   2   1   2   35.80    4.50
   2   1   2   44.80    3.10
   3  -1   2   46.50    5.30
   3  -1   2   44.70    4.60
  -3  -1  -2   36.70    4.10
  -3  -1  -2   38.70    3.70
   3  -1   2   39.20    3.90
   3   1   2   37.30    4.70
  -3   1  -2   42.30    3.70
   3   1   2   38.70    3.60
   3   1   2   39.70    5.20
  -4  -1  -2    6.20    3.40
   4  -1   2   19.00    4.40
  -4  -1  -2   11.60    2.60
   4  -1   2   10.10    2.80
   4  -1   2   13.60    3.70
  -4   1  -2   10.20    3.30
   4   1   2   12.10    4.20
   4   1   2    9.40    3.10
   4   1   2   13.40    3.70
  -4   1  -2   15.40    3.00
   5  -1   2   20.90    4.60
   5  -1   2   16.00    4.80
  -5  -1  -2   12.60    3.10
  -5  -1  -2   14.50    4.70
   5  -1   2   10.90    3.60
   5   1   2    8.30    3.30
  -5   1  -2    9.20    2.70
   5   1   2   12.80    3.20
   5   1   2    9.10    3.40
  -5   1  -2    6.80    4.50
  -5  -2   2   59.09    7.00
  -5  -2   2   62.59    5.00
   5  -2  -2   65.79    6.40
   5  -2  -2   63.79    5.90
  -5   2   2   68.59    5.40
   5   2  -2   64.49    6.60
  -5   2   2   69.99    5.50
   5   2  -2   66.49    6.00
  -5   2   2   59.69    5.90
  -4  -2   2  113.59    6.40
  -4  -2   2  112.79    6.80
   4  -2  -2  114.89    7.40
  -4  -2   2  116.39    8.50
   4  -2  -2  113.09    8.00
   4   2  -2  148.59    8.60
   4   2  -2  123.99    7.60
  -4   2   2  107.79    6.90
  -4   2   2  109.69    6.50
  -3  -2   2    3.30    2.80
   3  -2  -2    0.60    1.50
  -3  -2   2    1.30    1.80
  -3  -2   2    2.10    1.40
  -3   2   2    1.80    1.80
   3   2  -2   -0.70    1.50
  -3   2   2    1.40    1.30
  -3   2   2   -0.20    1.90
  -2  -2   2  486.95   21.50
  -2  -2   2  498.55   21.00
   2  -2  -2  494.95   21.50
  -2  -2   2  487.85   22.30
  -2   2   2  475.85   20.90
  -2   2   2  496.15   21.70
   2   2  -2  490.15   22.00
  -2   2   2  491.95   21.60
  -1  -2   2  139.39    7.20
  -1  -2   2  123.49    6.50
   1  -2  -2  134.89    7.10
   1  -2  -2  131.39    6.20
  -1  -2   2  128.29    6.60
   1   2  -2  147.09    6.40
   1   2  -2  133.89    5.90
  -1   2   2  134.69    6.80
  -1   2   2  128.09    5.80
  -1   2   2  137.39    6.20
   0  -2  -2  589.24   24.10
   0  -2   2  580.74   23.60
   0  -2   2  511.05   23.30
   0  -2   2  552.14   23.90
   0  -2  -2  567.74   23.80
   0   2  -2  534.65   23.30
   0   2   2  576.14   23.70
   0   2   2  536.85   23.40
   0   2  -2  548.25   23.70
   0   2   2  555.84   23.90
   0   2  -2  576.34   24.20
   0   2   2  535.95   23.40
   1  -2   2   39.70    3.60
   1  -2   2   38.30    3.20
  -1  -2  -2   39.40    2.90
  -1  -2  -2   41.70    4.20
  -1  -2  -2   39.50    2.70
  -1   2  -2   36.50    2.70
  -1   2  -2   42.10    3.80
   1   2   2   37.90    2.50
  -1   2  -2   37.90    2.50
   1   2   2   43.20    4.00
  -2  -2  -2    0.70    1.50
   2  -2   2    1.70    1.90
   2  -2   2   -0.10    2.00
  -2  -2  -2   -0.30    1.90
   2   2   2    0.70    2.20
  -2   2  -2    0.70    1.40
   2   2   2    1.00    1.90
  -2   2  -2    2.90    2.10
   2   2   2    0.80    1.40
  -2   2  -2   -0.70    1.30
  -3  -2  -2    7.90    2.00
   3  -2   2   10.00    2.50
   3   2   2    6.40    2.60
   3   2   2    4.40    2.20
   4  -2   2   14.50    3.60
  -4  -2  -2   21.80    3.10
  -4  -2  -2   16.10    5.00
   4  -2   2   19.40    3.80
   4  -2   2   18.60    3.30
  -4   2  -2   17.20    3.60
  -4   2  -2   19.70    3.00
   4   2   2   16.50    3.70
   4   2   2   24.30    4.50
   4   2   2   24.10    3.70
  -5  -2  -2    0.30    2.30
  -5  -2  -2    1.80    3.90
   5  -2   2    1.30    2.90
   5  -2   2    0.00    2.80
   5  -2   2   -4.90    2.00
   5   2   2    7.10    2.90
   5   2   2    0.30    2.50
   5   2   2    1.60    2.60
  -5   2  -2    1.90    2.60
  -5  -3   2   16.30    4.90
   5  -3  -2   10.70    3.30
  -5  -3   2   15.30    2.80
  -5  -3   2    7.00    2.50
   5  -3  -2   18.10    3.90
  -5   3   2   17.30    3.10
   5   3  -2   19.80    3.90
  -5   3   2   12.20    2.80
   5   3  -2   17.80    4.80
  -5   3   2   15.20    3.60
  -4  -3   2    1.40    3.40
  -4  -3   2   -0.80    1.60
  -4  -3   2    1.70    1.90
   4  -3  -2    1.00    2.10
  -4   3   2    1.60    2.00
   4   3  -2    0.00    1.80
   4   3  -2    1.00    2.10
  -4   3   2    1.20    1.70
  -4   3   2   -1.20    2.10
  -3  -3   2  186.28   11.00
   3  -3  -2  201.08   10.00
  -3  -3   2  200.68    9.70
  -3  -3   2  183.08    9.10
   3   3  -2  187.58   10.20
  -3   3   2  189.08    9.20
  -3   3   2  208.38   10.30
  -3   3   2  224.78    9.90
   3   3  -2  165.38   10.50
  -3   3   2  207.18    9.70
  -2  -3   2   35.70    4.00
  -2  -3   2   45.00    3.70
  -2  -3   2   43.00    4.80
  -2  -3   2   40.90    2.60
   2  -3  -2   42.50    3.20
   2  -3  -2   46.90    4.00
  -2   3   2   39.00    3.70
  -2   3   2   43.20    3.50
   2   3  -2   35.40    3.50
  -2   3   2   40.40    2.70
  -1  -3   2  316.27   15.00
  -1  -3   2  321.87   14.40
   1  -3  -2  331.17   14.30
   1  -3  -2  325.87   14.60
  -1  -3   2  312.27   14.30
  -1   3   2  318.17   13.80
  -1   3   2  325.67   14.20
  -1   3   2  322.87   14.60
   1   3  -2  354.26   14.40
   1   3  -2  314.97   13.80
   0  -3  -2  211.28    9.20
   0  -3   2  201.78    9.20
   0  -3   2  206.98    9.10
   0  -3  -2  206.98    9.60
   0   3   2  196.88    8.80
   0   3   2  203.98    9.50
   0   3  -2  195.58    9.20
   0   3  -2  187.48    8.70
   1  -3   2    7.30    2.00
   1  -3   2    9.60    1.90
  -1  -3  -2    9.20    1.80
  -1  -3  -2    7.80    2.50
  -1  -3  -2    7.00    1.40
   1   3   2    7.10    2.40
  -1   3  -2    9.10    1.40
  -1   3  -2    7.70    1.40
  -1   3  -2    9.60    2.10
   1   3   2    8.40    1.20
   2  -3   2   26.00    3.30
  -2  -3  -2   26.00    3.40
   2  -3   2   26.80    3.60
  -2  -3  -2   25.60    2.70
   2   3   2   25.30    4.10
  -2   3  -2   29.30    2.90
  -2   3  -2   31.10    3.90
   2   3   2   26.80    2.40
  -2   3  -2   26.10    2.20
   3  -3   2    7.70    2.80
   3  -3   2    8.90    2.50
  -3  -3  -2    7.00    2.00
  -3  -3  -2    8.20    2.80
  -3   3  -2    8.20    2.10
   3   3   2   11.30    3.50
  -3   3  -2    6.50    2.70
  -3   3  -2    9.50    2.10
   3   3   2    8.10    2.60
   3   3   2   10.00    1.80
   4  -3   2    5.20    2.90
   4  -3   2    2.90    2.70
  -4  -3  -2    2.90    3.50
   4  -3   2    6.70    3.30
  -4  -3  -2    1.20    2.20
  -4   3  -2    1.10    2.60
  -4   3  -2    1.50    2.30
   4   3   2    3.50    3.10
   4   3   2    4.80    2.20
   4   3   2    6.20    2.90
  -5  -3  -2   15.70    5.30
  -5  -3  -2   33.30    4.60
   5  -3   2   33.40    5.00
   5  -3   2   36.00    5.60
  -5   3  -2   34.20    5.00
   5   3   2   46.10    6.20
   5   3   2   30.10    4.30
  -5  -4   2   -1.20    4.10
  -5  -4   2    1.90    2.20
   5  -4  -2    1.90    2.40
   5  -4  -2    5.00    3.20
  -5  -4   2    5.10    2.10
   5   4  -2    0.60    2.10
  -5   4   2    3.60    2.50
   5   4  -2    0.60    2.70
  -5   4   2    5.10    2.50
  -4  -4   2   72.89    7.20
  -4  -4   2   67.89    4.50
   4  -4  -2   70.79    5.60
  -4  -4   2   75.89    4.90
  -4   4   2   64.89    5.10
   4   4  -2   67.39    5.70
  -4   4   2   69.49    5.80
   4   4  -2   66.39    6.30
  -4   4   2   63.39    4.80
  -3  -4   2   38.00    3.50
  -3  -4   2   29.80    2.70
  -3  -4   2   33.60    5.10
   3  -4  -2   24.70    3.40
   3  -4  -2   24.50    3.90
   3   4  -2   33.30    3.80
  -3   4   2   31.60    2.90
  -3   4   2   30.60    3.70
  -3   4   2   29.10    3.40
  -2  -4   2  627.14   27.90
   2  -4  -2  619.54   28.00
  -2  -4   2  599.84   29.00
   2  -4  -2  639.94   28.20
  -2  -4   2  731.63   28.70
  -2   4   2  644.94   28.30
   2   4  -2  663.13   28.50
  -2   4   2  645.84   28.10
   1  -4  -2  190.28    9.20
  -1  -4   2  206.48    9.40
  -1  -4   2  201.08    9.00
  -1  -4   2  202.48   10.10
   1   4  -2  205.18    9.30
  -1   4   2  185.08    8.60
  -1   4   2  192.08    9.10
   1   4  -2  192.18    8.60
  -1   4   2  190.28    9.40
   0  -4   2  846.72   36.40
   0  -4  -2  881.21   36.30
   0  -4  -2  850.21   36.70
   0   4  -2  883.11   36.40
   0   4   2  875.01   36.60
   0   4  -2  790.52   35.90
   0   4   2  859.71   36.20
  -1  -4  -2   72.29    4.10
   1  -4   2   80.29    4.90
   1  -4   2   81.99    4.60
  -1  -4  -2   82.69    4.60
  -1  -4  -2   74.49    5.70
  -1   4  -2   80.99    5.10
   1   4   2   75.19    3.80
  -1   4  -2   78.69    4.10
  -1   4  -2   73.49    4.00
   1   4   2   82.09    5.60
   2  -4   2   42.40    3.70
   2  -4   2   34.40    2.70
   2  -4   2   38.30    4.10
  -2  -4  -2   44.20    3.10
  -2  -4  -2   50.29    5.00
  -2  -4  -2   46.90    4.00
   2   4   2   45.00    2.70
   2   4   2   48.00    5.20
  -2   4  -2   41.20    4.40
  -2   4  -2   35.60    3.30
   3  -4   2  107.19    6.70
  -3  -4  -2  104.89    7.20
  -3  -4  -2  111.99    6.20
   3  -4   2  105.59    7.20
   3   4   2  114.09    7.70
   3   4   2  122.39    8.30
   3   4   2  116.19    5.70
  -3   4  -2  120.89    6.50
  -3   4  -2  108.89    7.70
  -3   4  -2  119.89    6.10
  -4  -4  -2   -1.90    1.80
   4  -4   2    0.20    2.60
   4  -4   2    0.10    2.50
  -4  -4  -2   -1.80    3.20
  -4   4  -2   -0.80    2.10
   4   4   2    2.10    2.50
   4   4   2    0.50    2.00
   4   4   2    4.10    3.00
   5  -4   2    4.50    3.30
  -5  -4  -2   -0.80    4.00
  -5  -4  -2    1.50    2.40
   5  -4   2    0.70    2.90
   5  -4   2    0.10    3.10
  -5   4  -2    2.20    2.50
   5   4   2    2.50    2.80
   5   4   2    2.60    2.50
   5   4   2    1.40    3.20
   5  -5  -2    2.50    3.70
  -5  -5   2    6.70    2.40
  -5  -5   2    6.50    2.10
  -5  -5   2   19.40    5.70
   5  -5  -2    9.30    3.20
  -5   5   2    5.40    2.50
  -5   5   2    3.50    2.30
   5   5  -2    7.40    3.20
   5   5  -2    0.50    2.10
  -4  -5   2  198.88   10.10
  -4  -5   2  219.78   12.60
  -4  -5   2  205.18    9.80
   4  -5  -2  200.78   10.90
   4  -5  -2  189.08   10.90
  -4   5   2  210.98   11.50
   4   5  -2  216.88   11.60
  -4   5   2  207.68   10.10
   4   5  -2  182.98   11.50
  -4   5   2  205.28   10.50
   3  -5  -2    3.00    1.80
  -3  -5   2   -0.70    2.30
   3  -5  -2    0.20    2.00
  -3  -5   2   -0.40    1.70
  -3  -5   2    1.30    3.10
  -3  -5   2    0.50    1.20
  -3   5   2    2.30    1.60
   3   5  -2    3.40    2.00
  -3   5   2    0.20    1.90
  -3   5   2    2.50    1.90
  -2  -5   2   34.40    4.40
  -2  -5   2   28.70    3.20
  -2  -5   2   28.70    4.80
   2  -5  -2   28.00    3.20
  -2   5   2   31.50    2.50
   2   5  -2   35.10    3.60
  -2   5   2   32.10    3.40
  -2   5   2   29.90    3.40
   2   5  -2   31.20    2.80
   1  -5  -2   78.39    4.60
  -1  -5   2   92.89    6.00
  -1  -5   2   89.39    5.30
  -1  -5   2   86.29    4.60
   1  -5  -2   84.79    5.00
  -1   5   2   81.99    4.90
   1   5  -2   83.29    4.20
  -1   5   2   81.79    4.20
   1   5  -2   88.09    5.10
  -1   5   2   82.59    5.00
   0  -5  -2 1388.96   60.29
   0  -5   2 1382.26   60.09
   0   5  -2 1422.96   59.99
   0   5   2 1417.46   59.69
   0   5   2 1489.75   60.39
  -1  -5  -2  205.08    8.60
   1  -5   2  194.18    9.20
  -1  -5  -2  210.68    9.50
  -1   5  -2  200.38    9.90
  -1   5  -2  189.78    9.00
   1   5   2  187.98    8.60
  -1   5  -2  193.48    9.00
   1   5   2  189.08   10.20
   2  -5   2   77.69    5.40
   2  -5   2   82.29    5.10
  -2  -5  -2   84.79    6.40
  -2  -5  -2   80.99    4.50
   2   5   2   77.59    6.10
  -2   5  -2   80.29    4.70
  -2   5  -2   77.39    3.80
   2   5   2   69.99    3.90
  -2   5  -2   79.59    5.70
  -3  -5  -2    7.10    1.80
  -3  -5  -2    1.50    2.70
   3  -5   2    9.60    2.80
  -3   5  -2    4.90    2.80
   3   5   2    6.50    1.50
  -3   5  -2    6.90    2.20
  -3   5  -2    3.30    1.60
   3   5   2    7.30    3.00
   4  -5   2    7.60    2.70
  -4  -5  -2    6.00    2.40
   4  -5   2    9.10    3.00
  -4  -5  -2    6.50    3.80
   4   5   2    8.10    2.10
  -4   5  -2    8.00    2.60
   4   5   2    4.70    3.70
   4   5   2    4.70    2.90
  -4   5  -2    2.30    2.90
   5  -5   2   19.40    3.70
  -5  -5  -2   20.90    3.30
  -5  -5  -2   12.00    4.80
   5  -5   2   27.30    4.60
   5   5   2   24.60    4.10
  -5   5  -2   23.00    3.90
   5   5   2   27.50    5.10
  -5  -6   2  118.29    6.80
  -5  -6   2  103.59    6.40
  -5  -6   2  109.99    9.70
   5  -6  -2  100.29    7.50
   5   6  -2  113.19    8.10
  -5   6   2  113.29    7.10
   5   6  -2  111.09    8.50
  -5   6   2   95.99    6.90
  -4  -6   2    7.20    4.10
   4  -6  -2    7.90    3.00
   4  -6  -2   16.30    3.00
  -4  -6   2   13.20    2.60
  -4  -6   2   11.40    2.10
  -4   6   2   16.10    3.40
  -4   6   2   17.10    2.70
   4   6  -2   13.70    3.60
  -4   6   2   19.10    3.10
  -3  -6   2  190.78   10.60
  -3  -6   2  175.18    9.10
   3  -6  -2  179.68    9.50
  -3  -6   2  185.38   10.90
  -3   6   2  179.28    9.80
  -3   6   2  177.58    9.20
  -3   6   2  179.88    8.80
   3   6  -2  193.68   10.30
   2  -6  -2   17.70    2.40
  -2  -6   2   15.60    2.30
   2  -6  -2   21.40    2.80
  -2  -6   2   13.20    3.50
  -2   6   2   15.00    2.50
   2   6  -2   12.70    2.00
  -2   6   2   15.20    2.60
  -2   6   2   14.50    2.10
   2   6  -2   12.90    2.60
  -1  -6   2   52.59    3.70
   1  -6  -2   61.79    3.60
  -1  -6   2   57.79    5.20
   1  -6  -2   63.59    4.30
  -1  -6   2   53.49    4.60
  -1   6   2   65.19    4.00
  -1   6   2   63.69    4.30
  -1   6   2   62.59    3.40
   1   6  -2   61.39    4.40
   1   6  -2   53.99    3.40
   0  -6   2 2539.55  104.79
   0   6   2 2406.46  104.19
   0   6  -2 2522.05  104.79
   1  -6   2    2.50    2.00
  -1  -6  -2    0.60    0.90
  -1  -6  -2    0.10    1.80
   1  -6   2    2.20    1.60
  -1  -6  -2   -1.10    2.60
  -1   6  -2   -1.70    2.00
  -1   6  -2    1.00    1.50
   1   6   2   -0.60    1.00
   1   6   2   -0.70    2.30
  -1   6  -2    0.70    1.40
   1   6   2    2.40    1.80
  -2  -6  -2  319.67   14.40
   2  -6   2  333.17   15.30
  -2  -6  -2  314.17   16.10
   2  -6   2  337.17   14.80
  -2  -6  -2  309.07   15.10
  -2   6  -2  329.17   15.60
   2   6   2  301.97   13.70
   2   6   2  322.77   16.00
  -2   6  -2  325.27   14.50
  -3  -6  -2    0.00    1.40
   3  -6   2   -1.20    2.00
  -3  -6  -2   -0.60    2.90
   3  -6   2    0.00    2.00
  -3  -6  -2   -2.30    2.60
   3   6   2   -1.60    2.50
  -3   6  -2    1.90    1.70
  -3   6  -2   -1.10    2.10
   3   6   2    1.30    1.30
   4  -6   2   -0.20    2.60
   4  -6   2    6.00    3.10
  -4  -6  -2    5.10    2.10
  -4  -6  -2    3.40    3.60
  -4   6  -2    4.60    2.40
  -4   6  -2    2.20    3.00
   4   6   2    4.30    3.50
   4   6   2    2.40    1.80
   4   6   2    4.70    3.00
   5  -6   2    1.50    2.50
  -5  -6  -2   -7.90    5.20
  -5  -6  -2    1.30    2.00
   5  -6   2    0.00    3.30
   5  -6   2    0.00    2.80
   5   6   2    5.00    3.10
  -5   6  -2   -0.60    2.40
   5   6   2    0.20    2.70
  -5  -7   2    7.10    2.40
   5  -7  -2    8.00    3.10
  -5  -7   2    4.60    4.70
  -5   7   2    3.60    2.30
   5   7  -2    5.20    3.00
   5   7  -2    8.80    3.80
  -5   7   2    6.10    2.80
  -5   7   2    5.40    2.70
  -4  -7   2   59.89    7.40
  -4  -7   2   65.39    4.90
   4  -7  -2   72.99    5.10
   4  -7  -2   71.79    5.90
  -4   7   2   68.99    6.00
  -4   7   2   69.49    5.30
   4   7  -2   72.29    6.60
  -4   7   2   72.09    5.10
  -3  -7   2    0.70    2.70
  -3  -7   2   -0.60    3.10
   3  -7  -2    2.40    2.00
  -3  -7   2    0.70    1.80
   3  -7  -2    1.20    1.60
  -3   7   2    4.50    2.10
   3   7  -2    0.40    2.00
  -3   7   2    1.40    2.20
   3   7  -2    2.40    2.40
  -3   7   2    2.40    1.70
  -2  -7   2   37.50    5.20
   2  -7  -2   31.40    3.40
   2  -7  -2   34.30    2.80
  -2  -7   2   32.00    4.50
  -2  -7   2   32.40    3.10
  -2   7   2   32.70    3.60
   2   7  -2   40.10    4.10
   2   7  -2   31.30    2.90
  -2   7   2   30.80    2.60
  -2   7   2   32.90    3.50
  -1  -7   2    2.10    2.60
  -1  -7   2    4.60    1.60
  -1  -7   2    4.70    2.30
   1  -7  -2    6.10    1.70
  -1   7   2    8.30    1.60
   1   7  -2    4.20    1.40
  -1   7   2    3.90    1.80
  -1   7   2    7.40    2.40
   1   7  -2    3.10    2.10
   0  -7  -2  537.35   22.40
   0  -7   2  514.15   23.40
   0  -7   2  552.74   23.10
   0  -7   2  523.95   22.30
   0   7   2  534.85   23.10
   0   7   2  512.95   22.20
   0   7  -2  512.75   22.20
   0   7  -2  441.26   23.30
   1  -7   2  105.69    6.20
  -1  -7  -2  112.19    7.20
   1  -7   2   96.19    5.70
  -1  -7  -2  105.29    4.60
  -1  -7  -2  117.49    6.10
   1   7   2  113.49    6.90
  -1   7  -2   90.99    5.20
   1   7   2  104.09    5.70
   1   7   2  101.59    4.80
  -1   7  -2   94.49    6.20
  -2  -7  -2   36.60    4.90
   2  -7   2   40.50    4.10
  -2  -7  -2   51.19    4.70
   2  -7   2   42.30    4.00
  -2   7  -2   43.70    3.50
   2   7   2   43.80    5.20
  -2   7  -2   42.30    4.50
  -3  -7  -2   36.60    5.20
  -3  -7  -2   44.50    3.60
   3  -7   2   41.30    4.70
   3  -7   2   42.90    4.50
  -3  -7  -2   54.59    6.10
   3   7   2   41.70    2.50
  -3   7  -2   40.50    4.00
   3   7   2   42.80    5.50
  -3   7  -2   41.80    5.10
   4  -7   2   -1.20    2.50
   4  -7   2   -1.80    2.30
  -4  -7  -2   -0.30    3.50
  -4  -7  -2    0.80    1.90
   4   7   2    4.30    2.90
   4   7   2    0.90    3.00
   4   7   2   -0.10    1.80
  -4   7  -2    2.50    2.20
  -4   7  -2    0.00    2.40
  -5  -8   2   37.50    7.10
   5  -8  -2   31.40    4.80
   5   8  -2   45.10    7.50
  -5   8   2   34.90    5.30
  -5   8   2   25.70    4.10
  -5   8   2   35.20    4.60
   5   8  -2   16.30    6.50
  -4  -8   2    0.40    1.90
  -4  -8   2    3.50    4.00
   4  -8  -2    0.90    2.50
   4  -8  -2   -1.70    1.50
  -4  -8   2    0.00    3.30
  -4   8   2   -0.20    2.20
  -4   8   2    0.30    2.10
  -4   8   2    1.90    2.60
   4   8  -2   -0.60    2.40
   4   8  -2    3.00    2.90
  -3  -8   2    0.80    1.80
  -3  -8   2    0.90    3.40
   3  -8  -2   -1.10    1.30
  -3  -8   2    0.70    2.70
   3  -8  -2   -0.90    1.80
  -3   8   2    1.20    1.50
  -3   8   2   -0.30    1.80
  -3   8   2    0.90    2.10
   3   8  -2   -0.70    1.90
   3   8  -2    3.20    2.40
  -2  -8   2  248.18   12.20
   2  -8  -2  221.68   10.40
  -2  -8   2  246.28   12.80
   2  -8  -2  222.48   11.30
  -2  -8   2  223.88   10.60
   2   8  -2  221.38   10.70
  -2   8   2  236.58   10.50
  -2   8   2  227.58   11.00
  -2   8   2  235.38   11.50
   2   8  -2  217.28   11.60
  -1  -8   2  198.98   10.70
  -1  -8   2  194.38   10.90
   1  -8  -2  209.88    9.40
  -1  -8   2  205.88    9.30
   1  -8  -2  199.78   10.30
  -1   8   2  203.68    9.70
  -1   8   2  212.48   10.30
   1   8  -2  198.48    9.30
  -1   8   2  205.18    9.30
   1   8  -2  204.18   10.40
   0  -8   2 1239.08   54.49
   0  -8  -2 1289.27   55.69
   0  -8  -2 1310.37   54.69
   0  -8   2 1337.17   55.39
   0   8   2 1294.87   55.39
   0   8  -2 1293.57   54.49
   0   8   2 1279.87   54.49
  -1  -8  -2  257.07   12.00
  -1  -8  -2  243.58   10.70
   1  -8   2  233.98   12.10
   1  -8   2  254.87   11.70
  -1  -8  -2  274.47   13.30
   1   8   2  264.17   13.00
  -1   8  -2  252.17   11.40
   1   8   2  247.08   10.80
   1   8   2  260.57   11.70
  -1   8  -2  246.78   12.30
   2  -8   2  199.38   10.60
  -2  -8  -2  206.98   11.80
   2  -8   2  198.38   10.10
  -2  -8  -2  210.88   10.80
   2   8   2  198.38   10.20
   2   8   2  218.88   11.50
  -2   8  -2  208.38    9.80
  -2   8  -2  196.88   10.90
  -3  -8  -2   38.20    5.70
   3  -8   2   42.30    4.50
   3  -8   2   37.30    4.50
  -3  -8  -2   35.40    5.30
  -3   8  -2   45.60    5.20
   3   8   2   32.70    5.50
  -3   8  -2   42.30    4.10
   4  -8   2   44.80    5.40
  -4  -8  -2   39.80    6.10
  -4  -8  -2   40.00    3.90
  -4   8  -2   31.80    5.30
   4   8   2   21.70    4.40
  -4   8  -2   36.10    4.40
  -5  -9   2   -0.10    4.40
   5  -9  -2    3.70    2.80
  -5   9   2   -0.30    2.50
  -5   9   2    0.60    2.50
   5   9  -2    3.70    4.20
   5   9  -2   -2.60    3.10
   4  -9  -2    8.40    2.90
  -4  -9   2    1.20    3.90
  -4  -9   2    9.00    3.90
  -4  -9   2   10.20    2.30
   4   9  -2    7.00    3.00
  -4   9   2    7.60    3.20
  -4   9   2    5.60    2.60
   4   9  -2    9.20    3.10
  -4   9   2   10.50    2.80
  -3  -9   2   21.00    3.30
  -3  -9   2   20.00    4.30
   3  -9  -2   12.60    2.80
  -3  -9   2   20.50    4.60
   3  -9  -2   14.50    2.20
  -3   9   2   16.80    2.80
   3   9  -2   15.40    3.20
   3   9  -2   16.00    2.70
  -3   9   2   22.80    3.20
  -3   9   2   19.30    3.60
   2  -9  -2   20.30    3.40
  -2  -9   2   19.20    2.70
   2  -9  -2   21.30    2.20
  -2  -9   2   19.60    4.10
  -2  -9   2   12.20    3.10
  -2   9   2   19.90    2.50
   2   9  -2   18.40    3.00
  -2   9   2   21.20    2.90
   2   9  -2   24.00    4.00
  -2   9   2   21.20    3.40
   1  -9  -2    4.50    1.60
  -1  -9   2    2.60    2.60
  -1  -9   2    3.80    3.00
   1  -9  -2    5.40    2.10
  -1  -9   2    2.40    1.50
   1   9  -2    2.70    1.60
  -1   9   2    4.40    1.70
   1   9  -2    0.10    2.20
  -1   9   2    3.60    1.60
  -1   9   2    6.20    2.50
   0  -9   2  179.38    8.70
   0  -9  -2  180.18    9.30
   0  -9   2  189.18    9.50
   0  -9   2  186.28    9.50
   0  -9  -2  176.18    9.80
   0   9   2  186.08    8.30
   0   9  -2  181.28   10.50
   0   9  -2  176.28    8.90
   0   9   2  168.08    8.80
   0   9   2  169.68    9.60
  -1  -9  -2  366.16   16.60
  -1  -9  -2  349.07   15.20
   1  -9   2  363.56   16.20
  -1  -9  -2  368.56   17.60
   1  -9   2  356.56   16.70
   1   9   2  367.66   16.20
   1   9   2  347.77   15.20
   1   9   2  370.26   17.40
  -1   9  -2  359.06   15.90
  -1   9  -2  355.96   16.90
   2  -9   2  255.67   12.20
   2  -9   2  262.17   12.90
  -2  -9  -2  239.78   14.00
  -2  -9  -2  266.87   12.90
  -2   9  -2  247.48   13.10
  -2   9  -2  253.57   11.90
   2   9   2  254.27   13.50
   2   9   2  252.67   12.20
  -3  -9  -2  120.29    9.30
   3  -9   2  120.19    7.50
   3  -9   2  135.79    8.20
   3   9   2  134.79    7.60
   3   9   2  121.09    9.00
  -3   9  -2  122.79    7.20
  -3   9  -2  132.49    8.70
   4  -9   2  100.69    7.30
  -4  -9  -2   85.99    8.00
   4  -9   2  100.09    6.80
  -4   9  -2   99.09    6.50
  -4   9  -2  100.59    7.80
   4   9   2   82.59    8.10
  -5 -10   2   17.30    5.70
   5 -10  -2   23.00    4.30
   5  10  -2   31.20    5.40
  -5  10   2   33.50    5.30
   5  10  -2   34.80    4.80
  -5  10   2   34.40    4.60
   4 -10  -2    2.50    2.80
  -4 -10   2    5.90    2.30
  -4 -10   2    1.70    3.50
  -4 -10   2    4.10    4.20
   4  10  -2    1.30    2.80
  -4  10   2   -0.50    2.10
  -4  10   2    2.60    2.50
  -4  10   2    5.50    3.10
   4  10  -2    6.20    3.10
  -3 -10   2    9.90    4.30
   3 -10  -2    7.20    2.40
  -3 -10   2   11.70    2.40
   3 -10  -2    7.30    1.60
  -3 -10   2    4.40    3.20
   3  10  -2   11.40    3.00
  -3  10   2    4.40    2.20
  -3  10   2    8.00    2.20
  -3  10   2    6.70    2.50
   3  10  -2   11.60    2.50
  -2 -10   2   75.29    4.50
  -2 -10   2   76.69    7.00
   2 -10  -2   76.29    4.30
  -2 -10   2   74.89    6.30
   2 -10  -2   75.79    5.70
  -2  10   2   75.39    5.20
   2  10  -2   76.29    4.90
   2  10  -2   73.19    5.90
  -2  10   2   76.79    5.50
  -2  10   2   74.49    4.50
  -1 -10   2    9.50    1.80
  -1 -10   2   11.10    3.10
   1 -10  -2   11.40    2.00
   1 -10  -2    8.90    2.70
  -1 -10   2   15.40    3.70
  -1  10   2    8.30    2.60
   1  10  -2    9.30    1.90
  -1  10   2   10.90    1.90
   1  10  -2   12.40    2.80
  -1  10   2    9.40    1.90
   0 -10  -2    1.70    2.40
   0 -10   2    2.80    2.10
   0 -10  -2   -0.10    1.80
   0 -10   2    2.70    2.40
   0 -10   2   -0.20    2.20
   0  10  -2    2.00    2.10
   0  10   2    3.60    2.60
   0  10  -2    2.50    2.80
   0  10   2    1.40    1.30
   0  10   2    0.00    1.70
  -1 -10  -2  116.59    6.80
   1 -10   2  112.29    5.90
   1 -10   2  124.09    7.00
  -1 -10  -2  101.09    7.50
  -1 -10  -2  104.59    5.00
  -1  10  -2  119.59    5.90
   1  10   2  105.99    7.30
   1  10   2  108.89    6.30
  -1  10  -2  121.09    7.00
   2 -10   2   33.90    4.30
  -2 -10  -2   27.40    4.60
   2 -10   2   27.60    3.80
  -2 -10  -2   30.10    5.00
  -2  10  -2   30.80    4.30
   2  10   2   27.80    3.80
  -2  10  -2   33.30    3.40
   2  10   2   20.80    3.80
  -3 -10  -2   31.70    5.20
   3 -10   2   15.10    3.50
  -3 -10  -2   20.60    4.90
   3 -10   2   27.00    4.30
  -3  10  -2   16.20    3.60
   3  10   2   35.00    4.60
   3  10   2   22.20    4.40
  -3  10  -2   25.60    3.60
  -4 -10  -2    3.50    3.80
   4 -10   2    2.30    2.80
  -4 -10  -2    6.70    4.30
   4 -10   2    0.30    3.00
   4  10   2    4.20    3.70
  -4  10  -2    1.60    3.00
   4  10   2   -0.60    2.90
  -4  10  -2    0.80    2.30
   4 -11  -2   16.10    3.40
  -4 -11   2   11.40    2.20
  -4 -11   2   14.20    4.90
  -4 -11   2   15.20    4.70
  -4  11   2   15.60    3.10
  -4  11   2   14.40    3.70
  -4  11   2    7.60    2.40
   4  11  -2    8.40    3.20
   4  11  -2    5.70    3.40
   3 -11  -2    2.40    1.40
   3 -11  -2    2.10    2.50
  -3 -11   2    5.40    4.00
  -3 -11   2   -1.20    1.80
  -3 -11   2    2.70    3.20
   3  11  -2    3.30    2.70
  -3  11   2    2.70    2.10
  -3  11   2    1.80    2.40
  -3  11   2    4.40    2.20
   3  11  -2    3.30    2.40
  -2 -11   2    3.40    3.50
   2 -11  -2    0.80    1.50
   2 -11  -2    5.70    2.80
  -2 -11   2    1.90    1.80
  -2 -11   2   -1.00    2.60
  -2  11   2    0.40    1.40
  -2  11   2    2.10    1.90
   2  11  -2    1.50    1.80
   2  11  -2    1.30    2.30
  -2  11   2    2.60    1.90
  -1 -11   2   39.90    5.00
  -1 -11   2   41.70    3.20
  -1 -11   2   41.30    5.40
   1 -11  -2   39.60    4.60
   1 -11  -2   35.60    3.30
   1  11  -2   36.30    4.50
  -1  11   2   37.30    3.20
  -1  11   2   37.20    4.30
  -1  11   2   37.60    3.30
   1  11  -2   40.00    3.20
   0 -11   2   68.29    5.60
   0 -11   2   69.39    5.50
   0 -11   2   63.39    4.70
   0 -11  -2   67.89    4.80
   0 -11  -2   71.29    6.00
   0  11   2   66.69    4.40
   0  11  -2   63.79    5.00
   0  11   2   69.89    3.90
   0  11  -2   79.99    5.90
   0  11   2   64.59    5.60
   1 -11   2  189.58    9.50
  -1 -11  -2  188.68    8.50
  -1 -11  -2  207.28   11.30
  -1 -11  -2  196.88   10.20
   1 -11   2  200.08   10.50
   1 -11   2  203.48    9.60
  -1  11  -2  193.38    9.20
   1  11   2  186.48   10.80
   1  11   2  197.08    9.60
  -1  11  -2  182.88   10.20
   2 -11   2   17.80    3.40
  -2 -11  -2   15.60    4.20
   2 -11   2   13.30    2.90
  -2 -11  -2   13.10    3.60
  -2  11  -2   10.90    2.20
  -2  11  -2   11.70    3.00
   2  11   2   14.00    3.90
   2  11   2   14.40    2.70
  -3 -11  -2   52.09    6.60
   3 -11   2   41.80    4.70
   3 -11   2   44.00    5.20
  -3 -11  -2   47.90    5.90
   3  11   2   54.59    5.10
   3  11   2   41.30    5.90
  -3  11  -2   49.20    5.60
  -3  11  -2   47.70    4.50
  -4 -11  -2   10.90    3.70
   4 -11   2   12.10    3.30
   4 -11   2   14.20    3.60
  -4 -11  -2    9.40    4.40
  -4  11  -2   15.40    3.10
   4  11   2   26.20    4.30
   4  11   2   16.60    4.60
  -4  11  -2    8.80    3.60
  -4 -12   2    9.90    5.00
  -4 -12   2   14.90    4.90
   4 -12  -2    9.80    3.00
  -4  12   2   11.90    3.10
  -4  12   2   10.50    3.50
   4  12  -2    6.50    2.90
   4  12  -2    1.40    2.70
  -3 -12   2   -0.70    1.80
   3 -12  -2    0.40    2.50
   3 -12  -2    1.30    1.50
  -3 -12   2    2.80    3.40
  -3 -12   2   -0.80    3.90
  -3  12   2    0.90    2.50
   3  12  -2    2.20    2.90
  -3  12   2    0.80    2.00
  -3  12   2    1.10    2.10
   3  12  -2    0.10    2.60
  -2 -12   2   17.10    2.50
   2 -12  -2   17.10    3.50
   2 -12  -2   18.80    2.50
  -2 -12   2    9.60    4.40
  -2 -12   2   20.40    4.20
  -2  12   2   12.60    2.10
   2  12  -2   13.90    3.30
  -2  12   2   12.60    2.40
   2  12  -2   13.80    2.60
  -1 -12   2   47.10    5.90
  -1 -12   2   44.50    5.40
  -1 -12   2   49.00    3.70
   1 -12  -2   52.59    5.30
   1 -12  -2   48.80    3.80
   1  12  -2   48.50    3.80
  -1  12   2   53.29    3.80
   1  12  -2   42.90    5.00
  -1  12   2   49.70    3.80
  -1  12   2   42.10    4.80
   0 -12  -2  101.39    6.10
   0 -12  -2  102.39    7.40
   0 -12   2  102.99    7.10
   0 -12   2  101.29    6.90
   0 -12   2   99.89    5.90
   0  12   2   96.49    5.70
   0  12  -2   93.59    6.40
   0  12   2   97.09    6.90
  -1 -12  -2    1.20    2.70
  -1 -12  -2    1.80    0.80
  -1 -12  -2   -0.10    0.90
   1 -12   2    0.90    2.00
   1 -12   2    0.70    2.10
   1 -12   2    3.20    2.70
  -1 -12  -2    1.80    2.70
   1  12   2    1.50    2.10
   1  12   2    1.70    2.60
  -1  12  -2   -0.40    2.10
  -1  12  -2   -1.40    1.50
  -2 -12  -2   -2.10    3.20
  -2 -12  -2    3.20    3.10
   2 -12   2    3.10    2.30
   2 -12   2    4.10    2.60
   2  12   2    4.10    3.00
  -2  12  -2    3.30    2.20
   2  12   2    4.40    2.30
  -2  12  -2    2.30    2.60
   3 -12   2    4.50    2.60
  -3 -12  -2    5.10    3.10
  -3 -12  -2    5.20    3.90
   3 -12   2   11.60    3.60
   3  12   2    5.90    2.70
   3  12   2    3.70    3.10
  -3  12  -2    3.60    2.10
  -3  12  -2    6.00    3.00
   4 -12   2    4.50    2.70
  -4 -12  -2    5.20    4.60
   4 -12   2   11.50    3.60
  -4 -12  -2    8.40    3.70
   4  12   2    6.60    3.70
  -4  12  -2    4.20    3.00
  -4  12  -2    4.40    2.60
   4  12   2   10.80    3.70
   4 -13  -2    4.30    2.90
  -4 -13   2    2.30    4.50
  -4 -13   2    5.90    4.30
  -4  13   2    6.50    2.60
   4  13  -2    9.00    3.00
  -4  13   2    6.40    3.00
   4  13  -2    5.40    2.90
   3 -13  -2   13.70    3.50
  -3 -13   2   22.60    5.50
   3 -13  -2   20.20    2.70
  -3 -13   2   18.50    3.40
  -3 -13   2   26.40    5.50
  -3  13   2   25.40    3.40
  -3  13   2   17.70    3.80
   3  13  -2   17.60    4.00
   3  13  -2   27.50    4.20
  -2 -13   2    0.60    3.10
  -2 -13   2    1.60    3.60
   2 -13  -2    1.40    2.90
  -2 -13   2    2.30    1.80
   2 -13  -2    0.80    1.80
  -2  13   2    0.70    1.80
   2  13  -2    0.50    2.40
  -2  13   2    1.60    2.30
  -2  13   2   -0.60    1.90
   2  13  -2   -2.60    2.50
  -1 -13   2  154.68   10.00
  -1 -13   2  150.58   10.10
   1 -13  -2  158.58    8.30
   1 -13  -2  166.28    9.70
  -1  13   2  159.88    8.00
   1  13  -2  163.08    8.10
  -1  13   2  155.88    9.10
  -1  13   2  161.78    8.00
   1  13  -2  156.78    9.20
   0 -13   2   14.70    3.80
   0 -13   2   13.90    2.80
   0 -13  -2   10.80    3.40
   0 -13  -2   13.40    3.00
   0 -13   2   12.80    3.30
   0  13  -2   14.90    3.10
   0  13   2   10.10    3.00
   0  13   2    6.30    1.90
  -1 -13  -2  114.79    7.60
   1 -13   2  119.09    6.90
  -1 -13  -2  120.69    8.50
   1 -13   2  127.39    7.00
  -1 -13  -2  114.09    5.40
   1 -13   2   97.19    9.90
  -1  13  -2  124.99    6.30
   1  13   2  120.29    6.70
  -1  13  -2  117.59    7.40
   1  13   2  112.69    7.90
  -2 -13  -2   18.70    4.00
   2 -13   2   20.80    3.50
  -2 -13  -2   26.80    5.20
   2 -13   2   16.60    3.20
   2  13   2   16.60    3.80
  -2  13  -2   14.50    2.50
   2  13   2   17.40    2.90
  -2  13  -2   11.00    3.10
  -3 -13  -2   37.80    6.20
   3 -13   2   50.89    5.00
   3 -13   2   60.09    5.60
  -3 -13  -2   57.89    7.10
   3  13   2   47.20    6.20
   3  13   2   48.50    4.90
  -3  13  -2   49.50    4.60
  -3  13  -2   50.39    5.60
   4 -13   2   31.60    4.70
  -4 -13  -2   12.40    4.70
  -4 -13  -2   21.80    4.70
   4 -13   2   34.10    5.30
   4  13   2   31.50    5.40
   4  13   2   35.20    4.70
  -4  13  -2   23.80    3.90
  -4  13  -2   39.70    5.80
   4 -14  -2    1.80    3.30
  -4 -14   2   -3.90    3.60
  -4 -14   2    0.60    4.30
  -4  14   2    3.10    2.60
   4  14  -2    3.20    3.00
  -4  14   2    1.40    2.60
   4  14  -2   -1.90    2.90
  -3 -14   2    4.40    4.20
   3 -14  -2    3.70    2.10
  -3 -14   2    8.10    4.60
   3 -14  -2    2.60    3.10
   3  14  -2    1.20    2.80
  -3  14   2    1.00    2.20
   3  14  -2    3.90    2.70
  -3  14   2    1.40    2.50
  -2 -14   2   45.30    3.90
  -2 -14   2   38.40    6.60
   2 -14  -2   41.60    5.50
   2 -14  -2   39.30    3.70
  -2 -14   2   45.90    6.50
  -2  14   2   40.50    4.90
  -2  14   2   47.80    3.80
   2  14  -2   48.10    5.60
   2  14  -2   52.49    4.70
  -1 -14   2   10.60    4.10
  -1 -14   2    5.30    3.80
   1 -14  -2    6.60    2.50
   1 -14  -2    0.60    2.90
  -1 -14   2    6.90    2.20
   1  14  -2    2.50    2.60
  -1  14   2    5.00    2.20
  -1  14   2    3.80    2.90
   1  14  -2    3.90    2.20
   0 -14   2  152.18    9.80
   0 -14   2  166.68    9.70
   0 -14   2  162.58    8.40
   0 -14  -2  152.28    8.80
   0 -14  -2  154.68    9.90
   0 -14  -2  134.79    8.50
   0  14   2  162.08    8.10
   0  14  -2  153.18    9.10
   0  14   2  177.88   11.30
   1 -14   2    3.90    4.80
   1 -14   2    8.10    2.80
  -1 -14  -2    6.70    3.20
   1 -14   2    9.30    2.80
  -1 -14  -2    5.00    3.20
   1  14   2    3.30    2.30
   1  14   2    3.10    3.10
  -1  14  -2    2.00    2.20
  -1  14  -2    5.60    1.70
  -2 -14  -2   -2.40    3.00
  -2 -14  -2   -3.10    3.40
   2 -14   2    0.70    2.60
   2 -14   2    2.70    2.90
  -2  14  -2    1.00    2.40
  -2  14  -2    0.60    1.80
   2  14   2    1.40    2.50
   2  14   2    0.80    3.10
  -3 -14  -2   26.10    5.30
   3 -14   2   31.30    4.60
   3 -14   2   31.90    4.90
  -3 -14  -2   39.90    6.30
   3  14   2   29.50    4.40
  -3  14  -2   23.70    4.70
   3  14   2   18.00    4.10
  -3  14  -2   24.60    3.90
  -4 -15   2   24.60    7.70
  -4 -15   2   22.90    5.70
   4 -15  -2   43.00    5.60
   4 -15  -2   56.09    8.50
   4  15  -2   48.80    5.30
   4  15  -2   42.10    6.10
  -4  15   2   49.20    5.10
  -4  15   2   40.30    5.70
  -3 -15   2   11.10    4.80
   3 -15  -2   16.70    4.00
  -3 -15   2    7.10    4.60
  -3  15   2   16.70    2.90
  -3  15   2   14.80    3.80
   3  15  -2    7.10    3.20
   3  15  -2   10.10    2.90
   2 -15  -2  265.57   13.10
   2 -15  -2  297.07   14.70
  -2 -15   2  249.78   15.30
  -2 -15   2  292.27   12.80
  -2 -15   2  260.97   15.40
   2  15  -2  306.67   13.30
   2  15  -2  277.97   14.70
  -2  15   2  232.08   13.90
  -1 -15   2   13.30    4.40
  -1 -15   2   17.00    2.70
   1 -15  -2   21.80    4.50
  -1 -15   2   13.60    3.90
   1 -15  -2   16.80    3.20
  -1  15   2   25.80    3.20
   1  15  -2    9.60    3.50
   1  15  -2   19.00    3.30
  -1  15   2   18.00    3.80
   0 -15  -2  179.28   11.90
   0 -15   2  208.38   10.40
   0 -15   2  197.38   11.90
   0 -15  -2  206.98   10.30
   0 -15   2  217.58   11.90
   0 -15  -2  192.98   10.90
   0  15  -2  203.18   11.30
   0  15   2  213.78   10.20
   0  15   2  266.87   16.00
   1 -15   2    5.00    2.80
  -1 -15  -2   -0.50    3.40
   1 -15   2    1.10    2.70
  -1 -15  -2    1.20    3.00
   1 -15   2    0.50    3.20
   1  15   2   -2.80    2.60
  -1  15  -2    3.80    1.80
  -1  15  -2    0.30    3.70
   1  15   2    0.20    2.20
   2 -15   2   -2.00    2.50
   2 -15   2   -1.80    2.80
  -2 -15  -2    0.10    3.10
  -2 -15  -2   -5.40    2.60
  -2  15  -2    0.40    2.40
   2  15   2    0.10    3.20
   2  15   2    0.90    2.40
  -2  15  -2    0.10    1.90
   3 -15   2    4.40    3.00
  -3 -15  -2    7.40    3.90
   3 -15   2    8.00    3.50
  -3 -15  -2    7.50    4.50
  -3  15  -2    5.10    2.70
   3  15   2    1.60    2.90
  -3  15  -2    4.70    3.20
   3  15   2    4.10    2.80
  -3 -16   2   21.60    5.30
   3 -16  -2   51.69    7.10
   3 -16  -2   39.60    5.80
  -3  16   2   36.20    4.30
   3  16  -2   34.80    5.60
   3  16  -2   41.90    5.00
  -3  16   2   42.20    5.40
  -2 -16   2   41.30    6.90
  -2 -16   2   43.30    4.70
   2 -16  -2   40.30    4.40
   2 -16  -2   64.39    7.50
   2 -16  -2   47.70    5.80
   2  16  -2   47.30    6.00
   2  16  -2   44.40    4.80
  -2  16   2   48.70    4.20
  -2  16   2   38.70    5.00
   1 -16  -2  117.59    8.90
  -1 -16   2  129.59    6.90
   1 -16  -2  119.79   10.00
  -1 -16   2  123.99    9.40
  -1 -16   2  139.29    9.60
   1  16  -2  111.49    8.30
  -1  16   2  113.69    7.10
   1  16  -2  131.29    7.20
   0 -16  -2    8.90    3.60
   0 -16   2   16.80    4.60
   0 -16  -2   20.90    3.00
   0 -16   2   18.30    4.30
   0 -16  -2    9.60    3.30
   0 -16   2   14.30    3.20
   0  16  -2    9.30    3.00
   0  16   2   10.80    2.50
  -1 -16  -2   25.20    5.20
   1 -16   2   20.80    4.50
  -1 -16  -2   19.60    4.10
   1 -16   2   23.10    3.90
   1 -16   2   20.60    3.40
   1  16   2   18.60    3.30
  -1  16  -2   32.00    6.50
  -1  16  -2   20.20    3.20
   1  16   2   13.90    3.70
   2 -16   2   65.09    5.70
   2 -16   2   64.39    6.40
  -2 -16  -2   58.49    6.30
  -2 -16  -2   66.59    7.60
  -2  16  -2   65.99    4.80
   2  16   2   40.10    6.00
   2  16   2   61.59    5.30
  -2  16  -2   61.39    6.10
   3 -16   2    7.00    3.40
   3 -16   2    6.10    3.30
  -3 -16  -2   11.40    4.60
  -3 -16  -2   18.70    4.90
  -3  16  -2   20.60    4.40
   3  16   2   16.50    3.30
  -3  16  -2   20.60    3.40
   3  16   2   11.30    4.00
   3 -17  -2   86.99    7.70
   3 -17  -2   85.39    9.30
  -3 -17   2   92.89    9.40
  -3 -17   2   83.29    8.90
   3  17  -2   63.79    7.20
   3  17  -2   97.19    6.80
  -3  17   2   84.79    7.30
  -3  17   2  101.29    6.20
  -2 -17   2    1.10    4.10
   2 -17  -2   -1.90    2.80
   2 -17  -2    2.10    2.60
  -2 -17   2    0.80    2.20
   2 -17  -2    1.20    4.30
  -2 -17   2    4.10    4.00
   2  17  -2   -1.60    2.70
  -2  17   2   -1.40    1.90
   2  17  -2   -2.00    2.40
  -2  17   2    0.40    2.30
   1 -17  -2  179.98   10.30
  -1 -17   2  189.18   12.10
   1 -17  -2  204.48   10.70
  -1 -17   2  170.28   11.90
   1 -17  -2  198.98   11.70
  -1 -17   2  199.28    9.50
  -1  17   2  173.18    9.90
   1  17  -2  171.08   10.80
   1  17  -2  191.08    9.60
   0 -17  -2   -3.10    3.00
   0 -17   2    1.40    3.50
   0 -17  -2    1.60    2.20
   0 -17   2    2.90    3.60
   0 -17  -2   -2.90    4.00
   0 -17   2    3.80    3.80
   0  17   2    1.40    4.80
   0  17   2    4.40    2.80
   0  17  -2    5.20    2.80
  -1 -17  -2   41.00    6.20
   1 -17   2   42.70    5.40
   1 -17   2   38.70    5.80
   1 -17   2   32.20    5.00
  -1 -17  -2   34.70    5.50
  -1  17  -2   35.10    3.80
   1  17   2   32.90    5.30
   1  17   2   39.40    4.50
  -1  17  -2   25.90    4.40
  -2 -17  -2    8.50    4.00
   2 -17   2   25.80    3.90
  -2 -17  -2   16.20    4.00
   2 -17   2   16.20    3.70
  -2  17  -2   12.10    3.20
   2  17   2   12.70    3.10
  -2  17  -2   12.10    2.50
   2  17   2    9.50    3.50
  -3 -18   2   12.60    5.80
   2 -18  -2   41.30    5.10
   2 -18  -2   44.30    6.20
   2 -18  -2   69.49    7.30
  -2 -18   2   49.60    7.40
  -2 -18   2   31.50    5.60
   2  18  -2   47.80    6.20
   2  18  -2   48.10    4.80
  -1 -18   2   52.89    7.30
   1 -18  -2   64.59    6.00
   1 -18  -2   54.29    6.60
  -1 -18   2   62.69    7.20
  -1 -18   2   55.49    4.80
   1 -18  -2   53.39    5.80
  -1  18   2   47.90    5.60
  -1  18   2   44.20    5.60
   1  18  -2   51.89    6.00
   1  18  -2   60.59    5.00
   0 -18   2   16.90    3.50
   0 -18  -2   15.00    2.70
   0 -18   2   10.10    4.30
   0 -18   2   20.50    5.20
   0 -18  -2    9.70    3.70
   0  18  -2   18.30    5.10
   0  18  -2   14.80    3.60
   0  18   2    6.70    2.60
   0  18   2    6.70    3.30
   1 -18   2    2.80    3.40
   1 -18   2   -1.20    3.00
   1 -18   2    1.10    3.10
  -1 -18  -2    0.80    3.30
  -1 -18  -2    0.30    3.70
   1  18   2    2.40    3.30
  -1  18  -2    0.60    2.00
   1  18   2    2.00    2.60
  -1  18  -2   -0.60    2.50
   2 -18   2    4.30    3.30
  -2 -18  -2    1.00    3.70
   2 -18   2   -2.40    3.40
  -2 -18  -2    3.40    3.80
  -2  18  -2   -0.60    2.20
  -2  18  -2    2.80    2.70
   2  18   2    0.00    2.70
   2  18   2    3.50    3.20
   2 -19  -2   -0.30    3.80
  -2 -19   2    0.20    4.10
   2 -19  -2    0.00    3.20
   2 -19  -2    0.40    3.30
  -2 -19   2    0.10    4.10
  -2  19   2   -3.20    2.20
   2  19  -2    0.30    2.90
  -2  19   2    4.60    3.00
   2  19  -2    0.30    2.80
  -1 -19   2   10.50    4.70
   1 -19  -2    6.00    3.70
   1 -19  -2   10.50    3.40
  -1 -19   2   11.40    2.80
  -1 -19   2    6.60    4.50
   1 -19  -2    3.10    3.40
   1  19  -2    4.80    3.00
   1  19  -2    5.90    2.50
  -1  19   2    9.80    3.90
  -1  19   2    8.30    3.30
   0 -19   2   16.60    4.90
   0 -19  -2   25.70    7.40
   0 -19   2   13.50    4.40
   0 -19  -2   18.90    4.30
   0 -19   2   14.80    3.50
   0  19  -2   10.20    3.40
   0  19   2   16.70    4.20
   0  19   2   18.70    3.50
   0  19  -2   23.20    4.70
  -1 -19  -2    5.70    3.70
   1 -19   2    2.20    3.50
   1 -19   2   11.50    3.60
   1 -19   2    2.40    4.40
  -1 -19  -2    6.10    3.70
   1  19   2    1.90    3.20
  -1  19  -2    5.80    2.60
  -1  19  -2    2.90    2.00
   1  19   2    3.30    2.60
  -1 -20   2    4.20    3.10
   1 -20  -2    3.50    3.00
   1 -20  -2    0.90    3.60
  -1 -20   2    8.10    4.70
   1 -20  -2   10.90    4.00
  -1 -20   2    6.80    4.60
  -1  20   2    7.10    3.30
   1  20  -2    0.90    3.20
   1  20  -2    8.90    2.90
   0 -20  -2    3.90    3.50
   0 -20  -2    4.20    2.90
   0 -20   2   11.20    4.60
   0 -20   2    1.80    3.00
   0 -20   2    3.10    4.20
   0 -20  -2   -2.40    3.20
   0  20  -2    2.00    2.50
   0  20  -2    3.40    3.10
   0  20   2    0.00    3.10
   0  20   2    2.60    2.60
   1 -20   2   -3.10    3.00
   1 -20   2   -2.80    4.20
  -1 -20  -2    4.90    4.20
  -1 -20  -2   -1.00    3.60
  -1  20  -2   -1.60    2.10
   1  20   2    3.10    3.20
  -1  20  -2    5.60    3.00
   1  20   2   -2.00    2.50
  -5   0   3   36.60    6.10
   5   0  -3   44.80    4.60
  -5   0   3   35.20    4.70
  -5   0   3   39.00    4.00
   5   0  -3   35.40    5.20
  -4   0   3    0.30    1.50
   4   0  -3    1.20    2.10
   4   0  -3   -0.70    1.60
  -4   0   3   -2.30    2.10
  -4   0   3   -2.50    2.50
  -3   0   3  422.86   19.70
  -3   0   3  427.26   18.60
  -3   0   3  485.95   19.60
   3   0  -3  368.06   19.60
   2   0  -3   -0.20    1.10
  -2   0   3    1.40    2.00
  -2   0   3    2.00    2.00
  -2   0   3    0.00    0.80
   2   0  -3   -1.30    1.30
  -1   0   3 1997.70  151.68
   1   0  -3 2256.77  136.29
   1   0  -3 1953.90  154.18
   0   0   3   -0.80    1.30
   0   0  -3    0.40    2.00
   0   0   3   -0.10    1.70
   0   0  -3    0.30    0.80
   0   0   3   -0.20    1.50
  -1   0  -3    1.00    1.30
   1   0   3    1.00    2.00
   1   0   3    0.80    1.90
   1   0   3    1.60    1.60
  -1   0  -3   -0.30    1.50
   2   0   3    0.00    1.90
  -2   0  -3   -1.90    1.60
   2   0   3    0.80    2.10
  -2   0  -3   -0.70    1.60
  -3   0  -3  128.99    7.40
   3   0   3  118.09    8.70
   3   0   3  124.29    8.30
   3   0   3  136.09    7.20
  -3   0  -3  140.09    7.40
   4   0   3    0.90    2.90
   4   0   3   -1.50    2.50
   4   0   3   -1.70    2.40
  -4   0  -3    2.30    2.30
  -4   0  -3   -0.90    2.80
   5   0   3    5.50    3.10
   5  -1  -3  124.79    9.20
  -5  -1   3  129.99    7.50
   5  -1  -3  143.09    8.70
  -5  -1   3  137.39    8.30
  -5  -1   3  140.99    9.50
  -5   1   3  141.29    8.30
   5   1  -3  143.89    8.80
   5   1  -3  128.69    9.40
  -5   1   3  143.89    9.00
  -5   1   3  138.19    7.60
  -4  -1   3   32.50    4.00
  -4  -1   3   24.40    3.00
   4  -1  -3   29.50    3.60
   4  -1  -3   25.00    4.00
  -4  -1   3   30.20    4.80
  -4   1   3   28.90    4.30
  -4   1   3   25.80    4.30
   4   1  -3   32.60    4.40
  -4   1   3   26.20    3.30
   4   1  -3   26.30    3.60
  -3  -1   3  387.26   18.30
  -3  -1   3  394.86   17.40
  -3  -1   3  394.96   18.80
   3  -1  -3  415.16   18.70
  -3   1   3  399.36   18.50
  -3   1   3  398.06   17.40
   3   1  -3  396.76   18.70
   2  -1  -3   55.09    3.60
  -2  -1   3   60.59    4.80
  -2  -1   3   62.29    3.10
  -2  -1   3   60.29    4.60
   2   1  -3   56.49    4.00
   2   1  -3   60.69    3.70
  -2   1   3   57.29    4.70
  -2   1   3   57.69    3.00
  -1  -1   3  719.23   31.90
   1  -1  -3  772.82   32.60
  -1   1   3  743.13   32.10
   0  -1   3   31.90    2.60
   0  -1  -3   33.80    2.10
   0  -1   3   36.20    3.00
   0  -1  -3   34.50    3.50
   0   1   3   35.90    3.20
   0   1  -3   31.30    2.00
   0   1   3   36.40    3.20
   0   1  -3   37.00    4.00
  -1  -1  -3   59.09    3.90
   1  -1   3   62.09    4.40
   1  -1   3   60.89    3.90
  -1  -1  -3   60.69    3.60
   1   1   3   61.29    4.90
   1   1   3   65.79    4.60
  -1   1  -3   59.39    3.80
   1   1   3   60.79    3.70
  -1   1  -3   60.89    3.60
   2  -1   3    6.40    3.70
  -2  -1  -3    9.60    2.00
  -2  -1  -3    8.00    2.20
   2  -1   3    4.40    2.20
   2  -1   3   11.30    2.80
   2   1   3    4.00    2.00
  -2   1  -3    8.80    1.80
  -2   1  -3    6.80    1.90
   2   1   3   11.00    2.90
  -3  -1  -3    3.70    2.00
   3  -1   3    0.50    2.20
   3  -1   3    2.50    2.50
   3  -1   3    2.10    2.50
  -3  -1  -3   -0.90    2.20
   3   1   3   -1.40    2.30
  -3   1  -3    2.00    1.80
   3   1   3    0.40    2.40
   3   1   3    2.40    2.20
  -3   1  -3    3.00    2.30
   4  -1   3    3.20    3.00
  -4  -1  -3    3.40    3.20
   4  -1   3   -1.30    2.60
   4  -1   3   -2.20    2.40
  -4  -1  -3    1.00    2.30
   4   1   3    1.80    2.70
   4   1   3    0.40    2.50
  -4   1  -3    0.70    2.50
  -4   1  -3    0.60    2.80
   4   1   3   -0.10    2.40
  -5  -2   3  194.08   12.00
   5  -2  -3  211.28   12.10
   5  -2  -3  195.98   11.10
  -5  -2   3  198.48    9.90
  -5  -2   3  195.88   10.70
  -5   2   3  193.18   10.10
  -5   2   3  202.18   10.60
  -5   2   3  192.48   11.00
   5   2  -3  179.98   11.00
   5   2  -3  210.18   12.30
  -4  -2   3   69.59    5.70
   4  -2  -3   91.39    6.50
   4  -2  -3   70.49    5.30
  -4  -2   3   74.39    4.60
  -4  -2   3   79.69    6.70
  -4   2   3   61.39    5.40
   4   2  -3   77.69    6.10
   4   2  -3   72.19    5.50
  -4   2   3   73.89    4.80
  -4   2   3   68.49    5.70
  -3  -2   3  164.08    8.70
  -3  -2   3  160.88    9.40
  -3  -2   3  162.28    7.60
   3   2  -3  138.49    8.80
  -3   2   3  169.68    8.70
  -3   2   3  163.28    7.60
  -2  -2   3  522.65   23.70
  -2  -2   3  516.35   22.30
  -2  -2   3  535.05   23.80
   2  -2  -3  514.65   22.70
   2  -2  -3  542.75   23.90
   2   2  -3  545.35   23.10
   2   2  -3  538.05   23.00
  -2   2   3  522.65   22.90
  -2   2   3  539.55   23.50
  -2   2   3  496.75   22.40
  -1  -2   3   28.60    3.30
  -1  -2   3   28.80    3.40
   1  -2  -3   27.60    4.10
   1  -2  -3   25.60    1.50
  -1  -2   3   26.00    2.00
   1  -2  -3   27.40    2.20
   1   2  -3   25.80    1.30
  -1   2   3   24.60    1.40
   1   2  -3   23.60    1.40
  -1   2   3   23.50    1.90
  -1   2   3   27.60    3.40
   1   2  -3   28.20    1.70
   0  -2  -3  288.67   13.40
   0  -2   3  294.17   13.00
   0  -2   3  310.07   13.20
   0  -2  -3  303.67   13.40
   0   2  -3  292.27   12.70
   0   2   3  293.77   13.30
   0   2   3  287.97   13.40
   0   2  -3  295.77   13.20
   1  -2   3   34.50    3.60
  -1  -2  -3   36.60    2.70
  -1  -2  -3   33.60    4.80
   1  -2   3   40.80    3.60
  -1   2  -3   34.20    3.70
  -1   2  -3   38.60    2.90
   1   2   3   34.80    2.80
   1   2   3   31.40    4.10
  -1   2  -3   37.90    2.80
   2  -2   3   20.00    3.10
   2  -2   3   19.40    3.20
  -2  -2  -3   18.00    2.70
  -2  -2  -3   20.90    3.00
   2   2   3   22.10    2.70
   2   2   3   15.10    3.20
  -2   2  -3   23.00    2.80
  -2   2  -3   19.30    2.40
  -3  -2  -3   12.90    3.00
   3  -2   3   14.90    3.20
   3  -2   3   14.00    3.40
  -3  -2  -3   13.50    2.40
   3  -2   3   10.90    2.60
  -3   2  -3   17.80    2.80
  -3   2  -3   15.40    2.70
   3   2   3   15.90    2.50
   3   2   3   20.20    3.90
   3   2   3   20.00    4.30
   4  -2   3   15.40    4.00
   4  -2   3   14.10    3.20
   4  -2   3   23.10    4.00
  -4  -2  -3   22.30    4.20
  -4  -2  -3   20.50    3.10
  -4   2  -3   19.40    3.30
   4   2   3   13.80    3.50
   4   2   3   13.70    3.00
  -4   2  -3   17.00    3.50
   4   2   3   11.00    3.80
  -5  -3   3    0.70    1.90
   5  -3  -3   -2.00    1.80
  -5  -3   3   -5.10    3.40
   5  -3  -3    4.50    2.50
   5   3  -3    0.50    2.50
  -5   3   3    0.30    2.10
  -5   3   3   -1.00    2.30
   5   3  -3    1.40    2.00
  -4  -3   3   16.70    2.30
  -4  -3   3   16.60    3.10
  -4  -3   3   15.70    4.00
   4  -3  -3    9.10    2.40
  -4   3   3   13.00    2.20
   4   3  -3   14.10    3.30
   4   3  -3   14.70    3.00
  -4   3   3    9.90    2.60
  -3  -3   3   32.90    4.80
  -3  -3   3   30.80    2.40
  -3  -3   3   32.30    4.10
   3  -3  -3   26.80    4.30
  -3   3   3   32.60    3.90
   3   3  -3   34.40    3.70
  -3   3   3   28.90    3.50
  -3   3   3   31.60    2.70
   2  -3  -3    0.60    1.20
  -2  -3   3    1.90    2.40
   2  -3  -3    1.10    2.30
  -2  -3   3   -0.70    1.80
  -2  -3   3    0.30    2.00
  -2   3   3    0.50    1.30
  -2   3   3   -1.70    2.00
   2   3  -3    0.60    1.00
   2   3  -3   -0.10    1.50
  -2   3   3    1.40    1.00
  -1  -3   3   14.20    2.20
   1  -3  -3   14.60    2.80
  -1  -3   3   17.30    2.70
   1  -3  -3   16.30    2.30
  -1  -3   3   16.30    2.20
  -1   3   3   15.90    1.90
  -1   3   3   14.20    1.30
   1   3  -3   16.50    2.00
   1   3  -3   13.70    1.20
  -1   3   3   12.60    2.60
   0  -3   3  114.69    5.70
   0  -3  -3  116.49    6.40
   0  -3  -3  109.99    6.00
   0  -3   3  121.19    5.80
   0   3   3  118.79    6.00
   0   3   3  115.29    5.50
   0   3  -3  120.59    6.80
   0   3   3  118.59    6.20
   0   3  -3  113.99    5.30
   0   3  -3  111.29    5.90
   1  -3   3    2.50    2.20
  -1  -3  -3    4.30    1.80
  -1  -3  -3    2.10    1.20
   1   3   3    2.00    1.40
  -1   3  -3    3.10    2.00
  -1   3  -3    2.40    1.70
   1   3   3    4.50    2.30
  -1   3  -3    7.00    1.50
   2  -3   3   -0.90    2.10
   2  -3   3    5.10    2.20
  -2  -3  -3    1.30    2.10
  -2  -3  -3    1.90    1.60
  -2   3  -3    1.90    1.60
  -2   3  -3    0.90    1.30
   2   3   3    0.10    1.40
  -3  -3  -3    8.40    2.90
   3  -3   3    8.50    2.50
   3  -3   3    2.80    2.30
   3   3   3   -3.00    2.40
   3   3   3    6.80    2.60
   3   3   3    7.00    2.30
  -3   3  -3    3.10    1.80
   4  -3   3   15.20    3.10
   4  -3   3   19.10    4.20
   4  -3   3   16.40    4.10
  -4  -3  -3   11.40    2.70
  -4   3  -3   12.10    2.90
   4   3   3    7.60    3.10
   4   3   3    9.40    3.70
   4   3   3   12.70    2.80
  -4   3  -3    7.10    3.00
  -5  -4   3    7.00    2.10
   5  -4  -3   10.50    3.10
  -5  -4   3   10.70    3.00
   5  -4  -3   11.50    3.30
  -5  -4   3    6.50    4.10
   5  -4  -3    9.00    4.20
   5   4  -3    1.70    2.50
   5   4  -3    5.30    2.30
  -5   4   3    3.30    2.60
  -5   4   3    4.70    2.50
  -4  -4   3   18.70    2.70
   4  -4  -3   27.50    3.70
  -4  -4   3   25.20    4.80
  -4  -4   3   30.80    4.00
  -4   4   3   27.60    4.00
  -4   4   3   27.70    3.30
   4   4  -3   17.40    3.20
  -4   4   3   27.30    3.90
   4   4  -3   16.90    3.40
  -3  -4   3   91.99    4.70
  -3  -4   3   86.09    7.00
   3  -4  -3   91.09    6.20
  -3  -4   3   89.99    6.00
  -3   4   3   88.69    4.80
  -3   4   3   86.79    5.90
  -3   4   3   88.69    5.70
   3   4  -3   83.89    5.90
  -2  -4   3    2.20    2.00
   2  -4  -3   -1.10    2.30
  -2  -4   3    1.10    2.00
  -2  -4   3    1.40    2.70
  -2   4   3    3.50    1.70
  -2   4   3    2.80    1.10
   2   4  -3    3.30    1.10
   2   4  -3    4.00    1.70
  -2   4   3    1.60    1.90
  -1  -4   3  875.31   42.70
   1  -4  -3  997.30   43.10
  -1  -4   3 1034.50   42.90
   1  -4  -3 1033.70   42.90
  -1  -4   3  996.20   43.50
   1   4  -3 1045.10   42.70
   1   4  -3 1016.40   42.30
  -1   4   3  998.70   43.10
  -1   4   3 1069.89   42.70
   0  -4  -3   47.70    4.10
   0  -4  -3   45.40    3.50
   0  -4   3   48.10    3.60
   0  -4   3   52.49    3.40
   0   4   3   44.90    2.90
   0   4  -3   46.80    3.50
   0   4  -3   47.20    4.70
   0   4   3   49.40    4.00
   0   4  -3   46.70    2.70
   0   4   3   47.80    3.60
   1  -4   3  201.78    9.90
  -1  -4  -3  214.38    9.90
  -1  -4  -3  220.48    9.50
  -1   4  -3  197.58    9.70
  -1   4  -3  210.68    9.60
   1   4   3  215.88   10.90
  -1   4  -3  199.68   10.40
   1   4   3  208.08    9.40
  -2  -4  -3    5.20    1.60
  -2  -4  -3    4.80    2.30
   2  -4   3    3.40    2.00
   2  -4   3    2.30    2.10
  -2  -4  -3    7.90    3.10
   2   4   3    6.80    1.50
  -2   4  -3    3.40    1.30
  -2   4  -3    6.00    2.00
  -3  -4  -3   20.90    3.10
  -3  -4  -3   28.30    4.30
   3  -4   3   26.00    4.00
   3  -4   3   12.70    3.00
   3   4   3    7.80    2.80
   3   4   3   13.70    3.90
  -3   4  -3   13.20    2.60
  -3   4  -3    6.90    2.70
   4  -4   3    8.20    3.80
  -4  -4  -3    7.00    3.70
   4  -4   3    9.30    3.00
  -4  -4  -3   10.20    2.70
   4  -4   3    5.60    2.70
   4   4   3    3.60    3.00
   4   4   3    9.60    2.70
   4   4   3    5.60    3.20
  -4   4  -3    4.90    2.50
  -5  -5   3   59.29    4.50
   5  -5  -3   58.19    6.20
  -5  -5   3   57.49    7.60
  -5  -5   3   61.29    5.30
   5  -5  -3   46.70    5.30
   5   5  -3   50.19    5.40
   5   5  -3   63.69    6.20
  -5   5   3   56.99    4.90
  -5   5   3   51.39    5.30
  -4  -5   3   40.00    4.60
   4  -5  -3   26.80    4.40
  -4  -5   3   40.70    6.30
   4  -5  -3   34.30    4.20
  -4  -5   3   41.60    3.30
   4   5  -3   40.30    4.70
  -4   5   3   36.40    4.50
   4   5  -3   37.30    4.70
  -4   5   3   34.70    4.40
  -4   5   3   37.80    3.80
  -3  -5   3  108.89    8.00
  -3  -5   3   95.19    6.90
   3  -5  -3  105.29    6.20
  -3  -5   3  111.19    6.60
   3  -5  -3  103.89    6.70
  -3   5   3  102.89    6.50
  -3   5   3  108.49    5.70
  -3   5   3  100.69    6.50
   3   5  -3  111.19    6.70
   2  -5  -3   22.20    3.60
  -2  -5   3   22.80    3.30
  -2  -5   3   28.10    3.60
  -2  -5   3   31.80    4.60
  -2   5   3   22.50    3.10
  -2   5   3   19.70    2.80
  -2   5   3   20.80    2.10
   2   5  -3   22.20    2.90
   2   5  -3   24.00    2.10
  -1  -5   3   17.40    3.30
  -1  -5   3   12.80    2.30
  -1  -5   3   20.00    2.60
   1  -5  -3   16.50    2.50
   1  -5  -3   16.90    2.50
  -1   5   3   15.50    1.70
  -1   5   3   16.90    2.80
   1   5  -3   16.80    2.80
  -1   5   3   17.40    2.70
   1   5  -3   14.90    1.70
   0  -5   3  237.58   10.80
   0  -5  -3  234.68   10.80
   0  -5  -3  236.48   11.40
   0  -5   3  232.58   10.60
   0   5   3  239.58   11.30
   0   5  -3  233.08   10.90
   0   5  -3  226.58   10.20
   0   5   3  231.28   10.40
   0   5   3  227.88   10.80
   1  -5   3  150.28    7.70
  -1  -5  -3  159.58    8.90
   1  -5   3  150.08    7.90
  -1  -5  -3  159.98    7.60
   1   5   3  145.89    7.10
  -1   5  -3  143.09    8.10
  -1   5  -3  147.69    7.50
  -1   5  -3  145.89    7.20
   1   5   3  153.18    8.70
  -2  -5  -3   72.99    4.40
   2  -5   3   82.49    5.10
   2  -5   3   75.59    5.60
  -2  -5  -3   63.29    6.20
  -2  -5  -3   79.39    5.30
  -2   5  -3   65.39    6.10
  -2   5  -3   75.19    3.90
  -2   5  -3   78.59    5.10
   3  -5   3   12.60    3.30
   3  -5   3   13.80    3.00
  -3  -5  -3   14.90    3.60
  -3  -5  -3   14.30    2.40
  -3   5  -3    8.60    2.30
   3   5   3   11.10    1.90
   3   5   3   17.00    4.10
  -3   5  -3    9.40    2.00
   3   5   3   13.10    3.70
  -3   5  -3    7.00    2.90
   4  -5   3    4.90    2.80
  -4  -5  -3    1.70    2.10
   4  -5   3    5.80    2.90
  -4  -5  -3    6.40    3.70
   4   5   3   10.20    4.10
   4   5   3    3.70    2.30
  -4   5  -3    3.60    2.50
   4   5   3    3.60    3.20
  -5  -6   3   52.29    7.50
  -5  -6   3   54.39    5.20
   5  -6  -3   46.70    5.70
   5  -6  -3   60.79    5.70
   5   6  -3   48.50    5.30
  -5   6   3   50.59    4.90
  -5   6   3   51.39    5.10
   5   6  -3   59.79    6.30
  -4  -6   3   14.20    3.10
   4  -6  -3   13.30    2.90
  -4  -6   3   12.90    4.40
   4  -6  -3   12.70    3.40
  -4   6   3   21.10    2.90
  -4   6   3   14.20    3.20
  -4   6   3   18.20    3.40
   4   6  -3   16.00    3.50
   3  -6  -3   -0.10    2.20
  -3  -6   3    1.70    2.20
   3  -6  -3    2.90    1.80
  -3  -6   3    2.10    2.50
  -3  -6   3    1.90    3.30
  -3   6   3    3.90    2.20
   3   6  -3    1.40    1.60
  -3   6   3    2.70    1.50
   3   6  -3    3.20    1.90
  -3   6   3    0.10    1.70
  -2  -6   3  129.99    7.10
   2  -6  -3  133.69    7.10
  -2  -6   3  125.49    8.50
  -2  -6   3  125.09    8.00
  -2   6   3  135.89    7.40
   2   6  -3  143.69    6.50
  -2   6   3  125.69    6.30
  -2   6   3  132.29    7.20
   2   6  -3  137.09    7.40
   1  -6  -3   16.40    2.90
   1  -6  -3   14.10    2.30
  -1  -6   3   22.80    2.60
  -1  -6   3   14.60    2.60
  -1  -6   3   17.60    3.30
  -1   6   3   11.30    2.30
  -1   6   3   16.60    2.40
   1   6  -3   16.00    1.90
  -1   6   3   12.10    1.90
   1   6  -3   18.60    3.00
   0  -6  -3   57.19    4.80
   0  -6   3   50.59    3.90
   0  -6   3   54.89    3.90
   0  -6  -3   49.60    3.70
   0  -6   3   51.19    4.10
   0   6  -3   46.10    2.90
   0   6  -3   51.59    3.80
   0   6   3   48.50    3.70
   0   6   3   54.19    4.60
   0   6   3   49.50    3.40
   1  -6   3 1276.17   52.59
  -1  -6  -3 1170.18   53.49
   1  -6   3 1234.88   51.99
   1   6   3 1176.38   51.79
  -1   6  -3 1277.47   52.89
   1   6   3 1253.17   53.19
  -1   6  -3 1218.98   52.29
  -1   6  -3 1255.37   51.89
   1   6   3 1193.38   52.09
  -2  -6  -3   -0.50    2.40
   2  -6   3   -0.70    1.70
  -2  -6  -3    0.60    1.50
   2  -6   3   -1.20    2.20
  -2   6  -3    2.70    2.00
  -2   6  -3   -0.30    1.00
   2   6   3    0.10    1.10
  -2   6  -3    1.00    2.20
   3  -6   3  559.04   24.40
  -3  -6  -3  486.35   22.80
  -3   6  -3  524.75   24.60
   3   6   3  518.95   25.10
   3   6   3  497.05   22.20
  -3   6  -3  523.25   23.10
   4  -6   3   12.20    3.60
  -4  -6  -3    7.60    4.00
   4  -6   3    5.50    3.10
  -4  -6  -3   10.00    2.60
  -4   6  -3   16.40    4.00
   4   6   3   10.80    3.80
   4   6   3    4.40    3.30
  -4   6  -3   10.50    3.00
   5  -7  -3    5.60    5.40
   5  -7  -3    1.20    2.40
  -5  -7   3    3.30    4.50
  -5  -7   3    5.20    2.60
   5   7  -3    6.20    2.80
  -5   7   3   -0.30    2.40
   5   7  -3   -2.10    2.60
  -5   7   3    3.40    2.70
  -5   7   3    1.30    2.50
   4  -7  -3   -2.80    2.30
  -4  -7   3    2.40    2.40
  -4  -7   3    0.50    4.20
   4  -7  -3   -1.00    1.90
   4   7  -3   -3.60    2.10
  -4   7   3   -1.10    1.80
   4   7  -3    0.70    2.40
  -4   7   3   -1.10    1.90
  -4   7   3   -2.00    2.00
   3  -7  -3   58.29    4.80
  -3  -7   3   64.99    5.00
   3  -7  -3   59.49    4.70
  -3  -7   3   60.59    5.90
  -3  -7   3   56.79    6.70
  -3   7   3   58.39    5.10
   3   7  -3   65.09    4.40
  -3   7   3   59.69    4.10
  -3   7   3   64.49    4.80
   3   7  -3   66.59    5.30
  -2  -7   3   47.40    5.60
   2  -7  -3   38.90    3.60
  -2  -7   3   31.40    5.10
  -2  -7   3   42.80    3.90
  -2   7   3   46.70    3.80
   2   7  -3   43.80    3.10
  -2   7   3   46.30    4.10
   2   7  -3   42.20    4.10
  -2   7   3   41.70    2.90
  -1  -7   3  112.09    7.40
   1  -7  -3  119.69    6.10
  -1  -7   3  110.69    6.80
  -1  -7   3  117.39    6.20
  -1   7   3  114.09    6.40
  -1   7   3  119.49    5.70
   1   7  -3  114.49    5.70
   1   7  -3  117.19    6.60
  -1   7   3  121.69    6.60
   0  -7  -3  319.97   14.20
   0  -7   3  310.87   14.10
   0  -7   3  328.17   14.50
   0   7   3  307.97   14.80
   0   7   3  304.17   13.90
   0   7   3  307.17   14.10
   0   7  -3  322.47   14.50
   0   7  -3  303.67   13.60
  -1  -7  -3   14.20    3.20
   1  -7   3   12.00    2.40
  -1  -7  -3   11.60    2.30
   1  -7   3    9.90    2.60
   1   7   3   16.90    2.40
  -1   7  -3   10.80    2.40
  -1   7  -3   14.70    2.00
   1   7   3   14.70    1.90
  -1   7  -3   11.80    2.70
   1   7   3   15.60    3.20
  -2  -7  -3   27.80    4.50
   2  -7   3   35.30    3.90
   2  -7   3   35.30    3.90
  -2  -7  -3   33.70    4.10
  -2   7  -3   31.30    3.60
  -2   7  -3   29.60    2.10
   2   7   3   29.90    2.40
  -2   7  -3   33.30    4.40
  -3  -7  -3    4.10    1.70
   3  -7   3    4.20    2.60
  -3  -7  -3   10.40    3.90
  -3  -7  -3    5.40    3.30
   3  -7   3   -0.70    2.70
  -3   7  -3    1.60    2.00
  -3   7  -3    1.30    2.70
   3   7   3    7.40    1.50
   3   7   3   -3.00    2.70
   4  -7   3   -0.20    2.40
  -4  -7  -3    0.80    3.60
  -4  -7  -3    0.00    1.80
   4  -7   3    0.10    2.70
  -4   7  -3   -2.40    2.40
  -4   7  -3   -0.60    2.10
   4   7   3    0.30    2.90
   4   7   3    2.30    3.30
  -5  -8   3   26.70    4.20
   5  -8  -3   23.70    3.90
  -5  -8   3   21.60    6.00
   5  -8  -3   44.10    7.10
   5   8  -3   31.20    4.80
  -5   8   3   20.60    4.10
  -5   8   3   28.30    4.40
  -5   8   3   26.30    3.70
   5   8  -3   20.20    4.70
   5   8  -3   21.90    4.10
   4  -8  -3    7.10    2.90
  -4  -8   3    4.90    6.10
  -4  -8   3    1.70    3.90
  -4  -8   3    2.50    2.40
   4  -8  -3    3.80    2.40
  -4   8   3    5.60    2.60
   4   8  -3    3.20    2.60
   4   8  -3    0.90    2.40
  -4   8   3    6.90    2.40
  -4   8   3    2.90    2.30
  -3  -8   3   12.50    3.50
   3  -8  -3   18.70    3.00
   3  -8  -3   21.30    3.10
  -3  -8   3   11.80    3.90
  -3   8   3   15.30    3.10
  -3   8   3   14.50    2.80
  -3   8   3   21.70    2.90
   3   8  -3   24.10    3.10
   3   8  -3   13.70    3.10
  -2  -8   3   -1.10    1.80
  -2  -8   3    0.60    3.00
  -2  -8   3   -1.00    2.30
   2  -8  -3    1.00    1.60
  -2   8   3   -1.20    1.20
  -2   8   3   -2.80    1.40
   2   8  -3    0.00    1.40
   2   8  -3   -0.70    1.80
  -2   8   3    1.30    1.80
  -1  -8   3  133.39    6.90
  -1  -8   3  142.99    8.50
   1  -8  -3  137.29    6.90
  -1   8   3  134.69    6.60
  -1   8   3  123.09    7.10
   1   8  -3  142.99    6.60
  -1   8   3  136.89    7.50
   1   8  -3  136.99    7.50
   0  -8   3  300.57   14.30
   0  -8   3  317.67   14.50
   0  -8  -3  302.97   14.80
   0  -8  -3  317.97   13.90
   0   8   3  291.17   13.50
   0   8  -3  313.17   14.30
   0   8   3  305.07   14.60
   0   8  -3  283.07   13.30
   0   8   3  307.87   13.80
   1  -8   3  669.13   29.50
  -1  -8  -3  692.53   29.90
   1  -8   3  684.73   30.20
  -1  -8  -3  686.83   31.50
   1   8   3  652.93   29.10
   1   8   3  686.53   30.90
  -1   8  -3  709.83   30.50
   1   8   3  693.93   29.60
  -1   8  -3  681.93   29.40
   2  -8   3  214.48   10.80
  -2  -8  -3  176.98   11.60
   2  -8   3  200.08   10.10
  -2  -8  -3  199.88   10.60
   2   8   3  206.28    9.10
  -2   8  -3  198.88   10.50
   2   8   3  214.68   10.30
  -2   8  -3  209.98   11.20
  -3  -8  -3  279.17   15.10
  -3  -8  -3  317.97   16.40
   3  -8   3  311.67   14.30
  -3   8  -3  296.57   15.50
  -3   8  -3  314.07   14.10
   3   8   3  300.27   16.20
   3   8   3  266.57   13.00
  -4  -8  -3   64.29    5.00
   4  -8   3   65.29    6.30
   4  -8   3   57.39    5.50
  -4  -8  -3   46.50    6.50
   4   8   3   55.59    7.10
  -4   8  -3   62.79    5.40
  -4   8  -3   77.59    6.90
   4   8   3   59.49    6.90
  -5  -9   3    0.30    2.60
  -5  -9   3    2.60    4.60
   5  -9  -3   -3.10    2.30
  -5   9   3    0.60    2.60
   5   9  -3    2.70    3.30
  -5   9   3   -0.40    2.50
  -5   9   3   -0.60    2.50
   5   9  -3    0.50    2.70
   5   9  -3    1.50    2.60
  -4  -9   3   -2.10    3.00
   4  -9  -3    2.00    2.30
   4  -9  -3    0.50    2.40
  -4  -9   3   -2.50    2.20
  -4  -9   3    2.50    4.10
  -4   9   3    1.90    2.40
  -4   9   3   -0.70    2.20
   4   9  -3   -1.30    2.40
  -4   9   3    0.70    2.40
   3  -9  -3   31.90    3.40
  -3  -9   3   37.20    5.50
  -3  -9   3   46.30    4.40
   3  -9  -3   32.70    4.20
  -3  -9   3   26.40    5.30
   3   9  -3   32.00    4.60
  -3   9   3   38.30    4.10
   3   9  -3   39.70    3.90
  -3   9   3   34.00    4.40
  -3   9   3   37.70    3.50
  -2  -9   3   52.59    5.30
   2  -9  -3   59.39    5.00
  -2  -9   3   48.40    4.30
  -2  -9   3   49.40    5.80
   2  -9  -3   53.79    3.80
   2   9  -3   56.19    3.90
   2   9  -3   51.79    4.70
  -2   9   3   56.49    3.60
  -2   9   3   58.99    4.60
  -2   9   3   54.59    4.40
   1  -9  -3    1.40    2.30
   1  -9  -3    2.50    1.70
  -1  -9   3    3.80    2.80
  -1  -9   3    1.60    2.20
  -1  -9   3    2.30    1.80
   1   9  -3    0.50    1.50
  -1   9   3    1.30    1.80
  -1   9   3    1.70    1.50
   1   9  -3    3.00    2.10
  -1   9   3    1.20    2.20
   0  -9  -3  330.57   14.80
   0  -9   3  329.87   15.30
   0  -9  -3  307.67   15.70
   0  -9   3  322.07   14.60
   0  -9   3  337.07   15.50
   0   9  -3  332.17   15.20
   0   9   3  332.47   15.60
   0   9   3  311.97   14.50
   0   9   3  315.97   14.50
   0   9  -3  323.57   14.30
  -1  -9  -3    1.60    2.00
   1  -9   3    2.60    2.60
   1  -9   3    2.40    2.00
  -1  -9  -3    2.40    2.90
  -1   9  -3    4.80    1.60
   1   9   3    3.30    1.30
   1   9   3    1.90    2.60
  -1   9  -3    4.10    2.50
  -1   9  -3    2.40    2.30
   1   9   3    4.50    1.90
   2  -9   3    1.50    2.30
  -2  -9  -3    0.60    2.80
   2  -9   3    1.60    2.20
  -2  -9  -3    1.10    2.80
   2   9   3    0.10    2.10
  -2   9  -3   -0.90    2.20
  -2   9  -3    0.20    1.90
   3  -9   3   36.40    4.50
  -3  -9  -3   29.50    5.30
   3  -9   3   38.70    6.00
  -3  -9  -3   32.70    5.30
   3   9   3   37.10    5.60
  -3   9  -3   25.50    4.50
  -3   9  -3   36.30    4.30
   3   9   3   41.10    4.50
   4  -9   3   23.30    4.60
  -4  -9  -3   24.20    5.30
   4  -9   3   34.80    4.80
  -4   9  -3   26.60    4.80
  -4   9  -3   30.00    4.00
   4   9   3   19.20    4.60
   5 -10  -3    8.10    3.50
  -5 -10   3    7.30    3.10
  -5 -10   3    8.70    5.10
   5  10  -3    7.30    3.30
  -5  10   3    3.80    2.60
  -5  10   3    5.50    2.70
  -5  10   3    1.60    2.50
   5  10  -3    0.90    2.80
  -4 -10   3   27.80    3.70
  -4 -10   3   30.70    5.40
   4 -10  -3   21.60    3.00
  -4 -10   3   18.60    5.30
   4 -10  -3   25.80    4.00
   4  10  -3   19.20    3.20
  -4  10   3   26.70    4.40
  -4  10   3   30.10    3.60
  -4  10   3   20.40    3.30
   4  10  -3    9.70    3.50
   3 -10  -3   19.80    3.30
  -3 -10   3   14.80    4.10
   3 -10  -3   19.00    2.80
  -3 -10   3   15.50    4.40
  -3 -10   3   20.60    3.30
  -3  10   3   23.20    3.60
   3  10  -3   14.70    3.40
  -3  10   3   19.50    3.70
  -3  10   3   27.10    3.30
   3  10  -3   20.10    2.90
  -2 -10   3   -0.90    3.10
  -2 -10   3    1.00    2.50
   2 -10  -3    0.70    2.30
  -2 -10   3    3.90    2.20
   2 -10  -3    2.80    1.80
   2  10  -3    0.50    2.30
   2  10  -3    2.20    1.80
  -2  10   3    1.00    2.00
  -2  10   3   -0.50    1.60
  -2  10   3   -0.40    1.40
  -1 -10   3   69.49    4.60
  -1 -10   3   55.29    6.10
   1 -10  -3   73.79    4.50
  -1 -10   3   67.09    5.80
   1 -10  -3   70.39    5.80
   1  10  -3   75.29    4.30
  -1  10   3   66.49    5.30
   1  10  -3   69.49    5.20
  -1  10   3   71.59    4.30
  -1  10   3   72.39    4.70
   0 -10  -3  117.59    7.60
   0 -10   3  126.09    7.30
   0 -10  -3   92.19    6.50
   0 -10   3  120.29    7.40
   0 -10   3  118.79    6.40
   0  10   3  120.19    6.10
   0  10   3  113.49    7.30
   0  10  -3  121.09    6.00
   0  10  -3  119.79    6.80
   0  10   3  116.59    6.20
  -1 -10  -3    6.90    3.30
  -1 -10  -3    5.00    2.40
   1 -10   3    7.40    2.40
   1 -10   3    4.80    2.70
  -1  10  -3    3.90    2.50
   1  10   3    0.80    1.90
   1  10   3    5.00    1.30
   1  10   3    1.50    2.40
  -1  10  -3    3.80    1.70
  -2 -10  -3   15.00    3.50
   2 -10   3   14.70    3.00
   2 -10   3   24.30    3.80
  -2 -10  -3   14.40    4.00
  -2  10  -3   21.50    3.40
   2  10   3   17.80    6.40
  -2  10  -3   16.50    3.90
   2  10   3   12.30    2.60
  -3 -10  -3    5.60    4.60
   3 -10   3    7.30    3.00
   3 -10   3    3.70    2.70
  -3 -10  -3    5.80    3.30
   3  10   3    2.10    2.60
  -3  10  -3    9.20    3.60
   3  10   3    1.20    2.90
  -3  10  -3    1.40    2.30
  -4 -10  -3    1.50    3.80
   4 -10   3   -0.40    2.80
   4 -10   3    2.70    3.00
  -4  10  -3    2.70    2.70
   4  10   3    0.10    2.70
  -4  10  -3    6.40    3.40
   4  10   3    3.30    3.60
  -4 -11   3    3.90    2.50
  -4 -11   3    6.10    3.90
  -4 -11   3    2.60    4.20
   4 -11  -3    9.80    3.20
   4  11  -3    2.80    2.70
  -4  11   3    7.10    2.90
   4  11  -3    2.70    2.80
  -4  11   3    8.30    2.80
  -4  11   3    0.10    2.60
   3 -11  -3   25.40    3.90
   3 -11  -3   24.30    3.00
  -3 -11   3   15.30    4.60
  -3 -11   3   31.20    4.30
  -3 -11   3   23.20    4.50
   3  11  -3   31.10    4.80
   3  11  -3   26.50    3.80
  -3  11   3   37.00    4.30
  -3  11   3   28.30    4.20
  -3  11   3   34.50    3.70
   2 -11  -3    2.40    1.80
  -2 -11   3    0.40    3.00
   2 -11  -3    1.50    2.60
  -2 -11   3   -3.20    3.10
  -2  11   3    0.10    1.90
   2  11  -3    2.30    2.50
  -2  11   3    0.00    1.50
   2  11  -3   -0.50    1.90
  -2  11   3    3.10    2.10
  -1 -11   3    2.40    2.70
   1 -11  -3    0.00    2.40
  -1 -11   3   -1.00    2.90
   1 -11  -3   -1.00    1.70
  -1 -11   3    0.30    1.90
  -1  11   3    0.30    2.40
  -1  11   3   -0.60    1.60
   1  11  -3   -1.20    1.50
   1  11  -3    1.10    2.20
  -1  11   3   -2.50    1.60
   0 -11   3   95.09    6.80
   0 -11   3   89.59    5.70
   0 -11  -3  103.19    7.10
   0 -11   3   95.69    6.60
   0 -11  -3   92.99    5.80
   0  11  -3   94.69    5.20
   0  11   3  102.79    5.70
   0  11  -3   95.59    6.20
   0  11   3   91.19    5.50
   0  11   3   97.59    6.60
  -1 -11  -3   24.10    4.20
  -1 -11  -3   28.20    3.80
   1 -11   3   38.20    5.20
   1 -11   3   32.20    4.30
   1  11   3   29.80    2.20
   1  11   3   27.60    4.70
  -1  11  -3   31.00    3.10
   1  11   3   30.90    3.70
  -1  11  -3   26.60    4.00
   2 -11   3    2.60    3.00
  -2 -11  -3   -0.60    3.00
   2 -11   3    3.90    2.40
  -2 -11  -3    5.10    3.40
   2  11   3    1.40    2.30
  -2  11  -3    0.80    3.30
   2  11   3   -1.10    2.90
  -2  11  -3   -0.50    2.30
   3 -11   3    5.80    3.00
  -3 -11  -3    2.20    3.00
  -3 -11  -3   12.80    4.00
   3  11   3   14.30    3.20
   3  11   3    9.40    3.50
  -3  11  -3    6.30    2.40
   4 -11   3    6.20    2.80
   4 -11   3   15.80    3.90
  -4 -11  -3   12.50    4.80
  -4 -11  -3   15.80    5.00
  -4  11  -3    0.40    2.90
   4  11   3   12.60    4.80
  -4  11  -3   11.20    2.90
   4  11   3   10.30    3.60
   4 -12  -3   11.10    4.30
  -4 -12   3    9.30    3.20
  -4 -12   3    0.50    4.00
  -4 -12   3   12.70    4.50
   4  12  -3   12.80    3.30
  -4  12   3   11.90    3.00
   4  12  -3    9.70    3.50
  -4  12   3    4.80    2.80
   3 -12  -3    4.00    1.90
  -3 -12   3    6.20    2.80
  -3 -12   3   -0.20    4.10
   3 -12  -3    6.40    3.00
  -3 -12   3    4.10    3.60
  -3  12   3    3.70    2.40
   3  12  -3   -1.00    2.20
   3  12  -3    1.80    2.30
  -3  12   3    3.40    2.10
  -2 -12   3   28.70    3.40
  -2 -12   3   22.50    4.70
   2 -12  -3   25.00    3.10
  -2 -12   3   24.20    5.20
   2 -12  -3   24.80    4.00
   2  12  -3   27.90    3.70
  -2  12   3   21.00    3.10
   2  12  -3   19.20    3.80
  -2  12   3   30.60    3.80
  -1 -12   3    2.50    2.80
  -1 -12   3    1.90    3.20
  -1 -12   3    2.80    2.10
   1 -12  -3    4.10    2.10
   1 -12  -3    3.10    2.70
   1  12  -3    3.50    2.50
  -1  12   3    2.70    2.40
   1  12  -3    2.90    1.90
  -1  12   3    2.10    1.80
  -1  12   3    3.10    1.80
   0 -12   3    0.90    2.50
   0 -12   3    0.90    2.70
   0 -12  -3    2.90    2.20
   0 -12   3    3.40    2.50
   0 -12  -3    1.80    2.50
   0  12  -3    5.90    2.40
   0  12   3    1.60    1.50
   0  12  -3    2.30    1.80
   0  12   3    3.00    2.00
   0  12   3    2.40    2.70
   1 -12   3   49.40    5.00
  -1 -12  -3   40.80    4.60
  -1 -12  -3   45.10    5.70
   1 -12   3   31.40    3.40
   1 -12   3   37.20    4.60
   1  12   3   43.40    4.20
   1  12   3   43.00    2.50
  -1  12  -3   42.70    3.50
  -1  12  -3   39.30    4.50
   1  12   3   42.00    5.10
   2 -12   3    4.50    2.80
  -2 -12  -3    5.30    4.50
  -2 -12  -3    3.60    3.20
   2 -12   3    5.30    3.10
   2  12   3    4.00    2.40
   2  12   3    4.10    3.30
  -2  12  -3    4.40    2.80
   3 -12   3    5.80    2.80
  -3 -12  -3    5.80    4.00
   3 -12   3   11.80    3.60
  -3 -12  -3    7.40    3.80
   3  12   3    8.00    3.70
   3  12   3   15.50    3.60
  -3  12  -3    3.70    2.30
  -3  12  -3    0.40    3.10
   4 -13  -3   65.09    8.50
  -4 -13   3  101.69    8.90
  -4 -13   3   76.19    8.70
   4  13  -3   65.29    7.00
  -4  13   3   90.79    6.20
   4  13  -3   84.09    6.30
  -4  13   3   76.49    7.60
  -4  13   3   87.29    6.20
  -3 -13   3   -0.40    3.90
   3 -13  -3    2.00    1.90
  -3 -13   3    7.70    2.70
  -3 -13   3    0.00    3.60
   3 -13  -3   -0.80    2.90
   3  13  -3    3.90    2.90
  -3  13   3    0.30    2.30
  -3  13   3    4.10    2.50
  -3  13   3    3.80    2.20
   3  13  -3    2.70    2.40
  -2 -13   3   65.19    6.80
   2 -13  -3   60.39    4.50
  -2 -13   3   57.19    4.90
   2 -13  -3   59.49    5.90
  -2 -13   3   56.99    7.10
   2  13  -3   61.09    4.80
  -2  13   3   50.79    5.20
  -2  13   3   66.89    5.10
   2  13  -3   55.09    5.80
  -2  13   3   69.99    4.50
  -1 -13   3    5.50    3.50
   1 -13  -3   -0.60    2.10
  -1 -13   3   -0.30    2.10
  -1 -13   3   -0.70    3.00
   1 -13  -3    3.40    2.80
   1  13  -3    0.40    2.00
  -1  13   3    0.00    1.80
  -1  13   3   -1.80    2.50
   1  13  -3    0.70    2.50
  -1  13   3   -0.50    1.80
   0 -13   3   -1.40    2.70
   0 -13  -3    5.70    3.10
   0 -13   3    2.90    2.70
   0 -13   3    0.40    2.70
   0 -13  -3    0.20    2.30
   0  13   3    3.00    1.60
   0  13   3    3.50    3.00
   0  13  -3    2.10    1.80
   0  13  -3    1.30    2.10
   0  13   3    4.10    2.20
   1 -13   3    9.40    2.40
  -1 -13  -3    5.40    3.10
  -1 -13  -3    9.10    3.60
   1 -13   3    7.80    3.30
   1 -13   3    6.30    3.10
   1  13   3    5.80    3.10
   1  13   3    7.80    2.50
  -1  13  -3    9.80    2.30
  -1  13  -3   11.00    3.10
  -2 -13  -3   31.00    5.20
   2 -13   3   29.70    4.60
   2 -13   3   31.10    4.60
  -2 -13  -3   28.80    6.80
   2  13   3   33.10    5.20
   2  13   3   33.10    4.50
  -2  13  -3   25.90    4.40
  -2  13  -3   27.30    5.30
   3 -13   3   19.40    4.10
   3 -13   3   17.10    3.50
  -3 -13  -3    9.90    3.50
  -3 -13  -3   17.20    4.30
   3  13   3   19.80    4.70
   3  13   3   19.70    3.50
  -3  13  -3   14.00    3.10
  -3  13  -3   13.80    3.70
  -4 -14   3   -0.80    3.70
  -4 -14   3    5.10    4.80
   4 -14  -3    3.60    3.00
  -4  14   3    6.60    2.90
  -4  14   3    7.50    2.90
   4  14  -3    4.50    3.00
   4  14  -3   -2.50    2.60
  -4  14   3    4.80    3.00
   3 -14  -3    8.00    2.40
  -3 -14   3    8.30    4.30
   3 -14  -3    8.00    3.50
  -3 -14   3   15.10    5.00
  -3 -14   3   13.90    3.10
   3  14  -3   15.70    3.10
   3  14  -3    4.90    3.10
  -3  14   3   13.80    3.00
  -3  14   3    8.00    2.40
  -3  14   3    5.20    2.90
   2 -14  -3   30.80    5.10
  -2 -14   3   37.40    6.10
   2 -14  -3   37.80    3.80
  -2 -14   3   33.20    4.10
  -2 -14   3   38.50    6.30
   2  14  -3   37.80    5.30
   2  14  -3   37.60    4.10
  -2  14   3   33.60    4.20
  -2  14   3   36.90    3.70
  -2  14   3   24.70    4.30
  -1 -14   3    4.70    3.60
  -1 -14   3    3.90    3.60
   1 -14  -3    5.10    3.10
  -1 -14   3    7.80    2.50
   1 -14  -3    4.40    2.40
   1  14  -3    5.50    2.90
  -1  14   3    4.50    2.20
  -1  14   3    3.60    3.00
  -1  14   3    4.70    2.10
   1  14  -3    6.30    2.30
   0 -14   3   59.59    6.30
   0 -14  -3   48.50    4.70
   0 -14  -3   54.19    6.00
   0 -14   3   67.99    6.40
   0 -14   3   67.89    5.10
   0  14   3   50.49    3.80
   0  14  -3   53.09    4.10
   0  14   3   48.60    5.60
   0  14   3   54.59    4.40
   0  14  -3   50.59    5.00
   1 -14   3   11.30    3.50
  -1 -14  -3   16.60    3.90
   1 -14   3   22.30    3.20
  -1 -14  -3   15.50    2.50
  -1 -14  -3   13.60    3.50
   1 -14   3   19.20    3.50
   1  14   3   18.50    4.00
  -1  14  -3   14.70    3.50
  -1  14  -3   21.70    3.20
   1  14   3   16.60    2.90
   2 -14   3    3.20    2.90
  -2 -14  -3    3.40    3.50
   2 -14   3    5.90    3.40
   2  14   3    2.90    2.80
  -2  14  -3   10.40    3.50
   2  14   3    7.10    3.60
  -3 -14  -3   15.60    4.10
   3 -14   3   10.10    3.30
  -3 -14  -3    7.40    3.90
   3 -14   3   17.20    4.10
  -3  14  -3    5.40    3.20
  -3  14  -3    7.50    2.60
   3  14   3   14.20    3.40
   3  14   3   14.50    4.20
  -3 -15   3   21.10    3.60
   3 -15  -3   19.70    4.20
  -3 -15   3   10.80    4.50
   3 -15  -3   15.10    2.90
   3  15  -3   19.40    3.40
  -3  15   3   11.60    3.10
   3  15  -3    8.90    3.60
  -3  15   3   12.10    2.70
  -3  15   3   20.00    3.40
   2 -15  -3   14.50    4.10
   2 -15  -3   12.10    2.80
  -2 -15   3   11.20    4.50
  -2 -15   3   12.50    4.30
  -2 -15   3   13.50    3.00
   2  15  -3   17.90    3.10
   2  15  -3   10.20    3.50
  -2  15   3   12.00    2.40
  -2  15   3   15.90    2.80
  -2  15   3    4.20    2.40
  -1 -15   3  254.47   14.70
  -1 -15   3  276.37   12.70
   1 -15  -3  249.48   14.20
  -1 -15   3  253.77   14.80
   1 -15  -3  251.77   12.90
   1  15  -3  271.97   12.40
  -1  15   3  257.97   13.80
  -1  15   3  292.27   13.20
   1  15  -3  255.37   13.60
  -1  15   3  265.07   12.40
   0 -15   3   52.79    6.00
   0 -15  -3   44.30    5.80
   0 -15  -3   42.10    4.90
   0 -15   3   49.80    5.00
   0 -15   3   46.60    6.00
   0  15   3   42.40    5.40
   0  15  -3   36.40    4.60
   0  15   3   41.00    4.10
   0  15  -3   43.30    3.90
   1 -15   3  155.88    9.80
  -1 -15  -3  153.08   10.20
   1 -15   3  155.78    8.60
   1 -15   3  169.08    8.60
   1  15   3  128.79    9.40
   1  15   3  150.68    8.40
  -1  15  -3  137.49    9.10
  -1  15  -3  158.58    8.00
  -2 -15  -3   -1.30    5.20
   2 -15   3    7.10    3.70
   2 -15   3   -2.80    2.90
  -2 -15  -3   -1.10    3.00
   2  15   3    0.40    2.70
  -2  15  -3   -1.60    2.40
   2  15   3    2.20    3.10
   3 -15   3    2.20    3.20
  -3 -15  -3    2.40    3.70
  -3 -15  -3    3.60    3.90
   3 -15   3    4.10    3.10
  -3  15  -3    3.30    3.00
  -3  15  -3   -0.40    2.20
   3  15   3    2.40    3.00
   3  15   3   -2.50    2.80
   3 -16  -3   26.20    4.70
   3 -16  -3   24.10    4.90
  -3 -16   3   11.00    4.80
  -3 -16   3   14.70    4.50
  -3  16   3   28.00    3.70
  -3  16   3   16.00    3.80
   3  16  -3   21.10    3.50
   3  16  -3   10.50    5.40
   2 -16  -3   14.20    3.00
  -2 -16   3    8.10    2.90
  -2 -16   3    4.10    4.10
   2 -16  -3    7.70    3.70
  -2 -16   3   10.10    4.60
  -2  16   3    7.50    2.30
   2  16  -3   10.50    2.80
   2  16  -3    9.10    3.50
  -2  16   3    5.30    2.50
  -2  16   3    7.30    2.50
   1 -16  -3    1.90    2.60
  -1 -16   3    0.30    3.60
  -1 -16   3   -0.30    3.80
  -1 -16   3    1.20    2.50
   1 -16  -3    4.50    3.20
   1  16  -3    0.00    2.70
   1  16  -3   -0.80    2.10
  -1  16   3    0.80    2.10
  -1  16   3    0.00    2.60
   0 -16  -3   13.90    3.60
   0 -16   3   26.30    5.10
   0 -16   3   18.40    4.40
   0 -16  -3   13.80    3.70
   0 -16   3   22.80    3.60
   0  16   3   16.10    2.90
   0  16   3   13.00    3.40
   0  16  -3   13.10    3.20
  -1 -16  -3  100.59    8.30
   1 -16   3   89.59    7.60
   1 -16   3  100.59    6.60
   1 -16   3   94.69    6.80
  -1 -16  -3   77.89    7.10
  -1  16  -3   97.19    5.80
   1  16   3   91.09    7.50
  -1  16  -3   79.39    6.80
   1  16   3   81.99    6.20
   2 -16   3   22.40    4.20
  -2 -16  -3   11.00    5.00
  -2 -16  -3   16.10    4.20
   2 -16   3   16.50    3.80
  -2  16  -3   14.60    3.50
   2  16   3    9.10    3.40
   2  16   3    8.10    2.70
  -3 -17   3    2.50    4.10
  -3 -17   3    5.90    4.70
   3 -17  -3    0.30    3.20
   3  17  -3    1.70    3.00
  -3  17   3   -1.40    2.30
  -3  17   3    0.00    2.30
   3  17  -3   -2.30    2.90
  -2 -17   3    0.20    4.10
  -2 -17   3    3.50    2.70
  -2 -17   3    6.50    4.50
   2 -17  -3   -2.10    2.50
   2 -17  -3    5.60    3.60
   2  17  -3   -1.40    2.70
   2  17  -3    3.60    2.50
  -2  17   3    0.00    2.00
  -2  17   3    2.20    2.10
  -1 -17   3    7.60    2.80
   1 -17  -3    5.80    3.50
   1 -17  -3    7.10    3.20
  -1 -17   3    4.80    4.20
  -1 -17   3    6.10    4.00
   1  17  -3    7.00    3.50
  -1  17   3    2.40    2.50
  -1  17   3    7.10    2.60
   1  17  -3   11.30    2.60
   0 -17   3   47.70    6.50
   0 -17   3   49.20    6.70
   0 -17  -3   48.80    5.10
   0 -17  -3   50.69    6.20
   0 -17  -3   46.80    5.50
   0 -17   3   43.70    5.10
   0  17   3   39.20    5.50
   0  17   3   46.70    4.70
   0  17  -3   46.90    5.10
   0  17  -3   49.90    4.30
   1 -17   3    8.60    4.40
  -1 -17  -3    4.40    3.30
   1 -17   3    4.50    3.40
  -1 -17  -3    5.40    3.50
   1 -17   3    6.80    3.80
  -1  17  -3    8.60    3.30
   1  17   3    4.90    3.40
  -1  17  -3    8.50    2.40
   1  17   3    0.00    2.40
  -2 -17  -3   -3.30    3.30
   2 -17   3    2.70    3.40
   2 -17   3   -4.50    3.40
  -2 -17  -3    0.60    3.50
   2  17   3    0.90    3.10
   2  17   3    1.70    2.70
  -2  17  -3    1.30    2.90
  -2 -18   3    1.30    4.20
  -2 -18   3    4.10    4.50
   2 -18  -3    0.60    2.90
   2 -18  -3    0.40    3.50
   2  18  -3    2.50    3.20
  -2  18   3   -0.30    2.40
  -2  18   3    2.00    2.30
   2  18  -3    2.40    3.00
  -1 -18   3   33.50    6.30
   1 -18  -3   35.80    5.60
   1 -18  -3   48.60    6.10
  -1 -18   3   37.60    5.90
  -1 -18   3   46.40    4.80
   1 -18  -3   41.60    6.10
   1  18  -3   48.70    4.30
  -1  18   3   36.00    5.00
   1  18  -3   33.90    5.30
  -1  18   3   42.70    4.70
   0 -18  -3   -0.20    3.20
   0 -18   3    1.90    3.80
   0 -18   3    3.20    4.00
   0 -18  -3   -1.40    3.10
   0  18  -3    2.70    2.30
   0  18  -3   -1.00    2.40
   0  18   3   -0.20    2.60
   0  18   3    1.10    3.00
   1 -18   3    2.20    3.10
  -1 -18  -3    2.30    3.50
  -1 -18  -3    2.70    3.40
   1 -18   3   -0.20    3.30
   1 -18   3   -1.10    3.30
   1  18   3   -3.40    3.10
   1  18   3   -3.70    2.60
  -1  18  -3    1.80    2.40
  -1  18  -3   -0.80    2.60
   2 -18   3   -0.20    3.70
  -2 -18  -3    0.90    3.30
  -2  18  -3   -1.80    2.60
   2 -19  -3    3.70    4.90
   2 -19  -3    1.50    3.10
  -2 -19   3    5.50    5.20
  -2 -19   3    3.80    4.30
   2 -19  -3    5.40    4.10
  -2  19   3   -0.20    2.30
  -2  19   3    3.40    2.40
   2  19  -3    4.20    3.40
   2  19  -3    3.40    3.00
  -1 -19   3   -3.60    3.80
  -1 -19   3    2.30    2.80
   1 -19  -3   -3.30    3.20
  -1 -19   3    0.50    4.00
   1 -19  -3   -0.70    3.10
   1 -19  -3    2.00    3.90
  -1  19   3   -1.10    2.50
   1  19  -3    1.70    2.80
  -1  19   3    1.10    2.40
   1  19  -3   -0.50    2.50
   0 -19   3    1.70    4.00
   0 -19   3    1.60    3.10
   0 -19   3   -4.90    3.40
   0 -19  -3   -1.40    3.80
   0 -19  -3   -0.80    3.30
   0 -19  -3    6.10    3.90
   0  19   3   -1.20    2.80
   0  19  -3   -0.40    2.40
   0  19   3   -2.30    2.40
   0  19  -3   -0.30    2.20
   1 -19   3   -3.50    3.50
  -1 -19  -3    0.50    3.30
  -1 -19  -3    5.80    3.90
   1 -19   3    1.40    3.50
  -1  19  -3    0.30    2.90
   1  19   3    0.80    3.00
  -1  19  -3    2.70    2.40
   1  19   3    0.60    2.70
   0 -20  -3   10.10    4.10
   0 -20   3   19.00    5.20
   0 -20   3   12.20    3.50
   0  20   3   22.10    3.60
   0  20  -3   14.50    3.60
   0  20  -3   19.90    3.20
   5   0  -4    1.50    2.50
  -5   0   4   -1.20    1.60
   5   0  -4    1.50    1.90
  -5   0   4    1.50    2.70
  -5   0   4    0.70    3.10
   4   0  -4   29.60    3.50
  -4   0   4   30.70    4.20
  -4   0   4   40.60    5.20
   4   0  -4   30.70    4.40
  -4   0   4   24.70    2.90
   3   0  -4   -0.40    1.30
  -3   0   4   -0.60    2.10
  -3   0   4   -0.40    0.90
   3   0  -4   -1.60    1.50
  -2   0   4    2.70    0.60
   2   0  -4    2.20    0.50
   2   0  -4    4.00    1.10
  -2   0   4    2.40    2.50
   2   0  -4    2.10    2.90
   2   0  -4    3.10    1.00
   1   0  -4    1.90    2.80
  -1   0   4   -0.40    2.00
   0   0   4    1.80    2.00
   0   0   4    1.10    1.60
   0   0   4    0.20    1.20
   0   0  -4    0.10    2.00
   0   0  -4    1.60    0.90
   1   0   4   -2.40    1.50
  -1   0  -4    0.40    1.60
  -1   0  -4   -0.10    1.30
   1   0   4    1.00    2.00
  -2   0  -4    1.70    1.80
   2   0   4   -1.20    2.00
   2   0   4    5.00    2.20
   2   0   4    0.30    2.50
  -2   0  -4    3.60    1.90
   3   0   4    1.80    2.80
  -3   0  -4   -0.30    2.00
  -3   0  -4   -1.60    2.40
   3   0   4   -1.10    2.50
   3   0   4    0.00    2.40
   4   0   4   21.50    4.30
  -4   0  -4   18.90    4.10
  -4   0  -4   28.10    3.60
   4   0   4   18.70    4.20
   4   0   4   13.20    3.70
   5  -1  -4    2.60    2.20
  -5  -1   4    0.40    2.60
  -5  -1   4    1.70    1.80
  -5  -1   4    2.40    3.40
   5  -1  -4    2.90    2.90
  -5   1   4   -1.10    1.70
  -5   1   4    3.00    2.60
   5   1  -4    3.00    2.10
   5   1  -4   -2.90    2.10
  -4  -1   4  349.57   17.00
   4  -1  -4  351.76   16.80
  -4  -1   4  351.76   17.60
   4  -1  -4  350.66   17.60
  -4  -1   4  344.37   15.80
  -4   1   4  351.06   17.10
   4   1  -4  357.06   16.90
  -4   1   4  348.67   15.90
   4   1  -4  380.46   17.60
   3  -1  -4   17.80    2.60
  -3  -1   4   13.00    3.00
  -3  -1   4   15.70    1.80
   3  -1  -4   14.70    2.50
  -3  -1   4   12.80    3.20
   3   1  -4   15.90    2.80
   3   1  -4   18.30    2.50
  -3   1   4   15.60    1.90
  -3   1   4   15.00    3.00
   2  -1  -4  731.03   32.30
   2  -1  -4  781.82   34.30
  -2  -1   4  774.52   33.60
   2  -1  -4  787.12   32.60
   2  -1  -4  792.02   32.80
  -2   1   4  779.82   33.70
   2   1  -4  707.13   32.30
   2   1  -4  773.32   32.50
  -2   1   4  767.52   32.40
   2   1  -4  814.02   32.70
  -1  -1   4  147.29    7.80
   1  -1  -4  157.28    8.80
   1   1  -4  148.49    8.70
  -1   1   4  151.18    7.90
   0  -1  -4   38.40    3.80
   0  -1   4   34.40    2.80
   0  -1   4   37.20    3.50
   0  -1  -4   32.80    2.20
   0  -1   4   35.10    3.20
   0   1  -4   34.20    2.20
   0   1   4   37.10    2.90
   0   1   4   34.20    3.30
   0   1  -4   30.20    4.50
   0   1   4   36.50    3.50
   1  -1   4   38.30    4.20
  -1  -1  -4   34.30    3.20
   1  -1   4   28.00    3.30
  -1  -1  -4   34.30    2.60
   1   1   4   30.80    3.10
  -1   1  -4   36.40    2.80
   1   1   4   23.30    3.70
  -1   1  -4   30.70    3.10
   1   1   4   33.60    4.00
  -2  -1  -4   17.90    2.80
   2  -1   4   23.10    3.00
   2  -1   4   19.80    3.20
  -2  -1  -4   23.60    3.10
   2  -1   4   24.80    4.10
   2   1   4   19.40    3.40
   2   1   4   22.40    4.20
   2   1   4   21.70    3.00
  -2   1  -4   17.70    2.80
  -2   1  -4   12.20    2.30
   3  -1   4   -0.60    2.10
  -3  -1  -4   -1.00    2.00
  -3  -1  -4    0.10    2.60
   3  -1   4   -1.50    2.50
   3  -1   4    2.70    2.90
   3   1   4   -1.50    2.30
  -3   1  -4   -1.40    2.30
   3   1   4    2.50    2.70
   3   1   4    2.10    3.00
  -3   1  -4    2.90    2.20
  -4  -1  -4    0.70    3.30
   4  -1   4   -4.00    2.20
   4  -1   4   -1.60    3.00
   4  -1   4    1.90    2.90
  -4  -1  -4    0.10    2.30
   4   1   4   -1.60    2.40
  -4   1  -4    0.40    2.40
  -4   1  -4   -2.40    2.50
   4   1   4   -0.60    2.90
   4   1   4    0.10    2.70
   5  -2  -4  112.29    7.30
   5  -2  -4  112.49    8.40
  -5  -2   4  113.99    7.80
  -5  -2   4  117.49    6.40
  -5  -2   4  118.29    8.70
  -5   2   4   97.49    7.40
   5   2  -4  111.29    7.70
  -5   2   4  111.79    6.50
   5   2  -4  103.09    8.40
  -4  -2   4   77.79    6.70
  -4  -2   4   81.59    4.60
   4  -2  -4   76.89    6.10
   4  -2  -4   73.79    5.30
  -4  -2   4   84.19    6.20
   4   2  -4   78.29    5.70
  -4   2   4   82.09    6.20
  -4   2   4   74.89    4.80
   4   2  -4   75.09    6.30
  -3  -2   4  152.38    7.20
  -3  -2   4  127.19   11.00
   3  -2  -4  161.58    8.60
   3  -2  -4  163.78    7.90
  -3  -2   4  158.98    8.90
   3  -2  -4  152.08    9.50
   3   2  -4  151.68    8.30
  -3   2   4  155.08    7.30
   3   2  -4  158.48    8.00
  -3   2   4  163.18    8.90
  -2  -2   4  273.47   13.40
   2  -2  -4  283.17   12.20
  -2  -2   4  269.27   13.30
   2  -2  -4  274.47   13.80
   2   2  -4  256.07   11.80
  -2   2   4  281.07   11.90
   2   2  -4  258.97   11.90
   2   2  -4  289.57   12.20
  -2   2   4  284.87   13.40
  -2   2   4  280.17   12.40
   2   2  -4  296.97   12.30
  -1  -2   4  232.88   10.90
   1  -2  -4  244.08   11.70
   1  -2  -4  229.68   10.10
  -1   2   4  228.18    9.90
   1   2  -4  236.78   12.10
  -1   2   4  221.58    9.70
  -1   2   4  215.78    9.70
  -1   2   4  227.48   11.10
   0  -2   4    3.40    1.30
   0  -2   4    2.10    1.90
   0  -2  -4    1.90    2.00
   0   2  -4    3.20    2.80
   0   2  -4    3.70    1.00
   0   2   4    4.30    2.00
   0   2   4    2.50    1.80
   0   2  -4    3.20    1.50
   1  -2   4  166.48    8.20
  -1  -2  -4  176.88    8.40
   1  -2   4  174.38    8.80
  -1  -2  -4  171.48    7.90
   1   2   4  168.88    8.10
  -1   2  -4  162.98    7.90
  -1   2  -4  163.28    8.30
   1   2   4  165.78    9.20
   1   2   4  158.08    8.90
   2  -2   4    1.10    2.00
   2  -2   4   -0.10    2.50
  -2  -2  -4    3.20    1.80
  -2  -2  -4    1.70    2.10
   2  -2   4   -1.90    2.30
   2   2   4    3.00    1.80
  -2   2  -4    0.70    1.70
   2   2   4    2.30    2.00
   2   2   4    2.50    2.50
  -2   2  -4    1.90    1.70
  -3  -2  -4   17.90    2.90
   3  -2   4   13.20    3.60
  -3  -2  -4   13.10    3.20
   3  -2   4   24.00    4.20
   3  -2   4   13.10    3.30
  -3   2  -4   17.00    2.70
   3   2   4   19.20    3.40
  -3   2  -4   20.20    3.40
   3   2   4    5.90    3.30
   3   2   4   14.80    3.60
  -4  -2  -4   -0.70    2.20
   4  -2   4   -0.10    3.30
   4  -2   4    0.00    2.30
   4  -2   4   -2.70    2.70
  -4  -2  -4   -2.40    3.20
  -4   2  -4    2.50    2.60
   4   2   4    2.20    2.80
   4   2   4    0.00    2.40
   4   2   4    2.40    2.80
  -4   2  -4   -0.90    2.60
   5  -3  -4   27.20    4.70
  -5  -3   4   43.20    5.20
  -5  -3   4   34.90    3.60
   5  -3  -4   41.80    4.40
   5  -3  -4   36.00    5.60
  -5  -3   4   44.50    6.50
  -5   3   4   34.10    4.00
  -5   3   4   39.00    5.10
   5   3  -4   37.30    4.60
   5   3  -4   35.70    5.00
  -4  -3   4   49.60    3.50
   4  -3  -4   49.10    5.90
   4  -3  -4   46.10    4.20
   4  -3  -4   61.19    5.40
  -4  -3   4   40.10    5.10
  -4  -3   4   51.99    5.80
  -4   3   4   50.09    3.90
  -4   3   4   53.29    5.30
   4   3  -4   42.90    4.90
   4   3  -4   45.90    4.60
  -3  -3   4   48.60    5.10
   3  -3  -4   51.49    5.40
  -3  -3   4   43.70    5.30
   3  -3  -4   52.99    3.70
   3   3  -4   49.60    3.90
   3   3  -4   44.00    4.20
  -3   3   4   50.59    4.80
  -3   3   4   51.99    4.00
  -3   3   4   50.99    3.20
   2  -3  -4   10.30    1.80
   2  -3  -4   11.80    3.40
  -2  -3   4    3.80    2.50
  -2  -3   4    3.10    3.50
  -2   3   4   11.40    1.70
  -2   3   4    8.20    2.50
   2   3  -4   10.50    1.70
   1  -3  -4    5.90    1.50
  -1  -3   4    4.30    2.20
  -1  -3   4    6.90    1.40
   1  -3  -4    4.80    2.50
  -1  -3   4    2.90    0.70
   1   3  -4    4.70    1.10
  -1   3   4    4.70    0.80
   1   3  -4    4.90    0.60
  -1   3   4    6.30    1.40
  -1   3   4    4.60    2.20
   0  -3   4  115.09    5.80
   0  -3   4  107.89    5.50
   0  -3  -4  100.89    6.00
   0  -3  -4   98.39    6.10
   0   3   4  103.29    6.00
   0   3  -4  111.09    6.90
   0   3  -4  102.89    5.70
   0   3  -4  105.89    5.00
   0   3   4  102.49    5.20
   0   3   4  105.99    5.90
   1  -3   4  103.69    6.10
   1  -3   4  106.99    6.40
  -1  -3  -4  111.19    5.50
  -1   3  -4  105.79    6.60
   1   3   4  109.69    5.80
   1   3   4  113.69    7.10
  -1   3  -4  115.39    6.10
  -1   3  -4  104.69    5.60
  -2  -3  -4   68.29    4.60
  -2  -3  -4   59.19    4.10
   2  -3   4   61.19    5.30
   2  -3   4   59.49    4.90
  -2   3  -4   54.89    4.20
   2   3   4   70.79    5.80
  -2   3  -4   62.69    4.50
   2   3   4   61.19    4.00
   2   3   4   58.59    5.40
   3  -3   4   23.40    4.60
   3  -3   4   29.50    4.70
  -3  -3  -4   25.70    4.00
   3  -3   4   11.00    3.20
  -3  -3  -4   25.40    3.70
   3   3   4   21.60    3.40
   3   3   4   28.70    4.70
   3   3   4   19.40    4.10
  -3   3  -4   23.50    3.20
  -3   3  -4   21.90    3.30
   4  -3   4   15.90    3.80
   4  -3   4   27.90    4.50
   4  -3   4   34.60    5.30
  -4  -3  -4   28.10    4.20
  -4  -3  -4   20.00    4.30
  -4   3  -4   17.90    4.40
   4   3   4   27.80    5.20
   4   3   4   19.60    3.20
  -4   3  -4   28.90    3.70
   4   3   4   23.70    4.60
   5  -4  -4   23.50    5.00
   5  -4  -4   31.40    4.20
  -5  -4   4   27.20    3.20
   5  -4  -4   21.60    4.30
  -5  -4   4   36.20    5.70
   5   4  -4   31.30    4.30
   5   4  -4   27.80    4.70
  -5   4   4   24.40    3.30
  -5   4   4   20.00    3.70
  -4  -4   4   56.29    6.20
   4  -4  -4   51.49    4.50
   4  -4  -4   43.80    5.40
  -4  -4   4   50.49    5.30
  -4   4   4   43.90    5.10
  -4   4   4   55.89    4.00
   4   4  -4   54.69    4.80
   4   4  -4   52.79    5.20
  -3  -4   4   48.40    5.00
   3  -4  -4   53.39    3.70
  -3  -4   4   49.10    5.30
   3  -4  -4   34.40    5.20
  -3   4   4   46.40    3.90
  -3   4   4   50.39    3.30
   3   4  -4   43.30    3.40
  -3   4   4   49.90    4.90
   3   4  -4   47.80    4.00
   3   4  -4   48.70    4.10
  -2  -4   4   17.10    2.40
   2  -4  -4   18.20    2.30
   2  -4  -4   18.30    3.50
  -2  -4   4   20.40    3.50
  -2  -4   4   12.50    2.60
  -2   4   4   15.40    2.10
  -2   4   4   11.10    1.50
  -2   4   4   16.50    3.20
   2   4  -4   15.60    2.20
   1  -4  -4  131.09    6.40
  -1  -4   4  123.59    6.80
  -1  -4   4  120.29    6.10
  -1  -4   4  118.09    6.80
   1  -4  -4  119.09    7.00
   1   4  -4  122.29    5.80
  -1   4   4  130.29    6.20
  -1   4   4  111.09    6.90
  -1   4   4  121.39    5.50
   1   4  -4  114.29    5.40
   0  -4   4   14.60    2.40
   0  -4   4   14.30    2.10
   0  -4  -4   20.70    2.90
   0   4  -4   16.10    1.80
   0   4   4   19.20    2.20
   0   4   4   21.50    3.30
   0   4   4   21.90    2.90
   0   4  -4   16.40    3.30
   0   4  -4   16.60    2.20
  -1  -4  -4   29.60    4.70
   1  -4   4   41.20    3.90
   1  -4   4   45.90    3.90
  -1  -4  -4   36.20    3.50
  -1  -4  -4   40.90    2.90
  -1   4  -4   49.70    3.70
   1   4   4   43.90    4.40
   1   4   4   39.40    3.40
  -1   4  -4   43.90    3.10
  -1   4  -4   43.10    4.00
  -2  -4  -4    1.40    1.50
   2  -4   4    2.20    2.20
  -2  -4  -4    5.60    2.40
  -2   4  -4    3.70    1.70
  -2   4  -4    1.30    2.30
   2   4   4    2.30    1.60
  -2   4  -4    2.40    1.80
   2   4   4    4.80    3.00
   3  -4   4    5.70    3.00
  -3  -4  -4    7.50    2.20
  -3  -4  -4   10.00    3.40
   3  -4   4   18.80    3.80
  -3   4  -4   10.60    2.50
  -3   4  -4    9.40    2.40
   3   4   4   10.40    3.70
   3   4   4    7.30    2.20
   3   4   4   12.30    3.50
   4  -4   4    0.00    2.50
  -4  -4  -4    0.90    2.20
   4  -4   4   -2.50    2.60
   4  -4   4    3.50    3.50
   4   4   4    0.40    2.80
  -4   4  -4    1.50    2.50
   4   4   4   -0.70    2.30
   4   4   4    1.50    3.70
   5  -5  -4   15.00    4.10
   5  -5  -4    4.80    3.00
  -5  -5   4    7.90    3.20
   5  -5  -4   12.00    3.20
  -5  -5   4   22.60    5.20
   5   5  -4   13.10    3.70
  -5   5   4    7.40    2.90
   5   5  -4   10.40    3.00
  -5   5   4   14.10    2.80
   4  -5  -4   75.39    5.80
   4  -5  -4   87.49    7.00
  -4  -5   4   81.99    7.50
  -4  -5   4   90.79    6.80
  -4   5   4   84.39    5.30
  -4   5   4   79.79    6.10
  -4   5   4   85.99    6.40
   4   5  -4   94.29    6.50
   4   5  -4   87.59    6.40
   3  -5  -4   25.20    4.20
   3  -5  -4   18.10    2.60
  -3  -5   4   11.10    3.50
  -3  -5   4   11.10    3.00
  -3   5   4   16.00    3.00
  -3   5   4   16.10    2.70
   3   5  -4   18.20    3.00
   3   5  -4   15.20    2.20
   2  -5  -4  147.69    8.60
   2  -5  -4  154.58    7.80
  -2  -5   4  154.88    8.30
  -2  -5   4  149.29    8.90
  -2  -5   4  158.68    8.20
   2   5  -4  142.79    7.00
  -2   5   4  148.19    7.00
  -2   5   4  159.28    8.50
  -2   5   4  156.38    7.70
   2   5  -4  161.08    7.70
   1  -5  -4    7.50    2.40
  -1  -5   4    2.70    2.20
  -1  -5   4    3.40    1.80
   1  -5  -4    6.90    2.00
  -1  -5   4    1.70    2.00
  -1   5   4    5.30    1.90
   1   5  -4    3.00    1.30
  -1   5   4    2.70    2.20
  -1   5   4    3.00    1.10
   1   5  -4    2.60    0.80
   0  -5   4  280.97   12.70
   0  -5  -4  288.57   12.90
   0  -5   4  278.77   12.80
   0   5  -4  280.67   13.80
   0   5  -4  265.47   12.20
   0   5   4  283.97   13.30
   0   5   4  280.27   12.90
   0   5  -4  272.37   12.90
   0   5   4  277.77   12.40
  -1  -5  -4   35.60    4.60
   1  -5   4   36.60    3.80
   1  -5   4   36.20    3.60
  -1  -5  -4   35.70    3.50
  -1   5  -4   31.30    3.80
  -1   5  -4   38.40    3.50
   1   5   4   35.80    3.30
  -1   5  -4   39.00    3.00
   1   5   4   40.10    4.60
  -2  -5  -4   68.19    5.00
   2  -5   4   63.09    5.20
   2  -5   4   59.39    5.20
  -2  -5  -4   63.99    4.20
   2   5   4   62.59    4.10
  -2   5  -4   66.89    4.00
  -2   5  -4   69.69    5.60
  -2   5  -4   69.69    4.50
   2   5   4   67.29    6.10
   3  -5   4   39.50    5.00
  -3  -5  -4   41.00    3.90
   3  -5   4   35.60    5.10
  -3  -5  -4   32.80    4.90
   3   5   4   33.70    3.30
  -3   5  -4   34.70    3.50
   3   5   4   37.00    5.70
   3   5   4   37.60    5.50
  -3   5  -4   35.00    4.20
  -3   5  -4   43.30    5.30
   4  -5   4    3.30    2.80
   4  -5   4    4.30    3.40
  -4  -5  -4    1.20    3.70
  -4  -5  -4    1.60    2.20
   4  -5   4    2.80    3.40
  -4   5  -4    5.30    2.60
   4   5   4    3.20    3.00
   4   5   4    2.50    3.60
   4   5   4    1.50    2.30
  -5  -6   4    7.20    4.40
   5  -6  -4    2.70    2.60
  -5  -6   4    2.80    3.10
   5  -6  -4    5.10    3.70
   5   6  -4    3.30    2.50
  -5   6   4   -0.50    2.10
  -5   6   4    4.70    2.70
   5   6  -4    2.60    2.40
   5   6  -4    4.90    2.70
  -4  -6   4   16.30    3.80
  -4  -6   4   18.60    4.80
   4  -6  -4   23.00    3.80
   4  -6  -4   14.30    4.00
  -4   6   4   11.30    2.80
  -4   6   4   26.10    3.90
   4   6  -4   22.40    3.10
   4   6  -4   22.60    3.90
   4   6  -4   15.30    3.00
  -4   6   4   23.60    3.30
  -3  -6   4    6.70    2.80
   3  -6  -4    6.80    3.10
  -3  -6   4    2.10    2.90
   3  -6  -4    5.60    2.10
   3   6  -4    2.90    1.70
   3   6  -4    4.60    2.60
  -3   6   4    5.90    2.30
  -3   6   4    2.70    1.80
  -3   6   4    3.60    2.50
   2  -6  -4   52.29    4.50
  -2  -6   4   64.19    5.50
  -2  -6   4   60.59    5.00
  -2  -6   4   62.69    4.90
   2  -6  -4   55.49    4.70
  -2   6   4   54.99    4.80
  -2   6   4   58.49    4.00
  -2   6   4   56.69    3.20
   2   6  -4   58.49    4.20
   2   6  -4   55.99    3.30
  -1  -6   4   45.70    4.60
   1  -6  -4   50.99    4.20
  -1  -6   4   51.59    4.10
  -1   6   4   50.09    4.00
  -1   6   4   51.99    4.40
   1   6  -4   50.69    3.50
   1   6  -4   53.79    2.90
  -1   6   4   51.89    3.10
   0  -6   4  216.08   11.20
   0  -6  -4  237.68   11.00
   0  -6   4  240.08   10.90
   0   6  -4  223.98   10.30
   0   6   4  225.78   10.50
   0   6   4  238.08   11.50
   0   6  -4  229.38   12.00
   0   6   4  235.38   11.10
   0   6  -4  229.88   11.10
  -1  -6  -4    3.40    2.00
   1  -6   4    2.40    1.80
   1  -6   4    2.80    2.50
  -1  -6  -4    1.40    2.40
  -1   6  -4    3.80    2.10
   1   6   4    1.70    2.30
   1   6   4    4.70    1.80
  -1   6  -4    3.70    2.30
  -1   6  -4    2.10    1.50
   1   6   4    1.60    1.90
  -2  -6  -4  242.28   11.40
  -2  -6  -4  244.88   12.10
  -2  -6  -4  249.48   13.50
   2  -6   4  258.17   12.50
   2  -6   4  243.78   11.70
  -2   6  -4  235.28   12.70
   2   6   4  244.08   11.20
   2   6   4  256.37   13.40
  -2   6  -4  215.18   11.00
  -2   6  -4  247.08   11.50
   3  -6   4    5.20    2.40
   3  -6   4    5.30    3.30
  -3  -6  -4    6.50    3.30
  -3  -6  -4    7.90    2.10
  -3   6  -4    5.70    2.40
   3   6   4    8.60    2.00
  -3   6  -4    4.60    2.80
   3   6   4    3.10    2.80
   3   6   4    4.00    3.20
  -4  -6  -4  118.39    9.20
  -4  -6  -4  139.39    7.70
   4  -6   4  144.99    9.20
   4  -6   4  128.19    8.50
   4   6   4  133.99    9.80
   4   6   4  126.79   10.00
   4   6   4  141.79    7.30
  -4   6  -4  149.09    8.30
  -5  -7   4    8.50    4.50
   5  -7  -4    6.80    3.00
  -5  -7   4   14.30    3.70
   5  -7  -4   16.40    4.30
   5   7  -4   13.60    3.40
   5   7  -4   12.50    3.30
  -5   7   4   10.70    3.30
  -5   7   4   11.90    3.00
   5   7  -4   11.10    3.50
  -5   7   4   11.20    2.90
   4  -7  -4   45.70    5.30
  -4  -7   4   37.20    5.50
  -4  -7   4   46.80    6.80
   4  -7  -4   49.50    4.90
   4   7  -4   43.70    5.00
   4   7  -4   49.20    4.30
  -4   7   4   43.50    5.00
  -4   7   4   45.20    4.70
  -4   7   4   53.19    4.20
   3  -7  -4   11.90    3.10
  -3  -7   4    9.50    3.30
  -3  -7   4   11.40    3.10
  -3  -7   4    8.30    3.60
   3  -7  -4   11.90    2.70
  -3   7   4   10.50    2.60
  -3   7   4   12.00    2.90
  -3   7   4    9.60    1.90
   3   7  -4    8.30    3.60
  -2  -7   4    5.50    2.40
   2  -7  -4    7.90    2.30
   2  -7  -4    4.50    2.40
  -2  -7   4    4.40    3.10
   2   7  -4    5.70    1.40
  -2   7   4    3.80    2.20
  -2   7   4    5.00    1.80
  -2   7   4    5.00    1.30
   2   7  -4    5.80    2.00
  -1  -7   4  238.28   11.90
  -1  -7   4  241.78   11.50
  -1  -7   4  227.98   12.30
  -1   7   4  240.58   11.80
   1   7  -4  245.78   11.50
   1   7  -4  243.98   10.80
  -1   7   4  258.37   11.80
  -1   7   4  249.97   10.90
   0  -7   4  263.27   12.00
   0  -7   4  221.28   12.70
   0  -7  -4  279.27   12.20
   0   7   4  257.17   11.70
   0   7   4  258.17   12.80
   0   7  -4  254.37   11.50
   0   7   4  262.57   12.10
   0   7  -4  264.07   12.40
   1  -7   4  227.88   11.30
   1  -7   4  238.68   11.10
  -1  -7  -4  239.48   12.60
  -1  -7  -4  222.68   11.00
  -1   7  -4  214.28   11.20
   1   7   4  230.98   10.80
  -1   7  -4  226.38   10.50
   1   7   4  225.18   11.30
  -1   7  -4  226.58   11.70
   1   7   4  221.18   12.00
   2  -7   4   26.30    3.80
  -2  -7  -4   16.20    3.60
  -2  -7  -4   16.50    5.70
   2  -7   4   23.10    3.60
  -2   7  -4   19.20    3.10
   2   7   4   20.40    4.30
  -2   7  -4   21.90    3.80
   2   7   4   18.60    2.70
  -2   7  -4   20.30    2.30
  -3  -7  -4   41.90    4.30
  -3  -7  -4   48.80    5.60
   3  -7   4   44.10    6.10
   3  -7   4   56.59    5.40
  -3   7  -4   44.20    4.60
   3   7   4   49.00    3.60
   3   7   4   55.89    6.40
  -3   7  -4   40.90    5.50
   4  -7   4   27.30    4.90
  -4  -7  -4   18.00    4.80
  -4  -7  -4   21.10    3.10
   4  -7   4   13.10    3.70
   4   7   4   11.40    3.50
  -4   7  -4   26.40    4.00
   4   7   4   15.30    4.30
  -5  -8   4   11.40    3.50
  -5  -8   4    2.40    4.40
   5  -8  -4    6.10    3.50
   5  -8  -4    6.00    3.00
   5   8  -4    5.00    2.90
   5   8  -4    7.50    3.10
  -5   8   4    3.70    2.90
   5   8  -4    1.30    2.60
  -5   8   4    4.50    3.00
  -5   8   4    9.90    2.90
   4  -8  -4   11.30    3.40
  -4  -8   4   14.60    3.70
  -4  -8   4    8.60    3.90
   4  -8  -4    2.20    2.40
  -4  -8   4    8.00    4.50
   4   8  -4    3.40    2.50
  -4   8   4    7.40    2.80
  -4   8   4    7.90    2.60
   4   8  -4    5.60    2.40
  -4   8   4    4.80    2.50
   3  -8  -4    1.00    2.40
  -3  -8   4    3.90    3.90
   3  -8  -4    6.30    2.70
  -3  -8   4    2.30    2.70
  -3  -8   4    5.70    3.00
  -3   8   4    2.80    2.20
  -3   8   4    3.80    2.30
  -3   8   4    2.00    1.70
   3   8  -4    1.30    3.10
  -2  -8   4  120.29    7.10
  -2  -8   4  112.99    7.40
   2  -8  -4  122.59    6.90
   2  -8  -4  122.89    7.10
  -2  -8   4  109.19    8.20
   2   8  -4  122.59    7.00
  -2   8   4  118.19    6.80
   2   8  -4  118.79    6.00
  -2   8   4  118.39    5.90
  -1  -8   4   47.50    4.30
  -1  -8   4   45.10    4.80
   1  -8  -4   50.59    3.90
  -1   8   4   48.30    4.50
  -1   8   4   45.70    4.30
   1   8  -4   55.29    4.00
   1   8  -4   52.09    3.20
  -1   8   4   46.30    3.30
   0  -8   4  226.38   10.60
   0  -8   4  223.88   11.10
   0  -8  -4  222.28   10.60
   0  -8  -4  205.98   12.40
   0   8  -4  230.68   11.10
   0   8  -4  218.68   10.10
   0   8   4  221.68   10.80
   0   8   4  215.68   10.30
   0   8   4  233.68   11.50
  -1  -8  -4   88.49    6.90
   1  -8   4   68.19    5.40
  -1  -8  -4   75.59    5.10
   1  -8   4   86.59    5.60
  -1   8  -4   74.69    4.60
   1   8   4   64.79    4.70
  -1   8  -4   73.59    5.50
   1   8   4   72.69    5.00
  -1   8  -4   80.69    5.70
   1   8   4   79.09    6.30
   2  -8   4   55.39    5.30
   2  -8   4   52.79    4.90
  -2  -8  -4   55.59    6.30
  -2  -8  -4   48.00    5.00
   2   8   4   53.09    5.90
   2   8   4   52.39    4.80
   2   8   4   51.69    3.70
  -2   8  -4   46.30    3.30
  -2   8  -4   59.89    5.40
  -2   8  -4   46.90    4.10
  -3  -8  -4   99.89    7.60
  -3  -8  -4   95.79    8.80
   3  -8   4  102.89    7.30
   3  -8   4  102.89    7.10
   3   8   4   99.39    5.50
  -3   8  -4   95.89    6.40
   3   8   4  106.99    8.60
  -3   8  -4  106.69    7.90
   4  -8   4   33.20    5.00
   4  -8   4   32.90    5.20
  -4   8  -4   28.20    4.50
   4   8   4   15.90    4.00
   4   8   4   22.50    4.70
  -5  -9   4   18.20    3.70
  -5  -9   4    8.70    5.10
   5  -9  -4   26.70    4.10
   5  -9  -4   27.40    5.60
  -5   9   4   10.20    3.20
  -5   9   4   23.00    3.40
   5   9  -4   21.90    3.80
  -5   9   4   16.50    3.60
   5   9  -4   12.80    3.60
   5   9  -4   22.70    4.40
  -4  -9   4   19.20    5.00
  -4  -9   4   38.30    5.60
   4  -9  -4   35.40    4.40
  -4  -9   4   39.70    5.50
   4  -9  -4   30.70    4.40
  -4   9   4   50.49    6.30
  -4   9   4   31.60    4.70
  -4   9   4   27.20    4.60
   4   9  -4   21.70    3.90
   4   9  -4   31.10    4.00
  -3  -9   4   87.99    6.20
   3  -9  -4   76.19    5.90
   3  -9  -4   72.29    5.30
  -3  -9   4   69.29    6.70
  -3  -9   4   68.19    7.60
   3   9  -4   65.29    5.70
  -3   9   4   66.89    8.20
  -3   9   4   80.89    4.80
  -3   9   4   77.79    5.80
   3   9  -4   74.89    6.10
   2  -9  -4   21.50    3.40
  -2  -9   4   31.40    5.40
  -2  -9   4   21.30    3.20
   2  -9  -4   23.90    3.20
  -2  -9   4   26.20    4.20
  -2   9   4   18.90    3.10
  -2   9   4   17.70    3.00
   2   9  -4   22.70    3.80
   2   9  -4   21.10    2.70
  -2   9   4   22.40    2.50
  -1  -9   4  194.48   10.20
   1  -9  -4  178.88   10.10
  -1  -9   4  167.88   10.20
   1  -9  -4  183.18    9.20
  -1  -9   4  182.18    9.30
  -1   9   4  198.28    8.80
  -1   9   4  186.58    9.50
   1   9  -4  174.78    9.40
   1   9  -4  190.68    8.60
  -1   9   4  197.18    9.90
   0  -9   4    3.60    2.50
   0  -9  -4    4.00    2.60
   0  -9   4   11.30    2.60
   0  -9  -4    7.60    2.20
   0   9   4    7.50    2.20
   0   9  -4    8.60    2.30
   0   9   4    4.80    1.80
   0   9   4    6.50    2.70
   0   9  -4    7.70    1.50
   1  -9   4  121.69    7.30
  -1  -9  -4  123.79    7.00
  -1  -9  -4  124.79    8.60
   1  -9   4  120.79    7.20
  -1   9  -4  116.69    7.50
   1   9   4  128.79    6.80
  -1   9  -4  113.99    7.20
   1   9   4  122.19    8.00
   1   9   4  123.39    6.50
  -1   9  -4  128.39    6.50
   2  -9   4    0.70    2.40
   2  -9   4    0.60    3.00
  -2  -9  -4    1.50    3.20
  -2  -9  -4    0.90    2.50
   2   9   4   -1.20    1.60
   2   9   4    0.00    2.60
  -2   9  -4    1.10    2.50
  -2   9  -4    0.30    1.90
  -2   9  -4   -0.80    1.30
   2   9   4    1.70    2.20
   3  -9   4   28.40    4.80
  -3  -9  -4   15.10    4.10
   3  -9   4   14.80    3.80
  -3  -9  -4   16.80    4.30
   3   9   4   12.90    3.80
   3   9   4   12.80    3.00
  -3   9  -4   10.10    2.50
  -3   9  -4   11.30    3.30
  -4  -9  -4   -7.00    3.40
   4  -9   4    2.60    3.50
   4  -9   4    5.20    3.30
  -4   9  -4    3.00    2.90
   4   9   4   -4.10    3.40
  -4   9  -4   -0.70    2.50
   4   9   4    2.10    2.90
  -4 -10   4   -4.30    2.90
  -4 -10   4   -3.00    3.00
  -4 -10   4    2.80    4.30
   4 -10  -4   -1.40    2.60
   4 -10  -4    0.80    2.50
   4  10  -4    0.60    2.40
  -4  10   4    2.60    2.60
  -4  10   4   -2.50    2.10
   4  10  -4   -0.60    2.20
  -3 -10   4  186.18   10.40
  -3 -10   4  167.08   11.40
   3 -10  -4  194.48    9.80
   3 -10  -4  227.68   12.30
  -3 -10   4  175.78   12.10
  -3  10   4  182.58   10.20
   3  10  -4  197.58    9.90
  -3  10   4  206.78    9.50
   3  10  -4  180.38   10.70
  -2 -10   4  201.18   10.50
   2 -10  -4  203.98   10.10
  -2 -10   4  184.18   11.30
   2 -10  -4  207.98   10.90
  -2 -10   4  198.08   12.10
  -2  10   4  200.18   10.50
   2  10  -4  191.18   10.70
  -2  10   4  227.38    9.70
   2  10  -4  205.48    9.60
  -2  10   4  204.78   10.70
  -1 -10   4  261.57   12.10
   1 -10  -4  257.47   12.10
  -1 -10   4  242.78   13.30
  -1 -10   4  245.48   13.10
   1 -10  -4  232.98   13.00
  -1  10   4  259.67   11.70
   1  10  -4  260.07   12.50
  -1  10   4  267.07   12.80
  -1  10   4  258.87   12.40
   1  10  -4  255.67   11.60
   0 -10  -4  339.67   15.80
   0 -10   4  348.27   16.60
   0 -10  -4  352.76   17.20
   0 -10   4  335.97   16.20
   0 -10   4  322.47   15.60
   0  10  -4  342.97   15.20
   0  10  -4  342.87   16.30
   0  10   4  352.46   15.50
   0  10   4  344.17   15.60
   0  10   4  353.96   16.70
  -1 -10  -4   14.50    4.00
  -1 -10  -4   12.80    2.90
   1 -10   4   10.60    2.70
   1 -10   4   14.00    3.10
   1  10   4    6.80    2.20
   1  10   4    9.80    3.20
  -1  10  -4    9.10    3.10
  -1  10  -4   12.90    2.40
   1  10   4   12.20    2.10
  -1  10  -4   14.10    3.10
   2 -10   4   -0.60    2.20
  -2 -10  -4    1.10    3.00
  -2 -10  -4    2.30    3.00
   2 -10   4   -1.40    3.10
   2  10   4   -0.80    2.70
  -2  10  -4    1.40    2.10
  -2  10  -4   -2.80    2.20
   2  10   4    2.40    1.50
   2  10   4    0.00    2.40
  -2  10  -4    0.30    1.50
  -3 -10  -4   23.80    4.60
   3 -10   4   31.30    4.90
  -3 -10  -4   28.50    4.90
   3 -10   4   24.80    4.30
  -3  10  -4   36.00    4.40
   3  10   4   37.10    5.20
  -3  10  -4   37.40    5.50
   3  10   4   18.20    4.80
   4 -11  -4   60.99    4.90
  -4 -11   4   61.49    7.30
  -4 -11   4   63.69    6.30
  -4 -11   4   50.39    7.70
   4 -11  -4   60.29    6.00
  -4  11   4   57.39    5.50
   4  11  -4   51.19    5.90
   4  11  -4   48.80    5.10
  -4  11   4   61.79    6.00
  -3 -11   4   35.70    5.10
  -3 -11   4   19.10    5.00
  -3 -11   4   38.10    5.70
   3 -11  -4   33.70    3.80
  -3  11   4   41.10    3.90
   3  11  -4   37.30    4.10
   3  11  -4   34.50    4.60
  -3  11   4   32.70    4.80
  -2 -11   4  155.88    8.30
  -2 -11   4  139.49    9.40
   2 -11  -4  155.88    7.80
   2 -11  -4  143.09    8.90
   2  11  -4  133.59    7.30
  -2  11   4  129.59    8.20
  -2  11   4  153.58    7.40
  -2  11   4  143.59    8.10
   2  11  -4  143.79    8.70
  -1 -11   4   16.30    2.90
  -1 -11   4   15.40    3.70
   1 -11  -4   23.90    4.00
   1 -11  -4   23.40    3.20
  -1 -11   4   21.20    4.00
  -1  11   4   18.10    3.50
  -1  11   4   22.00    2.70
   1  11  -4   16.10    2.30
   1  11  -4   15.60    2.90
  -1  11   4   23.80    3.60
   0 -11  -4    3.50    2.80
   0 -11   4   -0.30    2.50
   0 -11   4   -1.30    2.20
   0 -11   4   -0.30    2.40
   0 -11  -4    0.20    2.20
   0  11   4    0.80    1.80
   0  11  -4    1.20    1.40
   0  11  -4    1.20    2.00
   0  11   4   -1.30    2.60
   0  11   4   -1.20    1.70
  -1 -11  -4   14.10    4.20
  -1 -11  -4   19.80    3.50
   1 -11   4   28.10    4.60
   1 -11   4   21.00    3.50
  -1  11  -4   18.00    2.70
  -1  11  -4   16.90    3.50
   1  11   4   25.00    3.20
   1  11   4   20.60    2.60
  -1  11  -4   25.10    4.10
   1  11   4   22.80    4.20
  -2 -11  -4    4.50    3.10
  -2 -11  -4    3.20    3.20
   2 -11   4    6.10    3.00
   2 -11   4    4.70    3.30
   2  11   4    2.00    2.20
  -2  11  -4    0.40    2.60
   2  11   4    2.50    2.80
  -2  11  -4    4.20    2.20
   3 -11   4   13.20    3.70
  -3 -11  -4   10.10    3.90
   3 -11   4    7.30    3.10
  -3 -11  -4    9.50    4.20
   3  11   4   10.60    3.40
  -3  11  -4    8.20    3.30
   3  11   4   12.40    4.10
  -3  11  -4    7.60    2.70
   4 -12  -4   22.30    3.60
  -4 -12   4   27.70    4.40
   4 -12  -4   20.70    4.00
  -4 -12   4   17.20    5.10
  -4 -12   4   13.90    5.40
   4  12  -4   11.70    3.40
  -4  12   4   21.70    3.60
   4  12  -4   19.90    3.40
  -4  12   4   26.30    4.20
  -4  12   4   15.80    3.90
  -3 -12   4    8.90    4.30
   3 -12  -4   17.40    3.00
  -3 -12   4   15.60    5.10
   3 -12  -4   16.20    4.10
  -3 -12   4   17.90    3.70
  -3  12   4   17.30    3.20
   3  12  -4   10.40    2.70
  -3  12   4   10.40    2.90
  -3  12   4   16.70    2.70
   3  12  -4   10.30    3.00
  -2 -12   4    4.30    4.00
   2 -12  -4   -0.10    2.70
   2 -12  -4    0.50    2.10
  -2 -12   4    6.50    3.90
  -2 -12   4    1.10    2.80
  -2  12   4    1.80    2.10
  -2  12   4    0.90    1.80
  -2  12   4   -2.00    2.10
   2  12  -4   -0.40    2.40
   2  12  -4   -0.10    2.00
  -1 -12   4   11.90    2.60
  -1 -12   4    8.60    3.60
   1 -12  -4    9.60    2.50
  -1 -12   4    5.00    3.20
   1 -12  -4   10.30    3.20
  -1  12   4   11.70    2.20
  -1  12   4   10.20    2.50
   1  12  -4    5.00    2.50
   1  12  -4    7.30    2.10
  -1  12   4    3.50    2.70
   0 -12   4   49.60    4.60
   0 -12   4   51.79    5.00
   0 -12   4   40.80    5.40
   0 -12  -4   43.90    4.30
   0 -12  -4   54.59    5.70
   0  12   4   45.20    3.90
   0  12   4   45.50    4.10
   0  12  -4   43.50    4.50
   0  12  -4   43.70    3.50
   0  12   4   53.59    5.40
   1 -12   4    3.50    3.60
  -1 -12  -4    1.80    2.50
   1 -12   4   -1.30    2.70
  -1 -12  -4    4.70    4.00
  -1  12  -4    0.30    3.00
   1  12   4   -1.10    1.40
   1  12   4   -1.00    2.80
   1  12   4   -3.10    2.20
  -1  12  -4   -0.70    1.90
  -1  12  -4   -0.40    2.50
  -2 -12  -4    7.70    3.40
  -2 -12  -4    3.50    3.50
   2 -12   4    1.10    3.10
   2 -12   4    1.00    2.50
   2  12   4    1.00    2.20
   2  12   4   -0.30    2.90
  -2  12  -4    1.40    2.10
  -2  12  -4    0.60    2.60
  -3 -12  -4    2.30    3.50
   3 -12   4    2.60    3.00
  -3 -12  -4    6.90    4.00
   3 -12   4    3.40    3.20
  -3  12  -4    0.30    2.50
   3  12   4    3.00    3.10
  -3  12  -4    4.30    3.10
   3  12   4    3.40    3.40
  -4 -13   4   80.49    8.50
   4 -13  -4   77.09    6.20
  -4 -13   4   68.59    8.90
   4 -13  -4   68.99    6.70
  -4  13   4   74.09    7.00
  -4  13   4   88.69    6.30
   4  13  -4   88.89    6.20
  -4  13   4   86.39    6.50
   3 -13  -4   79.69    5.30
  -3 -13   4   65.99    8.00
  -3 -13   4   69.99    6.40
   3 -13  -4   80.29    6.80
  -3 -13   4   71.39    8.30
   3  13  -4   77.39    5.60
  -3  13   4   57.79    6.00
  -3  13   4   78.99    6.00
  -3  13   4   88.89    5.40
  -2 -13   4   28.40    4.60
  -2 -13   4   33.40    8.20
  -2 -13   4   26.80    5.30
   2 -13  -4   29.30    3.70
   2 -13  -4   33.50    5.20
   2  13  -4   15.60    3.90
  -2  13   4   27.30    3.40
   2  13  -4   31.30    3.70
  -2  13   4   28.20    4.30
  -2  13   4   25.20    4.00
  -1 -13   4  127.59    8.70
  -1 -13   4  122.29    8.80
  -1 -13   4  129.29    7.30
   1 -13  -4  114.89    7.20
   1 -13  -4  117.79    8.50
   1  13  -4  130.99    6.70
  -1  13   4  124.19    7.20
  -1  13   4  126.79    8.00
  -1  13   4  123.79    6.80
   1  13  -4  114.89    7.60
   0 -13  -4   34.90    5.40
   0 -13   4   47.10    4.70
   0 -13   4   46.80    7.90
   0 -13  -4   43.80    4.40
   0 -13   4   52.89    5.70
   0  13   4   40.40    3.70
   0  13   4   45.20    4.30
   0  13  -4   46.20    3.60
   0  13   4   34.20    5.30
   0  13  -4   49.90    4.80
  -1 -13  -4   57.49    6.70
   1 -13   4   45.30    5.60
  -1 -13  -4   40.90    4.80
   1 -13   4   52.49    5.60
  -1  13  -4   49.90    4.10
  -1  13  -4   40.40    5.40
   1  13   4   50.19    4.70
  -1  13  -4   51.89    5.30
   1  13   4   39.80    5.60
  -2 -13  -4   -0.30    3.30
  -2 -13  -4    4.40    3.40
   2 -13   4    1.00    2.80
   2 -13   4    0.50    3.10
  -2  13  -4   -0.80    2.10
  -2  13  -4   -1.20    2.30
   2  13   4   -0.30    2.40
   2  13   4   -1.50    2.70
  -3 -13  -4    1.80    3.60
   3 -13   4   -1.00    2.80
  -3 -13  -4   -1.20    3.10
   3 -13   4    2.00    3.50
  -3  13  -4    4.60    3.20
   3  13   4   -2.90    2.70
  -3  13  -4   -1.20    2.40
   3  13   4   -1.20    3.10
   4 -14  -4    6.00    3.80
  -4 -14   4    4.90    5.10
  -4 -14   4    4.10    4.00
   4  14  -4    7.00    3.30
  -4  14   4   10.10    3.80
  -4  14   4    9.30    3.00
   4  14  -4    8.70    3.10
  -3 -14   4   55.19    6.10
  -3 -14   4   66.59    8.00
   3 -14  -4   66.59    6.60
  -3 -14   4   61.59    8.00
   3 -14  -4   61.19    4.90
  -3  14   4   68.09    5.80
   3  14  -4   66.39    5.30
  -3  14   4   55.39    5.80
   3  14  -4   58.99    6.30
  -3  14   4   70.19    5.10
  -2 -14   4    1.90    2.80
   2 -14  -4    1.40    2.80
  -2 -14   4    4.40    4.00
   2 -14  -4   -0.70    3.10
  -2 -14   4    0.00    3.50
  -2  14   4    0.20    1.90
   2  14  -4   -0.60    4.40
  -2  14   4    2.10    2.40
   2  14  -4   -1.60    2.40
  -2  14   4   -1.30    1.90
   1 -14  -4  122.09    8.70
  -1 -14   4  132.09    7.40
  -1 -14   4  128.59    8.90
   1 -14  -4  112.19    7.10
  -1 -14   4  110.49    8.90
  -1  14   4  132.79    7.30
   1  14  -4  127.49    6.70
  -1  14   4  105.69    7.80
  -1  14   4  118.99    6.70
   1  14  -4  106.99    7.70
   0 -14  -4    6.50    3.30
   0 -14  -4    4.50    2.50
   0 -14   4    7.80    3.60
   0 -14   4    1.10    2.60
   0 -14   4    6.70    3.20
   0  14   4    5.50    2.10
   0  14   4    3.30    2.30
   0  14  -4    6.50    2.00
   0  14   4    5.70    3.10
   0  14  -4    3.80    2.60
  -1 -14  -4   41.10    6.10
   1 -14   4   37.10    5.50
  -1 -14  -4   26.90    4.30
   1 -14   4   32.20    5.30
   1  14   4   25.10    4.40
   1  14   4   31.60    2.50
  -1  14  -4   41.90    4.90
  -1  14  -4   35.20    3.70
   1  14   4   32.40    4.30
  -2 -14  -4    1.80    3.40
   2 -14   4    1.00    3.50
  -2 -14  -4    2.00    3.90
   2 -14   4    5.90    3.10
   2  14   4   -2.90    2.70
  -2  14  -4    3.00    2.60
  -2  14  -4   -2.10    2.40
   2  14   4    3.40    2.50
  -3 -14  -4    9.00    4.60
   3 -14   4    6.60    3.80
  -3 -14  -4    2.00    3.90
   3 -14   4    7.90    3.30
   3  14   4    6.10    3.30
  -3  14  -4    9.70    3.80
   3  14   4    7.00    3.80
  -3  14  -4   10.20    3.10
  -3 -15   4    0.30    4.10
   3 -15  -4    1.10    3.20
   3 -15  -4    2.70    2.70
  -3 -15   4   -2.80    3.00
  -3 -15   4    3.90    4.20
  -3  15   4    1.20    2.60
  -3  15   4    2.10    2.40
   3  15  -4    1.50    2.90
  -3  15   4   -0.10    2.20
   3  15  -4    0.80    2.70
  -2 -15   4   12.90    3.40
   2 -15  -4   10.70    3.00
   2 -15  -4   10.30    4.00
  -2 -15   4   11.00    4.70
  -2 -15   4    5.70    4.30
  -2  15   4   17.20    3.40
   2  15  -4    8.80    3.30
  -2  15   4    8.70    2.80
  -2  15   4   14.00    2.60
   2  15  -4   14.90    2.90
  -1 -15   4    6.00    2.80
   1 -15  -4    4.90    2.70
  -1 -15   4    1.70    3.80
   1 -15  -4   -1.70    3.00
  -1 -15   4   -3.50    3.30
  -1  15   4    2.70    2.40
   1  15  -4    2.90    2.20
  -1  15   4    4.40    3.10
  -1  15   4    2.40    2.20
   1  15  -4   -0.60    2.40
   0 -15   4   17.00    3.30
   0 -15   4   16.70    4.00
   0 -15  -4   11.40    3.90
   0 -15  -4    6.20    2.80
   0 -15   4   18.00    4.50
   0  15   4   13.30    2.40
   0  15  -4   17.70    3.40
   0  15   4    9.40    3.40
   0  15  -4   17.60    2.60
   0  15   4   11.70    2.60
   1 -15   4   12.60    4.10
  -1 -15  -4   10.90    4.20
  -1 -15  -4   15.70    3.70
   1 -15   4   10.50    3.90
  -1  15  -4   12.90    3.50
  -1  15  -4    9.10    2.40
   1  15   4   10.80    3.00
   1  15   4    5.10    3.30
  -2 -15  -4    3.60    3.50
   2 -15   4    4.10    3.60
  -2 -15  -4    6.10    4.10
   2 -15   4    4.60    3.30
  -2  15  -4    6.30    2.70
   2  15   4    6.60    3.70
  -2  15  -4   13.50    3.70
   2  15   4    2.20    2.60
   3 -16  -4    4.50    2.90
  -3 -16   4    1.20    4.20
   3 -16  -4   -3.60    3.00
  -3 -16   4   -0.90    3.70
  -3  16   4    0.10    2.40
   3  16  -4    0.60    2.80
  -3  16   4    3.40    3.00
  -3  16   4    3.60    2.40
   3  16  -4    0.60    2.60
   2 -16  -4   75.19    7.70
   2 -16  -4   69.89    5.50
  -2 -16   4   54.39    7.70
  -2 -16   4   73.49    6.10
  -2 -16   4   66.59    7.90
  -2  16   4   75.99    8.30
  -2  16   4   73.29    5.80
   2  16  -4   78.49    5.40
  -2  16   4   70.29    5.20
   2  16  -4   58.79    6.20
  -1 -16   4   -1.50    3.90
  -1 -16   4    3.50    4.80
   1 -16  -4    2.90    2.60
   1 -16  -4    2.00    3.20
  -1  16   4    6.50    3.20
   1  16  -4    5.50    2.50
  -1  16   4    5.70    2.60
   1  16  -4   -3.30    2.10
  -1  16   4    4.30    2.40
   0 -16  -4   19.40    4.50
   0 -16   4   24.20    3.70
   0 -16   4   21.20    4.80
   0 -16  -4   14.70    3.60
   0 -16   4   19.00    4.30
   0  16  -4   22.20    3.30
   0  16   4   20.10    3.20
   0  16   4   22.20    3.10
   0  16   4   16.10    4.00
   0  16  -4   21.00    3.70
   1 -16   4   -0.50    3.20
  -1 -16  -4    2.40    3.70
  -1 -16  -4    5.40    3.50
   1 -16   4    4.80    3.60
  -1  16  -4    4.20    2.80
  -1  16  -4    3.30    2.20
   1  16   4    6.30    3.70
   1  16   4    7.20    2.70
  -2 -16  -4   31.30    5.10
  -2 -16  -4   35.40    6.20
   2 -16   4   36.50    5.60
   2 -16   4   35.30    5.80
   2  16   4   30.50    5.20
   2  16   4   38.80    5.00
  -2  16  -4   39.90    4.60
  -2  16  -4   32.90    5.20
  -2 -17   4    3.30    4.40
  -2 -17   4    0.40    3.10
  -2 -17   4   -1.80    4.00
   2 -17  -4    0.10    2.60
   2  17  -4   -1.00    2.50
  -2  17   4    1.60    2.60
  -2  17   4   -0.70    2.10
  -2  17   4   -1.80    2.80
   2  17  -4    2.60    2.90
   1 -17  -4   11.10    3.40
  -1 -17   4   10.90    5.00
   1 -17  -4    7.60    3.80
  -1 -17   4   30.70    5.80
  -1 -17   4   15.60    3.40
  -1  17   4   21.80    3.30
  -1  17   4   14.70    3.90
   1  17  -4    7.00    4.40
  -1  17   4   16.40    2.90
   1  17  -4   16.60    3.00
   0 -17   4    3.20    3.50
   0 -17  -4    0.40    3.20
   0 -17   4    4.40    3.80
   0 -17   4    3.30    3.00
   0 -17  -4    7.50    3.30
   0  17   4   10.90    3.00
   0  17   4    8.80    3.50
   0  17  -4    6.70    3.10
   0  17  -4    9.80    2.50
   1 -17   4   13.40    4.00
  -1 -17  -4    7.80    3.80
   1 -17   4    6.60    3.80
  -1 -17  -4   11.40    4.10
  -1  17  -4   10.40    3.50
   1  17   4    6.80    3.40
   1  17   4    6.30    2.60
  -1  17  -4    9.70    2.70
  -2 -18   4    7.10    4.70
   2 -18  -4    8.70    3.80
   2 -18  -4   10.30    3.40
  -2 -18   4   10.00    3.50
  -2 -18   4   10.90    5.00
  -2  18   4   10.00    2.80
   2  18  -4    3.50    3.10
  -2  18   4    2.00    2.30
   2  18  -4   12.10    3.00
  -2  18   4    6.90    3.20
  -1 -18   4   13.50    4.90
  -1 -18   4    2.30    4.90
   1 -18  -4    1.10    3.30
   1 -18  -4    6.00    3.20
  -1 -18   4    8.20    3.20
  -1  18   4    2.50    3.30
   1  18  -4    3.10    3.00
   1  18  -4    7.70    2.70
  -1  18   4    4.80    2.60
   0 -18   4   24.20    5.10
   0 -18  -4   22.30    4.50
   0 -18  -4   20.60    5.00
   0 -18   4   36.70    5.90
   0 -18   4   21.50    3.60
   0 -18  -4   18.80    4.00
   0  18  -4   24.40    3.60
   0  18  -4   14.20    3.40
   0  18   4   18.40    3.10
   1 -18   4    4.40    3.70
   1 -18   4   -6.90    3.10
  -1 -18  -4    1.70    3.70
  -1 -18  -4   -0.60    3.30
  -1  18  -4    1.50    2.50
   1  18   4   -2.30    3.00
   1  18   4   -2.40    2.30
  -1  18  -4    0.90    2.80
  -1 -19   4    0.60    4.10
   1 -19  -4    0.80    3.40
  -1 -19   4    0.20    3.10
   1 -19  -4   -0.20    5.90
  -1 -19   4   -1.90    4.10
  -1  19   4    0.10    2.30
  -1  19   4    1.80    2.60
   1  19  -4    1.40    2.50
   1  19  -4    1.70    2.50
   0 -19   4    9.60    4.20
   0 -19  -4    6.80    4.20
   0 -19  -4    2.40    3.40
   0  19   4    2.50    3.00
   0  19  -4    4.80    3.40
   0  19  -4    6.20    2.60
   0  19   4    2.60    3.40
   5   0  -5   34.10    5.60
   5   0  -5   52.49    4.80
  -5   0   5   43.00    5.80
  -5   0   5   50.49    3.90
  -4   0   5    0.10    1.20
   4   0  -5   -0.90    1.70
  -4   0   5    2.20    2.70
   4   0  -5   -1.20    1.90
   3   0  -5   12.90    4.40
   3   0  -5   27.80    2.40
   3   0  -5   23.70    2.70
  -3   0   5   24.30    1.80
  -3   0   5   29.20    4.80
  -2   0   5    0.30    2.50
   2   0  -5   -2.70    2.80
  -1   0   5   -0.10    2.20
   1   0  -5   -2.10    2.80
   0   0   5    1.60    1.60
   0   0  -5   -2.20    2.30
   0   0  -5    1.00    0.90
   0   0   5    1.10    2.00
   0   0   5    0.70    1.30
   1   0   5  262.77   12.50
  -1   0  -5  276.67   12.30
   1   0   5  257.47   13.60
   1   0   5  284.67   13.20
  -1   0  -5  267.07   12.80
  -2   0  -5   -1.30    2.10
   2   0   5   -0.80    2.10
   2   0   5   -1.10    2.10
   2   0   5   -0.90    2.20
  -2   0  -5   -2.70    1.60
   3   0   5  225.08   13.70
   3   0   5  254.27   13.40
  -3   0  -5  241.88   12.30
  -3   0  -5  240.78   11.90
   3   0   5  233.78   11.80
   4   0   5    4.30    3.60
   4   0   5   -2.50    2.90
   4   0   5    1.40    3.00
  -4   0  -5   -2.20    2.40
  -4   0  -5    1.40    3.50
  -5  -1   5   20.40    4.20
  -5  -1   5   19.40    4.30
   5  -1  -5   10.20    3.30
   5  -1  -5   14.60    3.10
  -5  -1   5   13.20    2.20
   5   1  -5   16.90    3.30
   5   1  -5   10.50    3.40
  -5   1   5   14.70    2.40
  -5   1   5   17.40    4.00
  -4  -1   5   33.30    4.70
   4  -1  -5   24.50    3.20
   4  -1  -5   16.80    4.80
  -4  -1   5   27.10    2.50
   4  -1  -5   25.40    3.90
  -4  -1   5   26.40    4.50
   4   1  -5   23.70    3.10
  -4   1   5   12.70    3.20
   4   1  -5   23.70    3.80
  -4   1   5   22.50    2.50
   3  -1  -5   16.00    2.20
   3  -1  -5   16.90    2.60
   3  -1  -5   22.30    4.40
  -3   1   5   18.80    3.70
  -3   1   5   17.70    1.60
   3   1  -5   19.00    2.30
   3   1  -5   15.90    2.30
   2  -1  -5   22.30    4.20
  -2  -1   5   27.80    3.80
  -2   1   5   26.10    3.90
   2   1  -5   20.30    3.80
  -1  -1   5  141.39    7.90
   1  -1  -5  146.29    8.70
  -1   1   5  148.69    8.10
   1   1  -5  146.19    9.00
   0  -1  -5    0.80    2.30
   0  -1   5    1.30    2.10
   0  -1   5    1.30    1.30
   0  -1  -5   -0.30    0.80
   0  -1   5    0.40    1.60
   0   1  -5    0.40    2.30
   0   1   5   -0.20    1.40
   0   1   5    1.10    1.70
   0   1   5    0.80    2.40
   0   1  -5    0.00    0.90
  -1  -1  -5   32.20    2.80
   1  -1   5   23.70    3.60
   1  -1   5   32.50    3.40
   1  -1   5   31.90    4.00
  -1  -1  -5   32.10    3.50
  -1   1  -5   29.80    3.50
   1   1   5   37.00    3.50
  -1   1  -5   32.50    2.90
   1   1   5   31.10    3.80
   1   1   5   28.80    4.00
   2  -1   5   -0.60    2.20
   2  -1   5   -0.70    2.20
  -2  -1  -5    3.50    1.90
  -2  -1  -5    0.60    2.20
   2  -1   5    2.90    2.40
  -2   1  -5    0.30    1.90
   2   1   5    3.00    2.00
   2   1   5    6.10    2.80
  -2   1  -5   -1.20    2.00
   2   1   5   -1.20    2.40
   3  -1   5   52.69    5.90
  -3  -1  -5   53.99    4.80
   3  -1   5   53.39    5.10
   3  -1   5   47.90    6.20
   3   1   5   53.49    5.80
   3   1   5   52.79    4.70
   3   1   5   47.80    6.20
  -3   1  -5   41.20    4.80
  -3   1  -5   58.19    4.90
   4  -1   5    1.60    3.10
  -4  -1  -5    2.70    3.70
   4  -1   5   -0.30    3.00
  -4  -1  -5    2.10    2.50
  -4   1  -5    1.70    3.30
   4   1   5    0.10    2.60
   4   1   5    4.10    3.40
  -4   1  -5    7.70    2.80
   4   1   5   -1.30    2.80
  -5  -2   5   10.20    2.10
   5  -2  -5    8.10    3.20
  -5  -2   5    9.10    3.80
   5  -2  -5   11.50    4.90
  -5  -2   5   10.10    3.70
   5  -2  -5    9.50    2.70
   5   2  -5   10.40    3.00
   5   2  -5    9.60    3.40
  -5   2   5    9.30    2.20
  -5   2   5    7.80    3.40
   4  -2  -5   46.10    4.60
  -4  -2   5   42.70    5.40
  -4  -2   5   40.10    5.60
   4  -2  -5   36.40    3.80
  -4  -2   5   42.30    3.00
   4  -2  -5   36.00    6.20
  -4   2   5   43.00    3.20
   4   2  -5   38.10    4.50
  -4   2   5   38.90    5.60
   4   2  -5   37.20    3.90
  -3  -2   5    4.30    2.60
   3  -2  -5    4.10    3.50
   3  -2  -5    7.80    1.90
  -3  -2   5    8.00    3.20
   3  -2  -5    7.30    1.60
  -3   2   5    8.10    1.30
   3   2  -5    6.60    1.80
  -3   2   5    3.60    2.80
   3   2  -5    4.20    1.40
   3   2  -5    5.10    1.30
   2  -2  -5  224.28   12.00
  -2  -2   5  221.78   11.30
   2   2  -5  211.38   12.30
  -2   2   5  217.38   11.30
   1  -2  -5    4.10    3.00
  -1  -2   5    8.60    2.70
   1   2  -5    7.00    2.90
  -1   2   5    5.20    2.40
   0  -2   5   43.20    3.20
   0  -2   5   41.80    3.80
   0  -2  -5   44.20    4.20
   0  -2   5   50.59    4.20
   0   2  -5   43.70    4.80
   0   2  -5   43.80    2.70
   0   2   5   48.50    3.60
   0   2   5   46.50    4.30
   0   2   5   42.70    3.80
  -1  -2  -5   -0.20    1.90
   1  -2   5   -1.60    1.70
   1  -2   5    0.90    2.20
  -1  -2  -5    0.80    1.30
   1   2   5   -0.30    2.40
  -1   2  -5    0.30    2.10
  -1   2  -5   -0.20    1.40
   1   2   5    2.20    2.00
   1   2   5    1.10    2.00
  -2  -2  -5    2.40    1.90
   2  -2   5    5.30    2.60
   2  -2   5    2.60    2.60
  -2  -2  -5    3.70    2.40
   2  -2   5    3.70    2.70
   2   2   5    4.00    2.90
   2   2   5    0.60    2.30
  -2   2  -5    3.40    1.90
  -2   2  -5    3.10    2.20
   2   2   5    4.10    2.10
   3  -2   5    3.10    3.10
   3  -2   5    5.60    3.20
  -3  -2  -5    4.30    3.20
   3  -2   5    7.10    3.00
  -3  -2  -5    1.80    2.30
   3   2   5    3.90    3.00
  -3   2  -5    6.60    2.80
   3   2   5    4.40    2.50
   3   2   5    5.00    3.20
  -3   2  -5    2.80    2.80
  -4  -2  -5    0.50    2.30
   4  -2   5   -0.20    3.60
   4  -2   5    3.40    3.30
   4  -2   5    2.90    3.10
  -4  -2  -5    5.40    3.90
   4   2   5    7.30    3.70
   4   2   5    1.00    2.70
  -4   2  -5   -0.10    2.60
   4   2   5    1.00    2.80
   5  -3  -5   66.29    8.40
  -5  -3   5   80.09    7.90
  -5  -3   5  103.89    7.80
   5  -3  -5  104.89    6.90
   5  -3  -5  108.69    8.00
   5   3  -5   94.49    7.00
  -5   3   5  107.99    6.00
   5   3  -5  102.19    7.70
  -5   3   5   92.19    7.40
   4  -3  -5    1.90    1.70
   4  -3  -5    1.00    2.10
  -4  -3   5    1.70    3.10
   4  -3  -5    6.30    3.80
  -4  -3   5    4.90    3.50
  -4   3   5    2.60    1.50
   4   3  -5    1.00    2.10
  -4   3   5    2.90    2.90
   4   3  -5    2.70    1.90
  -3  -3   5  139.99    8.60
   3  -3  -5  140.09    9.30
  -3  -3   5  146.89    8.80
   3  -3  -5  141.79    7.20
   3   3  -5  147.29    7.30
   3   3  -5  143.09    7.50
   3   3  -5  148.39    6.70
  -3   3   5  136.69    8.60
  -3   3   5  145.69    6.70
   2  -3  -5   66.29    6.00
  -2  -3   5   72.49    5.40
   2  -3  -5   57.89    3.00
  -2   3   5   66.09    3.50
  -2   3   5   60.79    3.00
  -2   3   5   61.79    5.30
   1  -3  -5   83.99    6.00
   1  -3  -5   98.39    5.00
  -1  -3   5   91.89    6.00
  -1   3   5   93.19    4.70
  -1   3   5   94.39    6.10
   1   3  -5   86.59    7.00
  -1   3   5   93.19    4.20
   0  -3   5  200.88    9.70
   0  -3   5  195.58    9.30
   0  -3  -5  201.08    9.90
   0   3  -5  188.28    8.80
   0   3  -5  191.88    9.50
   0   3  -5  200.58   10.70
   0   3   5  193.88    9.80
   0   3   5  202.48    9.00
   0   3   5  188.28    9.70
   1  -3   5    0.40    2.00
  -1  -3  -5    2.70    1.30
   1  -3   5    2.30    1.90
  -1  -3  -5    1.60    2.20
   1   3   5    1.40    1.90
   1   3   5    2.80    2.00
  -1   3  -5   -0.80    2.00
   1   3   5    3.50    2.40
  -1   3  -5    2.00    1.50
   2  -3   5    1.00    2.60
   2  -3   5    0.50    2.70
  -2  -3  -5    0.80    1.70
  -2  -3  -5    0.90    2.40
   2  -3   5    3.40    2.50
   2   3   5    4.80    2.60
  -2   3  -5   -2.30    1.90
   2   3   5    3.30    3.10
  -2   3  -5    1.70    1.90
   2   3   5    0.90    2.00
   3  -3   5   24.30    4.00
  -3  -3  -5   29.40    4.70
   3  -3   5   36.00    5.20
  -3  -3  -5   41.90    4.20
   3  -3   5   36.70    5.40
   3   3   5   44.30    6.00
   3   3   5   37.70    5.60
  -3   3  -5   38.90    4.30
  -3   3  -5   37.50    4.10
   3   3   5   33.90    3.80
  -4  -3  -5   35.70    5.70
   4  -3   5   15.30    4.10
  -4  -3  -5   31.30    4.40
   4  -3   5   32.10    5.10
  -4   3  -5   37.00    5.00
   4   3   5   45.50    6.00
   4   3   5   28.10    6.10
   4   3   5   26.70    4.30
  -5  -4   5   32.00    5.00
   5  -4  -5   33.80    4.20
   5  -4  -5   30.80    5.50
  -5  -4   5   36.00    5.90
   5  -4  -5   23.30    4.50
   5   4  -5   30.90    4.60
  -5   4   5   29.70    4.40
   5   4  -5   26.40    4.20
  -5   4   5   28.00    3.80
   4  -4  -5   43.60    6.10
   4  -4  -5   40.70    3.80
   4  -4  -5   34.00    4.60
  -4  -4   5   40.50    5.70
  -4  -4   5   40.20    5.60
   4   4  -5   39.30    4.00
   4   4  -5   35.30    3.80
   4   4  -5   36.90    4.30
  -4   4   5   38.70    5.30
  -4   4   5   39.00    3.40
  -3  -4   5  160.48    9.30
  -3  -4   5  161.08    9.60
   3  -4  -5  162.18    9.90
   3  -4  -5  152.08    8.00
   3   4  -5  149.99    7.30
  -3   4   5  153.98    7.30
   3   4  -5  161.68    8.20
  -3   4   5  154.58    9.30
  -3   4   5  158.18    8.20
   3   4  -5  159.28    8.00
  -2  -4   5   70.89    5.30
  -2   4   5   62.09    3.20
  -2   4   5   64.69    3.80
   2   4  -5   63.09    3.00
   2   4  -5   69.09    3.50
  -2   4   5   65.89    5.40
  -1  -4   5  173.88    7.90
  -1  -4   5  175.18    8.90
   1  -4  -5  158.78    8.10
   1  -4  -5  160.68    8.90
  -1   4   5  185.08   11.80
   1   4  -5  164.68    7.60
  -1   4   5  161.98    7.90
   1   4  -5  161.38    7.20
   1   4  -5  160.38   10.00
  -1   4   5  164.78    7.40
   0  -4  -5    7.10    2.20
   0  -4   5    1.60    2.00
   0  -4   5    6.40    1.70
   0  -4  -5    5.00    2.10
   0   4   5    7.80    1.60
   0   4  -5    8.00    3.40
   0   4  -5    5.20    1.70
   0   4  -5    6.00    1.20
   0   4   5    6.20    2.30
   0   4   5    8.00    2.50
   1  -4   5   70.89    4.90
  -1  -4  -5   66.99    4.00
   1  -4   5   73.89    4.80
   1   4   5   63.69    5.60
   1   4   5   63.29    4.70
  -1   4  -5   64.99    5.00
  -1   4  -5   58.69    5.00
  -1   4  -5   66.39    4.20
   2  -4   5   -1.70    2.50
  -2  -4  -5    0.60    1.60
  -2  -4  -5    0.90    2.40
   2  -4   5   -0.40    2.10
  -2   4  -5   -1.60    1.80
   2   4   5    1.20    2.60
  -2   4  -5    2.30    2.10
   2   4   5    1.10    2.40
  -3  -4  -5   16.40    2.70
   3  -4   5   19.30    3.80
   3  -4   5   20.30    3.90
   3  -4   5   24.40    5.00
  -3  -4  -5   12.40    3.60
   3   4   5   22.80    3.50
  -3   4  -5   24.10    3.60
   3   4   5   18.50    4.40
  -3   4  -5   28.00    4.20
   3   4   5   20.10    4.00
  -4  -4  -5    0.80    2.30
   4  -4   5    1.70    3.00
  -4  -4  -5    1.60    3.90
   4  -4   5   -0.80    2.90
   4  -4   5   -4.90    3.40
   4   4   5    0.50    2.30
   4   4   5    2.70    3.60
  -4   4  -5    0.00    2.70
   4   4   5    3.40    3.30
   5  -5  -5   30.50    4.30
   5  -5  -5   43.70    5.50
   5  -5  -5   35.80    5.90
  -5  -5   5   38.10    6.10
   5   5  -5   24.90    4.60
   5   5  -5   27.10    3.90
  -5   5   5   40.40    3.90
  -5   5   5   36.30    5.00
   4  -5  -5   12.90    2.80
   4  -5  -5   25.40    5.00
  -4  -5   5   14.60    4.00
   4   5  -5   13.70    2.80
  -4   5   5   14.90    3.60
  -4   5   5   17.20    2.40
   4   5  -5   18.60    2.70
   4   5  -5   14.40    3.00
  -3  -5   5   10.20    3.70
   3  -5  -5    9.90    3.90
  -3  -5   5    9.00    3.10
   3  -5  -5   17.60    2.80
   3   5  -5    9.30    2.20
  -3   5   5   14.60    2.10
   3   5  -5   15.40    1.90
  -3   5   5   12.90    3.30
  -3   5   5   10.90    2.40
  -2  -5   5    3.90    2.80
  -2  -5   5    4.40    1.90
   2  -5  -5    5.60    2.80
  -2  -5   5    2.10    2.40
   2   5  -5    2.30    0.80
  -2   5   5    3.50    0.90
  -2   5   5    4.50    2.70
  -2   5   5    4.30    1.50
   2   5  -5    1.90    1.30
   1  -5  -5  123.19    6.70
  -1  -5   5  120.29    6.40
   1  -5  -5  121.39    7.10
  -1  -5   5  128.19    7.20
  -1   5   5  115.99    7.30
   1   5  -5  125.29    6.10
   1   5  -5  117.89    5.50
  -1   5   5  119.89    5.70
  -1   5   5  118.79    6.50
   0  -5  -5   84.89    6.00
   0  -5  -5   85.09    5.40
   0  -5   5   87.39    5.40
   0  -5   5   90.09    5.20
   0   5  -5   84.59    4.50
   0   5  -5   86.49    6.70
   0   5   5   92.79    4.80
   0   5   5   87.79    5.70
   0   5   5   79.79    5.60
   0   5  -5   83.49    5.30
  -1  -5  -5   26.70    4.40
   1  -5   5   28.30    3.60
   1  -5   5   21.80    3.30
  -1  -5  -5   26.70    3.50
  -1   5  -5   23.90    3.60
   1   5   5   23.20    3.70
   1   5   5   30.60    3.60
  -1   5  -5   20.60    3.50
  -1   5  -5   26.40    2.80
  -2  -5  -5   26.60    3.90
   2  -5   5   30.80    6.40
  -2  -5  -5   23.50    3.00
   2  -5   5   26.10    3.80
   2   5   5   24.50    3.40
  -2   5  -5   26.50    3.20
  -2   5  -5   26.90    4.40
   2   5   5   24.30    4.10
   2   5   5   27.10    4.60
  -2   5  -5   25.80    3.50
   3  -5   5   39.60    5.00
   3  -5   5   26.80    4.40
  -3  -5  -5   39.90    5.10
  -3  -5  -5   39.90    3.90
  -3   5  -5   33.60    4.00
  -3   5  -5   44.80    4.50
   3   5   5   44.80    6.00
   3   5   5   44.50    4.00
   3   5   5   48.00    6.00
  -4  -5  -5    0.20    1.90
  -4  -5  -5   -2.70    5.10
   4  -5   5    1.70    3.00
   4  -5   5    5.00    3.80
  -4   5  -5   -0.50    2.80
   4   5   5   -5.80    2.20
   5  -6  -5    8.30    4.40
   5  -6  -5   15.40    3.60
   5  -6  -5    8.20    3.40
  -5  -6   5    9.90    3.80
  -5  -6   5    4.30    4.20
  -5   6   5   15.50    2.90
  -5   6   5    8.20    3.20
   5   6  -5   11.80    3.10
   4  -6  -5   17.20    3.20
   4  -6  -5   13.20    4.10
  -4  -6   5   12.60    3.80
  -4  -6   5   15.30    4.70
  -4   6   5   15.50    3.00
  -4   6   5   14.30    3.60
   4   6  -5   17.10    2.50
   4   6  -5   11.80    2.70
  -4   6   5   14.00    2.50
   4   6  -5   14.00    3.00
   3  -6  -5   22.00    4.10
   2  -6  -5   34.30    4.50
  -2  -6   5   41.20    4.90
  -2  -6   5   37.90    4.60
   2  -6  -5   39.00    4.60
  -2   6   5   36.20    3.10
  -2   6   5   38.00    4.60
  -2   6   5   39.20    2.50
   2   6  -5   37.40    3.20
   2   6  -5   41.50    2.50
  -1  -6   5   14.40    2.60
   1  -6  -5   16.30    2.70
  -1  -6   5   17.50    3.00
   1  -6  -5   12.80    2.70
   1   6  -5   11.50    1.50
  -1   6   5   10.90    2.50
   1   6  -5   14.10    2.10
  -1   6   5   11.40    2.80
  -1   6   5   12.90    2.00
   0  -6   5   -0.80    1.80
   0  -6  -5    2.40    2.30
   0  -6  -5    2.00    1.90
   0   6  -5    0.80    1.60
   0   6   5    1.50    2.30
   0   6   5    3.00    2.20
   0   6   5    2.40    1.60
   0   6  -5   -1.30    2.70
   0   6  -5    0.70    1.20
   1  -6   5   66.89    4.90
  -1  -6  -5   69.69    5.00
  -1  -6  -5   64.89    5.90
   1  -6   5   68.19    5.00
   1   6   5   73.49    4.90
   1   6   5   66.29    4.80
  -1   6  -5   57.09    4.90
   1   6   5   69.29    5.80
  -1   6  -5   63.09    5.30
  -1   6  -5   69.09    4.40
   2  -6   5   22.30    3.60
   2  -6   5   12.40    3.30
  -2  -6  -5    2.70    2.60
   2   6   5   15.50    3.90
   2   6   5   10.70    2.50
  -2   6  -5   14.70    2.50
  -2   6  -5   10.80    2.30
  -2   6  -5   16.20    3.50
  -3  -6  -5  144.29    7.70
   3  -6   5  142.49    9.00
  -3  -6  -5  136.79    8.80
  -3   6  -5  124.09    8.10
   3   6   5  120.89    9.60
   3   6   5  145.79   10.00
  -3   6  -5  149.88    8.10
   3   6   5  142.69    7.50
   5  -7  -5    0.10    3.40
  -5  -7   5    2.50    4.00
   5  -7  -5   -4.50    3.40
  -5  -7   5    1.50    3.40
  -5   7   5   -2.00    2.00
   5   7  -5   -3.50    2.60
   5   7  -5   -2.40    2.20
  -5   7   5    2.00    3.00
   5   7  -5    1.60    2.50
  -4  -7   5   29.10    4.60
   4  -7  -5   33.10    6.00
  -4  -7   5   27.50    5.20
   4  -7  -5   29.80    4.20
   4   7  -5   24.10    3.10
  -4   7   5   21.60    3.50
  -4   7   5   27.10    3.40
   4   7  -5   25.90    4.30
  -4   7   5   20.60    3.70
   4   7  -5   22.40    3.80
   3  -7  -5   48.60    4.80
  -3  -7   5   60.19    5.90
  -3  -7   5   51.79    6.30
   3  -7  -5   62.39    5.40
  -3  -7   5   53.99    5.30
   3   7  -5   52.59    3.60
  -3   7   5   52.09    5.40
   3   7  -5   59.69    4.70
  -3   7   5   57.49    3.80
  -3   7   5   50.59    4.50
  -2  -7   5    1.30    2.10
  -2  -7   5    3.60    2.80
   2  -7  -5    2.50    2.10
  -2  -7   5    2.30    2.70
   2  -7  -5    4.10    2.60
  -2   7   5    5.10    1.70
   2   7  -5    4.50    1.20
   2   7  -5    1.50    1.60
  -2   7   5    5.60    1.30
  -1  -7   5  203.68   11.60
  -1  -7   5  225.88   11.30
   1  -7  -5  228.68   11.20
   1  -7  -5  214.28   10.80
  -1   7   5  218.38   11.10
  -1   7   5  234.18   10.90
   1   7  -5  227.88    9.70
  -1   7   5  183.68   10.10
   1   7  -5  228.58   10.50
   0  -7  -5   55.89    5.30
   0  -7  -5   52.39    4.60
   0  -7   5   57.49    4.50
   0  -7   5   67.39    4.80
   0   7  -5   53.29    5.70
   0   7   5   59.59    5.00
   0   7   5   62.09    4.00
   0   7  -5   57.89    3.60
   0   7  -5   60.29    4.50
   0   7   5   57.79    5.10
   1  -7   5   16.10    3.10
  -1  -7  -5    9.50    2.40
   1  -7   5   13.00    2.70
  -1  -7  -5   11.80    3.60
  -1   7  -5   13.30    2.20
   1   7   5   13.50    3.30
   1   7   5   11.80    2.40
  -1   7  -5   11.30    2.80
  -1   7  -5    8.50    3.30
   1   7   5   10.60    3.00
  -2  -7  -5  102.99    8.20
  -2  -7  -5   91.29    6.50
   2  -7   5   87.79    6.60
   2  -7   5   98.19    6.70
   2   7   5  100.99    7.70
   2   7   5   89.19    5.80
  -2   7  -5   91.59    7.00
  -2   7  -5   97.79    5.90
  -2   7  -5   80.89    5.40
   3  -7   5   -1.70    2.60
   3  -7   5    4.20    3.80
  -3  -7  -5    0.50    2.20
  -3  -7  -5    1.70    3.30
   3   7   5    0.30    3.20
  -3   7  -5    0.60    2.90
   3   7   5   -1.80    2.90
  -3   7  -5   -0.60    2.30
   3   7   5    3.90    2.80
   4  -8  -5   10.00    3.80
  -4  -8   5    1.40    3.40
   4  -8  -5    5.60    2.90
  -4   8   5    2.30    2.60
  -4   8   5    9.60    2.40
   4   8  -5    3.10    2.50
  -4   8   5    2.50    2.30
   4   8  -5    4.30    2.20
  -3  -8   5   10.90    3.60
  -3  -8   5   12.10    3.20
   3  -8  -5   17.80    3.60
  -3   8   5   11.10    2.50
  -2  -8   5   11.80    3.40
  -2  -8   5   10.00    3.10
   2  -8  -5    9.60    2.70
   2  -8  -5   10.10    2.90
  -2   8   5    8.60    2.00
  -2   8   5   10.50    2.90
   2   8  -5   10.50    1.60
   2   8  -5    7.90    2.20
  -2   8   5   11.90    1.80
   1  -8  -5    2.70    2.10
  -1  -8   5    2.00    2.40
  -1  -8   5    2.60    2.50
   1  -8  -5    0.20    2.20
   1   8  -5    0.80    1.60
  -1   8   5   -1.20    2.40
   1   8  -5    0.00    1.00
  -1   8   5    1.70    2.20
   0  -8  -5   21.40    4.10
   0  -8   5   24.80    3.70
   0  -8  -5   19.60    3.30
   0  -8   5   20.70    3.00
   0   8   5   18.30    3.30
   0   8  -5   23.10    4.50
   0   8  -5   20.80    3.30
   0   8  -5   19.20    2.50
   0   8   5   23.50    3.90
   0   8   5   18.10    2.80
   1  -8   5   23.60    3.50
   1  -8   5   33.60    4.40
  -1  -8  -5   27.00    4.40
  -1  -8  -5   23.30    3.50
  -1   8  -5   23.70    3.60
   1   8   5   29.10    4.70
  -1   8  -5   26.40    4.10
   1   8   5   16.20    2.70
   1   8   5   23.10    3.60
  -1   8  -5   28.10    3.10
   2  -8   5   33.30    4.60
  -2  -8  -5   18.10    4.40
  -2  -8  -5   28.60    5.00
   2  -8   5   21.40    4.10
   2   8   5   29.20    4.60
  -2   8  -5   31.20    3.20
  -2   8  -5   28.40    4.60
   2   8   5   32.60    5.30
   2   8   5   39.10    3.80
  -2   8  -5   33.00    3.80
  -3  -8  -5   24.00    4.40
   3  -8   5   29.40    4.90
   3  -8   5   16.70    4.50
   3   8   5   18.50    4.30
  -3   8  -5   15.10    3.70
   3   8   5   28.00    3.70
  -3   8  -5   21.90    3.30
  -4  -9   5    6.40    3.60
   4  -9  -5    4.20    2.80
  -4  -9   5    5.90    3.60
  -4  -9   5    0.60    3.70
   4  -9  -5   -1.80    3.00
   4   9  -5    1.20    2.10
  -4   9   5    0.10    2.40
  -4   9   5    4.60    2.50
   4   9  -5    1.40    2.30
  -4   9   5    0.30    2.30
  -3  -9   5   14.40    3.70
  -3  -9   5   12.90    3.60
  -3  -9   5   12.10    3.70
   3  -9  -5   24.30    3.70
   3  -9  -5   23.60    3.80
   3   9  -5   25.70    3.20
  -3   9   5   16.50    3.10
  -3   9   5   15.30    3.20
   3   9  -5   17.90    3.20
  -3   9   5   23.30    3.00
   2  -9  -5   29.50    4.20
  -2  -9   5   22.80    4.60
  -2  -9   5   32.10    4.20
  -2  -9   5   21.30    3.70
   2  -9  -5   26.30    3.80
   2   9  -5   29.20    3.70
  -2   9   5   31.50    2.80
  -2   9   5   24.20    3.60
   2   9  -5   26.20    2.70
  -2   9   5   23.30    3.30
   1  -9  -5  107.99    6.30
  -1  -9   5  106.19    7.10
  -1  -9   5  102.39    6.70
   1  -9  -5  103.89    7.00
  -1  -9   5  105.69    7.10
  -1   9   5   99.99    6.70
   1   9  -5  103.69    5.40
  -1   9   5  106.59    5.70
  -1   9   5  104.69    6.90
   0  -9  -5  198.28   11.10
   0  -9   5  176.48    9.40
   0  -9   5  186.18   10.20
   0  -9  -5  182.08    9.60
   0   9  -5  192.08   11.10
   0   9   5  186.28   10.40
   0   9   5  193.28    9.90
   0   9  -5  200.48   10.20
   0   9  -5  179.78    8.90
   0   9   5  191.08    9.10
  -1  -9  -5   75.89    5.70
  -1  -9  -5   92.59    7.50
   1  -9   5   78.39    5.90
   1  -9   5   85.69    5.90
  -1   9  -5   88.99    6.40
   1   9   5   84.59    5.40
   1   9   5   79.89    5.60
  -1   9  -5   82.29    5.20
  -1   9  -5   76.89    6.20
   1   9   5   75.39    6.60
  -2  -9  -5   34.20    5.60
  -2  -9  -5   23.30    4.00
   2  -9   5   12.60    3.70
   2  -9   5   26.40    3.90
   2   9   5   38.40    4.60
  -2   9  -5   31.00    3.90
  -2   9  -5   31.60    4.80
   2   9   5   31.80    3.70
   2   9   5   27.60    4.60
  -2   9  -5   22.40    2.90
  -3  -9  -5    6.60    3.70
   3  -9   5    8.10    3.30
   3  -9   5    9.20    3.90
  -3   9  -5    9.90    3.10
   3   9   5    8.80    3.90
  -3   9  -5    9.10    3.60
   3   9   5    6.50    2.90
  -4 -10   5    7.30    4.00
   4 -10  -5    7.30    3.20
   4 -10  -5    0.90    2.80
  -4 -10   5    8.40    3.80
  -4 -10   5    3.10    4.00
  -4  10   5    3.40    2.80
   4  10  -5    6.60    2.80
  -4  10   5    6.20    2.50
   4  10  -5    3.40    2.30
  -4  10   5   10.50    3.10
  -3 -10   5   26.00    4.70
  -3 -10   5   15.10    3.80
  -3 -10   5   12.70    4.20
   3 -10  -5   14.70    3.50
   3 -10  -5   23.70    3.60
   3  10  -5   18.70    2.70
  -3  10   5   18.60    3.30
   3  10  -5   14.50    3.10
  -3  10   5    9.20    3.40
  -3  10   5   15.90    2.60
  -2 -10   5   50.49    5.70
   2 -10  -5   61.19    5.50
  -2 -10   5   52.69    5.70
  -2 -10   5   40.90    6.70
   2 -10  -5   59.39    4.80
  -2  10   5   55.49    4.60
  -2  10   5   65.59    5.40
   2  10  -5   49.60    4.60
  -2  10   5   58.89    3.90
   2  10  -5   47.70    3.70
   1 -10  -5  303.77   15.80
  -1 -10   5  308.77   15.90
  -1 -10   5  311.97   15.90
   1 -10  -5  310.77   15.00
  -1 -10   5  342.37   15.20
   1  10  -5  362.26   15.50
  -1  10   5  300.77   15.20
  -1  10   5  325.17   14.40
   1  10  -5  305.67   15.90
  -1  10   5  321.37   15.60
   0 -10   5  121.49    7.60
   0 -10  -5  108.79    8.10
   0 -10  -5  113.49    6.70
   0  10   5  113.19    6.30
   0  10  -5  107.49    5.90
   0  10   5  103.29    7.30
   0  10  -5  115.09    7.10
  -1 -10  -5  171.88   11.00
   1 -10   5  169.48    9.30
  -1 -10  -5  165.08    9.20
   1 -10   5  185.78    9.80
   1  10   5  176.28   10.50
   1  10   5  186.08    9.10
  -1  10  -5  173.38    8.70
  -1  10  -5  165.58    9.90
   1  10   5  173.88    9.00
  -1  10  -5  161.68    9.80
  -2 -10  -5    4.50    3.50
   2 -10   5   12.10    3.40
   2 -10   5   11.80    3.90
  -2 -10  -5    6.80    3.20
   2  10   5    1.70    2.60
  -2  10  -5    5.30    2.60
  -2  10  -5    4.70    2.80
   2  10   5    3.40    2.90
   2  10   5    6.40    2.40
  -2  10  -5    5.50    1.90
   3 -10   5    7.50    3.50
  -3 -10  -5    8.60    4.10
   3 -10   5    8.70    4.00
  -3 -10  -5   11.30    4.40
  -3  10  -5    7.30    3.10
   3  10   5    2.50    3.00
  -3  10  -5    9.80    3.80
   3  10   5    5.90    3.10
  -4 -11   5   -1.40    3.20
  -4 -11   5   -1.40    3.80
   4 -11  -5    2.70    2.90
   4 -11  -5   -2.70    2.90
  -4 -11   5    0.40    3.40
   4  11  -5   -2.70    2.20
   4  11  -5    3.80    2.50
  -4  11   5   -1.00    2.20
  -4  11   5    1.50    2.80
  -4  11   5    0.80    2.30
  -3 -11   5  179.48   12.10
   3 -11  -5  193.08   11.00
   3 -11  -5  186.48   13.00
  -3 -11   5  201.48   12.40
  -3 -11   5  195.28   11.80
   3  11  -5  181.78   10.80
  -3  11   5  181.28   10.70
  -3  11   5  202.98   10.70
   3  11  -5  189.68    9.50
  -3  11   5  206.48    9.70
   2 -11  -5    3.50    2.60
  -2 -11   5    6.10    3.60
   2 -11  -5    3.90    2.90
  -2 -11   5    4.80    3.30
  -2 -11   5   -2.10    2.90
   2  11  -5    1.60    1.80
   2  11  -5    3.20    2.20
  -2  11   5   10.70    2.10
  -2  11   5    3.20    2.70
  -2  11   5    3.60    2.10
   1 -11  -5  286.17   15.00
  -1 -11   5  290.67   15.10
   1 -11  -5  291.07   13.90
  -1 -11   5  288.97   14.10
  -1 -11   5  287.27   15.00
  -1  11   5  305.57   13.50
   1  11  -5  271.47   14.20
  -1  11   5  327.27   16.10
  -1  11   5  287.87   14.20
   0 -11   5   84.59    6.10
   0 -11  -5   83.29    5.90
   0 -11  -5   96.49    7.50
   0 -11   5   75.39    7.00
   0  11   5  104.69    5.80
   0  11  -5   87.89    6.40
   0  11   5   96.49    6.10
   0  11  -5   93.99    5.30
   0  11   5   97.79    7.00
  -1 -11  -5   -6.20    2.80
  -1 -11  -5    0.70    2.40
   1 -11   5    1.50    2.70
   1 -11   5   -0.80    2.80
  -1  11  -5   -2.90    2.00
  -1  11  -5   -2.20    3.10
  -1  11  -5    0.70    2.00
   1  11   5   -1.60    1.90
   1  11   5   -0.20    2.30
   1  11   5    1.50    2.80
   2 -11   5   27.70    4.50
  -2 -11  -5   28.50    4.70
  -2 -11  -5   29.20    5.30
   2 -11   5   22.70    4.40
  -2  11  -5   18.70    3.80
  -2  11  -5   26.80    4.10
   2  11   5   33.60    5.50
   2  11   5   33.10    4.40
  -3 -11  -5    5.20    4.00
   3 -11   5    6.60    3.90
   3 -11   5    6.00    3.20
  -3 -11  -5   12.50    4.30
   3  11   5    4.60    3.00
  -3  11  -5    8.00    3.40
   3  11   5    4.60    3.20
  -3  11  -5    6.20    2.90
   4 -12  -5   42.10    4.70
  -4 -12   5   26.10    5.60
  -4 -12   5   41.90    5.50
  -4 -12   5   35.50    5.90
   4 -12  -5   34.50    5.70
  -4  12   5   33.90    5.10
  -4  12   5   39.10    5.20
   4  12  -5   49.99    4.70
   4  12  -5   35.20    5.10
  -4  12   5   46.00    4.70
   3 -12  -5    3.10    2.90
  -3 -12   5   -1.40    3.30
  -3 -12   5    3.70    3.50
   3 -12  -5    3.00    2.70
  -3 -12   5   -2.60    3.10
  -3  12   5    1.70    2.10
  -3  12   5    3.80    2.70
   3  12  -5    0.70    2.10
  -3  12   5   -0.70    2.10
   3  12  -5    2.50    2.70
  -2 -12   5   63.69    6.80
  -2 -12   5   64.29    6.80
   2 -12  -5   66.59    5.30
   2 -12  -5   63.69    6.00
  -2 -12   5   69.39    6.10
   2  12  -5   66.99    5.40
   2  12  -5   66.69    4.30
  -2  12   5   50.29    4.70
  -2  12   5   56.09    5.10
  -2  12   5   66.99    5.90
   1 -12  -5   65.59    7.50
   1 -12  -5   61.79    5.00
  -1 -12   5   62.59    5.60
  -1 -12   5   60.09    6.00
  -1 -12   5   63.59    6.20
  -1  12   5   59.79    5.40
   1  12  -5   50.49    5.40
   1  12  -5   59.29    5.10
  -1  12   5   64.19    4.60
   0 -12   5    4.90    2.80
   0 -12  -5   -1.30    2.30
   0 -12  -5   -1.30    2.80
   0  12  -5    3.20    1.80
   0  12  -5    2.80    2.40
   0  12   5    0.20    2.20
   0  12   5    2.90    2.10
   0  12   5    0.50    2.70
  -1 -12  -5    9.50    3.70
   1 -12   5   17.90    3.80
   1 -12   5   11.30    3.20
  -1 -12  -5    9.30    3.10
   1  12   5    9.50    3.60
  -1  12  -5   17.40    2.80
  -1  12  -5   16.40    4.10
   1  12   5   11.10    2.70
  -1  12  -5   13.00    3.20
   1  12   5   17.40    2.70
   2 -12   5    8.10    4.00
   2 -12   5   11.10    3.20
  -2 -12  -5    8.80    3.60
  -2 -12  -5    9.10    4.30
  -2  12  -5    7.10    2.60
   2  12   5   16.50    3.50
  -2  12  -5    4.70    2.80
   2  12   5    6.70    3.70
   4 -13  -5   43.70    4.70
  -4 -13   5   42.30    7.20
   3 -13  -5   54.99    6.40
  -3 -13   5   46.50    7.20
  -3 -13   5   53.29    6.40
   3 -13  -5   55.89    5.30
  -3 -13   5   63.29    7.60
   3  13  -5   53.89    5.80
   3  13  -5   69.69    4.80
  -3  13   5   62.19    4.60
  -3  13   5   59.99    6.00
  -3  13   5   55.19    5.60
  -2 -13   5   51.09    6.60
   2 -13  -5   41.30    5.50
   2 -13  -5   61.89    5.00
  -2 -13   5   62.39    6.00
  -2 -13   5   57.59    6.80
  -2  13   5   49.99    4.90
   2  13  -5   53.29    5.10
  -2  13   5   52.99    5.30
   2  13  -5   53.49    4.10
  -1 -13   5   38.60    5.60
  -1 -13   5   29.70    4.90
  -1 -13   5   37.90    4.90
   1 -13  -5   41.60    4.30
   1  13  -5   35.50    4.30
  -1  13   5   35.00    5.00
  -1  13   5   39.10    4.70
  -1  13   5   38.50    4.00
   1  13  -5   36.20    3.90
   0 -13   5    5.70    3.40
   0 -13   5    1.50    2.70
   0 -13  -5    9.50    3.70
   0  13   5    4.70    2.40
   0  13   5    3.10    2.30
   0  13  -5    7.10    2.20
   0  13   5    8.50    3.30
  -1 -13  -5   15.20    4.20
   1 -13   5    3.90    3.40
  -1 -13  -5    3.50    2.80
   1 -13   5   11.00    3.50
   1  13   5    7.10    3.30
  -1  13  -5    7.30    2.90
  -1  13  -5   13.60    2.60
  -1  13  -5    7.00    3.80
   1  13   5   11.30    2.90
   1  13   5    5.30    2.70
   2 -13   5   -0.70    2.90
   2 -13   5   -1.10    3.80
  -2 -13  -5    1.80    3.40
  -2 -13  -5    4.50    3.40
   2  13   5    0.20    2.60
  -2  13  -5   -1.70    2.50
   2  13   5    0.50    3.20
  -2  13  -5    0.80    2.40
   3 -14  -5   34.30    5.70
  -3 -14   5   34.80    6.20
   3 -14  -5   37.00    4.40
  -3 -14   5   40.10    6.00
  -3 -14   5   39.40    6.60
   3  14  -5   37.00    4.40
   3  14  -5   38.80    5.30
  -3  14   5   36.00    5.00
  -3  14   5   43.70    5.20
  -3  14   5   43.50    4.30
  -2 -14   5   59.79    7.20
   2 -14  -5   73.09    6.80
  -2 -14   5  101.09   10.10
   2 -14  -5   71.49    5.60
  -2 -14   5   79.29    7.60
   2  14  -5   73.69    4.80
   2  14  -5   64.59    6.00
  -2  14   5   69.49    6.10
  -1 -14   5   14.30    3.50
   1 -14  -5    7.30    3.00
  -1 -14   5   12.50    4.10
  -1 -14   5   12.20    4.30
   1 -14  -5   11.60    3.70
  -1  14   5    9.00    2.50
   1  14  -5   14.50    2.60
  -1  14   5   14.80    3.10
  -1  14   5    8.90    3.00
   1  14  -5    9.40    2.70
   0 -14   5  165.28    9.30
   0 -14  -5  169.68   10.90
   0 -14   5  166.28    9.70
   0 -14   5  176.78   10.60
   0 -14  -5  163.88    9.40
   0  14  -5  169.98    8.70
   0  14   5  161.78   10.40
   0  14   5  178.18    9.10
   0  14  -5  164.08   10.00
   0  14   5  183.18    9.00
  -1 -14  -5   13.20    3.30
  -1 -14  -5   19.60    4.60
   1 -14   5    9.70    3.30
   1  14   5   21.80    4.50
   1  14   5   25.20    3.50
  -1  14  -5   22.30    3.20
  -1  14  -5   12.00    4.20
  -1  14  -5   29.90    4.70
   2 -14   5   34.10    5.40
  -2 -14  -5   16.50    3.90
  -2 -14  -5   32.60    6.10
   2 -14   5   25.20    4.40
   2  14   5   10.30    3.70
   2  14   5   19.60    3.40
  -2  14  -5   14.20    3.40
   3 -15  -5   35.50    4.60
  -3 -15   5   22.20    5.60
  -3 -15   5   40.30    6.40
   3 -15  -5   28.80    5.10
  -3 -15   5   42.30    6.10
  -3  15   5   30.60    5.00
   3  15  -5   37.00    4.40
  -3  15   5   40.60    4.30
  -3  15   5   38.90    5.50
   3  15  -5   22.80    4.20
   2 -15  -5    0.70    3.00
  -2 -15   5   -1.90    3.10
  -2 -15   5   -0.30    4.10
  -2 -15   5    1.70    3.80
   2 -15  -5    1.70    2.80
  -2  15   5    0.70    2.60
  -2  15   5   -0.30    1.90
   2  15  -5   -0.60    2.00
  -2  15   5   -0.60    2.30
   2  15  -5   -0.30    2.40
   1 -15  -5    4.40    3.40
   1 -15  -5    5.70    3.10
  -1 -15   5    5.30    4.10
  -1 -15   5    3.60    3.70
  -1 -15   5   14.10    3.40
   1  15  -5    3.80    2.50
   1  15  -5    4.20    2.30
  -1  15   5    4.30    2.70
  -1  15   5    7.20    3.10
  -1  15   5    5.50    2.30
   0 -15   5   -0.50    2.80
   0 -15  -5   -2.90    2.90
   0 -15   5    6.20    3.80
   0 -15  -5    4.40    2.70
   0 -15   5    1.40    2.90
   0  15   5    1.70    2.30
   0  15   5    2.40    3.40
   0  15   5    1.50    2.40
   0  15  -5    2.40    2.10
   0  15  -5    3.90    2.70
   1 -15   5    2.40    3.40
   1 -15   5   -1.30    3.20
  -1 -15  -5    0.60    3.10
  -1 -15  -5   -4.30    3.20
  -1  15  -5    0.20    2.40
   1  15   5    0.40    2.40
  -1  15  -5    4.80    5.50
   1  15   5    1.60    3.10
   2 -15   5   -1.20    3.60
  -2 -15  -5    2.20    3.40
  -2 -15  -5    2.00    3.70
   2  15   5   -2.50    3.00
  -2  15  -5    3.50    2.80
   2  15   5    0.00    2.60
  -2  15  -5    3.40    3.00
  -2 -16   5    7.70    4.30
  -2 -16   5   12.90    3.90
  -2 -16   5    7.80    4.90
   2 -16  -5    0.00    3.20
   2 -16  -5    8.50    3.60
  -2  16   5    4.70    2.50
   2  16  -5    7.20    3.00
  -2  16   5    7.10    2.50
   2  16  -5    9.90    2.70
  -2  16   5   15.10    3.60
   1 -16  -5   37.70    4.70
  -1 -16   5   50.29    6.40
  -1 -16   5   44.90    6.40
   1 -16  -5   38.00    5.90
  -1 -16   5   43.90    5.40
  -1  16   5   40.30    4.20
  -1  16   5   36.10    5.40
  -1  16   5   43.50    4.70
   1  16  -5   40.90    4.20
   1  16  -5   33.50    4.60
   0 -16  -5   -2.50    2.60
   0 -16   5    3.90    3.80
   0 -16  -5   -7.70    6.00
   0 -16   5   -1.20    2.90
   0 -16   5   -3.00    2.90
   0  16  -5    1.60    2.60
   0  16  -5    2.40    2.20
   0  16   5    4.00    2.40
   0  16   5   -1.10    2.10
  -1 -16  -5   24.00    4.30
  -1 -16  -5   31.70    6.40
   1 -16   5   36.60    5.70
   1 -16   5   35.10    5.30
  -1  16  -5   39.30    4.30
   1  16   5   35.60    4.80
   1  16   5   21.30    4.80
  -2 -17   5    0.10    3.40
   2 -17  -5   -1.30    3.20
   2 -17  -5   -2.70    3.00
  -2 -17   5   -4.10    4.00
  -2 -17   5   -3.70    3.70
  -2  17   5    2.70    3.40
   2  17  -5   -0.60    2.40
  -2  17   5   -2.20    2.00
   2  17  -5   -3.60    2.20
  -2  17   5   -1.40    2.40
  -1 -17   5    5.40    4.20
   1 -17  -5    4.80    2.90
   1 -17  -5    7.00    3.60
  -1  17   5    9.00    2.60
  -1  17   5    3.10    3.00
   1  17  -5    8.30    2.90
   1  17  -5   10.30    2.70
  -1  17   5   12.20    3.00
   0 -17   5    2.00    3.80
   0 -17  -5    3.40    3.70
   0 -17  -5    1.40    3.10
   0 -17   5    2.10    3.00
   0 -17   5    4.40    3.30
   0  17   5    4.00    2.30
   0  17  -5    1.30    2.60
   0  17   5    4.40    3.30
   0  17   5    1.70    2.70
   0  17  -5    3.70    2.30
  -1 -17  -5    3.60    3.50
   1 -18  -5    3.80    3.00
  -1 -18   5    0.70    3.60
  -1  18   5    3.80    2.80
   5   0  -6   -1.00    4.70
   5   0  -6   -2.30    2.20
  -5   0   6   -3.00    3.30
   5   0  -6    0.00    2.00
   4   0  -6   44.30    7.00
  -4   0   6   47.20    6.00
   4   0  -6   46.20    4.30
   4   0  -6   46.30    3.80
   3   0  -6   -1.20    3.10
  -3   0   6    0.40    3.10
   2   0  -6  134.39    9.20
  -2   0   6  136.29    8.30
  -1   0   6   -0.30    2.50
   1   0  -6   -0.40    3.20
   0   0   6   17.70    2.60
   0   0  -6   14.80    1.80
   0   0   6   17.60    2.80
   0   0  -6   17.00    3.60
  -1   0  -6   -0.30    1.40
   1   0   6    0.50    2.40
   1   0   6   -0.40    2.40
  -1   0  -6   -2.00    2.20
  -2   0  -6   74.99    5.60
   2   0   6   71.89    5.50
  -2   0  -6   86.19    5.40
   2   0   6   83.79    6.80
   2   0   6   76.69    7.00
  -3   0  -6   -1.60    2.30
   3   0   6    0.60    2.60
   3   0   6    4.50    3.30
  -3   0  -6    0.60    3.20
   3   0   6    1.70    3.10
  -5  -1   6   -2.20    3.30
   5  -1  -6   -0.20    4.40
   5  -1  -6    0.30    2.40
   5  -1  -6   -1.80    1.90
  -5   1   6    0.70    2.00
   5   1  -6    0.30    2.70
  -5   1   6   -0.70    3.20
   5   1  -6   -0.80    1.90
   4  -1  -6    1.30    4.10
   4  -1  -6    2.00    1.90
  -4  -1   6   -0.10    3.20
   4  -1  -6    2.20    1.60
   4   1  -6    2.00    4.20
  -4   1   6    0.80    3.20
   4   1  -6   -0.90    1.50
  -4   1   6   -0.30    1.00
   4   1  -6    0.00    1.80
  -3  -1   6   10.20    3.60
   3   1  -6   12.70    3.90
  -3   1   6   10.40    3.40
  -2  -1   6    2.40    2.80
   2  -1  -6   -0.90    3.20
  -2   1   6    0.60    2.60
   2   1  -6    0.80    2.80
  -1  -1   6   18.70    3.20
   1  -1  -6   31.30    4.60
   1   1  -6   18.40    4.10
  -1   1   6   22.30    3.50
   0  -1   6  104.49    5.60
   0  -1   6  103.49    6.20
   0  -1  -6  100.59    6.80
   0  -1   6  101.09    6.60
   0   1   6   87.89    6.00
   0   1  -6  100.49    5.00
   0   1   6  100.59    5.70
   0   1  -6  104.49    6.90
   0   1   6  104.69    6.60
   1  -1   6    3.20    2.40
   1  -1   6    2.30    2.20
  -1  -1  -6    5.10    2.40
  -1  -1  -6    5.10    1.70
   1   1   6    5.20    2.60
  -1   1  -6    2.30    1.60
  -1   1  -6    7.20    2.50
  -2  -1  -6   67.39    5.40
   2  -1   6   79.49    7.40
  -2  -1  -6   75.29    5.20
   2  -1   6   77.69    6.90
   2  -1   6   66.29    5.30
   2   1   6   70.09    6.90
   2   1   6   74.89    5.30
  -2   1  -6   72.09    5.40
   2   1   6   73.49    6.40
  -2   1  -6   78.99    5.20
   3  -1   6    6.50    3.30
  -3  -1  -6   11.20    3.70
   3  -1   6    8.70    3.20
   3  -1   6    8.60    3.50
  -3  -1  -6   12.00    2.90
   3   1   6    8.70    3.90
  -3   1  -6   14.50    3.10
  -3   1  -6    7.80    3.50
   3   1   6    9.70    3.50
   3   1   6   11.70    4.70
  -5  -2   6    6.40    3.60
   5  -2  -6    7.00    2.30
   5  -2  -6    1.00    4.00
   5  -2  -6    8.50    3.00
   5   2  -6    9.80    2.80
  -5   2   6    7.60    2.10
   5   2  -6    2.90    2.30
  -5   2   6    4.10    3.40
   4  -2  -6    7.30    2.20
   4  -2  -6    6.40    4.00
  -4  -2   6    3.70    3.70
   4  -2  -6    6.50    1.90
  -4   2   6    9.00    3.60
   4   2  -6    8.10    2.00
   4   2  -6    7.10    1.90
   4   2  -6    7.30    2.30
  -4   2   6    6.30    1.40
   3  -2  -6   53.49    6.50
   3   2  -6   57.59    7.00
  -3   2   6   49.30    5.60
   2  -2  -6   47.10    5.80
  -2  -2   6   36.70    5.10
  -2   2   6   37.00    5.30
   2   2  -6   41.60    5.90
   1  -2  -6   43.50    4.70
  -1  -2   6   41.10    4.80
  -1   2   6   30.40    4.90
   1   2  -6   39.50    5.60
   0  -2   6    3.80    2.10
   0  -2   6    5.30    2.70
   0  -2   6    2.80    1.50
   0  -2  -6    3.40    2.70
   0   2  -6    0.60    2.70
   0   2   6    5.20    2.70
   0   2  -6    2.60    1.20
   0   2   6    3.10    1.70
   0   2   6   -0.30    1.80
   1  -2   6    2.20    2.40
  -1  -2  -6    0.80    2.30
  -1  -2  -6   -0.70    1.40
   1  -2   6    0.60    1.90
  -1   2  -6    0.60    1.70
  -1   2  -6    1.20    2.30
   1   2   6    2.90    2.40
  -2  -2  -6    1.20    2.00
   2  -2   6    7.80    4.20
   2  -2   6    6.40    3.00
   2  -2   6    5.40    2.60
  -2  -2  -6    4.20    2.80
   2   2   6    2.60    2.40
   2   2   6    5.10    3.00
   2   2   6    7.00    3.50
  -2   2  -6    6.80    2.40
  -3  -2  -6    1.90    2.30
   3  -2   6    2.50    3.80
   3  -2   6    2.30    3.00
   3  -2   6    1.50    2.70
   3   2   6    1.40    2.70
   3   2   6   -0.30    2.70
  -3   2  -6    3.20    2.60
   3   2   6   -0.70    2.40
  -3   2  -6   -1.20    3.00
  -5  -3   6    6.60    3.70
   5  -3  -6   12.70    2.80
   5  -3  -6    8.20    3.00
  -5  -3   6    9.70    3.80
   5  -3  -6   11.70    4.90
  -5   3   6    9.60    3.60
   5   3  -6    6.70    2.60
   5   3  -6   13.00    3.60
   5   3  -6   16.40    3.50
  -5   3   6   12.90    2.20
   4  -3  -6  117.79    7.80
  -4  -3   6  133.09    9.30
   4  -3  -6  127.49    9.70
   4  -3  -6  135.39    7.20
   4   3  -6  125.69    7.60
  -4   3   6  127.99    8.60
   4   3  -6  138.29    6.60
  -4   3   6  133.49    6.80
   4   3  -6  141.99    7.30
   3  -3  -6   20.00    2.40
   3  -3  -6   18.50    4.50
  -3  -3   6   27.00    4.40
   3  -3  -6   18.80    2.40
  -3   3   6   22.90    1.80
  -3   3   6   23.30    4.40
  -2  -3   6  158.98    9.20
   2  -3  -6  161.18    9.70
   2   3  -6  150.48   10.20
  -2   3   6  153.68    9.10
  -1  -3   6   51.59    5.20
   1  -3  -6   47.00    5.00
  -1   3   6   48.00    3.00
   1   3  -6   46.30    6.00
  -1   3   6   44.40    2.40
  -1   3   6   46.30    2.90
   0  -3   6   21.10    3.30
   0  -3  -6   24.20    3.60
   0  -3   6   24.30    4.00
   0  -3   6   22.70    2.60
   0   3   6   21.70    3.40
   0   3   6   20.40    3.00
   0   3   6   20.30    2.50
   0   3   6   16.70    2.90
   0   3  -6   21.20    2.10
   0   3  -6   30.90    4.60
   1  -3   6   76.29    6.80
  -1  -3  -6   76.49    4.60
   1  -3   6   77.49    5.50
  -1  -3  -6   91.09    5.80
   1  -3   6   79.09    7.70
  -1   3  -6   90.99    5.20
   1   3   6   82.49    7.90
   1   3   6   76.69    5.60
  -1   3  -6   71.19    5.60
   2  -3   6    2.10    2.80
  -2  -3  -6    1.40    1.90
  -2  -3  -6   -1.70    2.50
   2  -3   6    2.40    2.70
   2   3   6   -1.40    2.80
  -2   3  -6   -0.40    2.00
  -2   3  -6    1.20    2.40
   2   3   6   -3.70    2.50
   2   3   6    0.20    2.30
  -3  -3  -6    4.50    3.50
   3  -3   6    2.50    2.90
   3  -3   6    6.90    3.70
  -3  -3  -6   10.40    2.70
   3   3   6    8.20    4.10
  -3   3  -6    4.00    2.80
   3   3   6    7.00    2.70
  -3   3  -6    3.80    3.10
   3   3   6    3.00    3.00
  -5  -4   6   37.40    5.30
   5  -4  -6   40.00    4.40
   5  -4  -6   31.10    5.10
   5  -4  -6   35.50    9.70
  -5  -4   6   40.50    6.00
   5   4  -6   37.90    5.70
   5   4  -6   34.80    4.80
  -5   4   6   37.60    3.50
  -5   4   6   38.90    5.80
  -4  -4   6   63.29    6.80
   4  -4  -6   65.49    4.90
   4  -4  -6   49.50    7.00
   4  -4  -6   65.69    5.30
  -4  -4   6   62.69    6.80
   4   4  -6   63.19    4.00
  -4   4   6   52.59    6.10
   4   4  -6   64.29    4.90
   4   4  -6   69.89    4.70
  -3  -4   6    7.00    3.70
   3  -4  -6    5.60    1.90
   3  -4  -6    5.40    4.00
  -3   4   6    4.30    2.90
   3   4  -6    4.90    1.60
  -2  -4   6  206.68   11.40
   2  -4  -6  218.68   11.70
   2   4  -6  209.78   12.60
  -2   4   6  216.88   11.40
  -1  -4   6    5.30    2.70
  -1  -4   6    7.80    1.60
   1  -4  -6    2.40    2.70
   1  -4  -6    7.90    1.70
  -1   4   6    5.10    2.90
  -1   4   6    7.50    1.80
  -1   4   6    6.10    1.20
   1   4  -6    7.30    3.50
   1   4  -6    7.00    1.10
   0  -4  -6   30.60    3.80
   0  -4   6   31.60    3.10
   0  -4   6   26.00    4.20
   0   4  -6   25.70    2.40
   0   4  -6   26.30    4.40
   0   4   6   25.20    3.60
   0   4   6   25.60    3.60
   0   4   6   24.60    2.70
   1  -4   6   54.69    4.70
  -1  -4  -6   55.39    4.70
   1  -4   6   58.39    4.70
   1   4   6   54.79    4.90
  -1   4  -6   56.49    4.90
   1   4   6   57.79    8.00
  -1   4  -6   59.49    4.20
   2  -4   6   -0.10    3.00
  -2  -4  -6    5.50    3.00
   2  -4   6    5.20    2.60
  -2  -4  -6    4.40    2.00
  -2   4  -6    4.70    2.70
   2   4   6    3.80    3.00
   2   4   6    4.80    2.50
   2   4   6    4.60    3.10
  -2   4  -6    9.90    2.70
  -3  -4  -6   25.10    3.90
  -3  -4  -6   16.00    3.80
   3  -4   6   37.40    5.70
   3  -4   6   19.30    3.60
  -3   4  -6   30.60    4.50
  -3   4  -6   21.30    3.80
   3   4   6   28.00    5.00
   3   4   6   23.40    3.40
   3   4   6   27.90    5.00
  -4  -5   6   -1.20    3.10
   4  -5  -6    1.90    2.10
   4  -5  -6    2.70    2.20
   4  -5  -6    1.00    3.90
  -4  -5   6   -0.20    3.40
  -4   5   6    2.20    3.00
   4   5  -6   -1.40    1.60
   4   5  -6   -0.20    1.40
   4   5  -6   -0.90    1.70
   3  -5  -6    5.90    3.70
   3  -5  -6    3.70    1.90
  -3  -5   6   -1.30    2.40
  -3  -5   6    0.00    3.20
   3   5  -6    6.10    1.90
  -3   5   6    4.00    3.10
   3   5  -6    1.70    1.60
  -3   5   6    3.20    1.50
  -3   5   6    4.30    1.30
   3   5  -6    1.60    1.30
   2  -5  -6   93.89    6.70
   2  -5  -6   83.99    4.80
  -2   5   6   83.59    4.50
  -2   5   6   80.99    6.60
  -2   5   6   76.49    3.90
  -1  -5   6   49.70    3.70
  -1  -5   6   52.59    5.20
   1  -5  -6   48.40    4.80
   1  -5  -6   50.99    3.90
  -1   5   6   45.60    3.00
  -1   5   6   48.40    3.90
  -1   5   6   48.40    5.40
   1   5  -6   48.30    6.00
   1   5  -6   46.20    3.20
   1   5  -6   49.80    2.70
   0  -5   6   41.80    4.40
   0  -5  -6   38.20    4.30
   0  -5  -6   43.30    4.10
   0   5   6   42.00    4.80
   0   5   6   43.40    3.30
   0   5  -6   44.10    5.60
   0   5   6   36.80    4.20
   0   5  -6   41.70    3.80
   0   5  -6   41.20    3.00
   1  -5   6    1.60    2.10
   1  -5   6    0.60    2.10
   1   5   6    2.90    2.10
  -1   5  -6    2.40    2.70
  -1   5  -6   -0.80    1.60
   1   5   6   -1.10    2.50
  -1   5  -6    0.20    2.20
  -2  -5  -6    5.10    2.90
   2  -5   6    5.30    2.90
  -2  -5  -6   -0.10    1.80
   2  -5   6   -0.20    2.40
   2   5   6    3.40    2.90
   2   5   6    0.40    2.50
  -2   5  -6    4.50    2.30
   2   5   6   -0.30    3.20
  -2   5  -6    1.80    2.50
   3  -5   6    0.40    3.20
  -3  -5  -6   -1.50    3.20
   3  -5   6   12.40    4.70
   3  -5   6    5.20    3.60
  -3  -5  -6    6.90    2.40
   3   5   6    7.40    2.70
   3   5   6    6.70    3.50
  -3   5  -6   13.80    3.20
   3   5   6    2.60    3.10
   4  -6  -6   46.90    4.90
  -4  -6   6   44.50    6.20
  -4  -6   6   44.00    6.50
   4  -6  -6   46.20    6.40
   4   6  -6   41.90    4.00
  -4   6   6   48.90    5.90
  -4   6   6   43.70    3.90
  -3  -6   6  102.09    7.60
  -3  -6   6   98.59    7.70
   3  -6  -6  100.59    7.50
   3  -6  -6   99.99    6.20
  -3   6   6   94.59    5.10
   3   6  -6  100.19    5.80
  -3   6   6  101.99    6.00
  -3   6   6   98.49    7.50
  -2  -6   6   59.39    4.10
   2  -6  -6   64.59    4.40
  -2  -6   6   56.69    5.60
   2  -6  -6   54.29    5.50
   2   6  -6   59.09    3.50
  -2   6   6   56.49    3.80
  -2   6   6   40.20    6.40
   2   6  -6   53.49    2.80
  -2   6   6   52.89    3.00
  -1  -6   6   88.29    5.70
   1  -6  -6   96.59    6.20
   1  -6  -6   97.09    6.40
  -1  -6   6   88.79    6.70
   1   6  -6   99.29    5.40
   1   6  -6   93.99    8.00
   1   6  -6   96.79    4.70
  -1   6   6   93.59    5.00
  -1   6   6  103.39    7.00
  -1   6   6   92.99    5.90
   0  -6  -6   24.90    4.10
   0  -6   6   25.30    4.00
   0  -6  -6   23.50    3.60
   0  -6   6   23.10    3.50
   0   6   6   26.50    3.00
   0   6  -6   31.20    5.10
   0   6  -6   26.70    2.50
   0   6   6   22.70    3.50
   0   6   6   23.60    3.90
   0   6  -6   21.00    3.30
  -1  -6  -6    7.40    2.80
   1  -6   6   19.80    3.20
   1  -6   6   14.10    2.80
  -1   6  -6   23.90    3.10
  -1   6  -6   14.70    3.20
   1   6   6   16.60    4.50
   1   6   6   17.20    3.30
   1   6   6   23.70    3.30
   2  -6   6    1.80    2.40
  -2  -6  -6    0.10    2.60
   2  -6   6    1.50    3.20
   2   6   6    1.10    3.00
   2   6   6   -0.60    3.90
  -2   6  -6    1.20    2.20
  -2   6  -6   -2.00    2.20
   2   6   6   -0.70    2.40
   3  -6   6   -5.00    3.00
  -3  -6  -6    0.70    3.40
  -3  -6  -6    1.90    2.20
   3  -6   6    2.20    2.90
   3   6   6    3.30    2.60
   3   6   6    3.00    5.00
   3   6   6    3.30    3.30
  -3   6  -6    4.20    2.70
   4  -7  -6   80.19    6.50
  -4  -7   6   68.69    7.30
  -4  -7   6   61.59    7.20
   4  -7  -6   76.49    7.20
  -4   7   6   69.59    4.80
  -4   7   6   81.39    6.80
   3  -7  -6   30.80    4.00
  -3  -7   6   30.50    5.20
   3  -7  -6   31.70    4.70
  -3  -7   6   30.40    4.70
  -3   7   6   34.10    2.80
   3   7  -6   33.20    3.80
  -3   7   6   33.40    4.60
  -3   7   6   31.60    3.50
   3   7  -6   29.20    2.80
  -2  -7   6  139.19    8.80
  -2  -7   6  124.09    8.10
   2  -7  -6  149.88    8.80
   2  -7  -6  143.19    8.10
  -2  -7   6  149.69    8.90
   2   7  -6  149.69    6.70
  -2   7   6  150.68    7.70
  -2   7   6  146.69    6.90
   2   7  -6  158.88    7.50
  -2   7   6  141.69    9.00
   1  -7  -6   40.40    4.60
  -1  -7   6   35.60    4.90
  -1  -7   6   36.80    4.10
   1  -7  -6   40.90    4.40
   1   7  -6   34.20    3.30
  -1   7   6   35.00    3.10
   1   7  -6   38.20    2.60
   1   7  -6   43.00    6.50
  -1   7   6   41.10    5.20
  -1   7   6   35.90    4.10
   0  -7   6   50.99    4.80
   0  -7  -6   61.29    4.90
   0  -7  -6   53.89    5.40
   0  -7   6   50.59    4.70
   0   7   6   52.89    5.20
   0   7  -6   51.39    4.40
   0   7   6   54.39    5.30
   0   7  -6   51.69    6.10
   0   7   6   51.59    3.90
   0   7  -6   54.49    3.70
   1  -7   6    8.40    2.60
  -1  -7  -6    6.40    2.70
   1  -7   6    6.50    2.80
  -1   7  -6    7.90    2.20
  -1   7  -6    9.60    2.80
   1   7   6    8.60    2.60
  -1   7  -6    7.50    3.00
   1   7   6   13.60    3.10
   1   7   6   14.60    3.80
  -2  -7  -6   11.10    3.30
   2  -7   6   19.70    3.70
   2  -7   6   14.70    3.60
   2   7   6   14.80    3.20
   2   7   6   15.60    5.20
  -2   7  -6   19.40    3.10
  -2   7  -6   19.50    3.20
  -2   7  -6   16.40    4.40
   2   7   6   17.20    3.30
  -3  -7  -6    4.50    3.60
   3  -7   6    2.70    2.90
   3  -7   6    1.50    3.30
  -3   7  -6    3.90    2.70
   3   7   6    8.30    4.20
   3   7   6    0.80    3.20
  -4  -8   6   57.09    6.90
  -4  -8   6   62.89    7.30
   4  -8  -6   84.79    9.40
  -4   8   6   59.09    6.30
  -4   8   6   64.49    4.60
   4   8  -6   65.39    5.80
   4   8  -6   57.39    5.40
   3  -8  -6    8.70    3.60
   3  -8  -6    4.50    2.60
  -3  -8   6    1.60    3.10
  -3  -8   6   12.10    3.80
   3   8  -6    9.00    1.80
  -3   8   6    5.10    2.20
  -3   8   6    7.70    1.80
  -3   8   6    8.90    3.00
   3   8  -6   12.90    2.70
   2  -8  -6  114.89    7.50
  -2  -8   6  100.29    7.10
  -2  -8   6  116.89    7.80
  -2  -8   6  112.89    7.70
   2  -8  -6  120.09    7.20
  -2   8   6  117.09    5.80
   2   8  -6  115.29    5.60
   2   8  -6  118.49    6.40
  -2   8   6  111.69    6.60
  -2   8   6  120.69    7.90
   1  -8  -6   15.90    3.30
   1  -8  -6    8.40    2.50
  -1  -8   6    4.10    4.60
  -1   8   6   10.10    3.30
  -1   8   6   12.50    2.10
   1   8  -6   12.60    1.80
  -1   8   6    9.50    2.80
   1   8  -6   14.30    2.50
   1   8  -6   11.10    4.60
   0  -8  -6    1.10    2.40
   0  -8  -6    4.80    2.90
   0  -8   6    2.10    2.50
   0  -8   6    1.50    2.20
   0   8   6   -0.90    2.80
   0   8  -6    2.70    3.80
   0   8   6    2.60    1.90
   0   8  -6    1.80    1.60
   0   8  -6   -1.90    1.70
   0   8   6    3.00    2.60
  -1  -8  -6    3.40    2.80
   1  -8   6    5.70    2.60
   1  -8   6    4.30    3.00
   1   8   6    3.40    2.80
  -1   8  -6    6.00    2.20
   1   8   6    7.20    3.20
  -1   8  -6    2.80    2.90
   1   8   6    7.10    2.40
  -1   8  -6    4.90    2.60
   2  -8   6    0.60    2.90
   2  -8   6   -0.60    2.50
  -2  -8  -6   -1.10    2.80
   2   8   6   -0.30    2.60
   2   8   6   -1.40    2.70
  -2   8  -6   -2.20    2.10
  -2   8  -6   -2.00    2.10
  -2   8  -6   -2.90    2.20
  -3  -8  -6    3.70    3.70
   3  -8   6    2.40    3.50
   3  -8   6   -1.40    2.80
   3   8   6    3.10    3.00
   3   8   6    1.30    3.70
  -3   8  -6    4.10    2.90
   4  -9  -6   61.79    6.20
  -4  -9   6   49.10    6.80
  -4   9   6   63.79    4.70
   4   9  -6   55.49    5.60
  -4   9   6   51.49    6.10
  -4   9   6   48.90    5.70
  -3  -9   6    4.20    3.60
   3  -9  -6    3.70    3.10
   3  -9  -6    3.80    2.70
  -3  -9   6    4.20    3.70
  -3  -9   6    1.30    2.70
   3   9  -6    3.50    1.90
   3   9  -6    1.90    2.30
  -3   9   6   -1.30    1.80
  -3   9   6    1.40    1.70
  -3   9   6    2.50    3.30
  -2  -9   6   23.00    4.00
  -2  -9   6   16.50    3.80
  -2  -9   6   28.60    4.60
   2  -9  -6   27.30    4.20
   2  -9  -6   30.90    4.20
   2   9  -6   31.20    3.30
   2   9  -6   29.60    2.60
  -2   9   6   33.10    4.90
  -2   9   6   33.00    2.80
  -2   9   6   31.90    3.40
  -1  -9   6   11.30    3.10
   1  -9  -6   15.00    3.20
  -1  -9   6   12.10    3.30
   1  -9  -6    9.50    3.00
   1   9  -6   11.00    2.60
  -1   9   6   10.40    2.20
  -1   9   6   10.80    3.50
  -1   9   6   13.20    3.10
   1   9  -6   12.30    1.80
   0  -9   6    5.80    2.60
   0  -9  -6    5.70    3.10
   0  -9   6    3.70    2.80
   0  -9  -6    5.20    2.40
   0   9  -6    9.00    2.00
   0   9  -6    8.20    4.10
   0   9  -6    6.20    2.40
   0   9   6    7.00    2.20
   0   9   6    6.60    3.00
   0   9   6   11.00    3.30
  -1  -9  -6    5.60    3.50
   1  -9   6    8.00    2.80
  -1  -9  -6    3.90    2.50
   1  -9   6    4.50    2.70
   1   9   6   11.40    3.30
   1   9   6    6.80    2.50
  -1   9  -6    6.90    2.70
   1   9   6    3.60    3.10
  -1   9  -6    4.70    3.20
  -1   9  -6    3.70    2.20
   2  -9   6   24.10    4.00
   2  -9   6   15.90    3.60
  -2  -9  -6    8.80    3.40
  -2  -9  -6   19.00    7.10
   2   9   6   15.50    3.60
  -2   9  -6   22.80    3.40
   2   9   6   12.10    3.10
  -2   9  -6   11.10    3.40
   2   9   6   18.30    6.30
  -4 -10   6    3.30    4.40
  -4 -10   6    1.40    3.90
   4 -10  -6    1.80    3.00
   4 -10  -6    0.20    3.20
  -4  10   6    0.80    2.70
   4  10  -6    4.10    2.70
   4  10  -6    0.00    2.80
  -4  10   6   -2.90    2.00
  -4  10   6    1.60    2.30
  -3 -10   6   -3.20    2.90
  -3 -10   6   -1.70    2.90
  -3 -10   6    6.10    3.80
   3 -10  -6    2.40    3.10
   3 -10  -6   -1.90    2.70
  -3  10   6    5.80    2.00
   3  10  -6    0.70    2.30
  -3  10   6    1.10    2.00
  -3  10   6   -0.50    3.00
   3  10  -6    3.50    2.00
   2 -10  -6   56.09    5.50
  -2 -10   6   56.29    6.10
  -2 -10   6   60.19    5.70
   2 -10  -6   63.19    5.20
  -2 -10   6   59.99    6.40
  -2  10   6   51.79    4.60
   2  10  -6   52.29    4.50
  -2  10   6   56.39    3.90
   2  10  -6   52.79    3.70
  -2  10   6   60.09    5.90
  -1 -10   6    7.00    3.10
   1 -10  -6    8.90    3.10
   1 -10  -6    8.10    3.10
  -1 -10   6    7.20    3.00
  -1  10   6    9.80    3.40
   1  10  -6   13.50    2.80
  -1  10   6   11.40    2.30
   1  10  -6   12.60    1.90
  -1  10   6   13.70    3.20
   0 -10   6  239.18   13.40
   0 -10  -6  261.77   13.00
   0 -10  -6  250.57   14.30
   0 -10   6  258.17   12.80
   0  10   6  278.07   12.40
   0  10   6  258.77   13.60
   0  10  -6  270.17   13.50
   0  10  -6  267.67   12.20
   0  10   6  279.07   13.40
   0  10  -6  250.07   14.10
  -1 -10  -6   -0.30    2.90
   1 -10   6    0.30    2.70
   1 -10   6   -3.10    2.50
  -1 -10  -6   -2.00    2.50
  -1  10  -6    0.70    2.10
  -1  10  -6    2.90    2.70
  -1  10  -6   -0.20    3.20
   1  10   6    1.30    2.70
   1  10   6    1.50    2.30
   1  10   6   -1.00    2.60
   2 -10   6   46.40    5.40
  -2 -10  -6   39.20    5.40
   2 -10   6   51.79    5.60
  -2  10  -6   44.50    5.50
   2  10   6   39.40    6.10
   2  10   6   58.19    5.30
   2  10   6   59.99    5.60
  -2  10  -6   53.69    4.90
   4 -11  -6    5.30    3.30
   4 -11  -6    2.20    3.10
  -4 -11   6    3.60    4.30
  -4 -11   6   -4.00    3.80
  -4 -11   6   -1.00    3.30
  -4  11   6    4.60    2.50
   4  11  -6    1.70    2.50
   4  11  -6   -1.20    2.50
  -4  11   6   -0.60    2.30
  -4  11   6    0.30    2.70
  -3 -11   6   10.50    3.90
   3 -11  -6   11.10    3.50
  -3 -11   6    5.90    3.70
   3 -11  -6   10.80    3.60
  -3 -11   6    1.50    3.80
  -3  11   6   10.40    2.40
   3  11  -6    5.50    2.10
  -3  11   6    7.00    2.60
   3  11  -6    5.30    2.60
  -3  11   6    8.40    3.20
  -2 -11   6  124.39    8.90
  -2 -11   6  119.89    8.70
  -2 -11   6  123.89    8.60
   2 -11  -6  133.89    7.80
   2 -11  -6  118.09    8.20
  -2  11   6  131.29    6.70
  -2  11   6  110.59    7.50
  -2  11   6  135.29    8.40
   2  11  -6  128.49    6.50
   2  11  -6  120.39    7.40
  -1 -11   6   15.10    3.70
  -1 -11   6    6.30    3.10
   1 -11  -6    9.20    2.70
   1 -11  -6   13.10    3.50
   1  11  -6   16.40    2.60
  -1  11   6    8.80    3.20
  -1  11   6   15.50    3.50
  -1  11   6   15.00    2.50
   1  11  -6   13.10    2.90
   0 -11   6   94.99    7.00
   0 -11  -6   83.29    7.60
   0 -11   6   82.99    7.00
   0 -11  -6   84.59    6.00
   0  11  -6   95.49    8.10
   0  11  -6   86.39    6.40
   0  11   6   69.39    5.90
   0  11   6   95.09    7.20
   0  11   6  104.39    6.80
   0  11  -6   85.99    5.40
  -1 -11  -6   -1.30    2.80
   1 -11   6    1.40    2.70
  -1 -11  -6    2.80    2.60
   1 -11   6   -2.00    2.70
   1  11   6   -1.30    2.80
   1  11   6    1.70    2.70
  -1  11  -6    0.90    3.50
   1  11   6    1.60    2.40
  -1  11  -6   -1.80    2.20
  -1  11  -6    3.40    2.30
  -2 -11  -6   -4.90    2.90
  -2 -11  -6   -0.10    2.90
   2 -11   6   -0.10    2.50
   2 -11   6    4.60    3.50
   2  11   6   -0.20    3.00
   2  11   6    0.50    2.50
  -2  11  -6   -3.90    2.40
  -2  11  -6    2.60    2.60
   3 -12  -6    8.70    3.50
   3 -12  -6   12.10    3.50
  -3 -12   6    5.50    3.90
  -3  12   6    8.50    2.80
  -3  12   6   10.70    2.60
   3  12  -6    6.60    2.20
   3  12  -6    3.10    2.60
  -3  12   6    9.60    3.30
  -2 -12   6    1.00    3.20
   2 -12  -6   -3.30    2.60
  -2 -12   6    4.00    3.40
  -2 -12   6   -0.70    3.40
   2 -12  -6   -1.60    2.60
  -2  12   6    4.90    3.10
  -2  12   6    0.40    1.90
   2  12  -6    0.50    1.70
   2  12  -6    2.90    2.20
  -2  12   6   -0.70    1.70
  -1 -12   6    0.20    2.70
  -1 -12   6    4.10    3.20
  -1 -12   6   -1.90    3.20
   1 -12  -6   -1.20    2.80
   1 -12  -6    1.00    2.50
  -1  12   6    1.60    2.70
  -1  12   6   -3.00    2.40
   1  12  -6   -0.50    1.60
   1  12  -6    1.30    2.20
  -1  12   6    1.60    2.20
   0 -12  -6   35.60    4.50
   0 -12   6   42.00    5.60
   0 -12  -6   53.09    6.70
   0 -12   6   39.60    4.90
   0  12  -6   44.40    6.80
   0  12   6   42.60    5.00
   0  12   6   42.40    5.90
   0  12  -6   37.20    4.80
   0  12  -6   46.60    4.10
   0  12   6   44.70    5.40
  -1 -12  -6    3.40    3.70
   1 -12   6   -0.40    3.10
   1 -12   6    2.20    3.00
  -1 -12  -6    0.30    2.70
   1  12   6    0.30    2.40
  -1  12  -6    4.00    2.80
   1  12   6   -1.00    2.70
  -1  12  -6    0.20    3.60
   1  12   6    1.80    3.40
  -1  12  -6    4.40    2.50
   2 -12   6   -0.20    2.70
  -2 -12  -6    3.20    3.30
   2 -12   6   -2.80    3.30
  -2 -12  -6   -2.70    2.90
   2  12   6    2.10    2.80
   2  12   6   -3.20    3.10
  -2  12  -6   -0.60    2.70
  -2  12  -6    0.00    2.70
  -3 -13   6    0.60    3.90
  -3 -13   6   -4.80    2.90
   3 -13  -6   -1.20    2.90
   3 -13  -6   -1.30    2.80
  -3 -13   6   -1.90    3.70
   3  13  -6   -1.70    2.00
  -3  13   6    2.90    3.10
  -3  13   6   -3.30    2.00
  -3  13   6   -1.10    2.00
  -2 -13   6   11.90    4.40
  -2 -13   6    7.30    3.70
   2 -13  -6   17.90    3.60
  -2 -13   6   22.00    4.50
   2 -13  -6    8.90    3.50
  -2  13   6   11.30    2.80
   2  13  -6   12.00    2.90
  -2  13   6   21.90    3.00
   2  13  -6   17.50    2.50
  -2  13   6   16.50    3.70
   1 -13  -6    1.60    2.70
  -1 -13   6    0.00    3.10
  -1 -13   6   -4.20    2.80
   1 -13  -6   -3.50    2.60
  -1 -13   6   -2.70    2.60
   1  13  -6    3.40    2.40
   1  13  -6   -1.90    1.70
  -1  13   6   -1.00    2.40
  -1  13   6    2.00    3.10
  -1  13   6   -3.30    2.00
   0 -13  -6    5.30    3.70
   0 -13   6    1.60    3.20
   0 -13   6   -1.20    2.60
   0 -13  -6    4.80    3.10
   0  13   6    3.50    2.80
   0  13   6    3.70    3.30
   0  13  -6    3.90    2.80
   0  13  -6    1.00    4.70
   0  13  -6    5.60    2.30
  -1 -13  -6   -0.90    2.80
   1 -13   6   -1.80    2.90
  -1 -13  -6    7.20    3.80
   1 -13   6    0.00    3.00
  -1  13  -6   -4.40    3.40
  -1  13  -6    0.50    2.50
  -1  13  -6   -0.20    2.30
   1  13   6    1.20    2.70
   1  13   6    3.10    2.50
   1  13   6    3.70    3.30
  -3 -14   6    1.40    4.20
  -3 -14   6   18.80    4.80
   3 -14  -6    9.50    4.10
   3 -14  -6   15.10    3.60
  -3 -14   6   14.30    4.70
  -3  14   6   10.50    4.50
   3  14  -6    5.10    2.70
   3  14  -6   11.20    2.60
  -3  14   6   12.20    3.80
  -3  14   6   13.40    2.80
  -2 -14   6    4.70    3.80
  -2 -14   6    7.80    4.20
   2 -14  -6    4.20    3.10
  -2 -14   6    3.20    3.50
   2 -14  -6    5.00    3.50
   2  14  -6    3.30    2.50
  -2  14   6    3.70    2.30
   2  14  -6    2.10    2.10
  -2  14   6    4.60    2.40
  -2  14   6    2.60    3.10
  -1 -14   6    1.30    3.20
   1 -14  -6    4.80    3.40
  -1 -14   6    5.10    3.80
  -1 -14   6    4.70    3.50
   1 -14  -6    4.40    2.90
  -1  14   6    2.50    2.30
   1  14  -6    3.50    2.10
   1  14  -6    3.40    2.70
  -1  14   6    6.30    3.10
  -1  14   6    4.90    2.90
   0 -14  -6    3.20    3.50
   0 -14   6   -1.20    2.80
   0 -14   6   -2.20    3.20
   0 -14  -6    0.80    3.40
   0  14  -6    3.70    2.40
   0  14   6    6.80    3.50
   0  14   6    1.70    2.90
   0  14   6    3.30    2.60
   0  14  -6    1.70    2.60
   0  14  -6    1.70    4.90
   1 -14   6   33.40    5.50
   1 -14   6   33.50    5.10
  -1 -14  -6   32.20    5.70
  -1 -14  -6   28.90    4.60
  -1  14  -6   33.90    4.30
  -1  14  -6   36.50    5.10
  -2 -15   6   22.80    5.20
   2 -15  -6   29.00    4.60
  -2 -15   6   17.60    5.10
   2 -15  -6   22.80    4.70
  -2  15   6   40.60    4.20
  -2  15   6   31.60    5.30
   2  15  -6   32.30    4.50
   2  15  -6   29.00    3.70
   1 -15  -6   11.70    4.00
   1 -15  -6   16.30    3.50
  -1 -15   6    9.20    3.80
  -1 -15   6   20.50    4.90
  -1 -15   6   15.40    4.00
   1  15  -6    9.80    3.10
  -1  15   6   13.50    3.40
  -1  15   6   12.50    2.70
   1  15  -6   10.90    2.50
  -1  15   6   10.90    3.40
   0 -15   6   46.00    6.50
   0 -15  -6   49.70    6.80
   0 -15   6   52.99    5.50
   0 -15  -6   44.80    5.10
   0  15  -6   55.09    7.70
   0  15  -6   57.09    6.00
   0  15   6   58.69    5.30
   0  15   6   40.30    5.10
   0  15  -6   49.10    4.60
   0  15   6   51.09    6.30
   1 -15   6    2.00    3.40
  -1 -15  -6   -1.40    2.70
   1 -15   6   -1.70    3.10
  -1 -15  -6   -4.80    3.10
  -1  15  -6   -2.00    2.30
   1  15   6   -2.40    3.10
   1  15   6    1.50    2.70
  -1  15  -6   -2.80    2.50
   1 -16  -6   -3.10    3.00
  -1 -16   6    0.10    3.70
   1 -16  -6    1.60    3.00
  -1  16   6    1.90    2.90
  -1  16   6    1.00    2.30
   1  16  -6    6.40    3.10
   1  16  -6    1.30    2.20
  -1  16   6    2.70    2.90
   0 -16  -6   43.30    5.20
   0 -16  -6   49.40    7.10
   0 -16   6   56.79    5.80
   0 -16   6   58.49    6.90
   0  16   6   52.99    6.40
   0  16  -6   54.49    6.00
   0  16   6   61.79    5.20
   0  16   6   53.29    7.50
   0  16  -6   56.89    4.80
  -4   0   7   -1.80    3.50
   4   0  -7    1.30    4.10
   3   0  -7    8.20    4.40
  -3   0   7    7.80    3.50
  -2   0   7   -5.20    2.70
   2   0  -7    3.70    3.80
  -1   0   7   12.10    3.40
   1   0  -7    8.80    4.00
   0   0   7   -0.40    1.50
   0   0  -7   -0.30    2.80
   0   0   7   -4.50    2.60
   0   0   7    2.60    2.10
   1   0   7    7.20    2.90
   1   0   7   10.60    3.00
   1   0   7   10.50    3.20
  -1   0  -7   17.00    2.40
  -1   0  -7    8.90    2.90
   2   0   7    2.00    2.80
   2   0   7    0.60    2.80
  -2   0  -7   -1.20    2.10
  -2   0  -7   -3.60    2.60
   2   0   7   -1.00    2.60
  -4  -1   7    2.10    3.80
   4  -1  -7    0.80    4.20
   4   1  -7    0.80    4.20
  -4   1   7    1.20    3.40
   3  -1  -7    4.40    4.10
  -3  -1   7    3.50    3.50
   3   1  -7    1.50    3.70
  -3   1   7    7.20    3.60
  -2  -1   7    7.70    3.50
   2  -1  -7    9.50    4.10
   2   1  -7   16.50    4.50
  -2   1   7    8.40    3.40
  -1  -1   7   44.40    5.20
   1  -1  -7   43.50    5.20
   1   1  -7   50.49    6.00
  -1   1   7   49.99    5.60
   0  -1  -7    1.40    2.70
   0  -1   7   -2.70    2.70
   0  -1   7    0.50    2.10
   0  -1   7    0.00    1.50
   0   1   7    3.90    2.90
   0   1   7    2.30    2.20
   0   1  -7    1.00    3.00
   0   1   7    1.70    1.70
   0   1  -7    1.70    1.10
  -1  -1  -7   11.90    2.10
   1  -1   7   13.30    3.20
   1  -1   7   12.30    3.20
   1  -1   7   12.00    2.90
  -1  -1  -7    6.40    2.90
  -1   1  -7   14.00    2.40
   1   1   7   18.70    3.60
   1   1   7   17.40    3.80
   1   1   7   12.40    3.20
  -1   1  -7   13.10    3.20
   2  -1   7   -4.10    2.40
   2  -1   7    0.60    2.70
   2  -1   7    1.20    2.90
  -2  -1  -7   -3.20    3.30
  -2  -1  -7    2.80    3.00
   2   1   7   -1.10    2.70
   2   1   7    2.70    2.80
   2   1   7    4.50    3.30
  -2   1  -7   -0.60    4.00
  -2   1  -7   -0.70    2.20
  -4  -2   7   -1.50    3.50
   4  -2  -7    6.30    4.40
  -4   2   7   -0.40    3.40
   3  -2  -7   -2.20    4.00
  -3  -2   7    0.90    3.60
  -3   2   7   -3.40    3.10
   3   2  -7    2.10    3.70
   2  -2  -7   30.80    4.70
  -2  -2   7   24.20    4.00
  -2   2   7   33.10    4.70
   2   2  -7   22.90    4.80
  -1  -2   7   26.90    4.00
   1  -2  -7   31.60    4.90
   1   2  -7   25.20    5.10
  -1   2   7   24.80    4.10
   0  -2  -7   87.19    6.80
   0  -2   7  103.29    5.60
   0  -2   7   87.99    6.10
   0  -2   7   94.19    6.90
   0   2   7   81.79    6.00
   0   2  -7   90.49    4.90
   0   2   7  103.29    7.20
   0   2   7  101.89    7.00
   0   2   7  100.89    5.30
   0   2  -7  102.69    7.20
   1  -2   7   13.10    3.00
   1  -2   7   15.00    3.40
  -1  -2  -7    5.30    2.90
   1  -2   7    8.50    3.10
  -1  -2  -7    9.50    2.00
   1   2   7    9.00    3.00
  -1   2  -7   11.50    2.20
   1   2   7   14.70    3.40
  -1   2  -7    9.00    3.20
   1   2   7    7.60    3.00
   2  -2   7   23.80    4.10
  -2  -2  -7   15.80    3.50
   2  -2   7   16.10    4.20
   2  -2   7   12.80    3.00
   2   2   7   16.20    4.30
   2   2   7   23.30    4.20
  -2   2  -7   20.70    3.30
   2   2   7   13.60    3.20
  -2   2  -7   12.70    3.50
  -4  -3   7    9.80    4.00
   4  -3  -7   12.50    4.80
   4   3  -7    4.60    4.80
  -4   3   7    4.50    3.70
   3  -3  -7    5.40    4.00
  -3  -3   7   10.00    5.00
  -3   3   7    8.10    3.30
   3   3  -7    0.10    3.60
   2  -3  -7   58.29    6.30
  -2  -3   7   63.09    6.40
  -2   3   7   50.99    6.10
   2   3  -7   54.69    6.60
   1  -3  -7    8.30    3.40
  -1  -3   7   11.20    3.30
  -1   3   7    5.50    3.10
   1   3  -7   11.50    4.50
   0  -3   7  184.48   10.00
   0  -3  -7  173.18    9.80
   0  -3   7  196.78    9.70
   0  -3   7  180.38    9.90
   0   3   7  176.88    9.80
   0   3  -7  195.78   10.60
   0   3   7  196.48   10.30
   0   3   7  175.28    8.80
   0   3  -7  181.28    8.60
  -1  -3  -7   -0.40    2.60
   1  -3   7    4.90    2.80
   1  -3   7    4.90    2.40
   1  -3   7    1.60    2.70
  -1   3  -7    4.00    2.00
  -1   3  -7    4.20    2.90
   1   3   7   -2.50    2.20
   1   3   7    3.90    2.90
   1   3   7    2.80    2.70
   2  -3   7   53.99    6.40
   2  -3   7   49.99    5.40
  -2  -3  -7   51.69    5.20
   2  -3   7   46.20    5.00
   2   3   7   53.09    6.00
  -2   3  -7   53.39    4.90
  -2   3  -7   54.49    4.90
   2   3   7   51.49    6.20
   4  -4  -7   74.29    4.90
  -4  -4   7   73.89    7.70
   4  -4  -7   74.79    7.90
   4  -4  -7   82.39    5.10
  -4   4   7   70.69    6.70
  -3  -4   7   22.10    4.20
   3  -4  -7   35.40    5.40
   3   4  -7   39.60    6.40
  -3   4   7   49.50    6.20
   2  -4  -7   44.80    5.50
  -2  -4   7   47.80    5.90
  -2   4   7   53.29    5.90
   2   4  -7   51.79    6.80
  -1  -4   7   19.80    3.60
   1  -4  -7   16.90    3.50
  -1   4   7   21.70    2.40
  -1   4   7   20.70    2.30
  -1   4   7   17.80    3.60
  -1   4   7   12.80    1.90
   1   4  -7   28.10    5.40
   0  -4   7   -1.30    2.00
   0  -4   7   -3.60    2.60
   0  -4  -7    0.30    2.60
   0   4   7    2.20    2.30
   0   4   7   -2.40    2.90
   0   4   7   -0.70    1.70
   0   4  -7   -0.10    1.30
   0   4  -7    3.90    3.50
   0   4   7   -0.70    1.90
   1  -4   7    9.90    2.80
   1  -4   7    9.80    3.30
   1  -4   7    3.30    2.50
  -1  -4  -7    6.60    3.00
   1   4   7    6.20    3.10
  -1   4  -7   14.90    3.50
   1   4   7   12.60    3.30
   1   4   7    4.80    3.00
  -1   4  -7   12.60    2.40
   2  -4   7   10.70    3.20
   2  -4   7    6.90    3.30
   2  -4   7    2.30    2.40
  -2  -4  -7    5.40    3.10
   2   4   7    1.70    2.70
   2   4   7    3.30    3.10
   2   4   7    6.50    3.10
  -2   4  -7   12.40    3.00
  -2   4  -7    5.40    2.90
   4  -5  -7    1.10    2.10
   4  -5  -7    4.20    4.30
  -4  -5   7   -5.20    3.80
   4  -5  -7    2.00    2.00
  -4   5   7    0.50    3.00
  -3  -5   7   54.29    6.60
   3  -5  -7   54.39    6.30
  -3   5   7   44.30    6.20
   3   5  -7   59.49    8.00
  -2  -5   7    1.90    3.40
   2  -5  -7    4.40    3.30
   2   5  -7    4.70    4.00
  -2   5   7    1.10    3.30
  -1  -5   7  411.16   18.90
  -1  -5   7  390.16   17.80
   1  -5  -7  420.36   19.20
  -1   5   7  357.16   17.90
  -1   5   7  426.76   19.30
   1   5  -7  401.66   17.20
   1   5  -7  419.56   20.30
   0  -5  -7    2.90    2.50
   0  -5   7    0.00    2.00
   0  -5   7    5.90    2.90
   0   5   7    3.10    2.60
   0   5   7    3.60    3.20
   0   5  -7    1.90    3.60
   0   5  -7    1.90    1.40
   0   5   7    1.80    1.90
   0   5   7    1.30    2.20
   1  -5   7   74.39    5.70
   1  -5   7   74.49    6.70
   1  -5   7   74.99    5.80
  -1  -5  -7   72.79    5.80
  -1   5  -7   80.19    6.20
   1   5   7   76.99    5.70
   1   5   7   85.89    6.50
   1   5   7   66.69    6.40
  -1   5  -7   83.29    5.20
   1   5   7   79.99    6.60
   2  -5   7    1.10    2.60
   2  -5   7    3.30    3.30
  -2  -5  -7    3.80    3.10
   2  -5   7    1.80    2.60
   2   5   7    5.70    2.90
   2   5   7    2.60    2.90
  -2   5  -7    2.70    2.70
  -2   5  -7    2.40    2.40
   2   5   7    0.50    3.20
   4  -6  -7   99.59    6.90
  -4  -6   7   82.19    8.10
   4  -6  -7   93.39    6.40
   4  -6  -7   78.39    7.90
  -4   6   7   85.89    7.30
   3  -6  -7   25.40    4.70
  -3  -6   7   18.20    4.10
  -3   6   7   14.40    3.70
  -2  -6   7  318.67   18.50
   2  -6  -7  298.77   13.50
   2  -6  -7  280.67   14.80
  -2   6   7  282.47   13.00
   2   6  -7  272.97   16.10
  -2   6   7  298.57   15.00
  -1  -6   7   19.60    2.80
   1  -6  -7   16.30    3.40
  -1  -6   7   22.30    4.00
   1  -6  -7   23.80    3.30
   1   6  -7   23.40    4.90
   1   6  -7   17.20    2.80
  -1   6   7   18.20    2.30
  -1   6   7   29.90    4.50
  -1   6   7   21.00    3.30
   1   6  -7   19.00    2.60
   0  -6  -7  102.19    7.20
   0  -6   7  122.79    7.60
   0  -6   7  120.09    7.10
   0   6  -7  121.19    6.20
   0   6   7  113.29    7.70
   0   6   7  126.89    8.10
   0   6  -7  125.79    8.70
   0   6   7  119.69    6.50
   0   6  -7  116.89    7.20
   1  -6   7   -4.00    1.90
   1  -6   7    3.40    2.50
   1   6   7    6.70    3.00
  -1   6  -7    2.00    1.90
   1   6   7    4.40    2.50
  -1   6  -7   -2.30    2.80
   1   6   7    3.80    3.40
   1   6   7    4.00    2.90
  -2  -6  -7    1.90    3.10
   2  -6   7    1.60    2.70
   2  -6   7    5.90    3.00
   2  -6   7    1.00    3.10
  -2   6  -7    2.90    2.50
   2   6   7    1.10    2.90
   2   6   7    7.20    3.30
  -2   6  -7    5.10    2.90
   2   6   7    5.30    3.50
   4  -7  -7    8.60    4.30
  -4  -7   7    3.00    4.20
  -4  -7   7   10.00    4.10
  -4   7   7    7.20    3.40
  -3  -7   7   16.90    4.30
   3  -7  -7   19.20    4.20
   3  -7  -7    9.90    2.60
  -3   7   7   10.40    2.20
  -3   7   7   10.60    4.00
   2  -7  -7   39.30    4.10
  -2  -7   7   32.40    4.70
   2  -7  -7   32.40    4.90
  -2   7   7   29.30    2.90
  -2   7   7   39.00    5.60
   2   7  -7   31.10    2.50
  -2   7   7   29.90    2.20
  -1  -7   7  112.09    6.90
   1  -7  -7  118.69    7.50
   1  -7  -7  119.69    7.40
  -1  -7   7  132.09    8.00
  -1   7   7  106.09    6.90
  -1   7   7  121.09    8.30
   1   7  -7  118.69    9.00
  -1   7   7  113.69    5.90
   1   7  -7  118.49    6.60
   0  -7  -7   35.30    4.50
   0  -7  -7   32.40    4.70
   0  -7   7   36.20    4.20
   0  -7   7   33.70    4.90
   0   7   7   32.20    4.60
   0   7  -7   34.50    5.50
   0   7   7   35.10    4.70
   0   7   7   26.80    3.50
   0   7  -7   30.60    3.10
   0   7  -7   36.90    4.10
   1  -7   7    3.50    2.60
   1  -7   7   15.30    3.30
  -1  -7  -7   12.10    3.20
   1   7   7   15.90    3.70
  -1   7  -7   11.40    3.10
   1   7   7    9.90    3.50
  -1   7  -7   17.50    2.80
   1   7   7   11.00    2.70
  -1   7  -7    7.00    3.50
   2  -7   7    9.60    3.20
   2  -7   7    4.20    3.00
  -2  -7  -7   12.70    3.50
   2   7   7   10.20    3.70
  -2   7  -7   11.90    3.00
  -2   7  -7    8.50    3.10
   2   7   7    8.70    3.30
   2   7   7    5.70    3.30
  -4  -8   7    0.80    3.30
   4  -8  -7    6.50    4.20
  -4  -8   7    5.00    4.30
  -4   8   7    3.40    3.40
   3  -8  -7   24.80    3.70
   3  -8  -7   25.80    4.70
  -3  -8   7   34.00    5.30
  -3   8   7   12.00    3.70
   3   8  -7   18.90    2.80
   2  -8  -7    3.40    2.30
  -2  -8   7    2.40    3.40
  -2  -8   7    2.70    2.50
   2  -8  -7    7.90    3.30
   2   8  -7    4.00    1.70
  -2   8   7    3.60    1.60
  -2   8   7    4.60    3.50
  -2   8   7    2.10    1.90
   1  -8  -7   40.40    4.80
  -1  -8   7   34.60    5.70
   1  -8  -7   42.90    4.60
  -1   8   7   41.10    4.50
   1   8  -7   36.50    3.70
  -1   8   7   47.40    6.00
   1   8  -7   34.50    5.80
   1   8  -7   45.10    3.10
  -1   8   7   44.50    3.40
   0  -8  -7   -0.20    2.40
   0  -8   7    4.90    2.80
   0  -8  -7    3.80    2.80
   0  -8   7   -3.70    2.70
   0   8   7   -0.20    1.90
   0   8  -7    0.00    1.90
   0   8  -7    2.60    4.20
   0   8   7    4.10    3.40
   0   8  -7    3.20    1.80
   0   8   7    0.90    2.80
   1  -8   7   17.70    3.30
   1  -8   7   10.20    2.80
  -1  -8  -7   16.90    3.50
  -1   8  -7   20.30    3.80
  -1   8  -7   17.80    4.00
   1   8   7   22.90    4.40
   1   8   7   25.80    3.90
  -1   8  -7   28.70    3.60
   1   8   7   23.80    4.20
   2  -8   7    3.40    3.10
  -2  -8  -7   -0.80    2.90
   2  -8   7    1.00    2.70
   2   8   7   -0.60    3.20
   2   8   7    1.10    3.20
  -2   8  -7    2.40    2.80
   2   8   7    2.60    3.00
  -2   8  -7    1.90    2.70
  -2   8  -7    6.90    2.80
   3  -9  -7   20.70    3.60
  -3  -9   7   29.30    5.30
  -3  -9   7   14.20    3.70
   3  -9  -7   18.00    4.20
  -3   9   7   20.20    4.40
  -3   9   7   18.60    3.10
   3   9  -7   17.80    2.80
  -3   9   7   19.40    2.60
   2  -9  -7    3.50    2.40
  -2  -9   7   -0.80    3.30
   2  -9  -7    1.00    2.70
  -2   9   7    2.60    1.70
   2   9  -7    2.80    2.10
   2   9  -7   -1.10    1.20
  -2   9   7    1.60    3.30
  -2   9   7    0.30    2.30
  -1  -9   7   16.90    6.20
  -1  -9   7   23.80    3.80
   1  -9  -7   22.10    4.00
   1  -9  -7   18.80    3.70
  -1   9   7   17.40    4.20
   1   9  -7   18.20    5.70
  -1   9   7   16.60    3.40
  -1   9   7   22.30    3.00
   1   9  -7   15.50    2.80
   1   9  -7   18.20    2.50
   0  -9  -7   -0.30    2.80
   0  -9   7   -1.60    2.50
   0  -9   7    3.30    3.00
   0  -9  -7   -2.50    2.50
   0   9   7    6.70    3.00
   0   9  -7   -2.60    1.80
   0   9   7   -0.10    3.40
   0   9   7   -0.80    2.00
   0   9  -7   -1.10    1.80
   0   9  -7   -1.00    4.40
  -1  -9  -7    3.20    3.20
   1  -9   7    0.90    2.60
   1  -9   7    2.70    2.60
  -1  -9  -7    1.20    2.70
  -1   9  -7    0.80    2.20
  -1   9  -7    4.50    2.70
  -1   9  -7   -1.90    3.00
   1   9   7   -3.40    3.20
   1   9   7    3.80    3.30
   1   9   7    1.50    2.30
   2  -9   7   -3.00    2.70
  -2  -9  -7   -1.30    2.90
   2  -9   7   -0.60    2.60
  -2   9  -7    3.00    2.90
  -2   9  -7   -1.30    2.70
   2   9   7    0.40    2.90
  -2   9  -7   -0.50    2.60
  -3 -10   7    4.20    3.30
   3 -10  -7    7.40    3.30
  -3 -10   7    9.30    4.50
  -3 -10   7    8.50    3.10
   3 -10  -7    7.20    3.10
  -3  10   7    6.20    2.50
  -3  10   7   11.60    2.20
   3  10  -7    5.30    2.30
  -3  10   7    0.60    3.20
  -2 -10   7   59.19    7.10
   2 -10  -7   64.79    5.90
   2 -10  -7   62.79    5.70
  -2 -10   7   52.49    5.80
  -2  10   7   61.59    4.90
  -2  10   7   65.89    4.20
   2  10  -7   74.49    4.10
  -2  10   7   77.89    6.70
   1 -10  -7    3.70    3.00
   1 -10  -7   -0.90    2.80
  -1 -10   7    1.70    3.00
  -1 -10   7    0.80    2.60
   1  10  -7    0.70    4.60
  -1  10   7    3.40    2.70
   1  10  -7    1.00    1.60
   1  10  -7    1.10    2.00
  -1  10   7    2.10    3.40
  -1  10   7    4.10    2.00
   0 -10   7   -0.20    2.90
   0 -10  -7    0.00    2.50
   0 -10   7    2.40    3.00
   0 -10  -7    0.90    2.80
   0  10  -7    0.70    2.30
   0  10  -7    0.80    2.00
   0  10   7    0.90    3.40
   0  10   7    0.70    2.70
   0  10  -7   -1.90    4.90
   0  10   7   -0.70    2.10
  -1 -10  -7   48.80    6.50
   1 -10   7   49.70    5.20
  -1 -10  -7   43.30    5.20
   1 -10   7   58.19    5.60
   1  10   7   50.19    5.00
   1  10   7   61.69    6.10
  -1  10  -7   44.50    5.50
   1  10   7   45.40    5.90
  -1  10  -7   54.39    5.50
  -1  10  -7   56.39    4.70
  -3 -11   7   11.20    5.10
  -3 -11   7   23.80    4.90
  -3 -11   7    7.60    3.50
   3 -11  -7   18.80    4.00
   3 -11  -7   13.20    3.60
   3  11  -7   14.80    2.90
  -3  11   7   11.80    3.00
  -3  11   7   18.20    2.90
  -3  11   7   15.10    3.90
  -2 -11   7    8.60    4.10
   2 -11  -7   11.50    3.80
  -2 -11   7    7.50    3.20
   2 -11  -7    8.20    3.30
  -2  11   7    9.40    2.20
   2  11  -7   11.20    2.10
  -2  11   7    9.30    3.60
   2  11  -7    9.30    2.60
  -2  11   7    8.40    3.50
   1 -11  -7   16.40    4.10
  -1 -11   7   12.80    3.70
  -1 -11   7   16.30    4.00
   1  11  -7   16.90    5.90
  -1  11   7   20.90    4.30
   1  11  -7   22.20    3.60
  -1  11   7   14.20    3.60
  -1  11   7   17.00    2.80
   1  11  -7   18.90    2.60
   0 -11   7   -0.80    2.70
   0 -11  -7    7.30    3.70
   0 -11   7    6.00    3.10
   0 -11  -7    0.00    2.70
   0  11   7    0.60    2.20
   0  11   7    0.70    3.30
   0  11  -7    3.30    2.20
   0  11  -7    2.10    4.60
   0  11  -7   -1.00    2.20
   0  11   7    0.10    2.80
  -1 -11  -7    4.20    3.60
  -1 -11  -7    0.30    2.60
   1 -11   7    1.90    2.60
   1 -11   7    2.20    3.30
  -1  11  -7   -1.70    2.30
  -1  11  -7    3.70    3.60
   1  11   7    0.40    2.40
   1  11   7    0.30    3.10
   1  11   7    2.50    3.30
  -1  11  -7    3.60    2.60
   3 -12  -7   -0.70    2.80
  -3 -12   7    4.20    4.40
   3 -12  -7    0.70    3.10
  -3  12   7    3.00    2.20
  -3  12   7    0.30    3.50
   2 -12  -7   41.70    5.30
  -2 -12   7   46.90    5.60
  -2 -12   7   31.60    5.30
  -2 -12   7   36.80    5.40
   2  12  -7   40.20    5.00
   2  12  -7   38.50    4.50
  -2  12   7   42.10    3.80
  -2  12   7   22.50    4.80
  -2  12   7   40.70    6.10
   1 -12  -7    8.20    3.40
   1 -12  -7    6.10    3.00
  -1 -12   7   10.20    3.90
  -1  12   7    5.60    2.90
  -1  12   7    5.30    2.40
   1  12  -7   10.90    3.10
   1  12  -7    6.60    5.50
   1  12  -7    8.90    2.20
   0 -12   7    0.90    4.20
   0 -12   7    3.80    3.50
   0 -12  -7    0.60    2.80
   0 -12  -7   -2.20    2.90
   0  12   7   -1.00    2.20
   0  12   7    5.10    3.30
   0  12  -7    2.80    2.30
   0  12   7   -1.90    3.20
   0  12  -7   -4.60    4.20
   0  12  -7    1.70    2.50
   1 -12   7    0.50    2.90
  -1 -12  -7   -0.50    2.90
  -1 -12  -7   -0.10    3.30
   1 -12   7    0.70    2.80
   1  12   7    3.70    2.60
  -1  12  -7    2.00    2.70
  -1  12  -7    1.00    2.60
   1  12   7   -0.10    2.90
  -1  12  -7   -1.00    3.40
  -2 -13   7    7.20    4.10
   2 -13  -7    3.90    3.10
   2 -13  -7    4.30    3.30
  -2 -13   7    2.50    3.50
  -2 -13   7   -0.10    3.10
  -2  13   7   -0.50    1.90
  -2  13   7    5.00    2.20
   2  13  -7    2.70    2.40
  -2  13   7    4.40    3.50
   1 -13  -7    3.50    2.90
  -1 -13   7    0.80    3.40
  -1 -13   7    4.90    3.60
   1 -13  -7    2.00    3.30
   1  13  -7   -4.30    5.20
  -1  13   7    5.10    2.40
  -1  13   7    3.60    2.80
   1  13  -7    6.90    2.30
  -1  13   7    3.10    3.30
   0 -13  -7   31.10    4.80
   0 -13  -7   21.00    4.90
   0 -13   7   24.10    4.80
   0 -13   7   19.90    3.80
   0  13   7   31.70    5.10
   0  13  -7   19.60    5.50
   0  13  -7   31.10    4.00
   0  13   7   32.40    5.10
   0  13   7   29.50    3.70
   0  13  -7   26.90    4.40
   1 -14  -7    2.40    3.10
  -1 -14   7   -1.20    3.40
  -1 -14   7   -0.30    3.50
   1 -14  -7    5.10    3.60
  -1  14   7    3.60    2.40
  -1  14   7    1.80    3.20
   1  14  -7    3.70    2.30
   1  14  -7    1.00    2.70
  -1  14   7    5.60    3.40
   0 -14   7    0.80    3.00
   0 -14  -7    3.30    3.80
   0 -14  -7    4.60    3.30
   0  14   7    6.60    3.80
   0  14  -7    2.20    2.50
   0  14  -7    4.60    2.90
   0  14   7    3.10    3.10
   0  14  -7    6.10    5.20
   0  14   7    3.20    2.60
  -4   0   8   -2.20    3.60
   4   0  -8    7.70    5.10
  -3   0   8    0.50    3.40
   3   0  -8    4.00    4.10
   2   0  -8   36.40    6.20
  -2   0   8   36.40    5.20
   1   0  -8    0.30    3.30
  -1   0   8   -1.30    3.10
   0   0  -8   -1.90    2.80
   0   0   8    2.50    3.30
   0   0   8    2.40    2.10
   0   0   8    0.90    1.80
   1   0   8    0.00    2.90
  -1   0  -8    1.40    3.00
   1   0   8    1.10    2.80
  -1   0  -8   -1.00    1.60
   1   0   8   -0.30    2.20
   2   0   8    2.60    3.70
  -2   0  -8   -2.60    2.10
   2   0   8   -1.20    2.80
   2   0   8   -0.20    2.80
  -2   0  -8   -2.20    4.00
   4  -1  -8    5.30    4.80
   4   1  -8    7.00    5.30
  -4   1   8   13.20    4.60
  -3  -1   8    0.60    3.50
   3  -1  -8    0.10    4.10
  -3   1   8    2.70    3.50
   3   1  -8   -0.20    4.10
   2  -1  -8    6.70    3.90
  -2  -1   8    1.90    3.60
   2   1  -8    1.70    4.10
  -2   1   8    0.60    3.50
  -1  -1   8   22.60    4.10
   1  -1  -8   24.10    4.30
   1   1  -8   18.30    4.10
  -1   1   8   23.80    4.50
   0  -1   8   21.20    3.70
   0  -1   8   24.10    4.10
   0  -1  -8   28.80    4.70
   0  -1   8   34.50    3.50
   0   1   8   28.30    3.90
   0   1  -8   32.20    5.00
   0   1   8   34.60    3.20
   0   1   8   36.40    4.80
   1  -1   8    4.80    2.90
   1  -1   8    5.40    2.60
  -1  -1  -8    3.80    1.80
  -1  -1  -8    3.40    3.00
   1  -1   8    3.20    3.10
   1   1   8    6.90    2.70
  -1   1  -8    5.90    2.10
   1   1   8    3.90    3.20
  -1   1  -8    3.20    3.10
   1   1   8    0.00    2.60
  -2  -1  -8    3.30    3.30
  -2  -1  -8    3.40    2.30
   2  -1   8   -1.20    3.10
   2  -1   8   -0.10    2.90
   2  -1   8    4.70    3.00
   2   1   8    4.90    3.40
  -2   1  -8   -0.10    2.20
   2   1   8   -1.10    2.90
  -2   1  -8    0.00    3.00
   2   1   8    0.90    2.80
  -4  -2   8    3.00    3.80
   4  -2  -8    7.70    5.00
   4   2  -8    1.30    3.80
  -4   2   8    2.40    3.70
   3  -2  -8    0.10    3.80
  -3  -2   8   -1.00    3.90
   3   2  -8   -1.40    4.20
  -3   2   8   -2.60    3.20
  -2  -2   8   73.89    7.00
   2  -2  -8   76.69    7.00
   2   2  -8   70.69    7.90
  -2   2   8   71.99    7.20
   1  -2  -8    3.00    3.40
  -1  -2   8    1.70    3.30
  -1   2   8    3.40    3.30
   1   2  -8    4.10    3.80
   0  -2  -8   39.50    4.70
   0  -2   8   43.80    4.50
   0  -2   8   42.40    5.50
   0  -2   8   34.90    4.60
   0   2  -8   35.30    2.80
   0   2   8   44.30    5.70
   0   2   8   37.40    4.20
   0   2  -8   44.00    5.60
   0   2   8   39.20    3.30
  -1  -2  -8    1.70    3.00
   1  -2   8   -3.00    2.60
   1  -2   8   -1.20    2.00
   1  -2   8   -1.60    2.70
   1   2   8    2.00    3.10
  -1   2  -8    2.20    1.90
  -1   2  -8    1.10    2.80
   1   2   8   -3.50    2.50
   1   2   8    4.30    2.70
   2  -2   8    6.80    3.20
  -2  -2  -8    7.20    3.50
  -2  -2  -8    7.40    2.50
   2  -2   8   10.50    3.60
   2  -2   8   10.20    3.80
  -2   2  -8    9.80    3.60
   2   2   8    3.40    3.30
   2   2   8    4.00    3.30
  -2   2  -8    7.00    2.70
   4  -3  -8   19.80    5.40
  -4  -3   8   33.90    5.70
  -4   3   8   13.30    4.00
   4   3  -8   20.70    5.20
  -3  -3   8    3.40    3.80
   3  -3  -8    2.80    3.90
  -3   3   8    4.60    3.60
   3   3  -8    3.90    4.30
  -2  -3   8   39.20    6.30
   2  -3  -8   38.30    5.50
  -2   3   8   41.40    6.10
   2   3  -8   44.40    7.10
   1  -3  -8    7.00    3.40
  -1  -3   8    8.20    3.50
   1   3  -8    3.50    4.10
  -1   3   8    1.60    3.60
   0  -3   8   16.20    3.80
   0  -3  -8   14.10    4.10
   0  -3   8   18.90    3.40
   0   3   8   25.30    4.30
   0   3   8   19.00    2.80
   0   3   8   16.30    3.40
   0   3  -8   23.00    2.40
   0   3   8   23.50    4.00
   0   3  -8   17.70    4.20
   1  -3   8   62.89    5.30
  -1  -3  -8   63.89    5.80
   1  -3   8   67.09    6.40
   1  -3   8   76.49    6.10
  -1   3  -8   62.99    5.80
  -1   3  -8   69.99    4.80
   1   3   8   64.99    6.40
   1   3   8   68.39    6.00
   1   3   8   70.89    6.40
   2  -3   8    0.30    2.70
  -2  -3  -8   -1.00    2.10
  -2  -3  -8    0.30    2.90
   2   3   8   -1.60    3.00
  -2   3  -8    1.60    2.40
  -2   3  -8    0.70    3.00
   3  -4  -8    9.30    4.20
  -3   4   8    4.50    3.90
   3   4  -8    4.00    4.80
  -2  -4   8    5.40    3.80
   2  -4  -8   10.00    3.80
   2   4  -8    9.40    4.70
  -2   4   8    9.90    3.90
  -1  -4   8    3.80    3.40
   1  -4  -8    1.10    2.90
  -1   4   8    4.00    3.50
   1   4  -8    5.40    4.40
   0  -4   8   17.60    4.10
   0  -4   8   22.00    4.30
   0  -4  -8   10.50    3.00
   0   4  -8   18.10    2.50
   0   4   8   17.00    3.40
   0   4  -8   11.20    3.90
   0   4   8   23.20    3.70
   0   4   8   17.80    4.20
  -1  -4  -8   -1.70    2.60
   1  -4   8    2.80    3.20
   1  -4   8   -3.10    2.60
  -1   4  -8   -0.20    2.80
   1   4   8   -0.70    2.40
  -1   4  -8    0.00    1.90
   1   4   8    0.00    2.60
   1   4   8    4.10    3.50
   1   4   8    0.90    2.70
   3  -5  -8    4.60    3.80
  -3  -5   8   -3.20    3.50
  -3   5   8    2.30    3.90
   3   5  -8    3.90    4.80
  -2  -5   8   97.39    7.90
   2  -5  -8   94.69    7.50
   2   5  -8   85.19    8.60
  -2   5   8   93.49    7.80
   1  -5  -8    3.50    3.10
  -1  -5   8    6.80    3.70
  -1   5   8    2.60    1.50
   1   5  -8    4.30    4.50
  -1   5   8    3.70    1.60
  -1   5   8    5.40    3.70
   0  -5  -8  291.17   15.20
   0   5   8  273.27   15.50
   0   5   8  326.27   15.90
   0   5  -8  329.07   16.10
   0   5   8  339.57   16.50
   0   5  -8  308.47   14.30
   1  -5   8    5.70    3.30
  -1  -5  -8    4.70    3.00
   1  -5   8    3.70    3.10
   1   5   8    2.70    2.60
  -1   5  -8    4.30    3.30
  -1   5  -8    6.20    2.50
   1   5   8    0.70    2.80
   1   5   8    1.40    3.00
   3  -6  -8   22.80    4.80
  -3  -6   8   21.70    4.90
  -3   6   8   12.50    4.00
   3   6  -8    6.90    4.60
   2  -6  -8   55.99    5.80
  -2  -6   8   48.80    6.60
  -2   6   8   51.09    6.80
   2   6  -8   52.79    7.80
  -1  -6   8   53.89    6.10
   1  -6  -8   48.90    5.20
   1   6  -8   54.89    7.40
  -1   6   8   58.69    4.20
  -1   6   8   53.09    6.90
  -1   6   8   39.70    3.90
   0  -6   8    4.80    3.30
   0  -6  -8   -1.80    2.60
   0  -6   8    1.20    2.30
   0   6   8    4.50    3.60
   0   6   8    2.50    3.60
   0   6  -8    2.70    1.90
   0   6   8    0.80    2.20
   0   6  -8    0.40    3.60
  -1  -6  -8   18.00    3.70
   1  -6   8   27.20    6.70
   1  -6   8   15.20    3.20
   1   6   8   35.10    4.40
   1   6   8   21.50    4.30
   1   6   8   28.00    4.90
  -1   6  -8   23.60    4.40
  -1   6  -8   32.20    3.80
   1   6   8   31.60    4.90
  -3  -7   8    0.40    4.20
   3  -7  -8   -2.20    3.50
   3   7  -8    3.30    4.90
  -3   7   8   -1.40    3.50
   2  -7  -8    3.70    3.40
  -2   7   8    6.20    3.90
   2   7  -8    5.70    4.90
  -1  -7   8    0.70    2.10
   1  -7  -8    0.80    2.60
  -1  -7   8    7.20    3.50
   1   7  -8    2.70    4.70
  -1   7   8    3.40    2.20
  -1   7   8   -0.50    3.60
   0  -7   8    2.30    2.70
   0  -7   8    0.30    3.30
   0  -7  -8   -2.40    2.50
   0   7  -8   -0.80    2.90
   0   7   8    0.00    1.90
   0   7  -8    3.10    4.20
   0   7   8   -3.50    3.40
   1  -7   8    6.30    2.90
   1  -7   8   12.50    3.20
  -1  -7  -8    8.10    4.30
  -1   7  -8   18.00    3.00
   1   7   8    9.70    2.70
   1   7   8   14.10    4.20
  -1   7  -8   12.30    3.50
   1   7   8   11.60    5.70
   1   7   8   10.80    3.60
  -3  -8   8   -0.80    4.20
   3  -8  -8   -1.30    3.20
  -3   8   8    0.10    3.70
   3   8  -8   -0.50    4.90
   2  -8  -8   25.10    4.20
  -2  -8   8   21.50    4.70
   2  -8  -8   22.70    3.60
  -2   8   8   20.40    2.70
   2   8  -8   25.40    5.70
  -2   8   8   40.50    5.70
   1  -8  -8    0.60    2.90
   1  -8  -8   -0.20    2.10
  -1  -8   8    1.60    3.40
  -1  -8   8    2.20    2.60
   1   8  -8    2.20    1.80
  -1   8   8    2.40    3.80
  -1   8   8   -2.20    2.00
   1   8  -8   -2.80    4.40
   0  -8   8    1.20    3.40
   0  -8   8   -3.80    2.40
   0  -8  -8    2.10    2.90
   0   8  -8    4.00    2.50
   0   8   8    1.90    2.10
   0   8   8    3.20    4.00
   0   8  -8    3.50    4.30
  -1  -8  -8    4.40    3.10
   1  -8   8    1.10    2.70
   1  -8   8    4.50    2.80
  -1   8  -8    6.00    3.60
   1   8   8    6.60    4.10
   1   8   8    1.70    2.60
  -1   8  -8    4.40    2.50
   3  -9  -8    3.60    3.40
  -3   9   8    1.00    3.20
   2  -9  -8    3.30    3.10
   2  -9  -8    9.00    2.90
  -2  -9   8    9.10    4.40
  -2   9   8    8.20    4.30
   2   9  -8   10.70    5.80
  -2   9   8    3.80    1.80
   1  -9  -8    3.10    2.80
   1  -9  -8   -1.50    2.50
  -1  -9   8   -2.50    3.40
  -1  -9   8   -5.50    2.80
  -1   9   8   -0.30    3.70
   1   9  -8    3.40    4.80
  -1   9   8   -0.80    2.20
  -1   9   8    0.10    1.80
   1   9  -8    0.70    1.80
   0  -9  -8    5.30    4.50
   0  -9   8    5.50    3.20
   0  -9   8   -0.20    3.40
   0  -9  -8    2.90    2.90
   0   9   8    2.40    2.30
   0   9   8    1.70    3.80
   0   9  -8    6.00    5.40
   0   9   8    2.60    2.90
   0   9  -8    0.50    2.40
   1   9   8   14.90    4.50
  -2 -10   8   16.10    4.50
   2 -10  -8    8.50    3.20
   2  10  -8    8.90    5.50
  -2  10   8   18.10    4.80
  -1 -10   8   16.20    6.20
   1 -10  -8   14.30    3.90
   1 -10  -8   13.50    3.30
  -1 -10   8   22.80    4.20
   1  10  -8   24.40    6.20
  -1  10   8   18.70    3.60
  -1  10   8   22.90    5.20
  -1  10   8   19.60    2.70
   1  10  -8   19.60    3.40
   0 -10   8    3.50    2.80
   0 -10  -8    4.70    3.20
   0 -10   8    3.90    3.40
   0 -10  -8    0.30    2.80
   0  10   8    1.40    3.20
   0  10  -8   -2.30    4.40
   0  10  -8    1.30    3.50
   0  10   8    0.30    2.30
   0  10  -8    4.60    2.50
   0  10   8    1.60    3.90
   2 -11  -8   59.59    5.90
   2  11  -8   58.49    9.00
  -2  11   8   72.79    7.30
   1 -11  -8    5.00    3.20
  -1 -11   8   -0.70    3.50
   1 -11  -8   -1.10    2.70
  -1  11   8    6.60    7.00
  -1  11   8    0.70    2.00
   1  11  -8   -1.80    4.60
  -1  11   8   -3.50    2.40
   1  11  -8    0.20    3.00
   0 -11  -8    2.50    3.00
   0  11  -8    6.40    2.70
   0  11   8    6.40    4.10
   0  11   8    3.90    2.50
   0  11  -8    4.50    3.80
   0  11  -8    0.10    4.70
   3   0  -9   -0.20    4.20
  -3   0   9    0.50    3.70
  -2   0   9   -1.20    3.50
   2   0  -9   -1.60    3.60
   1   0  -9   73.99    7.00
  -1   0   9   70.89    7.50
   0   0  -9    0.90    3.10
   0   0   9    0.70    3.50
  -3  -1   9    6.50    3.90
   3  -1  -9    1.90    4.30
  -3   1   9    4.90    4.20
   3   1  -9    7.90    5.10
  -2  -1   9    2.50    3.40
   2  -1  -9    3.00    3.40
   2   1  -9    2.20    4.20
  -2   1   9    2.70    3.70
  -1  -1   9   40.40    6.20
   1  -1  -9   36.90    5.70
  -1   1   9   38.00    6.10
   1   1  -9   29.40    5.10
   0  -1   9   -0.60    3.30
   0  -1  -9    4.60    3.10
   0   1  -9    7.30    3.40
   0   1   9    1.60    3.80
   3  -2  -9    3.10    4.00
  -3  -2   9   -0.90    4.30
  -3   2   9    3.90    4.00
   3   2  -9   17.50    5.80
  -2  -2   9   87.89    8.10
   2  -2  -9   95.19    7.70
  -2   2   9   86.09    8.20
   2   2  -9   73.49    8.10
   1  -2  -9   87.89    7.20
  -1  -2   9   92.09    7.80
  -1   2   9   97.89    8.20
   1   2  -9   92.49    7.50
   0  -2   9   14.30    4.10
   0  -2  -9    8.60    3.30
   0   2   9   20.70    4.50
   0   2  -9   20.60    4.40
  -2  -3   9    4.40    3.90
   2  -3  -9    3.30    3.70
   2   3  -9    2.60    4.50
  -2   3   9    9.50    4.20
   1  -3  -9   20.10    4.40
  -1  -3   9   17.30    4.10
  -1   3   9   18.60    4.70
   1   3  -9   26.50    5.20
   0  -3   9   10.50    3.70
   0  -3  -9    4.40    3.00
   0   3   9    7.10    4.30
   0   3  -9   14.80    4.30
  -2  -4   9    6.50    4.10
   2  -4  -9   11.70    4.20
  -2   4   9    8.20    4.40
   2   4  -9    1.60    4.50
  -1  -4   9    4.70    3.80
   1  -4  -9    1.80    3.10
   1   4  -9    3.90    4.40
  -1   4   9    3.70    4.10
   0  -4   9    4.90    3.60
   0   4  -9    7.40    4.00
   0   4   9    6.00    4.00
   2  -5  -9   -1.50    3.40
  -2  -5   9   -5.10    3.70
   2   5  -9   -5.10    4.50
  -2   5   9   -2.40    3.80
   1  -5  -9   40.20    5.20
  -1  -5   9   39.50    6.30
   1   5  -9   39.20    6.70
  -1   5   9   51.99    7.10
   0  -5  -9   -0.80    2.70
   0  -5   9    1.30    3.40
   0   5   9    0.30    4.00
   0   5  -9   -1.90    3.60
   2  -6  -9   -2.20    3.20
  -2  -6   9    0.80    4.20
   2   6  -9    0.50    4.60
  -2   6   9    1.90    4.10
  -1  -6   9   16.00    4.20
   1  -6  -9   29.50    4.50
  -1   6   9   28.10    5.50
   1   6  -9   17.70    5.30
   0  -6  -9    4.80    3.20
   0   6  -9    6.10    4.20
   0   6   9    2.30    4.20
  -1  -7   9    1.80    3.80
   1  -7  -9   -0.20    2.90
   1   7  -9   -1.00    4.60
  -1   7   9    0.50    4.30
   0   0   0    0.00    0.00

_computing_structure_solution     'SHELXT 2014/5 (Sheldrick, 2014)'
;
_shelx_hkl_checksum              22949
_olex2_submission_special_instructions 'No special instructions were received'
loop_
_space_group_symop_operation_xyz
'x, y, z'
'-x+1/2, y+1/2, -z+1/2'
'-x, -y, -z'
'x-1/2, -y-1/2, z-1/2'
loop_
_atom_site_label
_atom_site_type_symbol
_atom_site_fract_x
_atom_site_fract_y
_atom_site_fract_z
_atom_site_U_iso_or_equiv
_atom_site_adp_type
_atom_site_occupancy
_atom_site_site_symmetry_order
_atom_site_calc_flag
_atom_site_refinement_flags_posn
O1 O 0.2849(4) 0.87921(9) 0.5473(2) 0.0363(5) Uani 1 1 d .
O2 O 0.6308(3) 0.81975(11) 0.6960(3) 0.0443(6) Uani 1 1 d .
N1 N 0.2176(4) 0.80610(11) 0.7473(2) 0.0230(5) Uani 1 1 d D
H1 H 0.039(4) 0.8173(13) 0.718(3) 0.028 Uiso 1 1 d DR
N2 N 0.2578(5) 0.61771(12) 0.9033(3) 0.0329(6) Uani 1 1 d D
H2A H 0.440(4) 0.6185(15) 0.955(3) 0.040 Uiso 1 1 d DR
H2B H 0.170(5) 0.6308(15) 0.982(3) 0.040 Uiso 1 1 d DR
C1 C 0.3855(5) 0.83582(13) 0.6607(3) 0.0280(6) Uani 1 1 d .
C2 C 0.2920(5) 0.74658(13) 0.8565(3) 0.0289(6) Uani 1 1 d .
H2C H 0.203939 0.752106 0.949706 0.035 Uiso 1 1 calc R
H2D H 0.488593 0.747499 0.898777 0.035 Uiso 1 1 calc R
C3 C 0.2134(5) 0.67420(13) 0.7756(3) 0.0242(6) Uani 1 1 d .
H3 H 0.017370 0.675624 0.725196 0.029 Uiso 1 1 calc R
C4 C 0.3629(5) 0.65393(13) 0.6465(3) 0.0255(6) Uani 1 1 d .
H4A H 0.558190 0.654607 0.693159 0.031 Uiso 1 1 calc R
H4B H 0.325621 0.690045 0.558253 0.031 Uiso 1 1 calc R
C5 C 0.2835(6) 0.57987(15) 0.5768(3) 0.0399(7) Uani 1 1 d .
H5A H 0.392596 0.567339 0.496591 0.048 Uiso 1 1 calc R
H5B H 0.092272 0.580189 0.520396 0.048 Uiso 1 1 calc R
C6 C 0.3270(5) 0.52379(13) 0.7115(3) 0.0305(6) Uani 1 1 d .
H6A H 0.261867 0.476340 0.665983 0.037 Uiso 1 1 calc R
H6B H 0.521193 0.519492 0.759334 0.037 Uiso 1 1 calc R
C7 C 0.1800(5) 0.54463(14) 0.8410(4) 0.0388(7) Uani 1 1 d .
H7A H -0.015758 0.543223 0.796110 0.047 Uiso 1 1 calc R
H7B H 0.221291 0.509555 0.931184 0.047 Uiso 1 1 calc R
loop_
_atom_site_aniso_label
_atom_site_aniso_U_11
_atom_site_aniso_U_22
_atom_site_aniso_U_33
_atom_site_aniso_U_23
_atom_site_aniso_U_13
_atom_site_aniso_U_12
O1 0.0594(13) 0.0259(10) 0.0297(11) -0.0014(8) 0.0234(9) -0.0138(9)
O2 0.0214(10) 0.0510(13) 0.0661(15) -0.0291(11) 0.0220(9) -0.0111(8)
N1 0.0172(10) 0.0271(11) 0.0260(11) 0.0032(9) 0.0075(8) 0.0024(8)
N2 0.0438(14) 0.0319(12) 0.0303(13) 0.0109(10) 0.0240(11) 0.0179(11)
C1 0.0319(15) 0.0272(13) 0.0297(15) -0.0151(11) 0.0176(12) -0.0113(11)
C2 0.0323(14) 0.0333(14) 0.0213(13) 0.0021(11) 0.0063(11) 0.0118(11)
C3 0.0198(12) 0.0290(13) 0.0250(14) 0.0073(10) 0.0073(10) 0.0034(10)
C4 0.0272(13) 0.0284(14) 0.0213(13) 0.0003(10) 0.0059(10) -0.0014(10)
C5 0.0552(18) 0.0372(16) 0.0238(14) -0.0039(12) 0.0006(13) -0.0043(13)
C6 0.0299(14) 0.0265(14) 0.0334(15) -0.0033(11) 0.0028(11) -0.0056(11)
C7 0.0277(14) 0.0313(15) 0.063(2) 0.0161(13) 0.0223(13) 0.0049(11)
loop_
_atom_type_symbol
_atom_type_description
_atom_type_scat_dispersion_real
_atom_type_scat_dispersion_imag
_atom_type_scat_source
C C 0.0040 0.0020
'ANOMDisVal Program in PLATON Spek, A. L. J. Appl. Crystallogr. 2003, 36, 7-13'
H H 0.0000 0.0000
'ANOMDisVal Program in PLATON Spek, A. L. J. Appl. Crystallogr. 2003, 36, 7-13'
N N 0.0080 0.0040
'ANOMDisVal Program in PLATON Spek, A. L. J. Appl. Crystallogr. 2003, 36, 7-13'
O O 0.0130 0.0070
'ANOMDisVal Program in PLATON Spek, A. L. J. Appl. Crystallogr. 2003, 36, 7-13'
loop_
_geom_angle_atom_site_label_1
_geom_angle_atom_site_label_2
_geom_angle_atom_site_label_3
_geom_angle
C1 N1 H1 117.8(16)
C1 N1 C2 123.2(2)
C2 N1 H1 117.5(16)
H2A N2 H2B 105(3)
C3 N2 H2A 107.9(18)
C3 N2 H2B 108.6(18)
C7 N2 H2A 110.0(18)
C7 N2 H2B 111.6(19)
C7 N2 C3 113.7(2)
O1 C1 N1 117.6(2)
O2 C1 O1 123.3(2)
O2 C1 N1 119.0(3)
N1 C2 H2C 109.1
N1 C2 H2D 109.1
N1 C2 C3 112.5(2)
H2C C2 H2D 107.8
C3 C2 H2C 109.1
C3 C2 H2D 109.1
N2 C3 C2 108.2(2)
N2 C3 H3 108.2
N2 C3 C4 109.02(19)
C2 C3 H3 108.2
C4 C3 C2 114.9(2)
C4 C3 H3 108.2
C3 C4 H4A 109.2
C3 C4 H4B 109.2
C3 C4 C5 111.9(2)
H4A C4 H4B 107.9
C5 C4 H4A 109.2
C5 C4 H4B 109.2
C4 C5 H5A 109.6
C4 C5 H5B 109.6
C4 C5 C6 110.2(2)
H5A C5 H5B 108.1
C6 C5 H5A 109.6
C6 C5 H5B 109.6
C5 C6 H6A 109.5
C5 C6 H6B 109.5
H6A C6 H6B 108.1
C7 C6 C5 110.6(2)
C7 C6 H6A 109.5
C7 C6 H6B 109.5
N2 C7 C6 111.0(2)
N2 C7 H7A 109.4
N2 C7 H7B 109.4
C6 C7 H7A 109.4
C6 C7 H7B 109.4
H7A C7 H7B 108.0
loop_
_geom_bond_atom_site_label_1
_geom_bond_atom_site_label_2
_geom_bond_distance
O1 C1 1.273(3)
O2 C1 1.259(3)
N1 H1 0.913(17)
N1 C1 1.354(3)
N1 C2 1.438(3)
N2 H2A 0.939(18)
N2 H2B 0.912(18)
N2 C3 1.486(3)
N2 C7 1.478(4)
C2 H2C 0.9900
C2 H2D 0.9900
C2 C3 1.522(3)
C3 H3 1.0000
C3 C4 1.504(3)
C4 H4A 0.9900
C4 H4B 0.9900
C4 C5 1.516(4)
C5 H5A 0.9900
C5 H5B 0.9900
C5 C6 1.523(4)
C6 H6A 0.9900
C6 H6B 0.9900
C6 C7 1.500(4)
C7 H7A 0.9900
C7 H7B 0.9900
loop_
_geom_hbond_atom_site_label_D
_geom_hbond_atom_site_label_H
_geom_hbond_atom_site_label_A
_geom_hbond_distance_DH
_geom_hbond_distance_HA
_geom_hbond_distance_DA
_geom_hbond_angle_DHA
_geom_hbond_site_symmetry_A
N1 H1 O2 0.913(17) 2.052(18) 2.941(3) 164(2) 1_455
N2 H2A O1 0.939(18) 1.766(18) 2.705(3) 179(3) 4_676
N2 H2B O1 0.912(18) 2.15(2) 2.920(3) 141(2) 4_576
N2 H2B O2 0.912(18) 2.07(2) 2.923(3) 155(3) 4_576
loop_
_geom_torsion_atom_site_label_1
_geom_torsion_atom_site_label_2
_geom_torsion_atom_site_label_3
_geom_torsion_atom_site_label_4
_geom_torsion
N1 C2 C3 N2 -170.95(19)
N1 C2 C3 C4 67.0(3)
N2 C3 C4 C5 55.8(3)
C1 N1 C2 C3 -93.3(3)
C2 N1 C1 O1 167.7(2)
C2 N1 C1 O2 -12.6(3)
C2 C3 C4 C5 177.4(2)
C3 N2 C7 C6 56.9(3)
C3 C4 C5 C6 -56.3(3)
C4 C5 C6 C7 55.0(3)
C5 C6 C7 N2 -55.0(3)
C7 N2 C3 C2 178.1(2)
C7 N2 C3 C4 -56.4(3)
