#------------------------------------------------------------------------------
#$Date: 2019-11-04 17:59:07 +0200 (Mon, 04 Nov 2019) $
#$Revision: 223197 $
#$URL: file:///home/coder/svn-repositories/cod/cif/4/12/72/4127296.cif $
#------------------------------------------------------------------------------
#
# This file is available in the Crystallography Open Database (COD),
# http://www.crystallography.net/
#
# All data on this site have been placed in the public domain by the
# contributors.
#
data_4127296
loop_
_publ_author_name
'Wang, Sujing'
'Xhaferaj, Nertil'
'Wahiduzzaman, Mohammad'
'Oyekan, Kolade'
'Li, Xiao'
'Wei, Kevin'
'Zheng, Bin'
'Tissot, Antoine'
'Marrot, J\'er\^ome'
'Shepard, William'
'Martineau-Corcos, Charlotte'
'Filinchuk, Yaroslav'
'Tan, Kui'
'Maurin, Guillaume'
'Serre, Christian'
_publ_section_title
;
 Engineering Structural Dynamics of Zirconium Metal-Organic Frameworks
 Based on Natural C4 Linkers.
;
_journal_issue                   43
_journal_name_full               'Journal of the American Chemical Society'
_journal_page_first              17207
_journal_page_last               17216
_journal_paper_doi               10.1021/jacs.9b07816
_journal_volume                  141
_journal_year                    2019
_chemical_formula_sum            'C18 H10 O40 Zr6'
_chemical_formula_weight         1413.58
_space_group_crystal_system      orthorhombic
_space_group_IT_number           71
_space_group_name_Hall           '-I 2 2'
_space_group_name_H-M_alt        'I m m m'
_symmetry_space_group_name_Hall  '-I 2 2'
_symmetry_space_group_name_H-M   'I m m m'
_atom_sites_solution_hydrogens   geom
_audit_creation_method           SHELXL-2018/1
_cell_angle_alpha                90
_cell_angle_beta                 90
_cell_angle_gamma                90
_cell_formula_units_Z            2
_cell_length_a                   10.000(2)
_cell_length_b                   11.940(2)
_cell_length_c                   19.829(11)
_cell_measurement_temperature    100(2)
_cell_volume                     2367.6(15)
_computing_cell_refinement       'XDS package'
_computing_data_collection       'XDS package'
_computing_data_reduction        'XDS package'
_computing_molecular_graphics    'Bruker SHELXTL'
_computing_publication_material  'Bruker SHELXTL'
_computing_structure_refinement  'SHELXL-2018/1 (Sheldrick, 2018)'
_computing_structure_solution    'SHELXT (Sheldrick 2015)'
_diffrn_ambient_temperature      100(2)
_diffrn_measured_fraction_theta_full 0.829
_diffrn_measured_fraction_theta_max 0.830
_diffrn_measurement_device_type  'PROXIMA 2A - Synchrotron SOLEIL'
_diffrn_measurement_method       '\f scan'
_diffrn_radiation_type           synchrotron
_diffrn_radiation_wavelength     0.8266
_diffrn_reflns_av_R_equivalents  0.2585
_diffrn_reflns_av_unetI/netI     0.2283
_diffrn_reflns_Laue_measured_fraction_full 0.829
_diffrn_reflns_Laue_measured_fraction_max 0.830
_diffrn_reflns_limit_h_max       11
_diffrn_reflns_limit_h_min       -11
_diffrn_reflns_limit_k_max       12
_diffrn_reflns_limit_k_min       -12
_diffrn_reflns_limit_l_max       23
_diffrn_reflns_limit_l_min       -23
_diffrn_reflns_number            5432
_diffrn_reflns_point_group_measured_fraction_full 0.829
_diffrn_reflns_point_group_measured_fraction_max 0.830
_diffrn_reflns_theta_full        29.717
_diffrn_reflns_theta_max         29.717
_diffrn_reflns_theta_min         2.316
_diffrn_source                   synchrotron
_exptl_absorpt_coefficient_mu    2.047
_exptl_absorpt_correction_type   multi-scan
_exptl_crystal_colour            colorless
_exptl_crystal_density_diffrn    1.983
_exptl_crystal_description       parallelepiped
_exptl_crystal_F_000             1356
_exptl_crystal_size_max          0.200
_exptl_crystal_size_mid          0.050
_exptl_crystal_size_min          0.050
_refine_diff_density_max         2.280
_refine_diff_density_min         -2.443
_refine_diff_density_rms         0.310
_refine_ls_extinction_method     none
_refine_ls_goodness_of_fit_ref   1.170
_refine_ls_hydrogen_treatment    constr
_refine_ls_matrix_type           full
_refine_ls_number_parameters     93
_refine_ls_number_reflns         1022
_refine_ls_number_restraints     1
_refine_ls_restrained_S_all      1.171
_refine_ls_R_factor_all          0.1329
_refine_ls_R_factor_gt           0.1086
_refine_ls_shift/su_max          0.000
_refine_ls_shift/su_mean         0.000
_refine_ls_structure_factor_coef Fsqd
_refine_ls_weighting_details
'w=1/[\s^2^(Fo^2^)+(0.1763P)^2^+15.4235P] where P=(Fo^2^+2Fc^2^)/3'
_refine_ls_weighting_scheme      calc
_refine_ls_wR_factor_gt          0.3028
_refine_ls_wR_factor_ref         0.3548
_reflns_Friedel_coverage         0.000
_reflns_number_gt                778
_reflns_number_total             1022
_reflns_threshold_expression     'I > 2\s(I)'
_cod_data_source_file            ja9b07816_si_003.cif
_cod_data_source_block           MIP-203
_cod_depositor_comments          'Adding full bibliography for 4127296.cif.'
_cod_database_code               4127296
_shelx_shelxl_version_number     2018/1
_shelx_space_group_comment
; 
The symmetry employed for this shelxl refinement is uniquely defined 
by the following loop, which should always be used as a source of 
symmetry information in preference to the above space-group names. 
They are only intended as comments. 
;
_shelx_estimated_absorpt_t_min   0.685
_shelx_estimated_absorpt_t_max   0.905
_shelx_res_file
; 
  
TITL 71 
    71.res 
    created by SHELXL-2018/1 at 17:50:23 on 12-Jul-2019 
CELL  0.8266   10.0000   11.9400   19.8290    90.000    90.000    90.000 
ZERR        2    0.0020    0.0020    0.0110     0.000     0.000     0.000 
LATT 2 
SYMM             - X ,            - Y ,              Z 
SYMM               X ,            - Y ,            - Z 
SYMM             - X ,              Y ,            - Z 
SFAC C H O  Zr 
DISP $C  0.00511  0.00239 15.74624!source kissel 
DISP $H -0.00002  0.00000  0.66615!source kissel 
DISP $O  0.01604  0.00876 47.82482!source kissel 
DISP $Zr -1.45471  0.75294 3672.21109!source kissel 
UNIT 36 20 80 12 
L.S. 200 
SIZE 0.20 0.05 0.05 
REM colorless 
ACTA 
TEMP -173 
BOND $H 
EQIV_$1   -x+1/2, -y+1/2, -z+1/2 
EQIV_$2   x, y, -z 
DFIX 1.3 C2 C2_$1 
FREE C3 C3_$2 
FMAP 2 
LIST 6 
PLAN 20 
WGHT    0.176300   15.423500 
FVAR       0.06410 
ZR1   4    0.500000    0.500000    0.123495    10.25000    0.06795    0.03139 = 
         0.03866    0.00000    0.00000    0.00000 
ZR2   4    0.323646    0.352265    0.000000    10.50000    0.06585    0.03405 = 
         0.04248    0.00000    0.00000   -0.00378 
O1    3    0.367509    0.390830    0.182182    11.00000    0.08585    0.04037 = 
         0.06114    0.00267   -0.00188   -0.00905 
O2    3    0.252034    0.290326    0.102812    11.00000    0.10803    0.05607 = 
         0.05110    0.00374    0.00278   -0.02365 
O3    3    0.321523    0.500000    0.062915    10.50000    0.14049    0.03721 = 
         0.07692    0.00000   -0.03886    0.00000 
O4    3    0.500000    0.645830    0.057222    10.50000    0.08800    0.13422 = 
         0.07194    0.04258    0.00000    0.00000 
O5    3    0.112729    0.366486    0.000000    10.50000    0.08789    0.05072 = 
         0.06065    0.00000    0.00000   -0.01349 
O6    3    0.328282    0.166898    0.000000    10.50000    0.11613    0.03866 = 
         0.06228    0.00000    0.00000   -0.01301 
  
C1    1    0.285509    0.315927    0.164081    11.00000    0.09448    0.08502 = 
         0.04326    0.00546    0.00678   -0.00819 
C2    1    0.220607    0.248721    0.220148    11.00000    0.18395    0.10821 = 
         0.09443    0.03482   -0.05622   -0.06340 
AFIX  43 
H2    2    0.141306    0.206694    0.212698    11.00000   -1.20000 
AFIX   0 
C3    1    0.000000    0.336029    0.019303    10.25000    0.16494    0.04603 = 
         0.04457    0.01143    0.00000    0.00000 
AFIX  43 
H3    2    0.000000    0.281225    0.054035    10.25000   -1.20000 
AFIX   0 
O1W   3    0.000000    0.500000    0.137583    10.25000    0.16835    0.07923 = 
         0.16841    0.00000    0.00000    0.00000 
O2W   3    0.214847    0.500000    0.397776    10.50000    0.34179    0.02319 = 
         0.15375    0.00000   -0.02399    0.00000 
O3W   3    0.000000    0.387901    0.363700    10.25000    0.16403    0.09730 = 
         0.18559    0.00739    0.00000    0.00000 
HKLF 4 
  
  
  
  
REM  71 
REM R1 =  0.1086 for     778 Fo > 4sig(Fo)  and  0.1329 for all    1022 data 
REM     93 parameters refined using      1 restraints 
  
END 
  
WGHT      0.1759     15.5462 
  
REM Highest difference peak  2.280,  deepest hole -2.443,  1-sigma level  0.310 
Q1    1   0.5000  0.6573  0.0000  10.25000  0.05    1.65 
Q2    1   0.0000  0.1721  0.0988  10.50000  0.05    1.64 
Q3    1   0.5000  0.5000  0.5000  10.12500  0.05    1.44 
Q4    1   0.4333  0.5000  0.3239  10.50000  0.05    1.40 
Q5    1   0.4442  0.4528  0.1244  11.00000  0.05    1.36 
Q6    1   0.5000  0.4440  0.1893  10.50000  0.05    1.02 
Q7    1   0.5000  0.5747  0.0693  10.50000  0.05    0.95 
Q8    1   0.3268  0.5000  0.1264  10.50000  0.05    0.95 
Q9    1   0.3935  0.2883  0.0000  10.50000  0.05    0.91 
Q10   1   0.2721  0.3979  0.0000  10.50000  0.05    0.88 
Q11   1   0.0000  0.5000  0.2606  10.25000  0.05    0.88 
Q12   1   0.5000  0.6010  0.0772  10.50000  0.05    0.86 
Q13   1   0.4064  0.4243  0.0264  11.00000  0.05    0.81 
Q14   1   0.1038  0.5000  0.2368  10.50000  0.05    0.79 
Q15   1   0.0000  0.3648  0.3401  10.50000  0.05    0.74 
Q16   1   0.0000  0.4489  0.0000  10.25000  0.05    0.72 
Q17   1   0.4007  0.5000  0.0677  10.50000  0.05    0.70 
Q18   1   0.5682  0.6558  0.0557  11.00000  0.05    0.69 
Q19   1   0.5000  0.3884  0.2255  10.50000  0.05    0.68 
Q20   1   0.4191  0.5000  0.1851  10.50000  0.05    0.68 
;
_shelx_res_checksum              90043
_shelx_hkl_file
; 
   0   0  -2  582.99  230.01 
   0   0   2  607.09  239.47 
   0   0  -4   30.90   12.20 
   0   0   4   29.44   11.62 
   0   0  -6  285.95  112.82 
   0   0   6  292.27  115.28 
   0   0  -8  212.87   83.99 
   0   0   8  212.51   83.86 
   0   0 -10  281.63  111.14 
   0   0  10  249.48   98.45 
   0   0 -12   72.76   28.76 
   0   0 -14   49.39   19.55 
   0   0  14   35.78   14.15 
   0   0 -16  159.48   62.98 
   0   0  16   92.09   36.35 
   0   0 -18  116.24   45.93 
   0   0  18   67.89   26.81 
   0   0 -20    6.91    2.90 
   0   0  20    5.90    2.36 
   0   0 -22   15.78    6.42 
   0   0  22   10.96    4.35 
   0  -1  23    7.88    3.14 
   0   1 -23   12.39    5.10 
   0  -1  21    0.34    0.20 
   0   1 -21    0.35    0.54 
   0  -1  19    1.69    0.72 
   0  -1  17   56.84   22.46 
   0   1 -17   86.27   34.10 
   0  -1  15   45.34   17.94 
   0   1 -15   58.71   23.23 
   0  -1  13    1.86    0.81 
   0   1 -13    1.95    0.87 
   0  -1  11   10.08    4.03 
   0  -1   9   30.31   12.00 
   0   1  -9   32.46   12.84 
   0  -1   7   90.41   35.68 
   0   1  -7  100.09   39.50 
   0  -1   5   42.92   16.94 
   0  -1   3   11.30    4.47 
   0   1  -3   10.79    4.27 
   0  -1   1  565.26  222.87 
   0   1  -1  598.45  236.11 
   0  -1  -1  457.94  180.54 
   0  -1  -3   11.19    4.42 
   0   1   3   12.32    4.87 
   0  -1  -5   50.16   19.80 
   0   1   5   46.07   18.18 
   0  -1  -7   98.82   39.00 
   0   1   7   84.77   33.44 
   0  -1  -9   34.27   13.56 
   0   1   9   25.34   10.01 
   0  -1 -11    9.03    3.65 
   0  -1 -13    1.86    0.87 
   0   1  13    1.30    0.54 
   0  -1 -15   53.21   21.09 
   0   1  15   35.49   14.02 
   0  -1 -17   96.23   38.06 
   0   1  17   50.98   20.12 
   0   1  19    1.80    0.74 
   0  -1 -21    0.16    0.63 
   0   1  21    0.46    0.22 
   0  -1 -23    6.02    2.70 
   0   1  23   11.19    4.45 
   0  -2  22    1.05    0.46 
   0   2 -22    1.92    1.07 
   0  -2  20   17.35    6.90 
   0   2 -20   28.75   11.45 
   0   2 -18    7.94    3.22 
   0  -2  16   18.90    7.53 
   0   2 -16   23.26    9.25 
   0  -2  14    8.89    3.59 
   0   2 -14   10.39    4.16 
   0   2 -12   67.17   26.54 
   0   2 -10   40.06   15.83 
   0  -2   8    0.73    0.40 
   0   2  -8    0.79    0.38 
   0  -2   6   18.94    7.50 
   0   2  -6   22.42    8.87 
   0  -2   4  213.28   84.13 
   0   2  -4  250.84   98.95 
   0  -2   2   11.83    4.69 
   0   2  -2    8.55    3.39 
   0  -2   0    1.56    0.64 
   0   2   0    1.46    0.60 
   0  -2  -2   11.94    4.72 
   0  -2  -2   13.10    5.18 
   0  -2  -4  249.11   98.27 
   0   2   4  303.50  119.69 
   0  -2  -6   20.08    7.94 
   0   2   6   24.19    9.55 
   0  -2  -8    0.85    0.40 
   0   2   8    0.72    0.31 
   0  -2 -10   42.30   16.74 
   0  -2 -12   74.03   29.26 
   0  -2 -14   10.59    4.28 
   0   2  14    7.55    3.00 
   0  -2 -16   22.84    9.13 
   0   2  16   14.62    5.79 
   0  -2 -18    9.54    3.92 
   0   2  18    5.94    2.37 
   0  -2 -20   28.23   11.30 
   0   2  20   25.17    9.95 
   0  -2 -22    1.30    1.02 
   0   2  22    1.84    0.75 
   0  -3  21   23.43    9.30 
   0   3 -21   30.23   12.07 
   0  -3  19   46.52   18.43 
   0   3 -19   54.34   21.52 
   0  -3  17   16.85    6.74 
   0   3 -17   18.20    7.25 
   0  -3  15    1.77    0.84 
   0  -3  13   97.50   38.52 
   0   3 -13  105.59   41.69 
   0  -3  11  217.78   85.95 
   0   3 -11  232.29   91.63 
   0   3  -9   31.23   12.36 
   0  -3   7   57.66   22.79 
   0   3  -7   66.08   26.09 
   0  -3   5  268.30  105.87 
   0   3  -5  265.80  104.87 
   0  -3   3  206.59   81.49 
   0   3  -3  154.07   60.80 
   0  -3   1  247.57   97.68 
   0   3  -1  257.80  101.68 
   0  -3  -1  379.08  149.52 
   0   3   1  388.04  153.07 
   0  -3  -3  320.01  126.24 
   0  -3  -3  317.64  125.28 
   0  -3  -5  317.05  125.06 
   0   3   5  440.70  173.85 
   0  -3  -7   49.57   19.58 
   0   3   7   86.04   33.95 
   0  -3  -9   28.28   11.19 
   0  -3 -11  251.66   99.32 
   0   3  11  294.36  116.14 
   0  -3 -13  108.96   43.05 
   0   3  13  124.78   49.25 
   0  -3 -15    2.22    1.08 
   0   3  15    2.21    0.90 
   0  -3 -17   19.70    7.92 
   0   3  17   19.68    7.79 
   0  -3 -19   61.26   24.31 
   0   3  19   67.26   26.55 
   0  -3 -21   43.35   17.27 
   0   3  21   45.98   18.16 
   0   4 -22   17.71    7.20 
   0  -4  20   34.53   13.71 
   0   4 -20   51.84   20.57 
   0  -4  18   11.80    4.77 
   0   4 -18    9.47    3.84 
   0  -4  16   24.67    9.83 
   0   4 -16   22.82    9.08 
   0  -4  14   32.28   12.82 
   0   4 -14   35.84   14.20 
   0  -4  12  181.49   71.67 
   0   4 -12  222.15   87.68 
   0  -4  10   50.71   20.05 
   0   4 -10   50.21   19.84 
   0  -4   8    5.38    2.19 
   0  -4   6  476.58  187.95 
   0   4  -6  440.06  173.58 
   0  -4   4  608.00  239.75 
   0   4  -4  439.70  173.44 
   0  -4   2  180.36   71.17 
   0   4  -2  148.11   58.44 
   0  -4   0   18.33    7.25 
   0   4   0   25.60   10.13 
   0  -4  -2  304.96  120.33 
   0   4   2  243.07   95.91 
   0  -4  -4  929.06  366.48 
   0  -4  -4 1000.00  394.36 
   0  -4  -6  542.97  214.23 
   0   4   8   10.35    4.10 
   0  -4 -10   43.72   17.29 
   0   4  10  107.64   42.48 
   0  -4 -12  203.27   80.22 
   0   4  12  361.98  142.79 
   0  -4 -14   32.39   12.87 
   0   4  14   55.80   22.03 
   0  -4 -16   29.77   11.87 
   0   4  16   38.82   15.33 
   0  -4 -18   13.06    5.33 
   0   4  18   21.48    8.50 
   0  -4 -20   43.67   17.42 
   0   4  20   80.17   31.66 
   0  -4 -22   20.83    8.50 
   0  -5  21    4.35    1.84 
   0   5 -21    4.81    2.20 
   0  -5  19    0.01    0.37 
   0   5 -19    0.02    0.49 
   0  -5  17    1.26    0.76 
   0   5 -17    1.61    0.81 
   0  -5  15    0.38    0.46 
   0   5 -15    0.46    0.40 
   0  -5  13    5.74    2.38 
   0   5 -13    6.13    2.51 
   0  -5  11   33.99   13.48 
   0   5 -11   35.09   13.89 
   0  -5   9    5.52    2.26 
   0   5  -9    4.99    2.03 
   0  -5   7    5.18    2.11 
   0   5  -7    3.74    1.54 
   0  -5   5  141.97   56.03 
   0   5  -3   22.85    9.04 
   0  -5   1   24.77    9.81 
   0   5  -1   31.37   12.41 
   0  -5  -1   26.09   10.33 
   0   5   1   35.03   13.85 
   0  -5  -3  100.59   39.70 
   0  -5  -3   47.34   18.72 
   0  -5  -5  260.16  102.64 
   0  -5  -7    7.49    3.00 
   0  -5  -7    5.62    2.24 
   0  -5  -9    5.31    2.13 
   0   5   9    7.35    2.92 
   0  -5 -11   27.80   11.01 
   0   5  11  102.27   40.36 
   0  -5 -13    5.60    2.29 
   0   5  13   16.53    6.55 
   0  -5 -15    0.66    0.51 
   0   5  15    0.65    0.29 
   0  -5 -17    2.46    1.25 
   0   5  17    3.60    1.45 
   0  -5 -19    0.12    0.66 
   0   5  19    0.20    0.12 
   0  -5 -21    4.97    2.33 
   0   5  21   24.93    9.86 
   0  -6  20    1.40    0.77 
   0   6 -20    0.88    0.76 
   0  -6  18   17.99    7.22 
   0   6 -18   24.33    9.69 
   0  -6  16   68.40   27.09 
   0   6 -16   68.80   27.21 
   0  -6  14   32.69   13.01 
   0   6 -14   27.03   10.72 
   0  -6  12   15.78    6.33 
   0   6 -12   13.25    5.28 
   0  -6  10   34.10   13.52 
   0   6 -10   23.12    9.17 
   0  -6   8  163.76   64.67 
   0   6  -8  108.09   42.67 
   0  -6   6   53.66   21.22 
   0   6  -6   34.44   13.62 
   0  -6   4    8.85    3.57 
   0   6  -4    3.43    1.40 
   0  -6   2  202.09   79.76 
   0   6  -2  270.67  106.78 
   0  -6   0  342.34  135.06 
   0   6   0  562.98  222.06 
   0  -6  -2  264.39  104.32 
   0   6   2  270.71  106.82 
   0  -6  -4    6.97    2.80 
   0  -6  -4   12.81    5.08 
   0  -6  -6  100.64   39.74 
   0  -6  -6  103.09   40.68 
   0  -6  -8  281.99  111.28 
   0  -6  -8  171.21   67.53 
   0  -6 -10   50.30   19.89 
   0  -6 -10   28.11   11.12 
   0  -6 -12   23.38    9.27 
   0  -6 -12   12.01    4.78 
   0   6  14  110.00   43.42 
   0  -6 -16   87.99   34.82 
   0   6  16  243.02   95.91 
   0  -6 -18   32.76   13.09 
   0   6  18  113.82   44.93 
   0  -6 -20    2.15    1.31 
   0   6  20   12.55    4.97 
   0   7 -19    1.58    0.92 
   0  -7  17   45.21   17.95 
   0   7 -17   43.76   17.33 
   0  -7  15   90.36   35.76 
   0   7 -15   63.17   24.98 
   0   7 -11    4.19    1.72 
   0  -7   9   69.17   27.36 
   0   7  -9   33.70   13.33 
   0  -7   7  151.98   60.03 
   0   7  -7   63.53   25.08 
   0  -7   5   79.81   31.53 
   0   7  -5   64.53   25.49 
   0  -7   3   80.99   32.00 
   0   7  -3   90.72   35.82 
   0  -7   1  126.15   49.80 
   0   7  -1  177.85   70.21 
   0  -7  -1  117.74   46.48 
   0   7   1  178.40   70.40 
   0  -7  -3  332.20  131.06 
   0  -7  -3   95.63   37.78 
   0  -7  -5  185.54   73.22 
   0  -7  -5  117.87   46.52 
   0  -7  -7  172.72   68.17 
   0  -7  -7  162.71   64.21 
   0  -7  -9   59.98   23.70 
   0  -7  -9   98.45   38.87 
   0  -7 -11   12.30    4.90 
   0  -7 -11    5.79    2.33 
   0  -7 -13   11.95    4.77 
   0  -7 -15   91.00   35.98 
   0  -7 -15  117.46   46.39 
   0  -7 -17   67.44   26.72 
   0  -7 -17   62.98   24.90 
   0  -7 -19    5.37    2.42 
   0  -8  16   24.56    9.82 
   0   8 -16   17.95    7.14 
   0  -8  14    3.60    1.64 
   0   8 -14    2.68    1.14 
   0  -8  12    1.38    0.91 
   0   8 -12    1.01    0.48 
   0   8 -10    5.48    2.20 
   0  -8   8   28.56   11.36 
   0   8  -8   14.17    5.62 
   0  -8   6    4.49    1.89 
   0   8  -6    6.34    2.55 
   0  -8   4    0.47    0.50 
   0   8  -4    0.42    0.27 
   0  -8   2    9.91    4.00 
   0   8  -2   11.11    4.42 
   0  -8   0  130.61   51.57 
   0   8   0  182.08   71.85 
   0  -8  -2    8.21    3.29 
   0   8   2   10.50    4.18 
   0  -8  -4    0.83    0.38 
   0  -8  -4    0.48    0.31 
   0  -8  -6   10.48    4.19 
   0  -8  -6   13.39    5.32 
   0  -8  -8   34.93   13.83 
   0  -8  -8   27.70   10.96 
   0  -8 -10    7.31    2.92 
   0  -8 -12    1.77    0.76 
   0  -8 -12    3.25    1.34 
   0  -8 -14    6.51    2.63 
   0  -8 -14    3.01    1.28 
   0  -8 -16   51.98   20.56 
   0  -8 -16   32.50   12.92 
   0  -9  15    0.12    0.50 
   0   9 -15    0.06    0.20 
   0  -9  13   12.22    5.03 
   0  -9  11    9.27    3.83 
   0   9 -11    4.32    1.75 
   0  -9   9    0.44    0.54 
   0   9  -9    0.33    0.24 
   0   9  -7    0.46    0.28 
   0  -9   5   26.49   10.56 
   0   9  -5   23.13    9.17 
   0  -9   3   41.75   16.55 
   0   9  -3   35.48   14.03 
   0  -9   1    2.16    1.00 
   0   9  -1    3.06    1.26 
   0  -9  -1    2.31    1.02 
   0   9   1    2.66    1.10 
   0  -9  -3   24.93    9.88 
   0  -9  -3  135.47   53.48 
   0  -9  -5   21.43    8.51 
   0  -9  -5   57.34   22.66 
   0  -9  -7    1.29    0.57 
   0  -9  -9    0.47    0.27 
   0  -9  -9    0.56    0.31 
   0  -9 -11   10.21    4.08 
   0  -9 -11    6.61    2.66 
   0  -9 -13   33.54   13.28 
   0  -9 -13   19.70    7.83 
   0  -9 -15    0.25    0.25 
   0  -9 -15    0.32    0.34 
   0 -10  12   49.43   19.66 
   0  10 -12   34.83   13.79 
   0 -10  10   24.26    9.73 
   0  10 -10   18.01    7.15 
   0 -10   8   15.65    6.32 
   0  10  -8   14.99    5.96 
   0 -10   6   16.68    6.71 
   0  10  -6   43.83   17.33 
   0 -10   4  153.16   60.48 
   0  10  -4  164.67   64.98 
   0 -10   2   50.30   19.94 
   0  10  -2   49.02   19.38 
   0 -10   0    0.16    0.42 
   0 -10  -2   37.07   14.69 
   0 -10  -2  159.21   62.85 
   0 -10  -4  109.50   43.23 
   0 -10  -4  467.49  184.31 
   0 -10  -6   30.94   12.25 
   0 -10  -6   73.99   29.21 
   0 -10  -8   15.10    6.01 
   0 -10  -8   19.36    7.68 
   0 -10 -10   20.80    8.25 
   0 -10 -10   26.11   10.35 
   0 -10 -12   60.30   23.83 
   0 -10 -12   36.72   14.54 
   0 -11   9   11.94    4.90 
   0  11  -9   12.42    4.95 
   0 -11   7    3.33    1.62 
   0  11  -7    5.87    2.37 
   0 -11   5   25.34   10.15 
   0  11  -5   29.80   11.80 
   0 -11   3   54.43   21.58 
   0  11  -3   56.53   22.34 
   0 -11   1    4.77    2.04 
   0  11  -1    6.01    2.42 
   0 -11  -1    4.68    1.97 
   0 -11  -1   30.16   11.95 
   0 -11  -3   38.25   15.15 
   0 -11  -3  187.95   74.17 
   0 -11  -5   18.96    7.53 
   0 -11  -5   65.58   25.92 
   0 -11  -7    4.38    1.78 
   0 -11  -7    8.75    3.50 
   0 -11  -9   13.98    5.57 
   0 -11  -9   12.83    5.12 
   0  12  -6    0.02    0.16 
   0 -12   4    0.82    0.80 
   0  12  -4    1.30    0.59 
   0 -12   2    1.19    0.89 
   0  12  -2    1.17    0.54 
   0 -12   0   13.99    5.65 
   0  12   0   15.48    6.16 
   0 -12  -2    0.85    0.62 
   0 -12  -2    6.01    2.43 
   0 -12  -4    1.23    0.65 
   0 -12  -4    3.07    1.28 
   0 -12  -6    0.06    0.16 
   1 -12  -5    5.18    2.10 
   1 -12  -5    1.64    0.80 
   1 -12  -3    0.19    0.44 
   1 -12  -3    0.91    0.42 
  -1  12   1    5.54    2.25 
   1 -12  -1    4.70    2.05 
  -1  12  -1    6.38    2.58 
   1 -12   1    5.35    2.34 
  -1  12  -3    0.20    0.20 
   1 -12   3    0.06    0.64 
  -1  12  -5    1.19    0.56 
   1 -11 -10    1.00    0.49 
   1 -11 -10    0.99    0.49 
   1 -11  -8    0.20    0.25 
   1 -11  -8    0.61    0.35 
   1 -11  -6    1.28    0.60 
   1 -11  -6    4.47    1.82 
   1 -11  -4   58.94   23.28 
   1 -11  -4   11.77    4.72 
  -1  11   2    2.04    0.88 
   1 -11  -2    1.56    0.82 
  -1  11   0    3.54    1.46 
   1 -11   0    2.37    1.17 
  -1  11  -2    2.21    0.94 
  -1  11  -4   16.69    6.63 
   1 -11   4   11.94    4.87 
  -1  11  -6    2.06    0.89 
   1 -11   6    0.98    0.82 
  -1  11  -8    0.30    0.24 
   1 -11   8    0.34    0.66 
   1 -10 -13   20.11    7.99 
   1 -10 -13   11.88    4.75 
   1 -10 -11    9.75    3.90 
   1 -10 -11    8.71    3.49 
   1 -10  -9    0.29    0.22 
   1 -10  -9    0.29    0.25 
   1 -10  -7    1.51    0.66 
   1 -10  -7    0.63    0.35 
   1 -10  -5   10.91    4.35 
   1 -10  -5   56.21   22.21 
   1 -10  -3   21.25    8.46 
   1 -10  -3  113.14   44.67 
   1 -10  -1    0.12    0.44 
  -1  10  -1    0.12    0.21 
   1 -10   1    0.13    0.55 
  -1  10  -3   29.70   11.76 
   1 -10   3   26.47   10.56 
  -1  10  -5   17.61    6.99 
   1 -10   5    6.69    2.81 
  -1  10  -7    0.74    0.38 
   1 -10   7    0.82    0.66 
  -1  10  -9    0.35    0.25 
   1 -10   9    0.29    0.55 
  -1  10 -11    6.73    2.70 
   1 -10  11    9.28    3.87 
   1  -9 -16    2.55    1.18 
   1  -9 -16    4.57    1.88 
   1  -9 -14    3.95    1.64 
   1  -9 -14    6.64    2.68 
   1  -9 -12   18.21    7.24 
   1  -9 -12   12.09    4.82 
   1  -9 -10    0.40    0.26 
   1  -9 -10    0.40    0.27 
   1  -9  -8    0.89    0.42 
   1  -9  -6    0.26    0.18 
   1  -9  -6    0.03    0.18 
   1  -9  -4   76.17   30.08 
   1  -9  -4   12.66    5.04 
  -1   9   2    2.23    0.94 
   1  -9  -2    1.57    0.76 
  -1   9   0   13.53    5.38 
   1  -9   0   10.03    4.06 
  -1   9  -2    2.24    0.94 
   1  -9   2    2.48    1.17 
  -1   9  -4   18.07    7.17 
   1  -9   4   22.14    8.84 
  -1   9  -6    0.04    0.17 
  -1   9  -8    0.47    0.27 
   1  -9   8    0.78    0.61 
  -1   9 -10    0.23    0.20 
   1  -9  10    0.39    0.53 
  -1   9 -12    7.29    2.92 
   1  -9  12    7.25    3.05 
  -1   9 -14    2.69    1.13 
   1  -9  14    3.03    1.45 
   1  -8 -17    7.27    3.03 
   1  -8 -17   13.17    5.26 
   1  -8 -15    3.24    1.40 
   1  -8 -15    4.96    2.02 
   1  -8 -13    5.31    2.16 
   1  -8 -13   10.18    4.07 
   1  -8 -11    1.04    0.48 
   1  -8  -9    6.93    2.77 
   1  -8  -9    8.80    3.52 
   1  -8  -7   10.67    4.25 
   1  -8  -7    5.74    2.32 
   1  -8  -5   17.21    6.82 
   1  -8  -5    4.08    1.66 
  -1   8   3    7.51    3.01 
   1  -8  -3    5.15    2.09 
  -1   8   1   29.09   11.51 
   1  -8  -1   20.31    8.08 
  -1   8  -1   27.75   10.99 
   1  -8   1   25.05    9.95 
  -1   8  -3    6.60    2.65 
   1  -8   3    7.96    3.25 
  -1   8  -5    3.74    1.52 
   1  -8   5    3.24    1.41 
  -1   8  -7    3.10    1.27 
   1  -8   7    6.93    2.85 
  -1   8  -9    3.63    1.48 
  -1   8 -11    0.75    0.41 
   1  -8  11    1.40    0.87 
  -1   8 -13    3.89    1.61 
  -1   8 -15    1.97    0.88 
   1  -8  15    2.99    1.41 
   1  -7 -20    0.04    0.66 
   1  -7 -18    5.34    2.33 
   1  -7 -18    6.85    2.78 
   1  -7 -16   29.31   11.68 
   1  -7 -16   40.96   16.21 
   1  -7 -14    1.79    0.82 
   1  -7 -12    1.24    0.55 
   1  -7 -12    2.31    0.98 
   1  -7 -10    4.57    1.84 
   1  -7 -10    8.01    3.21 
   1  -7  -8   35.16   13.90 
   1  -7  -8   35.48   14.04 
   1  -7  -6    7.72    3.08 
   1  -7  -6    4.18    1.71 
   1  -7  -4    1.23    0.57 
   1  -7  -4    3.71    1.50 
  -1   7   2   17.26    6.85 
   1  -7  -2   10.80    4.31 
  -1   7   0   74.35   29.37 
   1  -7   0   59.03   23.34 
  -1   7  -2   13.34    5.30 
   1  -7   2   15.22    6.08 
  -1   7  -4    0.86    0.40 
   1  -7   4    1.64    0.81 
  -1   7  -6    1.89    0.80 
   1  -7   6    3.76    1.60 
  -1   7  -8   14.81    5.89 
   1  -7   8   26.99   10.72 
  -1   7 -10    3.16    1.32 
   1  -7  10    5.63    2.35 
  -1   7 -14    1.82    0.82 
   1  -7  14    2.05    1.03 
  -1   7 -16   25.64   10.19 
   1  -7  16   23.38    9.36 
  -1   7 -18    6.58    2.72 
   1  -7  18    0.72    0.62 
   1  -6 -21    0.07    0.68 
   1  -6 -21    0.00    0.28 
   1  -6 -19    0.30    0.66 
   1  -6 -19   -0.01    0.22 
   1  -6 -17   21.36    8.59 
   1  -6 -17   15.24    6.07 
   1  -6 -15   23.45    9.30 
   1  -6 -15   22.72    9.06 
   1  -6 -13    0.20    0.20 
   1  -6 -13    0.20    0.23 
   1  -6 -11    0.45    0.25 
   1  -6 -11    1.14    0.52 
   1  -6  -9   38.37   15.16 
   1  -6  -9   65.58   25.92 
   1  -6  -7   46.57   18.40 
   1  -6  -7   37.73   14.93 
   1  -6  -5    3.06    1.27 
   1  -6  -5    5.99    2.39 
  -1   6   3    5.43    2.18 
   1  -6  -3    4.04    1.64 
  -1   6   1   89.54   35.36 
   1  -6  -1   63.35   25.04 
  -1   6  -1   75.40   29.77 
   1  -6   1   75.08   29.65 
  -1   6  -3    3.19    1.30 
   1  -6   3    4.81    1.98 
  -1   6  -5    1.58    0.69 
   1  -6   5    1.79    0.82 
  -1   6  -7   16.76    6.66 
   1  -6   7   25.79   10.24 
  -1   6  -9   29.77   11.79 
   1  -6   9   36.62   14.52 
  -1   6 -11    0.59    0.39 
   1  -6  11    0.57    0.50 
  -1   6 -13    0.20    0.33 
   1  -6  13    0.25    0.44 
  -1   6 -15   20.61    8.19 
   1  -6  15   19.73    7.90 
  -1   6 -17   21.99    8.76 
   1  -6  17   14.18    5.73 
  -1   6 -19    0.53    0.57 
   1  -6  19    0.42    0.48 
   1  -5 -22    0.09    0.71 
  -1   5  20   15.25    6.04 
   1  -5 -20    1.25    1.04 
  -1   5  18    1.26    0.53 
   1  -5 -18    0.21    0.66 
  -1   5  16   21.31    8.44 
   1  -5 -16    8.27    3.41 
  -1   5  14    1.17    0.49 
   1  -5 -14    0.37    0.33 
   1  -5 -12   14.14    5.63 
   1  -5 -10    0.22    0.17 
   1  -5 -10    0.40    0.25 
   1  -5  -8   37.21   14.70 
   1  -5  -8   57.16   22.60 
   1  -5  -6    7.11    2.83 
   1  -5  -4  118.33   46.70 
   1  -5  -4   56.03   22.15 
  -1   5   2    6.13    2.45 
   1  -5  -2    4.14    1.67 
  -1   5   0   21.85    8.65 
   1  -5   0   18.00    7.14 
  -1   5  -2    3.48    1.41 
   1  -5   4   36.53   14.45 
  -1   5  -6    3.42    1.41 
   1  -5   6    3.94    1.63 
  -1   5  -8   32.85   13.00 
   1  -5   8   31.11   12.32 
  -1   5 -10    0.15    0.24 
   1  -5  10    0.27    0.38 
  -1   5 -12   16.12    6.41 
   1  -5  12   18.01    7.19 
  -1   5 -14    0.39    0.32 
   1  -5  14    0.44    0.45 
  -1   5 -16    8.27    3.34 
   1  -5  16    5.93    2.49 
  -1   5 -18    0.49    0.45 
   1  -5  18    0.46    0.50 
  -1   5 -20    4.55    1.97 
   1  -5  20    3.71    1.60 
  -1   4  21   31.56   12.47 
   1  -4 -21    9.33    4.01 
  -1   4  19   21.69    8.59 
   1  -4 -19    5.01    2.27 
  -1   4  17    0.25    0.13 
   1  -4 -17    0.18    0.57 
  -1   4  15    0.16    0.10 
   1  -4 -15    0.11    0.39 
  -1   4  13   67.30   26.57 
   1  -4 -13   29.73   11.80 
  -1   4  11   96.14   37.94 
   1  -4 -11   33.73   13.35 
   1  -4  -9   10.17    4.04 
   1  -4  -7    0.14    0.11 
   1  -4  -7    0.26    0.22 
   1  -4  -5  311.91  123.06 
   1  -4  -5  251.07   99.05 
  -1   4   3   12.77    5.07 
   1  -4  -3   13.42    5.33 
  -1   4   1    3.88    1.56 
   1  -4  -1    2.66    1.09 
  -1   4  -1    2.34    0.96 
   1  -4   1    2.89    1.20 
  -1   4  -3    9.48    3.78 
   1  -4   3   11.97    4.76 
  -1   4  -5  142.88   56.39 
   1  -4   5  145.07   57.25 
   1  -4   7    0.09    0.26 
  -1   4  -9   11.13    4.44 
   1  -4   9   10.49    4.20 
  -1   4 -11   33.50   13.26 
   1  -4  11   34.31   13.60 
  -1   4 -13   26.85   10.65 
   1  -4  13   26.20   10.41 
  -1   4 -15    0.06    0.27 
   1  -4  15    0.04    0.36 
  -1   4 -17    0.03    0.29 
   1  -4  17    0.14    0.41 
  -1   4 -19    6.23    2.57 
   1  -4  19    7.52    3.09 
  -1   4 -21   10.16    4.18 
  -1   3  22    8.22    3.27 
   1  -3 -22    1.85    1.25 
  -1   3  20   29.57   11.69 
   1  -3 -20   18.13    7.35 
  -1   3  18    3.58    1.43 
   1  -3 -18    1.69    1.02 
  -1   3  16    0.94    0.40 
   1  -3 -16    0.63    0.59 
  -1   3  14    9.93    3.94 
   1  -3 -14    7.22    2.96 
  -1   3  12   97.36   38.43 
   1  -3 -12   65.89   26.04 
   1  -3 -10    5.90    2.37 
  -1   3   8   53.89   21.27 
   1  -3  -8   22.57    8.92 
   1  -3  -6    9.80    3.88 
   1  -3  -4  123.06   48.52 
   1  -3  -4  108.28   42.74 
  -1   3   2    5.38    2.15 
   1  -3  -2    4.39    1.76 
  -1   3   0    0.09    0.14 
   1  -3   0    0.17    0.23 
  -1   3  -2    4.72    1.90 
   1  -3   2    5.79    2.32 
  -1   3  -4   58.44   23.07 
   1  -3   4   60.62   23.94 
  -1   3  -6    8.21    3.27 
   1  -3   6    8.84    3.54 
  -1   3  -8   27.04   10.70 
  -1   3 -10    5.91    2.38 
   1  -3  10    5.46    2.23 
  -1   3 -12   57.84   22.87 
   1  -3  12   54.66   21.63 
  -1   3 -14    6.68    2.70 
  -1   3 -16    0.81    0.46 
   1  -3  16    0.83    0.54 
  -1   3 -18    2.74    1.20 
   1  -3  18    2.61    1.18 
  -1   3 -20   22.22    8.86 
   1  -3  20   15.65    6.25 
   1  -2 -23   -0.02    0.57 
  -1   2  21    7.83    3.11 
   1  -2 -21    3.35    1.65 
  -1   2  19    6.71    2.67 
   1  -2 -19    5.51    2.39 
  -1   2  17    3.71    1.49 
   1  -2 -17    4.28    1.88 
  -1   2  15    2.05    0.83 
   1  -2 -15    2.08    1.00 
  -1   2  13   29.88   11.81 
  -1   2  11   20.86    8.24 
   1  -2 -11   23.17    9.20 
  -1   2   9   15.10    5.97 
   1  -2  -9   14.48    5.75 
  -1   2   7    0.35    0.16 
   1  -2  -7    0.19    0.14 
  -1   2   5  104.41   41.19 
   1  -2  -5   65.21   25.74 
   1  -2  -3  114.19   45.05 
   1  -2  -3   81.49   32.17 
  -1   2   1   14.53    5.74 
   1  -2  -1   11.51    4.55 
  -1   2  -1   15.44    6.11 
   1  -2   1   15.70    6.21 
  -1   2  -3   51.89   20.48 
   1  -2   3   50.57   19.97 
  -1   2  -5   56.39   22.27 
   1  -2   5   51.93   20.51 
  -1   2  -7    0.24    0.21 
   1  -2   7    0.23    0.25 
  -1   2  -9   13.24    5.27 
  -1   2 -11   20.09    7.97 
   1  -2  11   20.08    7.99 
  -1   2 -13   29.39   11.65 
   1  -2  13   29.11   11.55 
  -1   2 -15    2.44    1.06 
   1  -2  15    2.15    0.96 
  -1   2 -19    7.21    2.95 
   1  -2  19    5.22    2.14 
  -1   2 -21    9.35    3.83 
   1  -2  21    5.06    2.06 
  -1   1  22    0.57    0.26 
   1  -1 -22   -0.06    0.68 
  -1   1  18    4.67    1.87 
   1  -1 -18    5.60    2.36 
  -1   1  16   28.73   11.35 
   1  -1 -16   48.48   19.21 
  -1   1  14    0.02    0.07 
   1  -1 -14    0.04    0.34 
   1  -1 -12    6.86    2.78 
  -1   1  10    2.45    0.98 
   1  -1 -10    3.47    1.44 
  -1   1   8    3.20    1.27 
   1  -1  -8    4.26    1.72 
  -1   1   6    3.17    1.26 
   1  -1  -6    3.28    1.32 
  -1   1   4   42.50   16.77 
   1  -1  -4   26.59   10.50 
   1  -1  -2   26.46   10.45 
  -1   1   0  264.48  104.32 
   1  -1   0  230.92   91.09 
  -1   1  -2   21.17    8.36 
   1  -1   2   20.87    8.25 
  -1   1  -4   25.73   10.17 
   1  -1   4   22.81    9.02 
  -1   1  -6    3.22    1.31 
   1  -1   6    2.84    1.16 
  -1   1  -8    4.15    1.69 
   1  -1   8    3.71    1.52 
   1  -1  10    3.17    1.32 
  -1   1 -12    6.57    2.66 
   1  -1  12    6.29    2.55 
  -1   1 -14    0.04    0.31 
   1  -1  14    0.01    0.20 
  -1   1 -16   49.25   19.51 
   1  -1  16   35.21   13.94 
   1  -1  18    5.06    2.05 
  -1   1 -20    3.72    1.62 
   1  -1  20    2.58    1.07 
  -1   1 -22    0.71    0.70 
   1  -1  22    0.39    0.22 
   1   0 -23    6.53    2.85 
  -1   0  21    0.03    0.08 
   1   0 -21    0.02    0.51 
  -1   0  19    0.19    0.13 
   1   0 -19    0.22    0.45 
  -1   0  17   35.61   14.07 
   1   0 -17   65.76   26.01 
  -1   0  15   24.13    9.55 
   1   0 -15   37.94   15.03 
  -1   0  13    0.58    0.28 
  -1   0  11    2.27    0.93 
   1   0 -11    2.90    1.21 
  -1   0   9   17.43    6.89 
   1   0  -9   19.20    7.61 
  -1   0   7   38.00   15.01 
   1   0  -7   39.21   15.49 
  -1   0   5    0.54    0.25 
   1   0  -5    0.60    0.28 
  -1   0   3    4.02    1.59 
   1   0  -3    4.10    1.63 
  -1   0  -1  317.24  125.15 
   1   0   1  334.42  131.92 
  -1   0  -3    4.11    1.64 
   1   0   3    3.95    1.58 
  -1   0  -5    0.67    0.33 
   1   0   5    0.58    0.29 
  -1   0  -7   38.09   15.06 
   1   0   7   39.90   15.77 
  -1   0  -9   18.44    7.32 
   1   0   9   18.08    7.17 
  -1   0 -11    2.99    1.27 
   1   0  11    2.57    1.07 
  -1   0 -13    0.98    0.56 
   1   0  13    0.71    0.36 
  -1   0 -15   39.20   15.54 
   1   0  15   26.61   10.53 
   1   0  17   37.21   14.71 
  -1   0 -19    0.23    0.47 
   1   0  19    0.20    0.15 
  -1   0 -21    0.08    0.49 
   1   0  21    0.02    0.11 
  -1  -1  22    0.37    0.19 
   1   1 -22    0.23    0.66 
  -1  -1  20    2.14    0.89 
  -1  -1  18    4.09    1.65 
   1   1 -18    7.20    2.94 
  -1  -1  16   30.81   12.19 
   1   1 -16   48.57   19.23 
  -1  -1  14    0.04    0.18 
   1   1 -14    0.04    0.24 
   1   1 -12    6.36    2.56 
  -1  -1  10    2.92    1.21 
   1   1 -10    4.01    1.64 
  -1  -1   8    4.00    1.62 
   1   1  -8    4.25    1.71 
  -1  -1   6    2.83    1.15 
   1   1  -6    3.51    1.41 
  -1  -1   4   25.90   10.23 
   1   1  -4   30.33   11.97 
  -1  -1   2   21.62    8.54 
   1   1  -2   15.86    6.27 
  -1  -1  -2   20.82    8.22 
   1   1   2   21.81    8.61 
  -1  -1  -4   27.22   10.76 
   1   1   4   24.38    9.63 
  -1  -1  -6    3.19    1.30 
   1   1   6    2.52    1.02 
  -1  -1  -8    4.36    1.78 
   1   1   8    3.22    1.29 
   1   1  10    2.53    1.02 
  -1  -1 -12    7.89    3.20 
   1   1  12    5.05    2.02 
  -1  -1 -14   -0.03    0.35 
   1   1  14    0.03    0.10 
  -1  -1 -16   50.52   20.03 
   1   1  16   27.06   10.70 
   1   1  18    4.73    1.90 
  -1  -1 -20    3.99    1.76 
   1   1  20    2.92    1.19 
  -1  -1 -22    0.30    0.73 
   1   1  22    0.55    0.26 
   1   2 -23    0.02    0.45 
  -1  -2  21    3.54    1.43 
   1   2 -21    4.55    2.02 
  -1  -2  19    4.35    1.77 
   1   2 -19    5.94    2.47 
  -1  -2  17    3.20    1.34 
   1   2 -17    4.06    1.70 
  -1  -2  15    2.13    0.94 
   1   2 -15    2.26    0.99 
  -1  -2  13   30.27   12.00 
   1   2 -11   20.97    8.31 
  -1  -2   9   12.86    5.11 
   1   2  -9   14.71    5.83 
  -1  -2   7    0.25    0.22 
   1   2  -7    0.23    0.19 
  -1  -2   5   57.62   22.75 
   1   2  -5   69.67   27.49 
  -1  -2   3   58.07   22.92 
   1   2  -3   42.41   16.74 
  -1  -2   1   14.70    5.82 
   1   2  -1   18.53    7.33 
  -1  -2  -1   25.76   10.17 
   1   2   1   28.26   11.16 
  -1  -2  -3   57.12   22.55 
   1   2   3   78.13   30.82 
  -1  -2  -5   54.62   21.56 
   1   2   5   60.30   23.79 
  -1  -2  -7    0.22    0.19 
   1   2   7    0.18    0.11 
  -1  -2  -9   14.69    5.84 
  -1  -2 -11   24.46    9.72 
   1   2  11   17.59    6.96 
  -1  -2 -13   34.53   13.70 
   1   2  13   23.92    9.46 
  -1  -2 -15    2.54    1.17 
   1   2  15    1.62    0.67 
  -1  -2 -19    8.09    3.37 
   1   2  19    5.24    2.10 
  -1  -2 -21    8.42    3.51 
   1   2  21    6.93    2.76 
  -1  -3  22    2.38    1.00 
   1   3 -22    4.61    2.16 
  -1  -3  20   12.99    5.18 
   1   3 -20   11.67    4.75 
  -1  -3  18    2.38    1.05 
   1   3 -18    1.46    0.75 
  -1  -3  16    0.71    0.48 
   1   3 -16    0.49    0.38 
  -1  -3  14    6.31    2.58 
   1   3 -14    6.62    2.68 
  -1  -3  12   57.89   22.89 
   1   3 -12   61.48   24.29 
   1   3 -10    6.50    2.61 
  -1  -3   8   28.87   11.43 
   1   3  -8   28.05   11.10 
  -1  -3   6    9.83    3.91 
   1   3  -6    8.68    3.46 
  -1  -3   4   66.39   26.22 
   1   3  -4   45.98   18.16 
  -1  -3   2    4.03    1.63 
   1   3  -2    4.20    1.69 
  -1  -3   0    0.21    0.18 
   1   3   0    0.16    0.15 
  -1  -3  -2    7.60    3.01 
  -1  -3  -2    6.43    2.57 
  -1  -3  -4   69.44   27.40 
   1   3   4  101.00   39.84 
  -1  -3  -6    8.04    3.19 
   1   3   6   11.93    4.72 
  -1  -3  -8   23.71    9.39 
  -1  -3 -10    5.98    2.42 
   1   3  10    6.24    2.48 
  -1  -3 -12   66.49   26.29 
   1   3  12   60.66   23.95 
  -1  -3 -14    7.74    3.17 
  -1  -3 -16    0.89    0.66 
   1   3  16    0.69    0.30 
  -1  -3 -18    3.19    1.52 
   1   3  18    2.75    1.11 
  -1  -3 -20   21.89    8.79 
   1   3  20   23.69    9.37 
  -1  -4  21    8.78    3.53 
   1   4 -21   10.01    4.18 
  -1  -4  19    6.91    2.83 
   1   4 -19    6.10    2.56 
  -1  -4  17    0.09    0.36 
   1   4 -17    0.02    0.34 
  -1  -4  15    0.00    0.34 
   1   4 -15    0.07    0.32 
  -1  -4  13   26.74   10.62 
   1   4 -13   30.14   11.95 
  -1  -4  11   35.79   14.18 
   1   4 -11   39.35   15.57 
  -1  -4   7    0.16    0.27 
   1   4  -7    0.18    0.25 
  -1  -4   5  165.26   65.21 
   1   4  -5   97.82   38.60 
  -1  -4   3   11.42    4.54 
   1   4  -3    9.74    3.87 
  -1  -4   1    2.92    1.19 
   1   4  -1    4.40    1.77 
  -1  -4  -1    5.10    2.05 
   1   4   1    4.19    1.70 
  -1  -4  -3   21.81    8.63 
  -1  -4  -3   19.37    7.68 
  -1  -4  -5  168.12   66.35 
   1   4   5  303.18  119.60 
   1   4   7    0.24    0.12 
  -1  -4  -9    8.94    3.57 
   1   4   9   18.98    7.50 
  -1  -4 -11   36.12   14.30 
   1   4  11   54.93   21.69 
  -1  -4 -13   30.80   12.23 
   1   4  13   40.47   15.99 
  -1  -4 -15    0.12    0.39 
   1   4  15    0.11    0.08 
  -1  -4 -17    0.16    0.56 
   1   4  17    0.17    0.11 
  -1  -4 -19    9.22    3.83 
   1   4  19   14.59    5.78 
  -1  -4 -21   15.99    6.55 
   1   5 -22    0.00    0.58 
  -1  -5  20    2.88    1.24 
   1   5 -20    0.89    0.81 
  -1  -5  18    0.36    0.45 
   1   5 -18    0.08    0.48 
  -1  -5  16    5.38    2.26 
   1   5 -16    5.57    2.29 
  -1  -5  14    0.40    0.45 
   1   5 -14    0.33    0.37 
  -1  -5  12   18.12    7.23 
   1   5 -12   15.70    6.25 
  -1  -5  10    0.28    0.42 
   1   5 -10    0.21    0.25 
  -1  -5   8   34.92   13.82 
   1   5  -8   22.70    8.99 
   1   5  -6    2.47    1.03 
   1   5  -4   35.76   14.14 
  -1  -5   2    4.35    1.78 
   1   5  -2    5.78    2.32 
  -1  -5   0   22.97    9.10 
   1   5   0   25.88   10.24 
  -1  -5  -2   14.51    5.74 
  -1  -5  -4   67.58   26.69 
  -1  -5  -6    4.02    1.61 
  -1  -5  -6    6.63    2.67 
  -1  -5  -8   29.67   11.73 
   1   5   8   77.40   30.56 
  -1  -5 -10    0.24    0.21 
   1   5  10    0.63    0.28 
  -1  -5 -12   16.31    6.49 
   1   5  12   36.86   14.56 
  -1  -5 -14    0.53    0.41 
   1   5  14    0.90    0.38 
  -1  -5 -16    9.64    3.96 
   1   5  16   16.41    6.50 
  -1  -5 -18    0.73    0.68 
   1   5  18    1.27    0.54 
  -1  -5 -20    4.65    2.09 
   1   5  20   12.34    4.90 
   1   6 -21   -0.08    0.51 
  -1  -6  19    0.38    0.39 
   1   6 -19    0.20    0.49 
  -1  -6  17   14.14    5.71 
   1   6 -17   12.47    5.01 
  -1  -6  15   18.66    7.47 
   1   6 -15   14.36    5.73 
  -1  -6  13    0.26    0.45 
   1   6 -13    0.13    0.31 
  -1  -6  11    0.53    0.53 
   1   6 -11    0.43    0.32 
   1   6  -9   21.19    8.40 
  -1  -6   7   24.48    9.72 
   1   6  -7   14.96    5.93 
  -1  -6   5    2.46    1.10 
   1   6  -5    1.95    0.82 
  -1  -6   3    4.47    1.84 
   1   6  -3    5.38    2.17 
  -1  -6   1   54.75   21.63 
   1   6  -1   91.27   36.03 
  -1  -6  -1   86.13   34.01 
   1   6   1   82.58   32.62 
  -1  -6  -3   12.09    4.79 
  -1  -6  -3    7.36    2.96 
  -1  -6  -5    3.16    1.28 
  -1  -6  -5    3.85    1.58 
  -1  -6  -7   41.11   16.27 
  -1  -6  -7   27.84   11.01 
  -1  -6  -9   32.40   12.81 
  -1  -6  -9   56.16   22.20 
  -1  -6 -11    0.43    0.27 
   1   6  11    2.72    1.10 
  -1  -6 -13    0.22    0.27 
  -1  -6 -15   24.71    9.85 
   1   6  15   67.62   26.69 
  -1  -6 -17   25.12   10.06 
   1   6  17   69.03   27.27 
  -1  -6 -19    0.90    0.68 
   1   6  19    3.06    1.24 
   1   7 -20    0.04    0.41 
  -1  -7  18    2.98    1.34 
   1   7 -18    0.94    0.66 
  -1  -7  16   21.71    8.69 
   1   7 -16   11.57    4.63 
  -1  -7  12    0.98    0.75 
  -1  -7  10    5.93    2.46 
   1   7 -10    2.88    1.18 
  -1  -7   8   32.92   13.07 
   1   7  -8   13.73    5.45 
  -1  -7   6    3.55    1.52 
   1   7  -6    4.07    1.65 
  -1  -7   4    1.58    0.78 
   1   7  -4    1.86    0.80 
  -1  -7   2   12.74    5.08 
   1   7  -2   16.48    6.54 
  -1  -7   0   51.75   20.45 
   1   7   0   72.67   28.70 
  -1  -7  -2   20.14    7.99 
  -1  -7  -2   52.52   20.75 
  -1  -7  -4    3.50    1.44 
  -1  -7  -4    3.44    1.39 
  -1  -7  -6    8.39    3.37 
  -1  -7  -6    4.89    1.97 
  -1  -7  -8   41.41   16.39 
  -1  -7  -8   25.06    9.92 
  -1  -7 -10    8.33    3.34 
  -1  -7 -10    4.15    1.68 
  -1  -7 -12    0.98    0.49 
  -1  -7 -14    2.13    0.95 
  -1  -7 -14    2.16    0.92 
  -1  -7 -16   32.32   12.86 
  -1  -7 -16   34.56   13.69 
  -1  -7 -18    7.00    2.93 
  -1  -8  17    4.38    1.90 
   1   8 -17    3.96    1.66 
  -1  -8  15    2.88    1.34 
   1   8 -15    1.52    0.67 
  -1  -8  13    3.81    1.75 
   1   8 -13    3.43    1.40 
   1   8 -11    0.64    0.32 
  -1  -8   9    8.24    3.40 
   1   8  -9    4.98    2.01 
  -1  -8   7    2.90    1.30 
   1   8  -7    4.71    1.91 
  -1  -8   5    6.38    2.65 
   1   8  -5    5.71    2.30 
  -1  -8   3    6.54    2.67 
   1   8  -3    7.62    3.05 
  -1  -8   1   19.96    7.94 
   1   8  -1   27.78   11.00 
  -1  -8  -1   18.70    7.42 
   1   8   1   23.83    9.44 
  -1  -8  -3    7.43    2.99 
  -1  -8  -3   23.27    9.21 
  -1  -8  -5    7.31    2.94 
  -1  -8  -5   10.05    4.00 
  -1  -8  -7    8.90    3.57 
  -1  -8  -7    6.94    2.78 
  -1  -8  -9    5.53    2.22 
  -1  -8 -11    1.87    0.81 
  -1  -8 -11    0.94    0.44 
  -1  -8 -13    5.43    2.21 
  -1  -8 -13   10.05    4.02 
  -1  -8 -15    6.52    2.64 
  -1  -9  16    1.71    0.94 
   1   9 -16    1.17    0.58 
  -1  -9  14    1.63    1.01 
   1   9 -14    1.86    0.80 
  -1  -9  12   15.53    6.28 
   1   9 -12    9.55    3.82 
  -1  -9  10    0.30    0.55 
   1   9 -10    0.24    0.20 
  -1  -9   6    0.04    0.53 
   1   9  -6    0.05    0.17 
  -1  -9   4   23.24    9.27 
   1   9  -4   20.08    7.96 
  -1  -9   2    1.65    0.81 
   1   9  -2    2.11    0.89 
  -1  -9   0    8.59    3.46 
   1   9   0   10.80    4.30 
  -1  -9  -2    1.57    0.69 
  -1  -9  -2    7.69    3.08 
  -1  -9  -4   46.29   18.30 
  -1  -9  -4   19.35    7.69 
  -1  -9  -6    0.19    0.19 
  -1  -9  -8    1.04    0.50 
  -1  -9  -8    0.70    0.35 
  -1  -9 -10    0.64    0.34 
  -1  -9 -10    0.40    0.26 
  -1  -9 -12   19.93    7.91 
  -1  -9 -12   10.76    4.30 
  -1  -9 -14    7.17    2.89 
  -1  -9 -14    3.72    1.57 
  -1 -10  13   15.91    6.48 
   1  10 -13   10.21    4.09 
  -1 -10  11    9.28    3.86 
   1  10 -11    7.70    3.09 
  -1 -10   9    0.33    0.70 
   1  10  -9    0.20    0.22 
  -1 -10   7    0.19    0.54 
   1  10  -7    0.81    0.41 
  -1 -10   5   14.99    6.05 
   1  10  -5   18.60    7.38 
  -1 -10   3   30.18   12.01 
   1  10  -3   30.94   12.24 
  -1 -10   1    0.12    0.38 
   1  10  -1    0.12    0.18 
  -1 -10  -1    0.08    0.29 
  -1 -10  -1    0.62    0.30 
  -1 -10  -3   82.40   32.54 
  -1 -10  -3   20.15    7.99 
  -1 -10  -5   33.09   13.09 
  -1 -10  -5   17.42    6.93 
  -1 -10  -7    1.06    0.50 
  -1 -10  -7    1.02    0.47 
  -1 -10  -9    0.27    0.22 
  -1 -10  -9    0.48    0.29 
  -1 -10 -11    8.38    3.37 
  -1 -10 -11   14.61    5.82 
  -1 -10 -13    5.80    2.38 
  -1 -11  10    0.59    0.80 
   1  11 -10    0.55    0.36 
  -1 -11   8    0.11    0.63 
   1  11  -8    0.09    0.19 
  -1 -11   6    1.22    0.89 
   1  11  -6    1.57    0.69 
  -1 -11   4   18.65    7.50 
   1  11  -4   17.39    6.90 
  -1 -11   2    1.68    0.91 
   1  11  -2    1.91    0.82 
  -1 -11   0    1.91    0.91 
  -1 -11   0   16.89    6.72 
  -1 -11  -2    1.65    0.77 
  -1 -11  -2    7.70    3.09 
  -1 -11  -4   11.44    4.56 
  -1 -11  -4   36.45   14.42 
  -1 -11  -6    1.73    0.76 
  -1 -11  -6    2.91    1.21 
  -1 -11  -8    0.44    0.31 
  -1 -11  -8    0.33    0.26 
  -1 -11 -10    0.48    0.32 
  -1 -12   5    1.09    0.90 
   1  12  -5    2.05    0.88 
  -1 -12   3    0.15    0.67 
   1  12  -3    0.18    0.18 
  -1 -12   1    4.26    1.87 
  -1 -12   1   37.46   14.84 
  -1 -12  -1   22.42    8.90 
  -1 -12  -1    3.69    1.59 
  -1 -12  -3    0.45    0.28 
  -1 -12  -3    0.19    0.34 
  -1 -12  -5    2.96    1.24 
   2 -12  -6    0.64    0.35 
   2 -12  -4   47.98   18.97 
   2 -12  -4    9.00    3.70 
  -2  12   2    0.14    0.21 
   2 -12  -2    0.11    0.58 
  -2  12   0    2.69    1.14 
   2 -12   0    1.11    0.82 
  -2  12  -2    0.14    0.21 
   2 -12   2    0.13    0.59 
  -2  12  -4    8.48    3.42 
   2 -11 -11    0.46    0.33 
   2 -11 -11    0.38    0.29 
   2 -11  -9   18.86    7.49 
   2 -11  -9   32.32   12.80 
   2 -11  -7   12.41    4.98 
   2 -11  -7   33.86   13.40 
   2 -11  -5    1.89    0.81 
   2 -11  -5    0.40    0.42 
   2 -11  -3    0.44    0.49 
  -2  11   1   24.55    9.74 
   2 -11  -1   19.54    7.82 
  -2  11  -1   25.38   10.07 
   2 -11   1   14.32    5.79 
  -2  11  -3    0.40    0.28 
   2 -11   3    0.14    0.52 
  -2  11  -5    0.45    0.30 
   2 -11   5    0.40    0.59 
  -2  11  -7   14.13    5.63 
   2 -11   7   16.08    6.51 
   2 -10 -14    6.50    2.65 
   2 -10 -14   10.29    4.14 
   2 -10 -12    0.03    0.19 
   2 -10 -12    0.01    0.19 
   2 -10 -10    5.26    2.13 
   2 -10 -10   10.08    4.03 
   2 -10  -8   25.56   10.13 
   2 -10  -8   62.89   24.84 
   2 -10  -6   11.91    4.77 
   2 -10  -6   45.45   17.97 
   2 -10  -4   26.85   10.63 
   2 -10  -4    3.61    1.54 
  -2  10   2    7.25    2.92 
   2 -10  -2    6.23    2.58 
  -2  10   0   30.55   12.11 
   2 -10   0   28.05   11.18 
  -2  10  -2    7.85    3.15 
   2 -10   2    6.41    2.70 
  -2  10  -4    5.44    2.20 
   2 -10   4    2.17    1.08 
  -2  10  -6   13.10    5.22 
   2 -10   6   16.15    6.50 
  -2  10  -8   26.40   10.45 
   2 -10   8   42.24   16.78 
  -2  10 -10    5.48    2.21 
   2 -10  10    7.83    3.29 
   2  -9 -17    4.87    2.02 
   2  -9 -17    4.88    2.18 
   2  -9 -15    5.26    2.15 
   2  -9 -15    3.81    1.61 
   2  -9 -13    0.61    0.37 
   2  -9 -13    0.56    0.32 
   2  -9 -11    0.87    0.42 
   2  -9 -11    1.15    0.54 
   2  -9  -9   13.63    5.43 
   2  -9  -7   40.58   16.04 
   2  -9  -7   12.13    4.83 
   2  -9  -5    0.74    0.34 
   2  -9  -5    0.18    0.30 
  -2   9   3    2.91    1.21 
   2  -9  -3    2.05    0.94 
  -2   9   1   14.17    5.64 
   2  -9  -1   11.31    4.57 
  -2   9  -1   13.33    5.31 
   2  -9   1   13.40    5.41 
  -2   9  -3    2.68    1.12 
   2  -9   3    1.65    0.92 
   2  -9   5    0.11    0.49 
  -2   9  -7    9.52    3.79 
   2  -9   7   19.93    7.98 
  -2   9  -9    6.91    2.77 
   2  -9   9   11.94    4.85 
  -2   9 -11    0.97    0.48 
   2  -9  11    0.63    0.61 
  -2   9 -13    0.53    0.36 
   2  -9  13    0.71    0.65 
   2  -8 -18    0.01    0.21 
   2  -8 -18    0.12    0.61 
   2  -8 -16    0.73    0.39 
   2  -8 -16    0.66    0.54 
   2  -8 -14    8.04    3.23 
   2  -8 -14    4.50    1.86 
   2  -8 -12   11.11    4.43 
   2  -8 -10    4.43    1.81 
   2  -8 -10    3.86    1.57 
   2  -8  -8    6.25    2.52 
   2  -8  -8   11.41    4.53 
   2  -8  -6    0.73    0.34 
   2  -8  -6    0.30    0.24 
  -2   8   4   51.75   20.45 
   2  -8  -4   39.49   15.63 
  -2   8   2    3.86    1.57 
   2  -8  -2    2.64    1.16 
  -2   8   0    7.39    2.96 
   2  -8   0    6.88    2.82 
  -2   8  -2    2.91    1.20 
   2  -8   2    3.32    1.45 
  -2   8  -4   32.68   12.93 
   2  -8   4   41.86   16.59 
  -2   8  -6    0.22    0.20 
   2  -8   6    0.43    0.47 
  -2   8  -8    4.64    1.89 
  -2   8 -10    2.74    1.16 
   2  -8  10    4.72    2.06 
  -2   8 -12    8.60    3.46 
   2  -8  12   11.45    4.65 
  -2   8 -14    4.49    1.86 
   2  -8  14    5.19    2.23 
   2  -7 -19    3.90    1.99 
   2  -7 -19    7.18    2.92 
   2  -7 -17    0.13    0.48 
   2  -7 -17    0.14    0.22 
   2  -7 -15    5.78    2.40 
   2  -7 -13   65.58   25.91 
   2  -7 -13   36.66   14.51 
   2  -7 -11   35.38   14.00 
   2  -7 -11   21.22    8.40 
   2  -7  -7    4.38    1.76 
   2  -7  -7    2.07    0.89 
   2  -7  -5   86.72   34.24 
   2  -7  -5  439.25  173.31 
  -2   7   3  101.82   40.21 
   2  -7  -3   70.12   27.72 
  -2   7   1    2.20    0.92 
   2  -7  -1    1.37    0.69 
  -2   7  -1    1.80    0.77 
   2  -7   1    1.68    0.83 
  -2   7  -3   48.57   19.18 
   2  -7   3   76.44   30.21 
  -2   7  -5   64.76   25.57 
   2  -7   5  120.87   47.75 
  -2   7  -7    1.24    0.58 
   2  -7   7    2.46    1.11 
  -2   7  -9    0.26    0.28 
   2  -7   9    0.35    0.42 
   2  -7  11   24.06    9.60 
  -2   7 -13   43.39   17.18 
   2  -7  13   46.75   18.54 
  -2   7 -15    7.13    2.89 
   2  -7  15    6.52    2.74 
  -2   7 -17    0.28    0.41 
   2  -7  17    0.06    0.50 
   2  -6 -20    5.31    2.61 
   2  -6 -20    6.67    2.72 
   2  -6 -18    1.96    1.18 
   2  -6 -18    3.20    1.34 
   2  -6 -16    0.12    0.44 
   2  -6 -16    0.04    0.17 
   2  -6 -14    6.32    2.58 
   2  -6 -14    9.22    3.69 
   2  -6 -12   44.72   17.68 
   2  -6 -12   93.18   36.79 
   2  -6 -10    7.47    2.98 
   2  -6 -10   13.43    5.34 
   2  -6  -8    0.05    0.16 
   2  -6  -8    0.07    0.12 
   2  -6  -6   84.08   33.18 
   2  -6  -6   33.22   13.15 
  -2   6   4   80.49   31.79 
   2  -6  -4   53.62   21.19 
  -2   6   2   47.48   18.76 
   2  -6  -2   33.51   13.27 
  -2   6   0    0.11    0.17 
   2  -6   0    0.22    0.35 
  -2   6  -2   27.16   10.74 
   2  -6   2   40.54   16.04 
  -2   6  -4   52.21   20.63 
   2  -6   4   77.99   30.81 
  -2   6  -6   22.00    8.72 
   2  -6   6   30.81   12.22 
  -2   6  -8    0.04    0.26 
   2  -6   8    0.10    0.34 
  -2   6 -10    8.10    3.26 
   2  -6  10    7.62    3.10 
  -2   6 -12   66.03   26.10 
  -2   6 -14    7.10    2.87 
   2  -6  14    6.81    2.83 
  -2   6 -16    0.12    0.31 
   2  -6  16    0.07    0.45 
   2  -6  18    2.50    1.20 
   2  -5 -21    0.58    1.01 
   2  -5 -21   -0.08    0.25 
   2  -5 -19    1.20    1.12 
   2  -5 -19    0.39    0.32 
   2  -5 -17    4.50    2.04 
   2  -5 -17    1.47    0.66 
   2  -5 -15   16.95    6.80 
   2  -5 -15   16.12    6.40 
   2  -5 -13    4.80    1.97 
   2  -5 -13    6.76    2.71 
   2  -5 -11    7.82    3.12 
   2  -5 -11   16.19    6.43 
   2  -5  -9   36.57   14.47 
   2  -5  -7   41.97   16.58 
   2  -5  -5    2.36    0.99 
   2  -5  -5    5.99    2.39 
  -2   5   3    6.50    2.60 
   2  -5  -3    4.20    1.71 
  -2   5   1    5.73    2.30 
   2  -5  -1    5.71    2.31 
  -2   5  -1    3.65    1.47 
   2  -5   3    4.33    1.77 
  -2   5  -5    1.75    0.78 
   2  -5   5    1.95    0.86 
  -2   5  -7   22.63    8.97 
   2  -5   7   22.39    8.89 
  -2   5  -9   18.56    7.37 
   2  -5   9   19.75    7.86 
  -2   5 -11    9.85    3.94 
   2  -5  11    9.55    3.86 
  -2   5 -13    6.02    2.46 
   2  -5  13    4.96    2.08 
  -2   5 -15   16.76    6.68 
   2  -5  15   14.28    5.75 
  -2   5 -17    5.48    2.26 
   2  -5  17    5.38    2.29 
  -2   5 -19    7.14    2.94 
   2  -5  19    6.43    2.69 
  -2   4  20    0.26    0.14 
  -2   4  18   11.83    4.69 
   2  -4 -18    2.14    1.21 
  -2   4  16  171.76   67.76 
   2  -4 -16   57.44   22.78 
  -2   4  14   24.71    9.77 
   2  -4 -14    5.98    2.47 
   2  -4 -12    0.73    0.41 
   2  -4 -10   15.96    6.33 
   2  -4  -8  135.56   53.48 
   2  -4  -8  243.38   96.04 
   2  -4  -6  220.65   87.04 
   2  -4  -6  214.60   84.68 
  -2   4   4    2.65    1.08 
   2  -4  -4    2.82    1.16 
  -2   4   2   23.63    9.35 
   2  -4  -2   17.21    6.82 
  -2   4   0   14.69    5.82 
   2  -4   0   21.80    8.64 
  -2   4  -2   14.80    5.88 
   2  -4   2   17.16    6.81 
  -2   4  -4    2.26    0.96 
   2  -4   4    2.00    0.86 
   2  -4   6  121.33   47.93 
  -2   4  -8  119.55   47.20 
   2  -4   8  115.60   45.66 
  -2   4 -10   16.54    6.57 
   2  -4  10   16.74    6.68 
  -2   4 -12    0.81    0.43 
   2  -4  12    0.79    0.48 
  -2   4 -14    7.09    2.86 
   2  -4  14    5.47    2.27 
  -2   4 -16   53.80   21.27 
  -2   4 -18    4.83    2.00 
   2  -4  18    4.28    1.84 
  -2   4 -20    0.28    0.45 
  -2   3  21    0.54    0.25 
   2  -3 -21   -0.11    0.66 
  -2   3  19    9.19    3.65 
   2  -3 -19    2.04    1.17 
  -2   3  17   60.12   23.74 
   2  -3 -17   25.22   10.10 
  -2   3  15   16.10    6.37 
   2  -3 -15    7.41    3.06 
  -2   3  13    0.33    0.16 
   2  -3 -13    0.12    0.31 
  -2   3  11   34.56   13.65 
   2  -3 -11   10.88    4.34 
  -2   3   9  346.34  136.65 
   2  -3  -9  110.32   43.54 
   2  -3  -7  175.03   69.08 
   2  -3  -7  331.33  130.74 
   2  -3  -5   23.87    9.43 
   2  -3  -5   21.68    8.58 
  -2   3   3   65.30   25.77 
   2  -3  -3   40.19   15.87 
  -2   3   1  143.02   56.44 
   2  -3  -1  216.64   85.49 
  -2   3  -1  167.49   66.08 
   2  -3   1  183.90   72.58 
  -2   3  -3   37.26   14.73 
   2  -3   3   37.35   14.76 
  -2   3  -5    8.76    3.49 
   2  -3   5    8.13    3.25 
   2  -3   7  148.16   58.48 
  -2   3  -9  122.97   48.52 
   2  -3   9  112.14   44.29 
  -2   3 -11   10.78    4.30 
   2  -3  11   10.84    4.35 
  -2   3 -13    0.18    0.25 
   2  -3  13    0.12    0.30 
  -2   3 -15    8.98    3.61 
   2  -3  15    8.12    3.31 
  -2   3 -17   28.31   11.23 
   2  -3  17   27.98   11.14 
  -2   3 -19    5.05    2.11 
   2  -3  19    3.64    1.56 
   2  -2 -22   -0.04    0.78 
  -2   2  20    1.51    0.62 
   2  -2 -20    0.25    0.67 
  -2   2  18   10.42    4.13 
   2  -2 -18    5.68    2.44 
  -2   2  16    6.43    2.56 
   2  -2 -16    5.13    2.19 
  -2   2  14    0.07    0.07 
   2  -2 -14    0.10    0.33 
  -2   2  12   13.29    5.26 
   2  -2 -12    9.35    3.76 
  -2   2  10   36.49   14.41 
   2  -2 -10   21.85    8.66 
  -2   2   8  229.51   90.54 
   2  -2  -8  112.92   44.58 
   2  -2  -6   11.16    4.41 
   2  -2  -6   25.87   10.23 
   2  -2  -4   65.53   25.87 
   2  -2  -4   92.72   36.59 
  -2   2   2    9.30    3.68 
   2  -2  -2    6.11    2.43 
  -2   2   0  381.17  150.39 
   2  -2   0  415.73  163.98 
  -2   2  -2    5.67    2.26 
   2  -2   2    5.07    2.03 
  -2   2  -4   44.58   17.61 
   2  -2   4   41.06   16.22 
  -2   2  -6   11.29    4.49 
   2  -2   6   10.36    4.13 
   2  -2   8   96.95   38.29 
  -2   2 -10   19.92    7.91 
   2  -2  10   20.05    7.97 
  -2   2 -12    8.63    3.47 
   2  -2  12    8.54    3.45 
  -2   2 -14    0.05    0.25 
   2  -2  14    0.06    0.27 
  -2   2 -16    5.18    2.13 
  -2   2 -18    8.95    3.62 
   2  -2  18    7.14    2.90 
  -2   2 -20    1.41    0.75 
   2  -2  20    0.95    0.49 
   2  -1 -21    2.80    1.52 
  -2   1  19   13.33    5.28 
   2  -1 -19    9.58    3.96 
  -2   1  17    0.17    0.11 
   2  -1 -17    0.21    0.46 
  -2   1  15    0.34    0.16 
   2  -1 -15    0.33    0.38 
  -2   1  13   33.32   13.16 
   2  -1 -13   46.07   18.23 
  -2   1  11   43.16   17.04 
  -2   1   9    3.54    1.40 
   2  -1  -9    3.86    1.57 
  -2   1   7    0.30    0.13 
   2  -1  -7    0.24    0.18 
  -2   1   5  151.80   59.94 
   2  -1  -5   74.53   29.42 
   2  -1  -3  110.64   43.70 
   2  -1  -3   68.30   26.97 
  -2   1   1    0.89    0.38 
   2  -1  -1    0.79    0.34 
  -2   1  -1    0.93    0.40 
   2  -1   1    0.79    0.35 
  -2   1  -3   65.85   26.00 
   2  -1   3   62.44   24.64 
  -2   1  -5   77.26   30.50 
   2  -1   5   72.85   28.77 
  -2   1  -7    0.33    0.26 
   2  -1   7    0.26    0.25 
   2  -1   9    3.67    1.52 
  -2   1 -11   49.39   19.54 
   2  -1  11   45.29   17.92 
  -2   1 -13   42.95   17.00 
   2  -1  13   40.27   15.94 
  -2   1 -15    0.48    0.44 
   2  -1  15    0.39    0.29 
   2  -1  17    0.19    0.22 
  -2   1 -19   16.44    6.58 
   2  -1  19   10.67    4.26 
  -2   1 -21   15.74    6.33 
   2  -1  21    8.64    3.45 
   2   0 -22    3.22    1.61 
  -2   0  20   26.20   10.36 
   2   0 -20   41.24   16.40 
  -2   0  18   17.90    7.09 
   2   0 -18   21.66    8.64 
  -2   0  16    1.92    0.78 
   2   0 -16    2.98    1.30 
  -2   0  14    9.20    3.65 
  -2   0  12   83.40   32.92 
   2   0 -12  119.60   47.20 
  -2   0  10   72.26   28.53 
   2   0 -10   96.45   38.08 
  -2   0   8    4.25    1.69 
   2   0  -8    5.03    2.01 
  -2   0   6   27.26   10.77 
   2   0  -6   30.52   12.06 
  -2   0   4  211.10   83.72 
   2   0  -4  194.82   77.22 
  -2   0   0   70.90   27.98 
   2   0   0   73.85   29.14 
  -2   0  -2   39.32   15.53 
   2   0   2   41.31   16.31 
  -2   0  -4  195.23   77.04 
   2   0   4  198.00   78.13 
  -2   0  -6   29.71   11.76 
   2   0   6   31.70   12.53 
  -2   0  -8    5.59    2.26 
  -2   0 -10  104.37   41.21 
   2   0  10   91.27   36.04 
  -2   0 -12  128.92   50.93 
   2   0  12  108.14   42.69 
  -2   0 -14   16.02    6.40 
   2   0  14   11.02    4.39 
  -2   0 -16    3.47    1.50 
   2   0  16    2.04    0.85 
  -2   0 -18   30.27   12.04 
   2   0  18   18.90    7.49 
  -2   0 -20   46.48   18.45 
   2   0  20   28.57   11.31 
   2   1 -21    7.54    3.20 
  -2  -1  19    8.00    3.18 
   2   1 -19   12.30    4.97 
  -2  -1  17    0.14    0.14 
   2   1 -17    0.22    0.35 
  -2  -1  15    0.33    0.21 
   2   1 -15    0.40    0.33 
   2   1 -13   44.41   17.56 
  -2  -1  11   46.70   18.46 
  -2  -1   9    3.84    1.55 
   2   1  -9    4.34    1.74 
  -2  -1   7    0.21    0.17 
   2   1  -7    0.30    0.20 
  -2  -1   5   72.58   28.65 
   2   1  -5   99.45   39.27 
  -2  -1   3   77.81   30.73 
   2   1  -3  100.91   39.84 
  -2  -1   1    0.66    0.27 
   2   1  -1    2.18    0.87 
  -2  -1  -1    0.60    0.26 
   2   1   1    0.65    0.27 
  -2  -1  -3   70.44   27.80 
   2   1   3   63.80   25.17 
  -2  -1  -5   81.26   32.08 
   2   1   5   67.99   26.83 
  -2  -1  -7    0.23    0.25 
   2   1   7    0.19    0.14 
   2   1   9    3.33    1.34 
  -2  -1 -11   51.75   20.48 
   2   1  11   37.20   14.70 
  -2  -1 -13   48.34   19.14 
   2   1  13   30.94   12.23 
  -2  -1 -15    0.54    0.49 
   2   1  15    0.31    0.18 
   2   1  17    0.19    0.14 
  -2  -1 -19   18.02    7.24 
   2   1  19   10.53    4.18 
  -2  -1 -21   14.60    5.90 
   2   1  21    9.65    3.84 
   2   2 -22   -0.01    0.65 
  -2  -2  20    0.58    0.29 
   2   2 -20    0.35    0.52 
  -2  -2  18    5.42    2.19 
   2   2 -18    5.52    2.30 
  -2  -2  16    4.18    1.71 
   2   2 -16    4.49    1.86 
  -2  -2  14    0.05    0.23 
   2   2 -14    0.03    0.24 
  -2  -2  12    8.30    3.33 
   2   2 -12    8.89    3.55 
  -2  -2  10   20.19    8.01 
   2   2 -10   23.78    9.41 
  -2  -2   8  104.18   41.13 
   2   2  -8  130.92   51.66 
  -2  -2   6   13.24    5.25 
   2   2  -6   13.62    5.40 
  -2  -2   4   60.89   24.03 
   2   2  -4   49.93   19.72 
  -2  -2   2    9.82    3.89 
   2   2  -2   10.49    4.15 
  -2  -2   0  609.82  240.56 
   2   2   0  350.61  138.29 
  -2  -2  -2    5.24    2.08 
   2   2   2    8.34    3.30 
  -2  -2  -4   44.20   17.45 
   2   2   4   47.43   18.72 
  -2  -2  -6   11.52    4.58 
   2   2   6   10.08    3.99 
   2   2   8   89.72   35.39 
  -2  -2 -10   23.17    9.20 
   2   2  10   17.95    7.10 
  -2  -2 -12   10.19    4.11 
   2   2  12    6.81    2.71 
  -2  -2 -14    0.05    0.38 
   2   2  14    0.03    0.08 
  -2  -2 -16    5.98    2.51 
  -2  -2 -18   10.77    4.41 
   2   2  18    6.06    2.42 
  -2  -2 -20    1.44    0.86 
   2   2  20    0.99    0.43 
  -2  -3  21    0.09    0.16 
   2   3 -21   -0.01    0.68 
  -2  -3  19    2.82    1.19 
   2   3 -19    2.12    1.06 
  -2  -3  17   25.77   10.25 
   2   3 -17   28.78   11.43 
  -2  -3  15    7.93    3.22 
   2   3 -15    8.94    3.60 
  -2  -3  13    0.06    0.28 
   2   3 -13    0.13    0.27 
  -2  -3  11    9.94    3.98 
   2   3 -11   12.54    4.99 
  -2  -3   9  128.10   50.57 
   2   3  -9  129.74   51.21 
   2   3  -7  140.56   55.48 
  -2  -3   5   10.57    4.20 
   2   3  -5    9.32    3.69 
  -2  -3   3   40.36   15.94 
   2   3  -3   67.35   26.58 
  -2  -3   1  296.23  116.87 
  -2  -3   1  298.14  117.64 
  -2  -3  -1  327.19  129.06 
  -2  -3  -1  293.32  115.73 
  -2  -3  -3   39.91   15.76 
   2   3   3   79.99   31.56 
  -2  -3  -5    7.32    2.91 
   2   3   5   12.32    4.87 
   2   3   7  182.77   72.08 
  -2  -3  -9  127.19   50.21 
   2   3   9  126.10   49.75 
  -2  -3 -11   12.78    5.12 
   2   3  11   10.45    4.14 
  -2  -3 -13    0.21    0.39 
   2   3  13    0.13    0.10 
  -2  -3 -15   10.91    4.44 
   2   3  15    6.74    2.68 
  -2  -3 -17   37.59   14.96 
   2   3  17   26.22   10.37 
  -2  -3 -19    5.09    2.21 
   2   3  19    4.67    1.88 
  -2  -4  20    0.26    0.26 
   2   4 -20   -0.09    0.62 
  -2  -4  18    3.06    1.33 
   2   4 -18    1.74    0.92 
  -2  -4  16   47.89   18.97 
   2   4 -16   49.20   19.48 
  -2  -4  14    5.64    2.34 
   2   4 -14    5.65    2.31 
  -2  -4  12    0.59    0.43 
   2   4 -12    0.69    0.40 
   2   4 -10   15.37    6.12 
  -2  -4   8  136.65   53.93 
   2   4  -8   87.54   34.56 
  -2  -4   6  133.29   52.62 
   2   4  -6   79.81   31.50 
  -2  -4   4    2.10    0.90 
   2   4  -4    3.00    1.22 
  -2  -4   2   16.76    6.64 
   2   4  -2   25.78   10.19 
  -2  -4   0   38.80   15.33 
  -2  -4   0   24.21    9.58 
  -2  -4  -2   30.22   11.96 
  -2  -4  -2   31.86   12.58 
  -2  -4  -4    2.16    0.88 
   2   4   4    5.38    2.14 
   2   4   6  199.23   78.63 
  -2  -4  -8  100.23   39.56 
   2   4   8  183.22   72.31 
  -2  -4 -10   18.10    7.20 
   2   4  10   23.62    9.33 
  -2  -4 -12    0.84    0.49 
   2   4  12    0.81    0.35 
  -2  -4 -14    7.70    3.16 
   2   4  14    7.42    2.95 
  -2  -4 -16   67.17   26.61 
   2   4  16   63.07   24.90 
  -2  -4 -18    5.63    2.44 
   2   4  18    6.43    2.56 
  -2  -4 -20    0.41    0.58 
   2   5 -21    0.07    0.62 
  -2  -5  19    4.47    1.88 
   2   5 -19    0.97    0.69 
  -2  -5  17    3.20    1.42 
   2   5 -17    2.24    1.03 
  -2  -5  15   13.81    5.55 
   2   5 -15   11.26    4.52 
  -2  -5  13    4.77    2.00 
   2   5 -13    2.81    1.20 
  -2  -5  11   10.27    4.14 
   2   5 -11    6.43    2.59 
  -2  -5   9   22.29    8.84 
   2   5  -9   12.48    4.95 
   2   5  -7   15.08    5.98 
   2   5  -5    2.07    0.87 
  -2  -5   3    4.92    2.01 
   2   5  -3    6.28    2.52 
  -2  -5   1    6.23    2.51 
   2   5  -1    6.50    2.60 
  -2  -5  -1   13.02    5.16 
  -2  -5  -3    8.60    3.44 
  -2  -5  -5    2.11    0.86 
  -2  -5  -7   19.83    7.85 
   2   5   7   51.34   20.27 
  -2  -5  -9   16.78    6.66 
   2   5   9   42.30   16.70 
  -2  -5 -11    9.30    3.73 
   2   5  11   18.34    7.26 
  -2  -5 -13    5.89    2.42 
   2   5  13    9.09    3.61 
  -2  -5 -15   20.27    8.12 
   2   5  15   28.16   11.13 
  -2  -5 -17    7.58    3.17 
   2   5  17   11.01    4.37 
  -2  -5 -19    8.77    3.66 
   2   5  19   16.27    6.45 
  -2  -6  20   11.38    4.60 
   2   6 -20   -0.18    0.62 
  -2  -6  18    1.47    0.76 
   2   6 -18    0.06    0.41 
  -2  -6  16    0.01    0.42 
   2   6 -16   -0.03    0.29 
  -2  -6  14    5.83    2.43 
   2   6 -14    2.74    1.17 
  -2  -6  12   69.08   27.34 
   2   6 -12   34.80   13.76 
  -2  -6  10    8.93    3.61 
  -2  -6   8    0.03    0.36 
   2   6  -8    0.03    0.15 
  -2  -6   6   33.80   13.39 
   2   6  -6   30.92   12.23 
  -2  -6   4   67.35   26.61 
   2   6  -4   82.04   32.38 
  -2  -6   2   30.88   12.22 
   2   6  -2   49.43   19.53 
  -2  -6   0    0.16    0.19 
  -2  -6   0    0.46    0.22 
  -2  -6  -2   64.35   25.43 
  -2  -6  -2  100.18   39.55 
  -2  -6  -4  122.51   48.34 
  -2  -6  -4  125.28   49.43 
  -2  -6  -6   33.72   13.33 
  -2  -6  -6   47.89   18.95 
  -2  -6  -8    0.02    0.14 
   2   6   8    0.06    0.06 
  -2  -6 -10    6.28    2.53 
   2   6  10   25.80   10.20 
  -2  -6 -12   50.39   19.94 
   2   6  12  166.12   65.53 
  -2  -6 -14    8.06    3.28 
   2   6  14   18.35    7.26 
  -2  -6 -16    0.13    0.45 
   2   6  16    0.46    0.22 
  -2  -6 -18    6.60    2.81 
   2   6  18   16.92    6.71 
  -2  -7  19    1.98    0.96 
   2   7 -19    0.56    0.48 
  -2  -7  17    0.11    0.38 
   2   7 -17    0.11    0.24 
  -2  -7  13   39.73   15.78 
   2   7 -13   30.86   12.22 
  -2  -7  11   31.56   12.56 
   2   7 -11   16.12    6.40 
  -2  -7   9    0.22    0.45 
   2   7  -9    0.29    0.21 
  -2  -7   7    2.22    1.02 
   2   7  -7    1.93    0.82 
  -2  -7   5  126.01   49.75 
   2   7  -5  135.24   53.39 
  -2  -7   3   69.12   27.32 
   2   7  -3   98.32   38.81 
  -2  -7   1    1.52    0.68 
   2   7  -1    1.94    0.81 
  -2  -7  -1    6.52    2.60 
  -2  -7  -1    2.19    0.93 
  -2  -7  -3  183.40   72.35 
  -2  -7  -3  127.65   50.39 
  -2  -7  -5  187.45   73.99 
  -2  -7  -5  160.48   63.30 
  -2  -7  -7    1.94    0.82 
  -2  -7  -7    3.36    1.39 
  -2  -7  -9    0.57    0.32 
  -2  -7  -9    0.18    0.18 
  -2  -7 -11   36.24   14.35 
  -2  -7 -13   40.40   16.00 
   2   7  13  174.22   68.76 
  -2  -7 -15    7.32    3.00 
   2   7  15   31.88   12.61 
  -2  -7 -17    0.34    0.51 
   2   7  17    1.67    0.70 
  -2  -8  18    0.08    0.35 
   2   8 -18    0.00    0.24 
  -2  -8  16    0.15    0.44 
   2   8 -16    0.04    0.23 
  -2  -8  14    3.18    1.48 
   2   8 -14    2.98    1.24 
   2   8 -12    8.53    3.42 
  -2  -8  10    3.11    1.43 
   2   8 -10    3.52    1.44 
  -2  -8   8    4.12    1.78 
   2   8  -8    6.72    2.70 
   2   8  -6    0.44    0.26 
  -2  -8   4   47.57   18.83 
   2   8  -4   54.16   21.40 
  -2  -8   2    2.58    1.13 
   2   8  -2    3.32    1.36 
  -2  -8   0    5.00    2.02 
  -2  -8   0   27.22   10.77 
  -2  -8  -2    3.44    1.42 
  -2  -8  -2    9.50    3.79 
  -2  -8  -4   73.44   29.01 
  -2  -8  -4   85.72   33.85 
  -2  -8  -6    0.61    0.34 
  -2  -8  -6    0.24    0.19 
  -2  -8  -8    5.95    2.39 
  -2  -8 -10    6.94    2.80 
  -2  -8 -10    2.62    1.09 
  -2  -8 -12   19.20    7.63 
  -2  -8 -12   10.47    4.19 
  -2  -8 -14    7.13    2.87 
  -2  -8 -14    5.18    2.15 
  -2  -8 -16    0.50    0.49 
  -2  -9  17    0.49    0.53 
   2   9 -17    0.33    0.41 
  -2  -9  15    2.83    1.34 
   2   9 -15    0.95    0.54 
  -2  -9  13    0.60    0.73 
   2   9 -13    0.16    0.20 
  -2  -9  11    0.68    0.64 
   2   9 -11    0.75    0.38 
  -2  -9   9   14.10    5.74 
  -2  -9   7   10.45    4.31 
   2   9  -7   17.84    7.08 
  -2  -9   5    0.25    0.55 
   2   9  -5    0.22    0.20 
  -2  -9   3    2.18    1.02 
   2   9  -3    2.81    1.16 
  -2  -9   1    7.96    3.21 
   2   9  -1    9.93    3.97 
  -2  -9  -1    7.75    3.11 
  -2  -9  -1   48.48   19.17 
  -2  -9  -3    2.93    1.23 
  -2  -9  -3    5.18    2.09 
  -2  -9  -5    0.33    0.26 
  -2  -9  -7   26.56   10.53 
  -2  -9  -7   18.00    7.14 
  -2  -9  -9   18.80    7.47 
  -2  -9  -9   10.82    4.32 
  -2  -9 -11    1.91    0.83 
  -2  -9 -11    0.68    0.37 
  -2  -9 -13    0.63    0.40 
  -2  -9 -13    1.10    0.52 
  -2 -10  14    3.17    1.63 
   2  10 -14    1.00    0.62 
  -2 -10  12    0.02    0.58 
   2  10 -12    0.01    0.17 
  -2 -10  10    7.05    3.03 
   2  10 -10    4.75    1.93 
  -2 -10   8   18.17    7.33 
  -2 -10   6   12.05    4.90 
   2  10  -6   16.39    6.51 
  -2 -10   4    4.73    2.04 
   2  10  -4    5.31    2.14 
  -2 -10   2    4.99    2.09 
   2  10  -2    6.07    2.44 
  -2 -10   0   15.83    6.31 
  -2 -10   0  111.37   43.98 
  -2 -10  -2    4.78    1.94 
  -2 -10  -2   20.76    8.23 
  -2 -10  -4    5.18    2.11 
  -2 -10  -4    7.48    3.00 
  -2 -10  -6   18.24    7.25 
  -2 -10  -6   20.40    8.09 
  -2 -10  -8   52.84   20.89 
  -2 -10  -8   34.25   13.55 
  -2 -10 -10    6.91    2.79 
  -2 -10 -10   12.62    5.03 
  -2 -11  11    0.16    0.67 
   2  11 -11   -0.04    0.23 
  -2 -11   9   23.04    9.33 
   2  11  -9   16.03    6.38 
  -2 -11   7    8.07    3.43 
   2  11  -7   13.65    5.43 
  -2 -11   5    0.60    0.77 
   2  11  -5    0.47    0.27 
  -2 -11   3    0.43    0.57 
   2  11  -3    0.42    0.26 
  -2 -11   1  113.10   44.66 
  -2 -11   1   13.70    5.50 
  -2 -11  -1   13.26    5.29 
  -2 -11  -1   72.26   28.55 
  -2 -11  -3    0.88    0.43 
  -2 -11  -3    0.44    0.30 
  -2 -11  -5    0.66    0.36 
  -2 -11  -5    0.47    0.31 
  -2 -11  -7   16.41    6.53 
  -2 -11  -7   16.53    6.58 
   2  12  -6    0.19    0.21 
  -2 -12   4    8.44    3.57 
   2  12  -4   10.23    4.09 
  -2 -12   2    0.94    0.46 
  -2 -12   2    0.08    0.52 
  -2 -12   0    1.63    0.84 
  -2 -12   0   10.54    4.23 
  -2 -12  -2    0.03    0.25 
  -2 -12  -2    0.47    0.33 
   3 -12  -7    0.20    0.18 
   3 -12  -5   23.90    9.49 
   3 -12  -3    7.45    3.17 
  -3  12   1    0.03    0.20 
   3 -12  -1    0.05    0.62 
  -3  12  -1    0.05    0.22 
   3 -11 -12    0.37    0.33 
   3 -11 -10   17.24    6.87 
   3 -11 -10   16.32    6.54 
   3 -11  -8   36.09   14.32 
   3 -11  -8   77.76   30.71 
   3 -11  -6    5.59    2.35 
   3 -11  -6   25.41   10.07 
   3 -11  -4    4.10    1.67 
   3 -11  -4    0.60    0.63 
  -3  11   2   15.87    6.32 
   3 -11  -2   14.86    6.00 
   3 -11   0   28.69   11.45 
  -3  11  -2   15.15    6.03 
   3 -11   2    5.58    2.39 
  -3  11  -4    0.49    0.33 
   3 -11   4    0.47    0.62 
  -3  11  -6    6.50    2.62 
   3 -11   6    7.04    2.98 
   3 -10 -15   22.09    8.86 
   3 -10 -15   17.79    7.09 
   3 -10 -13    3.32    1.40 
   3 -10 -13    3.80    1.58 
   3 -10 -11    7.48    3.02 
   3 -10 -11    5.56    2.26 
   3 -10  -9  105.37   41.61 
   3 -10  -9   53.98   21.36 
   3 -10  -7  146.39   57.75 
   3 -10  -7   48.84   19.34 
   3 -10  -5   44.82   17.72 
   3 -10  -5    7.13    2.92 
  -3  10   3   31.94   12.65 
   3 -10  -3   26.24   10.46 
   3 -10  -1   47.20   18.73 
  -3  10  -1   53.07   20.99 
   3 -10   1   39.53   15.70 
  -3  10  -3   28.76   11.40 
   3 -10   3   17.60    7.09 
  -3  10  -5    7.40    2.98 
   3 -10   5    9.21    3.79 
  -3  10  -7   42.81   16.93 
   3 -10   7   67.21   26.63 
  -3  10  -9   40.82   16.14 
   3 -10   9   60.62   24.04 
   3  -9 -16    4.92    2.15 
   3  -9 -16    3.66    1.54 
   3  -9 -14    1.56    0.74 
   3  -9 -14    1.34    0.63 
   3  -9 -12    0.79    0.43 
   3  -9 -12    0.59    0.33 
   3  -9 -10    3.63    1.50 
   3  -9  -8   97.32   38.42 
   3  -9  -8   31.77   12.60 
   3  -9  -6    2.86    1.24 
   3  -9  -6   12.80    5.09 
  -3   9   4    0.09    0.19 
   3  -9  -4    0.17    0.38 
  -3   9   2   10.11    4.04 
   3  -9  -2    8.99    3.67 
  -3   9   0   21.22    8.42 
   3  -9   0   18.88    7.56 
  -3   9  -2    7.66    3.08 
   3  -9   4    0.18    0.51 
  -3   9  -6    2.33    0.98 
   3  -9   6    4.30    1.87 
  -3   9  -8   27.30   10.81 
   3  -9   8   44.38   17.61 
  -3   9 -10    3.84    1.59 
   3  -9  10    3.09    1.43 
  -3   9 -12    0.78    0.45 
   3  -9  12    0.84    0.67 
   3  -8 -17    0.09    0.50 
   3  -8 -17    0.04    0.23 
   3  -8 -15    0.17    0.34 
   3  -8 -15    0.10    0.21 
   3  -8 -13    8.71    3.50 
   3  -8 -11   17.92    7.11 
   3  -8 -11   15.54    6.18 
   3  -8  -9    1.71    0.72 
   3  -8  -9    0.74    0.38 
   3  -8  -7    3.21    1.30 
   3  -8  -7    0.89    0.46 
   3  -8  -5  109.50   43.23 
   3  -8  -5   16.68    6.65 
  -3   8   3   28.96   11.46 
   3  -8  -3   21.36    8.50 
  -3   8   1    0.45    0.28 
   3  -8  -1    0.36    0.48 
  -3   8  -1    0.36    0.25 
   3  -8   1    0.36    0.46 
  -3   8  -3   16.01    6.36 
   3  -8   3   23.87    9.52 
  -3   8  -5   12.97    5.15 
   3  -8   5   24.93    9.94 
  -3   8  -7    0.77    0.43 
  -3   8  -9    0.89    0.48 
   3  -8   9    0.86    0.63 
  -3   8 -11   16.04    6.39 
   3  -8  11   18.62    7.46 
  -3   8 -13    9.60    3.87 
   3  -8  13   10.95    4.46 
   3  -7 -18    2.53    1.47 
   3  -7 -18   11.74    4.72 
   3  -7 -16    2.00    1.02 
   3  -7 -14   24.15    9.60 
   3  -7 -14   35.98   14.24 
   3  -7 -12   70.58   27.88 
   3  -7 -12   56.66   22.39 
   3  -7 -10   24.90    9.85 
   3  -7 -10   21.58    8.55 
   3  -7  -8    9.54    3.80 
   3  -7  -8    3.47    1.41 
   3  -7  -6  217.37   85.77 
   3  -7  -6   46.11   18.25 
  -3   7   4  181.67   71.71 
   3  -7  -4  120.65   47.66 
  -3   7   2   64.80   25.61 
   3  -7  -2   56.07   22.17 
  -3   7   0    9.35    3.73 
   3  -7   0   10.06    4.05 
  -3   7  -2   33.09   13.08 
   3  -7   2   50.75   20.09 
  -3   7  -4   85.36   33.71 
   3  -7   4  164.03   64.76 
  -3   7  -6   40.87   16.17 
   3  -7   6   65.44   25.90 
  -3   7  -8    3.81    1.58 
   3  -7   8    5.81    2.44 
   3  -7  10   23.94    9.55 
  -3   7 -12   72.26   28.57 
   3  -7  12   72.81   28.83 
  -3   7 -14   35.15   13.93 
   3  -7  14   31.56   12.57 
  -3   7 -16    5.33    2.21 
   3  -6 -19    7.68    3.53 
   3  -6 -19   36.45   14.46 
   3  -6 -17    0.42    0.68 
   3  -6 -17    2.11    0.91 
   3  -6 -15    4.24    1.82 
   3  -6 -15    7.30    2.93 
   3  -6 -13   55.16   21.80 
   3  -6 -13   98.41   38.85 
   3  -6 -11   40.54   16.02 
   3  -6 -11   57.53   22.74 
   3  -6  -9   18.41    7.29 
   3  -6  -9   14.21    5.65 
  -3   6   5  141.97   56.03 
   3  -6  -5  104.14   41.12 
   3  -6  -3  136.52   53.89 
  -3   6   1   43.03   17.01 
   3  -6  -1   40.32   15.96 
  -3   6  -1   26.69   10.56 
   3  -6   1   36.81   14.58 
  -3   6  -3  105.59   41.69 
   3  -6   3  154.16   60.85 
  -3   6  -5   95.54   37.74 
   3  -6   5  130.79   51.66 
  -3   6  -7   19.84    7.89 
   3  -6   7   20.49    8.17 
  -3   6  -9   14.63    5.83 
   3  -6   9   13.27    5.32 
  -3   6 -11   51.34   20.31 
  -3   6 -13   77.85   30.76 
   3  -6  13   73.08   28.92 
  -3   6 -15    7.73    3.14 
   3  -6  15    5.72    2.42 
  -3   6 -17    2.96    1.29 
   3  -6  17    1.23    0.74 
   3  -5 -20   -0.05    0.26 
   3  -5 -18    0.00    0.17 
   3  -5 -18    0.06    0.70 
   3  -5 -16   12.25    5.02 
   3  -5 -16   19.42    7.71 
   3  -5 -14    0.71    0.49 
   3  -5 -14    1.41    0.62 
   3  -5 -12    4.26    1.73 
   3  -5 -12    7.09    2.84 
   3  -5 -10   17.39    6.90 
   3  -5  -8   44.54   17.59 
   3  -5  -6   10.92    4.33 
   3  -5  -6    2.68    1.10 
  -3   5   4   27.57   10.91 
   3  -5  -4   18.06    7.17 
  -3   5   2    2.70    1.11 
   3  -5  -2    2.62    1.12 
  -3   5   0   35.68   14.10 
   3  -5   2    2.46    1.06 
  -3   5  -4   21.30    8.44 
   3  -5   4   20.23    8.04 
  -3   5  -6    3.14    1.32 
   3  -5   6    3.59    1.52 
  -3   5  -8   27.12   10.75 
   3  -5   8   26.89   10.67 
  -3   5 -10   12.81    5.12 
   3  -5  10   11.27    4.54 
  -3   5 -12    6.28    2.55 
   3  -5  12    5.01    2.09 
  -3   5 -14    1.43    0.68 
   3  -5  14    0.95    0.61 
  -3   5 -16   18.80    7.49 
   3  -5  16   16.62    6.68 
  -3   5 -18    0.00    0.29 
   3  -5  18   -0.02    0.38 
   3  -4 -19   -0.05    0.19 
   3  -4 -19    0.14    0.76 
   3  -4 -17   18.11    7.19 
   3  -4 -17   29.99   12.01 
   3  -4 -15   38.37   15.18 
   3  -4 -15   37.77   15.03 
   3  -4 -13    7.97    3.18 
   3  -4 -11   32.48   12.85 
   3  -4  -9  233.06   92.00 
   3  -4  -9  139.61   55.12 
   3  -4  -7  271.08  106.96 
   3  -4  -7  174.17   68.76 
   3  -4  -5  358.53  141.43 
   3  -4  -5   81.67   32.24 
  -3   4   3   13.87    5.49 
   3  -4  -3   13.15    5.23 
  -3   4   1   87.86   34.68 
   3  -4  -1  149.57   59.03 
  -3   4  -1  103.50   40.86 
   3  -4   1  139.75   55.16 
  -3   4  -3   12.31    4.90 
  -3   4  -5  100.05   39.51 
   3  -4   5   83.22   32.87 
  -3   4  -7  144.79   57.16 
   3  -4   7  132.65   52.39 
  -3   4  -9  144.29   56.94 
   3  -4   9  130.56   51.57 
  -3   4 -11   37.34   14.78 
   3  -4  11   33.97   13.47 
  -3   4 -13    5.30    2.17 
   3  -4  13    4.48    1.88 
  -3   4 -15   40.03   15.85 
   3  -4  15   39.55   15.70 
  -3   4 -17   56.44   22.34 
   3  -4  17   54.48   21.61 
  -3   4 -19    2.35    1.07 
   3  -3 -20    0.07    0.69 
  -3   3  18   76.90   30.36 
   3  -3 -18   18.05    7.30 
  -3   3  16  174.17   68.71 
   3  -3 -16   46.11   18.32 
   3  -3 -12   19.90    7.89 
   3  -3 -12   10.47    4.20 
   3  -3 -10  150.34   59.35 
   3  -3 -10   82.22   32.47 
   3  -3  -6  184.08   72.67 
   3  -3  -6  311.82  123.06 
   3  -3  -4    2.63    1.09 
  -3   3   2   15.77    6.24 
   3  -3  -2   22.68    8.98 
  -3   3   0  191.95   75.72 
   3  -3   0  236.38   93.27 
  -3   3  -2   19.18    7.59 
   3  -3   2   17.87    7.09 
  -3   3  -4    2.57    1.07 
   3  -3   4    2.25    0.96 
   3  -3   6  157.89   62.35 
  -3   3  -8  183.86   72.53 
   3  -3   8  166.53   65.76 
  -3   3 -10   78.63   31.06 
   3  -3  10   75.90   30.01 
  -3   3 -12   12.10    4.83 
   3  -3  12   10.97    4.41 
  -3   3 -14   12.18    4.87 
  -3   3 -16   55.80   22.08 
   3  -3  16   52.48   20.80 
  -3   3 -18   25.86   10.28 
   3  -2 -21    0.13    0.71 
   3  -2 -19    0.06    0.59 
  -3   2  17   33.15   13.10 
   3  -2 -17    9.67    3.96 
  -3   2  13    1.84    0.74 
   3  -2 -13    0.58    0.43 
  -3   2  11    5.50    2.18 
   3  -2 -11    1.25    0.61 
   3  -2  -9   62.26   24.60 
   3  -2  -9  108.73   42.93 
   3  -2  -7   93.22   36.81 
   3  -2  -7  209.10   82.54 
   3  -2  -5    1.97    0.79 
   3  -2  -5    1.07    0.47 
  -3   2   3    0.43    0.20 
   3  -2  -3    0.31    0.20 
  -3   2   1   47.29   18.67 
   3  -2  -1   47.57   18.78 
  -3   2  -1   45.34   17.90 
   3  -2   1   39.25   15.51 
  -3   2  -3    0.29    0.21 
   3  -2   3    0.26    0.23 
  -3   2  -5    1.09    0.51 
   3  -2   5    1.19    0.56 
   3  -2   7   99.55   39.32 
  -3   2  -9   56.21   22.22 
   3  -2   9   56.53   22.35 
  -3   2 -11    1.41    0.66 
   3  -2  11    1.39    0.67 
  -3   2 -13    0.76    0.45 
   3  -2  13    0.79    0.46 
  -3   2 -15   10.16    4.12 
  -3   2 -17   16.07    6.42 
   3  -2  17   14.85    5.94 
  -3   2 -19    0.03    0.35 
   3  -2  19    0.03    0.21 
   3  -1 -20   16.97    6.85 
  -3   1  18    7.71    3.06 
   3  -1 -18    2.69    1.26 
  -3   1  16    0.74    0.31 
  -3   1  14   16.76    6.63 
   3  -1 -14   11.82    4.73 
  -3   1  12  125.01   49.34 
   3  -1 -12   83.31   32.92 
  -3   1  10   24.48    9.67 
   3  -1 -10   13.95    5.54 
  -3   1   8   23.09    9.13 
   3  -1  -8    7.11    2.83 
   3  -1  -6   91.91   36.36 
   3  -1  -6  161.98   64.08 
   3  -1  -4  159.71   63.26 
   3  -1  -4  225.06   89.18 
  -3   1   2   22.84    9.03 
   3  -1  -2   16.66    6.59 
  -3   1   0   23.12    9.14 
   3  -1   0   20.38    8.06 
  -3   1  -2   17.82    7.05 
   3  -1   2   17.32    6.86 
  -3   1  -4  117.10   46.20 
   3  -1   4  112.05   44.23 
  -3   1  -6   93.77   37.02 
   3  -1   6   93.36   36.85 
  -3   1  -8    7.67    3.08 
   3  -1   8    7.18    2.89 
  -3   1 -10   13.41    5.35 
   3  -1  10   12.00    4.80 
  -3   1 -12   85.77   33.89 
   3  -1  12   78.85   31.17 
  -3   1 -14   13.63    5.47 
   3  -1  14   11.10    4.44 
  -3   1 -16    0.69    0.54 
   3  -1  16    0.54    0.32 
  -3   1 -18    8.93    3.66 
  -3   1 -20   27.99   11.14 
   3  -1  20   16.28    6.47 
   3   0 -21   24.74    9.94 
   3   0 -19   36.39   14.47 
  -3   0  17   15.14    5.99 
   3   0 -17   20.92    8.33 
   3   0 -15   13.00    5.19 
  -3   0  13   87.40   34.50 
   3   0 -13  131.97   52.12 
  -3   0  11  176.72   69.76 
   3   0 -11  244.16   96.36 
  -3   0   9   12.55    4.96 
   3   0  -9   16.17    6.40 
  -3   0   7  138.20   54.71 
   3   0  -7  125.97   49.84 
  -3   0   1  218.83   86.36 
   3   0  -1  216.37   85.40 
  -3   0  -1  216.60   85.45 
   3   0   1  230.20   90.81 
  -3   0  -3  227.19   89.63 
   3   0   3  228.15   90.00 
  -3   0  -5  371.08  146.39 
   3   0   5  381.08  150.34 
  -3   0  -7   98.41   38.86 
  -3   0  -9   15.70    6.25 
   3   0   9   14.14    5.62 
  -3   0 -11  245.11   96.73 
   3   0  11  203.73   80.40 
  -3   0 -13  130.10   51.39 
   3   0  13   89.72   35.43 
  -3   0 -15   13.05    5.25 
  -3   0 -17   24.02    9.57 
   3   0  17   13.75    5.46 
  -3   0 -19   49.89   19.78 
   3   0  19   29.99   11.87 
   3   1 -20   13.57    5.52 
  -3  -1  18    3.49    1.40 
   3   1 -18    3.46    1.51 
  -3  -1  16    0.30    0.16 
  -3  -1  14    8.08    3.21 
   3   1 -14   13.45    5.36 
  -3  -1  12   64.67   25.54 
   3   1 -12   93.86   37.06 
  -3  -1  10   11.94    4.73 
   3   1 -10   14.03    5.56 
  -3  -1   8    7.87    3.13 
   3   1  -8    9.69    3.84 
  -3  -1   6   86.45   34.20 
   3   1  -6  125.06   49.43 
  -3  -1   4  201.68   79.76 
  -3  -1   4  145.25   57.48 
  -3  -1   2   14.74    5.83 
  -3  -1   2   22.80    9.01 
  -3  -1   0   19.99    7.90 
   3   1   0   21.17    8.36 
  -3  -1  -2   16.88    6.68 
   3   1   2   14.13    5.58 
  -3  -1  -4  118.60   46.79 
   3   1   4   96.32   38.00 
  -3  -1  -6   97.23   38.39 
   3   1   6   75.99   30.00 
  -3  -1  -8    8.90    3.58 
   3   1   8    6.67    2.66 
  -3  -1 -10   12.54    5.03 
   3   1  10    9.11    3.62 
  -3  -1 -12   91.50   36.17 
   3   1  12   56.94   22.49 
  -3  -1 -14   15.21    6.11 
   3   1  14    8.20    3.27 
  -3  -1 -16    0.85    0.64 
   3   1  16    0.35    0.19 
  -3  -1 -18    8.28    3.41 
  -3  -1 -20   29.22   11.65 
   3   1  20   17.81    7.06 
   3   2 -21   -0.09    0.75 
   3   2 -19    0.00    0.53 
  -3  -2  17    9.50    3.78 
   3   2 -17   15.18    6.07 
  -3  -2  15    7.85    3.15 
  -3  -2  13    0.65    0.37 
   3   2 -13    0.73    0.43 
  -3  -2  11    1.23    0.57 
   3   2 -11    1.51    0.66 
  -3  -2   9   56.75   22.43 
   3   2  -9   55.93   22.09 
  -3  -2   7  144.07   56.89 
   3   2  -7   92.50   36.51 
  -3  -2   5    1.26    0.54 
   3   2  -5    1.22    0.51 
  -3  -2   3    0.33    0.19 
  -3  -2   3    0.51    0.22 
  -3  -2   1   52.30   20.65 
  -3  -2   1   66.62   26.30 
  -3  -2  -1   42.19   16.66 
   3   2   1   66.12   26.10 
  -3  -2  -3    0.30    0.20 
   3   2   3    0.30    0.15 
  -3  -2  -5    1.01    0.46 
   3   2   5    0.90    0.38 
   3   2   7   88.13   34.78 
  -3  -2  -9   65.53   25.91 
   3   2   9   47.98   18.94 
  -3  -2 -11    1.75    0.84 
   3   2  11    1.19    0.50 
  -3  -2 -13    0.91    0.60 
   3   2  13    0.53    0.24 
  -3  -2 -15   11.97    4.86 
  -3  -2 -17   21.08    8.45 
   3   2  17   12.00    4.76 
  -3  -2 -19    0.03    0.51 
   3   2  19    0.00    0.08 
   3   3 -20    0.08    0.60 
  -3  -3  18   16.24    6.46 
   3   3 -18   14.33    5.75 
  -3  -3  16   48.39   19.15 
   3   3 -16   51.84   20.51 
  -3  -3  14    9.70    3.90 
  -3  -3  12    9.56    3.84 
   3   3 -12   10.67    4.26 
  -3  -3  10   77.49   30.61 
   3   3 -10   67.76   26.77 
  -3  -3   8  218.10   86.08 
   3   3  -8  139.20   54.93 
  -3  -3   6  214.10   84.49 
   3   3  -6  229.06   90.41 
  -3  -3   4    2.03    0.85 
   3   3  -4    2.46    1.00 
  -3  -3   2   42.97   16.97 
  -3  -3   2   27.03   10.69 
  -3  -3   0  371.35  146.52 
  -3  -3   0  309.96  122.28 
  -3  -3  -2   19.73    7.80 
   3   3   2   31.50   12.44 
  -3  -3  -4    2.58    1.05 
   3   3   4    3.33    1.33 
   3   3   6  172.53   68.08 
  -3  -3  -8  192.59   75.99 
   3   3   8  170.53   67.26 
  -3  -3 -10   93.82   37.07 
   3   3  10   69.49   27.43 
  -3  -3 -12   14.79    5.94 
   3   3  12    9.65    3.83 
  -3  -3 -14   14.27    5.75 
   3   3  14    8.60    3.42 
  -3  -3 -16   72.35   28.67 
   3   3  16   45.79   18.09 
  -3  -3 -18   28.99   11.58 
   3   3  18   21.66    8.57 
   3   4 -19   -0.06    0.52 
  -3  -4  17   39.00   15.47 
   3   4 -17   26.34   10.49 
  -3  -4  15   31.70   12.59 
   3   4 -15   21.34    8.48 
  -3  -4  13    3.80    1.60 
   3   4 -13    2.83    1.18 
   3   4 -11   23.18    9.17 
  -3  -4   9  156.66   61.85 
   3   4  -9   96.32   38.02 
  -3  -4   7  197.64   78.04 
   3   4  -7  163.94   64.71 
  -3  -4   5   97.27   38.40 
   3   4  -5  127.47   50.30 
  -3  -4   3    9.20    3.66 
   3   4  -3   13.10    5.19 
  -3  -4   1  201.68   79.58 
  -3  -4   1  307.46  121.28 
  -3  -4  -1  201.73   79.58 
  -3  -4  -1  227.79   89.86 
  -3  -4  -3   12.07    4.78 
  -3  -4  -5   74.26   29.31 
   3   4   5  152.57   60.21 
  -3  -4  -7  119.19   47.02 
   3   4   7  204.05   80.49 
  -3  -4  -9  146.07   57.66 
   3   4   9  178.63   70.49 
  -3  -4 -11   43.90   17.39 
   3   4  11   41.96   16.57 
  -3  -4 -13    5.26    2.21 
   3   4  13    5.40    2.15 
  -3  -4 -15   51.57   20.46 
   3   4  15   41.49   16.39 
  -3  -4 -17   68.03   26.97 
   3   4  17   59.66   23.56 
  -3  -4 -19    2.20    1.13 
  -3  -5  18    0.02    0.31 
   3   5 -18   -0.02    0.35 
  -3  -5  16    9.30    3.79 
   3   5 -16    6.48    2.62 
  -3  -5  14    0.90    0.61 
   3   5 -14    0.19    0.21 
  -3  -5  12    5.66    2.34 
   3   5 -12    2.74    1.13 
  -3  -5  10   11.41    4.57 
   3   5 -10   11.88    4.72 
   3   5  -6    4.47    1.80 
   3   5  -4   24.07    9.52 
  -3  -5   2    7.03    2.80 
  -3  -5   2    2.12    0.92 
  -3  -5   0  118.10   46.61 
  -3  -5  -2    3.85    1.57 
  -3  -5  -4   23.37    9.25 
   3   5   4   48.66   19.21 
  -3  -5  -6    2.34    0.97 
   3   5   6    7.87    3.13 
  -3  -5  -8   23.55    9.33 
   3   5   8   52.34   20.67 
  -3  -5 -10    9.71    3.89 
   3   5  10   17.95    7.10 
  -3  -5 -12    6.91    2.82 
   3   5  12    9.32    3.70 
  -3  -5 -14    1.75    0.91 
   3   5  14    2.08    0.85 
  -3  -5 -16   22.92    9.19 
   3   5  16   26.47   10.46 
  -3  -5 -18    0.01    0.52 
   3   5  18    0.05    0.08 
   3   6 -19    2.78    1.25 
  -3  -6  17    0.52    0.45 
   3   6 -17    0.06    0.22 
  -3  -6  15    3.77    1.66 
   3   6 -15    2.38    1.00 
  -3  -6  13   76.72   30.36 
   3   6 -13   46.79   18.50 
  -3  -6  11   56.12   22.23 
   3   6 -11   41.39   16.37 
  -3  -6   9   13.70    5.49 
   3   6  -9   15.51    6.16 
  -3  -6   7   23.77    9.44 
   3   6  -7   22.51    8.91 
  -3  -6   5  119.28   47.11 
   3   6  -5  144.66   57.07 
  -3  -6   3  105.59   41.68 
   3   6  -3  152.34   60.12 
  -3  -6   1  142.84   56.34 
  -3  -6   1   46.11   18.23 
  -3  -6  -1   63.94   25.26 
  -3  -6  -1   87.27   34.45 
  -3  -6  -3  216.87   85.58 
  -3  -6  -3  241.79   95.41 
  -3  -6  -5  189.40   74.76 
  -3  -6  -5  131.65   51.98 
  -3  -6  -7   17.83    7.07 
   3   6   7   50.25   19.84 
  -3  -6  -9   11.09    4.42 
   3   6   9   36.78   14.53 
  -3  -6 -11   43.17   17.09 
  -3  -6 -13   80.45   31.82 
   3   6  13  165.17   65.17 
  -3  -6 -15    8.18    3.38 
   3   6  15   15.74    6.24 
  -3  -6 -17    3.06    1.43 
  -3  -7  18    1.71    0.90 
   3   7 -18    1.51    0.77 
  -3  -7  14   26.29   10.48 
   3   7 -14   20.13    7.99 
  -3  -7  12   80.76   31.96 
   3   7 -12   59.25   23.42 
  -3  -7  10   23.47    9.37 
   3   7 -10   24.68    9.77 
  -3  -7   8    4.21    1.79 
   3   7  -8    5.77    2.32 
  -3  -7   6   71.03   28.09 
   3   7  -6   68.26   26.96 
  -3  -7   4  120.69   47.66 
   3   7  -4  163.21   64.39 
  -3  -7   2   40.11   15.86 
  -3  -7   2  233.06   91.95 
  -3  -7   0   10.70    4.27 
  -3  -7   0   28.96   11.46 
  -3  -7  -2   80.49   31.79 
  -3  -7  -2  104.09   41.10 
  -3  -7  -4  195.32   77.08 
  -3  -7  -4  234.38   92.50 
  -3  -7  -6   96.09   37.94 
  -3  -7  -6   56.39   22.27 
  -3  -7  -8    3.63    1.48 
  -3  -7  -8    7.72    3.10 
  -3  -7 -12   64.03   25.32 
   3   7  12  229.38   90.50 
  -3  -7 -14   34.38   13.66 
   3   7  14  111.23   43.91 
  -3  -7 -16    4.78    2.06 
   3   7  16   19.65    7.79 
  -3  -8  17    0.04    0.40 
   3   8 -17   -0.01    0.27 
  -3  -8  15    0.11    0.42 
   3   8 -15   -0.04    0.22 
   3   8 -13    5.23    2.13 
  -3  -8  11   14.13    5.70 
   3   8 -11   18.72    7.43 
  -3  -8   9    0.68    0.63 
   3   8  -9    0.78    0.40 
  -3  -8   7    1.14    0.73 
   3   8  -7    1.11    0.51 
  -3  -8   5   21.29    8.49 
   3   8  -5   23.94    9.49 
   3   8  -3   21.57    8.55 
  -3  -8   1    0.34    0.27 
  -3  -8   1    1.38    0.59 
  -3  -8  -1    0.42    0.28 
  -3  -8  -1    0.80    0.38 
  -3  -8  -3   34.02   13.47 
  -3  -8  -3   40.09   15.85 
  -3  -8  -5   33.38   13.22 
  -3  -8  -5   25.20    9.98 
  -3  -8  -7    0.89    0.44 
  -3  -8  -9    1.92    0.83 
  -3  -8  -9    0.93    0.45 
  -3  -8 -11   31.29   12.40 
  -3  -8 -11   15.77    6.28 
  -3  -8 -13   15.46    6.15 
  -3  -8 -13   10.31    4.16 
  -3  -9  16    2.64    1.24 
   3   9 -16   -0.26    0.45 
  -3  -9  14    0.40    0.62 
   3   9 -14   -0.02    0.29 
  -3  -9  12    0.34    0.61 
   3   9 -12    0.07    0.22 
  -3  -9  10    4.23    1.91 
   3   9  -8   48.34   19.11 
  -3  -9   6    4.89    2.12 
  -3  -9   4    0.14    0.46 
   3   9  -4    0.13    0.16 
  -3  -9   2    5.96    2.45 
  -3  -9   2   35.30   13.97 
  -3  -9   0   12.30    4.90 
  -3  -9   0   57.16   22.59 
  -3  -9  -2   16.58    6.58 
  -3  -9  -4    0.25    0.23 
  -3  -9  -6    3.89    1.59 
  -3  -9  -6    5.43    2.20 
  -3  -9  -8   41.33   16.35 
  -3  -9  -8   71.99   28.45 
  -3  -9 -10    9.14    3.66 
  -3  -9 -10    4.44    1.81 
  -3  -9 -12    0.63    0.41 
  -3  -9 -12    1.74    0.76 
  -3 -10  15    5.07    2.20 
   3  10 -15    1.33    0.79 
  -3 -10  13    1.70    1.02 
   3  10 -13    0.10    0.39 
  -3 -10  11    2.77    1.41 
   3  10 -11    2.64    1.14 
  -3 -10   9   43.65   17.39 
   3  10  -9   57.16   22.60 
  -3 -10   7   56.53   22.42 
   3  10  -7   61.44   24.28 
  -3 -10   5    9.02    3.71 
   3  10  -5    7.58    3.04 
  -3 -10   3   21.51    8.59 
  -3 -10   3  166.12   65.58 
  -3 -10   1  191.54   75.58 
  -3 -10   1   31.83   12.62 
  -3 -10  -1   29.94   11.86 
  -3 -10  -1  127.79   50.48 
  -3 -10  -3   47.57   18.82 
  -3 -10  -3   25.88   10.27 
  -3 -10  -5   10.00    4.00 
  -3 -10  -5    9.81    3.93 
  -3 -10  -7   53.43   21.12 
  -3 -10  -7   86.77   34.28 
  -3 -10  -9   54.75   21.65 
  -3 -10  -9   96.68   38.18 
   3  11 -12   -0.19    0.24 
  -3 -11  10   10.45    4.39 
   3  11 -10   12.66    5.07 
  -3 -11   8   18.30    7.41 
   3  11  -8   41.75   16.52 
  -3 -11   6    4.78    2.17 
   3  11  -6    5.38    2.18 
  -3 -11   4    0.52    0.65 
  -3 -11   4    4.06    1.67 
  -3 -11   2   12.33    4.98 
  -3 -11   2   66.30   26.21 
  -3 -11   0   23.24    9.24 
  -3 -11   0   97.27   38.41 
  -3 -11  -2   10.49    4.19 
  -3 -11  -2   29.04   11.51 
  -3 -11  -4    0.67    0.38 
  -3 -11  -4    0.39    0.30 
  -3 -11  -6    7.60    3.06 
  -3 -11  -6    6.60    2.68 
  -3 -12   5   34.96   13.85 
  -3 -12   3    6.75    2.86 
  -3 -12   3   52.52   20.78 
  -3 -12   1    0.18    0.23 
  -3 -12  -1    0.09    0.23 
   4 -12  -6    0.20    0.20 
   4 -12  -4   28.60   11.34 
  -4  12   2    0.46    0.34 
   4 -11 -13    0.10    0.39 
   4 -11 -11    0.26    0.33 
   4 -11 -11    0.29    0.55 
   4 -11  -9    9.12    3.67 
   4 -11  -9    5.54    2.37 
   4 -11  -7   24.71    9.80 
   4 -11  -7    8.50    3.52 
   4 -11  -5    0.03    0.10 
   4 -11  -5    0.07    0.57 
  -4  11   3    0.54    0.33 
   4 -11  -3    0.40    0.62 
  -4  11   1    9.16    3.68 
   4 -11  -1    2.67    1.32 
  -4  11  -1    4.96    2.03 
   4 -11   1    4.26    1.94 
  -4  11  -3    0.44    0.34 
   4 -11   3    0.86    0.74 
  -4  11  -5    0.01    0.20 
   4 -11   5    0.00    0.51 
   4 -10 -14    0.49    0.46 
   4 -10 -14    0.43    0.45 
   4 -10 -12    0.30    0.29 
   4 -10 -12    0.45    0.48 
   4 -10 -10    4.66    1.91 
   4 -10 -10    3.40    1.49 
   4 -10  -8   76.40   30.18 
   4 -10  -8   31.19   12.41 
   4 -10  -6    0.59    0.58 
   4 -10  -6    2.42    1.01 
  -4  10   4    5.17    2.10 
   4 -10  -4    5.69    2.42 
  -4  10   2   10.17    4.07 
   4 -10  -2    7.86    3.25 
  -4  10   0   21.87    8.68 
   4 -10   0   10.53    4.30 
  -4  10  -2    7.83    3.15 
   4 -10   2    7.94    3.29 
  -4  10  -4    4.38    1.79 
   4 -10   4    4.75    2.05 
  -4  10  -6    0.50    0.32 
   4 -10   6    0.61    0.64 
  -4  10  -8   21.41    8.49 
   4 -10   8   27.86   11.14 
   4  -9 -15    0.84    0.58 
   4  -9 -15    0.68    0.43 
   4  -9 -13    0.67    0.40 
   4  -9 -13    0.62    0.44 
   4  -9 -11    2.20    1.00 
   4  -9  -9   28.30   11.21 
   4  -9  -7   22.45    8.90 
   4  -9  -7    6.82    2.80 
  -4   9   5   17.59    7.00 
   4  -9  -5   15.26    6.13 
  -4   9   3    0.35    0.27 
   4  -9  -3    0.25    0.44 
  -4   9   1    5.87    2.38 
   4  -9  -1    2.92    1.41 
  -4   9  -1    5.88    2.38 
   4  -9   3    0.40    0.52 
  -4   9  -5    9.82    3.92 
   4  -9   5   14.40    5.80 
  -4   9  -7    4.48    1.83 
   4  -9   7    5.91    2.49 
  -4   9  -9   12.78    5.11 
   4  -9   9   10.69    4.36 
  -4   9 -11    2.02    0.91 
   4  -9  11    1.92    0.99 
   4  -8 -16    0.41    0.60 
   4  -8 -16    0.05    0.28 
   4  -8 -14    0.11    0.28 
   4  -8 -14   -0.01    0.24 
   4  -8 -12   16.63    6.61 
   4  -8 -12   14.75    5.87 
   4  -8 -10    0.56    0.30 
   4  -8 -10    0.65    0.41 
   4  -8  -8    8.70    3.51 
   4  -8  -8   23.60    9.35 
   4  -8  -6   24.84    9.83 
   4  -8  -6    4.87    2.03 
  -4   8   4   17.96    7.13 
   4  -8  -4   14.50    5.81 
  -4   8   2    0.91    0.45 
   4  -8  -2    0.54    0.48 
  -4   8   0    3.78    1.55 
   4  -8   0    1.06    0.61 
  -4   8  -2    1.00    0.48 
   4  -8   2    0.58    0.52 
  -4   8  -4    8.84    3.53 
   4  -8   4   14.39    5.78 
   4  -8   6    4.92    2.10 
  -4   8  -8    8.58    3.46 
   4  -8   8    8.09    3.33 
  -4   8 -10    0.59    0.45 
   4  -8  10    0.63    0.54 
  -4   8 -12   20.54    8.18 
   4  -8  12   19.29    7.73 
   4  -7 -17   -0.02    0.23 
   4  -7 -17    0.04    0.61 
   4  -7 -15    0.66    0.57 
   4  -7 -15    0.22    0.24 
   4  -7 -13    7.70    3.10 
   4  -7 -13    5.43    2.19 
   4  -7 -11   20.95    8.30 
   4  -7 -11   17.21    6.83 
   4  -7  -9    0.44    0.32 
   4  -7  -9    0.41    0.23 
   4  -7  -7    0.07    0.11 
   4  -7  -7    0.06    0.28 
  -4   7   5   15.48    6.15 
   4  -7  -5   12.85    5.14 
  -4   7   3   21.25    8.42 
   4  -7  -3   18.18    7.25 
  -4   7   1    2.12    0.90 
   4  -7  -1    1.28    0.64 
  -4   7  -1    1.61    0.70 
   4  -7   1    1.76    0.84 
  -4   7  -3   10.01    3.99 
   4  -7   3   17.90    7.14 
  -4   7  -5    9.29    3.73 
   4  -7   5   12.77    5.13 
  -4   7  -7    0.09    0.32 
   4  -7   7    0.03    0.36 
  -4   7  -9    0.39    0.47 
   4  -7   9    0.40    0.48 
  -4   7 -11   28.28   11.23 
   4  -7  11   23.90    9.54 
  -4   7 -13   13.62    5.47 
   4  -7  13    9.25    3.78 
  -4   7 -15    2.25    1.06 
   4  -6 -18   -0.17    0.73 
   4  -6 -18    0.02    0.20 
   4  -6 -16    0.57    0.71 
   4  -6 -16    1.26    0.58 
   4  -6 -14    4.62    1.94 
   4  -6 -14    4.09    1.66 
   4  -6 -12   10.36    4.13 
   4  -6 -12    8.20    3.28 
   4  -6 -10    2.86    1.17 
   4  -6 -10    1.93    0.81 
   4  -6  -8    0.65    0.30 
   4  -6  -8    0.34    0.27 
   4  -6  -6    5.43    2.17 
   4  -6  -6    2.04    0.90 
  -4   6   4  111.01   43.82 
  -4   6   2    7.09    2.84 
   4  -6  -2    7.59    3.07 
   4  -6   0   15.89    6.33 
  -4   6  -2    5.06    2.06 
   4  -6   2    7.19    2.92 
  -4   6  -4   63.76   25.21 
   4  -6   4   80.45   31.80 
  -4   6  -6    2.68    1.17 
   4  -6   6    2.19    1.00 
  -4   6  -8    0.40    0.40 
   4  -6   8    0.37    0.40 
  -4   6 -10    4.03    1.70 
  -4   6 -12   17.64    7.04 
   4  -6  12   13.32    5.37 
  -4   6 -14    8.17    3.31 
   4  -6  14    5.58    2.36 
  -4   6 -16    5.13    2.14 
   4  -6  16    1.01    0.69 
   4  -5 -17    6.68    2.68 
   4  -5 -17    1.53    1.17 
   4  -5 -15    0.18    0.56 
   4  -5 -15    0.43    0.25 
   4  -5 -13    7.44    3.03 
   4  -5 -13    6.14    2.46 
   4  -5  -9    9.61    3.82 
   4  -5  -7   12.97    5.16 
   4  -5  -7   39.30   15.53 
  -4   5   5   10.50    4.17 
   4  -5  -5   10.49    4.19 
  -4   5   3   69.49   27.45 
   4  -5  -3   59.25   23.42 
  -4   5   1   37.85   14.96 
   4  -5   1   52.48   20.76 
  -4   5  -3   49.52   19.58 
   4  -5   3   49.70   19.67 
  -4   5  -5   10.96    4.39 
   4  -5   5    8.53    3.44 
  -4   5  -7   14.75    5.88 
   4  -5   7   13.50    5.40 
  -4   5  -9   10.41    4.18 
   4  -5   9    8.17    3.31 
  -4   5 -11    1.19    0.60 
  -4   5 -13   10.01    4.03 
   4  -5  13    6.99    2.88 
  -4   5 -15    0.92    0.53 
   4  -5  15    0.55    0.52 
  -4   5 -17   12.22    4.92 
   4  -4 -18    0.91    0.95 
   4  -4 -16    8.90    3.73 
   4  -4 -16   22.07    8.74 
   4  -4 -14    0.08    0.51 
   4  -4 -12    0.15    0.26 
   4  -4 -12    0.20    0.17 
   4  -4 -10   36.50   14.43 
   4  -4 -10   30.32   11.99 
   4  -4  -8   63.39   25.03 
   4  -4  -8   45.93   18.15 
   4  -4  -6   59.16   23.36 
   4  -4  -6   17.04    6.76 
  -4   4   4   13.58    5.38 
   4  -4  -4   11.10    4.42 
  -4   4   2    0.36    0.23 
   4  -4  -2    0.74    0.40 
  -4   4   0  149.02   58.80 
   4  -4   0  199.14   78.58 
  -4   4  -2    0.57    0.36 
  -4   4  -4    9.87    3.94 
   4  -4   4    8.05    3.24 
  -4   4  -6   15.93    6.33 
   4  -4   6   13.73    5.48 
  -4   4  -8   51.11   20.21 
   4  -4   8   42.44   16.80 
  -4   4 -10   37.21   14.73 
   4  -4  10   30.72   12.19 
  -4   4 -12    0.31    0.33 
  -4   4 -14    0.07    0.30 
   4  -4  14    0.05    0.37 
  -4   4 -16   22.56    8.98 
   4  -4  16   21.51    8.61 
  -4   4 -18    5.25    2.19 
   4  -3 -19   -0.11    0.69 
   4  -3 -17   10.28    4.09 
   4  -3 -15   31.79   12.58 
   4  -3 -15   14.61    5.89 
   4  -3 -13    0.35    0.20 
   4  -3 -13    0.36    0.39 
   4  -3 -11    0.05    0.23 
   4  -3 -11    0.11    0.13 
   4  -3  -9   27.45   10.86 
   4  -3  -9   27.61   10.92 
   4  -3  -7   70.85   27.99 
   4  -3  -7   52.66   20.81 
   4  -3  -5    7.87    3.14 
  -4   3   3    4.20    1.68 
   4  -3  -3    4.63    1.87 
   4  -3  -1   23.60    9.35 
  -4   3  -1   20.25    8.02 
   4  -3   1   17.52    6.95 
  -4   3  -3    3.68    1.50 
   4  -3   3    3.06    1.27 
  -4   3  -5    5.82    2.35 
   4  -3   5    4.97    2.03 
  -4   3  -7   51.98   20.54 
   4  -3   7   43.80   17.34 
  -4   3  -9   31.70   12.56 
   4  -3   9   28.26   11.21 
  -4   3 -11    0.05    0.26 
   4  -3  11    0.04    0.28 
  -4   3 -13    0.42    0.37 
  -4   3 -15   21.23    8.45 
   4  -3  15   19.79    7.91 
  -4   3 -17   16.61    6.64 
   4  -3  17   14.24    5.72 
   4  -2 -18    0.00    0.12 
   4  -2 -16   19.35    7.72 
   4  -2 -16   16.76    6.64 
   4  -2 -14    2.20    0.91 
   4  -2 -14    0.60    0.47 
   4  -2 -12   11.30    4.51 
   4  -2 -12   22.22    8.80 
   4  -2 -10    0.17    0.22 
   4  -2 -10    0.23    0.15 
   4  -2  -8   45.03   17.82 
   4  -2  -8   48.07   19.01 
   4  -2  -6   11.21    4.45 
   4  -2  -6    8.59    3.40 
  -4   2   4   17.15    6.78 
   4  -2  -4    9.41    3.74 
  -4   2   2    3.43    1.38 
   4  -2  -2    3.92    1.58 
  -4   2   0    3.01    1.23 
   4  -2   0    2.46    1.02 
  -4   2  -2    4.05    1.64 
   4  -2   2    3.37    1.38 
  -4   2  -4    7.88    3.15 
   4  -2   4    6.98    2.81 
  -4   2  -6    8.13    3.26 
   4  -2   6    8.06    3.24 
  -4   2  -8   40.18   15.90 
   4  -2   8   38.88   15.39 
  -4   2 -10    0.09    0.29 
   4  -2  10    0.20    0.29 
  -4   2 -12    9.15    3.69 
   4  -2  12    9.09    3.67 
   4  -2  14    1.42    0.69 
  -4   2 -16   23.52    9.36 
   4  -2  16   23.36    9.29 
  -4   2 -18    0.10    0.37 
   4  -2  18    0.05    0.23 
   4  -1 -19    1.08    0.72 
   4  -1 -17    0.40    0.41 
  -4   1  15    1.73    0.70 
   4  -1 -15    0.65    0.43 
  -4   1  13   37.04   14.64 
   4  -1 -13   15.15    6.02 
   4  -1 -11   39.48   15.62 
   4  -1 -11   66.80   26.42 
  -4   1   3   14.95    5.92 
   4  -1  -3   15.22    6.03 
  -4   1   1    2.58    1.05 
   4  -1  -1    1.96    0.81 
  -4   1  -1    2.07    0.86 
   4  -1   1    2.07    0.86 
  -4   1  -3   16.18    6.42 
   4  -1   3   16.41    6.51 
  -4   1  -5   93.09   36.76 
  -4   1  -7    2.04    0.89 
   4  -1   7    1.89    0.83 
  -4   1  -9    6.57    2.67 
   4  -1   9    5.76    2.34 
  -4   1 -11   35.75   14.18 
   4  -1  11   31.24   12.38 
  -4   1 -13   11.59    4.67 
   4  -1  13    9.80    3.93 
  -4   1 -15    0.71    0.56 
   4  -1  15    0.64    0.36 
  -4   1 -17    0.65    0.57 
   4  -1  17    0.53    0.31 
  -4   1 -19    2.33    1.10 
   4   0 -16    1.22    0.60 
  -4   0  14    5.09    2.02 
   4   0 -14    4.18    1.70 
  -4   0  12  112.69   44.54 
   4   0 -12   73.49   29.06 
   4   0 -10    6.05    2.41 
  -4   0   2    1.71    0.70 
   4   0  -2    2.22    0.88 
  -4   0   0   61.03   24.10 
   4   0   0   50.30   19.86 
  -4   0  -2    2.47    1.04 
   4   0   2    2.31    0.94 
  -4   0  -4  243.97   96.27 
   4   0   4  231.38   91.27 
   4   0   6  105.41   41.61 
  -4   0  -8   11.20    4.49 
   4   0   8    9.57    3.82 
  -4   0 -10    7.92    3.23 
   4   0  10    6.44    2.59 
  -4   0 -12   69.21   27.38 
   4   0  12   46.29   18.30 
  -4   0 -14    3.99    1.71 
  -4   0 -16    2.94    1.32 
   4   0  16    1.55    0.67 
  -4   0 -18    0.11    0.51 
   4   0  18    0.06    0.13 
   4   1 -19    1.28    0.79 
   4   1 -17    0.44    0.43 
  -4  -1  15    0.52    0.23 
   4   1 -15    0.62    0.42 
  -4  -1  13    8.10    3.21 
   4   1 -13   11.50    4.57 
  -4  -1  11   24.64    9.75 
   4   1 -11   27.17   10.76 
  -4  -1   9    5.01    1.99 
   4   1  -9    9.22    3.67 
  -4  -1   3   14.55    5.76 
  -4  -1   3   27.56   10.90 
  -4  -1   1    2.02    0.84 
   4   1  -1    2.52    1.00 
  -4  -1  -1    2.20    0.92 
   4   1   1    1.58    0.64 
  -4  -1  -3   16.92    6.72 
   4   1   3   11.91    4.71 
  -4  -1  -5   95.32   37.64 
  -4  -1  -7    2.30    1.01 
   4   1   7    1.80    0.74 
  -4  -1  -9    7.13    2.91 
   4   1   9    4.65    1.86 
  -4  -1 -11   38.68   15.35 
   4   1  11   21.89    8.66 
  -4  -1 -13   13.49    5.44 
   4   1  13    7.31    2.91 
  -4  -1 -15    0.96    0.69 
   4   1  15    0.49    0.24 
  -4  -1 -17    0.95    0.71 
   4   1  17    0.44    0.23 
  -4  -1 -19    3.20    1.45 
   4   2 -18    0.04    0.34 
  -4  -2  16   14.10    5.60 
   4   2 -16   14.72    5.86 
  -4  -2  14    1.01    0.44 
   4   2 -14    0.72    0.38 
  -4  -2  12    9.13    3.63 
   4   2 -12    5.48    2.19 
  -4  -2  10    0.22    0.23 
   4   2 -10    0.09    0.11 
  -4  -2   8   41.31   16.34 
   4   2  -8   67.35   26.61 
  -4  -2   6   25.71   10.16 
  -4  -2   6    8.74    3.47 
  -4  -2   4    8.28    3.28 
  -4  -2   4    9.79    3.87 
  -4  -2   2    3.58    1.43 
  -4  -2   2    7.75    3.08 
  -4  -2   0    2.81    1.14 
   4   2   0    3.48    1.39 
  -4  -2  -2    4.20    1.70 
   4   2   2    3.98    1.58 
  -4  -2  -4    8.34    3.34 
   4   2   4    6.18    2.45 
  -4  -2  -6   11.11    4.45 
   4   2   6    7.34    2.91 
  -4  -2  -8   48.89   19.35 
   4   2   8   30.61   12.09 
  -4  -2 -10    0.25    0.41 
   4   2  10    0.20    0.13 
  -4  -2 -12   12.27    4.96 
   4   2  12    6.67    2.65 
   4   2  14    0.94    0.40 
  -4  -2 -16   34.62   13.79 
   4   2  16   17.80    7.05 
  -4  -2 -18    0.14    0.54 
   4   2  18    0.08    0.10 
   4   3 -19   -0.14    0.39 
   4   3 -17    2.63    1.14 
   4   3 -15    8.36    3.34 
  -4  -3  13    0.40    0.35 
   4   3 -13    0.09    0.16 
  -4  -3  11    0.07    0.27 
   4   3 -11    0.04    0.12 
  -4  -3   9   30.38   12.03 
   4   3  -9   42.55   16.81 
  -4  -3   7   55.53   21.94 
   4   3  -7   76.17   30.08 
  -4  -3   5   21.71    8.58 
  -4  -3   5    6.02    2.41 
  -4  -3   3    4.75    1.91 
  -4  -3   3    6.09    2.42 
  -4  -3   1   31.15   12.32 
  -4  -3   1   21.76    8.60 
  -4  -3  -1   18.46    7.30 
   4   3   1   31.47   12.43 
  -4  -3  -3    2.95    1.20 
  -4  -3  -5    5.93    2.39 
   4   3   5    5.91    2.35 
  -4  -3  -7   57.71   22.82 
   4   3   7   42.67   16.84 
  -4  -3  -9   37.97   15.06 
   4   3   9   25.50   10.08 
  -4  -3 -11    0.03    0.39 
   4   3  11    0.07    0.07 
  -4  -3 -13    0.53    0.55 
  -4  -3 -15   27.56   11.01 
   4   3  15   15.33    6.07 
  -4  -3 -17   19.75    7.95 
   4   3  17   13.03    5.17 
   4   4 -18    0.09    0.26 
   4   4 -16    6.50    2.62 
  -4  -4  14    0.02    0.34 
  -4  -4  12    0.19    0.34 
   4   4 -12    0.08    0.15 
  -4  -4  10   42.00   16.64 
   4   4 -10   49.80   19.67 
  -4  -4   8   44.98   17.79 
   4   4  -8   71.40   28.20 
  -4  -4   6   18.40    7.30 
   4   4  -6   19.42    7.69 
  -4  -4   4   30.46   12.04 
  -4  -4   4    6.91    2.76 
  -4  -4   2    0.64    0.33 
  -4  -4   2    0.90    0.39 
  -4  -4   0  217.92   85.99 
  -4  -4   0  365.76  144.29 
  -4  -4  -2    0.60    0.30 
  -4  -4  -4    8.75    3.49 
   4   4   4   15.97    6.32 
  -4  -4  -6   13.54    5.39 
   4   4   6   20.01    7.91 
  -4  -4  -8   53.07   21.00 
   4   4   8   55.93   22.07 
  -4  -4 -10   42.24   16.75 
   4   4  10   37.16   14.68 
  -4  -4 -12    0.32    0.44 
  -4  -4 -14    0.06    0.50 
   4   4  14    0.08    0.08 
  -4  -4 -16   27.56   11.03 
   4   4  16   21.26    8.41 
  -4  -4 -18    5.38    2.33 
   4   5 -17    2.11    0.91 
  -4  -5  15    0.18    0.38 
   4   5 -15    0.06    0.18 
  -4  -5  13    5.47    2.28 
   4   5 -13    5.04    2.04 
  -4  -5  11    0.65    0.55 
   4   5  -9   10.66    4.24 
   4   5  -7   20.01    7.93 
  -4  -5   5   21.04    8.33 
  -4  -5   3  168.08   66.30 
  -4  -5  -1   97.18   38.37 
  -4  -5  -1   64.62   25.52 
  -4  -5  -3   54.21   21.42 
  -4  -5  -3   82.67   32.66 
  -4  -5  -5    9.16    3.65 
   4   5   5   14.25    5.64 
  -4  -5  -7   11.76    4.69 
   4   5   7   25.38   10.03 
  -4  -5  -9    8.36    3.38 
   4   5   9   12.06    4.77 
  -4  -5 -11    0.81    0.52 
  -4  -5 -13   10.06    4.11 
   4   5  13   11.43    4.53 
  -4  -5 -15    0.89    0.74 
   4   5  15    0.99    0.42 
  -4  -5 -17   10.59    4.36 
   4   6 -18   -0.13    0.28 
   4   6 -16    0.25    0.27 
  -4  -6  14    3.05    1.38 
   4   6 -14    3.31    1.37 
  -4  -6  12   14.55    5.88 
   4   6 -12   12.22    4.87 
  -4  -6  10    2.23    1.09 
   4   6 -10    3.30    1.35 
  -4  -6   8    0.27    0.40 
   4   6  -8    0.52    0.28 
  -4  -6   6    2.88    1.26 
   4   6  -6    2.07    0.87 
  -4  -6   4   71.90   28.40 
  -4  -6   4  357.21  140.93 
  -4  -6   2   18.15    7.19 
  -4  -6   2    6.03    2.43 
  -4  -6   0   29.75   11.78 
  -4  -6   0   28.64   11.33 
  -4  -6  -2   10.14    4.05 
  -4  -6  -2    8.99    3.58 
  -4  -6  -4  126.79   50.07 
  -4  -6  -4   76.90   30.36 
  -4  -6  -6    2.25    0.95 
   4   6   6    2.88    1.16 
  -4  -6  -8    0.24    0.25 
   4   6   8    0.94    0.40 
   4   6  10    6.93    2.76 
  -4  -6 -12   16.90    6.77 
   4   6  12   28.56   11.29 
  -4  -6 -14    7.22    3.02 
   4   6  14   12.72    5.04 
  -4  -6 -16    3.82    1.74 
  -4  -7  15    0.32    0.45 
   4   7 -15   -0.04    0.23 
  -4  -7  13    6.02    2.56 
   4   7 -13    5.87    2.37 
  -4  -7  11   19.82    7.94 
   4   7 -11   25.27   10.01 
  -4  -7   9    0.16    0.54 
   4   7  -9    0.41    0.26 
  -4  -7   7    0.02    0.50 
   4   7  -7    0.04    0.15 
  -4  -7   5   10.55    4.24 
  -4  -7   5   63.21   24.97 
  -4  -7   3   11.41    4.55 
  -4  -7   3   62.21   24.58 
  -4  -7   1    2.20    0.94 
  -4  -7   1    3.44    1.40 
  -4  -7  -1    3.18    1.32 
  -4  -7  -1    2.14    0.89 
  -4  -7  -3   27.55   10.92 
  -4  -7  -3   18.58    7.37 
  -4  -7  -5   20.93    8.31 
  -4  -7  -5   12.21    4.86 
  -4  -7  -7    0.01    0.19 
  -4  -7  -7    0.03    0.17 
  -4  -7  -9    0.08    0.24 
   4   7   9    2.17    0.88 
  -4  -7 -11   22.87    9.10 
   4   7  11   81.08   32.01 
  -4  -7 -13   11.50    4.66 
   4   7  13   31.60   12.49 
  -4  -7 -15    1.47    0.87 
   4   8 -16   -0.29    0.32 
  -4  -8  12    9.85    4.06 
   4   8 -12   13.55    5.40 
  -4  -8  10    0.29    0.60 
   4   8 -10    0.50    0.30 
  -4  -8   8   10.62    4.32 
   4   8  -8   11.20    4.46 
  -4  -8   6    6.03    2.52 
   4   8  -6    5.39    2.18 
  -4  -8   4   62.98   24.88 
  -4  -8   4   11.32    4.55 
  -4  -8   2    0.56    0.35 
  -4  -8   2    1.58    0.68 
  -4  -8  -2    1.11    0.52 
  -4  -8  -2    0.56    0.31 
  -4  -8  -4   20.71    8.22 
  -4  -8  -4   13.72    5.46 
  -4  -8  -6    8.67    3.48 
  -4  -8  -8   17.02    6.77 
  -4  -8  -8    8.29    3.33 
  -4  -8 -10    1.09    0.51 
  -4  -8 -10    0.29    0.31 
  -4  -8 -12   31.51   12.48 
  -4  -8 -12   17.65    7.06 
   4   9 -15   -0.33    0.36 
  -4  -9  13    0.22    0.57 
   4   9 -13   -0.08    0.30 
  -4  -9  11    0.79    0.74 
   4   9 -11    1.05    0.52 
   4   9  -9   13.45    5.37 
   4   9  -7    5.55    2.24 
  -4  -9   5   11.68    4.72 
  -4  -9   5   87.77   34.66 
  -4  -9   3    0.31    0.42 
  -4  -9   3    1.13    0.52 
  -4  -9   1   16.22    6.45 
  -4  -9  -1    8.69    3.50 
  -4  -9  -3    0.34    0.26 
  -4  -9  -3    0.20    0.23 
  -4  -9  -5   12.79    5.10 
  -4  -9  -5   21.15    8.39 
  -4  -9  -7    6.55    2.65 
  -4  -9  -7   10.63    4.25 
  -4  -9  -9   12.45    4.98 
  -4  -9  -9   26.88   10.66 
  -4  -9 -11    1.32    0.67 
  -4  -9 -11    4.13    1.70 
   4  10 -14   -0.10    0.31 
  -4 -10  12    0.04    0.51 
   4  10 -12   -0.02    0.26 
  -4 -10  10    1.85    1.11 
   4  10 -10    2.29    1.00 
  -4 -10   8   19.76    7.97 
   4  10  -8   24.28    9.63 
  -4 -10   6    0.62    0.73 
  -4 -10   6    3.27    1.35 
  -4 -10   4   23.46    9.30 
  -4 -10   4    4.14    1.79 
  -4 -10   2    7.00    2.86 
  -4 -10   2   23.36    9.27 
  -4 -10   0   48.48   19.18 
  -4 -10   0   15.48    6.16 
  -4 -10  -2    8.04    3.24 
  -4 -10  -2   10.52    4.21 
  -4 -10  -4    5.98    2.42 
  -4 -10  -4    4.71    1.93 
  -4 -10  -6    0.55    0.38 
  -4 -10  -6    1.20    0.57 
  -4 -10  -8   49.25   19.48 
  -4 -10  -8   25.54   10.15 
  -4 -11  11    0.05    0.63 
   4  11 -11    0.01    0.22 
  -4 -11   9    2.04    1.20 
   4  11  -9    3.12    1.34 
  -4 -11   7    4.90    2.21 
  -4 -11   7   65.67   25.97 
  -4 -11   5    0.08    0.14 
  -4 -11   5    0.05    0.64 
  -4 -11   3    2.95    1.25 
  -4 -11   3    0.41    0.55 
  -4 -11   1    6.42    2.64 
  -4 -11   1   18.59    7.40 
  -4 -11  -1    5.22    2.12 
  -4 -11  -1   12.52    5.02 
  -4 -11  -3    0.47    0.32 
  -4 -11  -3    0.93    0.51 
  -4 -11  -5    0.09    0.27 
  -4 -11  -5    0.02    0.19 
   5 -11 -10   10.43    4.37 
   5 -11 -10   12.23    4.93 
   5 -11  -8    0.91    0.84 
   5 -11  -8    1.83    0.82 
   5 -11  -6    7.46    3.18 
   5 -11  -6   33.24   13.17 
  -5  11   4   25.40   10.09 
   5 -11  -4    9.35    3.89 
  -5  11   2   12.50    5.00 
   5 -11  -2    3.57    1.65 
  -5  11   0    0.03    0.23 
   5 -11   0    0.18    0.57 
  -5  11  -2   11.96    4.79 
   5 -11   2    9.59    3.98 
  -5  11  -4   25.29   10.05 
   5 -10 -11   21.56    8.58 
   5 -10 -11   36.91   14.73 
   5 -10  -9    4.17    1.72 
   5 -10  -9    3.25    1.56 
   5 -10  -7   23.65    9.39 
   5 -10  -7    6.80    2.87 
   5 -10  -5   42.88   17.06 
  -5  10   3   47.79   18.91 
   5 -10  -3   18.54    7.45 
  -5  10   1    2.20    0.95 
   5 -10  -1    3.40    1.56 
  -5  10  -1    3.51    1.46 
   5 -10   1    3.38    1.56 
  -5  10  -3   31.38   12.43 
   5 -10   3   38.03   15.13 
  -5  10  -5   28.36   11.24 
   5 -10   5   29.64   11.83 
  -5  10  -7    4.25    1.74 
   5 -10   7    3.17    1.47 
   5  -9 -12   20.92    8.41 
   5  -9 -10    0.98    0.48 
   5  -9  -8    9.75    3.90 
   5  -9  -8    3.88    1.74 
   5  -9  -6   28.11   11.13 
   5  -9  -6    5.81    2.46 
  -5   9   4   19.97    7.93 
   5  -9  -4    9.10    3.77 
  -5   9   2    0.14    0.22 
   5  -9   0    0.90    0.65 
  -5   9  -2    0.14    0.22 
   5  -9   2    0.21    0.44 
  -5   9  -4   11.22    4.47 
   5  -9   4   13.95    5.64 
  -5   9  -6    3.44    1.42 
   5  -9   6    4.12    1.81 
  -5   9  -8    2.71    1.18 
   5  -9   8    2.31    1.11 
  -5   9 -10    0.98    0.57 
   5  -8 -13    0.29    0.45 
   5  -8 -13    0.22    0.27 
   5  -8 -11   -0.01    0.18 
   5  -8 -11    0.02    0.39 
   5  -8  -9   38.68   15.30 
   5  -8  -9   27.58   10.97 
   5  -8  -7   17.14    6.86 
   5  -8  -7   56.34   22.27 
  -5   8   5    3.06    1.26 
   5  -8  -5    3.13    1.38 
  -5   8   3    4.67    1.90 
   5  -8  -3    2.58    1.17 
  -5   8   1   34.96   13.84 
   5  -8  -1   33.57   13.35 
  -5   8  -1   25.98   10.30 
   5  -8   1   32.39   12.88 
  -5   8  -3    2.75    1.16 
   5  -8   5    2.38    1.12 
  -5   8  -7   11.02    4.42 
   5  -8   7   10.19    4.13 
  -5   8  -9   20.26    8.08 
   5  -8   9   19.32    7.73 
  -5   8 -11    0.06    0.40 
   5  -8  11    0.00    0.40 
   5  -7 -14    8.86    3.62 
   5  -7 -14   10.99    4.42 
   5  -7 -12    0.77    0.40 
   5  -7 -12    0.85    0.52 
   5  -7 -10   20.40    8.08 
   5  -7 -10   19.86    7.91 
   5  -7  -8  127.74   50.43 
   5  -7  -8   67.49   26.70 
   5  -7  -6   80.31   31.72 
   5  -7  -6   18.45    7.36 
  -5   7   4   14.05    5.58 
   5  -7  -4    8.10    3.28 
  -5   7   2   61.53   24.31 
   5  -7  -2   52.80   20.89 
  -5   7   0   85.49   33.77 
   5  -7   0  108.32   42.82 
  -5   7  -2   30.72   12.16 
   5  -7   2   52.57   20.83 
   5  -7   4    9.20    3.73 
  -5   7  -6   14.18    5.68 
  -5   7  -8   61.07   24.17 
   5  -7   8   49.39   19.58 
  -5   7 -10   24.29    9.67 
   5  -7  10   16.19    6.49 
  -5   7 -12    1.76    0.92 
   5  -7  12    0.99    0.62 
   5  -6 -15    8.15    3.43 
   5  -6 -13    2.11    0.95 
   5  -6 -13    2.87    1.21 
   5  -6 -11    2.33    1.02 
   5  -6 -11    1.73    0.73 
   5  -6  -9   43.46   17.22 
   5  -6  -7   41.03   16.25 
  -5   6   5   12.02    4.77 
   5  -6  -5    8.80    3.54 
  -5   6   3    1.98    0.84 
   5  -6  -3    1.53    0.72 
  -5   6   1   85.22   33.66 
  -5   6  -1   61.57   24.33 
   5  -6   1   97.45   38.51 
  -5   6  -3    1.18    0.59 
   5  -6   3    1.46    0.73 
  -5   6  -5    8.91    3.60 
   5  -6   5    7.01    2.86 
  -5   6  -7   38.80   15.38 
   5  -6   7   26.56   10.56 
   5  -6   9   25.95   10.32 
  -5   6 -11    3.57    1.53 
   5  -6  11    2.19    1.02 
  -5   6 -13    5.84    2.43 
   5  -6  13    2.81    1.27 
  -5   6 -15   36.30   14.42 
   5  -5 -14    0.67    0.59 
   5  -5 -12    5.85    2.38 
   5  -5 -12    6.11    2.47 
   5  -5 -10    0.56    0.27 
   5  -5 -10    0.84    0.47 
   5  -5  -8    1.80    0.82 
   5  -5  -8    2.02    0.83 
   5  -5  -6    0.56    0.38 
   5  -5  -6    0.73    0.32 
  -5   5   4   61.21   24.17 
   5  -5  -4   54.34   21.49 
  -5   5   2    4.62    1.86 
   5  -5  -2    4.42    1.84 
  -5   5   0   25.97   10.29 
   5  -5   0   29.56   11.72 
  -5   5  -2    3.87    1.60 
   5  -5   2    5.28    2.16 
  -5   5  -4   51.43   20.35 
   5  -5   4   42.23   16.73 
  -5   5  -6    0.27    0.33 
   5  -5   6    0.40    0.36 
  -5   5  -8    1.38    0.69 
   5  -5   8    0.97    0.54 
  -5   5 -10    0.97    0.61 
   5  -5  10    0.78    0.52 
  -5   5 -12   10.70    4.32 
   5  -5  12    6.73    2.77 
  -5   5 -14    2.54    1.15 
   5  -5  14    1.84    0.91 
  -5   5 -16    7.77    3.18 
   5  -4 -17   -0.01    0.49 
   5  -4 -15    3.32    1.49 
   5  -4 -15    2.64    1.08 
   5  -4 -13   46.25   18.35 
   5  -4 -13   43.16   17.07 
   5  -4 -11   27.95   11.07 
   5  -4 -11   24.44    9.70 
   5  -4  -9   13.23    5.27 
   5  -4  -9    6.50    2.58 
   5  -4  -7   29.59   11.70 
   5  -4  -7   16.86    6.69 
  -5   4   5  162.21   64.03 
   5  -4  -5  129.06   50.93 
  -5   4   3  136.65   53.93 
   5  -4  -3  139.06   54.89 
  -5   4   1   10.41    4.15 
   5  -4  -1   12.10    4.82 
   5  -4   1   11.25    4.50 
  -5   4  -3  135.52   53.52 
   5  -4   3  110.19   43.52 
  -5   4  -5  116.78   46.11 
   5  -4   5   89.63   35.41 
  -5   4  -7   14.56    5.81 
   5  -4   7   10.83    4.35 
  -5   4  -9    8.28    3.35 
   5  -4   9    8.24    3.34 
  -5   4 -11   31.29   12.43 
  -5   4 -13   64.03   25.34 
   5  -4  13   56.84   22.52 
  -5   4 -15    6.47    2.67 
   5  -4  15    6.00    2.50 
   5  -3 -16    0.00    0.11 
   5  -3 -14   19.08    7.59 
   5  -3 -14   13.87    5.50 
   5  -3 -12   87.49   34.63 
   5  -3 -12   76.08   30.10 
   5  -3 -10   15.81    6.28 
   5  -3 -10   26.57   10.53 
   5  -3  -8    3.39    1.37 
   5  -3  -8    1.94    0.78 
   5  -3  -6  112.64   44.49 
   5  -3  -6   48.89   19.32 
  -5   3   4  152.25   60.12 
   5  -3  -4  106.32   41.98 
  -5   3   2   50.98   20.14 
   5  -3  -2   48.11   19.02 
  -5   3   0   15.13    6.01 
   5  -3   0   12.44    4.95 
  -5   3  -4  111.37   43.97 
   5  -3   4   86.31   34.09 
  -5   3  -6   43.76   17.32 
   5  -3   6   36.18   14.33 
  -5   3  -8    2.19    0.96 
   5  -3   8    2.24    0.99 
  -5   3 -10   18.76    7.48 
   5  -3  10   16.16    6.45 
   5  -3  12   71.08   28.12 
  -5   3 -14   23.89    9.51 
   5  -3  14   22.34    8.90 
  -5   3 -16    0.08    0.37 
   5  -3  16    0.11    0.30 
   5  -2 -17    0.46    0.33 
   5  -2  -5  128.65   50.89 
   5  -2  -5   25.89   10.26 
  -5   2   3   19.48    7.70 
   5  -2  -3   17.07    6.76 
  -5   2   1    1.38    0.60 
   5  -2  -1    1.25    0.56 
  -5   2  -1    1.20    0.56 
   5  -2   1    1.25    0.58 
  -5   2  -3   20.24    8.02 
  -5   2  -5   24.86    9.85 
   5  -2   5   25.37   10.06 
  -5   2  -7    0.64    0.41 
   5  -2   7    1.32    0.63 
  -5   2  -9    2.22    0.99 
   5  -2   9    4.55    1.88 
  -5   2 -11   17.15    6.86 
   5  -2  11   19.52    7.77 
  -5   2 -13   11.76    4.75 
   5  -2  13   16.27    6.49 
  -5   2 -15    0.62    0.51 
   5  -2  15    1.30    0.63 
  -5   2 -17    0.50    0.51 
   5  -2  17    0.93    0.49 
  -5   1   4    1.14    0.46 
   5  -1  -4    0.41    0.17 
  -5   1   2   72.03   28.45 
   5  -1  -2   48.39   19.11 
  -5   1   0  121.37   47.93 
   5  -1   0  113.51   44.80 
   5  -1   2   52.25   20.65 
  -5   1  -4    0.55    0.39 
  -5   1  -6    7.36    2.98 
   5  -1   6    6.81    2.74 
  -5   1  -8   63.07   24.94 
   5  -1   8   56.03   22.16 
  -5   1 -10    8.18    3.33 
   5  -1  10    7.47    3.01 
  -5   1 -12    0.03    0.45 
   5  -1  12    0.02    0.17 
  -5   1 -14   12.60    5.09 
   5  -1  14    9.49    3.80 
  -5   1 -16   40.65   16.14 
   5  -1  16   24.38    9.66 
  -5   1 -18   13.61    5.52 
   5   0 -17   22.18    8.82 
  -5   0   3   57.57   22.76 
  -5   0   1  223.24   88.09 
   5   0  -1  171.94   67.85 
  -5   0  -1  298.64  117.87 
   5   0   1  204.55   80.72 
  -5   0  -3   54.34   21.47 
   5   0   3   42.04   16.61 
   5   0   5    7.88    3.14 
  -5   0  -7  136.06   53.75 
   5   0   7   97.23   38.38 
  -5   0  -9   78.40   30.99 
   5   0   9   53.93   21.31 
  -5   0 -11   15.19    6.11 
   5   0  11    8.88    3.54 
   5   0  13   12.70    5.05 
  -5   0 -15   58.48   23.17 
   5   0  15   31.94   12.63 
  -5   0 -17   62.94   24.93 
   5   0  17   38.80   15.34 
   5   1 -16    9.44    3.76 
   5   1 -14   12.80    5.16 
  -5  -1   4    0.31    0.19 
  -5  -1   4    0.61    0.26 
  -5  -1   2   60.39   23.86 
   5   1  -2   99.95   39.46 
  -5  -1   0  144.57   57.07 
   5   1   0   96.41   38.05 
  -5  -1  -2   59.71   23.61 
   5   1   2   37.63   14.86 
  -5  -1  -4    0.50    0.41 
  -5  -1  -6    7.69    3.13 
   5   1   6    4.64    1.86 
  -5  -1  -8   67.94   26.88 
   5   1   8   41.93   16.56 
  -5  -1 -10    8.76    3.58 
   5   1  10    5.15    2.06 
  -5  -1 -12    0.07    0.47 
   5   1  12    0.03    0.09 
  -5  -1 -14   14.61    5.91 
   5   1  14    6.65    2.65 
  -5  -1 -16   45.52   18.09 
   5   1  16   20.61    8.16 
  -5  -1 -18   13.20    5.36 
   5   2 -17   -0.02    0.11 
   5   2 -15    0.18    0.14 
  -5  -2  13    9.85    3.92 
   5   2 -13   22.50    8.92 
  -5  -2  11   66.99   27.48 
  -5  -2  11   15.21    6.22 
  -5  -2   5   31.25   12.37 
  -5  -2   5   31.85   12.60 
  -5  -2   3   41.26   16.30 
  -5  -2   3   25.50   10.09 
  -5  -2   1    1.10    0.50 
   5   2  -1    1.06    0.43 
  -5  -2  -1    1.18    0.56 
   5   2   1    1.06    0.43 
  -5  -2  -3   26.66   10.57 
  -5  -2  -5   34.68   13.75 
   5   2   5   22.14    8.74 
  -5  -2  -7    1.12    0.63 
   5   2   7    1.13    0.47 
  -5  -2  -9    4.26    1.82 
   5   2   9    3.19    1.28 
  -5  -2 -11   29.05   11.58 
   5   2  11   14.17    5.61 
  -5  -2 -13   21.82    8.76 
   5   2  13   10.81    4.28 
  -5  -2 -15    1.45    0.89 
   5   2  15    0.84    0.36 
  -5  -2 -17    0.96    0.79 
   5   2  17    0.80    0.36 
   5   3 -16   -0.02    0.11 
   5   3 -14   15.61    6.19 
  -5  -3  12   63.71   25.21 
   5   3 -12  106.55   42.11 
  -5  -3  10   12.85    5.11 
  -5  -3  10   72.81   28.79 
  -5  -3   8    2.01    0.87 
  -5  -3   8    5.19    2.06 
  -5  -3   6   58.35   23.06 
  -5  -3   6   52.93   20.91 
  -5  -3   4   85.81   33.88 
  -5  -3   4  116.42   45.93 
  -5  -3   2   94.27   37.22 
  -5  -3   2   52.80   20.86 
  -5  -3   0   12.53    4.97 
   5   3   0   36.97   14.60 
  -5  -3  -4  117.24   46.29 
   5   3   4  116.37   45.93 
  -5  -3  -6   47.89   18.96 
   5   3   6   34.33   13.56 
  -5  -3  -8    2.32    1.06 
   5   3   8    1.95    0.79 
  -5  -3 -10   19.81    7.94 
   5   3  10   12.85    5.08 
   5   3  12   49.02   19.35 
  -5  -3 -14   31.24   12.48 
   5   3  14   17.67    6.99 
  -5  -3 -16    0.22    0.60 
   5   3  16    0.15    0.11 
   5   4 -15    0.79    0.37 
  -5  -4  13   43.62   17.30 
   5   4 -13   58.25   23.02 
  -5  -4  11   28.21   11.19 
   5   4 -11   35.47   14.03 
  -5  -4   9    7.90    3.19 
  -5  -4   9   38.26   15.12 
  -5  -4   7   16.71    6.64 
  -5  -4   7   31.26   12.35 
  -5  -4   5  187.68   74.08 
  -5  -4   5   96.36   38.06 
  -5  -4   3  154.71   61.07 
  -5  -4   3  157.71   62.26 
  -5  -4   1   22.97    9.10 
  -5  -4   1   12.65    5.02 
   5   4   1   36.19   14.29 
  -5  -4  -3  112.32   44.34 
   5   4   3  243.66   96.14 
  -5  -4  -5  106.32   41.99 
   5   4   5  148.39   58.53 
  -5  -4  -7   14.81    5.92 
   5   4   7   14.72    5.82 
  -5  -4  -9   10.13    4.12 
   5   4   9    8.50    3.37 
  -5  -4 -11   34.22   13.66 
  -5  -4 -13   68.67   27.23 
   5   4  13   51.84   20.47 
  -5  -4 -15    7.19    3.07 
   5   4  15    5.83    2.32 
   5   5 -16    0.13    0.30 
   5   5 -12    6.54    2.62 
  -5  -5  10    0.17    0.49 
   5   5 -10    0.74    0.35 
  -5  -5   8    1.26    0.70 
  -5  -5   8    3.03    1.22 
  -5  -5   6    0.23    0.38 
  -5  -5   6    0.30    0.17 
  -5  -5   4   90.22   35.61 
  -5  -5   2    7.84    3.14 
  -5  -5   0   55.39   21.88 
  -5  -5   0   33.27   13.16 
  -5  -5  -2    8.54    3.42 
  -5  -5  -2    4.41    1.78 
  -5  -5  -4   39.66   15.69 
   5   5   4  108.14   42.67 
  -5  -5  -6    0.29    0.28 
   5   5   6    0.24    0.12 
  -5  -5  -8    1.36    0.70 
   5   5   8    1.82    0.74 
   5   5  10    0.88    0.37 
  -5  -5 -12    8.47    3.53 
   5   5  12    9.61    3.81 
  -5  -5 -14    0.92    0.80 
   5   5  14    2.34    0.95 
  -5  -5 -16    4.34    1.99 
   5   6 -15    5.62    2.30 
   5   6 -13    1.85    0.80 
  -5  -6  11    0.67    0.63 
   5   6 -11    2.24    0.94 
  -5  -6   9   25.99   10.39 
   5   6  -9   32.24   12.76 
  -5  -6   7   50.80   20.12 
  -5  -6   7  118.46   46.75 
  -5  -6   5    7.67    3.10 
  -5  -6   5   22.62    8.95 
  -5  -6   3    0.76    0.38 
  -5  -6   3    3.74    1.52 
  -5  -6   1  128.88   50.89 
  -5  -6   1  126.01   49.75 
  -5  -6  -1  154.66   61.07 
  -5  -6  -1   95.27   37.62 
  -5  -6  -3    2.21    0.94 
  -5  -6  -3    1.70    0.73 
  -5  -6  -5   12.18    4.86 
  -5  -6  -5    6.70    2.70 
  -5  -6  -7   27.88   11.06 
   5   6   7   71.67   28.30 
   5   6   9   58.03   22.92 
  -5  -6 -11    2.62    1.25 
   5   6  11    5.26    2.10 
  -5  -6 -13    2.66    1.33 
   5   6  13    7.37    2.93 
  -5  -6 -15   22.04    8.88 
   5   7 -14    6.03    2.46 
  -5  -7  12    0.41    0.64 
   5   7 -12    0.59    0.33 
  -5  -7  10   10.15    4.16 
   5   7 -10   17.41    6.91 
  -5  -7   8   69.62   27.57 
  -5  -7   8  236.93   93.50 
  -5  -7   6   15.48    6.21 
  -5  -7   6   51.02   20.16 
  -5  -7   4    8.25    3.32 
  -5  -7   4   23.17    9.18 
  -5  -7   2   38.93   15.40 
  -5  -7   2   85.13   33.62 
  -5  -7   0  122.19   48.25 
  -5  -7   0  129.56   51.11 
  -5  -7  -2   71.71   28.34 
  -5  -7  -2   47.93   18.95 
  -5  -7  -4    8.64    3.46 
  -5  -7  -4   16.49    6.56 
  -5  -7  -6   11.53    4.61 
  -5  -7  -8   48.11   19.05 
  -5  -7  -8   72.94   28.84 
  -5  -7 -10   20.02    8.00 
   5   7  10   52.43   20.70 
  -5  -7 -12    1.02    0.70 
   5   7  12    4.13    1.65 
   5   8 -15    0.06    0.45 
   5   8 -13    0.02    0.23 
  -5  -8  11    0.04    0.50 
   5   8 -11    0.00    0.16 
  -5  -8   9  125.51   49.57 
  -5  -8   9   13.61    5.52 
  -5  -8   7   16.39    6.58 
  -5  -8   7   59.21   23.39 
  -5  -8   5    1.69    0.84 
  -5  -8   5    7.81    3.12 
  -5  -8   3    2.47    1.05 
  -5  -8   3    7.26    2.91 
  -5  -8   1   25.64   10.17 
  -5  -8   1   43.50   17.20 
  -5  -8  -1   34.97   13.85 
  -5  -8  -1   33.64   13.31 
  -5  -8  -3    3.04    1.26 
  -5  -8  -5    1.87    0.83 
  -5  -8  -5    4.25    1.74 
  -5  -8  -7   22.92    9.10 
  -5  -8  -7   10.54    4.23 
  -5  -8  -9   18.67    7.45 
  -5  -8  -9   35.56   14.08 
  -5  -8 -11    0.01    0.40 
  -5  -8 -11    0.02    0.18 
   5   9 -14   -0.14    0.29 
  -5  -9  12    4.70    2.11 
   5   9 -12    6.22    2.55 
  -5  -9   8   18.84    7.48 
  -5  -9   6   19.60    7.78 
  -5  -9   4   46.02   18.20 
  -5  -9   2    0.51    0.31 
  -5  -9   0    0.58    0.36 
  -5  -9  -2    0.24    0.25 
  -5  -9  -2    0.12    0.20 
  -5  -9  -6    7.69    3.10 
  -5  -9  -6    3.59    1.50 
  -5  -9  -8    5.95    2.41 
  -5  -9  -8    1.73    0.83 
  -5  -9 -10    0.84    0.55 
   5  10 -13    3.22    1.48 
  -5 -10  11    6.54    2.83 
  -5 -10   9    0.62    0.67 
  -5 -10   9   16.77    6.67 
  -5 -10   7    3.51    1.67 
  -5 -10   7   29.21   11.58 
  -5 -10   5   27.20   10.84 
  -5 -10   5  105.09   41.51 
  -5 -10   3   27.99   11.12 
  -5 -10   3   85.90   33.93 
  -5 -10   1    2.01    0.88 
  -5 -10   1    5.26    2.14 
  -5 -10  -1    2.54    1.08 
  -5 -10  -1    3.37    1.41 
  -5 -10  -3   39.41   15.60 
  -5 -10  -3   36.68   14.53 
  -5 -10  -7   10.17    4.09 
  -5 -10  -7    3.14    1.36 
  -5 -11  10    2.35    1.36 
  -5 -11  10   65.67   25.98 
  -5 -11   8    0.11    0.62 
  -5 -11   8    4.01    1.65 
  -5 -11   6    6.76    2.92 
  -5 -11   6   21.51    8.55 
  -5 -11   4   21.39    8.56 
  -5 -11   4   70.71   27.95 
  -5 -11   2    8.19    3.35 
  -5 -11   2   18.23    7.26 
  -5 -11   0    0.22    0.30 
  -5 -11   0    0.24    0.27 
  -5 -11  -2    8.36    3.37 
  -5 -11  -2    8.64    3.49 
   6 -11  -7    0.53    0.79 
   6 -11  -7    5.50    2.27 
  -6  11   3   13.14    5.27 
   6 -11  -3   18.97    7.69 
  -6  11   1    0.06    0.28 
   6 -11  -1    0.58    0.73 
  -6  11  -1    0.35    0.35 
   6 -10 -10   21.41    8.73 
   6 -10 -10   18.20    7.26 
   6 -10  -8   16.15    6.43 
   6 -10  -8    1.85    1.12 
   6 -10  -6  100.27   39.62 
   6 -10  -6    7.43    3.16 
  -6  10   4   35.35   14.01 
   6 -10  -4   44.82   17.83 
  -6  10   2   20.24    8.06 
   6 -10  -2   29.75   11.91 
  -6  10   0    5.07    2.07 
   6 -10   0    4.99    2.17 
  -6  10  -2   19.58    7.78 
   6 -10   2   17.48    7.06 
  -6  10  -4   38.17   15.12 
   6 -10   4   33.90   13.52 
  -6  10  -6   10.39    4.16 
   6  -9 -11    8.19    3.30 
   6  -9  -9    0.85    0.44 
   6  -9  -9    0.49    0.65 
   6  -9  -7    0.53    0.30 
   6  -9  -7    0.00    0.47 
  -6   9   5    9.88    3.95 
  -6   9   3   26.28   10.42 
   6  -9  -1    0.07    0.46 
  -6   9  -1    0.04    0.19 
   6  -9   1    0.01    0.47 
  -6   9  -3   15.80    6.28 
   6  -9   3   17.07    6.87 
  -6   9  -5    6.60    2.66 
  -6   9  -7    0.13    0.31 
   6  -9   7    0.07    0.44 
   6  -8 -12    0.27    0.28 
   6  -8 -10    1.38    0.64 
   6  -8 -10    1.65    0.96 
   6  -8  -8   41.56   16.44 
   6  -8  -8   10.63    4.33 
   6  -8  -6   19.88    7.89 
   6  -8  -6    2.05    1.02 
  -6   8   4    4.54    1.85 
   6  -8  -4    3.61    1.58 
  -6   8   2    5.99    2.42 
   6  -8  -2    5.39    2.26 
  -6   8   0   26.15   10.36 
   6  -8   0   32.61   12.98 
  -6   8  -2    3.71    1.52 
  -6   8  -4    2.17    0.95 
  -6   8  -6    1.77    0.83 
   6  -8   6    2.09    1.02 
  -6   8  -8   10.10    4.09 
   6  -8   8   11.18    4.52 
  -6   8 -10    0.81    0.58 
   6  -8  10    0.91    0.58 
   6  -7 -13    0.52    0.43 
   6  -7 -11    5.49    2.22 
   6  -7 -11   10.20    4.16 
   6  -7  -9   65.53   25.89 
   6  -7  -9   46.93   18.62 
   6  -7  -7  185.40   73.17 
   6  -7  -7   43.63   17.30 
  -6   7   5    1.64    0.71 
   6  -7  -5    1.64    0.83 
  -6   7   3   11.22    4.47 
   6  -7  -3   12.03    4.84 
  -6   7   1   84.68   33.45 
   6  -7  -1  106.37   42.05 
  -6   7  -1   65.62   25.92 
   6  -7   1   90.09   35.62 
  -6   7  -3    8.24    3.32 
   6  -7   3    9.20    3.74 
   6  -7   5    1.60    0.85 
  -6   7  -7   40.75   16.15 
   6  -7   7   33.70   13.38 
  -6   7  -9   55.03   21.80 
   6  -7   9   37.59   14.92 
  -6   7 -11    9.62    3.93 
   6  -7  11    5.16    2.15 
   6  -6 -14    3.92    1.75 
   6  -6 -12    0.14    0.22 
   6  -6 -10   10.77    4.29 
   6  -6  -8   67.39   26.67 
   6  -6  -6   19.54    7.79 
  -6   6   4    9.40    3.75 
   6  -6  -4    7.95    3.22 
  -6   6   2   42.07   16.63 
   6  -6  -2   42.20   16.72 
  -6   6   0   80.17   31.66 
   6  -6   0  100.18   39.58 
  -6   6  -2   35.53   14.07 
   6  -6   2   36.26   14.38 
  -6   6  -4    6.01    2.48 
   6  -6   4    6.38    2.62 
  -6   6  -6   18.57    7.42 
   6  -6   6   12.82    5.15 
  -6   6  -8   80.67   31.92 
   6  -6   8   42.99   17.04 
  -6   6 -10   26.54   10.57 
   6  -6  10   14.66    5.88 
  -6   6 -12    1.71    0.90 
   6  -6  12    0.59    0.46 
   6  -5 -13    3.37    1.44 
   6  -5 -13    0.86    0.57 
   6  -5 -11    6.17    2.48 
   6  -5 -11   13.27    5.30 
   6  -5  -9    2.03    0.91 
   6  -5  -9    0.75    0.33 
   6  -5  -7    4.55    1.89 
   6  -5  -7    8.73    3.47 
  -6   5   5    6.92    2.76 
   6  -5  -5    6.49    2.64 
  -6   5   3    4.59    1.85 
   6  -5  -3    3.48    1.45 
  -6   5   1    1.65    0.71 
   6  -5  -1    1.78    0.80 
  -6   5  -1    2.09    0.93 
   6  -5   1    1.80    0.82 
  -6   5  -3    3.82    1.61 
   6  -5   3    4.19    1.75 
  -6   5  -5    4.87    2.03 
   6  -5   5    4.44    1.85 
   6  -5   7    2.38    1.05 
   6  -5   9    1.15    0.62 
  -6   5 -11   15.42    6.18 
   6  -5  11    9.32    3.78 
  -6   5 -13    4.14    1.79 
   6  -5  13    2.80    1.25 
   6  -4 -10   22.54    8.95 
   6  -4 -10   38.58   15.29 
   6  -4  -8    2.03    0.82 
   6  -4  -8    2.54    1.07 
   6  -4  -6  128.60   50.80 
   6  -4  -6   29.85   11.82 
  -6   4   4  108.46   42.82 
   6  -4  -4   86.27   34.09 
  -6   4   2   23.91    9.45 
   6  -4  -2   31.80   12.59 
   6  -4   0   17.56    6.98 
  -6   4  -2   43.68   17.29 
   6  -4   2   28.70   11.38 
  -6   4  -4  116.33   45.98 
   6  -4   4   70.58   27.90 
  -6   4  -6   29.40   11.67 
   6  -4   6   22.92    9.11 
  -6   4  -8    1.68    0.85 
   6  -4   8    2.09    0.93 
   6  -4  10   23.85    9.49 
  -6   4 -12   45.88   18.20 
   6  -4  12   49.80   19.72 
  -6   4 -14   12.26    4.97 
   6  -4  14   12.81    5.15 
   6  -3  -7    4.80    1.91 
   6  -3  -7    5.78    2.31 
  -6   3   5  167.03   65.98 
   6  -3  -5   99.50   39.33 
  -6   3   3   73.31   28.94 
   6  -3  -3   88.81   35.08 
  -6   3   1    3.57    1.47 
   6  -3  -1    3.97    1.63 
  -6   3  -1    5.39    2.19 
  -6   3  -3  122.92   48.52 
   6  -3   3   85.22   33.67 
  -6   3  -5   99.09   39.15 
   6  -3   5   91.27   36.06 
  -6   3  -7    4.44    1.86 
   6  -3   7    5.36    2.20 
  -6   3  -9    1.71    0.83 
   6  -3   9    2.15    0.94 
  -6   3 -11   28.76   11.45 
   6  -3  11   36.50   14.48 
  -6   3 -13   43.89   17.41 
   6  -3  13   47.29   18.73 
  -6   3 -15    7.48    3.10 
   6  -3  15    9.02    3.65 
  -6   2   4   70.49   27.85 
   6  -2  -4   45.84   18.13 
  -6   2   2    4.39    1.78 
   6  -2  -2    6.05    2.42 
  -6   2   0   17.27    6.85 
   6  -2   0   14.07    5.59 
  -6   2  -2    3.45    1.45 
  -6   2  -4   45.22   17.89 
   6  -2   4   49.89   19.73 
   6  -2   6   11.65    4.66 
  -6   2  -8    0.63    0.46 
   6  -2   8    2.36    1.02 
  -6   2 -10    0.06    0.40 
   6  -2  10    0.70    0.39 
  -6   2 -12   12.48    5.05 
   6  -2  12   24.72    9.82 
  -6   2 -14    1.61    0.92 
   6  -2  14    5.18    2.12 
  -6   2 -16    0.06    0.48 
   6  -2  16    0.20    0.22 
  -6   1   3    1.54    0.67 
   6  -1  -3    2.06    0.83 
  -6   1   1   67.30   26.59 
   6  -1  -1   56.57   22.34 
  -6   1  -1   44.63   17.65 
   6  -1   1   56.39   22.28 
   6  -1   3    2.92    1.20 
  -6   1  -5    0.79    0.52 
   6  -1   5    1.46    0.64 
  -6   1  -7   23.84    9.48 
   6  -1   7   26.51   10.51 
  -6   1  -9   18.60    7.44 
   6  -1   9   17.82    7.08 
  -6   1 -11    0.04    0.54 
  -6   1 -13    0.08    0.57 
  -6   1 -15   25.95   10.38 
   6  -1  15   15.75    6.26 
  -6   0   2   50.61   20.01 
   6   0  -2   89.68   35.41 
  -6   0   0  159.66   63.03 
   6   0   0  124.92   49.30 
  -6   0  -2   90.09   35.59 
   6   0   2   69.85   27.57 
  -6   0  -4   28.71   11.40 
   6   0   4   20.43    8.09 
  -6   0  -6   78.04   30.85 
   6   0   6   51.71   20.43 
  -6   0  -8   85.13   33.67 
   6   0   8   48.84   19.30 
  -6   0 -10   20.53    8.22 
   6   0  10   13.01    5.17 
  -6   0 -12    6.11    2.61 
   6   0  12    4.61    1.85 
  -6   0 -14   39.59   15.76 
   6   0  14   19.38    7.68 
  -6   0 -16   90.31   35.75 
   6   0  16   50.89   20.11 
  -6  -1   3    5.05    2.01 
  -6  -1   3    0.72    0.39 
  -6  -1   1   50.34   19.91 
   6   1  -1   78.31   30.91 
  -6  -1  -1   52.62   20.82 
   6   1   1   46.84   18.50 
   6   1   3    1.69    0.69 
  -6  -1  -5    0.42    0.42 
   6   1   5    0.76    0.33 
  -6  -1  -7   24.57    9.79 
   6   1   7   17.93    7.09 
  -6  -1  -9   20.61    8.25 
   6   1   9   12.48    4.94 
  -6  -1 -11    0.06    0.57 
  -6  -1 -13    0.05    0.64 
   6   1  13    0.05    0.08 
  -6  -1 -15   28.15   11.28 
   6   1  15   13.32    5.28 
  -6  -2   4   69.99   27.66 
  -6  -2   4   44.86   17.75 
  -6  -2   2   13.17    5.23 
  -6  -2   2    4.95    2.02 
  -6  -2   0   10.71    4.30 
   6   2   0   24.80    9.80 
  -6  -2  -2    5.06    2.10 
   6   2   2    6.85    2.72 
  -6  -2  -4   55.03   21.78 
   6   2   4   44.56   17.59 
  -6  -2  -6   13.39    5.39 
   6   2   6    9.75    3.86 
  -6  -2  -8    2.09    1.06 
   6   2   8    1.51    0.61 
  -6  -2 -10    0.63    0.64 
   6   2  10    0.54    0.24 
  -6  -2 -12   34.57   13.81 
   6   2  12   16.24    6.43 
  -6  -2 -14    6.35    2.80 
   6   2  14    3.94    1.58 
  -6  -2 -16    0.12    0.65 
   6   2  16    0.14    0.11 
  -6  -3   7    5.56    2.21 
  -6  -3   7    2.25    0.95 
  -6  -3   5  104.59   41.31 
  -6  -3   5  100.46   39.67 
  -6  -3   3  172.40   68.03 
  -6  -3   3  108.73   42.94 
  -6  -3   1    7.53    3.01 
  -6  -3   1    6.25    2.53 
  -6  -3  -3  125.47   49.57 
   6   3   3  132.83   52.43 
  -6  -3  -5  117.42   46.39 
   6   3   5  111.23   43.90 
  -6  -3  -7    5.24    2.23 
   6   3   7    4.90    1.95 
  -6  -3  -9    2.22    1.16 
   6   3   9    1.78    0.72 
  -6  -3 -11   47.75   19.01 
   6   3  11   25.49   10.07 
  -6  -3 -13   66.76   26.51 
   6   3  13   35.53   14.03 
  -6  -3 -15    9.39    3.95 
   6   3  15    7.80    3.10 
  -6  -4  14   25.27   10.03 
  -6  -4  12   81.63   32.30 
  -6  -4  10   19.85    7.89 
  -6  -4  10   28.40   11.23 
  -6  -4   8    0.44    0.43 
  -6  -4   8    1.92    0.77 
  -6  -4   6   20.81    8.23 
  -6  -4   6   29.83   11.82 
  -6  -4   4   66.03   26.08 
  -6  -4   4   66.89   26.41 
  -6  -4   2   30.46   12.05 
  -6  -4   2   70.03   27.68 
  -6  -4   0   39.09   15.46 
  -6  -4  -2   38.08   15.08 
   6   4   2   81.31   32.08 
  -6  -4  -4   97.00   38.32 
   6   4   4  134.38   53.02 
   6   4   6   32.63   12.89 
  -6  -4  -8    1.84    0.99 
   6   4   8    2.34    0.94 
   6   4  10   22.16    8.75 
  -6  -4 -12   48.43   19.30 
   6   4  12   49.93   19.71 
  -6  -4 -14   13.42    5.55 
   6   4  14   13.96    5.53 
  -6  -5  13    7.84    3.12 
  -6  -5  11   22.86    9.04 
  -6  -5   9    0.74    0.65 
  -6  -5   9    2.42    0.97 
  -6  -5   7    2.66    1.24 
  -6  -5   7    3.22    1.29 
  -6  -5   5    3.96    1.59 
  -6  -5   3    4.70    1.90 
  -6  -5   1    3.22    1.32 
  -6  -5   1    2.62    1.08 
  -6  -5  -1    2.70    1.13 
  -6  -5  -1    3.27    1.35 
  -6  -5  -3    3.32    1.39 
   6   5   3   12.83    5.08 
  -6  -5  -5    4.57    1.91 
   6   5   5   10.04    3.98 
  -6  -5  -7    3.74    1.64 
   6   5   7    4.36    1.74 
  -6  -5  -9    1.64    0.99 
   6   5   9    2.06    0.83 
  -6  -5 -11    7.84    3.35 
   6   5  11   13.42    5.31 
  -6  -5 -13    0.98    0.91 
   6   5  13    3.79    1.52 
  -6  -6  10    6.97    2.91 
  -6  -6   8   46.57   18.47 
  -6  -6   8   86.40   34.11 
  -6  -6   6   12.38    4.97 
  -6  -6   6   19.55    7.74 
  -6  -6   4    4.72    1.91 
  -6  -6   4    7.56    3.01 
  -6  -6   2   42.92   16.98 
  -6  -6   2   42.13   16.65 
  -6  -6   0  189.50   74.81 
  -6  -6   0  107.05   42.26 
  -6  -6  -2   68.62   27.12 
  -6  -6  -2   36.23   14.33 
  -6  -6  -4   10.88    4.35 
  -6  -6  -4    5.93    2.41 
  -6  -6  -6   14.94    5.98 
   6   6   6   33.64   13.28 
  -6  -6  -8   68.85   27.27 
   6   6   8  120.92   47.70 
  -6  -6 -10   23.85    9.58 
   6   6  10   34.48   13.62 
  -6  -6 -12    0.75    0.80 
   6   6  12    2.25    0.91 
  -6  -7  11   24.19    9.58 
  -6  -7   9   99.64   39.34 
  -6  -7   9   30.71   12.26 
  -6  -7   7   71.62   28.29 
  -6  -7   7   50.21   19.90 
  -6  -7   5    1.90    0.79 
  -6  -7   5    1.23    0.66 
  -6  -7   3    6.97    2.80 
  -6  -7   3   11.19    4.45 
  -6  -7   1   94.95   37.50 
  -6  -7   1   83.27   32.88 
  -6  -7  -1  140.02   55.25 
  -6  -7  -1   83.67   33.04 
  -6  -7  -3   16.22    6.45 
  -6  -7  -3    8.27    3.33 
  -6  -7  -5    2.27    0.97 
  -6  -7  -9   48.48   19.25 
   6   7   9  118.24   46.66 
  -6  -7 -11    5.92    2.57 
   6   7  11   22.36    8.84 
  -6  -8  10    0.15    0.62 
  -6  -8  10    3.38    1.38 
  -6  -8   8    8.20    3.41 
  -6  -8   8   31.25   12.37 
  -6  -8   6    1.47    0.83 
  -6  -8   6    3.66    1.49 
  -6  -8   4    2.27    1.01 
  -6  -8   4    4.66    1.88 
  -6  -8   2    3.09    1.27 
  -6  -8   2    4.62    1.87 
  -6  -8   0   29.23   11.58 
  -6  -8   0   28.60   11.33 
  -6  -8  -2    6.87    2.77 
  -6  -8  -4    5.22    2.13 
  -6  -8  -4    2.42    1.05 
  -6  -8  -6    4.18    1.71 
  -6  -8  -6    1.40    0.69 
  -6  -8  -8   22.73    9.02 
  -6  -8  -8    9.54    3.91 
  -6  -8 -10    0.55    0.58 
  -6  -8 -10    1.86    0.82 
  -6  -9   9    1.60    0.70 
  -6  -9   7    0.49    0.30 
  -6  -9   5   17.40    6.93 
  -6  -9   3   11.97    4.79 
  -6  -9   1    0.00    0.18 
  -6  -9   1    0.04    0.20 
  -6  -9  -1    0.08    0.21 
  -6  -9  -1    0.02    0.18 
  -6  -9  -3   28.93   11.46 
  -6  -9  -3   16.78    6.69 
  -6  -9  -5   15.38    6.13 
  -6  -9  -5    6.92    2.82 
  -6  -9  -7    0.25    0.36 
  -6  -9  -7    0.13    0.22 
  -6 -10   8    2.11    1.18 
  -6 -10   8   13.13    5.24 
  -6 -10   6   11.36    4.63 
  -6 -10   6   28.45   11.28 
  -6 -10   4   58.12   22.98 
  -6 -10   4   29.01   11.57 
  -6 -10   2   14.94    5.95 
  -6 -10   2   27.86   11.05 
  -6 -10   0    2.86    1.19 
  -6 -10   0    3.85    1.61 
  -6 -10  -2   22.02    8.75 
  -6 -10  -2   20.14    8.02 
  -6 -10  -4   28.75   11.41 
  -6 -10  -4   53.66   21.22 
  -6 -11   7    0.31    0.68 
  -6 -11   7    2.68    1.17 
  -6 -11   5   13.21    5.36 
  -6 -11   5   32.67   12.94 
  -6 -11   3   13.49    5.45 
  -6 -11   3   18.60    7.40 
  -6 -11   1    0.46    0.40 
  -6 -11   1    0.28    0.28 
  -6 -11  -1    0.23    0.26 
   7 -11  -4    2.03    1.10 
  -7  11   2    0.02    0.24 
   7 -10  -7    0.97    1.01 
   7 -10  -7    3.57    1.50 
   7 -10  -5    2.95    1.54 
  -7  10   3    3.29    1.40 
   7 -10  -3    3.43    1.68 
  -7  10   1    0.37    0.33 
   7 -10  -1    0.49    0.64 
  -7  10  -1    0.73    0.46 
   7 -10   1    0.72    0.64 
  -7  10  -3    1.38    0.67 
   7 -10   3    1.92    1.02 
   7  -9  -8    1.60    1.09 
   7  -9  -8    3.43    1.42 
   7  -9  -6    7.63    3.07 
   7  -9  -4    5.95    2.57 
  -7   9   2    0.21    0.25 
   7  -9  -2    0.36    0.56 
  -7   9   0    7.48    3.01 
   7  -9   0    5.96    2.53 
  -7   9  -2    0.43    0.31 
   7  -9   2    0.52    0.52 
  -7   9  -4    3.71    1.54 
   7  -9   4    4.10    1.78 
  -7   9  -6    0.43    0.38 
   7  -9   6    0.58    0.51 
   7  -8  -9    0.61    0.34 
   7  -8  -7   11.91    4.75 
   7  -8  -7    2.29    1.17 
  -7   8   5    0.19    0.20 
   7  -8  -5    0.25    0.54 
  -7   8   3    7.67    3.08 
   7  -8  -3    6.25    2.64 
  -7   8   1    6.52    2.63 
   7  -8  -1    4.89    2.10 
   7  -8   1    5.14    2.18 
  -7   8  -3    5.83    2.36 
   7  -8   3    8.36    3.43 
  -7   8  -5    0.18    0.32 
   7  -8   5    0.23    0.42 
  -7   8  -7    1.32    0.71 
   7  -8   7    1.64    0.83 
  -7   8  -9    0.16    0.50 
   7  -7 -10    0.06    0.14 
   7  -7  -8    6.58    2.74 
   7  -7  -8   15.43    6.13 
   7  -7  -6    0.08    0.09 
   7  -7  -6   -0.01    0.46 
  -7   7   4   10.73    4.29 
   7  -7  -4    5.61    2.35 
  -7   7   2    0.37    0.26 
   7  -7  -2    0.43    0.44 
  -7   7   0   12.65    5.03 
   7  -7   0   13.19    5.31 
  -7   7  -2    0.13    0.27 
   7  -7   2    0.37    0.42 
   7  -7   4    7.44    3.05 
  -7   7  -6    0.07    0.41 
   7  -7   6   -0.02    0.36 
  -7   7  -8    4.41    1.92 
  -7   7 -10    0.07    0.52 
   7  -7  10    0.09    0.32 
   7  -6 -11    0.38    0.25 
   7  -6  -9    4.89    1.96 
   7  -6  -9    5.28    2.22 
   7  -6  -7    2.98    1.31 
  -7   6   5   12.83    5.10 
   7  -6  -5    7.93    3.22 
  -7   6   3    0.04    0.18 
   7  -6  -3    0.01    0.32 
  -7   6   1    4.24    1.72 
   7  -6  -1    5.34    2.21 
  -7   6  -1    4.12    1.70 
   7  -6   1    5.35    2.22 
  -7   6  -3   -0.02    0.37 
   7  -6   3    0.06    0.33 
  -7   6  -5    5.76    2.42 
  -7   6  -7    4.30    1.87 
  -7   6  -9    7.58    3.14 
   7  -6   9    4.97    2.08 
  -7   6 -11    1.17    0.75 
   7  -6  11    1.33    0.69 
   7  -5 -10    0.08    0.14 
   7  -5  -8   14.13    5.63 
   7  -5  -8   18.27    7.24 
   7  -5  -6    2.42    1.05 
   7  -5  -6   22.73    8.99 
  -7   5   4    5.94    2.38 
  -7   5   2    1.58    0.68 
   7  -5  -2    1.53    0.73 
  -7   5   0    1.36    0.65 
   7  -5   0    1.83    0.83 
  -7   5  -2    0.63    0.50 
   7  -5   2    1.49    0.71 
  -7   5  -4    4.44    1.90 
   7  -5   4    4.36    1.82 
  -7   5  -6    1.27    0.74 
   7  -5   6    2.37    1.06 
  -7   5  -8   20.35    8.14 
   7  -5   8   13.34    5.35 
  -7   5 -10    0.32    0.47 
   7  -5  10    0.28    0.37 
  -7   5 -12   13.82    5.59 
   7  -5  12    9.20    3.73 
   7  -4  -7    3.68    1.47 
   7  -4  -7    2.08    0.88 
  -7   4   5    8.88    3.53 
   7  -4  -5    5.48    2.22 
  -7   4   3    1.86    0.77 
   7  -4  -3    2.35    1.00 
   7  -4  -1    0.38    0.30 
  -7   4  -1    0.29    0.43 
   7  -4   1    0.40    0.31 
  -7   4  -3    1.80    0.86 
   7  -4   3    2.18    0.95 
  -7   4  -5    7.72    3.16 
   7  -4   5    4.88    2.01 
  -7   4  -7    3.02    1.37 
   7  -4   7    2.31    1.03 
  -7   4  -9    3.41    1.55 
   7  -4   9    8.57    3.47 
   7  -4  11    9.13    3.70 
  -7   4 -13    0.65    0.66 
   7  -4  13    2.83    1.23 
   7  -3  -6    0.66    0.27 
   7  -3  -6    0.17    0.13 
  -7   3   4   18.94    7.49 
   7  -3  -4   13.45    5.35 
  -7   3   2    0.09    0.19 
   7  -3  -2    0.22    0.24 
   7  -3   0    5.18    2.10 
  -7   3  -2    0.32    0.34 
   7  -3   2    0.25    0.26 
  -7   3  -4    4.61    1.96 
   7  -3   4   12.41    4.96 
  -7   3  -6    0.02    0.42 
   7  -3   6    0.34    0.30 
  -7   3  -8    5.09    2.19 
   7  -3   8   11.57    4.64 
  -7   3 -10   -0.04    0.40 
   7  -3  10    0.23    0.28 
  -7   3 -12    2.30    1.16 
   7  -3  12    8.06    3.26 
  -7   3 -14    0.11    0.51 
   7  -3  14    0.75    0.41 
   7  -2  -5   20.14    8.18 
  -7   2   3    9.07    3.61 
   7  -2  -3    8.51    3.38 
  -7   2   1    3.46    1.43 
   7  -2  -1    6.15    2.47 
   7  -2   1    5.67    2.28 
  -7   2  -3    3.16    1.39 
   7  -2   3    9.01    3.61 
  -7   2  -5    1.76    0.85 
  -7   2  -7    0.77    0.61 
   7  -2   7    6.92    2.79 
  -7   2  -9   -0.05    0.46 
  -7   2 -11    0.13    0.46 
   7  -2  11    1.67    0.74 
  -7   2 -13    0.60    0.68 
   7  -2  13    6.48    2.61 
  -7   2 -15   -0.07    0.57 
  -7   1   4    9.06    3.60 
   7  -1  -4   13.53    5.37 
  -7   1   2    0.00    0.27 
   7  -1  -2    0.11    0.08 
  -7   1   0    5.05    2.08 
   7  -1   0   16.86    6.68 
   7  -1   2    0.16    0.13 
  -7   1  -4    1.97    0.94 
   7  -1   4    7.69    3.07 
  -7   1  -6    0.05    0.46 
   7  -1   6    0.02    0.13 
  -7   1  -8    1.08    0.77 
   7  -1   8    3.35    1.37 
   7  -1  10    0.30    0.20 
  -7   1 -12    3.25    1.57 
   7  -1  12    5.06    2.04 
  -7   1 -14    0.09    0.71 
   7  -1  14    0.56    0.29 
  -7   0   3    1.30    0.60 
   7   0  -3   10.56    4.18 
  -7   0   1    1.34    0.66 
   7   0  -1   10.39    4.11 
  -7   0  -1    3.88    1.64 
  -7   0  -3    1.68    0.85 
   7   0   3    3.30    1.32 
  -7   0  -5    0.07    0.39 
   7   0   5    0.09    0.10 
  -7   0  -7    0.16    0.45 
   7   0   7    0.72    0.32 
  -7   0  -9    1.90    1.03 
   7   0   9    2.73    1.10 
  -7   0 -11    0.98    0.79 
   7   0  11    1.25    0.52 
  -7   0 -13    2.42    1.35 
   7   0  13    3.19    1.29 
  -7   0 -15    3.07    1.57 
   7   0  15    3.19    1.30 
  -7  -1   4   16.14    6.40 
  -7  -1   4    1.19    0.55 
  -7  -1   2   -0.01    0.28 
   7   1  -2    0.37    0.16 
  -7  -1   0   11.31    4.54 
   7   1   0   24.92    9.84 
  -7  -1  -2    0.04    0.39 
   7   1   2    0.12    0.07 
  -7  -1  -4    4.68    2.00 
   7   1   4    6.23    2.47 
  -7  -1  -6   -0.02    0.46 
   7   1   6    0.01    0.05 
  -7  -1  -8    1.67    0.99 
   7   1   8    2.40    0.96 
   7   1  10    0.24    0.12 
  -7  -1 -12    4.86    2.22 
   7   1  12    4.20    1.68 
  -7  -1 -14    0.21    0.69 
   7   1  14    0.51    0.24 
  -7  -2   3    3.26    1.38 
  -7  -2   3   20.67    8.18 
  -7  -2   1    4.38    1.85 
   7   2  -1   20.26    8.01 
   7   2   1    9.16    3.63 
  -7  -2  -3    9.03    3.70 
   7   2   3    9.45    3.74 
  -7  -2  -5    5.71    2.43 
  -7  -2  -7    4.99    2.19 
   7   2   7    4.76    1.89 
  -7  -2  -9    0.36    0.69 
  -7  -2 -11    0.72    0.82 
   7   2  11    1.16    0.48 
  -7  -2 -13    4.67    2.21 
   7   2  13    5.07    2.02 
  -7  -2 -15    0.04    0.74 
  -7  -3   6    0.04    0.31 
  -7  -3   6    0.03    0.24 
  -7  -3   4   18.65    7.39 
  -7  -3   4    8.60    3.47 
  -7  -3   2    0.37    0.23 
  -7  -3   2    0.19    0.38 
   7   3   0   19.63    7.76 
  -7  -3  -2    0.22    0.44 
   7   3   2    0.48    0.21 
  -7  -3  -4    7.10    2.96 
   7   3   4   17.28    6.83 
  -7  -3  -6    0.07    0.59 
   7   3   6    0.25    0.12 
  -7  -3  -8   10.73    4.48 
   7   3   8    8.90    3.53 
   7   3  10    0.15    0.09 
  -7  -3 -12    4.62    2.21 
   7   3  12    5.98    2.38 
  -7  -3 -14    0.24    0.73 
   7   3  14    0.70    0.31 
  -7  -4   9    1.80    0.75 
  -7  -4   7    0.79    0.56 
  -7  -4   7    2.02    0.84 
  -7  -4   5    5.12    2.07 
  -7  -4   5    4.63    1.88 
  -7  -4   3    2.45    1.01 
  -7  -4   3    2.40    1.03 
  -7  -4   1    0.69    0.35 
  -7  -4   1    0.48    0.39 
  -7  -4  -1    0.57    0.46 
   7   4   1    1.37    0.56 
  -7  -4  -3    2.45    1.16 
   7   4   3    5.51    2.19 
  -7  -4  -5    4.33    1.93 
   7   4   5    8.10    3.21 
  -7  -4  -7    1.60    1.04 
   7   4   7    2.53    1.02 
  -7  -4  -9    3.35    1.75 
   7   4   9    9.15    3.63 
  -7  -4 -11    3.63    1.91 
   7   4  11    8.56    3.39 
  -7  -4 -13    0.84    0.98 
   7   4  13    3.74    1.50 
  -7  -5  10    0.01    0.05 
  -7  -5   8    9.22    3.66 
  -7  -5   6    1.19    0.67 
  -7  -5   6    0.86    0.38 
  -7  -5   4    3.67    1.50 
  -7  -5   2    2.10    0.89 
  -7  -5   2    1.24    0.57 
  -7  -5   0    2.70    1.13 
  -7  -5   0    2.51    1.08 
  -7  -5  -2    2.31    0.98 
  -7  -5  -2    1.54    0.76 
  -7  -5  -4    4.84    2.07 
   7   5   4   13.01    5.15 
  -7  -5  -6    1.88    1.08 
  -7  -5  -8   15.44    6.32 
   7   5   8   23.81    9.41 
  -7  -5 -10    0.23    0.84 
   7   5  10    0.39    0.18 
  -7  -5 -12    2.29    1.38 
   7   5  12   14.53    5.75 
  -7  -6   9    5.78    2.31 
  -7  -6   7    2.72    1.33 
  -7  -6   7    3.62    1.46 
  -7  -6   5    6.36    2.59 
  -7  -6   5    6.07    2.43 
  -7  -6   3    0.03    0.18 
  -7  -6   3    0.02    0.13 
  -7  -6   1    7.01    2.81 
  -7  -6   1    4.61    1.87 
  -7  -6  -1    7.73    3.10 
  -7  -6  -1    4.87    2.00 
  -7  -6  -3    0.02    0.17 
  -7  -6  -3    0.04    0.31 
  -7  -6  -5    7.79    3.24 
   7   6   5   28.42   11.24 
  -7  -6  -7    5.69    2.47 
   7   6   7   12.09    4.79 
  -7  -6  -9    5.08    2.34 
   7   6   9   15.62    6.18 
   7   6  11    4.37    1.75 
  -7  -7   8    5.18    2.08 
  -7  -7   6    0.03    0.45 
  -7  -7   6    0.01    0.13 
  -7  -7   4    4.32    1.77 
  -7  -7   4    6.12    2.45 
  -7  -7   2    0.22    0.22 
  -7  -7   2    0.15    0.19 
  -7  -7   0    9.70    3.89 
  -7  -7   0   19.49    7.74 
  -7  -7  -2    0.51    0.32 
  -7  -7  -2    0.13    0.27 
  -7  -7  -4   11.80    4.71 
  -7  -7  -4    6.20    2.57 
  -7  -7  -6    0.02    0.17 
  -7  -7  -6   -0.03    0.43 
  -7  -7  -8    4.43    2.00 
  -7  -7  -8    6.71    2.73 
   7   7   8   21.82    8.63 
  -7  -7 -10    0.03    0.60 
   7   7  10    0.66    0.29 
  -7  -8   7    0.97    0.79 
  -7  -8   7    1.96    0.83 
  -7  -8   5    0.07    0.45 
  -7  -8   5    0.27    0.22 
  -7  -8   3    7.90    3.17 
  -7  -8   3    4.57    1.86 
  -7  -8   1    4.04    1.66 
  -7  -8  -1    7.21    2.90 
  -7  -8  -1    2.23    0.98 
  -7  -8  -3   13.55    5.40 
  -7  -8  -3    6.11    2.51 
  -7  -8  -5    0.29    0.26 
  -7  -8  -5    0.38    0.41 
  -7  -8  -7    3.23    1.35 
  -7  -8  -7    1.01    0.71 
  -7  -9   6    0.26    0.60 
  -7  -9   4    3.36    1.45 
  -7  -9   4    3.97    1.63 
  -7  -9   2    0.30    0.27 
  -7  -9   2    0.49    0.34 
  -7  -9   0    5.06    2.08 
  -7  -9   0    6.02    2.44 
  -7  -9  -2    0.53    0.32 
  -7  -9  -2    0.34    0.32 
  -7  -9  -4    7.40    2.98 
  -7  -9  -4    2.98    1.31 
  -7  -9  -6    1.02    0.53 
  -7  -9  -6    0.10    0.35 
  -7 -10   5    0.98    0.72 
  -7 -10   5    2.02    0.89 
  -7 -10   3    1.83    0.87 
  -7 -10   3    2.03    0.89 
  -7 -10   1    0.57    0.37 
  -7 -10   1    0.62    0.39 
  -7 -10  -1    0.50    0.37 
  -7 -10  -1    0.84    0.47 
  -7 -10  -3    1.10    0.59 
  -7 -11   4    3.72    1.63 
   8 -10  -2    6.78    2.91 
  -8  10   0   24.48    9.74 
   8 -10   0   29.53   11.83 
   8  -9  -5    0.24    0.59 
  -8   9   3    0.19    0.28 
   8  -9  -3    0.56    0.62 
  -8   9   1    9.57    3.86 
   8  -9  -1    8.18    3.41 
  -8   9  -1    4.52    1.88 
   8  -9   1    7.84    3.25 
  -8   9  -3    0.39    0.34 
   8  -9   3    0.50    0.51 
   8  -8  -6    1.25    0.56 
  -8   8   4   15.70    6.25 
   8  -8  -4    9.61    3.96 
  -8   8   2    3.37    1.41 
  -8   8   0    0.56    0.36 
   8  -8   0    1.83    0.94 
  -8   8  -2    2.22    0.95 
   8  -8   2    3.14    1.41 
  -8   8  -4    5.83    2.38 
   8  -8   4    8.49    3.48 
  -8   8  -6    0.05    0.39 
   8  -8   6    0.16    0.35 
   8  -7  -7   15.71    6.24 
  -8   7   5   13.25    5.28 
   8  -7  -5   13.82    5.57 
  -8   7   3   19.73    7.83 
   8  -7  -3   26.28   10.48 
  -8   7   1    2.04    0.88 
   8  -7  -1    4.17    1.80 
  -8   7  -1    2.85    1.19 
  -8   7  -3   21.22    8.45 
   8  -7   3   25.52   10.17 
  -8   7  -5   10.61    4.29 
   8  -7   5   11.92    4.81 
  -8   7  -7    0.80    0.66 
   8  -7   7    2.73    1.22 
   8  -6  -8    0.02    0.08 
   8  -6  -6   11.27    4.54 
  -8   6   4   37.86   14.98 
   8  -6  -4   32.20   12.79 
  -8   6   2    4.01    1.63 
   8  -6  -2    5.69    2.36 
  -8   6   0    0.22    0.25 
   8  -6   0    0.49    0.46 
  -8   6  -2    3.94    1.65 
   8  -6   2    5.47    2.28 
   8  -6   4   31.07   12.36 
  -8   6  -6    6.13    2.59 
   8  -6   6   11.36    4.58 
  -8   6  -8    0.06    0.56 
   8  -6   8    0.08    0.32 
  -8   6 -10    4.47    2.00 
   8  -5  -7    3.08    1.31 
   8  -5  -7    9.40    3.73 
  -8   5   5   11.28    4.48 
   8  -5  -5    8.27    3.35 
  -8   5   3    0.19    0.18 
   8  -5  -3    0.15    0.31 
  -8   5   1    3.03    1.25 
   8  -5  -1    4.58    1.91 
  -8   5  -1    3.10    1.33 
   8  -5   1    4.79    2.00 
  -8   5  -3    0.13    0.50 
   8  -5   3    0.21    0.34 
  -8   5  -5    4.37    1.92 
  -8   5  -7    1.59    0.92 
   8  -5   7    5.02    2.10 
  -8   5  -9    5.93    2.55 
   8  -5   9   10.11    4.09 
  -8   5 -11    1.06    0.75 
   8  -5  11    1.01    0.58 
   8  -4  -6    4.73    1.92 
   8  -4  -6   23.12    9.16 
  -8   4   4    0.29    0.19 
   8  -4  -4    0.64    0.40 
   8  -4  -2   15.13    6.04 
  -8   4   0    8.80    3.56 
   8  -4   0   27.85   11.06 
  -8   4  -2    9.90    4.02 
   8  -4   2   15.40    6.16 
  -8   4  -4    0.15    0.45 
   8  -4   4    0.71    0.46 
  -8   4  -6    5.59    2.35 
  -8   4  -8   68.17   27.01 
   8  -4   8   55.62   22.02 
  -8   4 -10    3.06    1.51 
   8  -4  10   13.68    5.48 
  -8   4 -12   -0.01    0.62 
  -8   3   5    5.22    2.09 
   8  -3  -5    2.72    1.09 
  -8   3   3    1.89    0.78 
   8  -3  -3    2.87    1.18 
   8  -3  -1   16.64    6.62 
  -8   3  -1    9.33    3.80 
   8  -3   1   16.55    6.59 
  -8   3  -3    2.65    1.21 
   8  -3   3    3.28    1.37 
  -8   3  -5    0.26    0.59 
   8  -3   5    5.16    2.12 
  -8   3  -7    4.25    1.91 
  -8   3  -9    4.36    2.04 
   8  -3   9   29.43   11.68 
  -8   3 -11    0.05    0.64 
   8  -3  11    1.22    0.59 
  -8   2   4    0.36    0.18 
   8  -2  -4    0.59    0.24 
  -8   2   2   -0.04    0.32 
   8  -2  -2    0.33    0.17 
   8  -2   0    7.57    3.02 
  -8   2  -2   -0.04    0.48 
   8  -2   2    0.47    0.27 
  -8   2  -4   -0.06    0.51 
   8  -2   4    0.83    0.41 
  -8   2  -6    0.14    0.48 
   8  -2   6    4.83    1.96 
   8  -2   8   11.79    4.70 
  -8   2 -10   -0.07    0.50 
  -8   2 -12   -0.05    0.57 
   8  -2  12    1.29    0.58 
  -8   1   3    1.68    0.77 
   8  -1  -3   24.07    9.51 
  -8   1   1    0.13    0.44 
   8  -1  -1    0.08    0.07 
  -8   1  -1    0.06    0.43 
   8  -1   1    0.06    0.09 
  -8   1  -3    2.49    1.22 
   8  -1   3   16.44    6.51 
  -8   1  -5    0.84    0.70 
   8  -1   5   11.22    4.46 
  -8   1  -7   -0.09    0.51 
   8  -1   7    0.65    0.31 
  -8   1  -9    0.04    0.54 
   8  -1   9    0.66    0.32 
  -8   1 -11    1.04    0.88 
   8  -1  11    6.52    2.61 
  -8   1 -13   -0.36    0.91 
   8  -1  13   12.58    5.00 
  -8   0   2    1.76    0.93 
   8   0  -2   29.59   11.69 
  -8   0   0   -0.11    0.42 
  -8   0  -2    4.51    1.97 
   8   0   2   12.92    5.11 
  -8   0  -4   14.78    5.98 
   8   0   4   40.98   16.18 
  -8   0  -6    4.45    2.02 
   8   0   6   15.06    5.96 
  -8   0  -8    0.57    0.79 
  -8   0 -10    1.20    1.00 
   8   0  10    4.87    1.95 
  -8   0 -12    6.83    3.00 
   8   0  12   22.78    9.01 
  -8  -1   3    0.95    0.59 
  -8  -1   3   51.02   20.18 
  -8  -1   1    0.25    0.51 
   8   1  -1    0.18    0.10 
  -8  -1  -1    0.08    0.49 
   8   1   1    0.09    0.07 
  -8  -1  -3    7.57    3.18 
   8   1   3   17.25    6.82 
  -8  -1  -5    4.00    1.85 
   8   1   5    9.60    3.80 
  -8  -1  -7    0.01    0.67 
   8   1   7    0.46    0.21 
  -8  -1  -9   -0.07    0.72 
   8   1   9    0.52    0.23 
  -8  -1 -11    1.27    1.00 
   8   1  11    5.96    2.37 
  -8  -1 -13    1.64    1.19 
   8   1  13   12.61    4.99 
  -8  -2   4   -0.04    0.33 
  -8  -2   4    0.61    0.30 
  -8  -2   2    0.98    0.44 
  -8  -2   2    0.01    0.52 
   8   2   0   22.63    8.94 
  -8  -2  -2    0.04    0.57 
   8   2   2    0.81    0.34 
  -8  -2  -4   -0.07    0.57 
   8   2   4    0.72    0.30 
  -8  -2  -6    0.77    0.84 
   8   2   6    4.07    1.62 
   8   2   8    9.97    3.95 
  -8  -2 -10    0.07    0.88 
  -8  -2 -12   -0.05    0.81 
   8   2  12    1.12    0.47 
  -8  -3   5    1.34    0.71 
  -8  -3   5    3.71    1.52 
  -8  -3   3    1.32    0.82 
  -8  -3   3    4.70    1.89 
  -8  -3   1   28.66   11.35 
  -8  -3  -1   12.24    5.03 
   8   3   1   48.70   19.23 
  -8  -3  -3    1.82    1.12 
   8   3   3    5.59    2.22 
  -8  -3  -5    1.94    1.23 
   8   3   5    6.23    2.47 
  -8  -3  -7   17.59    7.26 
   8   3   7   34.83   13.75 
  -8  -3  -9    9.42    4.08 
   8   3   9   25.27    9.98 
  -8  -3 -11    0.11    0.78 
   8   3  11    1.26    0.52 
  -8  -4   6    1.45    0.77 
  -8  -4   4    0.40    0.25 
  -8  -4   4    0.18    0.49 
  -8  -4   2   26.32   10.42 
  -8  -4   2   10.12    4.19 
  -8  -4   0   25.41   10.19 
  -8  -4   0   41.43   16.39 
  -8  -4  -2    6.56    2.83 
   8   4   2   50.39   19.89 
  -8  -4  -4    0.17    0.69 
   8   4   4    1.32    0.54 
  -8  -4  -6    1.39    1.19 
  -8  -4  -8   27.29   11.05 
   8   4   8   68.17   26.90 
  -8  -4 -10    4.71    2.33 
   8   4  10   18.22    7.20 
  -8  -4 -12   -0.03    0.77 
  -8  -5   7   -0.02    0.19 
  -8  -5   5    0.16    0.27 
  -8  -5   3    0.06    0.16 
  -8  -5   3    0.30    0.43 
  -8  -5   1    7.55    3.04 
  -8  -5   1    4.12    1.81 
  -8  -5  -1    6.08    2.45 
  -8  -5  -1    4.08    1.83 
  -8  -5  -3    0.19    0.19 
  -8  -5  -3    0.26    0.64 
   8   5   3    0.93    0.40 
   8   5   5   25.02    9.89 
  -8  -5  -7    0.87    1.03 
   8   5   7    9.71    3.85 
  -8  -5  -9    1.22    1.16 
   8   5   9   19.08    7.55 
  -8  -5 -11    0.04    0.93 
  -8  -6   6    0.69    0.37 
  -8  -6   4   17.11    6.78 
  -8  -6   4   26.89   10.67 
  -8  -6   2    2.64    1.09 
  -8  -6   2    4.96    2.06 
  -8  -6   0    0.57    0.32 
  -8  -6   0    0.28    0.44 
  -8  -6  -2    6.74    2.71 
  -8  -6  -2    5.20    2.24 
  -8  -6  -4   46.61   18.44 
  -8  -6  -4   16.37    6.73 
  -8  -6  -6    5.84    2.63 
   8   6   6   54.57   21.54 
  -8  -6  -8    0.01    0.73 
   8   6   8    0.24    0.13 
  -8  -6 -10    1.02    1.08 
  -8  -7   5   11.01    4.40 
  -8  -7   3   13.40    5.33 
  -8  -7   3   18.42    7.33 
  -8  -7   1    1.51    0.66 
  -8  -7   1    2.76    1.21 
  -8  -7  -3   35.53   14.06 
  -8  -7  -3   23.49    9.40 
  -8  -7  -5   20.78    8.25 
  -8  -7  -5   13.00    5.32 
  -8  -7  -7    5.07    2.07 
  -8  -7  -7    1.72    1.13 
  -8  -8   4    6.16    2.52 
  -8  -8   4    5.75    2.34 
  -8  -8   2    0.76    0.39 
  -8  -8   0    0.81    0.40 
  -8  -8   0    0.64    0.45 
  -8  -8  -2    3.93    1.62 
  -8  -8  -2    1.49    0.81 
  -8  -8  -4   14.36    5.73 
  -8  -8  -4    6.60    2.78 
  -8  -8  -6    0.21    0.25 
  -8  -8  -6    0.20    0.50 
  -8  -9   3    0.23    0.35 
  -8  -9   3    0.02    0.21 
  -8  -9   1    3.93    1.66 
  -8  -9   1    3.90    1.59 
  -8  -9  -1    4.34    1.78 
  -8  -9  -1    3.92    1.68 
  -8  -9  -3    0.31    0.27 
  -8  -9  -3    0.07    0.35 
  -8 -10   2    3.47    1.51 
  -8 -10   2    2.70    1.16 
  -8 -10   0   12.52    4.98 
  -8 -10   0   12.50    5.06 
   9  -9   0    5.87    2.46 
   9  -8  -1    0.04    0.45 
  -9   8  -1   -0.01    0.26 
   9  -8   1    0.07    0.42 
  -9   8  -3    2.11    0.96 
   9  -8   3    4.87    2.09 
  -9   8  -5    3.30    1.43 
   9  -7  -2    9.00    3.68 
  -9   7   0    2.32    1.01 
   9  -7   0    2.60    1.21 
  -9   7  -2    4.71    1.94 
   9  -7   2   10.18    4.14 
  -9   7  -4   15.13    6.08 
   9  -7   4   20.21    8.07 
  -9   7  -6    0.94    0.81 
   9  -7   6   10.56    4.28 
  -9   6   1    1.98    0.85 
   9  -6  -1    1.81    0.89 
  -9   6  -1    0.72    0.43 
   9  -6   1    2.04    0.98 
  -9   6  -3   13.35    5.36 
   9  -6   3   24.11    9.62 
  -9   6  -5    1.46    0.96 
   9  -6   5   16.81    6.73 
  -9   6  -7    0.37    0.72 
   9  -6   7    2.95    1.29 
   9  -5  -4    2.74    1.21 
  -9   5   2   -0.03    0.16 
   9  -5  -2    0.25    0.34 
  -9   5   0    3.28    1.36 
   9  -5   0    7.88    3.22 
  -9   5  -2   -0.06    0.39 
   9  -5   2    0.29    0.38 
   9  -5   4    4.20    1.78 
  -9   5  -6   -0.01    0.58 
   9  -5   6    0.16    0.33 
  -9   5  -8    0.34    0.72 
   9  -5   8    6.07    2.50 
  -9   4   3    0.43    0.26 
  -9   4   1   18.28    7.26 
   9  -4  -1   27.03   10.74 
  -9   4  -1    2.06    1.04 
   9  -4   1   28.78   11.44 
  -9   4  -3    0.64    0.70 
   9  -4   3    7.59    3.09 
   9  -4   5    1.85    0.87 
  -9   4  -7   15.73    6.38 
   9  -4   7   30.94   12.28 
  -9   4  -9   16.56    6.71 
   9  -4   9   29.49   11.71 
  -9   3   4    1.48    0.61 
   9  -3  -4    2.66    1.07 
  -9   3   2    8.92    3.56 
  -9   3   0    2.17    1.16 
   9  -3   0   21.74    8.63 
  -9   3  -2    1.89    1.03 
   9  -3   2   16.01    6.38 
  -9   3  -4    0.90    0.71 
   9  -3   4    4.64    1.91 
  -9   3  -6   -0.08    0.75 
   9  -3   6   13.22    5.28 
  -9   3  -8    0.71    1.03 
   9  -3   8   39.84   15.77 
  -9   3 -10    0.06    0.84 
   9  -3  10   14.66    5.84 
  -9   2   3    0.06    0.15 
   9  -2  -3    0.03    0.05 
   9  -2  -1    3.80    1.52 
  -9   2  -1    0.89    0.67 
   9  -2   1    4.87    1.95 
  -9   2  -3   -0.06    0.53 
   9  -2   3    0.05    0.13 
  -9   2  -5    0.09    0.59 
   9  -2   5    0.05    0.14 
  -9   2  -7   -0.07    0.60 
   9  -2   7    4.45    1.80 
  -9   2  -9   -0.13    0.71 
   9  -2   9    9.30    3.71 
  -9   2 -11   -0.03    0.54 
   9  -2  11    0.12    0.14 
  -9   1   2   -0.06    0.43 
   9  -1  -2    7.92    3.14 
  -9   1   0    0.12    0.44 
   9  -1   0    0.04    0.05 
  -9   1  -2   -0.19    0.70 
   9  -1   2    4.97    1.98 
  -9   1  -4    0.27    0.71 
   9  -1   4   18.99    7.52 
  -9   1  -6   -0.38    0.64 
  -9   1  -8   -0.09    0.53 
   9  -1   8    0.62    0.29 
  -9   1 -10   -0.36    0.64 
   9  -1  10    3.33    1.35 
  -9   0   3    6.61    2.69 
   9   0  -3  281.67  111.32 
  -9   0   1   -0.05    0.60 
  -9   0  -1   -0.01    0.54 
   9   0   1    5.51    2.19 
  -9   0  -3    0.75    0.84 
   9   0   3   40.42   15.96 
  -9   0  -5    3.05    1.60 
   9   0   5   33.47   13.22 
   9   0   7    6.77    2.69 
  -9   0  -9   -0.10    0.89 
   9   0   9   11.03    4.37 
  -9   0 -11    0.43    1.02 
   9   0  11   15.90    6.30 
  -9  -1   2   -0.23    0.43 
   9   1  -2   31.21   12.33 
  -9  -1   0    0.02    0.43 
   9   1   0    0.07    0.06 
  -9  -1  -2    0.09    0.68 
   9   1   2    7.86    3.12 
  -9  -1  -4    0.93    1.00 
   9   1   4   22.75    8.99 
  -9  -1  -6   -0.12    0.79 
  -9  -1  -8   -0.09    0.68 
   9   1   8    0.57    0.25 
  -9  -1 -10   -0.39    0.82 
   9   1  10    3.47    1.39 
  -9  -2   3    0.03    0.41 
   9   2  -1   34.98   13.82 
  -9  -2  -1    1.15    0.90 
   9   2   1   18.09    7.15 
  -9  -2  -3   -0.02    0.65 
   9   2   3    0.03    0.06 
  -9  -2  -5    0.06    0.73 
   9   2   5    0.04    0.06 
  -9  -2  -7    0.21    0.86 
   9   2   7    5.46    2.17 
  -9  -2  -9    0.21    0.96 
   9   2   9   10.99    4.36 
  -9  -2 -11   -0.06    0.71 
   9   2  11    0.11    0.09 
  -9  -3   4    0.14    0.46 
  -9  -3   0   24.03    9.52 
  -9  -3   0    5.25    2.39 
  -9  -3  -2    2.47    1.41 
   9   3   2   51.16   20.20 
  -9  -3  -4    0.21    0.80 
   9   3   4    8.90    3.53 
  -9  -3  -6    0.60    0.98 
   9   3   6   19.75    7.81 
  -9  -3  -8    3.70    1.98 
   9   3   8   56.53   22.31 
  -9  -3 -10    0.69    1.07 
   9   3  10   21.60    8.54 
  -9  -4   1   31.45   12.44 
  -9  -4   1    8.89    3.81 
  -9  -4  -1   24.74    9.80 
  -9  -4  -1    7.78    3.41 
  -9  -4  -3    0.75    1.06 
   9   4   3   29.15   11.52 
   9   4   5    4.18    1.67 
  -9  -4  -7    3.45    2.03 
   9   4   7   61.12   24.13 
  -9  -4  -9    1.56    1.40 
   9   4   9   50.48   19.93 
  -9  -5   2   -0.09    0.44 
  -9  -5   0    7.54    3.02 
  -9  -5   0    0.42    0.83 
  -9  -5  -2    0.07    0.16 
  -9  -5  -2    0.06    0.71 
  -9  -5  -4    0.34    0.90 
   9   5   4   19.90    7.88 
  -9  -5  -6   -0.03    0.83 
   9   5   6    0.36    0.17 
  -9  -5  -8   -0.40    0.97 
   9   5   8   17.35    6.87 
  -9  -6   3    0.40    0.54 
  -9  -6   1    0.96    0.45 
  -9  -6   1    1.02    0.86 
  -9  -6  -1    0.97    0.89 
  -9  -6  -3   25.86   10.25 
  -9  -6  -3    8.57    3.71 
  -9  -6  -5    4.29    2.19 
  -9  -6  -5   19.59    7.78 
  -9  -6  -7    0.16    0.82 
   9   6   7   16.40    6.49 
  -9  -7   2    5.65    2.43 
  -9  -7   0    1.65    0.73 
  -9  -7  -2    4.71    2.16 
  -9  -7  -2    9.71    3.88 
  -9  -7  -4   26.35   10.45 
  -9  -7  -4    8.53    3.67 
  -9  -7  -6    1.27    1.27 
  -9  -7  -6   13.68    5.47 
  -9  -8  -1    0.07    0.50 
  -9  -8  -1    0.02    0.16 
  -9  -8  -3    3.78    1.56 
  -9  -8  -3    1.39    1.00 
  -9  -9  -2    1.04    0.78 
  10  -7   3    0.10    0.34 
  10  -6   2    0.19    0.38 
 -10   6  -4   -0.10    0.53 
  10  -6   4    2.49    1.16 
 -10   6  -6   -0.13    0.56 
  10  -6   6    0.14    0.35 
  10  -5   1    0.62    0.41 
 -10   5  -3   -0.50    0.58 
  10  -5   3    4.82    2.01 
 -10   5  -5   -0.32    0.73 
  10  -5   5    0.88    0.52 
 -10   5  -7   -0.23    0.73 
  10  -5   7    0.88    0.51 
 -10   4  -2   -0.19    0.51 
  10  -4   2    1.56    0.72 
 -10   4  -4   -0.54    0.81 
  10  -4   4    6.73    2.74 
 -10   4  -6    0.00    0.63 
  10  -4   6    0.12    0.21 
 -10   4  -8   -0.25    0.70 
  10  -4   8    0.84    0.44 
 -10   3  -1   -0.13    0.54 
  10  -3   1    0.16    0.15 
 -10   3  -3   -0.38    0.64 
  10  -3   3    4.31    1.75 
 -10   3  -5   -0.19    0.66 
  10  -3   5    5.67    2.29 
 -10   3  -7   -0.17    0.67 
  10  -3   7    0.41    0.24 
 -10   3  -9   -0.36    0.79 
 -10   2   0   -0.50    0.56 
  10  -2   0    1.70    0.70 
 -10   2  -2    0.03    0.48 
  10  -2   2    0.01    0.09 
 -10   2  -4   -0.44    0.74 
 -10   2  -6   -0.14    0.65 
  10  -2   6    0.35    0.20 
 -10   2  -8   -0.61    0.86 
  10  -2   8    2.99    1.22 
  10  -1  -3    2.18    0.88 
  10  -1  -1    5.18    2.06 
 -10   1  -1   -0.03    0.60 
  10  -1   1    3.26    1.31 
 -10   1  -3   -0.09    0.59 
  10  -1   3    0.23    0.13 
  10  -1   5    0.76    0.34 
 -10   1  -7   -0.27    0.58 
  10  -1   7    1.89    0.77 
 -10   1  -9   -0.44    0.69 
  10  -1   9    2.01    0.82 
  10   0  -2    6.89    2.74 
 -10   0  -2   -0.11    0.50 
  10   0   2    1.35    0.56 
 -10   0  -4   -0.14    0.58 
  10   0   4    0.52    0.24 
 -10   0  -6   -0.19    0.55 
  10   0   6    0.42    0.20 
 -10   0  -8   -0.45    0.70 
  10   0   8    3.64    1.46 
 -10   0 -10   -0.08    0.70 
  10   1  -1   20.86    8.25 
 -10  -1  -3   -0.07    0.59 
  10   1   3    0.40    0.19 
  10   1   5    1.09    0.46 
 -10  -1  -7   -0.25    0.76 
  10   1   7    2.42    0.98 
 -10  -1  -9   -0.56    0.85 
  10   1   9    2.49    1.00 
 -10  -2   0   -0.24    0.68 
  10   2   0   15.18    6.01 
 -10  -2  -2    0.10    0.68 
  10   2   2    0.02    0.06 
 -10  -2  -4   -0.37    0.76 
 -10  -2  -6   -0.15    0.64 
  10   2   6    0.67    0.29 
 -10  -2  -8   -0.42    0.72 
  10   2   8    5.02    2.00 
 -10  -3  -1   -0.07    0.62 
  10   3   1    1.81    0.74 
 -10  -3  -3   -0.38    0.79 
  10   3   3   21.76    8.61 
 -10  -3  -5   -0.36    0.81 
  10   3   5   16.84    6.67 
 -10  -3  -7   -0.07    0.73 
  10   3   7    0.91    0.39 
 -10  -3  -9   -0.36    0.85 
 -10  -4   0   -0.08    0.42 
 -10  -4  -2    0.25    0.21 
 -10  -4  -2   -0.12    0.71 
 -10  -4  -4   -0.21    0.75 
  10   4   4   32.47   12.84 
 -10  -4  -6    0.01    0.66 
  10   4   6    0.35    0.17 
 -10  -4  -8   -0.17    0.80 
  10   4   8    1.96    0.80 
 -10  -5  -1    0.02    0.19 
 -10  -5  -1    0.01    0.54 
 -10  -5  -3    1.31    0.61 
 -10  -5  -3   -0.32    0.86 
 -10  -5  -5   -0.06    0.87 
  10   5   5    3.58    1.44 
 -10  -5  -7   -0.24    0.82 
  10   5   7    4.30    1.73 
 -10  -6  -4    0.34    0.26 
 -10  -6  -4   -0.06    0.97 
 -10  -6  -6   -0.08    0.91 
  11  -4   5    6.47    2.63 
  11  -3   4   16.34    6.49 
  11  -3   6    3.76    1.55 
  11  -2   5    4.80    1.93 
  11  -2   7    0.27    0.19 
  11  -1   2    3.84    1.54 
  11  -1   4    0.04    0.07 
  11  -1   6    1.05    0.46 
 -11   1  -8   -0.31    0.64 
  11   0   5    3.03    1.22 
  11   1   2   11.68    4.64 
  11   1   4    0.06    0.08 
  11   1   6    1.54    0.64 
 -11  -1  -8   -0.27    0.62 
  11   2   3   14.55    5.77 
  11   2   5   14.92    5.92 
  11   2   7    0.60    0.29 
  11   3   4  114.37   45.15 
  11   3   6   17.49    6.94 
  11   4   5   79.04   31.23 
   0   0   0    0.00    0.00 
;
_shelx_hkl_checksum              22253
loop_
_space_group_symop_operation_xyz
'x, y, z'
'-x, -y, z'
'x, -y, -z'
'-x, y, -z'
'x+1/2, y+1/2, z+1/2'
'-x+1/2, -y+1/2, z+1/2'
'x+1/2, -y+1/2, -z+1/2'
'-x+1/2, y+1/2, -z+1/2'
'-x, -y, -z'
'x, y, -z'
'-x, y, z'
'x, -y, z'
'-x+1/2, -y+1/2, -z+1/2'
'x+1/2, y+1/2, -z+1/2'
'-x+1/2, y+1/2, z+1/2'
'x+1/2, -y+1/2, z+1/2'
loop_
_atom_site_label
_atom_site_type_symbol
_atom_site_fract_x
_atom_site_fract_y
_atom_site_fract_z
_atom_site_U_iso_or_equiv
_atom_site_adp_type
_atom_site_occupancy
_atom_site_site_symmetry_order
_atom_site_calc_flag
_atom_site_refinement_flags_posn
_atom_site_refinement_flags_adp
_atom_site_refinement_flags_occupancy
Zr1 Zr 0.500000 0.500000 0.12350(10) 0.0460(10) Uani 1 4 d S T P
Zr2 Zr 0.32365(18) 0.35226(12) 0.000000 0.0475(10) Uani 1 2 d S T P
O1 O 0.3675(12) 0.3908(8) 0.1822(5) 0.062(2) Uani 1 1 d . . .
O2 O 0.2520(12) 0.2903(8) 0.1028(5) 0.072(3) Uani 1 1 d . . .
O3 O 0.3215(18) 0.500000 0.0629(9) 0.085(6) Uani 1 2 d S T P
O4 O 0.500000 0.6458(17) 0.0572(9) 0.098(6) Uani 1 2 d S T P
O5 O 0.1127(18) 0.3665(12) 0.000000 0.066(4) Uani 1 2 d S T P
O6 O 0.3283(17) 0.1669(12) 0.000000 0.072(5) Uani 1 2 d S T P
C1 C 0.2855(19) 0.3159(16) 0.1641(7) 0.074(5) Uani 1 1 d . . .
C2 C 0.221(3) 0.249(2) 0.2201(8) 0.129(10) Uani 1 1 d D . .
H2 H 0.141306 0.206694 0.212698 0.155 Uiso 1 1 calc R U .
C3 C 0.000000 0.336(4) 0.0193(19) 0.085(18) Uani 0.5 2 d S T P
H3 H 0.000000 0.281225 0.054035 0.102 Uiso 0.5 2 calc R U P
O1W O 0.000000 0.500000 0.138(2) 0.139(13) Uani 1 4 d S T P
O2W O 0.215(4) 0.500000 0.3978(14) 0.173(14) Uani 1 2 d S T P
O3W O 0.000000 0.388(4) 0.364(3) 0.149(19) Uani 0.5 2 d S T P
loop_
_atom_site_aniso_label
_atom_site_aniso_U_11
_atom_site_aniso_U_22
_atom_site_aniso_U_33
_atom_site_aniso_U_23
_atom_site_aniso_U_13
_atom_site_aniso_U_12
Zr1 0.068(2) 0.0314(16) 0.0387(15) 0.000 0.000 0.000
Zr2 0.0659(18) 0.0341(14) 0.0425(14) 0.000 0.000 -0.0038(6)
O1 0.086(7) 0.040(5) 0.061(5) 0.003(4) -0.002(5) -0.009(5)
O2 0.108(9) 0.056(6) 0.051(6) 0.004(4) 0.003(6) -0.024(6)
O3 0.140(17) 0.037(8) 0.077(11) 0.000 -0.039(10) 0.000
O4 0.088(13) 0.134(17) 0.072(11) 0.043(10) 0.000 0.000
O5 0.088(13) 0.051(8) 0.061(9) 0.000 0.000 -0.013(8)
O6 0.116(14) 0.039(7) 0.062(9) 0.000 0.000 -0.013(7)
C1 0.094(13) 0.085(12) 0.043(8) 0.005(8) 0.007(8) -0.008(10)
C2 0.18(2) 0.108(17) 0.094(15) 0.035(13) -0.056(16) -0.063(17)
C3 0.16(6) 0.05(2) 0.04(3) 0.011(15) 0.000 0.000
O1W 0.17(3) 0.08(2) 0.17(3) 0.000 0.000 0.000
O2W 0.34(4) 0.023(9) 0.15(2) 0.000 -0.02(2) 0.000
O3W 0.16(5) 0.10(4) 0.19(5) 0.01(3) 0.000 0.000
loop_
_atom_type_symbol
_atom_type_description
_atom_type_scat_dispersion_real
_atom_type_scat_dispersion_imag
_atom_type_scat_source
C C 0.0051 0.0024 'International Tables Vol C Tables 4.2.6.8 and 6.1.1.4'
H H 0.0000 0.0000 'International Tables Vol C Tables 4.2.6.8 and 6.1.1.4'
O O 0.0160 0.0088 'International Tables Vol C Tables 4.2.6.8 and 6.1.1.4'
Zr Zr -1.4547 0.7529 'International Tables Vol C Tables 4.2.6.8 and 6.1.1.4'
loop_
_geom_angle_atom_site_label_1
_geom_angle_atom_site_label_2
_geom_angle_atom_site_label_3
_geom_angle
_geom_angle_site_symmetry_1
_geom_angle_site_symmetry_3
O3 Zr1 O3 112.1(11) . 2_665
O3 Zr1 O4 70.3(3) . 2_665
O3 Zr1 O4 70.3(3) 2_665 2_665
O3 Zr1 O4 70.3(3) . .
O3 Zr1 O4 70.3(3) 2_665 .
O4 Zr1 O4 105.9(11) 2_665 .
O3 Zr1 O1 78.2(5) . .
O3 Zr1 O1 142.9(3) 2_665 .
O4 Zr1 O1 81.1(5) 2_665 .
O4 Zr1 O1 142.6(3) . .
O3 Zr1 O1 142.9(3) . 2_665
O3 Zr1 O1 78.2(5) 2_665 2_665
O4 Zr1 O1 142.6(3) 2_665 2_665
O4 Zr1 O1 81.1(5) . 2_665
O1 Zr1 O1 115.9(5) . 2_665
O3 Zr1 O1 78.2(5) . 12_565
O3 Zr1 O1 142.9(3) 2_665 12_565
O4 Zr1 O1 142.6(3) 2_665 12_565
O4 Zr1 O1 81.1(5) . 12_565
O1 Zr1 O1 72.9(5) . 12_565
O1 Zr1 O1 74.3(6) 2_665 12_565
O3 Zr1 O1 142.9(3) . 11_655
O3 Zr1 O1 78.2(5) 2_665 11_655
O4 Zr1 O1 81.1(5) 2_665 11_655
O4 Zr1 O1 142.6(3) . 11_655
O1 Zr1 O1 74.3(6) . 11_655
O1 Zr1 O1 72.9(5) 2_665 11_655
O1 Zr1 O1 115.9(5) 12_565 11_655
O3 Zr1 Zr2 35.9(3) . .
O3 Zr1 Zr2 91.6(5) 2_665 .
O4 Zr1 Zr2 34.4(2) 2_665 .
O4 Zr1 Zr2 88.9(5) . .
O1 Zr1 Zr2 76.5(3) . .
O1 Zr1 Zr2 167.6(3) 2_665 .
O1 Zr1 Zr2 111.5(3) 12_565 .
O1 Zr1 Zr2 112.1(3) 11_655 .
O3 Zr1 Zr2 35.9(3) . 3_565
O3 Zr1 Zr2 91.6(5) 2_665 3_565
O4 Zr1 Zr2 88.9(5) 2_665 3_565
O4 Zr1 Zr2 34.4(2) . 3_565
O1 Zr1 Zr2 111.5(3) . 3_565
O1 Zr1 Zr2 112.1(3) 2_665 3_565
O1 Zr1 Zr2 76.5(3) 12_565 3_565
O1 Zr1 Zr2 167.6(3) 11_655 3_565
Zr2 Zr1 Zr2 60.62(6) . 3_565
O3 Zr1 Zr2 91.6(5) . 11_655
O3 Zr1 Zr2 35.9(3) 2_665 11_655
O4 Zr1 Zr2 34.4(2) 2_665 11_655
O4 Zr1 Zr2 88.9(5) . 11_655
O1 Zr1 Zr2 112.1(3) . 11_655
O1 Zr1 Zr2 111.5(3) 2_665 11_655
O1 Zr1 Zr2 167.6(3) 12_565 11_655
O1 Zr1 Zr2 76.5(3) 11_655 11_655
Zr2 Zr1 Zr2 60.60(6) . 11_655
Zr2 Zr1 Zr2 91.06(7) 3_565 11_655
O3 Zr1 Zr2 91.6(5) . 9_665
O3 Zr1 Zr2 35.9(3) 2_665 9_665
O4 Zr1 Zr2 88.9(5) 2_665 9_665
O4 Zr1 Zr2 34.4(2) . 9_665
O1 Zr1 Zr2 167.6(3) . 9_665
O1 Zr1 Zr2 76.5(3) 2_665 9_665
O1 Zr1 Zr2 112.1(3) 12_565 9_665
O1 Zr1 Zr2 111.5(3) 11_655 9_665
Zr2 Zr1 Zr2 91.06(7) . 9_665
Zr2 Zr1 Zr2 60.60(6) 3_565 9_665
Zr2 Zr1 Zr2 60.62(6) 11_655 9_665
O4 Zr2 O4 65.5(8) 2_665 9_665
O4 Zr2 O5 146.9(4) 2_665 .
O4 Zr2 O5 146.9(4) 9_665 .
O4 Zr2 O3 71.8(6) 2_665 .
O4 Zr2 O3 108.2(7) 9_665 .
O5 Zr2 O3 85.7(6) . .
O4 Zr2 O3 108.2(7) 2_665 10
O4 Zr2 O3 71.8(6) 9_665 10
O5 Zr2 O3 85.7(6) . 10
O3 Zr2 O3 70.5(8) . 10
O4 Zr2 O6 89.6(7) 2_665 .
O4 Zr2 O6 89.6(7) 9_665 .
O5 Zr2 O6 95.8(6) . .
O3 Zr2 O6 144.7(4) . .
O3 Zr2 O6 144.7(4) 10 .
O4 Zr2 O2 138.6(5) 2_665 10
O4 Zr2 O2 77.5(5) 9_665 10
O5 Zr2 O2 73.3(3) . 10
O3 Zr2 O2 141.0(5) . 10
O3 Zr2 O2 75.3(5) 10 10
O6 Zr2 O2 71.5(3) . 10
O4 Zr2 O2 77.5(5) 2_665 .
O4 Zr2 O2 138.6(5) 9_665 .
O5 Zr2 O2 73.3(3) . .
O3 Zr2 O2 75.3(5) . .
O3 Zr2 O2 141.0(5) 10 .
O6 Zr2 O2 71.5(3) . .
O2 Zr2 O2 126.4(5) 10 .
O4 Zr2 Zr1 36.0(5) 2_665 .
O4 Zr2 Zr1 87.1(5) 9_665 .
O5 Zr2 Zr1 117.5(2) . .
O3 Zr2 Zr1 35.8(4) . .
O3 Zr2 Zr1 89.9(5) 10 .
O6 Zr2 Zr1 119.6(3) . .
O2 Zr2 Zr1 161.3(3) 10 .
O2 Zr2 Zr1 72.3(3) . .
O4 Zr2 Zr1 87.1(5) 2_665 9_665
O4 Zr2 Zr1 36.0(5) 9_665 9_665
O5 Zr2 Zr1 117.5(2) . 9_665
O3 Zr2 Zr1 89.9(5) . 9_665
O3 Zr2 Zr1 35.8(4) 10 9_665
O6 Zr2 Zr1 119.6(3) . 9_665
O2 Zr2 Zr1 72.3(3) 10 9_665
O2 Zr2 Zr1 161.3(3) . 9_665
Zr1 Zr2 Zr1 88.94(7) . 9_665
O4 Zr2 Zr2 32.8(4) 2_665 11_655
O4 Zr2 Zr2 32.8(4) 9_665 11_655
O5 Zr2 Zr2 175.4(4) . 11_655
O3 Zr2 Zr2 90.6(5) . 11_655
O3 Zr2 Zr2 90.6(5) 10 11_655
O6 Zr2 Zr2 88.8(4) . 11_655
O2 Zr2 Zr2 108.3(3) 10 11_655
O2 Zr2 Zr2 108.3(3) . 11_655
Zr1 Zr2 Zr2 59.70(3) . 11_655
Zr1 Zr2 Zr2 59.70(3) 9_665 11_655
O4 Zr2 Zr2 89.4(5) 2_665 3_565
O4 Zr2 Zr2 89.4(5) 9_665 3_565
O5 Zr2 Zr2 85.4(4) . 3_565
O3 Zr2 Zr2 35.3(4) . 3_565
O3 Zr2 Zr2 35.3(4) 10 3_565
O6 Zr2 Zr2 178.8(4) . 3_565
O2 Zr2 Zr2 108.9(3) 10 3_565
O2 Zr2 Zr2 108.9(3) . 3_565
Zr1 Zr2 Zr2 59.69(3) . 3_565
Zr1 Zr2 Zr2 59.69(3) 9_665 3_565
Zr2 Zr2 Zr2 90.0 11_655 3_565
C1 O1 Zr1 131.4(9) . .
C1 O2 Zr2 132.8(10) . .
Zr1 O3 Zr2 108.3(5) . .
Zr1 O3 Zr2 108.3(6) . 3_565
Zr2 O3 Zr2 109.5(8) . 3_565
Zr2 O4 Zr2 114.5(8) 3_565 9_665
Zr2 O4 Zr1 109.5(6) 3_565 .
Zr2 O4 Zr1 109.5(6) 9_665 .
C3 O5 C3 36(4) 10 .
C3 O5 Zr2 151.6(19) 10 .
C3 O5 Zr2 151.6(19) . .
O1 C1 O2 126.8(14) . .
O1 C1 C2 116.3(13) . .
O2 C1 C2 116.8(15) . .
C2 C2 C1 117(3) 13 .
C2 C2 H2 121.5 13 .
C1 C2 H2 121.5 . .
O5 C3 O5 130(4) . 11
O5 C3 H3 115.1 . .
O5 C3 H3 115.1 11 .
loop_
_geom_bond_atom_site_label_1
_geom_bond_atom_site_label_2
_geom_bond_distance
_geom_bond_site_symmetry_2
Zr1 O3 2.151(16) .
Zr1 O3 2.151(16) 2_665
Zr1 O4 2.181(17) 2_665
Zr1 O4 2.181(17) .
Zr1 O1 2.193(10) .
Zr1 O1 2.193(10) 2_665
Zr1 O1 2.193(10) 12_565
Zr1 O1 2.193(10) 11_655
Zr1 Zr2 3.495(2) .
Zr1 Zr2 3.495(2) 3_565
Zr1 Zr2 3.495(2) 11_655
Zr1 Zr2 3.495(2) 9_665
Zr2 O4 2.097(10) 2_665
Zr2 O4 2.097(10) 9_665
Zr2 O5 2.116(18) .
Zr2 O3 2.161(11) .
Zr2 O3 2.161(11) 10
Zr2 O6 2.214(14) .
Zr2 O2 2.284(10) 10
Zr2 O2 2.284(10) .
Zr2 Zr2 3.527(4) 11_655
Zr2 Zr2 3.528(3) 3_565
O1 C1 1.27(2) .
O2 C1 1.297(19) .
O5 C3 1.24(2) 10
O5 C3 1.24(2) .
C1 C2 1.52(3) .
C2 C2 1.322(19) 13
C2 H2 0.9500 .
C3 H3 0.9500 .
