#------------------------------------------------------------------------------
#$Date: 2018-01-25 01:53:04 +0200 (Thu, 25 Jan 2018) $
#$Revision: 205584 $
#$URL: file:///home/coder/svn-repositories/cod/cif/4/12/70/4127080.cif $
#------------------------------------------------------------------------------
#
# This file is available in the Crystallography Open Database (COD),
# http://www.crystallography.net/
#
# All data on this site have been placed in the public domain by the
# contributors.
#
data_4127080
loop_
_publ_author_name
'Forse, Alexander C.'
'Gonzalez, Miguel I.'
'Siegelman, Rebecca L.'
'Witherspoon, Velencia J.'
'Jawahery, Sudi'
'Mercado, Rocio'
'Milner, Phillip J.'
'Martell, Jeffrey D.'
'Smit, Berend'
'Bl\"umich, Bernhard'
'Long, Jeffrey R.'
'Reimer, Jeffrey A.'
_publ_section_title
;
 Unexpected Diffusion Anisotropy of Carbon Dioxide in the Metal-Organic
 Framework Zn2(dobpdc).
;
_journal_name_full               'Journal of the American Chemical Society'
_journal_paper_doi               10.1021/jacs.7b09453
_journal_year                    2018
_chemical_formula_moiety         '(C14 H6 O6 Zn2), 1.26(C O2)'
_chemical_formula_sum            'C15.23 H6 O8.46 Zn2'
_chemical_formula_weight         455.06
_chemical_name_common            Zn2(dobpdc)(CO2)1.26
_space_group_crystal_system      trigonal
_space_group_IT_number           152
_space_group_name_Hall           'P 31 2"'
_space_group_name_H-M_alt        'P 31 2 1'
_symmetry_space_group_name_Hall  'P 31 2"'
_symmetry_space_group_name_H-M   'P 31 2 1'
_atom_sites_solution_hydrogens   geom
_atom_sites_solution_primary     'intrinsic phasing'
_atom_sites_solution_secondary   difmap
_audit_creation_date             2017-07-03
_audit_creation_method
;
Olex2 1.2
(compiled 2017.03.28 svn.r3405 for OlexSys, GUI svn.r5337)
;
_cell_angle_alpha                90
_cell_angle_beta                 90
_cell_angle_gamma                120
_cell_formula_units_Z            3
_cell_length_a                   21.640(2)
_cell_length_b                   21.640(2)
_cell_length_c                   6.7928(8)
_cell_measurement_reflns_used    9964
_cell_measurement_temperature    298(2)
_cell_measurement_theta_max      28.52
_cell_measurement_theta_min      2.370
_cell_volume                     2754.8(5)
_computing_cell_refinement       'SAINT V8.38A (?, 2016)'
_computing_data_collection       'Bruker APEX3'
_computing_data_reduction        'SAINT V8.38A (?, 2016)'
_computing_molecular_graphics    'Olex2 (Dolomanov et al., 2009)'
_computing_publication_material  'Olex2 (Dolomanov et al., 2009)'
_computing_structure_refinement  'ShelXL (Sheldrick, 2015)'
_computing_structure_solution    'ShelXT (Sheldrick, 2015)'
_diffrn_ambient_temperature      298(2)
_diffrn_detector_area_resol_mean 10.42
_diffrn_measured_fraction_theta_full 0.999
_diffrn_measured_fraction_theta_max 0.999
_diffrn_measurement_device_type  'Bruker D8 with PHOTON100 CMOS detector'
_diffrn_measurement_method       '\f and \w shutterless scans'
_diffrn_radiation_monochromator  'silicon 111'
_diffrn_radiation_type           synchrotron
_diffrn_radiation_wavelength     0.7749
_diffrn_reflns_av_R_equivalents  0.0568
_diffrn_reflns_av_unetI/netI     0.0332
_diffrn_reflns_Laue_measured_fraction_full 0.999
_diffrn_reflns_Laue_measured_fraction_max 0.999
_diffrn_reflns_limit_h_max       26
_diffrn_reflns_limit_h_min       -26
_diffrn_reflns_limit_k_max       26
_diffrn_reflns_limit_k_min       -26
_diffrn_reflns_limit_l_max       8
_diffrn_reflns_limit_l_min       -8
_diffrn_reflns_number            25719
_diffrn_reflns_point_group_measured_fraction_full 0.999
_diffrn_reflns_point_group_measured_fraction_max 0.999
_diffrn_reflns_theta_full        27.706
_diffrn_reflns_theta_max         28.572
_diffrn_reflns_theta_min         2.052
_diffrn_source                   'Advanced Light Source station 11.3.1'
_diffrn_standards_number         0
_exptl_absorpt_coefficient_mu    1.674
_exptl_absorpt_correction_T_max  0.916
_exptl_absorpt_correction_T_min  0.648
_exptl_absorpt_correction_type   multi-scan
_exptl_absorpt_process_details
;
SADABS-2016/2 (Bruker,2016) was used for absorption correction.
wR2(int) was 0.1913 before and 0.0605 after correction.
The Ratio of minimum to maximum transmission is 0.7070.
The \l/2 correction factor is Not present.
;
_exptl_crystal_colour            'pale yellow'
_exptl_crystal_colour_primary    'pale yellow'
_exptl_crystal_density_diffrn    0.823
_exptl_crystal_density_method    'not measured'
_exptl_crystal_description       prism
_exptl_crystal_F_000             675
_exptl_crystal_size_max          0.1071
_exptl_crystal_size_mid          0.05355
_exptl_crystal_size_min          0.05355
_refine_diff_density_max         0.384
_refine_diff_density_min         -0.390
_refine_diff_density_rms         0.054
_refine_ls_abs_structure_details
;
 Refined as an inversion twin.
;
_refine_ls_abs_structure_Flack   0.40(2)
_refine_ls_extinction_method     none
_refine_ls_goodness_of_fit_ref   1.108
_refine_ls_hydrogen_treatment    constr
_refine_ls_matrix_type           full
_refine_ls_number_parameters     146
_refine_ls_number_reflns         3627
_refine_ls_number_restraints     54
_refine_ls_restrained_S_all      1.123
_refine_ls_R_factor_all          0.0356
_refine_ls_R_factor_gt           0.0307
_refine_ls_shift/su_max          0.001
_refine_ls_shift/su_mean         0.000
_refine_ls_structure_factor_coef Fsqd
_refine_ls_weighting_details
'w=1/[\s^2^(Fo^2^)+(0.0315P)^2^+0.7922P] where P=(Fo^2^+2Fc^2^)/3'
_refine_ls_weighting_scheme      calc
_refine_ls_wR_factor_gt          0.0700
_refine_ls_wR_factor_ref         0.0719
_reflns_Friedel_coverage         0.849
_reflns_Friedel_fraction_full    1.000
_reflns_Friedel_fraction_max     1.000
_reflns_number_gt                3344
_reflns_number_total             3627
_reflns_threshold_expression     'I > 2\s(I)'
_cod_data_source_file            ja7b09453_si_003.cif
_cod_data_source_block           gcell134s
_cod_depositor_comments
;
The following automatic conversions were performed:

'_atom_sites_solution_secondary' value 'diffmap' was changed to
'difmap'.

Automatic conversion script
Id: cif_fix_values 4973 2017-02-22 13:04:09Z antanas 
;
_cod_original_cell_volume        2754.8(7)
_cod_database_code               4127080
_shelx_shelxl_version_number     2016/6
_shelx_space_group_comment
;
The symmetry employed for this shelxl refinement is uniquely defined
by the following loop, which should always be used as a source of
symmetry information in preference to the above space-group names.
They are only intended as comments.
;
_shelx_estimated_absorpt_t_max   0.916
_shelx_estimated_absorpt_t_min   0.841
_olex2_refinement_description
;
1. Twinned data refinement
 Scales: 0.60(2)
 0.40(2)
2. Fixed Uiso
 At 1.2 times of:
  All C(H) groups
3. Restrained distances
 O5A-C8A = O4-C8A = O4-C8B = O5B-C8B
 1.163 with sigma of 0.02
 O5A-O4
 2.326 with sigma of 0.005
 O4-O5B
 2.326 with sigma of 0.005
4. Uiso/Uaniso restraints and constraints
O4 \\sim O5B \\sim C8B \\sim C8A \\sim O5A: within 2A with sigma of 0.04 and
sigma for terminal atoms of 0.08
5. Rigid body (RIGU) restrains
 O4, C8B, C8A, O5A, O5B
 with sigma for 1-2 distances of 0.004 and sigma for 1-3 distances of 0.004
6. Others
 Fixed Sof: O4(0.631) O5B(0.296) C8B(0.296) C8A(0.335) O5A(0.335)
7.a Aromatic/amide H refined with riding coordinates:
 C3(H3), C6(H6), C5(H5)
;
_shelx_res_file
;
TITL gcell134s_a.res in P3(1)21
    gcell134s.res
    created by SHELXL-2016/6 at 21:59:44 on 03-Jul-2017
REM Old TITL GCELL134S in P3(2)21
REM SHELXT solution in P3(1)21
REM R1 0.091, Rweak 0.023, Alpha 0.004, Orientation as input
REM Flack x = 0.399 ( 0.009 ) from Parsons' quotients
REM Formula found by SHELXT: C7 O3 Zn
CELL 0.7749 21.6401 21.6401 6.7928 90 90 120
ZERR 3 0.0024 0.0024 0.0008 0 0 0
LATT -1
SYMM -Y,+X-Y,0.333+Z
SYMM +Y-X,-X,0.667+Z
SYMM +Y,+X,-Z
SYMM -Y+X,-Y,0.667-Z
SYMM -X,-X+Y,0.333-Z
SFAC C H O Zn
DISP C 0.004 0.002 13.6
DISP H -0 0 0.7
DISP O 0.013 0.007 40.2
DISP Zn 0.228 1.672 7409.4
UNIT 45.69 18 25.38 6
DFIX 1.163 O5A C8A O4 C8A O4 C8B O5B C8B
DFIX 2.326 0.005 O5A O4
DFIX 2.326 0.005 O4 O5B
SIMU O4 O5B C8B C8A O5A
RIGU O4 C8B C8A O5A O5B

L.S. 100
PLAN  20
SIZE 0.1071 0.05355 0.05355
TEMP 25(2)
BOND $H
list 4
fmap 2
acta
TWIN -1 0 0 0 -1 0 0 0 -1 2
OMIT 0 2 0
REM <olex2.extras>
REM <HklSrc "%./GCELL134S.hkl">
REM </olex2.extras>

WGHT    0.031500    0.792200
BASF   0.39827
FVAR       0.37518
ZN1   4    0.662276    0.381505    0.022285    11.00000    0.02647    0.03036 =
         0.01408    0.00103    0.00021    0.01608
O2    3    0.641247    0.356123    0.583467    11.00000    0.04644    0.05300 =
         0.01918   -0.01036   -0.01134    0.03983
O3    3    0.617296    0.412098    0.816745    11.00000    0.04602    0.04068 =
         0.01289   -0.00606   -0.00721    0.03206
O1    3    0.584107    0.341761    0.224484    11.00000    0.03572    0.03977 =
         0.01196   -0.00169    0.00070    0.02632
C1    1    0.552850    0.375006    0.307010    11.00000    0.03838    0.04119 =
         0.01470    0.00061    0.00266    0.02761
C2    1    0.562866    0.398450    0.505948    11.00000    0.03577    0.03626 =
         0.01599    0.00038   -0.00089    0.02622
C7    1    0.609686    0.388502    0.643656    11.00000    0.03287    0.02900 =
         0.01723    0.00277    0.00283    0.01947
C3    1    0.527152    0.432722    0.575489    11.00000    0.05322    0.04734 =
         0.01355   -0.00237    0.00006    0.03862
AFIX  43
H3    2    0.534291    0.448072    0.705672    11.00000   -1.20000
AFIX   0
C4    1    0.481777    0.444999    0.460927    11.00000    0.05802    0.05511 =
         0.01722   -0.00062   -0.00006    0.04639
C6    1    0.507845    0.388658    0.192118    11.00000    0.05997    0.06901 =
         0.01350   -0.00574   -0.00510    0.05034
AFIX  43
H6    2    0.501053    0.374643    0.060783    11.00000   -1.20000
AFIX   0
C5    1    0.473168    0.422017    0.265557    11.00000    0.06980    0.08146 =
         0.01834   -0.00489   -0.00774    0.06359
AFIX  43
H5    2    0.443177    0.429548    0.183413    11.00000   -1.20000
AFIX   0
O4    3    0.709967    0.504660    0.167543    10.63100    0.19659    0.11373 =
         0.14186   -0.01893    0.00459    0.03842
PART 2
O5B   3    0.772039    0.569586    0.443679    10.29600    0.55539    0.32160 =
         0.37881   -0.15218   -0.20596   -0.05291
C8B   1    0.742514    0.548757    0.287930    10.29600    0.36601    0.17758 =
         0.25972   -0.09127   -0.07022    0.02389
PART 0
PART 1
C8A   1    0.699435    0.547901    0.093176    10.33500    0.38835    0.10426 =
         0.31302   -0.02610   -0.11359    0.07664
O5A   3    0.663906    0.572715    0.037565    10.33500    0.53637    0.23441 =
         0.63257    0.02224   -0.20603    0.18893
HKLF 4




REM  gcell134s_a.res in P3(1)21
REM R1 =  0.0307 for    3344 Fo > 4sig(Fo)  and  0.0356 for all    3627 data
REM    146 parameters refined using     54 restraints

END

WGHT      0.0316      0.7938

REM Highest difference peak  0.384,  deepest hole -0.390,  1-sigma level  0.054
Q1    1   0.6738  0.4297  0.0326  11.00000  0.05    0.38
Q2    1   0.5691  0.3303  0.9500  11.00000  0.05    0.25
Q3    1   0.6767  0.3531  0.6439  11.00000  0.05    0.22
Q4    1   0.7620  0.5698  0.7675  11.00000  0.05    0.21
Q5    1   0.7457  0.5793 -0.1679  11.00000  0.05    0.20
Q6    1   0.7668  0.5789 -0.0962  11.00000  0.05    0.20
Q7    1   1.0000  0.9780  0.6667  10.50000  0.05    0.19
Q8    1   0.7890  0.6288  0.0753  11.00000  0.05    0.18
Q9    1   0.8376  0.6225  0.1038  11.00000  0.05    0.17
Q10   1   0.8100  0.6009  0.0873  11.00000  0.05    0.17
Q11   1   0.7110  0.6040  0.3311  11.00000  0.05    0.17
Q12   1   0.6665  0.5739  0.2539  11.00000  0.05    0.17
Q13   1   0.4746  0.3852  0.2374  11.00000  0.05    0.17
Q14   1   0.6241  0.6241  0.5000  10.50000  0.05    0.16
Q15   1   0.4484  0.4484  0.5000  10.50000  0.05    0.16
Q16   1   0.8282  0.6108 -0.0258  11.00000  0.05    0.16
Q17   1   0.6489  0.6091  0.4379  11.00000  0.05    0.15
Q18   1   0.5993  0.4095  0.5755  11.00000  0.05    0.15
Q19   1   0.8489  0.8489  0.0000  10.50000  0.05    0.15
Q20   1   0.6200  0.3105  0.6498  11.00000  0.05    0.15
;
_shelx_res_checksum              91317
_shelx_hkl_file
;
   1  -2   0 8915.51  391.56
   2  -1   0 9999.00  386.86
   2   0   0  228.58    9.30
  -2   0   0  205.38    8.70
   0   2   0  213.28    9.80
   2  -2   0  202.08    8.70
  -2   0   0  204.08    8.70
  -2   2   0  207.68    9.00
   0  -2   0  208.98    8.70
   1   2   0 1935.21   75.89
  -3   2   0 1885.31   74.79
   2   1   0 1748.82   74.99
   2  -3   0 1743.03   74.79
   1   2   0 1746.33   74.69
  -2  -1   0 1749.43   74.69
   3  -2   0 1801.52   75.09
   3  -1   0 1847.12   75.39
  -1   3   0 1987.90   75.59
   3  -2   0 1930.21   75.39
  -2   3   0 2011.00   75.29
  -3   3   0 1362.46   56.09
   0  -3   0 1373.26   55.79
   0   3   0 1474.85   57.09
   3  -3   0 1344.57   55.89
   3  -3   0 1433.26   56.29
  -3   0   0 1374.26   55.79
   0   3   0 1328.37   55.69
  -3   0   0 1316.67   55.69
   3   0   0 1424.76   56.49
   2   2   0 2309.57  101.39
   2   2   0 2608.84  102.89
   4  -2   0 2519.05  102.19
  -2   4   0 2614.34  102.19
   3  -4   0  363.86   14.30
   1   3   0  345.27   14.40
   1   3   0  339.47   16.90
   3   1   0  347.97   15.20
  -4   3   0  345.37   14.60
  -4   1   0  342.47   14.30
   1  -4   0  348.97   14.30
  -4   1   0  349.77   14.40
   3  -4   0  358.76   15.00
  -1   4   0  323.97   14.20
  -1  -3   0  345.47   14.40
   4  -3   0  339.37   15.00
   4  -3   0  336.37   15.70
  -3  -1   0  340.77   14.50
  -3  -1   0  343.77   14.40
  -3   4   0  348.17   15.30
  -1   4   0  352.96   16.20
   4  -1   0  340.67   15.80
   0   4   0 1160.98   48.60
   4  -4   0 1181.68   49.60
  -4   0   0 1124.99   48.60
  -4   4   0 1256.37   49.30
   4   0   0 1206.08   49.80
  -4   0   0 1208.88   48.80
   0  -4   0 1189.48   48.70
   0   4   0 1309.97   50.69
   4  -4   0 1181.48   48.90
  -5   2   0 1023.20   45.00
  -5   3   0 1061.19   45.30
   3  -5   0 1087.49   45.50
  -5   2   0 1098.99   45.30
   2   3   0 1043.20   45.30
   2  -5   0 1049.70   45.20
   3  -5   0 1083.19   45.10
   2  -5   0 1068.49   45.00
   3   2   0 1186.18   48.40
   2   3   0 1221.48   48.30
   3   2   0 1061.19   45.70
   5  -3   0 1136.89   46.50
   5  -3   0 1184.48   46.80
  -3  -2   0 1044.50   45.10
  -2   5   0 1228.08   47.00
  -3   5   0 1204.18   46.70
  -2  -3   0 1074.19   45.10
   5  -2   0 1179.18   46.80
  -5   4   0  490.35   20.90
   4   1   0  466.95   21.50
   1  -5   0  495.15   20.20
   4  -5   0  503.15   20.30
   1   4   0  477.75   20.30
  -5   1   0  465.55   20.10
   4  -5   0  496.95   21.30
  -5   1   0  488.75   20.40
   1   4   0  469.85   23.70
  -1  -4   0  495.55   20.20
   5  -1   0  509.85   22.40
  -4   5   0  487.15   21.60
  -1   5   0  465.95   20.10
   5  -4   0  500.25   22.20
  -4  -1   0  483.95   20.30
   5  -4   0  489.65   21.10
  -1   5   0  520.05   23.30
  -4  -1   0  485.55   20.50
   0   5   0  472.65   22.70
  -5   5   0  464.35   20.00
   0  -5   0  443.16   19.00
  -5   0   0  428.96   19.00
   5  -5   0  484.35   21.00
   5   0   0  464.35   21.40
  -5   0   0  475.45   19.30
   5  -5   0  442.26   19.30
   0   5   0  440.96   18.90
   3   3   0  521.95   25.60
   3  -6   0  505.15   21.10
   3  -6   0  478.95   21.50
   3   3   0  495.05   21.70
  -6   3   0  489.65   21.00
  -6   3   0  504.35   21.50
  -3  -3   0  514.45   21.20
   6  -3   0  571.64   23.90
  -3   6   0  520.85   23.50
   4  -6   0  642.84   25.40
   2  -6   0  603.54   24.60
   2   4   0  590.24   24.80
   2  -6   0  583.54   24.60
   2   4   0  553.74   28.30
   4   2   0  528.95   29.50
  -6   2   0  576.84   24.50
  -6   2   0  598.44   24.90
  -6   4   0  575.54   25.00
   4  -6   0  597.24   24.60
   4   2   0  605.54   25.60
   6  -4   0  612.84   26.60
   6  -2   0  605.44   27.00
  -2   6   0  625.94   27.20
  -2  -4   0  589.34   24.70
   6  -4   0  640.94   26.90
  -4  -2   0  587.94   24.60
   5   1   0  477.05   22.60
   1   5   0  505.45   21.10
  -6   5   0  499.45   21.80
   5  -6   0  497.45   22.50
   5  -6   0  525.25   21.30
   1   5   0  501.85   24.70
  -6   1   0  515.75   21.30
   1  -6   0  501.05   21.10
  -6   1   0  485.95   21.00
  -5  -1   0  503.05   21.20
   6  -1   0  499.95   23.50
  -1   6   0  495.05   21.00
  -1   6   0  535.85   24.30
   6  -5   0  513.75   23.30
   6  -5   0  519.95   22.10
  -1  -5   0  516.55   21.20
  -5   6   0  528.85   22.70
  -5  -1   0  519.15   21.40
   0  -6   0   66.39    4.00
   6  -6   0   66.49    4.80
   0   6   0   63.19    3.90
  -6   6   0   63.59    6.30
   0   6   0   76.09   11.50
  -6   0   0   66.09    4.20
   6  -6   0   79.19    7.80
   6   0   0   55.89    7.50
  -6   0   0   65.89    4.60
   3   4   0  140.19   13.70
   4   3   0  144.69    8.50
   4  -7   0  152.48    8.00
  -7   4   0  152.28    7.00
   4   3   0  124.39   13.90
  -7   3   0  147.99    7.70
  -7   3   0  156.38    7.10
   3  -7   0  160.88    7.20
   3   4   0  144.99    7.80
   4  -7   0  163.28    7.20
   3  -7   0  150.38    7.70
  -7   4   0  147.69    7.90
   7  -3   0  164.68   11.10
  -4  -3   0  169.28    7.50
  -4   7   0  154.38   10.90
   7  -4   0  176.38   11.50
  -3   7   0  160.68   11.30
  -3  -4   0  166.78    7.40
   2  -7   0  293.17   12.70
   2  -7   0  290.37   12.70
   5   2   0  296.97   14.40
   2   5   0  275.67   17.10
  -7   2   0  297.37   13.10
   5  -7   0  307.87   14.10
  -7   2   0  285.17   12.60
  -7   5   0  284.37   13.30
   5  -7   0  288.47   12.80
   2   5   0  292.37   12.90
  -5   7   0  292.47   14.80
  -2  -5   0  294.67   12.80
   7  -5   0  316.47   15.80
  -2   7   0  314.97   16.70
   7  -2   0  302.37   15.80
  -5  -2   0  298.07   12.80
   7  -5   0  299.57   15.00
   6   1   0  634.54   27.30
   1   6   0  588.04   28.90
  -7   1   0  594.84   25.50
   6  -7   0  627.44   25.90
  -7   6   0  619.04   26.40
  -7   1   0  626.44   25.80
   6  -7   0  633.34   27.30
   1   6   0  612.44   25.60
   1  -7   0  608.64   25.60
   7  -6   0  638.34   27.90
   7  -6   0  625.64   26.50
  -1  -6   0  629.24   25.60
   7  -1   0  623.84   27.90
  -1   7   0  605.24   25.50
  -6   7   0  630.74   27.00
  -6  -1   0  610.94   25.60
  -1   7   0  587.64   28.50
  -6  -1   0  617.24   25.90
  -7   7   0  100.09    7.40
   7  -7   0  109.99   10.00
   7   0   0   95.39    8.60
  -7   0   0  101.79    5.30
   0  -7   0  103.09    5.50
   7  -7   0  100.29    6.40
   0   7   0  109.19   11.10
  -7   0   0  102.99    5.90
   0   7   0  100.59    5.30
   4  -8   0   44.60    3.30
   4  -8   0   55.39    4.90
  -8   4   0   44.20    4.30
  -8   4   0   45.90    3.20
   4   4   0   47.40    4.80
   4   4   0   49.99   10.00
  -4  -4   0   53.69    3.80
   8  -4   0   43.90    7.50
  -4   8   0   42.70    8.00
  -8   3   0  326.47   14.30
  -8   5   0  304.07   14.50
   5  -8   0  339.27   15.20
   5  -8   0  325.17   13.90
   5   3   0  297.07   19.70
   3  -8   0  325.97   13.90
   3  -8   0  325.07   14.20
   3   5   0  321.27   14.30
   3   5   0  314.97   19.20
  -8   3   0  319.17   13.80
   5   3   0  316.47   15.20
  -3   8   0  315.87   17.30
  -3  -5   0  326.67   14.00
  -5  -3   0  326.47   14.00
   8  -3   0  346.07   17.30
   8  -5   0  334.07   17.50
  -5   8   0  324.17   16.20
   2   6   0  169.08   14.20
  -8   2   0  165.18    8.20
  -8   2   0  161.18    7.60
   2  -8   0  166.68    7.70
   2   6   0  162.48    7.90
   2  -8   0  149.39    7.80
   6  -8   0  169.58   10.10
   6  -8   0  158.28    7.90
  -8   6   0  163.88    8.70
   6   2   0  164.58    9.70
  -2  -6   0  173.28    7.90
   8  -6   0  192.38   11.90
   8  -6   0  180.38   10.70
  -6   8   0  169.28   10.80
  -6  -2   0  164.38    7.90
   8  -2   0  162.88   11.90
  -2   8   0  199.38   12.60
   1  -8   0  210.58    9.40
  -8   1   0  212.78    9.90
   1   7   0  204.78    9.40
   7  -8   0  202.58    9.90
   7  -8   0  214.28   12.70
   1   7   0  194.98   14.50
  -8   7   0  207.78   10.60
  -8   1   0  200.98    9.40
   7   1   0  214.58   12.00
  -7  -1   0  200.58    9.80
  -1   8   0  208.68   14.70
   8  -1   0  196.68   12.70
  -7   8   0  201.68   11.50
  -7  -1   0  205.38    9.40
   8  -7   0  208.48   13.10
   8  -7   0  207.88   10.90
  -1   8   0  201.88    9.30
  -1  -7   0  212.48    9.60
  -8   8   0  210.08   11.00
  -8   0   0  188.38    9.20
   8   0   0  209.08   13.10
   0  -8   0  200.78    9.40
  -8   0   0  204.18    9.70
   0   8   0  208.98   14.30
   8  -8   0  202.38   10.30
   0   8   0  193.38    9.20
   8  -8   0  209.48   12.80
   5  -9   0   27.50    5.40
   5  -9   0   26.80    2.90
  -9   4   0   24.60    2.60
  -9   5   0   24.40    4.10
   4  -9   0   28.10    4.20
   4   5   0   32.50    9.00
   5   4   0   33.70    9.50
   5   4   0   26.70    4.80
   4  -9   0   23.90    2.80
  -9   4   0   20.70    3.80
  -9   5   0   23.10    2.60
   4   5   0   23.60    4.50
   9  -5   0   25.70    8.20
  -5   9   0   52.99    8.00
  -5  -4   0   21.10    3.10
  -4   9   0   30.70    7.00
  -4  -5   0   23.70    3.50
   9  -4   0   15.40    8.10
  -9   3   0  419.66   18.10
   6   3   0  431.46   24.00
   3  -9   0  439.16   18.20
  -9   6   0  425.26   18.80
   6  -9   0  445.66   19.80
   3   6   0  426.66   18.50
   6  -9   0  422.46   18.30
   3  -9   0  435.96   18.40
   6   3   0  428.96   19.40
   3   6   0  427.16   23.30
  -9   3   0  429.96   18.50
  -3  -6   0  429.96   18.40
  -6   9   0  437.36   20.30
   9  -6   0  375.46   22.80
   7  -9   0  246.68   11.20
   2   7   0  224.78   16.00
   7  -9   0  246.78   13.60
   2  -9   0  238.28   10.90
  -9   2   0  247.58   11.40
   2   7   0  246.38   11.10
  -9   7   0  239.98   12.00
   7   2   0  248.28   13.00
   2  -9   0  253.17   11.00
  -9   2   0  241.98   10.80
  -7   9   0  228.48   13.00
   9  -7   0  243.88   13.60
  -7  -2   0  237.78   11.00
  -2   9   0  265.27   15.40
   1  -9   0   44.70    3.80
  -9   1   0   46.40    4.50
   1   8   0   45.30    3.90
   8  -9   0   46.70    4.70
   8  -9   0   46.00    7.90
   8   1   0   47.30    8.60
  -9   8   0   46.70    5.40
  -1   9   0   50.29    9.10
   9  -1   0   47.20    7.40
  -8  -1   0   49.30    3.90
  -1  -8   0   44.50    3.70
   9  -8   0   46.00    6.10
  -1   9   0   42.80    3.60
  -8   9   0   40.80    7.30
  -8  -1   0   40.80    4.60
  -9   0   0  365.26   16.10
  -9   9   0  354.26   17.30
  -9   0   0  358.06   15.60
   9   0   0  352.06   18.70
   9  -9   0  370.46   19.00
   0   9   0  353.46   20.30
   0   9   0  370.66   15.70
   9  -9   0  352.96   16.80
   5   5   0  656.93   28.40
   5 -10   0  667.13   28.40
 -10   5   0  667.33   28.20
   5 -10   0  659.43   27.60
   5   5   0  649.34   32.90
 -10   5   0  646.44   27.40
  -5  -5   0  640.34   27.60
  10  -5   0  691.23   31.00
  -5  10   0  682.93   30.30
   6   4   0  240.38   18.20
   4   6   0  232.18   11.50
 -10   6   0  232.68   10.60
   4 -10   0  242.68   11.60
   6 -10   0  250.97   12.70
   6   4   0  240.18   12.20
   4   6   0  237.58   17.60
 -10   4   0  233.28   10.70
   4 -10   0  240.38   10.90
   6 -10   0  236.68   10.90
 -10   6   0  233.38   11.60
 -10   4   0  231.58   11.40
  10  -6   0  243.88   15.50
  -4  10   0  248.18   14.90
  10  -4   0  260.67   15.50
  -6  -4   0  254.97   11.10
  -4  -6   0  242.18   11.00
  -6  10   0  236.78   14.00
   7 -10   0  142.09   10.40
   3   7   0  120.79   14.40
   3 -10   0  135.39    6.90
 -10   3   0  112.19    7.10
   3   7   0  139.69    7.20
   3 -10   0  138.09    7.30
   7   3   0  127.19    9.40
   7 -10   0  138.39    7.10
 -10   7   0  133.39    8.10
 -10   3   0  128.89    7.40
   7   3   0  141.69   15.80
  -7  -3   0  146.99    7.10
  -3  10   0  130.59   12.20
  10  -7   0  132.79   12.40
  10  -7   0  137.99   11.60
  -3  -7   0  131.49    6.90
  10  -3   0  137.39   12.20
  -7  10   0  140.99   10.10
   8   2   0  460.35   26.10
   2 -10   0  524.25   22.80
   8 -10   0  547.85   25.20
 -10   8   0  526.25   23.70
   8 -10   0  553.04   23.30
 -10   2   0  531.25   22.70
 -10   2   0  558.84   23.30
   2   8   0  539.95   23.00
   2   8   0  533.85   27.40
  10  -2   0  572.24   26.50
  -2  -8   0  548.85   22.90
  -8  10   0  533.15   24.70
  10  -8   0  537.05   25.30
  -8  -2   0  533.85   22.90
  -2  10   0  586.94   27.40
  10  -8   0  567.14   26.50
 -10   9   0  214.38   11.40
 -10   1   0  209.38   10.00
   1   9   0  214.78   10.10
   9 -10   0  207.58   13.90
   1 -10   0  227.68   10.20
   9   1   0  229.38   14.30
 -10   1   0  215.88   10.70
   9 -10   0  222.18   11.10
   1   9   0  231.58   16.90
  -1  10   0  202.18    9.90
  10  -1   0  200.58   14.20
  -9  -1   0  205.28   10.60
  -9  -1   0  215.68   10.20
  -1  -9   0  215.78   10.10
  -9  10   0  223.48   12.70
  10  -9   0  195.28   14.60
  10  -9   0  202.68   12.10
  -1  10   0  236.58   16.60
  10   0   0    6.80    6.60
   0 -10   0    8.90    2.40
   0  10   0   11.90    9.30
 -10   0   0    9.10    3.40
 -10   0   0   12.80    3.00
  10 -10   0    6.80    7.90
  10 -10   0    5.80    4.10
   0  10   0   10.70    2.80
 -10  10   0    3.20    4.50
 -11   6   0  273.17   13.20
   6   5   0  270.87   20.10
   5   6   0  270.67   13.20
   6 -11   0  273.77   12.40
   5 -11   0  280.27   12.40
   5   6   0  256.97   19.40
   6   5   0  282.47   13.70
   6 -11   0  275.97   14.00
   5 -11   0  280.97   13.50
 -11   5   0  263.07   13.00
 -11   6   0  264.37   12.10
  11  -6   0  285.97   17.30
  -5  11   0  270.17   16.20
  -6  -5   0  288.07   12.60
  11  -5   0  277.07   17.30
  -6  11   0  267.07   15.80
  -5  -6   0  280.47   12.50
 -11   7   0  851.81   36.40
   7   4   0  828.92   42.10
 -11   7   0  849.02   37.30
   4   7   0  871.01   36.90
   4 -11   0  893.51   37.10
   7 -11   0  878.01   36.70
 -11   4   0  859.91   37.00
   7   4   0  881.31   37.90
 -11   4   0  871.11   36.50
   7 -11   0  904.81   38.30
  -7  11   0  893.51   38.90
  -4  11   0  875.31   39.70
  -7  -4   0  891.71   36.70
  -4  -7   0  877.91   36.70
  11  -4   0  967.70   40.40
  11  -7   0  958.70   40.40
   3 -11   0  249.18   11.40
   8 -11   0  235.18   14.00
   8   3   0  244.78   14.00
   3   8   0  271.17   19.30
 -11   8   0  245.48   12.70
   8   3   0  271.47   20.30
   3   8   0  243.18   11.70
   3 -11   0  240.98   11.80
 -11   3   0  257.47   11.50
   8 -11   0  257.27   11.90
 -11   3   0  255.07   12.10
  11  -3   0  256.37   16.30
  11  -8   0  235.98   16.40
  -3  11   0  265.87   17.50
  11  -8   0  248.08   15.80
  -8  11   0  253.27   14.30
  -3  -8   0  244.28   11.50
  -8  -3   0  259.37   11.70
   2 -11   0  157.98    8.20
   2   9   0  173.18    8.50
 -11   2   0  168.48    9.10
   9 -11   0  166.08   12.20
   9   2   0  169.78   11.50
 -11   9   0  146.09    9.90
   2 -11   0  165.08    8.30
   2   9   0  161.98   15.20
 -11   2   0  171.68    8.40
   9 -11   0  170.28    9.30
  11  -9   0  166.88   12.50
  11  -2   0  161.38   13.30
  -9  -2   0  163.88    8.40
  11  -9   0  166.58   13.80
  -2  -9   0  162.28    8.30
  -9  11   0  162.28   11.10
  -2  11   0  168.28   14.30
   1  10   0  286.37   12.70
 -11  10   0  263.37   14.00
 -11   1   0  273.47   13.10
  10 -11   0  272.77   13.90
 -11   1   0  278.07   12.50
  10 -11   0  268.27   16.70
   1  10   0  278.37   18.60
  10   1   0  285.17   16.60
   1 -11   0  276.37   12.60
  11 -10   0  267.97   17.40
 -10  -1   0  275.67   12.80
  -1 -10   0  273.17   12.60
  11  -1   0  288.27   17.00
 -10  -1   0  269.97   13.20
 -10  11   0  270.77   14.60
  -1  11   0  325.07   19.30
  -1  11   0  266.47   12.50
  11 -10   0  268.97   14.90
 -11  11   0  169.88   11.10
  11   0   0  160.28   13.90
   0  11   0  159.28   14.70
   0 -11   0  162.48    8.40
   0  11   0  159.28    8.40
 -11   0   0  157.38    9.20
 -11   0   0  162.18    8.30
  11 -11   0  146.59   13.80
 -12   6   0 1276.47   53.79
   6   6   0 1294.07   54.79
 -12   6   0 1304.17   54.59
   6 -12   0 1356.66   55.09
   6   6   0 1286.47   58.89
   6 -12   0 1290.07   54.09
  12  -6   0 1381.76   57.79
  -6  -6   0 1311.07   54.09
  -6  12   0 1356.16   56.89
   7 -12   0  233.68   13.20
   5 -12   0  225.38   12.00
 -12   7   0  212.78   11.40
   5 -12   0  216.68   10.50
   7   5   0  214.68   11.80
   5   7   0  226.28   11.30
   5   7   0  196.68   18.20
   7   5   0  230.08   19.40
 -12   5   0  216.68   11.30
 -12   7   0  214.48   10.20
 -12   5   0  223.28   10.40
  -5  -7   0  237.08   10.80
  12  -5   0  243.38   16.30
  -7  12   0  233.28   14.90
  -5  12   0  227.68   15.20
  12  -7   0  234.58   16.30
  -7  -5   0  228.08   10.70
   4 -12   0  363.66   15.60
   8   4   0  366.06   17.70
 -12   4   0  355.16   15.50
 -12   4   0  336.57   16.10
 -12   8   0  336.27   16.60
   8   4   0  338.77   23.90
   8 -12   0  298.77   16.20
   4   8   0  337.07   22.70
 -12   8   0  361.26   15.30
   4   8   0  356.26   15.90
   4 -12   0  348.27   16.20
  12  -4   0  359.56   20.60
  -4  -8   0  355.36   15.60
  12  -8   0  362.86   20.70
  -8  -4   0  369.46   15.80
  -8  12   0  367.46   19.00
  -4  12   0  352.56   19.90
   3 -12   0  750.72   33.10
   3 -12   0  769.42   33.00
 -12   3   0  768.32   32.90
   9 -12   0  803.82   35.90
   3   9   0  801.12   38.40
   9   3   0  798.32   39.50
 -12   3   0  801.12   33.50
   3   9   0  797.62   33.20
   9   3   0  779.82   35.00
  -9  12   0  759.62   35.00
  -3  12   0  794.72   36.90
  -3  -9   0  806.72   33.20
  12  -9   0  795.02   37.10
  12  -9   0  776.62   36.40
  -9  -3   0  799.12   33.10
  12  -3   0  841.62   37.20
  10 -12   0  175.38   13.60
  10 -12   0  161.08   11.10
 -12   2   0  181.98    9.90
   2 -12   0  187.68    9.10
   2  10   0  182.48    9.20
  10   2   0  221.18   20.70
 -12   2   0  181.98    9.10
   2  10   0  195.38   17.10
 -12  10   0  186.58   10.70
  10   2   0  178.88   13.10
   2 -12   0  149.79    8.90
 -10  12   0  182.38   11.80
  12 -10   0  161.68   14.90
  12 -10   0  182.18   13.50
 -10  -2   0  184.58    9.10
  -2 -10   0  184.58    9.10
  12  -2   0  163.88   14.10
  -2  12   0  195.58   15.50
  11 -12   0   19.10    4.80
 -12   1   0   17.00    3.40
   1 -12   0   15.60    3.20
 -12   1   0   21.10    4.20
 -12  11   0   12.20    5.50
  11   1   0   15.00    7.90
   1  11   0   13.90   10.50
   1  11   0   16.50    3.40
  11 -12   0   12.60    9.00
  12 -11   0   14.60    5.60
 -11  -1   0   17.50    3.50
 -11  12   0   11.10    5.70
  -1  12   0   13.10    3.20
  -1 -11   0   19.30    3.50
  -1  12   0   34.90   10.80
  12  -1   0   14.90    7.60
  12 -11   0   14.20    8.70
  12 -12   0  118.99    9.80
 -12   0   0   98.39    7.70
  12 -12   0  100.49   12.90
  12   0   0  119.29   12.50
 -12   0   0  115.99    6.80
   0  12   0  100.59    6.80
 -12  12   0  121.59    9.50
   0 -12   0  116.59    6.70
   0  12   0  119.79   14.40
   6   7   0  437.36   20.10
   7   6   0  411.36   26.60
   6 -13   0  452.45   19.20
   6   7   0  437.76   26.60
 -13   7   0  437.26   20.00
   7   6   0  429.86   20.40
 -13   7   0  430.86   18.90
 -13   6   0  436.56   19.90
   7 -13   0  444.86   19.20
   6 -13   0  434.86   20.70
 -13   6   0  426.46   18.90
   7 -13   0  451.85   21.10
  -6  -7   0  431.66   19.20
  -7  -6   0  445.26   19.30
  13  -6   0  438.76   24.30
  -6  13   0  470.85   23.20
  13  -7   0  446.46   24.50
  -7  13   0  451.95   22.70
   8   5   0 1229.88   52.09
   5   8   0 1228.68   55.89
   8 -13   0 1221.78   50.99
   5 -13   0 1225.78   51.49
   5   8   0 1228.08   51.29
 -13   8   0 1224.88   51.69
 -13   8   0 1165.98   50.49
   8 -13   0 1336.87   53.09
   5 -13   0 1234.48   50.89
   8   5   0 1239.88   56.79
 -13   5   0 1198.88   50.69
 -13   5   0 1213.78   51.39
  13  -5   0 1247.68   54.89
  -8  13   0 1226.68   53.29
  -5  -8   0 1196.18   50.79
  -8  -5   0 1216.18   50.89
  -5  13   0 1285.97   54.09
  13  -8   0 1298.97   54.89
 -13   4   0  348.67   15.40
   4   9   0  348.67   15.90
 -13   9   0  331.47   16.70
   4 -13   0  342.07   16.30
 -13   9   0  344.47   15.30
   9   4   0  327.47   17.90
   4 -13   0  343.17   15.50
   9 -13   0  354.66   19.20
   9   4   0  363.76   24.40
   9 -13   0  361.16   16.10
   4   9   0  344.77   22.10
 -13   4   0  351.66   16.40
  -4  -9   0  364.46   15.90
  13  -4   0  347.07   20.90
  -9  -4   0  348.27   15.70
  13  -9   0  334.67   21.00
  -4  13   0  378.46   21.50
  -9  13   0  358.56   18.80
  10 -13   0  113.99    8.20
   3 -13   0  132.49    7.40
   3  10   0  112.99   16.60
   3  10   0  128.79    7.80
  10 -13   0  119.49   12.10
  10   3   0  141.49   18.90
   3 -13   0  130.09    7.80
 -13  10   0  131.39    9.40
 -13   3   0  136.49    8.30
  10   3   0  124.89   10.50
 -13   3   0  135.79    7.40
  13  -3   0  135.99   13.70
  -3  13   0  131.89   14.00
  13 -10   0  138.49   15.90
 -10  -3   0  129.19    7.50
 -10  13   0  113.39   11.00
  -3 -10   0  128.89    7.40
  13 -10   0  134.09   13.80
  11 -13   0  180.18   14.80
   2  11   0  191.28    9.80
 -13   2   0  188.18    9.40
 -13  11   0  181.98   11.40
   2 -13   0  182.88    9.60
  11   2   0  214.88   21.60
   2 -13   0  178.38    9.30
   2  11   0  209.78   18.70
  11 -13   0  190.58   11.00
  11   2   0  172.18   14.20
 -13   2   0  187.88   10.50
  -2 -11   0  190.18    9.60
 -11  13   0  184.28   12.40
  13 -11   0  163.28   16.00
  13  -2   0  188.28   16.70
 -11  -2   0  185.88    9.60
  13 -11   0  193.28   14.70
  -2  13   0  172.58   16.40
 -13  12   0  175.58   11.90
  12 -13   0  180.58   11.70
   1  12   0  174.78    9.50
  12 -13   0  147.69   15.50
 -13   1   0  174.78    9.20
   1  12   0  177.48   17.00
   1 -13   0  194.98    9.50
 -13   1   0  169.18   10.20
  12   1   0  155.48   14.80
  13 -12   0  172.58   13.30
 -12  13   0  184.78   12.80
  -1  13   0  190.58   18.20
  -1 -12   0  182.98    9.20
  13 -12   0  135.39   15.60
  13  -1   0  171.48   14.90
 -12  -1   0  175.78    9.50
  13 -13   0   71.19    9.90
 -13  13   0   62.39    9.50
  13 -13   0   60.99   11.30
  13   0   0   68.89   11.90
   0 -13   0   68.79    5.60
   0  13   0   63.59    5.60
   0  13   0   98.79   16.50
 -13   0   0   60.59    7.20
 -13   0   0   86.59    6.50
   7   7   0 2071.59   88.19
   7   7   0 1988.60   83.59
 -14   7   0 1994.90   82.59
   7 -14   0 2006.50   82.89
 -14   7   0 2016.70   83.49
  -7  14   0 2148.09   85.99
  -7  -7   0 1928.81   82.89
  14  -7   0 2101.89   86.89
 -14   6   0  532.15   23.70
   8   6   0  503.85   23.90
 -14   6   0  519.85   22.60
   8   6   0  517.35   30.40
 -14   8   0  529.25   22.50
   6 -14   0  531.05   22.80
   6   8   0  530.45   30.20
   8 -14   0  527.65   25.50
   6 -14   0  529.15   24.40
 -14   8   0  535.15   23.90
   8 -14   0  534.15   23.00
  14  -8   0  545.05   28.60
  14  -6   0  523.15   28.40
  -8  14   0  513.95   26.10
  -6  14   0  539.65   27.00
  -6  -8   0  534.15   23.00
  -8  -6   0  521.15   22.80
 -14   9   0  137.99    9.50
   5 -14   0  146.19    7.90
   9 -14   0  145.39   12.80
   5 -14   0  143.59    9.40
   5   9   0  146.79   18.70
 -14   5   0  145.89    9.20
 -14   5   0  140.59    7.80
   9   5   0  116.39   19.40
 -14   9   0  138.69    7.50
   5   9   0  140.29    8.70
   9 -14   0  142.29    8.40
   9   5   0  150.98   10.70
  -9  -5   0  151.08    8.20
  -5  -9   0  146.79    8.10
  -5  14   0  156.78   14.20
  -9  14   0  144.19   12.40
  14  -5   0  140.39   16.90
  14  -9   0  126.89   15.70
 -14   4   0  535.75   23.10
  10 -14   0  518.25   25.70
  10   4   0  495.75   24.70
  10   4   0  511.65   31.40
   4  10   0  516.35   28.70
 -14  10   0  500.95   21.90
 -14   4   0  527.65   22.30
   4  10   0  510.85   22.70
   4 -14   0  495.65   22.90
   4 -14   0  502.85   22.30
  10 -14   0  513.35   23.00
 -14  10   0  502.95   23.60
  14  -4   0  516.45   27.50
 -10  14   0  519.35   25.20
  -4 -10   0  536.35   22.50
 -10  -4   0  522.65   22.50
  14 -10   0  513.05   28.10
  -4  14   0  518.55   27.10
   3 -14   0  144.59    9.30
  11   3   0  189.98   21.80
  11   3   0  156.78   13.40
 -14   3   0  163.08    9.00
 -14  11   0  156.98   11.30
   3 -14   0  172.58    9.00
   3  11   0  176.68    9.30
  11 -14   0  175.88   10.60
 -14   3   0  161.48    9.90
  11 -14   0  138.49   14.40
   3  11   0  187.98   19.20
  14 -11   0  147.69   16.60
  -3 -11   0  174.18    9.00
 -11  14   0  159.28   12.50
  14  -3   0  143.79   15.30
  14 -11   0  166.58   15.90
  -3  14   0  169.18   17.30
 -11  -3   0  168.28    9.10
  12   2   0  145.99   22.00
   2  12   0   92.89    7.30
   2  12   0   95.69   15.50
  12   2   0   91.09   12.80
 -14   2   0   92.99    6.60
  12 -14   0   94.69    8.90
  12 -14   0   86.69   12.30
   2 -14   0   99.79    7.00
 -14   2   0  101.79    7.90
 -14  12   0   98.29    9.30
   2 -14   0  108.49    6.90
 -12  14   0  101.19   11.40
  -2 -12   0  108.59    7.20
  14 -12   0   95.39   13.30
 -12  -2   0  107.99    7.00
  -2  14   0  111.29   15.30
  14 -12   0   86.39   15.40
  14  -2   0   83.29   13.50
   1 -14   0   31.70    5.30
 -14   1   0   13.00    4.90
  13 -14   0   11.30   11.20
   1  13   0   20.30    4.20
 -14  13   0   13.00    6.40
   1  13   0   33.50   12.40
 -14   1   0   25.20    4.40
  13 -14   0   19.20    6.30
  13   1   0   18.70    8.70
 -13  -1   0   20.80    4.40
  14 -13   0   -2.50   10.20
  -1 -13   0   16.80    3.90
  14  -1   0   22.70   11.00
  14 -13   0   15.30    7.70
  -1  14   0    2.90   10.80
 -13  14   0   25.30    7.40
   0  14   0    7.10    3.80
  14 -14   0    4.80   10.20
 -14  14   0    2.50    6.80
   0 -14   0   11.30    3.80
   0  14   0   20.60   12.20
  14   0   0   -0.70    8.70
 -14   0   0   16.90    4.20
  14 -14   0   14.00    6.70
   7 -15   0  365.56   16.60
 -15   7   0  357.86   17.60
   7   8   0  356.76   25.50
 -15   8   0  354.56   16.20
 -15   7   0  364.46   16.30
   7   8   0  355.96   17.50
   8 -15   0  371.56   16.70
   8   7   0  364.96   26.10
   8 -15   0  366.26   19.90
   8   7   0  368.06   18.10
   7 -15   0  367.86   18.80
  -7  15   0  379.76   22.30
  15  -8   0  367.36   23.40
  -7  -8   0  360.96   16.70
  -8  -7   0  369.46   16.80
  -8  15   0  370.66   20.90
  15  -7   0  359.76   23.40
   9   6   0 1054.39   50.79
   6 -15   0 1043.40   43.80
   9 -15   0 1053.49   44.10
 -15   6   0 1041.70   43.60
 -15   6   0 1058.09   44.60
 -15   9   0 1021.00   43.50
   9   6   0 1057.79   45.30
   6   9   0 1049.00   49.60
 -15   9   0 1031.30   44.80
   6   9   0 1036.60   44.40
   9 -15   0 1026.80   46.20
  -6  15   0 1092.59   48.00
  -9  15   0 1074.19   46.70
  -6  -9   0 1066.49   43.90
  15  -9   0 1077.69   49.00
  15  -6   0 1078.89   48.90
  -9  -6   0 1024.70   43.80
   5 -15   0  308.17   14.30
 -15  10   0  302.67   13.80
 -15  10   0  296.77   15.90
  10   5   0  302.87   17.00
  10 -15   0  299.07   14.90
  10   5   0  326.37   25.00
   5 -15   0  295.37   15.80
  10 -15   0  278.07   18.90
 -15   5   0  302.37   14.10
 -15   5   0  297.87   15.30
   5  10   0  317.07   24.00
  15 -10   0  274.27   21.00
  -5 -10   0  316.87   14.60
  15  -5   0  322.17   22.80
 -10  -5   0  312.57   14.50
  -5  15   0  326.57   21.00
 -15  11   0  136.29   10.50
   4  11   0  130.59    8.70
   4 -15   0  136.69    7.80
  11   4   0  135.99   12.40
   4  11   0  130.49   17.00
  11 -15   0  104.49   15.20
   4 -15   0  127.69    9.40
  11   4   0  134.49   23.10
 -15   4   0  138.89    7.80
 -15  11   0  139.09    7.50
 -15   4   0  139.99    9.50
  11 -15   0  131.39    9.40
 -11  -4   0  138.99    8.30
  -4  15   0  132.09   15.40
 -11  15   0  150.08   12.80
  15 -11   0  112.49   16.40
  15  -4   0  118.59   15.50
  -4 -11   0  144.39    8.20
   3 -15   0  122.59    7.40
 -15   3   0  130.79    7.90
  12   3   0  139.19   21.40
  12 -15   0  117.69    9.50
 -15  12   0  114.29   10.20
  12 -15   0   82.79   13.80
   3 -15   0  108.29    8.60
  12   3   0  104.29   11.70
 -15   3   0  112.19    8.90
   3  12   0  123.29    8.30
   3  12   0  119.59   18.20
 -12  15   0  117.29   11.60
  -3 -12   0  123.99    7.60
  -3  15   0  113.69   15.30
  15 -12   0  102.09   16.40
  15  -3   0  114.39   15.30
 -12  -3   0  121.29    7.80
 -15   2   0   40.30    5.80
 -15   2   0   41.40    5.90
   2 -15   0   40.10    5.60
  13   2   0   57.89   16.00
   2 -15   0   41.50    6.70
   2  13   0   34.50   13.20
 -15  13   0   33.20    7.00
  13   2   0   36.80    9.80
  13 -15   0   17.80   11.50
  13 -15   0   32.70    6.70
   2  13   0   34.40    5.80
  15 -13   0   45.10   10.90
  -2  15   0   36.40   12.00
  15 -13   0   32.60   12.20
  15  -2   0   23.30   10.70
  -2 -13   0   46.00    5.90
 -13  15   0   43.00    9.00
 -13  -2   0   48.70    5.70
  14   1   0   29.80    9.90
 -15   1   0   38.10    5.50
   1  14   0   55.49   13.10
 -15   1   0   35.60    6.10
  14   1   0   66.29   17.20
   1  14   0   30.70    5.50
  14 -15   0   39.90   11.50
 -15  14   0   36.30    7.50
  14 -15   0   30.00    7.40
   1 -15   0   46.70    5.90
   1 -15   0   45.80    6.00
  15 -14   0   35.30   10.30
  -1 -14   0   36.90    5.20
 -14  -1   0   37.00    5.60
  15  -1   0   22.70   10.20
  -1  15   0   23.80   12.30
 -14  15   0   32.50    8.10
  15 -14   0   34.60   13.40
  15 -15   0   22.30   13.50
 -15  15   0   24.10    8.00
   0 -15   0   22.20    4.30
  15   0   0   20.90   10.20
   0  15   0   15.00   12.40
 -15   0   0   26.90    4.70
  15 -15   0   33.10    8.60
 -16   8   0 1002.20   44.10
   8   8   0 1009.90   43.70
   8   8   0 1031.60   49.70
 -16   8   0 1027.40   42.60
   8 -16   0  996.50   45.10
   8 -16   0 1023.50   42.90
  16  -8   0 1084.09   49.40
  -8  -8   0 1039.00   43.00
  -8  16   0 1011.40   46.20
   9   7   0  187.58   12.60
 -16   9   0  191.68   12.10
   9 -16   0  192.58   10.60
   9 -16   0  177.88   14.90
 -16   7   0  202.48   10.10
 -16   7   0  207.08   11.80
   7 -16   0  194.68   10.40
   7   9   0  202.78   21.20
 -16   9   0  195.48    9.90
   7   9   0  201.58   11.40
   9   7   0  162.58   22.20
   7 -16   0  185.38   13.10
  16  -9   0  183.88   21.00
  -9  -7   0  205.28   10.80
  -7  16   0  206.88   17.60
  -7  -9   0  213.58   10.50
  -9  16   0  189.78   15.40
  16  -7   0  185.38   19.00
 -16  10   0  152.48    8.50
  10   6   0  157.68   22.10
 -16  10   0  154.48   10.90
 -16   6   0  151.38   10.50
   6 -16   0  142.39   12.10
   6  10   0  158.68    9.60
  10 -16   0  163.88    9.50
   6  10   0  157.58   20.40
  10 -16   0  138.59   14.90
   6 -16   0  163.18    9.00
  10   6   0  158.68   11.30
 -16   6   0  169.08    8.90
  16 -10   0  150.88   18.40
 -10  16   0  192.68   15.30
  -6  16   0  155.18   15.50
  16  -6   0  149.99   17.80
 -10  -6   0  160.98    9.00
  -6 -10   0  167.68    9.50
 -16  11   0  439.56   19.70
   5  11   0  450.55   20.70
  11   5   0  451.95   30.20
   5 -16   0  453.55   20.20
  11 -16   0  446.96   21.00
 -16   5   0  455.35   20.10
 -16  11   0  457.85   21.90
   5  11   0  433.96   28.20
  11 -16   0  429.56   25.30
 -16   5   0  462.75   21.20
  11   5   0  441.76   22.80
  16 -11   0  402.16   26.90
  16  -5   0  436.06   26.30
 -11  16   0  464.15   24.00
  -5 -11   0  473.55   20.40
 -11  -5   0  467.15   20.30
  -5  16   0  486.05   25.80
  12   4   0  143.59   19.60
   4 -16   0  118.29    7.70
   4 -16   0  113.89    9.30
  12 -16   0   89.39   15.90
 -16   4   0  114.89    9.20
 -16  12   0  105.19   10.10
   4  12   0  100.79   16.90
 -16   4   0  116.69    7.40
  12 -16   0  120.19    9.50
   4  12   0  113.99    8.60
  12   4   0  103.29   11.10
 -16  12   0  109.19    7.00
 -12  16   0  104.79   12.10
  16 -12   0   92.89   16.40
  -4 -12   0  119.89    7.70
  16  -4   0  127.59   16.40
 -12  -4   0  119.39    7.80
  -4  16   0  112.99   17.10
  13   3   0   39.40    9.10
 -16  13   0   47.40    8.00
 -16   3   0   48.80    7.50
  13 -16   0   24.10   11.20
   3 -16   0   56.69    6.10
  13   3   0   59.59   17.60
   3  13   0   36.60   12.90
 -16   3   0   59.49    6.20
   3 -16   0   39.00    6.50
  13 -16   0   51.49    7.40
  16 -13   0   27.80   12.60
 -13  16   0   44.30    9.00
  16  -3   0   37.80   11.60
 -13  -3   0   60.49    6.60
  -3  16   0   48.40   12.50
  -3 -13   0   58.19    6.50
   2  14   0   25.20   12.70
 -16  14   0   22.10    7.10
  14   2   0   17.10    9.90
  14   2   0   39.90   26.60
  14 -16   0   17.90    7.20
 -16   2   0   17.70    5.70
   2 -16   0   18.10    4.40
  14 -16   0   31.80   12.80
 -16   2   0   38.00    6.30
   2 -16   0   27.00    5.50
   2  14   0   16.70    5.50
  16 -14   0   21.70   12.30
 -14  16   0   16.90    8.20
 -14  -2   0   26.60    5.00
  -2 -14   0   18.90    4.20
  16 -14   0   31.50   11.50
  16  -2   0   11.70   12.10
  -2  16   0   16.60   11.90
   1 -16   0    3.30    4.00
  15 -16   0    9.90   12.70
   1  15   0    3.80    4.80
  15 -16   0    7.70    7.20
 -16   1   0    6.30    4.40
  15   1   0  -10.00    8.40
   1  15   0    2.50   11.90
   1 -16   0   15.50    4.40
 -16  15   0    0.70    7.20
  15   1   0   38.90   16.30
  16 -15   0   -4.30   12.30
  -1 -15   0    1.30    3.90
  -1  16   0   -2.00   11.60
 -15  16   0   -8.80    7.80
  16 -15   0    4.20    9.80
  16  -1   0  -14.20   10.80
 -15  -1   0   13.00    4.40
   0  16   0  116.49   16.30
  16 -16   0  169.28   19.50
  16 -16   0  140.59   14.90
 -16   0   0  147.59    9.30
 -16  16   0  126.59   12.70
   0 -16   0  148.89    9.40
  16   0   0  140.29   17.50
   9   8   0  187.98   12.20
   8 -17   0  156.68   14.60
   8   9   0  188.58   12.10
 -17   9   0  196.48    9.90
   8   9   0  171.88   21.60
   9 -17   0  199.48   10.60
   8 -17   0  198.98   10.40
 -17   9   0  192.78   12.20
   9 -17   0  166.48   14.90
 -17   8   0  194.78   10.00
   9   8   0  155.48   21.40
 -17   8   0  191.48   12.00
  -9  17   0  191.38   15.90
  17  -8   0  176.98   19.60
  17  -9   0  155.08   19.20
  -9  -8   0  195.78   10.50
  -8  17   0  179.28   16.20
  -8  -9   0  207.98   10.50
  10   7   0  575.64   34.30
   7 -17   0  537.85   27.90
 -17   7   0  606.14   25.50
   7  10   0  580.94   26.50
  10 -17   0  572.84   29.70
 -17  10   0  581.44   27.10
  10   7   0  591.04   27.70
   7  10   0  578.04   34.10
 -17  10   0  599.64   25.30
  10 -17   0  593.84   26.00
   7 -17   0  578.74   25.60
  17 -10   0  584.54   32.60
 -10  17   0  607.34   29.40
  -7  17   0  600.74   30.40
 -10  -7   0  586.14   25.70
  -7 -10   0  594.74   25.80
  17  -7   0  604.74   32.40
 -17  11   0  162.08    8.70
  11 -17   0  155.28   10.20
 -17  11   0  145.69   11.00
   6 -17   0  126.69   12.30
   6  11   0  182.28   21.00
  11   6   0  121.29   19.20
 -17   6   0  158.18    9.10
   6  11   0  154.88   10.10
 -17   6   0  157.58   11.10
   6 -17   0  171.48    9.40
  11   6   0  153.18   12.50
  11 -17   0  152.78   16.50
  17 -11   0  157.38   19.20
  -6 -11   0  162.38    9.30
 -11  -6   0  160.18    9.30
  17  -6   0  146.49   18.10
 -11  17   0  161.28   15.70
  -6  17   0  152.08   16.30
   5 -17   0   11.30    4.00
   5  12   0   14.10    4.80
   5  12   0   -2.10   13.60
   5 -17   0    2.60    6.50
  12 -17   0   10.90    5.10
 -17   5   0   11.90    3.80
  12   5   0   10.60    6.80
  12 -17   0   -1.80    9.60
 -17   5   0   20.80    5.70
 -17  12   0   13.80    3.40
 -17  12   0   14.70    6.30
  12   5   0   -1.60   14.90
  17 -12   0  -14.40   11.50
 -12  17   0    6.90    8.60
 -12  -5   0   24.90    4.90
  -5 -12   0   11.30    4.30
  17  -5   0   -4.60   10.90
  -5  17   0   36.60   12.00
 -17   4   0    8.70    5.80
 -17  13   0   11.90    3.40
   4  13   0    4.30   12.90
  13 -17   0    4.90    5.20
   4  13   0    4.30    4.90
 -17  13   0   14.00    6.60
  13   4   0   -4.70   15.90
 -17   4   0   12.00    3.90
   4 -17   0    4.10    3.80
  13 -17   0   10.80   12.10
  13   4   0    0.60    7.30
 -13  -4   0   10.10    4.60
  17  -4   0   -6.80   10.30
 -13  17   0    4.20    8.20
  -4  17   0   24.70   11.90
  -4 -13   0   10.60    4.20
  17 -13   0    0.60   12.10
   3 -17   0   36.70    6.10
   3  14   0   34.80   13.60
  14   3   0   43.60   16.80
  14   3   0   28.60    9.10
 -17   3   0   43.80    5.80
 -17   3   0   46.80    7.50
   3  14   0   35.80    6.70
  14 -17   0   45.50   12.50
  14 -17   0   42.40    7.70
   3 -17   0   33.30    7.50
 -17  14   0   43.10    8.10
  -3 -14   0   50.19    6.50
  -3  17   0   36.60   12.40
 -14  -3   0   43.80    6.70
  17 -14   0   20.60   12.90
 -14  17   0   21.10    8.40
  17  -3   0   28.60   11.00
   2  15   0  150.58   19.20
   2 -17   0  146.19    9.20
 -17   2   0  109.99   10.20
  15 -17   0  144.19   17.70
  15   2   0  142.09   16.10
  15 -17   0  157.28   13.50
 -17  15   0  148.99   12.60
   2 -17   0  133.79   10.10
  15   2   0  131.89   23.30
   2  15   0  141.19    9.40
 -17   2   0  148.99    8.80
 -15  -2   0  146.39    9.30
  17  -2   0  130.39   16.20
  -2 -15   0  135.49    8.70
 -15  17   0  130.79   12.40
  -2  17   0  134.09   16.80
  17 -15   0  118.99   18.80
  17 -15   0  138.89   19.00
   1 -17   0  226.38   11.70
  16   1   0  237.18   18.50
 -17   1   0  232.18   11.80
  16 -17   0  207.18   16.20
  16 -17   0  234.38   20.50
   1  16   0  202.18   12.60
   1 -17   0  196.78   15.30
 -17  16   0  204.88   14.80
   1  16   0  207.98   20.70
 -16  17   0  224.18   15.60
  17 -16   0  264.17   21.30
 -16  -1   0  237.58   11.90
  -1  17   0  194.78   18.60
  -1 -16   0  227.48   11.70
  17  -1   0  226.68   18.40
  17 -16   0  218.68   19.30
  17 -17   0   21.70   11.20
  17   0   0   27.10   10.20
   0  17   0   38.50   12.90
 -17  17   0   33.80    8.20
  17 -17   0   38.00   14.10
 -17   0   0   36.60    6.30
   0 -17   0   36.00    6.30
 -18   9   0  473.25   22.60
   9 -18   0  463.35   21.30
 -18   9   0  494.65   20.80
   9   9   0  446.96   30.70
   9 -18   0  438.66   24.50
   9   9   0  466.95   22.40
  -9  -9   0  485.75   21.20
  -9  18   0  448.16   25.40
  18  -9   0  436.66   28.60
 -18   8   0  138.79    8.00
 -18  10   0  132.39   10.50
 -18   8   0  120.29   10.20
   8  10   0  117.39    9.80
  10 -18   0  123.29    8.90
   8 -18   0   88.99   14.40
 -18  10   0  126.49    7.70
   8  10   0  125.59   20.70
  10   8   0  136.99   19.60
   8 -18   0  124.09    8.30
  10   8   0  125.29   11.10
  10 -18   0  112.99   15.30
  18 -10   0   99.19   18.70
 -10  -8   0  124.79    8.40
  -8  18   0  110.39   14.90
  -8 -10   0  122.29    8.30
 -10  18   0  146.09   14.50
  18  -8   0  114.79   18.10
 -18   7   0   49.30    9.00
  11 -18   0   41.40    6.70
 -18   7   0   45.00    5.20
 -18  11   0   46.90    5.40
  11   7   0   42.00    7.50
  11 -18   0   29.80   11.20
   7 -18   0   16.60    8.40
   7  11   0   41.80   15.10
  11   7   0   38.80   15.50
   7 -18   0   42.60    6.10
 -18  11   0   40.20    7.30
   7  11   0   40.00    7.50
  18 -11   0   26.40   13.50
  -7 -11   0   40.30    5.90
  18  -7   0   20.00   12.30
 -11  18   0   27.80    9.90
  -7  18   0   39.50   11.40
 -11  -7   0   41.30    6.80
   6 -18   0   77.39    6.90
   6  12   0   75.19   16.00
 -18   6   0   77.89    6.20
 -18  12   0   74.99    9.10
 -18   6   0   55.69    9.40
  12 -18   0   61.49   13.00
 -18  12   0   80.09    6.00
   6 -18   0   44.50    8.40
  12 -18   0   79.79    8.20
  12   6   0   49.99   16.40
  12   6   0   75.59   10.20
   6  12   0   77.69    7.80
  18 -12   0   52.09   14.00
 -12  18   0   65.69   11.60
  18  -6   0   55.09   13.30
 -12  -6   0   71.79    6.70
  -6 -12   0   67.59    6.70
  -6  18   0   77.29   13.00
  13 -18   0   41.00    6.80
  13   5   0   23.10   15.60
 -18  13   0   43.20    5.20
 -18   5   0   56.89    5.80
   5 -18   0   45.80    6.10
   5  13   0   43.80   14.10
 -18  13   0   37.40    7.30
 -18   5   0   39.30    6.80
  13   5   0   49.20    9.10
  13 -18   0   31.70   12.50
   5  13   0   48.90    6.90
  -5 -13   0   32.80    5.80
  18 -13   0   31.30   13.00
 -13  -5   0   57.19    6.40
 -13  18   0   34.30    9.20
  18  -5   0   34.40   12.00
  -5  18   0   62.49   13.10
 -18  14   0   78.59    6.10
   4  14   0   77.89   15.70
  14   4   0   74.09   13.10
  14 -18   0   93.09   18.40
 -18   4   0   79.49    6.50
  14 -18   0   62.69   10.10
   4 -18   0   54.69    8.70
 -18   4   0   73.19    8.60
   4  14   0   68.39    8.00
  14   4   0   76.49   17.10
 -18  14   0   75.59   10.40
   4 -18   0   66.69    6.80
  18 -14   0   65.79   14.70
  18  -4   0   74.99   14.10
 -14  -4   0   80.19    6.90
 -14  18   0   60.49   11.10
  -4 -14   0   78.29    6.80
  -4  18   0   88.39   14.80
   3 -18   0   66.59   12.60
 -18  15   0   90.29   10.50
 -18   3   0   77.59    9.00
   3 -18   0   93.59    7.50
  15 -18   0   90.09   15.20
   3  15   0   74.09    8.10
  15 -18   0   79.99   11.50
   3  15   0   91.39   15.80
 -18   3   0   97.19    7.20
  15   3   0   94.49   12.20
  15   3   0   94.79   19.00
 -15  18   0   91.29   12.20
  18 -15   0   93.19   17.50
 -15  -3   0   90.39    7.80
  18  -3   0   86.39   15.80
  -3 -15   0   89.29    7.00
  -3  18   0   96.39   14.60
   2  16   0   18.80    4.70
  16 -18   0   24.90    7.90
  16 -18   0   20.60   13.40
   2  16   0   21.20   12.20
 -18   2   0   20.70    4.60
   2 -18   0   15.20    4.70
 -18  16   0   22.30    7.30
  16   2   0   20.30    9.80
  16   2   0    4.00   14.80
  18  -2   0    5.80    9.80
  -2 -16   0   23.30    4.80
 -16  -2   0   19.30    4.60
  -2  18   0   15.60   11.10
 -16  18   0   15.40    8.30
  18 -16   0   18.80   12.20
  17 -18   0  162.18   19.40
  17   1   0  168.18   15.60
  17 -18   0  156.08   15.20
   1 -18   0  160.28    9.60
   1  17   0  137.79   16.90
 -18  17   0  143.09   12.90
 -18   1   0  166.48    9.90
  -1 -17   0  156.38    9.90
 -17  18   0  148.09   12.50
  18 -17   0  146.29   19.20
 -17  -1   0  153.98    9.70
  -1  18   0  144.69   18.20
  18  -1   0  161.68   18.00
  18 -17   0  180.08   21.70
 -18  18   0  412.56   22.60
  18 -18   0  432.56   27.70
   0 -18   0  422.16   19.50
  18 -18   0  413.66   26.90
 -18   0   0  424.26   19.40
   0  18   0  374.76   25.20
  18   0   0  445.86   24.60
 -19   9   0   27.20    6.70
   9  10   0   30.30   14.30
   9 -19   0   31.20    5.70
 -19  10   0   34.20    6.90
   9  10   0   33.00    6.40
  10 -19   0   27.70    4.80
  10   9   0   18.50   14.40
  10   9   0   33.80    6.90
  10 -19   0   23.40   10.60
 -19  10   0   35.00    5.40
   9 -19   0   29.80   10.10
 -19   9   0   40.60    5.30
  19 -10   0   20.90   12.70
  -9 -10   0   33.10    5.70
  -9  19   0   18.50    9.80
 -10  -9   0   43.00    6.00
 -10  19   0   28.40    9.90
  19  -9   0   23.20   12.50
 -19  11   0   94.59    6.50
  11 -19   0   88.19    7.70
   8  11   0   92.99    8.90
 -19   8   0   93.09    9.40
  11   8   0   52.79   16.90
   8 -19   0   63.79   12.70
 -19   8   0   95.29    6.90
   8 -19   0   80.39    7.20
   8  11   0   67.69   15.30
  11   8   0   84.29   10.30
 -19  11   0   94.79    9.50
  11 -19   0   90.29   15.30
 -11  -8   0   78.49    7.20
  -8  19   0   67.99   12.10
 -11  19   0   73.29   12.40
  19  -8   0   71.79   14.90
  19 -11   0   94.89   15.40
  -8 -11   0   86.49    7.70
  12 -19   0   89.19    8.70
 -19  12   0   88.89    6.70
   7  12   0   78.89    8.60
 -19   7   0  100.19    9.40
 -19   7   0   93.29    7.10
   7  12   0   92.79   16.00
  12   7   0   90.19   11.00
  12 -19   0   89.19   16.30
   7 -19   0   86.89    7.40
   7 -19   0   69.79   10.50
  12   7   0   78.49   17.00
 -19  12   0   93.29    9.70
  19 -12   0   73.49   14.90
  19  -7   0   68.79   14.50
  -7  19   0   74.59   12.30
 -12  -7   0   87.59    7.20
  -7 -12   0   88.49    7.40
 -12  19   0   80.69   12.20
  13 -19   0  112.79   17.00
   6 -19   0   73.79   11.30
 -19  13   0   95.49   10.00
  13 -19   0   92.89    9.70
   6 -19   0   91.79    7.60
  13   6   0   82.99   11.70
 -19   6   0  108.29    7.50
   6  13   0   94.89   16.20
   6  13   0   83.39    8.60
  13   6   0  114.19   18.30
 -19  13   0  104.69    6.70
  -6  19   0   86.69   15.50
  19  -6   0   83.59   15.90
 -13  19   0  107.79   13.60
  -6 -13   0   88.19    7.30
  19 -13   0   96.79   15.20
 -13  -6   0   92.09    7.90
 -19   5   0   36.10    5.60
   5 -19   0   20.60    4.40
   5  14   0    9.30   13.60
 -19  14   0   26.30    4.20
  14 -19   0   22.50   12.40
   5  14   0   20.30    5.50
  14   5   0    1.70   14.90
  14 -19   0   28.30    6.50
 -19  14   0   24.20    6.70
  14   5   0   24.00    8.30
  -5  19   0   20.00   10.70
 -14  -5   0   24.20    4.80
 -14  19   0   18.10    8.40
  19 -14   0   19.20   12.70
  19  -5   0    9.40   10.50
  -5 -14   0   21.90    4.60
   4 -19   0   -0.40    6.10
 -19  15   0   27.80    4.70
 -19  15   0   10.10    6.80
  15 -19   0   12.40    6.70
  15   4   0   11.00    8.80
 -19   4   0   13.10    4.10
   4  15   0   18.70    4.80
   4  15   0    4.00   12.50
  15 -19   0   16.70   12.30
   4 -19   0   16.10    4.10
  15   4   0  -12.60   14.80
  19  -4   0   15.40   10.80
  -4 -15   0   15.80    4.20
 -15  -4   0   14.40    4.50
 -15  19   0   16.30    8.60
  -4  19   0   15.10   11.00
  19 -15   0   12.70   12.50
  16 -19   0   93.59   16.50
   3  16   0   76.19   14.20
 -19   3   0  103.69    7.70
  16   3   0  101.69   12.30
  16   3   0  110.39   19.30
  16 -19   0   83.59   12.40
   3 -19   0   59.99    9.40
 -19  16   0  100.09    6.80
   3  16   0   82.19    8.40
 -19  16   0   95.29   10.90
   3 -19   0   91.39    7.60
 -16  -3   0   91.29    7.20
  -3 -16   0   88.89    7.10
 -16  19   0   89.19   12.20
  19  -3   0   84.19   14.50
  19 -16   0  114.19   18.10
  -3  19   0   97.59   15.00
  17 -19   0  296.27   19.50
 -19  17   0  282.87   17.40
 -19   2   0  296.27   14.50
  17 -19   0  297.77   25.50
   2 -19   0  292.37   14.70
   2  17   0  264.67   21.30
  17   2   0  298.67   19.30
 -17  -2   0  286.77   14.30
  -2  19   0  243.08   21.60
 -17  19   0  286.37   18.30
  19  -2   0  309.47   20.40
  19 -17   0  301.97   25.10
  -2 -17   0  271.37   14.30
 -19   1   0   78.79    7.00
   1  18   0   81.99   15.10
 -19  18   0   87.99   11.40
   1 -19   0   89.39    7.80
  18 -19   0   74.69   13.50
  18 -19   0   96.89   17.30
  18   1   0   85.49   13.90
  -1 -18   0   84.49    7.80
 -18  -1   0   87.29    7.60
 -18  19   0   69.99   11.50
  19 -18   0   72.69   15.20
  -1  19   0   69.59   13.30
  19  -1   0   63.09   12.20
  19 -18   0   55.39   14.40
  19   0   0  102.89   15.10
 -19  19   0   96.59   12.00
  19 -19   0  111.69   16.60
  19 -19   0  108.09   18.70
 -19   0   0  109.39    8.40
   0  19   0   96.79   15.10
   0 -19   0  107.99    8.60
 -20  10   0   64.89    8.90
  10  10   0   73.29    9.00
  10 -20   0   62.29    7.10
  10  10   0   69.69   16.10
  10 -20   0   82.79   13.60
 -20  10   0   74.89    6.10
 -10  20   0   55.89   10.80
 -10 -10   0   64.99    7.00
  20 -10   0   49.80   13.20
  11   9   0   66.79    9.70
 -20  11   0   80.49    6.40
  11   9   0   47.80   15.30
 -20   9   0   73.59    9.50
  11 -20   0   70.29   12.30
   9  11   0   88.89    8.40
   9 -20   0   45.00   10.90
  11 -20   0   74.79    7.50
 -20   9   0   80.59    6.50
 -20  11   0   91.49    9.60
   9  11   0   60.69   15.60
   9 -20   0   72.99    7.00
  20  -9   0   78.79   14.00
  -9  20   0   68.39   11.70
  -9 -11   0   69.29    6.60
 -11  -9   0   71.99    6.80
  20 -11   0   59.59   13.40
 -11  20   0   46.90   10.40
   8 -20   0   41.70    9.80
  12 -20   0   43.40    7.10
   8  12   0   45.90    7.70
 -20   8   0   44.10    5.20
 -20  12   0   68.39    8.70
  12   8   0   38.30    7.70
   8 -20   0   45.20    6.20
  12 -20   0   22.40   12.00
   8  12   0   36.50   13.40
  12   8   0   10.60   15.30
 -20  12   0   52.89    5.40
 -20   8   0   41.30    7.40
  20 -12   0   28.40   12.90
  -8  20   0   35.10   10.40
  20  -8   0   33.70   11.10
 -12  -8   0   40.30    5.90
 -12  20   0   30.40    9.60
  -8 -12   0   49.10    6.80
   7  13   0   15.40    5.30
  13 -20   0   17.40    5.70
 -20   7   0   15.40    4.10
   7 -20   0   21.10    4.70
  13 -20   0   19.60   11.60
 -20  13   0   14.30    6.40
  13   7   0   10.00    7.30
   7 -20   0   -7.30    8.40
 -20  13   0   27.60    4.70
   7  13   0   13.50   12.40
  13   7   0   -2.40   14.80
  -7 -13   0   14.00    4.40
  20 -13   0   24.10   12.20
 -13  20   0   12.00    8.50
  20  -7   0   13.90   10.60
  -7  20   0    0.40   10.00
 -13  -7   0   12.00    4.40
   6 -20   0   92.19   11.70
  14   6   0  133.69   21.20
 -20   6   0  131.69    8.30
   6  14   0  127.79   18.10
   6 -20   0  120.99    8.30
   6  14   0  142.09   10.30
  14   6   0  115.09   12.80
  14 -20   0  134.89   10.60
 -20  14   0  136.69    8.00
 -20  14   0  134.69   11.50
  14 -20   0  139.29   19.30
 -14  20   0  136.49   14.00
  20  -6   0  102.19   17.50
  20 -14   0  135.09   18.60
 -14  -6   0  121.49    8.30
  -6 -14   0  120.09    8.30
  -6  20   0  103.19   14.30
 -20  15   0   63.19   10.20
 -20  15   0   70.69    6.00
 -20   5   0   71.89    6.60
  15 -20   0   56.69    8.60
   5  15   0   43.90   14.20
   5 -20   0   62.49    6.70
   5  15   0   49.70    8.40
  15   5   0   59.39   16.60
  15 -20   0   51.39   14.50
  15   5   0   60.69   10.50
 -15  -5   0   61.69    6.80
  -5  20   0   32.70   11.30
 -15  20   0   44.80    9.30
  20 -15   0   61.09   14.10
  20  -5   0   51.59   12.40
  -5 -15   0   57.99    6.40
   4  16   0  105.79   16.50
 -20   4   0   88.49    7.10
 -20  16   0   97.59    6.80
  16 -20   0   77.19   11.80
  16   4   0   97.39   13.70
   4 -20   0   83.19    7.80
  16 -20   0   88.99   16.20
 -20  16   0   82.09   10.90
 -16  -4   0   88.99    7.40
 -16  20   0   74.79   12.70
  20 -16   0   89.99   15.70
  -4 -16   0   78.29    7.30
  20  -4   0   64.99   12.80
  -4  20   0   54.59   12.50
 -20  17   0   48.00    6.00
  17 -20   0   35.30   15.60
  17   3   0   37.70   10.00
   3  17   0   47.60   14.10
 -20   3   0   49.60    6.50
   3 -20   0   41.30    6.50
 -20  17   0   37.50    8.20
  17 -20   0   58.59   10.10
  -3  20   0   32.50   13.90
  20 -17   0   54.79   14.60
  20  -3   0   41.30   12.90
  -3 -17   0   46.80    6.60
 -17  20   0   43.10    9.70
 -17  -3   0   37.40    6.50
  18   2   0   71.69   12.70
   2 -20   0   74.09    7.50
   2  18   0   94.39   15.60
  18 -20   0   56.89   14.90
 -20  18   0   85.09   11.60
 -20   2   0   77.69    7.10
  18 -20   0   66.29   12.00
  20 -18   0   78.39   17.00
 -18  -2   0   73.29    8.10
  -2 -18   0   76.89    7.70
  -2  20   0   81.59   15.80
  20  -2   0   82.69   15.10
 -18  20   0   75.09   12.10
  19   1   0  313.17   21.70
  19 -20   0  313.77   24.60
  19 -20   0  259.87   23.90
   1 -20   0  299.07   15.10
   1  19   0  209.68   30.90
 -20   1   0  286.87   15.10
 -20  19   0  304.07   18.60
  -1  20   0  268.17   21.60
 -19  20   0  272.67   18.40
  -1 -19   0  284.67   17.80
 -19  -1   0  298.97   14.90
  20 -19   0  289.27   24.60
  20 -20   0   47.70   15.70
 -20  20   0   81.09   12.00
  20 -20   0   58.89   26.20
  20   0   0   57.09   12.20
 -20   0   0   57.39    6.90
   0 -20   0   52.69    6.60
   0  20   0   40.80   12.90
  11  10   0   19.00   14.80
  10  11   0   10.40    5.70
  10 -21   0    7.20    4.40
 -21  11   0    9.90    6.10
 -21  10   0   17.60    6.70
  11 -21   0    3.30    4.80
  11 -21   0    0.40   10.70
  10  11   0  -10.40   13.10
 -21  11   0   11.10    3.80
 -21  10   0    8.90    3.80
  10 -21   0   12.70   10.10
  11  10   0   13.20    6.10
  21 -10   0   -9.90   10.70
 -10 -11   0    3.80    4.10
 -10  21   0    6.00    9.60
 -11  21   0   -2.10    8.60
 -11 -10   0    2.10    4.30
  21 -11   0   -1.40   11.40
 -21   9   0   78.49    6.70
   9  12   0   73.29    9.30
 -21  12   0   76.39    6.60
  12 -21   0   69.69   13.50
   9  12   0   65.49   16.20
 -21  12   0   94.89   10.00
   9 -21   0   70.79    7.10
  12   9   0   78.49   10.30
  12   9   0   44.50   15.90
   9 -21   0   57.29   12.10
  12 -21   0   63.79    8.10
  -9  21   0   56.49   11.20
 -12  -9   0   65.39    7.30
  21  -9   0   56.89   14.20
  -9 -12   0   65.99    6.80
 -12  21   0   58.19   11.10
  21 -12   0   48.40   14.00
   8 -21   0   99.69   14.90
  13 -21   0  158.58   11.20
  13   8   0  121.39   22.40
 -21  13   0  156.18    8.90
   8  13   0  136.09   19.90
  13   8   0  150.38   12.90
 -21  13   0  164.48   12.20
   8 -21   0  154.38    9.70
 -21   8   0  161.58    9.40
   8  13   0  161.38   11.10
  13 -21   0  172.98   19.20
 -13  21   0  127.39   13.80
  -8  21   0  113.99   15.80
 -13  -8   0  143.99    9.70
  21  -8   0  142.99   17.30
  -8 -13   0  141.19    9.10
  21 -13   0  142.99   18.90
   7 -21   0   31.50    5.50
  14   7   0   -0.20   16.10
 -21  14   0   49.10    5.80
  14 -21   0   38.80    7.20
  14 -21   0   38.40   14.10
   7  14   0   43.50    7.80
 -21   7   0   52.29    5.50
   7  14   0   32.30   14.40
 -21  14   0   42.30    7.90
  14   7   0   44.70    9.10
 -14  -7   0   25.20    7.60
  21 -14   0   43.00   14.00
  -7 -14   0   31.10    5.30
  21  -7   0   22.40   12.60
 -14  21   0   26.50    9.10
   6 -21   0   42.20    6.60
   6  15   0   21.60   14.80
 -21  15   0   41.60    5.90
 -21  15   0   63.49   10.10
 -21   6   0   46.20    6.30
  15   6   0   42.00    9.10
  15 -21   0   29.50    8.10
  15 -21   0   58.79   14.90
  -6  21   0   23.30   10.80
 -15  -6   0   36.00    8.80
  -6 -15   0   37.50    6.10
  21 -15   0   30.30   14.10
 -15  21   0   31.80    9.90
 -21  16   0   64.59   11.10
  16 -21   0   79.79   16.30
  16 -21   0   63.29   11.40
  16   5   0   67.59   13.20
   5 -21   0   79.09    7.60
 -21   5   0   80.89    7.40
   5  16   0   66.09   14.60
 -21  16   0   89.19    6.70
 -16  21   0   71.09   11.80
 -16  -5   0   72.39    6.80
  -5  21   0   64.79   12.40
  21  -5   0   52.09   15.40
 -21  17   0   35.90    8.30
 -21   4   0   42.00    6.50
   4  17   0   37.60   14.40
  17 -21   0   35.20    9.60
  17   4   0   42.40   10.30
   4 -21   0   33.20    5.80
 -21  17   0   33.90    6.00
  17 -21   0   22.70   15.40
  -4  21   0   20.30   11.00
  -4 -17   0   28.40    5.90
  21  -4   0   31.70   11.40
 -17  -4   0   28.40    5.30
 -17  21   0   25.70    9.50
   3 -21   0  124.29    9.30
  18 -21   0  106.59   19.10
  18   3   0  131.49   16.10
 -21  18   0  146.79    8.80
 -21  18   0  121.09   12.80
   3  18   0  127.19   18.60
  18 -21   0  118.49   15.50
 -18  -3   0  124.99    9.20
  -3  21   0   94.19   16.90
  -3 -18   0  119.89    9.20
  21  -3   0  127.29   17.10
 -18  21   0  104.49   12.60
  21 -18   0  138.59   22.90
  19 -21   0   23.80   12.80
   2  19   0   38.30   12.90
 -21   2   0   43.10    6.90
 -21  19   0   51.69    9.40
 -21  19   0   64.79    6.70
  19 -21   0   56.79   15.90
  19   2   0   51.79   13.40
  21  -2   0   45.60   13.00
  21 -19   0   28.70   15.00
 -19  -2   0   44.30    6.20
  -2  21   0   45.50   12.20
  -2 -19   0   44.80    7.40
 -19  21   0   31.60    8.90
 -21  20   0   76.09   12.10
  20 -21   0   59.19   15.60
  20   1   0   90.89   14.10
   1 -21   0   75.19    7.50
   1  20   0   79.59   15.30
 -21   1   0   73.79    7.10
  20 -21   0   62.69   20.40
  -1  21   0   72.99   14.80
 -20  -1   0   82.59    7.20
  21 -20   0   72.89   18.50
 -20  21   0   60.69   11.00
  21  -1   0   81.69   15.60
  -1 -20   0   82.09    8.00
  21 -21   0  252.47   27.00
  21   0   0  257.97   20.80
   0 -21   0  241.58   13.60
 -21   0   0  231.68   12.80
   0  21   0  213.88   20.20
  11  11   0   35.80   15.60
  11  11   0   57.09    8.50
 -22  11   0   50.69    6.10
  11 -22   0   45.10   13.40
  11 -22   0   55.69    7.80
 -11  22   0   33.50   10.40
 -11 -11   0   54.39    6.40
  22 -11   0   26.80   12.40
  12 -22   0   33.60    5.90
  10 -22   0   27.80    5.50
  12  10   0    9.90   15.70
  12 -22   0   40.50   12.90
 -22  12   0   42.00   10.20
  10 -22   0   45.50   11.70
  10  12   0   41.60   15.30
 -22  10   0   43.00    5.90
  10  12   0   28.00    7.40
  12  10   0   34.30    7.30
  22 -10   0   31.00   12.50
  22 -12   0   30.00   12.90
 -12 -10   0   28.60    5.10
 -10 -12   0   29.30    5.40
 -12  22   0   18.50    9.50
 -10  22   0   22.40   10.00
 -22  13   0   13.30    6.70
   9 -22   0   13.50    4.60
  13 -22   0   13.10    5.70
  13   9   0   -9.20   15.00
  13   9   0   14.90    7.70
   9  13   0   12.90   14.10
   9  13   0    0.40    5.80
  13 -22   0   17.80   12.80
 -22   9   0   18.30    4.40
 -22  13   0   13.60    4.00
 -13  22   0    3.90    8.60
  22 -13   0   10.10   12.60
 -13  -9   0    7.80    4.50
  22  -9   0    8.50   11.50
  -9 -13   0    6.60    4.60
  -9  22   0    4.00    9.10
  14 -22   0   88.09   10.30
  14   8   0   67.39   17.70
   8  14   0   62.39   10.80
  14 -22   0   56.29   15.20
  14   8   0   82.59   11.70
 -22  14   0   81.89    6.80
 -22   8   0   80.59    7.20
   8  14   0   49.20   16.30
   8 -22   0   81.99    7.90
 -22  14   0   96.19   10.90
  22  -8   0   61.69   13.10
  -8 -14   0   70.09    6.80
  -8  22   0   52.39   11.20
 -14  22   0   64.59   11.60
  22 -14   0   67.59   15.10
 -14  -8   0   74.59    7.00
  15 -22   0  122.09   11.70
   7  15   0  100.59   17.60
  15 -22   0  128.29   20.60
 -22   7   0  114.69    8.40
 -22  15   0  124.19    8.10
   7 -22   0  111.59    8.80
  15   7   0  131.69   13.30
 -22  15   0  135.29   12.10
  -7  22   0   90.39   14.10
 -15  22   0  104.29   12.70
  -7 -15   0  110.39    8.10
 -15  -7   0  105.09    8.10
  22 -15   0  105.99   19.50
  22  -7   0  102.19   16.70
  16 -22   0   22.60   14.50
 -22  16   0   23.90    8.10
  16 -22   0   19.70    8.10
 -22  16   0   18.20    4.40
   6 -22   0   10.20    4.50
   6  16   0    7.90   13.20
 -22   6   0   10.00    4.90
  16   6   0   19.60    8.70
  22  -6   0   12.70   11.80
  -6 -16   0    9.40    4.40
  22 -16   0    7.20   13.20
 -16  -6   0   12.30    4.90
 -16  22   0   12.10    9.40
  -6  22   0    4.20    9.70
 -22  17   0   40.40    9.40
   5 -22   0   46.50    7.30
 -22  17   0   61.29    6.00
  17   5   0   42.60   10.80
  17 -22   0   52.79   10.20
   5  17   0   58.99   15.20
  17 -22   0   17.70   16.30
  -5  22   0   45.60   11.50
 -17  -5   0   38.80    6.20
  22 -17   0   48.30   15.40
  22  -5   0   39.50   11.90
  -5 -17   0   42.60    6.90
 -17  22   0   48.20   10.40
   4  18   0   43.20   15.00
 -22  18   0   92.19    7.40
 -22  18   0  110.99   12.40
  18   4   0   65.99   12.30
 -22   4   0   77.79    7.80
  18 -22   0   60.79   15.30
   4 -22   0   68.49    8.10
  18 -22   0  101.19   14.40
  22  -4   0   66.69   14.50
  -4 -18   0   81.99    7.80
 -18  22   0   67.09   12.60
  -4  22   0   54.79   12.10
  22 -18   0   86.09   18.20
 -18  -4   0   75.79    7.50
   3  19   0   31.90   13.40
   3 -22   0   36.30    6.20
 -22   3   0   25.70    5.40
  19 -22   0   32.60   16.00
 -22  19   0   30.50    9.50
 -22  19   0   46.40    6.60
  19   3   0   43.70   12.80
  19 -22   0    6.70   11.00
 -19  22   0   25.70    8.90
  -3 -19   0   23.70    5.50
  22 -19   0   25.70   15.20
 -19  -3   0   27.70    5.60
  22  -3   0   24.90   11.40
  -3  22   0   40.60   12.20
  20   2   0  119.19   15.90
   2  20   0  116.99   19.30
  20 -22   0  101.99   16.80
   2 -22   0  142.69   10.10
  20 -22   0  143.19   23.80
 -22  20   0  157.48   14.40
 -22  20   0  158.98    9.60
 -22   2   0  140.89    9.30
  -2  22   0  133.09   16.20
  22  -2   0  147.79   16.60
  22 -20   0  170.78   25.10
 -20  -2   0  131.49    9.90
  -2 -20   0  131.99    9.30
 -20  22   0  136.79   14.40
 -22  21   0   29.10   11.40
 -22   1   0   32.20    5.80
  21   1   0   47.40   12.40
  21 -22   0   29.70   16.30
   1  21   0   19.80   12.70
  21 -22   0   20.20   15.40
   1 -22   0   52.49    7.40
  22  -1   0   45.40   13.20
  -1  22   0   23.20   11.60
  22 -21   0   43.90   15.80
 -21  -1   0   33.40    5.80
  -1 -21   0   26.70    5.60
 -21  22   0   42.10   10.10
 -22  22   0   44.30   10.10
  22   0   0   53.19   11.60
 -22   0   0   47.70    7.10
  22 -22   0   35.30   16.20
   0 -22   0   42.00    7.50
   0  22   0   40.00   13.30
  11  12   0   17.20   15.10
  11 -23   0   11.40    5.40
  11  12   0    8.50    7.00
  12 -23   0   27.80    5.80
 -23  12   0   14.40    4.70
  11 -23   0   -4.00   12.00
  12  11   0    5.00   14.90
  12  11   0   19.60    7.50
  12 -23   0   18.10   12.70
 -23  11   0   18.00    4.50
 -12 -11   0    9.10    4.50
 -11  23   0    1.70    9.50
  23 -11   0    3.60   11.40
 -11 -12   0    8.20    4.80
 -12  23   0    9.90    9.10
  23 -12   0   20.00   13.30
 -23  10   0   59.99    6.90
  13  10   0   53.89   17.90
  10  13   0   58.19   18.10
  13 -23   0   61.09   15.70
  10 -23   0   57.79    7.80
  13  10   0   76.79   11.20
 -23  13   0   81.59    7.20
  10  13   0   53.69   10.40
  13 -23   0   71.39    9.10
 -13 -10   0   61.59    6.70
 -10  23   0   43.50   10.60
 -10 -13   0   71.79    6.80
  23 -10   0   65.49   14.80
  23 -13   0   69.09   14.70
 -13  23   0   60.19   10.90
  14 -23   0   46.70   15.30
   9  14   0   43.80   16.20
 -23  14   0   70.59    6.70
  14   9   0   20.80   17.70
   9  14   0   75.89   14.70
  14   9   0   62.09   11.60
 -23   9   0   65.79    7.30
  14 -23   0   61.89   10.00
   9 -23   0   65.39    7.70
  23  -9   0   52.29   12.60
  -9  23   0   37.70   10.70
 -14  -9   0   64.59    6.90
 -14  23   0   54.39   10.40
  23 -14   0   47.10   14.40
  -9 -14   0   58.79    7.20
   8  15   0    0.10   13.50
 -23  15   0    2.90    4.20
 -23   8   0    2.40    4.00
  15 -23   0   13.90    6.60
 -23  15   0   22.00    8.60
  15 -23   0   19.40   13.50
  15   8   0    8.60    8.10
   8 -23   0    6.00    4.90
  -8 -15   0    3.50    4.30
 -15  23   0    1.40    8.20
  23  -8   0    2.60   11.10
  23 -15   0   11.50   13.40
 -15  -8   0    4.80    4.60
  -8  23   0    0.90    8.80
   7  16   0   70.79   16.60
  16 -23   0   46.20    9.20
  16 -23   0   60.99   15.60
 -23  16   0   66.09    6.40
   7 -23   0   49.60    7.60
 -23  16   0   48.30    9.70
  16   7   0   77.59   12.30
  -7 -16   0   47.10    6.40
  23  -7   0   44.90   13.20
 -16  23   0   40.90   10.10
 -16  -7   0   43.50    6.20
  23 -16   0   39.70   14.90
  -7  23   0   34.70   11.00
  17 -23   0   67.79   18.60
  17 -23   0   70.09   12.20
 -23   6   0   62.59    7.50
  17   6   0   82.79   13.20
   6 -23   0   81.09    8.10
 -23  17   0  104.89   11.70
 -23  17   0   84.69    7.30
 -17  -6   0   67.79    7.30
 -17  23   0   47.40    9.90
  23  -6   0   43.20   12.60
  -6  23   0   51.59   11.50
  23 -17   0   71.69   16.00
  -6 -17   0   65.59    7.30
  18 -23   0    1.50   15.20
 -23   5   0    5.50    4.40
   5  18   0    6.60   13.60
  18   5   0   -4.30   10.90
  18 -23   0    6.10    9.20
 -23  18   0    6.30    4.40
   5 -23   0    1.60    5.10
 -23  18   0   18.80    8.60
 -18  -5   0    3.90    4.40
  -5 -18   0   11.40    4.80
  23 -18   0   11.60   13.60
 -18  23   0   13.90    9.90
  -5  23   0    1.60    9.80
  23  -5   0   -2.60   10.60
  19   4   0   82.19   13.10
 -23   4   0   54.59    7.40
 -23  19   0   71.29   12.20
   4  19   0   49.30   14.10
  19 -23   0   57.59   12.70
 -19  -4   0   62.99    7.30
 -19  23   0   52.59   10.30
  -4  23   0   65.29   12.70
  23 -19   0   72.79   17.60
  -4 -19   0   59.49    6.80
  23  -4   0   62.39   13.30
   3 -23   0   54.19    8.00
  20 -23   0   44.20   17.70
 -23  20   0   73.19    7.50
  20   3   0   77.99   14.80
 -23  20   0   59.39   10.70
  20 -23   0    8.00   14.60
 -23   3   0   45.30    7.60
   3  20   0   45.60   14.60
  -3 -20   0   54.49    7.60
 -20  -3   0   50.59    7.10
 -20  23   0   52.59   10.80
  -3  23   0   54.39   12.10
  23  -3   0   56.39   12.30
  23 -20   0   48.50   16.70
 -23   2   0   10.60    5.20
  21 -23   0   33.10   17.50
   2 -23   0   17.80    5.80
   2  21   0   14.50   12.90
  21   2   0   24.30   10.40
  21 -23   0   -4.00   15.20
 -23  21   0   18.30    9.90
  23  -2   0    3.30   12.30
 -21  23   0   23.70    9.60
  -2  23   0   16.70   11.60
  -2 -21   0   13.80    5.50
 -21  -2   0   11.30    5.20
  23 -21   0    0.90   16.60
  22 -23   0   78.89   19.30
   1  22   0   63.09   14.50
 -23   1   0   69.59    7.90
 -23  22   0   98.29   13.20
   1 -23   0   77.69    8.20
  22   1   0   69.99   13.70
  23  -1   0   78.79   15.40
 -22  23   0  108.59   13.50
  23 -22   0   67.79   20.70
  -1  23   0   52.09   12.60
 -22  -1   0   68.49    8.20
  -1 -22   0   64.49    8.50
 -23   0   0   -1.40    5.00
  23   0   0    9.60   12.10
   0 -23   0    1.70    5.50
 -23  23   0    9.50    9.80
  23 -23   0  -18.40   18.70
   0  23   0   -1.40   11.10
  12  12   0   78.19   19.50
  12  12   0  127.99   12.90
  12 -24   0  116.89    9.90
 -24  12   0  109.59    8.50
 -12  24   0   99.19   14.20
 -12 -12   0   96.49    8.20
  24 -12   0   90.69   17.10
  13  11   0   45.70   16.60
 -24  13   0   50.49    6.60
  11 -24   0   46.40    7.70
  13 -24   0   61.39    9.50
 -24  11   0   38.90    6.80
  13  11   0   33.80    8.90
  11  13   0   -5.80   16.90
  13 -24   0   31.50   18.20
  24 -11   0   35.40   13.30
  24 -13   0   27.10   12.70
 -13 -11   0   40.50    6.20
 -11  24   0   35.10   10.20
 -13  24   0   32.10    9.60
 -11 -13   0   41.80    6.20
  10  14   0  -16.40   15.30
 -24  10   0    3.60    5.40
  14 -24   0   15.90   14.50
  10 -24   0    6.70    5.50
 -24  14   0   15.60    4.80
  14  10   0   11.10    7.40
  14 -24   0   16.40    6.70
 -14 -10   0    6.10    4.50
 -10  24   0   -2.40    8.50
  24 -10   0    3.00   10.30
 -14  24   0    0.70    8.20
  24 -14   0    8.00   12.20
 -10 -14   0   10.60    4.50
  15 -24   0   64.79    9.80
 -24  15   0   59.69    6.90
   9 -24   0   52.19    7.60
  15   9   0   61.99   10.60
 -24   9   0   45.40    6.70
   9  15   0   38.60   15.80
 -15  24   0   45.10   10.20
  -9 -15   0   48.30    7.00
  24 -15   0   32.50   13.90
  -9  24   0   52.19   11.70
  24  -9   0   32.30   12.50
 -15  -9   0   42.70    7.00
 -24  16   0   35.40    5.60
  16 -24   0   35.70   17.30
 -24   8   0   34.90    5.80
  16 -24   0   34.50    9.60
   8  16   0   49.99   15.70
   8 -24   0   42.80    7.20
  24 -16   0   50.19   15.10
  -8 -16   0   50.79    6.40
  24  -8   0   35.40   13.30
 -16  -8   0   38.50    6.30
  -8  24   0   46.00   11.50
 -16  24   0   44.70   10.50
 -24  17   0   18.90    4.50
   7 -24   0    4.90    5.40
  17 -24   0  -25.50   15.20
   7  17   0    6.30   14.40
 -24   7   0   -5.80    4.80
  17   7   0    5.10    9.80
  17 -24   0   11.20    8.90
  -7  24   0   -3.70    9.50
 -17  24   0   -7.40    7.60
  24  -7   0   10.70   12.00
 -17  -7   0    1.90    4.70
  -7 -17   0    6.10    4.20
  24 -17   0   19.10   14.40
  18   6   0   30.30   10.20
 -24   6   0   21.90    5.50
   6 -24   0   27.90    6.20
  18 -24   0   13.90   16.40
 -24  18   0   50.19   10.20
  18 -24   0   42.10   11.00
   6  18   0   17.60   14.20
  -6  24   0   24.20   10.20
  24  -6   0   24.10   12.90
 -18  24   0   18.40    9.10
  -6 -18   0   23.00    5.30
 -18  -6   0   17.60    4.90
  24 -18   0   13.00   14.40
  19 -24   0   35.80   16.70
  19 -24   0   22.80   10.40
  19   5   0   52.99   11.20
   5 -24   0   45.70    7.50
 -24   5   0   35.40    5.90
   5  19   0   14.60   13.00
 -24  19   0   50.39    7.10
  -5  24   0   33.50   10.90
  24 -19   0   41.70   17.30
  24  -5   0   28.50   13.60
 -19  24   0   38.10   10.30
 -19  -5   0   38.70    6.20
  -5 -19   0   34.70    6.20
   4 -24   0    5.60    5.20
   4  20   0   -3.40   13.60
 -24   4   0   -0.60    5.00
  20 -24   0    2.00   16.50
 -24  20   0   19.10    5.00
 -24  20   0    0.90    9.10
  20   4   0   -0.60   10.70
 -20  24   0    5.40    8.40
  -4  24   0   10.30   10.90
 -20  -4   0    5.20    4.70
  24 -20   0    5.20   14.60
  24  -4   0    5.90   10.80
  -4 -20   0    0.00    5.10
 -24   3   0   40.90    7.00
   3 -24   0   55.19    8.20
  21 -24   0   30.30   18.30
  21   3   0   46.60   11.00
   3  21   0   19.20   14.00
 -24  21   0   89.99   13.10
  24 -21   0   76.49   19.00
 -21  24   0   47.50   10.90
  24  -3   0   45.80   13.60
 -21  -3   0   51.89    7.50
  -3 -21   0   48.60    7.60
  -3  24   0   35.80   11.60
  22   2   0   40.80   12.60
 -24   2   0    6.50    5.40
   2 -24   0   12.80    6.00
   2  22   0    6.60   13.30
  22 -24   0   22.40   17.50
 -24  22   0   17.90   10.30
 -24  22   0   26.20    6.60
  24 -22   0   28.90   16.20
  24  -2   0   13.90   11.40
  -2  24   0   13.40   11.50
  -2 -22   0   12.20    5.60
 -22  24   0   37.80   10.40
 -22  -2   0   14.50    5.10
  12  13   0  -18.50   16.40
  12 -25   0   30.70    6.60
  13 -25   0   23.40    7.30
 -25  12   0   18.40    5.80
 -13 -12   0   21.30    5.40
  25 -12   0   13.50   12.30
 -13  25   0   16.00    9.80
 -12  25   0    9.60    8.90
  25 -13   0   20.30   12.80
 -12 -13   0   17.30    4.90
  11 -25   0   90.09    9.50
  14  11   0  100.99   13.50
  14 -25   0  103.39   10.40
 -25  11   0   61.59    7.80
  11  14   0   83.39   18.60
 -25  14   0   95.79    8.10
 -14 -11   0   95.19    8.20
  25 -14   0   79.49   16.10
 -14  25   0   77.29   12.10
  25 -11   0   68.99   14.80
 -11 -14   0   90.69    7.50
 -11  25   0  103.89   14.00
  15 -25   0   79.79   11.00
 -25  10   0   47.80    7.10
 -25  15   0   48.20    7.50
  15  10   0   58.99   10.80
  10  15   0   68.19   17.10
  15 -25   0   72.19   18.30
 -15 -10   0   41.50    6.30
  25 -10   0   36.30   12.40
 -10 -15   0   49.30    7.00
 -10  25   0   37.80   10.90
 -15  25   0   38.80   10.00
  25 -15   0   43.90   15.20
  16 -25   0   -0.40    7.80
   9  16   0    0.50   14.20
  16 -25   0  -30.40   16.30
   9 -25   0   11.70    5.80
 -25   9   0    1.30    4.90
  16   9   0   -1.40    9.80
 -25  16   0   13.90    4.80
  25 -16   0   11.90   14.40
 -16  25   0    5.90    9.30
  -9  25   0   12.10    9.90
  25  -9   0    6.30   12.10
 -16  -9   0    1.70    4.30
  -9 -16   0    8.80    5.30
   8 -25   0    9.70    6.40
  17 -25   0   20.50   17.20
   8  17   0    9.20   14.40
  17 -25   0   26.60    9.30
 -25  17   0   18.10    5.20
 -25   8   0    2.90    5.50
  25  -8   0   23.60   13.10
  -8 -17   0   24.80    5.10
  -8  25   0    8.40   10.40
 -17  25   0   10.90    9.50
 -17  -8   0   18.60    5.40
  25 -17   0   16.80   14.90
 -25   7   0   19.10    5.70
   7 -25   0   21.40    5.80
 -25  18   0   16.50    5.50
  18 -25   0   40.20   14.50
   7  18   0   -7.90   14.10
  18   7   0   15.80   11.30
  -7 -18   0   13.40    4.90
 -18  -7   0   21.50    5.30
  25  -7   0   19.20   11.90
 -18  25   0   24.30    9.80
  25 -18   0   11.80   14.60
  -7  25   0   18.40   10.60
  19 -25   0   16.30   16.90
   6 -25   0   -5.70    5.40
 -25   6   0    0.00    5.30
   6  19   0  -15.70   12.90
  19   6   0   20.20    9.70
 -19  -6   0    3.00    4.50
  25 -19   0  -18.20   14.70
 -19  25   0    6.20    8.50
  25  -6   0   -0.30   12.00
  -6 -19   0    4.00    4.90
  -6  25   0   -0.50    9.30
 -25   5   0   10.40    6.00
   5  20   0  -18.80   13.30
  20   5   0   32.00   10.90
   5 -25   0   20.50    5.80
  20 -25   0   20.40   17.30
 -25  20   0   47.50   18.50
 -20  25   0    8.60    9.30
  -5  25   0   13.80   10.20
  -5 -20   0   11.00    5.50
 -20  -5   0   11.60    4.80
  25  -5   0   10.20   11.40
  25 -20   0   -9.90   16.70
  13  13   0   73.99   19.50
 -13  26   0   93.39   12.90
  26 -13   0  110.59   17.60
 -13 -13   0  102.29    8.60
 -26  14   0   18.80    5.60
  12 -26   0   39.90    7.40
 -26  12   0   21.00    5.30
  14 -26   0   33.00    7.90
  12  14   0   30.00   17.20
 -14 -12   0   29.80    6.10
  26 -14   0   30.80   15.00
  26 -12   0   20.10   12.40
 -12 -14   0   28.50    5.50
 -12  26   0   28.60   10.20
 -14  26   0   33.90   10.00
 -26  15   0   12.30    5.10
  11 -26   0    6.90    6.60
  11  15   0   19.40   16.80
  15 -26   0    1.70    7.80
 -26  11   0   10.80    5.00
  15 -26   0  -10.30   19.30
  15  11   0   -3.70   13.00
 -11  26   0    7.50    9.30
 -15 -11   0    6.70    4.60
 -11 -15   0   11.50    4.70
  26 -15   0   12.50   12.50
 -15  26   0    8.40    8.80
  26 -11   0   -5.20   13.30
 -26  10   0   43.70    6.70
 -26  16   0   49.00    7.90
  10  16   0   40.30   17.40
  16 -26   0   39.60    9.30
  10 -26   0   52.49    9.20
  16 -26   0   37.90   20.20
 -10  26   0   29.90   10.10
  26 -10   0   44.20   13.80
 -16  26   0   36.90   10.80
 -16 -10   0   52.29    7.00
 -10 -16   0   44.00    7.30
  26 -16   0   46.40   13.90
 -26   9   0   12.90    6.00
   9 -26   0   22.90    6.30
   9  17   0   16.00   15.40
 -26  17   0   13.60    5.50
  17 -26   0   31.70   10.20
  17   9   0   25.60   10.70
  17 -26   0   56.89   18.90
  -9  26   0   19.00    9.70
  26  -9   0   33.40   13.60
 -17  26   0   25.60   10.10
  -9 -17   0   24.30    5.40
 -17  -9   0   18.20    5.00
  26 -17   0   27.50   13.50
  18 -26   0   64.19   19.20
   8  18   0   -1.50   14.60
 -26   8   0    7.80    5.70
   8 -26   0   13.40    6.70
  18   8   0   20.70    9.80
 -26  18   0   19.50    5.70
 -18  -8   0   11.20    5.30
  -8  26   0   12.20   10.20
  26 -18   0   33.80   16.40
 -18  26   0   17.20   10.00
  -8 -18   0   15.20    5.20
  26  -8   0   25.10   12.30
   0   0   1   -0.60    1.10
   0   0   1    0.90    0.80
   0   0   1   -0.20    1.40
   1   0   1   29.80    2.30
  -1   1   1   31.50    2.10
   1   0   1   26.80    2.20
   0  -1   1   29.00    1.90
  -1   1   1   28.10    1.60
  -1   1   1   30.60    2.60
   1   0   1   30.90    2.70
   0  -1   1   29.80    1.80
   0  -1   1   27.90    2.60
  -1   0   1  374.66   15.70
  -1   0   1  386.16   16.20
   1  -1   1  383.66   15.80
   0   1   1  388.86   16.00
  -1   0   1  362.26   15.60
   0   1   1  385.36   15.90
   0   1   1  395.56   16.00
   1  -1   1  367.06   15.80
   1  -1   1  385.86   15.90
   2   0   1   55.09    3.00
   0  -2   1   56.79    2.90
   2   0   1   55.19    5.10
  -2   2   1   62.49    3.90
   2   0   1   56.69    3.70
   0  -2   1   53.89    2.70
   0  -2   1   57.39    4.00
  -2   1   1  792.22   30.60
   1  -2   1  756.42   30.40
   1   1   1  731.93   30.20
  -2   1   1  707.93   29.80
   1  -2   1  766.92   30.20
   1  -2  -1  694.03   29.70
   1   1   1  756.82   30.30
   1  -2   1  731.23   30.00
  -1   2   1  732.63   30.40
   2  -1  -1  705.23   30.20
   2  -1   1  722.43   30.10
  -1  -1   1  723.33   30.00
  -1  -1   1  762.52   30.60
   2  -1   1  724.73   30.50
  -1  -1  -1  736.53   29.90
   2  -1   1  750.22   30.40
  -1   2   1  755.52   30.30
  -2   0   1  239.68   10.30
   0   2   1  248.68   10.90
   0  -2  -1  236.88   10.20
  -2   0   1  251.17   11.10
   2   0  -1  254.97   10.60
   0   2   1  251.47   10.70
   2  -2   1  242.18   10.70
   2  -2   1  254.77   10.80
   2  -2   1  249.88   10.70
   3   0   1    9.90    3.10
  -3   3   1    9.50    3.20
   3  -3  -1   14.90    2.70
   3   0   1    7.30    1.40
   0  -3   1   11.20    1.70
  -3   0  -1    8.30    1.50
   1  -3   1 1075.49   44.50
  -3   2   1 1038.50   44.40
  -3   2   1 1157.68   45.30
   2   1   1 1121.29   45.10
   2   1   1 1082.79   44.70
   1   2  -1 1065.09   44.50
   1  -3   1 1133.29   44.80
   1  -3   1 1162.98   45.30
  -2  -1  -1 1081.39   44.60
   3  -1   1 1111.99   45.30
   3  -1   1 1061.39   44.50
   3  -1   1 1147.19   45.80
  -1  -2   1 1143.99   45.30
  -2   3   1 1111.59   44.90
  -2   3   1 1082.09   45.20
   3  -2  -1 1082.39   45.00
  -1  -2   1 1079.99   44.70
   1   2   1  169.98    7.80
   1   2   1  167.08    7.80
  -3   1   1  168.28    8.30
  -3   1   1  171.48    7.10
   2   1  -1  156.48    7.60
   2  -3   1  158.28    7.60
   1  -3  -1  160.78    7.00
   2  -3   1  165.48    7.60
   3  -2   1  172.18    8.30
  -1  -2  -1  170.98    7.20
  -1   3   1  179.48    7.80
  -2  -1   1  174.88    7.30
  -2  -1   1  176.28    8.30
   3  -1  -1  167.98    7.90
   3  -2   1  162.78    8.20
  -2   3  -1  131.89   14.00
  -1   3   1  179.98    8.40
   3  -3   1   18.50    3.50
   0   3   1   29.90    3.50
   3  -3   1   25.40    3.60
  -3   0   1   34.60    4.20
  -3   3  -1   36.20    7.20
   0   3   1   25.10    3.20
  -3   0   1   27.50    2.20
   0  -3  -1   25.70    2.00
   4  -4  -1  624.84   25.60
   0  -4   1  585.64   24.90
  -4   4   1  582.44   25.70
   4   0   1  624.74   26.00
  -4   0  -1  602.64   24.90
   3  -4  -1  964.50   40.20
   3   1   1  922.21   39.70
   1  -4   1  978.10   39.90
  -4   3   1  892.81   39.40
   3   1   1 1002.40   40.60
  -4   3   1 1030.40   40.60
   1   3  -1  978.10   39.70
  -1  -3   1  946.41   39.80
   4  -1   1 1018.60   42.00
   4  -3  -1 1009.40   40.50
  -1   4  -1 1068.99   45.60
  -3   4   1  961.10   40.50
   4  -1   1  959.90   40.80
  -1  -3   1 1005.10   40.60
  -3  -1  -1  956.10   39.80
   2   2  -1  223.28    9.60
   2  -4   1  221.48    9.30
  -4   2  -1  209.78   10.90
   2  -4  -1  211.28    8.50
   2   2   1  205.18    9.80
  -4   2   1  212.08   10.50
   2   2   1  214.28    9.50
  -4   2   1  213.28    8.70
   2  -4   1  191.28    9.30
   4  -2   1  199.08   11.00
  -2   4   1  210.68    9.50
  -2  -2   1  213.48    9.00
  -2   4   1  181.48   10.20
   4  -2  -1  202.58   10.30
   4  -2   1  188.48   10.50
  -2  -2  -1  200.48    8.90
  -2  -2   1  198.98   10.10
  -2   4  -1  186.68   16.10
   3   1  -1  642.84   27.50
   3  -4   1  621.74   27.40
   1   3   1  644.94   27.40
   1   3   1  636.04   27.20
  -4   1   1  648.34   26.60
  -4   1   1  671.93   27.60
   3  -4   1  653.73   27.10
   1  -4  -1  617.84   26.50
  -4   3  -1  666.43   28.60
  -3  -1   1  696.63   27.70
  -3  -1   1  663.63   26.80
  -1   4   1  660.73   27.60
   4  -3   1  639.64   27.90
  -1  -3  -1  619.74   26.70
  -1   4   1  657.23   27.10
   4  -1  -1  675.93   27.70
  -3   4  -1  636.54   30.80
   4  -3   1  701.23   27.70
  -4   4  -1   31.30    7.20
  -4   0   1   20.30    2.60
   0  -4  -1   15.00    2.40
   0   4   1   18.10    3.10
   4   0  -1   27.60    5.20
   4  -4   1   11.50    5.00
   4  -4   1   18.10    3.30
  -4   0   1   17.70    4.00
   0   4   1   19.40    4.20
   5  -5  -1   49.10    4.20
   0  -5   1   45.10    3.40
  -5   0  -1   50.19    3.40
   0   5  -1   48.80   12.70
   5  -5  -1   45.10    5.30
   5   0   1   31.20    5.80
  -5   5   1   38.70    5.40
  -5   1  -1  112.29    5.60
   4  -5  -1  103.99    4.80
   4   1   1  117.59    7.10
   1   4  -1   95.09    5.10
   4  -5  -1  108.59    6.70
   1  -5   1  109.89    5.70
  -5   4   1  114.49    7.40
  -5   4   1  100.99    4.60
   4   1   1  109.09    5.30
   5  -1   1  116.49    8.00
  -1   5  -1  102.09   15.90
   5  -4  -1  118.29    7.50
  -4  -1  -1  105.09    5.40
  -1  -4   1  110.59    5.60
  -4   5   1  109.29    7.30
   3   2   1 2214.68   91.69
   2  -5   1 2098.69   91.19
  -5   3   1 2336.27   91.99
   3   2   1 2346.17   91.39
   2   3  -1 2218.18   91.29
   2  -5   1 2236.28   91.29
   3  -5  -1 2208.58   91.49
  -5   2  -1 2172.28   90.99
   5  -3  -1 2257.77   91.99
  -2  -3   1 2164.38   91.19
  -3   5   1 2299.97   91.99
   5  -2   1 2431.36   93.19
  -2   5  -1 2297.27   94.79
  -2  -3   1 2294.17   91.89
   5  -2   1 2295.27   92.39
   2   3   1  758.92   31.60
   3   2  -1  787.82   31.80
  -5   2   1  715.33   30.70
  -5   2   1  754.82   31.90
   2  -5  -1  727.73   30.70
  -5   3  -1  718.33   31.60
   2   3   1  762.62   31.60
   3  -5   1  739.63   31.60
   3  -5   1  795.52   31.30
   5  -3   1  764.92   32.50
  -2   5   1  774.72   31.40
  -3  -2   1  772.92   31.80
   5  -2  -1  803.82   32.40
  -3  -2   1  778.42   31.10
  -2  -3  -1  721.93   30.90
  -2   5   1  735.53   32.00
   5  -3   1  778.42   32.40
  -3   5  -1  720.93   34.80
  -5   1   1  281.57   13.20
   1   4   1  270.97   12.30
  -5   1   1  277.67   11.70
   1  -5  -1  274.77   11.60
   4   1  -1  281.77   13.60
  -5   4  -1  276.47   14.10
   4  -5   1  279.17   12.30
   4  -5   1  255.37   13.40
   1   4   1  306.07   13.40
   5  -4   1  266.27   13.00
  -1  -4  -1  268.87   11.70
  -4   5  -1  281.37   15.90
  -1   5   1  286.67   13.70
   5  -1  -1  265.07   13.60
  -4  -1   1  280.57   13.20
   5  -4   1  249.38   13.70
  -4  -1   1  288.47   11.90
  -1   5   1  259.47   12.20
  -5   5  -1   39.50    6.80
  -5   0   1   31.20    2.90
   5  -5   1   24.80    4.60
   5  -5   1   23.10    5.20
   5   0  -1   46.30    7.30
   0   5   1   45.40    6.40
   0  -5  -1   28.50    2.70
   0   5   1   21.60    3.70
  -5   0   1   33.00    4.50
  -6   0  -1  579.94   24.00
   0  -6   1  581.54   24.10
   6  -6  -1  575.04   24.20
  -6   6   1  579.04   25.00
   0   6  -1  628.74   30.90
   6   0   1  572.94   25.50
   6  -6  -1  539.15   25.00
   1   5  -1  905.71   40.20
   1  -6   1  808.32   33.00
   1   5  -1  805.82   32.40
  -6   1  -1  796.52   32.90
  -6   5   1  713.63   32.30
  -6   5   1  842.12   33.80
   5  -6  -1  773.82   32.50
   5  -6  -1  770.72   33.50
   5   1   1  797.92   33.90
   5   1   1  843.42   32.70
  -5  -1  -1  771.62   32.80
  -5   6   1  821.72   33.90
   6  -5  -1  779.02   34.00
  -1   6  -1  846.52   38.50
  -1  -5   1  785.32   32.90
   6  -1   1  780.02   34.30
  -6   4   1  847.12   36.80
   2  -6   1  870.21   37.20
   4  -6  -1  930.51   37.80
   4  -6  -1  885.21   36.80
   4   2   1  936.51   38.10
   4   2   1  931.71   37.50
   2   4  -1  869.41   37.20
   2  -6   1  925.51   37.40
  -4   6   1  905.81   38.20
   6  -2   1  936.91   38.80
   6  -4  -1  930.61   38.50
  -2  -4   1  948.81   38.30
  -4  -2  -1  902.71   37.20
  -2  -4   1  916.41   37.30
  -2   6  -1  921.91   42.40
   3   3   1  617.24   25.20
   3  -6   1  588.54   25.00
  -6   3   1  561.84   24.00
   3   3   1  588.64   25.00
   3   3  -1  586.84   25.00
  -6   3   1  595.74   25.20
  -6   3  -1  582.64   24.30
   3  -6   1  609.74   24.60
   3  -6  -1  561.34   23.90
  -3   6  -1  641.94   29.40
  -3  -3  -1  562.14   24.30
   6  -3   1  575.54   26.60
  -3  -3   1  592.14   24.40
  -3  -3   1  605.84   25.40
   6  -3  -1  572.44   25.80
   6  -3   1  570.14   26.30
  -3   6   1  595.44   25.60
  -6   2   1 1338.57   56.09
   2   4   1 1363.26   56.69
  -6   2   1 1392.76   57.09
   4   2  -1 1399.86   57.19
   2  -6  -1 1342.17   55.99
   2   4   1 1406.56   57.19
  -6   4  -1 1382.96   56.79
   4  -6   1 1396.26   56.59
   4  -6   1 1387.06   57.29
   6  -4   1 1437.16   57.59
   6  -2  -1 1410.26   57.59
   6  -4   1 1417.46   57.99
  -4  -2   1 1368.86   56.29
  -2  -4  -1 1281.67   56.19
  -4   6  -1 1407.06   59.29
  -2   6   1 1407.86   57.49
  -2   6   1 1412.66   56.69
  -4  -2   1 1397.76   57.09
  -6   5  -1   11.70    4.50
  -6   1   1   -0.40    3.20
   1   5   1   -0.20    4.40
   1   5   1    2.30    2.50
   1  -6  -1    6.30    1.50
   5  -6   1   -0.70    4.90
   5  -6   1    2.30    2.40
   5   1  -1    5.90    5.00
  -6   1   1    4.40    1.70
   6  -5   1   -0.50    4.70
  -1   6   1    9.60    4.50
  -5  -1   1    0.30    3.20
  -1  -5  -1    5.60    1.90
   6  -1  -1   18.40    5.30
  -1   6   1    3.10    2.40
  -5   6  -1    5.90    6.70
   6  -5   1    1.10    3.20
  -5  -1   1    3.80    1.80
  -6   0   1   -1.40    3.20
  -6   6  -1   -0.70    5.20
   0  -6  -1    3.20    1.60
   6  -6   1   -3.60    4.60
   0   6   1   -0.70    4.50
   6   0  -1    6.20    5.30
   0   6   1    1.60    2.60
  -6   0   1    2.60    1.80
   6  -6   1   -2.70    2.70
   0  -7   1  945.41   39.10
  -7   7   1  980.30   40.00
  -7   0  -1  941.71   39.00
   7  -7  -1  952.50   39.30
   7   0   1  937.31   40.50
   7  -7  -1  909.91   40.10
   0   7  -1  990.90   45.60
   1   6  -1   86.19    4.20
   6  -7  -1   94.99    6.90
   6   1   1   89.19    7.40
  -7   6   1  102.69    6.80
  -7   6   1   93.09    4.30
   6   1   1  100.39    5.60
   1  -7   1  100.59    5.30
  -7   1  -1   99.69    5.20
   1   6  -1   91.89   15.70
   6  -7  -1  103.79    5.00
   7  -1   1   87.39    8.00
  -6   7   1   99.69    7.10
  -6  -1  -1   91.99    5.30
   7  -6  -1   93.49    7.70
  -1  -6   1   95.39    5.40
  -1   7  -1  123.49   14.80
   5   2   1   87.79    5.90
   2  -7   1   88.99    4.80
   2  -7   1   84.09    5.00
  -7   5   1   78.19    3.90
   5  -7  -1   83.49    4.10
   5   2   1   80.79    6.40
   2   5  -1   78.89    4.40
   2   5  -1  102.29   16.30
   5  -7  -1   74.89    5.90
  -7   2  -1   83.79    4.80
  -7   5   1   85.29    6.50
  -5  -2  -1   82.89    4.70
   7  -2   1   86.79    8.00
  -2   7  -1   80.59   14.50
   7  -5  -1   81.39    7.50
  -5   7   1   88.79    7.20
  -2  -5   1   83.59    4.80
  -7   4   1 1569.64   66.79
   4   3   1 1644.34   67.89
   4  -7  -1 1586.34   67.49
   3  -7   1 1705.23   67.59
  -7   3  -1 1574.54   66.79
   3  -7   1 1640.74   67.29
  -7   4   1 1713.43   68.09
   3   4  -1 1622.24   67.39
   4   3   1 1701.53   67.79
   4  -7  -1 1606.74   66.79
  -3   7  -1 1749.62   70.79
  -4  -3  -1 1581.64   67.09
  -3  -4   1 1643.04   67.29
  -4   7   1 1657.23   68.29
  -3  -4   1 1688.43   68.09
   7  -3   1 1663.13   68.99
   7  -4  -1 1805.32   68.89
  -7   3   1  184.58    8.10
   3   4   1  177.68   10.30
   3   4   1  189.38    9.40
   4   3  -1  175.28    9.80
   3  -7  -1  175.98    7.90
  -7   4  -1  167.38    8.60
  -7   3   1  167.18    9.70
   4  -7   1  175.88    8.60
   4  -7   1  184.98   10.10
   7  -3  -1  218.98   11.50
  -4  -3   1  198.98   10.00
  -3   7   1  173.18   10.40
   7  -4   1  195.28   12.30
  -4  -3   1  189.18    8.60
  -4   7  -1  166.68   13.50
  -3  -4  -1  190.98    8.40
   7  -4   1  196.58   12.20
   2   5   1  672.63   28.60
   5  -7   1  674.03   29.70
  -7   2   1  701.13   29.10
  -7   5  -1  664.83   28.70
   2   5   1  709.93   29.70
  -7   2   1  671.53   28.00
   5  -7   1  713.33   28.60
   5   2  -1  695.13   29.50
   2  -7  -1  673.23   27.90
  -5  -2   1  684.53   28.20
   7  -2  -1  678.23   30.10
  -2   7   1  695.93   29.70
  -2  -5  -1  645.64   28.00
  -5   7  -1  674.53   31.00
  -5  -2   1  681.13   29.00
   7  -5   1  649.24   29.50
   7  -5   1  679.33   30.30
  -2   7   1  687.83   28.50
   6  -7   1  181.98   11.30
   6   1  -1  176.48   11.20
   1   6   1  169.28   11.10
   6  -7   1  181.88    9.20
  -7   1   1  176.88    9.70
  -7   1   1  178.18    8.20
   1   6   1  181.18    9.00
  -7   6  -1  176.48   10.10
   1  -7  -1  173.88    8.00
   7  -6   1  180.28   11.60
   7  -6   1  188.08   10.10
  -1   7   1  176.78   11.20
  -6  -1   1  179.38    8.30
   7  -1  -1  187.08   12.20
  -1  -6  -1  178.08    8.20
  -6   7  -1  164.48   11.90
  -6  -1   1  186.98    9.80
  -1   7   1  180.48    8.70
  -7   7  -1   65.39    7.80
  -7   0   1   77.99    6.50
   7  -7   1   81.69    9.30
   0   7   1   70.89    7.80
  -7   0   1   85.79    4.80
   7   0  -1   99.59    9.50
   0   7   1   82.69    5.20
   7  -7   1   77.09    6.20
   0  -7  -1   87.29    4.70
   8  -8  -1    3.70    4.70
   8  -8  -1    3.10    2.90
  -8   0  -1    3.50    2.00
   0   8  -1    2.40   10.40
   8   0   1    6.00    5.40
   8   0   1   -4.80    2.40
   0  -8   1    3.20    2.20
  -8   1  -1  416.46   20.40
   7  -8  -1  481.55   21.00
   1   7  -1  458.35   18.90
   7   1   1  482.55   19.90
  -8   7   1  476.95   20.90
   7  -8  -1  489.45   19.60
   7   1   1  481.15   21.30
  -1   8  -1  471.15   26.30
  -7  -1  -1  416.16   19.80
  -7   8   1  485.25   21.20
  -1  -7   1  428.66   20.00
   2  -8   1  555.34   22.90
   6  -8  -1  552.94   22.50
   6   2   1  539.85   24.10
   2   6  -1  508.85   22.40
  -8   6   1  560.74   23.90
   2  -8   1  548.15   23.00
  -8   6   1  510.65   22.30
  -8   2  -1  548.75   22.80
   2   6  -1  586.44   31.40
   6  -8  -1  512.45   23.70
   6   2   1  587.84   23.60
   8  -6  -1  531.15   24.80
  -2  -6   1  553.04   23.00
  -6   8   1  566.84   24.30
  -2   8  -1  556.04   28.40
   8  -2   1  545.75   25.20
  -6  -2  -1  525.75   22.80
  -8   5   1  264.07   11.30
  -8   3  -1  263.57   11.30
   3   5  -1  241.78   11.90
   3  -8   1  257.87   11.90
   3   5  -1  271.47   24.10
   5  -8  -1  263.67   12.60
   5   3   1  269.37   13.40
  -8   5   1  279.37   13.20
   5  -8  -1  263.57   11.40
  -8   3  -1  268.07   11.80
   5   3   1  269.37   13.20
   3  -8   1  276.27   12.60
   8  -5  -1  274.57   14.50
   8  -3   1  282.07   15.20
  -5  -3  -1  272.57   11.90
  -5   8   1  266.77   13.90
  -3  -5   1  282.47   12.10
  -3   8  -1  286.47   17.90
  -8   4   1  891.11   36.80
   4  -8  -1  837.62   36.30
   4  -8  -1  869.41   35.60
  -8   4   1  834.02   35.60
   4  -8   1  907.31   36.90
  -8   4  -1  889.71   35.80
   4   4   1  865.61   36.70
   4   4  -1  855.91   36.60
   4   4   1  923.41   37.30
   4  -8   1  907.21   36.20
   8  -4  -1  832.12   37.90
   8  -4   1  837.32   38.10
  -4  -4  -1  846.32   35.90
  -4  -4   1  869.61   36.90
  -4  -4   1  882.91   36.10
  -4   8  -1  886.61   40.10
  -4   8   1  915.81   37.60
   8  -4   1  882.81   38.80
   5  -8   1 1100.79   45.60
  -8   5  -1 1087.89   45.50
   5  -8   1 1133.79   46.60
  -8   3   1 1060.89   45.00
   3   5   1 1098.29   46.60
   3   5   1 1082.49   45.80
   3  -8  -1 1034.90   45.00
  -8   3   1 1136.99   46.30
   5   3  -1 1084.09   46.30
  -3  -5  -1 1065.89   45.20
  -5  -3   1 1066.29   45.30
   8  -5   1 1176.68   47.70
  -3   8   1 1072.69   45.60
   8  -3  -1 1172.28   47.40
   8  -5   1 1120.29   47.40
  -5   8  -1 1152.18   48.60
  -3   8   1 1143.09   46.90
  -5  -3   1 1146.99   46.30
   2   6   1   31.70    6.10
  -8   2   1   23.50    2.90
   2  -8  -1   26.10    2.60
   6  -8   1   22.30    3.50
  -8   6  -1   27.60    4.10
  -8   2   1   27.10    4.30
   2   6   1   27.20    3.70
   6  -8   1   31.50    5.80
   6   2  -1   30.10    5.70
  -2   8   1   23.90    4.10
  -6  -2   1   28.20    3.10
  -6   8  -1   23.00    6.80
  -2   8   1   30.30    6.10
  -2  -6  -1   26.30    3.20
   8  -2  -1   27.80    6.60
  -6  -2   1   24.40    4.30
   8  -6   1   39.30    6.90
   8  -6   1   20.90    4.70
  -8   1   1  109.99    5.80
   7  -8   1  112.09    9.90
   1   7   1  118.19    9.10
   7   1  -1  116.39    9.80
   7  -8   1  115.59    7.10
   1  -8  -1  112.59    5.70
   1   7   1  111.29    6.40
  -8   1   1  114.79    7.50
  -8   7  -1  116.89    8.20
  -7   8  -1  105.99   10.00
   8  -1  -1  103.49    9.80
   8  -7   1  119.89    7.90
   8  -7   1   95.49   10.00
  -7  -1   1  107.29    7.50
  -1   8   1  108.29    6.30
  -1  -7  -1  113.19    5.90
  -7  -1   1  112.59    5.90
  -1   8   1  108.69    9.70
  -8   8  -1  356.26   17.70
  -8   0   1  365.36   15.70
   0   8   1  373.66   16.20
  -8   0   1  336.67   16.70
   8  -8   1  365.86   18.70
   0   8   1  358.76   18.50
   0  -8  -1  355.26   15.50
   8   0  -1  368.16   18.80
   8  -8   1  367.96   16.90
   9   0   1   17.50    3.80
   0  -9   1   15.90    2.10
  -9   9   1   24.10    5.10
   0  -9   1   24.60    3.80
   0   9  -1   29.90   12.70
  -9   0  -1   21.30    3.40
   9   0   1   25.40    6.30
   9  -9  -1   25.60    6.00
   9  -9  -1   25.10    4.20
  -9   8   1  165.68   10.20
   1   8  -1  152.48    7.20
   8  -9  -1  157.38   11.30
  -9   1  -1  164.78    8.20
   1  -9   1  145.79    7.70
   8   1   1  146.39    9.00
   1  -9   1  175.88    8.30
   8   1   1  160.58   10.60
   8  -9  -1  160.28    8.50
   1   8  -1  175.18   18.40
   9  -8  -1  198.58   11.90
  -1  -8   1  183.28    8.30
  -8   9   1  181.38   10.30
  -1   9  -1  178.58   17.00
  -8  -1  -1  178.28    8.20
   9  -1   1  182.38   11.50
  -9   7   1    6.30    3.90
   2  -9   1    8.30    2.40
   7   2   1    1.10    4.00
   2  -9   1   10.90    3.10
  -9   2  -1   11.30    2.30
   2   7  -1   19.10   13.20
   7  -9  -1    8.70    2.10
   7   2   1    7.90    4.30
  -9   7   1   10.10    1.90
   2   7  -1   12.60    1.80
   9  -2   1   11.80    5.90
  -7  -2  -1   10.40    2.40
  -2  -7   1    9.70    2.30
   9  -7  -1   15.00    6.10
  -7   9   1    5.40    4.30
  -2   9  -1   10.00    9.80
   3   6  -1  390.36   16.90
  -9   6   1  386.56   16.60
   6   3   1  399.96   18.40
   6  -9  -1  393.76   18.00
  -9   6   1  407.46   18.30
  -9   3  -1  397.76   16.50
  -9   3  -1  403.16   17.00
   3  -9   1  425.76   17.70
   6   3   1  398.56   18.60
   3  -9   1  379.56   17.60
   6  -9  -1  416.86   16.80
   3   6  -1  348.87   29.70
  -6   9   1  389.46   18.80
   9  -3   1  398.16   20.20
   9  -6  -1  389.36   19.70
  -3   9  -1  409.86   22.70
  -3  -6   1  412.96   17.20
  -6  -3  -1  387.86   17.10
  -9   4  -1 1395.86   59.09
   5  -9  -1 1398.26   59.09
   5  -9  -1 1437.36   59.99
  -9   5   1 1519.95   60.49
   5   4   1 1412.46   60.19
   4  -9   1 1388.26   59.69
   4   5  -1 1471.75   66.59
  -9   5   1 1328.47   58.99
   4  -9   1 1550.74   60.39
   5   4   1 1511.55   60.79
   4   5  -1 1429.66   59.69
  -4  -5   1 1430.16   59.49
   9  -5  -1 1475.45   61.49
   9  -4   1 1530.25   61.99
  -5   9   1 1545.75   60.99
  -4   9  -1 1513.05   63.09
   4  -9  -1   40.60    4.10
  -9   4   1   35.90    3.00
   4  -9  -1   33.00    2.80
   4   5   1   36.90    5.00
  -9   5  -1   42.50    3.70
  -9   4   1   30.60    5.40
   4   5   1   40.90    7.10
   5  -9   1   36.40    6.70
   5   4  -1   38.00    5.70
   5  -9   1   30.90    3.90
   9  -4  -1   61.49    8.60
  -5   9  -1   33.40   10.90
   9  -5   1   44.40    8.30
  -5  -4   1   36.10    5.20
   9  -5   1   43.70    8.90
  -4   9   1   41.20    6.30
  -5  -4   1   34.30    3.50
  -4  -5  -1   32.60    3.90
   6   3  -1  604.04   26.40
   6  -9   1  605.24   26.60
   6  -9   1  597.54   25.00
   3   6   1  589.94   25.30
  -9   6  -1  594.94   25.00
   3   6   1  608.34   26.80
   3  -9  -1  586.54   24.30
  -9   3   1  595.34   24.40
  -9   3   1  608.84   25.70
  -3   9   1  595.34   26.60
  -3  -6  -1  567.64   24.50
  -3   9   1  569.64   24.90
   9  -6   1  547.25   28.60
  -6  -3   1  597.64   25.60
   9  -3  -1  565.44   27.40
  -6  -3   1  542.85   25.10
  -6   9  -1  607.04   28.10
   7  -9   1  308.47   15.30
   2   7   1  321.27   14.60
  -9   2   1  331.17   14.10
  -9   2   1  331.27   15.40
   2   7   1  336.57   17.20
   7   2  -1  325.17   16.90
   2  -9  -1  321.77   13.90
   7  -9   1  343.97   17.20
  -9   7  -1  333.77   15.30
  -7  -2   1  330.07   15.30
  -7  -2   1  284.37   14.50
  -2   9   1  339.47   14.60
  -2  -7  -1  321.27   14.10
  -2   9   1  326.37   16.70
   9  -2  -1  287.57   18.40
   9  -7   1  317.57   19.00
  -7   9  -1  335.57   17.90
  -9   8  -1   49.00    6.90
   8   1  -1   53.49    8.40
   1   8   1   46.70    4.90
   8  -9   1   52.89    9.70
  -9   1   1   40.10    5.80
   8  -9   1   45.50    5.30
   1  -9  -1   47.70    3.70
   1   8   1   63.19    9.40
  -9   1   1   55.19    4.20
  -8   9  -1   48.80    8.70
  -1   9   1   49.10    4.40
  -8  -1   1   52.19    4.10
   9  -8   1   60.89   10.50
  -8  -1   1   42.90    5.90
  -1  -8  -1   50.59    4.00
   9  -8   1   49.60    6.90
   9  -1  -1   52.89    8.90
  -1   9   1   47.60    7.40
   0  -9  -1  388.56   16.80
  -9   9  -1  405.96   19.20
   0   9   1  413.56   20.10
   9  -9   1  382.86   18.20
   0   9   1  393.36   17.50
  -9   0   1  387.16   16.90
   9  -9   1  383.66   20.50
   9   0  -1  331.67   20.70
  -9   0   1  418.46   18.30
  10   0   1  269.47   13.70
   0 -10   1  294.57   13.00
 -10  10   1  287.87   14.60
   0 -10   1  247.38   11.90
 -10   0  -1  289.07   12.90
  10   0   1  298.17   16.00
  10 -10  -1  301.57   16.40
  10 -10  -1  288.97   14.50
   0  10  -1  292.87   21.60
   1 -10   1   78.99    5.10
   1   9  -1   67.19    3.80
 -10   1  -1   77.29    5.00
 -10   9   1   76.49    7.20
   9 -10  -1   79.39    6.10
   1 -10   1   65.29    4.60
   9 -10  -1   83.19    8.60
   9   1   1   57.89    6.80
   1   9  -1   69.49   14.20
   9   1   1   59.99    8.10
  -1  -9   1   81.59    5.40
  -9  -1  -1   84.19    5.20
  -9  10   1   77.79    7.50
  10  -1   1   84.29    9.40
  10  -1   1   58.89    7.80
  10  -9  -1   85.39   10.00
  -1  10  -1   87.69   15.20
 -10   8   1   84.69    4.30
   2   8  -1   82.89    4.50
   8   2   1   74.19    7.60
   8   2   1   75.59    7.90
   8 -10  -1   89.79    8.20
   2   8  -1   85.09   15.20
   2 -10   1   70.69    5.80
 -10   2  -1   78.49    5.10
   8 -10  -1   80.49    5.30
 -10   8   1   68.19    7.00
   2 -10   1   84.49    5.20
  -2  10  -1   91.39   16.20
  -8  -2  -1   91.59    5.40
  10  -8  -1   91.19    9.90
  -8  10   1   78.19    8.50
  10  -2   1   87.79    9.90
  -2  -8   1   93.69    5.30
 -10   3  -1  281.77   12.20
   3   7  -1  288.17   24.40
 -10   7   1  285.27   12.30
   7 -10  -1  296.27   12.70
   3   7  -1  280.57   12.60
   7   3   1  283.37   14.60
 -10   3  -1  285.07   12.90
   3 -10   1  286.97   13.80
   7 -10  -1  252.97   14.10
   7   3   1  285.07   14.90
   3 -10   1  304.97   13.10
  -3  -7   1  298.27   13.10
  10  -7  -1  297.57   16.70
  -3  10  -1  306.07   20.10
  -7  10   1  304.87   15.20
  10  -3   1  300.97   16.80
  -7  -3  -1  296.57   13.10
 -10   6   1  202.88    9.20
   4 -10   1  213.08   11.40
 -10   4  -1  205.48    9.70
   6 -10  -1  207.68    9.40
 -10   6   1  206.38   11.40
   6   4   1  204.18   12.50
   4 -10   1  207.18    9.90
   6   4   1  199.68   11.20
   4   6  -1  197.68   20.80
 -10   4  -1  205.48    9.40
   4   6  -1  194.08   10.00
  -6  10   1  220.18   12.30
  10  -6  -1  222.08   14.10
  -4  10  -1  228.28   16.50
  -6  -4  -1  219.98   10.00
  10  -4   1  219.48   14.10
  -4  -6   1  218.08   10.10
 -10   5   1  489.65   21.20
   5   5  -1  502.55   22.30
 -10   5  -1  476.35   21.30
   5 -10  -1  505.75   21.20
   5   5   1  513.85   23.80
   5 -10   1  547.45   23.60
   5   5   1  496.05   22.50
   5 -10   1  528.35   21.80
   5 -10  -1  482.75   22.20
 -10   5   1  513.15   22.70
  -5  10  -1  503.75   25.80
  -5  -5  -1  508.65   21.60
  -5  -5   1  526.95   21.70
  10  -5  -1  495.95   24.80
  10  -5   1  509.75   25.00
  -5  10   1  526.85   23.70
   6 -10   1  464.35   19.70
   6   4  -1  440.26   20.90
 -10   4   1  462.15   20.60
   4   6   1  435.56   20.10
   6 -10   1  455.65   21.80
   4 -10  -1  423.76   19.60
   4   6   1  460.15   21.90
 -10   4   1  444.86   19.00
   4 -10  -1  442.76   19.00
 -10   6  -1  467.75   19.60
  -6  -4   1  426.46   19.30
  10  -6   1  470.85   23.10
  10  -6   1  448.16   23.00
  -4  10   1  473.15   21.80
  10  -4  -1  442.96   22.90
  -6  10  -1  494.55   24.10
  -6  -4   1  449.56   20.70
  -4  -6  -1  438.76   19.30
   7   3  -1   10.60    5.50
 -10   3   1   12.10    2.50
   7 -10   1   11.90    3.10
   3   7   1   10.80    3.20
   7 -10   1   14.40    6.40
 -10   7  -1   14.10    3.50
   3 -10  -1   10.70    2.00
 -10   3   1    9.80    4.00
   3   7   1    9.00    6.60
  -3  -7  -1   12.90    2.60
  -7  -3   1   11.70    2.60
  -7  10  -1   21.20    8.20
  -3  10   1    7.00    6.10
  10  -3  -1   11.20    7.40
  10  -7   1   12.50    6.20
  10  -7   1   12.40    7.50
  -7  -3   1   10.10    4.20
   2   8   1  364.36   21.60
   8   2  -1  412.56   20.50
 -10   2   1  409.66   17.90
   8 -10   1  424.66   18.90
   2   8   1  412.76   18.60
 -10   8  -1  433.66   19.20
   2 -10  -1  416.26   17.80
   8 -10   1  434.76   21.50
 -10   2   1  437.46   19.40
  -8  -2   1  427.06   19.30
  10  -8   1  405.26   20.40
  10  -2  -1  388.46   21.50
  -2  10   1  418.86   18.50
  -2  -8  -1  422.76   18.00
  -8  -2   1  416.26   18.00
  -8  10  -1  440.06   21.40
  10  -8   1  401.56   22.10
  -2  10   1  426.96   20.90
   9 -10   1  877.81   38.00
 -10   9  -1  906.41   38.40
 -10   1   1  870.81   37.10
 -10   1   1  886.91   38.20
   1   9   1  913.91   39.90
   1 -10  -1  872.31   37.10
   9 -10   1  927.51   40.40
   1   9   1  896.91   37.60
   9   1  -1  857.91   39.80
  -9  10  -1  943.21   39.50
  10  -9   1  906.71   38.90
  -1  10   1  909.31   37.60
  -1  10   1  911.41   39.80
  -1  -9  -1  863.71   37.00
  10  -9   1  907.41   40.50
  -9  -1   1  904.11   37.20
  -9  -1   1  895.21   38.20
  10  -1  -1  869.91   40.00
   0  10   1   98.99    6.70
   0  10   1   85.29   11.60
  10 -10   1   91.79    8.30
  10 -10   1  110.59   13.10
 -10   0   1   93.69    5.80
   0 -10  -1  100.89    6.00
  10   0  -1   99.29   10.90
 -10   0   1   90.89    7.80
  11 -11  -1   21.20    7.50
 -11  11   1   21.90    5.90
 -11   0  -1   16.50    3.30
   0 -11   1   15.80    2.40
  11   0   1    7.30    5.00
  11   0   1   20.60    6.70
   0  11  -1   21.00   13.20
   0 -11   1   20.80    3.30
  11 -11  -1   22.10    5.60
 -11  10   1  155.48    9.90
 -11   1  -1  149.59    7.80
   1  10  -1  129.19    6.70
  10   1   1  153.58   12.00
  10 -11  -1  169.58    9.20
   1 -11   1  151.18    7.90
   1  10  -1  157.28   18.80
   1 -11   1  140.69    7.40
  10   1   1  115.29    9.90
  10 -11  -1  147.49   11.40
 -10  11   1  162.98   10.80
  11  -1   1  137.29    9.30
  11 -10  -1  152.88   12.40
  -1  11  -1  166.78   17.40
 -10  -1  -1  157.78    8.20
  11  -1   1  153.08   12.00
  -1 -10   1  158.28    8.00
   2 -11   1  327.17   14.60
   2   9  -1  324.97   13.80
   2   9  -1  329.67   23.80
 -11   9   1  306.27   13.80
   9 -11  -1  329.97   14.80
   2 -11   1  305.97   14.60
   9   2   1  326.27   16.60
 -11   9   1  320.37   16.30
   9   2   1  304.77   16.10
   9 -11  -1  320.97   16.80
 -11   2  -1  322.47   14.40
  -2  11  -1  367.26   23.60
  11  -9  -1  326.37   18.40
  -2  -9   1  322.37   14.60
  -9  -2  -1  330.67   14.50
  -9  11   1  336.07   16.80
  11  -2   1  329.57   18.20
   8 -11  -1  355.36   15.20
   8 -11  -1  332.57   17.50
 -11   8   1  331.47   14.70
   3 -11   1  345.87   16.20
 -11   3  -1  340.27   15.20
   8   3   1  333.97   17.40
   3   8  -1  326.37   24.90
   8   3   1  333.57   17.10
   3 -11   1  353.36   15.50
   3   8  -1  335.87   14.90
 -11   8   1  357.36   17.10
 -11   3  -1  330.47   14.60
  11  -3   1  363.66   19.20
  -8  11   1  363.96   17.90
  11  -8  -1  352.66   19.40
  -8  -3  -1  362.76   15.60
  -3  11  -1  381.86   22.50
  -3  -8   1  358.16   15.50
   7   4   1    1.10    5.80
 -11   4  -1    5.40    2.40
   4 -11   1   10.30    2.80
 -11   7   1    6.60    4.60
   4   7  -1    6.20   13.10
   4   7  -1    9.60    2.90
 -11   4  -1   12.60    2.30
   4 -11   1   17.50    4.80
   7 -11  -1   10.10    5.00
   7 -11  -1   12.20    2.20
   7   4   1    9.70    4.40
 -11   7   1    9.70    1.90
  11  -4   1    5.30    7.30
  -4  11  -1    4.60   10.10
  11  -7  -1    9.20    7.60
  -7  11   1    8.10    5.70
  -7  -4  -1   11.80    2.90
  -4  -7   1    8.00    2.70
   6   5   1  438.36   20.40
   5 -11   1  449.06   19.40
   6 -11  -1  453.85   18.90
   5   6  -1  474.45   31.20
   5 -11   1  437.96   20.90
   5   6  -1  425.76   19.70
 -11   6   1  388.46   21.50
 -11   6   1  445.66   18.80
 -11   5  -1  450.65   19.00
   6 -11  -1  420.46   20.30
   6   5   1  435.36   21.90
 -11   5  -1  430.76   19.00
  -5  -6   1  471.35   19.40
  -6  -5  -1  450.45   19.20
  11  -6  -1  461.05   23.10
  -5  11  -1  486.25   24.40
  -6  11   1  472.45   21.60
  11  -5   1  449.86   23.10
 -11   5   1   76.99    4.60
   6 -11   1   75.49    5.60
   6 -11   1   81.49    9.60
 -11   5   1   66.99    7.10
 -11   6  -1   81.99    5.40
   5 -11  -1   78.99    4.60
   6   5  -1   74.49    6.90
   6   5  -1   73.99   17.50
   5   6   1   73.09    6.20
   5   6   1   81.79    9.60
  -6  11  -1   95.59   12.10
  -5  11   1   76.59    9.20
  11  -6   1   66.59   12.30
  -5  -6  -1   79.79    5.20
  11  -5  -1   72.39   10.90
  -6  -5   1   76.69    5.20
 -11   4   1  264.37   12.20
 -11   7  -1  274.57   12.90
 -11   4   1  290.67   14.10
   4   7   1  271.97   16.20
   7   4  -1  266.57   14.90
   7 -11   1  270.37   12.90
   7 -11   1  273.87   16.30
   4 -11  -1  272.57   12.10
   4 -11  -1  242.28   12.90
  11  -7   1  260.87   17.30
  -7  -4   1  280.27   14.10
  11  -7   1  265.27   17.60
  11  -4  -1  280.07   17.30
  -7  11  -1  330.07   18.40
  -4  -7  -1  275.97   12.50
  -7  -4   1  287.27   12.70
  -4  11   1  304.87   15.90
   8 -11   1  471.25   20.20
 -11   3   1  387.86   20.90
 -11   8  -1  448.76   20.20
   3   8   1  388.76   24.30
   8   3  -1  438.96   21.60
   3 -11  -1  470.45   19.20
   8 -11   1  460.25   22.90
 -11   3   1  453.45   20.70
  -8  -3   1  378.96   23.30
  -8  11  -1  472.15   22.80
  -3  11   1  469.05   22.40
  -8  -3   1  464.55   19.60
  -3  -8  -1  456.75   19.40
  11  -3  -1  451.05   23.40
  11  -8   1  481.95   23.30
  11  -8   1  502.85   24.80
   9 -11   1   79.49    6.80
   9   2  -1   93.89   10.70
 -11   2   1   85.59    7.70
 -11   2   1   94.39    5.80
   9 -11   1   85.19   10.10
   2   9   1   81.29   10.00
 -11   9  -1   96.09    8.00
  -9  -2   1   90.19    5.70
  11  -2  -1   92.59   11.40
  -9  11  -1  111.39   11.20
  -2  11   1   88.49    6.40
  -2  -9  -1   95.19    5.70
  -2  11   1  104.29   10.60
  11  -9   1   79.79   13.50
  11  -9   1   92.19    9.70
   1 -11  -1  567.84   23.70
 -11   1   1  540.05   23.60
  10 -11   1  558.54   27.70
  10   1  -1  576.84   27.50
   1  10   1  568.24   27.40
 -11   1   1  552.04   25.10
  10 -11   1  559.84   25.10
 -10  11  -1  575.44   26.30
  11 -10   1  536.15   25.90
  11 -10   1  577.44   28.70
 -10  -1   1  538.95   23.70
  -1 -10  -1  540.45   23.70
  11  -1  -1  540.15   27.30
  -1  11   1  567.44   26.90
   0  11   1 1290.97   55.99
  11 -11   1 1297.77   54.69
  11 -11   1 1350.26   57.19
 -11  11  -1 1303.57   54.79
  11   0  -1 1307.77   56.49
   0  11   1 1310.47   53.49
 -11   0   1 1198.78   55.09
 -11   0   1 1247.18   52.99
   0 -12   1  139.89    8.10
   0  12  -1  157.88   19.20
  12   0   1  152.68   12.80
  12 -12  -1  150.78   13.60
  12 -12  -1  137.69   11.60
 -12  12   1  134.59   10.40
 -12   0  -1  150.08    8.20
   1  11  -1  352.86   25.80
   1 -12   1  304.07   14.50
  11   1   1  281.47   16.50
   1 -12   1  331.57   14.70
  11 -12  -1  314.47   18.50
  11   1   1  322.67   18.40
  11 -12  -1  313.37   15.90
 -12  11   1  323.47   16.50
 -12   1  -1  320.47   14.60
  12 -11  -1  313.77   19.20
  -1 -11   1  331.37   14.80
  -1  12  -1  379.56   24.00
  12  -1   1  313.27   18.40
 -11  12   1  323.67   16.70
 -11  -1  -1  325.47   14.60
   2  10  -1   76.49   15.50
  10 -12  -1   75.99    6.30
  10   2   1   75.39    8.90
   2 -12   1   73.79    5.30
 -12  10   1   65.19    7.40
   2  10  -1   68.59    4.40
 -12  10   1   67.19    4.20
 -12   2  -1   69.09    5.20
  10   2   1   48.30    8.60
  10 -12  -1   65.29    9.40
  -2 -10   1   71.59    5.40
  12  -2   1   70.49   10.70
 -10  12   1   69.19    8.60
 -10  -2  -1   73.09    5.40
  -2  12  -1   96.89   15.70
  12 -10  -1   84.99   11.80
 -12   3  -1   18.20    3.10
   3   9  -1   19.30    3.40
   3 -12   1   22.90    4.20
   9   3   1   14.40    5.40
   9 -12  -1   23.00    6.20
 -12   9   1   21.80    5.30
   9 -12  -1   22.50    3.40
   3   9  -1   24.90   14.60
   3 -12   1   20.30    4.70
   9   3   1   11.50    5.90
 -12   9   1   20.20    2.70
 -12   3  -1   14.70    2.70
  -3  -9   1   25.60    4.00
  -3  12  -1   23.00   11.40
  -9  12   1   10.20    6.30
  12  -9  -1   11.20    8.40
  -9  -3  -1   22.30    3.70
  12  -3   1   10.90    7.70
 -12   8   1  405.66   17.30
   8   4   1  408.66   19.70
   4 -12   1  414.76   18.00
 -12   4  -1  419.16   17.90
   8   4   1  388.86   20.50
   8 -12  -1  409.66   17.70
   4   8  -1  401.86   17.70
   8 -12  -1  396.46   19.90
   4 -12   1  406.16   19.30
   4   8  -1  401.36   29.20
 -12   4  -1  411.26   17.40
 -12   8   1  401.16   19.20
  -8  -4  -1  399.56   17.90
  -8  12   1  413.16   20.60
  12  -4   1  419.46   22.30
  12  -8  -1  421.36   22.50
  -4  -8   1  429.36   18.20
  -4  12  -1  411.06   24.00
   7   5   1  233.18   15.30
 -12   5  -1  255.87   11.80
   5 -12   1  256.17   12.20
   5 -12   1  274.87   14.50
 -12   7   1  257.97   13.60
   5   7  -1  249.97   12.30
   7 -12  -1  251.47   13.40
   7   5   1  258.47   13.70
 -12   7   1  258.67   11.40
   5   7  -1  245.78   24.70
   7 -12  -1  257.97   11.60
 -12   5  -1  252.67   11.70
  12  -7  -1  278.57   17.50
  -5  12  -1  270.87   18.30
  -7  -5  -1  268.67   12.10
  -7  12   1  266.87   15.30
  12  -5   1  269.47   16.80
  -5  -7   1  248.18   12.10
 -12   6   1   61.19    7.00
   6   6   1   55.89    9.90
 -12   6  -1   63.29    4.90
   6   6  -1   57.19    6.20
   6   6  -1   83.29   18.20
   6 -12  -1   62.89    4.30
   6   6   1   55.39    6.10
 -12   6   1   59.49    4.20
   6 -12  -1   52.99    6.50
   6 -12   1   63.79    8.90
   6 -12   1   67.69    5.00
 -12   6  -1   63.89    4.50
  12  -6  -1   72.19   11.80
  -6  -6   1   66.89    5.00
  12  -6   1   74.09   11.50
  -6  12  -1   98.89   12.50
  -6  -6  -1   56.29    5.00
  -6  12   1   68.09    9.00
   7 -12   1  405.56   18.30
   7   5  -1  383.56   31.30
   5   7   1  395.16   21.40
   7   5  -1  411.46   19.60
   7 -12   1  439.76   21.60
   5   7   1  406.96   18.90
 -12   7  -1  410.46   18.10
   5 -12  -1  404.96   17.60
   5 -12  -1  394.16   18.80
 -12   5   1  399.16   17.60
  -7  12  -1  417.36   22.50
  -5  -7  -1  408.96   18.00
  12  -5  -1  414.16   22.70
  12  -7   1  432.96   22.80
  -5  12   1  426.06   20.90
  -7  -5   1  418.96   18.10
   8 -12   1   57.79   10.60
 -12   4   1   48.10    4.30
   4   8   1   40.80    5.70
   4 -12  -1   45.40    5.60
   8   4  -1   46.60    6.80
   4   8   1   30.10    8.10
 -12   4   1   45.90    7.30
   4 -12  -1   45.90    3.80
   8 -12   1   44.80    4.90
 -12   8  -1   54.19    5.50
  12  -8   1   52.29    9.60
  -8  -4   1   50.19    4.60
  -8  12  -1   70.99   10.70
  -4  12   1   52.69    9.30
  12  -8   1   49.99   10.10
  -4  -8  -1   45.70    4.60
  12  -4  -1   50.09    9.70
  -8  -4   1   42.90    7.00
   9 -12   1  314.47   15.60
   3 -12  -1  332.57   14.40
   3   9   1  333.97   19.00
 -12   3   1  290.07   17.50
   9 -12   1  314.87   20.80
 -12   9  -1  308.47   15.70
   3   9   1  336.97   15.50
   9   3  -1  329.87   17.80
 -12   3   1  329.97   14.50
  -9  -3   1  319.47   14.70
  12  -9   1  310.37   18.50
  12  -9   1  337.97   20.20
  -3  -9  -1  324.67   14.60
  12  -3  -1  322.47   20.20
  -9  -3   1  330.17   16.30
  -9  12  -1  335.87   18.90
  -3  12   1  331.07   18.80
   2  10   1 1046.00   43.10
  10   2  -1 1041.20   45.50
  10 -12   1 1034.50   43.70
   2 -12  -1 1018.60   42.40
   2  10   1 1007.40   45.60
  10 -12   1 1047.30   46.40
 -12   2   1 1018.70   42.50
 -10  12  -1 1059.09   45.20
  12 -10   1 1029.70   46.80
 -10  -2   1 1051.09   43.80
  12  -2  -1 1030.40   46.20
 -10  -2   1  989.70   42.50
  12 -10   1 1049.70   45.20
  -2  12   1 1001.70   42.90
  -2  12   1 1011.30   45.60
  -2 -10  -1  979.10   42.40
 -12  11  -1  186.28   12.10
  11 -12   1  185.78   15.20
   1 -12  -1  177.18    9.10
 -12   1   1  186.18    9.50
 -12   1   1  173.98   11.20
   1  11   1  175.58   10.00
  11   1  -1  161.68   13.70
  11 -12   1  183.38   11.50
   1  11   1  185.08   14.30
 -11  12  -1  180.88   13.00
  12  -1  -1  187.58   15.00
  -1  12   1  175.08   10.10
  -1 -11  -1  182.68    9.20
  12 -11   1  179.98   12.10
 -11  -1   1  181.48    9.20
 -11  -1   1  179.88   11.20
  12 -11   1  189.28   15.80
  -1  12   1  164.48   13.90
  12 -12   1  448.16   22.60
 -12   0   1  479.85   22.20
   0 -12  -1  463.55   20.40
  12   0  -1  455.25   24.90
   0  12   1  456.95   25.10
 -12   0   1  473.55   20.70
   0  12   1  488.45   21.30
 -12  12  -1  486.05   23.20
  12 -12   1  478.45   26.60
  13   0   1  103.69   12.40
   0 -13   1  101.79    7.20
  13 -13  -1   90.29   11.80
   0  13  -1  123.49   19.00
 -13  13   1   93.39   10.60
 -13   0  -1  103.69    7.00
  13 -13  -1   73.79   13.90
   1  12  -1   28.20   14.50
 -13  12   1   35.50    7.40
  12 -13  -1   35.80    6.00
  12   1   1   12.10    7.00
   1 -13   1   42.70    5.30
 -13   1  -1   34.90    4.90
  12   1   1   27.60    8.00
  12 -13  -1   25.30   10.00
 -12  -1  -1   34.30    5.00
  -1  13  -1   46.00   14.30
 -12  13   1   18.80    6.70
  -1 -12   1   44.50    5.00
  13 -12  -1   24.40   10.00
  13  -1   1   26.60    8.60
  11   2   1   87.79   10.30
  11 -13  -1  109.09   12.10
 -13  11   1   84.59    8.60
   2  11  -1  118.49   18.30
  11 -13  -1  104.79    8.20
 -13  11   1   98.69    5.40
   2  11  -1   82.59    5.40
 -13   2  -1   95.09    6.30
   2 -13   1   99.89    6.50
  13 -11  -1   86.99   15.70
  -2  13  -1   85.09   15.20
 -11  13   1   99.39    9.60
  13  -2   1  110.59   12.50
  -2 -11   1  104.59    6.60
 -11  -2  -1  101.89    6.70
   3 -13   1  196.68   11.90
   3  10  -1  236.28   24.20
 -13  10   1  219.38   10.20
  10 -13  -1  230.08   11.40
  10   3   1  195.88   13.80
  10 -13  -1  213.78   14.10
  10   3   1  224.58   14.20
 -13  10   1  235.28   13.10
   3  10  -1  221.18   10.40
 -13   3  -1  226.78   10.90
   3 -13   1  227.28   11.00
 -10  -3  -1  234.68   11.10
  13  -3   1  227.58   16.20
  -3 -10   1  229.98   11.20
  13 -10  -1  236.58   17.40
 -10  13   1  234.78   14.40
  -3  13  -1  263.27   21.10
   9   4   1  273.37   16.40
   4   9  -1  315.07   25.00
   4 -13   1  288.07   13.40
 -13   4  -1  276.87   12.50
 -13   9   1  278.47   12.50
   4 -13   1  265.87   14.70
   4   9  -1  287.47   12.90
   9 -13  -1  290.97   13.30
   9   4   1  285.17   15.60
 -13   4  -1  276.57   13.00
 -13   9   1  268.27   14.90
   9 -13  -1  272.37   15.80
  -9  -4  -1  292.87   13.50
  13  -9  -1  295.27   19.10
  -4  -9   1  286.47   13.30
  13  -4   1  307.87   18.80
  -4  13  -1  300.47   20.60
  -9  13   1  282.77   16.60
 -13   8   1  123.19    9.70
   8   5   1   92.19   11.70
   5 -13   1  160.78   10.60
   5   8  -1  128.29   20.20
   8 -13  -1  138.69    9.90
 -13   5  -1  126.39    7.10
   8   5   1  140.89    9.40
   8 -13  -1  133.99    7.20
   5   8  -1  130.79    7.80
   5 -13   1  134.29    7.60
 -13   8   1  141.29    6.90
 -13   5  -1  139.89    7.50
  13  -5   1  132.89   13.40
  -5  -8   1  139.49    7.90
  -8  -5  -1  139.79    8.00
  -5  13  -1  130.69   15.30
  -8  13   1  119.29   10.80
  13  -8  -1  139.39   14.70
   6 -13   1   45.20    9.00
 -13   6  -1   49.10    4.40
 -13   7   1   43.80    6.90
   6 -13   1   46.70    4.60
   7 -13  -1   44.40    4.10
   7   6   1   48.60    9.00
   6   7  -1   56.69   17.20
   7   6   1   44.30    6.10
 -13   6  -1   48.80    4.70
   6   7  -1   41.00    5.80
   7 -13  -1   51.59    7.70
 -13   7   1   45.40    3.90
  -7  13   1   45.80    8.00
  -6  13  -1   70.39   12.00
  -6  -7   1   59.89    5.10
  13  -6   1   43.90    9.90
  13  -7  -1   59.69   10.80
  -7  -6  -1   44.50    4.90
   6   7   1   14.10    4.60
 -13   6   1   23.30    5.40
   7 -13   1   21.90    3.70
 -13   7  -1   18.60    3.40
   6 -13  -1   19.90    5.30
   7 -13   1   16.20    7.20
 -13   6   1   14.60    2.60
   6   7   1   14.20    7.50
   7   6  -1   18.70   15.90
   6 -13  -1   20.20    3.40
   7   6  -1   16.90    4.90
 -13   7  -1   23.20    3.90
  13  -6  -1   14.70    9.30
  -7  13  -1   18.40    9.70
  -6  -7  -1   14.30    3.30
  -6  13   1   12.10    7.80
  -7  -6   1   17.30    3.50
  13  -7   1   11.00    8.80
 -13   8  -1  235.48   12.00
   5 -13  -1  235.58   12.70
   8 -13   1  240.78   12.10
 -13   5   1  236.68   11.10
   8   5  -1  223.68   13.50
   8   5  -1  223.98   27.10
   8 -13   1  246.88   16.80
   5   8   1  235.18   16.10
   5   8   1  224.48   12.20
 -13   5   1  244.88   13.30
  -8  -5   1  255.07   11.80
  13  -8   1  250.27   17.60
  13  -5  -1  248.88   17.70
  -5  13   1  249.08   15.30
  -5  -8  -1  255.17   11.80
  -8  13  -1  257.27   16.80
 -13   9  -1  594.14   27.10
 -13   4   1  633.14   28.00
   4 -13  -1  607.14   27.10
   4 -13  -1  609.94   26.30
   4   9   1  623.34   30.30
   9 -13   1  610.14   27.10
 -13   4   1  637.94   26.40
   4   9   1  631.04   27.40
   9   4  -1  626.24   28.90
  13  -9   1  647.24   31.60
  13  -4  -1  622.04   31.00
  -4  -9  -1  613.54   26.50
  13  -9   1  636.24   31.00
  -9  -4   1  644.04   26.80
  -9  13  -1  613.74   30.30
  -4  13   1  626.14   29.60
 -13  10  -1  184.58   11.50
   3  10   1  182.08   14.50
 -13   3   1  201.08    9.80
  10   3  -1  186.48   14.20
   3  10   1  188.78   10.70
  10 -13   1  188.08   10.80
   3 -13  -1  201.18    9.60
  10 -13   1  192.68   15.70
 -13   3   1  193.08   11.60
  13 -10   1  202.28   16.10
 -10  -3   1  191.18   10.10
  -3 -10  -1  196.68    9.70
  -3  13   1  198.38   14.40
 -10  13  -1  193.08   13.90
  13 -10   1  188.18   18.50
  13  -3  -1  173.88   17.30
 -10  -3   1  191.28   11.90
   2 -13  -1  338.97   15.40
  11 -13   1  357.96   21.70
  11 -13   1  335.77   17.10
 -13  11  -1  336.37   17.20
 -13   2   1  335.07   17.50
   2  11   1  349.67   16.40
 -13   2   1  337.57   15.40
   2  11   1  322.27   20.60
  11   2  -1  353.76   20.20
  13 -11   1  336.27   19.60
 -11  -2   1  339.37   15.70
  13 -11   1  333.27   21.90
 -11  13  -1  348.57   19.40
  -2 -11  -1  348.87   15.60
  13  -2  -1  343.77   21.10
  -2  13   1  343.37   20.50
  -2  13   1  329.67   16.10
 -11  -2   1  351.76   17.40
   1  12   1 1127.69   47.30
   1 -13  -1 1089.79   46.60
  12 -13   1 1108.89   48.50
  12   1  -1 1130.49   50.09
  12 -13   1 1155.78   51.79
 -13  12  -1 1127.99   48.40
 -13   1   1 1103.89   46.70
   1  12   1 1084.29   49.99
  -1 -12  -1 1160.68   46.80
 -12  -1   1 1088.89   46.70
  13 -12   1 1148.19   51.99
 -12  -1   1 1130.99   48.10
  -1  13   1 1127.89   47.30
  13 -12   1 1147.39   49.50
  13  -1  -1 1148.29   51.19
 -12  13  -1 1149.69   49.10
  -1  13   1 1103.59   49.90
   0 -13  -1  199.48   10.00
   0  13   1  178.28   16.60
 -13  13  -1  200.38   13.60
   0  13   1  200.88   11.30
 -13   0   1  190.68   12.30
  13   0  -1  186.18   16.00
  13 -13   1  193.18   13.90
  13 -13   1  184.78   17.60
 -13   0   1  199.18   10.20
   0 -14   1   26.80    5.00
  14 -14  -1   22.10   10.80
   0  14  -1   31.80   15.10
 -14  14   1   26.60    7.60
 -14   0  -1   25.70    4.50
  14   0   1   17.10    8.80
  13   1   1   -6.60    6.00
   1  13  -1   31.60   15.60
  13 -14  -1    9.30    5.90
  13   1   1   -3.00    7.50
  13 -14  -1   12.80    9.50
   1 -14   1   10.50    3.70
 -14   1  -1   12.30    3.90
 -14  13   1    1.30    6.20
  14 -13  -1    7.00   10.80
 -13  14   1   14.00    6.80
  -1 -13   1   13.20    3.90
  14  -1   1    3.70    8.70
  -1  14  -1   12.80   14.30
 -13  -1  -1    8.10    4.20
 -14  12   1  189.08   13.10
   2 -14   1  205.98   10.50
   2  12  -1  183.48    9.40
 -14   2  -1  203.48   10.70
 -14  12   1  196.58    9.50
  12 -14  -1  192.38   12.40
   2  12  -1  204.08   22.30
  12   2   1  195.48   14.30
  12 -14  -1  205.38   17.40
 -12  -2  -1  222.28   11.00
  14  -2   1  201.28   16.30
  14 -12  -1  226.48   18.20
  -2 -12   1  206.08   10.70
  -2  14  -1  240.18   20.70
 -12  14   1  193.68   14.20
   3 -14   1   28.20    5.90
   3  11  -1   48.00    4.60
  11   3   1   35.40    8.00
 -14  11   1   47.60    7.60
  11 -14  -1   53.09    9.30
  11   3   1   45.80    7.80
   3 -14   1   49.70    5.10
  11 -14  -1   46.50    6.70
 -14   3  -1   49.00    5.10
 -14  11   1   43.10    4.00
   3  11  -1   36.20   15.70
  -3  14  -1   66.89   14.40
 -11  -3  -1   64.09    5.70
 -11  14   1   51.79    8.70
  14  -3   1   53.79   10.70
  -3 -11   1   47.90    5.20
  14 -11  -1   52.99   11.70
  10 -14  -1  103.39    7.20
 -14  10   1  107.49    9.70
  10   4   1   65.59   11.20
 -14   4  -1  105.19    6.60
 -14  10   1   98.89    5.80
  10   4   1   95.39    9.50
 -14   4  -1   92.09    5.80
   4  10  -1  105.09    6.50
   4  10  -1  102.49   17.80
  10 -14  -1  111.99   12.20
   4 -14   1  101.69    6.70
  -4 -10   1  118.99    7.40
 -10  -4  -1  109.79    7.40
 -10  14   1   84.39   10.30
  -4  14  -1  116.79   16.30
  14  -4   1   83.69   13.50
  14 -10  -1  104.39   15.00
   9 -14  -1  324.07   17.50
 -14   5  -1  299.67   14.00
   5 -14   1  301.17   16.60
   5   9  -1  303.07   14.20
   9   5   1  296.17   16.10
 -14   9   1  302.47   16.30
   9   5   1  266.87   18.00
 -14   5  -1  293.47   13.80
   5 -14   1  307.37   14.30
   5   9  -1  323.47   28.40
   9 -14  -1  306.37   14.10
  -5  14  -1  317.07   23.00
  -5  -9   1  311.87   14.30
  -9  14   1  300.27   17.30
  14  -9  -1  321.27   20.60
  14  -5   1  330.37   20.40
  -9  -5  -1  322.37   14.40
   6   8  -1   74.09   19.00
 -14   8   1   64.39    4.70
   8   6   1   58.89    8.00
 -14   8   1   50.59    8.10
   6   8  -1   66.09    6.30
   8 -14  -1   62.29    9.30
 -14   6  -1   59.69    5.30
 -14   6  -1   54.69    5.30
   8 -14  -1   59.99    4.80
   6 -14   1   64.29    8.70
   6 -14   1   51.49    5.20
   8   6   1   43.20    9.40
  -6  -8   1   63.59    5.60
  14  -6   1   77.59   11.70
  -8  14   1   58.09    9.90
  14  -8  -1   79.09   14.00
  -8  -6  -1   71.89    5.70
   7 -14  -1   10.00    4.50
 -14   7   1   11.60    2.60
   7 -14  -1   16.40    6.00
   7   7  -1   12.50    4.60
 -14   7  -1    9.80    3.10
 -14   7  -1    9.00    3.40
   7   7  -1   17.10   15.70
   7 -14   1    6.30    3.20
   7 -14   1    9.80    7.50
 -14   7   1    5.40    5.00
   7   7   1    6.70    4.90
  14  -7  -1    0.20   10.20
  -7  -7  -1   13.70    3.70
  -7  14  -1   16.30   10.20
  -7  -7   1    9.50    3.50
  -7  14   1    3.60    7.40
  14  -7   1    9.30    9.60
 -14   6   1  181.48    9.00
   6 -14  -1  187.28    9.00
   6   8   1  152.58   14.80
   8 -14   1  183.78    9.80
   6   8   1  179.98   10.80
   8 -14   1  160.48   15.20
   8   6  -1  145.49   12.30
 -14   6   1  188.88   11.40
   6 -14  -1  175.08   11.50
 -14   8  -1  187.98    9.10
   8   6  -1  193.38   26.40
 -14   8  -1  177.18    9.70
  -6  -8  -1  193.48    9.60
  -8  14  -1  198.08   16.80
  14  -6  -1  182.88   16.80
  -6  14   1  175.38   13.70
  -8  -6   1  187.88    9.80
  14  -8   1  170.78   16.60
 -14   9  -1  121.69    8.30
   5 -14  -1  114.49    6.60
   9   5  -1  106.29   10.70
   5   9   1   92.69   13.20
   9 -14   1  112.29    8.10
   9   5  -1  140.89   23.10
   5 -14  -1  113.39    9.30
 -14   5   1  116.79    9.40
 -14   5   1  112.19    6.90
   5   9   1  116.59    8.50
  -9  -5   1  124.79    7.70
  -5  14   1  141.69   13.40
  14  -9   1  119.39   15.60
  14  -5  -1   97.19   14.80
  -9  14  -1  127.99   13.50
  -5  -9  -1  123.99    7.30
   4 -14  -1  224.48   12.70
   4  10   1  218.58   16.20
 -14   4   1  255.97   11.50
   4 -14  -1  234.08   11.30
 -14   4   1  247.08   13.90
   4  10   1  220.38   12.50
  10   4  -1  232.88   15.30
  10 -14   1  222.08   12.40
 -14  10  -1  224.88   12.60
  10 -14   1  228.78   17.50
  14  -4  -1  236.48   18.70
 -10  -4   1  233.18   11.60
  14 -10   1  271.37   19.70
  -4 -10  -1  234.78   11.60
  -4  14   1  237.68   16.00
 -10  14  -1  274.67   17.80
  14 -10   1  247.28   19.10
   3  11   1  773.82   38.40
 -14  11  -1  807.32   35.60
   3  11   1  839.92   35.20
  11   3  -1  805.92   37.70
  11 -14   1  841.52   35.90
 -14   3   1  817.32   34.40
   3 -14  -1  829.12   34.40
  11 -14   1  831.02   39.30
 -14   3   1  799.02   36.00
 -11  -3   1  813.92   36.10
  -3  14   1  767.02   37.70
 -11  -3   1  802.52   34.50
  -3 -11  -1  806.82   34.50
  14  -3  -1  830.32   39.30
  14 -11   1  877.71   41.30
  14 -11   1  815.52   39.10
 -11  14  -1  841.32   37.70
  12 -14   1  214.18   13.10
   2  12   1  200.18   17.50
 -14   2   1  230.18   11.20
 -14   2   1  212.48   13.60
  12 -14   1  207.58   19.00
   2  12   1  234.88   12.30
 -14  12  -1  241.48   13.90
  12   2  -1  218.58   16.90
   2 -14  -1  229.48   11.20
  14 -12   1  210.58   19.40
  -2  14   1  225.88   12.40
  -2 -12  -1  242.58   11.60
 -12  -2   1  227.98   11.30
 -12  14  -1  230.18   15.90
  -2  14   1  222.08   17.70
 -12  -2   1  226.08   13.60
  14  -2  -1  192.68   19.60
  14 -12   1  236.68   16.90
 -14   1   1  241.18   12.10
 -14   1   1  252.27   14.40
   1  13   1  224.98   18.30
   1 -14  -1  228.18   11.70
 -14  13  -1  238.48   14.80
  13   1  -1  262.47   17.80
  13 -14   1  216.78   19.00
   1  13   1  241.58   12.80
  13 -14   1  254.57   15.30
  14 -13   1  223.28   21.40
 -13  14  -1  244.48   16.00
  14  -1  -1  233.98   18.40
  -1 -13  -1  246.08   12.10
  -1  14   1  229.88   17.90
 -13  -1   1  237.38   14.10
  14 -13   1  223.48   16.00
  -1  14   1  242.88   12.70
 -13  -1   1  246.58   12.30
 -14   0   1  769.52   32.90
  14   0  -1  785.82   38.20
 -14  14  -1  774.12   35.20
   0  14   1  783.92   33.60
   0  14   1  736.63   36.70
  14 -14   1  769.42   39.90
 -14   0   1  776.62   34.50
  14 -14   1  779.12   35.90
   0 -14  -1  756.72   32.70
  15   0   1   47.40   11.20
 -15  15   1   29.90    8.20
  15 -15  -1   44.50   10.70
  15 -15  -1   30.90   12.70
   0  15  -1   45.80   16.10
   0 -15   1   44.80    5.70
 -15   0  -1   48.10    6.70
 -15   1  -1   51.59    5.90
   1 -15   1   43.50    6.20
  14 -15  -1   27.30   11.10
   1  14  -1   45.30   16.30
 -15  14   1   33.70    8.00
  14 -15  -1   33.80    8.40
  14   1   1   33.90    9.50
 -14  15   1   40.60    8.30
  -1 -14   1   36.10    5.50
  15  -1   1   38.90   10.30
  -1  15  -1   48.30   16.60
 -14  -1  -1   43.00    6.00
  15 -14  -1   40.20   12.30
 -15   2  -1   60.39    6.00
  13 -15  -1   77.89   13.60
 -15  13   1   60.59    4.80
  13   2   1   54.89    8.60
  13   2   1   76.59   11.00
   2  13  -1   84.79   18.50
   2 -15   1   68.59    6.60
 -15  13   1   62.79    9.10
  -2  15  -1   95.29   16.70
  -2 -13   1   64.39    6.70
 -13  -2  -1   82.79    6.60
 -13  15   1   56.79    8.90
  15 -13  -1   48.60   12.40
  15  -2   1   56.09   11.40
   3  12  -1   81.79   18.40
  12 -15  -1   79.79   13.10
 -15  12   1   74.19    9.00
  12 -15  -1   82.79    9.70
 -15  12   1   86.79    5.40
   3 -15   1   87.79    6.50
   3  12  -1   82.59    5.60
  12   3   1   76.79    9.80
 -15   3  -1   92.99    6.60
  12   3   1   80.89   10.50
  15 -12  -1   80.59   13.60
 -12  15   1   65.99   10.70
  -3  15  -1   76.89   16.20
  -3 -12   1   89.49    6.60
 -12  -3  -1   84.39    6.80
  15  -3   1   81.19   14.00
 -15  11   1  345.17   18.20
   4  11  -1  346.67   15.60
   4 -15   1  359.86   16.20
  11 -15  -1  370.56   20.90
   4  11  -1  370.26   29.20
 -15  11   1  342.97   15.20
  11   4   1  324.77   19.70
 -15   4  -1  310.47   14.90
   4 -15   1  294.37   17.40
 -15   4  -1  356.06   16.00
  11   4   1  365.96   19.30
  11 -15  -1  358.76   16.80
 -11  15   1  325.87   18.90
 -11  -4  -1  364.16   16.10
  15  -4   1  371.66   21.90
  15 -11  -1  340.97   23.20
  -4  15  -1  336.67   24.10
  -4 -11   1  338.47   16.00
   5  10  -1   83.59   18.60
 -15  10   1   73.89    5.10
   5 -15   1   45.70    8.10
  10 -15  -1   65.59   10.40
   5  10  -1   73.09    6.00
 -15   5  -1   67.79    5.40
 -15  10   1   49.50    9.00
 -15   5  -1   65.49    5.60
  10 -15  -1   57.79    8.60
  10   5   1   62.59   10.40
   5 -15   1   74.39    6.40
  10   5   1   66.99    8.90
  -5 -10   1   71.29    6.10
  -5  15  -1  125.59   18.40
 -10  -5  -1   81.89    6.40
  15 -10  -1   80.79   15.20
 -10  15   1   58.29   10.30
  15  -5   1   82.69   14.80
   9 -15  -1  192.98   13.70
   9   6   1  173.48   12.00
   6   9  -1  172.08   26.00
   6 -15   1  168.98    9.40
   9 -15  -1  145.69    9.60
 -15   9   1  162.38   11.50
   9   6   1  120.09   14.30
 -15   6  -1  161.98    8.80
 -15   6  -1  165.78    8.90
 -15   9   1  174.68    8.50
   6   9  -1  163.18    9.50
  -9  15   1  155.78   13.10
  15  -9  -1  148.19   17.30
  15  -6   1  160.48   18.20
  -6  -9   1  173.58    9.30
  -9  -6  -1  173.48    9.70
  -6  15  -1  211.48   19.80
   7 -15   1   59.69    6.10
   8   7   1   58.89    7.30
   7 -15   1   44.90    9.20
 -15   8   1   52.59    7.60
 -15   7  -1   53.49    5.10
 -15   7  -1   50.39    6.00
   8   7   1   39.00    9.60
 -15   8   1   57.79    4.90
   7   8  -1   44.80   19.60
   8 -15  -1   58.69    8.40
   7   8  -1   53.39    7.00
   8 -15  -1   54.99    5.20
  15  -8  -1   58.59   12.20
  -7  -8   1   61.79    6.40
  -7  15  -1   62.79   13.50
  -8  15   1   60.69    9.70
  -8  -7  -1   48.00    6.20
  15  -7   1   57.99   11.90
 -15   8  -1   33.00    4.50
 -15   7   1   48.70    4.70
   8   7  -1   40.90   10.30
   8 -15   1   50.89    6.00
   7   8   1   33.70    9.90
   7 -15  -1   40.60    4.80
   7   8   1   39.90    7.20
   8 -15   1   30.90    9.30
   7 -15  -1   42.50    7.40
 -15   7   1   51.09    7.40
 -15   8  -1   56.09    6.10
   8   7  -1   61.29   19.80
  -8  -7   1   40.80    5.40
  -7  -8  -1   60.59    5.70
  -8  15  -1   47.50   11.30
  15  -8   1   44.50   11.50
  15  -7  -1   36.80   11.90
  -7  15   1   39.20    9.20
   6 -15  -1   45.00    4.60
   6 -15  -1   47.40    8.50
 -15   9  -1   38.00    4.60
   6   9   1   38.00    6.80
   6   9   1   33.20    9.60
   9   6  -1   40.70    7.10
   9 -15   1   15.50   10.20
   9 -15   1   46.30    6.30
 -15   6   1   38.10    6.50
   9   6  -1   35.60   18.70
 -15   9  -1   43.80    6.10
 -15   6   1   47.80    4.80
  -6  15   1   39.70    9.50
  -9  15  -1   60.29   11.60
  -9  -6   1   46.10    5.30
  15  -6  -1   31.60   12.00
  15  -9   1   42.00   11.50
  -6  -9  -1   48.70    5.40
  10   5  -1  398.46   21.10
  10 -15   1  349.57   23.90
 -15   5   1  403.36   18.10
   5  10   1  405.16   19.30
   5 -15  -1  415.06   18.00
  10 -15   1  423.06   19.30
   5  10   1  401.56   23.40
  10   5  -1  397.76   35.10
 -15  10  -1  395.16   19.10
 -15   5   1  418.06   20.30
   5 -15  -1  388.36   19.60
  -5  15   1  425.76   22.20
  15 -10   1  396.66   25.10
 -10  15  -1  441.66   23.20
 -10  -5   1  416.26   18.40
  -5 -10  -1  411.56   18.40
  15  -5  -1  388.76   24.80
  11 -15   1  274.97   14.40
  11 -15   1  228.08   19.10
  11   4  -1  271.07   16.40
   4  11   1  241.48   18.60
 -15  11  -1  260.57   14.40
   4 -15  -1  267.77   12.70
   4  11   1  260.27   13.80
 -15   4   1  265.17   15.00
 -15   4   1  260.27   12.70
   4 -15  -1  254.67   14.00
 -11  -4   1  272.77   13.20
  15 -11   1  275.37   19.60
  -4  15   1  248.78   18.30
  15 -11   1  273.67   21.20
  -4 -11  -1  292.77   13.20
  15  -4  -1  249.38   20.10
 -11  15  -1  275.67   17.50
   3  12   1  146.29    9.50
 -15   3   1  136.79    7.90
   3  12   1  115.89   15.50
   3 -15  -1  128.79    9.60
  12   3  -1  115.09   13.90
 -15  12  -1  139.59   10.70
  12 -15   1   86.09   16.00
  12 -15   1  126.19    9.70
 -15   3   1  133.19   11.00
   3 -15  -1  134.59    7.90
  15 -12   1  130.69   15.80
  15  -3  -1  111.69   16.70
  15 -12   1  106.99   19.50
 -12  -3   1  126.59   10.80
 -12  15  -1  141.89   14.20
 -12  -3   1  144.79    8.30
  -3  15   1  125.49   14.00
  -3 -12  -1  132.59    8.40
  13 -15   1  633.74   33.70
  13   2  -1  619.84   32.50
   2  13   1  665.13   28.80
 -15   2   1  644.14   27.70
 -15   2   1  644.94   29.50
   2 -15  -1  662.13   27.80
   2  13   1  625.84   32.30
  13 -15   1  647.14   30.00
 -15  13  -1  670.83   29.80
 -13  15  -1  640.54   30.60
  -2 -13  -1  663.33   28.00
  15 -13   1  643.54   34.70
 -13  -2   1  618.74   27.80
  -2  15   1  601.34   31.70
 -13  -2   1  647.44   29.60
  15  -2  -1  660.43   33.50
  15 -13   1  652.63   32.60
 -15   1   1  218.38   13.90
   1 -15  -1  237.88   11.40
 -15   1   1  226.18   11.40
   1  14   1  199.08   18.20
  14 -15   1  172.88   21.20
   1  14   1  220.98   12.40
  14   1  -1  199.48   16.90
  14 -15   1  201.58   15.20
 -15  14  -1  223.78   14.90
  -1  15   1  219.58   12.20
  15  -1  -1  198.58   18.20
  15 -14   1  219.08   16.70
  15 -14   1  188.78   20.40
 -14  -1   1  208.38   13.90
  -1  15   1  192.78   17.60
  -1 -14  -1  232.18   11.40
 -14  -1   1  212.68   11.30
 -14  15  -1  211.68   15.50
   0  15   1   15.10    5.30
  15   0  -1   10.90   11.60
 -15   0   1   13.30    4.00
  15 -15   1   13.70    7.70
  15 -15   1    1.10   12.30
   0 -15  -1   12.40    3.80
 -15  15  -1   14.30    7.80
   0  15   1   -2.50    9.60
 -15   0   1   14.40    6.90
   0  16  -1   31.00   15.80
  16 -16  -1    2.80   11.30
 -16   0  -1   24.50    4.90
 -16  16   1    9.70    7.40
  16   0   1   14.90   10.30
   0 -16   1   20.60    4.60
 -16  15   1   24.80    8.00
  15 -16  -1   21.70    9.40
  15   1   1   12.90   10.00
  15 -16  -1   -1.60   11.40
   1 -16   1   23.60    4.90
 -16   1  -1   24.00    4.70
   1  15  -1   10.20   14.80
 -15  -1  -1   44.00    6.70
 -15  16   1   11.40    7.40
  16  -1   1   18.70   10.10
  -1 -15   1   18.60    4.50
  16 -15  -1   -3.70   13.30
  -1  16  -1   30.70   14.80
   2  14  -1   88.49   19.20
 -16  14   1   81.39    5.50
  14   2   1   82.39   12.10
   2 -16   1   72.59    6.70
  14 -16  -1   60.19   12.40
 -16  14   1   63.59   10.60
 -16   2  -1   74.09    6.80
  14 -16  -1   74.09   10.80
  -2 -14   1   83.09    7.30
  16 -14  -1   66.49   15.60
  16  -2   1   72.89   11.90
 -14  -2  -1  101.49    7.70
  -2  16  -1   78.99   16.30
 -14  16   1   65.99   10.50
   3  13  -1  274.57   14.20
 -16  13   1  315.77   18.00
  13   3   1  350.46   19.80
  13   3   1  287.07   19.00
  13 -16  -1  332.37   17.60
 -16   3  -1  334.67   15.40
   3 -16   1  327.47   15.30
 -16  13   1  328.27   14.40
  13 -16  -1  317.47   20.20
   3  13  -1  350.36   27.30
  16 -13  -1  299.67   23.20
  -3 -13   1  321.77   15.50
  16  -3   1  332.47   21.50
 -13  -3  -1  325.17   15.30
 -13  16   1  305.57   18.40
  -3  16  -1  350.76   24.80
   4 -16   1   91.69    7.20
   4 -16   1   69.79    9.40
 -16  12   1   84.19    5.70
   4  12  -1   81.69    6.30
  12 -16  -1   91.29   13.60
 -16   4  -1   80.19    6.50
   4  12  -1   98.29   19.20
 -16  12   1   77.19   10.00
  12   4   1   75.59   10.80
  12   4   1   75.09   11.70
  12 -16  -1   85.99    8.40
 -12  16   1   60.19   10.80
  16  -4   1   78.89   14.50
  -4  16  -1   94.29   15.60
 -12  -4  -1   91.79    7.10
  -4 -12   1   85.99    7.20
  16 -12  -1   87.19   14.50
   5  11  -1  220.58   11.30
  11 -16  -1  224.28   12.20
   5 -16   1  194.68   14.10
 -16  11   1  224.88   10.70
   5 -16   1  231.48   11.60
  11   5   1  173.88   16.50
 -16   5  -1  204.38   10.70
 -16   5  -1  239.48   11.60
 -16  11   1  205.58   14.10
  11   5   1  222.88   14.30
  11 -16  -1  231.48   16.00
   5  11  -1  222.08   27.30
 -11  -5  -1  249.68   12.10
  16  -5   1  220.88   18.60
  -5 -11   1  249.28   12.00
  -5  16  -1  280.37   21.00
 -11  16   1  227.88   16.10
  16 -11  -1  202.28   19.40
   6 -16   1  401.16   18.10
   6  10  -1  395.16   18.20
 -16  10   1  389.36   20.10
  10   6   1  353.66   22.40
  10 -16  -1  400.46   18.00
 -16  10   1  398.26   17.40
  10   6   1  404.36   20.50
  10 -16  -1  428.56   21.90
 -16   6  -1  385.96   17.70
   6 -16   1  347.97   20.90
 -16   6  -1  395.56   17.80
   6  10  -1  367.56   31.00
  -6 -10   1  406.46   18.30
 -10  -6  -1  419.96   18.10
 -10  16   1  375.36   21.30
  -6  16  -1  421.96   25.50
  16  -6   1  419.16   24.80
  16 -10  -1  379.16   25.40
   9   7   1   11.50    9.20
   7   9  -1   22.50    4.90
   7   9  -1   22.90   18.10
 -16   7  -1   20.20    4.00
 -16   7  -1   17.20    4.10
   9   7   1   10.90    5.50
   7 -16   1   20.70    4.30
   9 -16  -1   16.30    3.60
 -16   9   1   18.20    3.30
 -16   9   1   12.50    6.00
   9 -16  -1   26.30    7.50
  16  -7   1    7.70   10.50
  -7  16  -1   14.50   12.00
  -9  16   1    7.10    8.10
  16  -9  -1   13.60   11.80
  -7  -9   1   21.70    4.60
  -9  -7  -1   17.50    4.30
   8 -16  -1   41.20    8.10
 -16   8  -1   27.80    4.20
 -16   8   1   33.50    6.80
 -16   8  -1   37.20    6.00
   8   8  -1   40.30    7.00
   8 -16  -1   33.30    4.90
   8   8  -1   44.30   18.10
   8   8   1   18.40    9.70
 -16   8   1   38.20    4.70
   8 -16   1   33.90    5.30
   8 -16   1   14.80    9.10
   8   8   1   32.20    6.40
  -8  -8   1   43.10    6.10
  -8  -8  -1   48.20    5.70
  -8  16  -1   43.20   11.90
  16  -8  -1   31.10   12.20
  16  -8   1   46.60   12.20
  -8  16   1   42.50    9.40
   7   9   1   99.89    9.00
   9 -16   1  105.59    8.00
   9   7  -1  131.39   22.20
   7   9   1  103.29   14.40
   9 -16   1   68.89   12.30
   7 -16  -1  101.99    6.80
 -16   9  -1  106.59    6.70
   7 -16  -1  107.79   10.70
 -16   7   1  114.59    6.90
 -16   7   1  117.19   10.20
   9   7  -1   92.29    9.00
 -16   9  -1  105.49    8.10
  -7  16   1   99.99   12.70
  -7  -9  -1  112.69    7.50
  16  -7  -1   85.49   16.60
  16  -9   1   93.89   16.30
  -9  16  -1  110.29   16.40
  -9  -7   1  107.19    7.40
   6  10   1  116.99   15.20
  10   6  -1  131.29   22.50
  10 -16   1  106.49    8.60
 -16  10  -1  111.09    8.60
  10 -16   1   88.59   13.00
 -16   6   1  131.19    7.50
   6 -16  -1  118.09   10.70
  10   6  -1  115.29   10.80
 -16   6   1  115.39   10.60
 -16  10  -1  114.29    7.40
   6  10   1  103.29    8.90
   6 -16  -1  115.49    7.30
  16  -6  -1   95.59   14.80
  16 -10   1   97.09   16.80
  -6  16   1  101.19   12.90
  -6 -10  -1  123.09    7.70
 -10  -6   1  128.49    8.20
 -10  16  -1  146.99   15.10
 -16   5   1   57.39    5.90
   5 -16  -1   50.99    8.30
   5  11   1   39.50    7.20
  11 -16   1   35.70   11.50
 -16   5   1   57.79    9.40
   5 -16  -1   54.79    5.50
  11   5  -1   81.69   22.60
  11   5  -1   48.40    8.50
 -16  11  -1   50.79    7.80
   5  11   1   53.49   11.70
  11 -16   1   49.99    7.80
  -5  16   1   65.79   10.90
  -5 -11  -1   73.59    6.50
  16  -5  -1   56.19   14.20
 -11  16  -1   69.39   11.20
 -11  -5   1   56.59    6.10
  16 -11   1   52.19   14.20
   4  12   1  372.06   18.00
  12   4  -1  367.96   21.30
   4  12   1  333.17   22.70
  12 -16   1  317.97   23.30
   4 -16  -1  381.06   16.80
 -16   4   1  381.76   16.90
  12 -16   1  386.96   18.90
 -16  12  -1  341.47   18.40
  12   4  -1  391.16   36.20
 -16   4   1  379.26   19.20
   4 -16  -1  352.96   18.10
  16 -12   1  350.56   24.80
 -12  16  -1  364.96   21.20
  -4 -12  -1  383.66   17.10
  16 -12   1  357.96   25.10
  16  -4  -1  348.67   24.40
 -12  -4   1  378.26   17.20
  -4  16   1  358.76   21.40
 -16   3   1  215.48   11.20
  13 -16   1  206.48   13.70
   3 -16  -1  222.28   12.40
   3  13   1  197.68   18.30
  13 -16   1  181.98   20.20
   3  13   1  210.18   12.20
 -16   3   1  217.38   13.80
 -16  13  -1  201.38   13.60
   3 -16  -1  216.38   11.10
  13   3  -1  202.58   17.20
 -13  16  -1  238.18   16.00
  16 -13   1  175.68   20.40
  16  -3  -1  195.78   19.40
 -13  -3   1  215.18   11.60
  -3 -13  -1  212.48   11.20
  -3  16   1  182.68   17.40
  16 -13   1  212.38   19.30
   2  14   1    7.80    5.00
   2  14   1    4.60   10.90
 -16   2   1   17.50    6.90
 -16  14  -1   15.10    7.20
   2 -16  -1   13.70    4.10
 -16   2   1    5.70    3.90
  14 -16   1    0.00   11.50
  14   2  -1   -8.20    8.80
  14 -16   1    5.40    6.70
  -2 -14  -1    6.40    3.80
  16 -14   1    5.80    9.90
  16  -2  -1    2.70   10.80
  -2  16   1    0.10    9.70
 -14  -2   1    9.30    4.30
  16 -14   1  -16.80   11.80
 -14  16  -1    5.70    9.00
 -14  -2   1    4.80    6.80
   1  15   1   36.30   11.40
   1 -16  -1   50.29    6.10
  15   1  -1   37.40   11.40
  15 -16   1   43.40    9.20
 -16  15  -1   48.80    8.50
 -16   1   1   41.60    6.50
  15 -16   1   29.90   14.90
 -16   1   1   51.89    8.40
   1  15   1   45.00    8.00
  16 -15   1   44.60   10.00
  -1  16   1   47.90    6.90
 -15  -1   1   60.29    6.90
  -1 -15  -1   63.49    6.50
  -1  16   1   56.19   11.90
 -15  16  -1   56.39    9.30
 -15  -1   1   59.19    8.60
  16  -1  -1   48.60   12.50
  16 -15   1   31.00   13.40
   0  16   1   10.90    5.20
  16 -16   1    4.00    7.50
  16 -16   1    7.70   12.70
   0  16   1    7.60   10.70
 -16   0   1   11.90    4.10
  16   0  -1   -1.20   11.00
 -16   0   1   19.60    6.90
   0 -16  -1    9.80    4.00
 -16  16  -1    6.30    7.20
  17   0   1   14.00    8.70
  17 -17  -1    9.50   12.80
 -17  17   1   10.50    6.90
   0  17  -1   13.30   12.90
 -17   0  -1   21.40    4.70
   0 -17   1   17.60    4.50
   1  16  -1   87.09   16.90
 -17   1  -1  107.19    7.70
   1 -17   1  112.79    8.20
  16 -17  -1   86.49   16.60
 -17  16   1  111.49    6.50
 -17  16   1  111.69   11.80
  16   1   1  105.19   13.10
  16 -17  -1   94.49   15.00
 -16  -1  -1  117.79    8.00
  -1 -16   1   99.69    7.70
  17 -16  -1   93.39   15.10
  17  -1   1  117.29   14.10
  -1  17  -1  104.99   18.30
 -16  17   1  100.79   11.10
 -17   2  -1  119.59    8.20
 -17  15   1   97.99   11.70
   2  15  -1  131.89   19.60
  15 -17  -1  127.59   13.20
  15   2   1  123.69   13.00
   2 -17   1  120.29    8.50
 -17  15   1  127.19    7.10
  15 -17  -1  120.69   16.00
  17 -15  -1   98.09   15.40
 -15  17   1  103.59   11.70
  -2  17  -1  111.99   17.80
  -2 -15   1  124.79    8.30
  17  -2   1   95.49   14.20
 -15  -2  -1  124.09    8.30
 -17  14   1   28.90    7.70
  14 -17  -1   34.70    7.50
  14 -17  -1   17.50   11.70
  14   3   1   28.80    8.30
 -17   3  -1   36.40    5.70
   3 -17   1   40.20    6.40
   3  14  -1   28.90   15.90
 -14  -3  -1   41.50    6.80
  17 -14  -1   22.60   12.70
  -3 -14   1   32.40    5.70
 -14  17   1   28.60    8.50
  -3  17  -1   50.59   15.10
  17  -3   1   13.50   10.60
 -17  13   1  208.88   10.20
 -17  13   1  201.58   14.30
   4  13  -1  179.48   10.40
  13   4   1  206.68   15.90
 -17   4  -1  204.88   11.20
   4 -17   1  204.98   11.40
  13 -17  -1  212.68   13.20
  13 -17  -1  167.18   16.60
   4  13  -1  206.48   25.70
  17 -13  -1  185.18   19.70
  17  -4   1  217.28   20.30
 -13  17   1  221.98   16.50
  -4  17  -1  230.68   22.70
  -4 -13   1  209.68   11.20
 -13  -4  -1  229.18   11.70
 -17  12   1  662.83   28.10
   5 -17   1  579.14   30.90
  12   5   1  597.74   32.50
 -17  12   1  652.13   30.90
 -17   5  -1  678.43   28.70
   5  12  -1  685.73   39.90
  12 -17  -1  730.03   29.80
  12 -17  -1  673.53   32.80
   5  12  -1  675.93   28.60
  12   5   1  675.03   31.50
   5 -17   1  680.93   28.90
  17 -12  -1  625.14   35.40
  -5 -12   1  655.63   28.70
  17  -5   1  687.33   34.20
  -5  17  -1  649.04   35.50
 -12  17   1  623.14   31.40
 -12  -5  -1  719.53   29.10
   6 -17   1   57.09   11.30
   6  11  -1   89.29   20.10
  11   6   1   64.89    9.60
 -17   6  -1   68.29    6.20
 -17  11   1   51.89    9.60
  11 -17  -1   55.09    7.00
 -17  11   1   75.59    5.40
   6  11  -1   55.39    6.50
   6 -17   1   65.99    6.90
  11 -17  -1   60.49   10.20
  -6  17  -1   74.09   15.60
  -6 -11   1   69.19    6.40
 -11  -6  -1   65.09    6.60
  17 -11  -1   36.20   13.50
 -11  17   1   60.39   10.60
  17  -6   1   63.19   13.20
  10   7   1  183.78   12.30
  10 -17  -1  193.88   15.40
 -17   7  -1  190.68   10.20
   7 -17   1  178.88   15.10
   7  10  -1  185.78   10.60
  10 -17  -1  187.18   10.40
 -17  10   1  192.98    9.70
   7 -17   1  197.48   10.80
 -17   7  -1  194.18   10.50
  10   7   1  188.28   17.40
 -17  10   1  161.88   12.60
   7  10  -1  211.78   24.80
 -10  17   1  176.68   14.60
  -7  17  -1  199.68   19.00
  17  -7   1  166.08   18.50
  -7 -10   1  190.48   10.40
 -10  -7  -1  192.28   10.50
  17 -10  -1  178.98   20.20
 -17   8  -1  180.78   10.80
   9 -17  -1  199.38   15.10
   9   8   1  171.08   12.50
   9 -17  -1  192.98   10.20
 -17   8  -1  192.38    9.90
   8 -17   1  201.88   15.90
   9   8   1  171.58   17.00
   8   9  -1  176.48   11.40
 -17   9   1  189.78   12.90
   8   9  -1  191.78   28.70
   8 -17   1  180.68   10.60
 -17   9   1  193.38    9.60
  -8  -9   1  203.48   10.90
  -9  -8  -1  202.78   10.60
  -8  17  -1  195.38   18.40
  17  -8   1  155.68   18.30
  17  -9  -1  147.89   19.50
  -9  17   1  158.18   14.50
 -17   8   1  128.09    7.40
   8   9   1  101.09   15.00
   8 -17  -1  120.29    7.60
 -17   9  -1  121.19    8.60
   8   9   1  100.79   10.00
   9 -17   1   80.89   15.10
 -17   9  -1  109.39    7.70
 -17   8   1  108.89   10.50
   9 -17   1  116.29    8.40
   8 -17  -1  102.69   11.90
   9   8  -1  108.39    9.70
   9   8  -1  132.59   23.90
  -9  17  -1  131.59   15.70
  17  -9   1  123.69   17.10
  -8  17   1  108.79   13.00
  -9  -8   1  118.89    7.90
  -8  -9  -1  115.39    7.90
  17  -8  -1   94.39   15.50
 -17   7   1   18.50    6.60
   7 -17  -1   21.10    3.80
  10 -17   1   18.40    4.80
 -17   7   1   34.00    4.80
  10   7  -1   23.80    6.60
   7 -17  -1   27.60    7.50
 -17  10  -1   23.80    5.20
   7  10   1   18.30   10.50
   7  10   1   16.20    5.80
  10 -17   1   13.10   10.70
  10   7  -1   13.10   19.40
 -17  10  -1   18.40    3.80
 -10  -7   1   28.80    5.00
  -7  17   1   12.40    9.90
  -7 -10  -1   18.00    4.40
  17 -10   1   10.90   11.70
 -10  17  -1   28.20   11.80
  17  -7  -1   -1.50   12.40
 -17   6   1   66.39    6.10
   6 -17  -1   49.90   10.00
   6  11   1   51.09    8.00
 -17   6   1   59.69    9.20
 -17  11  -1   58.19    6.00
  11 -17   1   53.49   12.40
   6  11   1   63.69   12.20
  11   6  -1   50.79   21.00
 -17  11  -1   55.79    7.70
  11 -17   1   61.79    8.00
   6 -17  -1   62.19    6.00
  11   6  -1   43.50    8.50
  17  -6  -1   45.30   13.30
 -11  17  -1   63.99   11.80
 -11  -6   1   62.49    6.40
  17 -11   1   44.10   13.30
  -6 -11  -1   70.69    6.40
  -6  17   1   46.30   10.70
 -17  12  -1   68.99    8.70
 -17   5   1   64.99    9.60
   5 -17  -1   58.19    5.90
   5  12   1   59.29    8.10
 -17   5   1   59.39    6.10
   5 -17  -1   73.19   10.00
  12 -17   1   69.89   13.20
  12   5  -1   71.39   22.30
  12   5  -1   57.89    9.60
  12 -17   1   62.89    8.70
   5  12   1   64.49   12.80
 -12  17  -1   74.99   12.50
  17  -5  -1   33.00   13.30
  -5 -12  -1   69.09    6.90
 -12  -5   1   60.19    6.50
  -5  17   1   78.19   12.70
  17 -12   1   40.60   13.50
  13 -17   1    6.80   11.40
 -17   4   1    8.90    3.90
 -17  13  -1   11.90    6.10
  13 -17   1    4.10    5.70
  13   4  -1    4.20    8.70
  13   4  -1   37.70   22.60
   4 -17  -1    2.70    6.00
   4  13   1    3.60    5.20
 -17   4   1    2.40    6.50
   4 -17  -1    7.50    3.70
   4  13   1    8.80   10.80
  17 -13   1   -5.90   12.00
  -4 -13  -1   14.20    4.40
  -4  17   1    1.00    9.40
  17 -13   1   14.50   12.40
  17  -4  -1   -4.10   13.10
 -13  17  -1   17.80    9.80
 -13  -4   1    7.90    4.30
   3 -17  -1   84.39    8.70
   3  14   1   73.79    8.40
 -17  14  -1   74.49   10.00
  14 -17   1   70.89   10.20
   3  14   1   85.59   14.60
 -17   3   1   81.69    7.20
 -17   3   1   73.39   10.40
  14 -17   1   98.39   16.30
  14   3  -1   66.99   12.90
   3 -17  -1   87.39    7.00
  -3  17   1   81.29   13.10
 -14  17  -1   76.99   13.50
 -14  -3   1   80.49    7.00
  17 -14   1   99.79   15.10
  17  -3  -1   77.89   13.70
  17 -14   1   84.69   15.50
  -3 -14  -1  100.19    7.60
   2 -17  -1   23.80    4.70
 -17  15  -1   20.70    7.30
   2  15   1   18.20    5.40
  15 -17   1   21.10    8.20
   2 -17  -1   15.80    6.00
  15 -17   1    5.20   11.90
  15   2  -1   23.20   10.50
 -17   2   1   16.70    4.10
   2  15   1   13.60   11.10
 -17   2   1   24.20    6.90
 -15  17  -1   16.80    8.70
  -2  17   1   10.30    9.50
  17 -15   1   19.60   13.40
 -15  -2   1   13.10    4.10
  -2 -15  -1   15.60    4.40
  17  -2  -1   13.50   11.10
  17 -15   1   21.60   11.20
   1  16   1  106.09   14.40
  16 -17   1  136.89   13.60
 -17  16  -1  141.09   12.20
  16 -17   1  146.09   21.60
 -17   1   1  117.59   11.40
 -17   1   1  130.39    8.60
   1  16   1  117.59    9.50
   1 -17  -1  129.49    8.10
  16   1  -1   89.99   14.60
  -1 -16  -1  134.49    8.50
  17 -16   1  137.09   21.70
  17 -16   1  132.89   15.70
 -16  -1   1   99.89   11.30
  -1  17   1  110.99   14.30
 -16  17  -1  136.49   13.10
 -16  -1   1  120.69    8.60
  17  -1  -1  119.59   17.30
   0  17   1   69.39   12.00
  17 -17   1   58.69   14.50
   0  17   1   46.10    8.10
 -17   0   1   49.70    6.10
  17   0  -1   59.59   13.40
 -17  17  -1   62.39    9.70
  17 -17   1   51.49   10.10
   0 -17  -1   60.29    6.40
 -17   0   1   65.69    9.10
  18   0   1  120.29   13.80
 -18   0  -1  126.49    9.00
   0  18  -1  115.89   18.30
   0 -18   1  128.29    8.50
 -18  18   1  117.09   11.60
  18 -18  -1  111.69   20.20
  17 -18  -1   71.89   13.10
  17 -18  -1   49.90   13.20
  17   1   1   63.29   12.50
 -18  17   1   81.69    5.60
   1 -18   1   68.09    6.50
 -18   1  -1   66.89    6.50
   1  17  -1   61.39   15.00
 -18  17   1   64.79   10.50
  -1 -17   1   58.59    6.30
 -17  -1  -1   62.89    6.50
  18  -1   1   57.19   11.00
 -17  18   1   61.09   10.10
  -1  18  -1   85.99   16.10
  18 -17  -1   54.69   13.90
 -18  16   1   13.50    3.10
 -18   2  -1   10.30    4.20
 -18  16   1   12.50    7.60
  16   2   1   20.90    8.10
   2  16  -1   19.20   15.10
   2 -18   1   11.40    4.50
  16 -18  -1   -0.50   12.50
  16 -18  -1   -5.20    8.60
  -2 -16   1   12.00    4.10
  18 -16  -1   -1.20   11.60
 -16  -2  -1   14.60    4.40
  -2  18  -1   20.70   12.90
 -16  18   1   12.90    7.70
  18  -2   1    8.90    9.20
  15 -18  -1  148.49   12.80
  15   3   1  134.49   12.70
 -18   3  -1  135.19    8.70
   3  15  -1  131.49   19.60
 -18  15   1  144.79   12.50
   3 -18   1  143.49    8.90
 -18  15   1  147.09    7.80
  15 -18  -1  109.09   16.20
  -3  18  -1  139.79   19.00
  18 -15  -1  104.69   17.40
 -15  -3  -1  147.19    9.00
  -3 -15   1  138.79    8.80
 -15  18   1  134.99   13.20
  18  -3   1  123.89   15.30
   4 -18   1  390.36   18.20
  14 -18  -1  403.56   20.70
 -18   4  -1  392.76   18.00
  14 -18  -1  368.86   25.10
 -18  14   1  385.86   20.90
   4  14  -1  394.06   28.30
 -18  14   1  386.86   17.40
  14   4   1  374.86   21.10
 -14  18   1  365.06   21.10
 -14  -4  -1  409.66   18.50
  18 -14  -1  368.46   25.90
  18  -4   1  442.66   24.60
  -4 -14   1  390.96   18.40
  -4  18  -1  374.66   25.90
  13 -18  -1   80.89   13.00
 -18  13   1   95.89    6.20
  13   5   1   94.29   12.20
   5  13  -1   93.79    9.70
   5  13  -1   89.49   19.10
 -18   5  -1   83.19    6.80
  13 -18  -1   84.29    9.30
 -18  13   1   81.49   10.40
  13   5   1   68.39   11.90
   5 -18   1   92.29    7.20
  18  -5   1   81.99   14.30
 -13  -5  -1   87.79    7.80
 -13  18   1   76.99   11.10
  -5  18  -1   89.79   15.60
  18 -13  -1   68.99   14.60
  -5 -13   1   92.19    7.50
   6  12  -1  282.87   28.20
   6  12  -1  294.37   14.70
 -18   6  -1  302.87   14.40
  12   6   1  253.87   20.20
   6 -18   1  306.47   15.00
  12 -18  -1  275.47   20.60
 -18  12   1  293.97   17.10
 -18  12   1  296.87   13.80
  12 -18  -1  309.47   15.80
  12   6   1  289.67   17.20
  -6  18  -1  308.07   24.20
  -6 -12   1  296.97   14.50
  18 -12  -1  283.67   22.80
 -12  -6  -1  313.97   15.10
  18  -6   1  286.07   21.10
 -12  18   1  310.47   18.40
   7  11  -1  462.25   31.80
  11 -18  -1  423.66   24.70
   7 -18   1  433.46   20.40
  11 -18  -1  455.55   20.80
   7 -18   1  432.76   24.50
  11   7   1  471.95   22.90
 -18  11   1  465.15   19.90
 -18  11   1  428.76   22.50
 -18   7  -1  469.65   20.40
  11   7   1  465.45   26.00
  -7  18  -1  456.65   27.10
  18 -11  -1  412.76   27.80
 -11  -7  -1  465.05   20.50
  -7 -11   1  457.35   20.50
  18  -7   1  454.45   27.20
 -11  18   1  421.26   23.70
  10   8   1   62.09   12.00
   8 -18   1   59.39    6.40
   8  10  -1   49.40    7.50
  10 -18  -1   62.59    6.70
  10 -18  -1   58.19   10.20
 -18  10   1   61.69    9.70
   8  10  -1   84.39   20.90
   8 -18   1   69.49   12.00
 -18   8  -1   89.69    7.80
 -18  10   1   76.99    5.80
  10   8   1   55.29    9.80
 -18   8  -1   60.29    6.30
  18  -8   1   42.20   13.70
  -8  18  -1   65.69   14.30
  18 -10  -1   51.19   13.80
  -8 -10   1   68.99    7.20
 -10  18   1   55.89   10.40
 -10  -8  -1   80.39    7.00
 -18   9   1  112.19   10.90
   9 -18   1   92.19   15.90
   9 -18  -1  122.89    8.20
 -18   9  -1  130.59    9.30
   9   9   1  115.69   10.10
   9   9  -1  131.69   24.00
 -18   9   1  128.49    7.70
   9 -18  -1  115.79   13.60
   9   9   1  120.69   16.50
   9   9  -1  122.79   10.30
 -18   9  -1  125.89    7.80
   9 -18   1  120.79    8.60
  18  -9   1  102.09   16.90
  -9  18  -1  157.88   18.00
  18  -9  -1   97.59   17.70
  -9  -9  -1  129.79    8.50
  -9  -9   1  134.19    8.60
  -9  18   1  109.69   13.10
   8  10   1  132.59   16.80
 -18   8   1  129.09    7.40
 -18  10  -1  117.59    9.30
   8 -18  -1   93.69   12.40
  10   8  -1  107.29   10.40
 -18   8   1  102.09   10.50
   8  10   1   99.79    9.80
 -18  10  -1  110.79    7.70
  10   8  -1  138.19   24.50
  10 -18   1  103.69   16.30
   8 -18  -1  105.09    7.70
  10 -18   1  126.49    9.10
 -10  -8   1  119.19    8.60
  -8  18   1   92.09   13.00
  18  -8  -1  110.79   16.20
  -8 -10  -1  124.39    8.60
  18 -10   1   99.59   17.40
 -10  18  -1  142.89   17.20
   7  11   1   38.80   11.60
   7 -18  -1   35.90    8.20
 -18   7   1   51.59    5.60
 -18  11  -1   42.20    5.70
   7 -18  -1   46.10    5.70
 -18  11  -1   41.60    7.60
  11 -18   1   45.50    7.30
   7  11   1   35.80    6.70
  11   7  -1   39.10    7.60
 -18   7   1   51.29    8.00
  11   7  -1   39.60   20.10
  11 -18   1   41.60   12.30
  18  -7  -1   29.80   14.40
  -7 -11  -1   55.79    6.80
  -7  18   1   28.40   10.20
 -11  -7   1   36.30    5.90
 -11  18  -1   41.50   11.30
  18 -11   1   15.50   13.20
   6  12   1   13.30    5.40
 -18  12  -1   17.70    5.60
   6  12   1   12.00   10.60
 -18   6   1   18.60    6.80
   6 -18  -1   16.10    3.90
  12 -18   1   11.40   11.20
  12   6  -1   45.90   21.40
   6 -18  -1   12.90    7.10
 -18   6   1   15.10    4.00
 -18  12  -1   18.40    4.00
  12 -18   1   16.90    5.80
  12   6  -1    7.40    7.10
  18  -6  -1  -10.70   12.10
  18 -12   1    2.30   12.00
 -12  -6   1   17.60    4.50
  -6  18   1    4.50    9.10
 -12  18  -1    5.70   10.00
  -6 -12  -1   16.80    4.80
  13 -18   1   56.09    8.80
  13 -18   1   67.79   13.70
 -18   5   1   52.89    9.60
   5  13   1   42.60    7.50
   5  13   1   58.19   12.90
   5 -18  -1   40.40    7.80
  13   5  -1   93.19   23.00
 -18  13  -1   50.49    5.80
 -18  13  -1   65.29    8.80
 -18   5   1   58.79    6.10
  13   5  -1   55.89    9.60
   5 -18  -1   56.09    6.10
 -13  -5   1   57.19    6.30
  -5 -13  -1   50.09    6.10
  18  -5  -1   49.30   13.10
  18 -13   1   30.20   13.60
  -5  18   1   62.79   11.90
 -13  18  -1   50.49   10.40
   4 -18  -1   60.49    6.20
   4  14   1   41.70   12.30
  14   4  -1   48.90   10.10
  14 -18   1   56.89    9.50
   4  14   1   64.89    7.70
 -18   4   1   70.19    9.50
 -18  14  -1   72.19    9.50
  14   4  -1   93.89   23.30
  14 -18   1   52.29   14.20
 -18   4   1   60.79    6.50
   4 -18  -1   49.50    9.10
  18  -4  -1   39.80   12.70
  -4  18   1   59.39   10.80
  -4 -14  -1   62.69    6.40
 -14  -4   1   57.59    6.20
  18 -14   1   48.40   14.20
 -14  18  -1   53.59   10.10
 -18  15  -1  117.29   11.00
 -18   3   1  125.69   11.30
   3 -18  -1  125.49    8.20
  15 -18   1  146.29   20.60
  15   3  -1  193.98   30.30
 -18   3   1  120.29    8.40
  15 -18   1  130.59   12.20
   3 -18  -1  122.79    9.90
   3  15   1  101.99   14.50
  15   3  -1  130.89   15.60
   3  15   1  127.89    9.40
  -3 -15  -1  135.09    8.70
  18 -15   1  108.59   19.10
 -15  -3   1  113.09    8.10
  -3  18   1  108.19   13.50
 -15  18  -1  109.19   12.40
  18 -15   1  111.39   18.40
  18  -3  -1   97.19   17.90
  16   2  -1   90.69   15.50
   2  16   1   71.19    8.30
  16 -18   1   72.59   11.50
   2  16   1   78.99   13.50
 -18   2   1   77.49   10.10
   2 -18  -1   79.59    9.00
 -18   2   1   71.99    6.90
  16 -18   1   71.09   15.20
   2 -18  -1   78.89    6.90
 -18  16  -1   85.79   10.40
  -2  18   1   84.59   12.60
 -16  -2   1   72.59    7.20
  -2 -16  -1   85.89    7.40
  18 -16   1   57.29   14.70
 -16  18  -1   87.59   11.90
  18 -16   1   76.09   13.80
  18  -2  -1   72.39   13.90
  17 -18   1    5.50   14.20
 -18   1   1    6.50    6.70
   1  17   1    3.60    4.80
 -18  17  -1   15.20    7.20
   1  17   1   -3.70    9.90
   1 -18  -1    3.00    4.50
  17   1  -1   10.40    9.20
 -18   1   1    6.50    4.00
  17 -18   1   10.00    8.00
  18 -17   1   10.20   14.60
  18  -1  -1   -7.20   10.70
  -1 -17  -1    1.90    3.90
 -17  -1   1    2.20    3.70
 -17  18  -1    9.40    8.00
  18 -17   1   -0.40   10.10
  -1  18   1    7.80   10.00
 -18   0   1   51.69    6.80
  18 -18   1   81.09   17.10
   0  18   1   81.19   13.20
  18   0  -1   68.39   13.50
 -18  18  -1   65.09   11.30
   0 -18  -1   73.59    7.30
  18 -18   1   62.49   12.00
 -18   0   1   62.89    9.70
 -19  19   1    7.10    7.90
 -19   0  -1    8.00    4.40
   0  19  -1    7.70   13.30
  19 -19  -1   17.40   12.60
  19   0   1    4.90   15.60
  18   1   1   34.00    9.80
   1 -19   1   30.90    5.70
 -19   1  -1   40.60    6.80
   1  18  -1   28.70   14.90
  18 -19  -1   41.30   13.20
 -19  18   1   44.90    9.00
 -18  19   1   36.70    9.10
  -1 -18   1   30.70    5.40
  19  -1   1   29.00   10.10
  19 -18  -1   32.90   13.10
  -1  19  -1   44.60   22.30
 -19  17   1  141.89    7.80
   2  17  -1  119.09   20.90
 -19  17   1  111.79   12.50
 -19   2  -1  121.29    8.40
  17 -19  -1   87.59   16.70
   2 -19   1  135.89    9.00
  17 -19  -1  120.79   19.30
  17   2   1  139.29   13.50
  19 -17  -1  131.69   18.00
 -17  -2  -1  126.59    9.10
 -17  19   1  126.79   12.90
  -2  19  -1  100.09   17.60
  -2 -17   1  128.79    9.10
  19  -2   1  141.39   17.10
   3 -19   1  213.78   11.50
 -19   3  -1  195.08   10.80
 -19  16   1  186.88   13.70
   3  16  -1  169.68   23.20
  16 -19  -1  190.68   18.90
  16 -19  -1  210.38   15.70
  16   3   1  188.98   15.20
 -19  16   1  206.38   10.20
  -3 -16   1  197.38   11.40
  19 -16  -1  197.28   20.00
  19  -3   1  185.58   16.80
 -16  19   1  191.58   14.40
 -16  -3  -1  204.78   11.10
  -3  19  -1  196.78   21.60
  15 -19  -1   49.50    8.50
   4 -19   1   56.99    6.70
  15 -19  -1   43.00   11.90
   4  15  -1   53.19   16.50
 -19  15   1   53.89   10.00
  15   4   1   60.59   10.30
 -19  15   1   69.89    5.30
 -19   4  -1   59.19    6.10
  19  -4   1   32.70   10.90
 -15  19   1   50.69    9.30
  -4  19  -1   57.89   14.10
  -4 -15   1   47.60    6.00
 -15  -4  -1   61.49    7.20
  19 -15  -1   43.30   13.10
 -19  14   1  137.39   12.30
 -19   5  -1  146.59    8.80
   5 -19   1  152.58    9.40
   5  14  -1  126.99   20.60
  14 -19  -1  146.89   11.50
  14 -19  -1  116.29   17.60
  14   5   1  149.88   12.60
 -19  14   1  135.79    8.10
  -5 -14   1  144.39    8.90
  -5  19  -1  139.59   19.00
  19  -5   1  140.69   16.30
  19 -14  -1  152.98   18.80
 -14  19   1  137.49   13.10
 -14  -5  -1  151.28    9.00
   6  13  -1  453.85   32.40
  13 -19  -1  537.55   24.30
 -19   6  -1  519.05   22.80
  13 -19  -1  487.65   28.00
 -19  13   1  512.35   22.30
  13   6   1  472.75   27.40
 -19  13   1  514.45   25.50
   6 -19   1  540.45   23.40
  13   6   1  516.35   25.30
  19 -13  -1  479.75   29.50
  19  -6   1  513.35   28.60
  -6  19  -1  527.55   29.90
 -13  19   1  518.85   26.40
  -6 -13   1  513.25   23.00
 -13  -6  -1  519.75   23.00
   7 -19   1   22.30    4.70
 -19   7  -1   31.00    5.50
 -19  12   1   27.60    6.90
   7  12  -1   17.80   16.80
  12 -19  -1   25.20    5.40
 -19  12   1   32.10    4.80
  12   7   1   38.00    7.80
  12   7   1   26.00   10.00
  12 -19  -1    9.10    9.50
  19  -7   1   28.40   11.20
 -12  -7  -1   31.50    5.70
 -12  19   1   29.10    8.90
  -7  19  -1   33.10   12.30
  19 -12  -1   10.10   12.40
  -7 -12   1   30.60    5.70
   8  11  -1  227.78   13.10
  11 -19  -1  240.28   12.80
  11   8   1  226.58   14.40
   8 -19   1  215.88   20.50
 -19  11   1  239.28   15.30
 -19   8  -1  252.17   12.20
  11   8   1  230.88   19.30
 -19  11   1  248.98   11.90
   8 -19   1  249.97   13.10
   8  11  -1  258.27   27.50
  11 -19  -1  216.48   16.50
 -11  -8  -1  274.97   13.10
  19  -8   1  231.28   20.40
 -11  19   1  241.18   16.40
  19 -11  -1  225.78   20.80
  -8  19  -1  261.87   21.00
  -8 -11   1  249.08   12.50
  10 -19  -1  215.48   17.30
   9  10  -1  246.88   14.10
  10   9   1  243.98   14.40
   9  10  -1  230.48   27.50
   9 -19   1  198.78   19.20
 -19   9  -1  251.57   12.50
  10   9   1  247.98   20.00
 -19  10   1  248.68   15.50
  10 -19  -1  270.27   13.10
 -19  10   1  268.07   12.50
   9 -19   1  264.47   13.60
  19  -9   1  276.07   20.80
  -9  19  -1  261.67   19.90
 -10  19   1  253.67   16.90
  -9 -10   1  268.27   13.10
  19 -10  -1  229.68   21.40
 -10  -9  -1  265.87   13.10
   9  10   1   35.10    6.70
   9  10   1   31.90   11.50
 -19  10  -1   45.40    7.60
   9 -19  -1   38.40    5.70
  10   9  -1   37.80   18.70
  10 -19   1   30.70    5.50
 -19  10  -1   31.50    5.00
  10   9  -1   33.40    6.70
  10 -19   1    6.10   10.60
   9 -19  -1   16.50    9.20
 -19   9   1   37.40    5.10
 -19   9   1   28.40    7.30
 -10  -9   1   42.90    6.70
  -9 -10  -1   34.50    6.40
  19 -10   1   14.50   12.80
  19  -9  -1   24.20   12.90
  -9  19   1   22.30    9.80
 -10  19  -1   36.70   11.30
 -19  11  -1  113.39    7.20
   8 -19  -1  111.29    7.70
 -19   8   1  103.69   10.90
  11   8  -1  118.69   10.70
  11 -19   1  116.79    8.90
 -19  11  -1  102.49    9.20
   8 -19  -1   84.19   11.90
  11 -19   1  109.19   16.90
  11   8  -1  111.59   23.80
 -19   8   1  122.99    7.50
   8  11   1   96.99   16.40
   8  11   1  107.69    9.50
  -8 -11  -1  107.49    7.80
  19 -11   1   97.29   17.30
  -8  19   1   80.49   12.60
  19  -8  -1   86.99   15.10
 -11  19  -1  107.29   14.20
 -11  -8   1  114.29    7.90
  12 -19   1  111.49    9.20
 -19  12  -1  114.39    9.50
   7 -19  -1  105.59    7.60
  12 -19   1  121.39   16.60
 -19   7   1   99.29    7.30
  12   7  -1   97.19   21.70
 -19   7   1   91.69   10.70
   7  12   1  112.29   15.70
 -19  12  -1  105.69    7.40
   7  12   1  109.39    9.20
  12   7  -1  108.89   10.80
   7 -19  -1   85.69   11.80
  19 -12   1   97.39   15.40
  -7  19   1   81.79   13.70
 -12  -7   1   92.29    7.50
 -12  19  -1  118.19   15.10
  19  -7  -1   88.09   14.80
  -7 -12  -1   98.59    7.50
   6 -19  -1   58.69    8.90
 -19  13  -1   64.09    8.70
   6  13   1   67.39   13.40
  13 -19   1   48.50    8.70
  13   6  -1   61.09    9.80
 -19   6   1   64.09    6.10
   6  13   1   58.29    8.30
  13 -19   1   58.39   13.50
   6 -19  -1   61.89    6.10
 -19  13  -1   61.69    6.00
 -19   6   1   50.99    9.50
  13   6  -1   50.09   21.90
  -6 -13  -1   68.89    6.50
 -13  -6   1   64.09    6.50
 -13  19  -1   75.09   12.30
  19 -13   1   64.59   13.70
  19  -6  -1   55.69   13.30
  -6  19   1   45.90   10.10
   5 -19  -1   25.60    7.90
  14 -19   1   40.40    7.10
   5  14   1   41.60    6.70
  14 -19   1   48.80   14.30
   5  14   1   36.50   12.70
 -19  14  -1   48.70    5.10
 -19   5   1   48.10    6.00
 -19  14  -1   54.49    8.80
  14   5  -1   65.09   21.20
  14   5  -1   60.09   11.50
 -19   5   1   41.40    8.10
   5 -19  -1   49.60    5.80
 -14  -5   1   40.20    5.80
  -5  19   1   41.60   10.30
  19 -14   1   41.20   13.20
  -5 -14  -1   54.19    6.80
 -14  19  -1   44.70   10.80
  19  -5  -1   43.20   13.40
  15 -19   1   46.10   14.40
 -19   4   1   19.70    7.80
 -19  15  -1   41.00    7.10
   4 -19  -1   21.70    4.50
 -19   4   1   19.50    4.50
  15   4  -1   21.80    9.90
  15   4  -1   86.79   21.30
   4  15   1   30.30    6.40
   4  15   1   14.00   10.80
  15 -19   1   26.10    7.10
   4 -19  -1   42.40    7.90
 -15  -4   1   22.20    4.90
 -15  19  -1   20.80    8.80
  -4 -15  -1   26.20    5.10
  19 -15   1   34.60   13.30
  -4  19   1   17.20    9.40
  19  -4  -1   28.90   11.50
   3  16   1    9.30    5.80
   3 -19  -1    3.70    4.10
  16   3  -1    4.30    8.80
  16 -19   1   10.80    7.90
  16 -19   1   12.10   14.60
 -19  16  -1   11.50    6.50
 -19   3   1   12.90    6.90
  16   3  -1   20.40   21.80
   3  16   1   14.90   10.40
 -19   3   1    4.60    3.80
   3 -19  -1    7.30    6.60
  -3 -16  -1    6.20    4.40
  19 -16   1    8.10   11.80
  19 -16   1   12.60   14.90
 -16  -3   1    3.60    3.90
  -3  19   1   15.20    9.10
 -16  19  -1   10.00    8.30
  19  -3  -1   12.80   10.90
   2  17   1   95.59   15.40
 -19   2   1   69.39   11.10
 -19   2   1   87.59    7.60
 -19  17  -1   96.59   11.30
   2 -19  -1  113.19    9.80
   2  17   1   99.99    9.30
  17   2  -1  189.28   30.30
  17 -19   1  103.59   20.20
  17   2  -1   84.79   15.90
   2 -19  -1   99.29    7.80
  17 -19   1  101.89   12.70
 -17  19  -1   98.79   12.80
  -2 -17  -1   90.39    7.60
  19 -17   1   65.39   14.10
  19  -2  -1   93.99   16.90
  -2  19   1   81.79   13.20
  19 -17   1   70.39   16.60
 -17  -2   1   75.69    7.50
   1 -19  -1   67.09    8.90
 -19   1   1   29.00    5.40
   1  18   1   44.00    8.30
  18 -19   1   39.70   10.70
  18   1  -1   43.70   12.60
 -19  18  -1   44.10    9.00
   1  18   1   36.60   11.60
  18 -19   1   55.39   16.80
   1 -19  -1   41.20    6.50
  -1  19   1   43.90   11.90
  19  -1  -1   25.60   12.50
  -1 -18  -1   35.60    6.40
  19 -18   1   29.40   12.30
 -18  19  -1   45.10    9.40
  19 -18   1   63.89   15.60
 -18  -1   1   37.50    5.70
   0  19   1   -0.40    9.50
  19 -19   1   13.20   15.50
 -19   0   1    0.70    4.20
  19   0  -1   -3.10   11.00
 -19  19  -1   11.50    8.20
   0 -19  -1   -4.10    4.60
  19 -19   1   -0.40   11.10
 -20  20   1   26.40   13.60
   0  20  -1   23.00   14.50
   0 -20   1   28.20    5.60
  20 -20  -1   29.10   14.10
 -20   0  -1   26.40    5.20
  20   0   1   27.60   11.40
  19 -20  -1   33.10   23.70
  19   1   1   40.40   10.10
   1  19  -1   41.60   15.90
 -20   1  -1   41.10    6.70
   1 -20   1   45.10    6.30
 -20  19   1   33.20    9.60
  20  -1   1   28.50   10.20
  -1 -19   1   46.20    7.00
  -1  20  -1   38.50   14.20
  20 -19  -1   31.90   15.40
 -19  -1  -1   46.50    6.30
 -19  20   1   49.30    9.80
 -20   2  -1   68.69    7.50
   2 -20   1   56.49    6.80
  18   2   1   79.49   14.00
  18 -20  -1   63.49   15.70
 -20  18   1   64.09   10.30
 -18  20   1   65.39   11.00
  -2  20  -1   53.69   14.40
  -2 -18   1   68.99    7.30
 -18  -2  -1   66.49    6.90
  20  -2   1   56.19   11.70
   3 -20   1   28.80    5.70
 -20   3  -1   36.50    5.80
  17   3   1   41.30   10.20
   3  17  -1   31.90   15.70
  17 -20  -1   39.20   13.90
 -20  17   1   38.70    8.50
 -20  17   1   41.10    5.20
  17 -20  -1   31.90   11.10
  -3  20  -1   33.90   13.60
  20 -17  -1   40.80   15.70
 -17  20   1   27.40    8.60
 -17  -3  -1   40.20    6.30
  16   4   1   84.89   12.60
 -20  16   1   81.79   11.50
 -20   4  -1   80.39    7.60
 -20  16   1   98.09    6.40
  16 -20  -1   72.89   14.20
  16 -20  -1  102.29   12.20
   4  16  -1   81.09   18.10
   4 -20   1   81.79    7.50
 -16  20   1   77.09   11.90
  -4 -16   1   83.09    7.10
  20 -16  -1   66.99   16.10
  20  -4   1   70.89   13.60
   5 -20   1  292.47   14.50
 -20  15   1  283.57   17.40
  15   5   1  290.17   17.50
 -20   5  -1  292.57   14.10
 -20  15   1  259.67   13.20
  15 -20  -1  280.87   17.60
   5  15  -1  231.18   25.70
  15 -20  -1  263.87   21.80
 -15  20   1  270.17   17.40
  20 -15  -1  293.07   24.80
 -15  -5  -1  267.97   13.90
  20  -5   1  280.07   20.70
  -5 -15   1  270.27   14.10
  -5  20  -1  268.57   22.60
 -20  14   1   76.59    5.90
  14   6   1   76.79   10.70
   6 -20   1   66.69    7.30
  14 -20  -1   62.59   10.00
  14 -20  -1   51.49   13.00
 -20  14   1   60.69   10.20
   6  14  -1   45.20   16.90
 -20   6  -1   70.79    6.80
  20 -14  -1   62.29   15.00
 -14  20   1   53.39    9.90
 -14  -6  -1   67.29    6.80
  -6 -14   1   61.49    6.40
  20  -6   1   57.79   12.20
  -6  20  -1   76.49   13.90
  13   7   1  271.97   28.40
   7  13  -1  225.38   26.30
  13 -20  -1  228.18   19.40
  13   7   1  246.28   15.40
   7 -20   1  248.18   13.40
 -20   7  -1  252.97   12.80
 -20  13   1  268.07   16.10
  13 -20  -1  273.47   14.80
 -20  13   1  248.68   12.50
 -13  -7  -1  266.97   13.30
  20  -7   1  264.87   19.90
  -7  20  -1  231.78   20.00
  20 -13  -1  242.88   21.50
 -13  20   1  251.07   16.60
  -7 -13   1  264.17   13.30
   8 -20   1  375.76   18.40
  12 -20  -1  399.16   19.10
   8  12  -1  372.66   18.90
 -20  12   1  399.26   17.80
 -20  12   1  381.36   20.80
   8  12  -1  373.06   29.90
  12   8   1  413.96   21.00
  12 -20  -1  336.07   23.60
  12   8   1  381.46   24.40
 -20   8  -1  394.86   18.00
  -8  20  -1  416.26   25.50
  20 -12  -1  396.96   25.80
  -8 -12   1  387.66   18.20
 -12  -8  -1  403.56   18.30
  20  -8   1  421.66   25.10
 -12  20   1  388.06   21.70
   9 -20   1   22.50    5.10
   9 -20   1   13.90   10.00
  11   9   1   11.00   10.70
 -20  11   1   18.90    7.10
  11   9   1   25.60    6.80
 -20  11   1   27.00    4.70
   9  11  -1   31.90   16.90
 -20   9  -1   19.30    4.20
   9  11  -1   25.20    6.00
  11 -20  -1   17.10    4.50
  11 -20  -1   21.70    9.80
  -9  20  -1   29.40   11.60
  20 -11  -1   21.00   12.10
  -9 -11   1   20.50    4.60
 -11  20   1   26.40    8.80
  20  -9   1   20.80   11.20
 -11  -9  -1   23.40    4.70
  10 -20   1   78.29   15.70
  10  10  -1  100.79   22.00
  10 -20  -1   96.39   13.30
  10  10   1  108.09   16.50
  10 -20  -1  123.69    8.30
  10 -20   1  129.09    9.10
 -20  10  -1  115.79    7.60
 -20  10   1  120.69   11.50
 -20  10   1  111.09    7.70
  10  10  -1  119.39   10.40
  10  10   1  135.39   10.70
 -10  20  -1  133.59   16.10
 -10 -10  -1  114.29    8.50
  20 -10   1   94.29   16.20
 -10  20   1  107.69   12.50
  20 -10  -1  104.39   17.10
 -10 -10   1  125.09    8.50
  11   9  -1  183.08   26.50
 -20  11  -1  177.48    9.80
   9 -20  -1  147.79   15.60
  11 -20   1  163.08   17.90
   9  11   1  174.58   17.90
  11   9  -1  181.48   12.80
 -20   9   1  171.98   13.20
 -20   9   1  176.38    9.70
   9 -20  -1  167.28   10.00
   9  11   1  175.78   12.10
  11 -20   1  179.78   11.10
 -11  20  -1  183.98   17.10
  20 -11   1  157.08   19.90
  -9  20   1  158.08   15.00
 -11  -9   1  182.98   10.20
  20  -9  -1  157.98   18.80
  -9 -11  -1  173.48   10.10
  12   8  -1   37.50   20.50
   8 -20  -1   41.00    5.80
 -20  12  -1   51.89    8.30
   8  12   1   40.40   12.10
 -20  12  -1   49.60    5.80
 -20   8   1   50.09    8.70
   8  12   1   45.40    7.30
 -20   8   1   42.20    5.90
   8 -20  -1   13.80    8.80
  12 -20   1   48.30    7.80
  12   8  -1   60.39    9.00
  12 -20   1   52.09   12.30
  -8 -12  -1   42.50    5.80
  20  -8  -1   31.80   12.30
  20 -12   1   39.40   13.00
 -12  -8   1   40.60    5.80
  -8  20   1   32.00    9.40
 -12  20  -1   38.80   11.10
   7  13   1  -19.20   10.30
   7  13   1    1.60    5.50
  13 -20   1   -0.10   11.90
  13 -20   1   13.60    5.50
  13   7  -1   10.70    7.10
  13   7  -1   -1.30   18.90
 -20  13  -1   21.20    5.90
 -20   7   1    8.60    6.80
   7 -20  -1    6.10    3.70
 -20  13  -1   13.90    4.20
 -20   7   1    7.10    3.60
   7 -20  -1   11.30    7.50
 -13  -7   1    6.30    4.10
  20  -7  -1    6.00   11.00
 -13  20  -1    6.70    8.60
  -7  20   1   -0.20    8.80
  20 -13   1    4.70   11.40
  -7 -13  -1    9.40    4.40
 -20   6   1    2.00    4.00
 -20   6   1    5.70    6.60
  14   6  -1   -5.40    7.40
   6  14   1  -17.20   11.30
  14 -20   1   11.20    5.70
 -20  14  -1   10.20    3.80
 -20  14  -1   11.50    5.70
  14 -20   1    8.40   13.20
   6 -20  -1    9.60    3.90
   6 -20  -1   12.30    7.30
   6  14   1   14.80    5.70
  14   6  -1   -9.50   18.70
  -6 -14  -1    3.70    4.80
 -14  -6   1    3.00    4.10
 -14  20  -1   12.70    9.50
  20  -6  -1   -4.60   12.20
  20 -14   1   -5.80   11.40
  -6  20   1   -6.70    8.70
  15 -20   1   12.30   13.30
   5 -20  -1   -0.70    4.00
   5  15   1    3.80    5.30
 -20  15  -1    6.50    6.00
 -20   5   1   -3.10    3.70
   5 -20  -1   -0.30    7.20
  15   5  -1   -2.10   15.00
  15 -20   1   -6.40    6.40
  15   5  -1  -32.80   20.00
   5  15   1  -13.20   10.30
 -20  15  -1    4.60    3.70
 -15  -5   1    0.80    4.40
  -5 -15  -1    3.50    4.30
  -5  20   1    2.20    8.80
 -15  20  -1    5.70    8.40
  20  -5  -1   -3.70   10.10
  20 -15   1    8.40   12.60
  16   4  -1   62.49   11.70
  16   4  -1   41.00   21.30
 -20  16  -1   58.79   10.10
   4 -20  -1   59.19    6.60
   4 -20  -1   36.80    8.70
  16 -20   1   61.29   10.70
   4  16   1   55.99   12.20
  16 -20   1   54.29   16.80
   4  16   1   44.20    7.10
 -20   4   1   60.89    9.20
 -20   4   1   51.89    6.40
  -4  20   1   53.29   11.50
  20  -4  -1   44.40   12.70
 -16  20  -1   64.59   11.00
  -4 -16  -1   54.59    6.90
  20 -16   1   59.19   15.10
 -16  -4   1   47.90    6.10
  17   3  -1  105.99   24.10
   3 -20  -1   48.20    6.80
  17 -20   1   34.20    9.10
   3  17   1   30.30   11.50
 -20   3   1   40.50    6.40
 -20   3   1   29.20    8.60
   3  17   1   40.90    7.50
   3 -20  -1   61.99    9.80
  17 -20   1   30.20   15.70
  17   3  -1   46.10   11.60
  -3 -17  -1   38.10    5.90
 -17  -3   1   37.80    5.70
  -3  20   1   30.60   12.10
  20  -3  -1   29.30   11.90
  20 -17   1   54.19   15.90
 -17  20  -1   39.00   10.20
 -20   2   1    3.50    4.30
   2  18   1    3.10    5.50
  18 -20   1    1.10   15.20
  18   2  -1   53.99   25.80
  18   2  -1    9.50    9.20
   2  18   1    8.90   11.30
  18 -20   1    3.10    8.30
   2 -20  -1    0.00    4.20
   2 -20  -1    5.70    7.10
 -20  18  -1    1.50    7.30
 -18  -2   1    1.40    4.70
  20 -18   1    4.80   13.20
  -2 -18  -1    2.60    4.50
 -18  20  -1    9.30    9.00
  20  -2  -1   -3.80   12.60
  20 -18   1   -2.60   16.40
 -20   1   1    8.90    4.90
 -20  19  -1   14.80    8.10
  19 -20   1   10.20   10.40
   1  19   1   11.40   11.80
   1 -20  -1   18.40    4.90
  19 -20   1   15.00   16.90
  19   1  -1   18.60   12.60
  20  -1  -1    6.10   10.40
 -19  20  -1   23.50    8.90
  -1  20   1   21.70   10.70
  20 -19   1    8.50   15.90
 -19  -1   1    9.70    4.60
  20 -19   1   11.10   12.90
  -1 -19  -1   11.30    5.10
  20 -20   1   -9.20   12.20
 -20   0   1    2.50    4.10
   0  20   1    0.40    9.70
  20 -20   1  -15.20   15.30
 -20  20  -1    3.90    8.60
   0 -20  -1   -0.10    4.40
  20   0  -1  -10.60   18.90
  21   0   1   10.40   10.30
 -21   0  -1    5.00    4.90
  21 -21  -1   10.80   15.00
 -21  21   1    9.90    8.30
   0  21  -1    0.60   12.50
   0 -21   1    2.10    4.80
   1  20  -1   -5.90   13.30
  20   1   1   11.50    9.20
 -21  20   1   14.10   10.40
   1 -21   1    7.00    4.50
 -21   1  -1    7.90    4.60
  20 -21  -1   33.50   14.50
  21 -20  -1    8.40   14.10
  -1  21  -1    3.70   13.30
  21  -1   1    8.70    9.90
 -20  -1  -1   11.70    5.20
 -20  21   1    3.70    8.00
  -1 -20   1    8.00    4.80
  19 -21  -1   16.90   15.20
 -21  19   1   22.60    9.30
  19   2   1   13.30   10.20
   2  19  -1   18.10   15.70
 -21   2  -1   24.00    5.30
   2 -21   1   15.00    5.10
 -19  21   1   19.60    8.50
 -19  -2  -1   21.80    5.40
  -2  21  -1   20.00   13.00
  21 -19  -1   14.60   15.20
  21  -2   1    8.50    9.80
  -2 -19   1   15.20    4.80
   3 -21   1   24.90    5.10
   3  18  -1   31.30   15.90
 -21   3  -1   21.30    4.90
 -21  18   1   33.60    9.00
  18 -21  -1   31.20   15.10
  21  -3   1   15.20   11.20
  21 -18  -1   22.40   13.80
 -18  21   1   30.00    9.50
  -3 -18   1   24.60    5.20
 -18  -3  -1   29.30    5.50
  -3  21  -1   25.40   13.60
   4  17  -1  139.39   28.40
  17 -21  -1  122.89   20.10
 -21  17   1  141.59    8.10
  17   4   1  148.79   14.90
 -21  17   1  131.79   13.10
 -21   4  -1  132.49    9.10
   4 -21   1  124.49    9.60
  -4 -17   1  127.29    9.30
 -17  -4  -1  125.19    8.80
  21  -4   1  132.29   17.90
  21 -17  -1  146.59   19.60
  -4  21  -1  110.59   17.20
 -17  21   1   97.09   12.70
  16   5   1   77.39   12.90
 -21  16   1   42.80    5.90
   5  16  -1   54.09   18.30
 -21  16   1   66.29   11.00
  16 -21  -1   52.89    9.70
 -21   5  -1   58.09    7.10
   5 -21   1   50.89    6.40
  16 -21  -1   48.60   13.80
  -5  21  -1   46.20   13.30
 -16  -5  -1   54.79    7.30
  -5 -16   1   48.50    6.30
  21  -5   1   45.70   12.80
  21 -16  -1   43.90   14.00
   6 -21   1   87.89    8.00
 -21  15   1   87.39   11.40
 -21   6  -1   84.99    7.00
  15 -21  -1   88.99   17.50
 -21  15   1   85.69    6.60
  15   6   1   87.09   12.70
   6  15  -1   78.79   18.40
  15 -21  -1   75.89   11.40
  -6 -15   1   78.69    7.50
  21  -6   1   77.19   14.40
  21 -15  -1   56.69   14.20
 -15  -6  -1   72.29    7.10
  -6  21  -1   61.29   13.60
 -21   7  -1  343.27   16.00
 -21  14   1  329.27   19.10
  14   7   1  358.26   19.50
  14 -21  -1  340.57   18.20
  14 -21  -1  320.07   23.80
   7 -21   1  344.37   16.50
   7  14  -1  316.07   28.40
 -14  21   1  281.47   21.00
  -7  21  -1  307.57   22.20
 -14  -7  -1  334.37   16.40
  21 -14  -1  304.87   27.20
  21  -7   1  307.27   25.80
  13 -21  -1   25.60    6.20
  13 -21  -1   11.90   10.70
  13   8   1   24.30    8.40
 -21  13   1   16.80    7.80
 -21  13   1   23.80    4.10
   8  13  -1   24.40   18.30
   8 -21   1   26.30    5.20
 -21   8  -1   42.60    6.10
 -13  21   1   24.00    8.70
 -21  12   1  159.38    9.20
 -21   9  -1  170.18    9.60
  12   9   1  116.89   17.90
   9 -21   1  175.28   10.70
  12 -21  -1  133.09   17.30
  12   9   1  174.48   12.00
   9  12  -1  150.38   24.70
 -21  12   1  173.38   13.30
  12 -21  -1  163.98   11.10
  -9  21  -1  152.18   16.30
 -12  21   1  156.78   14.90
  -9 -12   1  142.99   12.00
 -12  -9  -1  169.78   10.40
  10 -21   1  210.08   12.20
  10  11  -1  188.98   27.00
 -21  11   1  195.88   11.20
  11 -21  -1  205.38   12.20
  10  11  -1  229.38   13.60
 -21  11   1  239.88   15.20
  11  10   1  163.18   19.20
 -21  10  -1  220.38   11.20
  11  10   1  229.98   14.50
  21 -10   1  214.68   23.10
 -11  21   1  196.98   16.50
  21 -11  -1  196.58   22.60
 -10  21  -1  214.48   17.80
 -11 -10  -1  211.58   11.60
 -10 -11   1  210.58   11.50
  11 -21   1   62.09   16.50
  11  10  -1   59.29   20.20
  10 -21  -1   34.10   10.10
  10  11   1   48.40    9.00
 -21  10   1   45.20    5.50
  11 -21   1   49.10    7.50
  11  10  -1   60.29    9.50
  10 -21  -1   51.99    6.80
 -21  10   1   61.49   10.30
  10  11   1   34.60   12.30
 -21  11  -1   44.40    6.00
  21 -11   1   34.40   12.40
 -10  21   1   29.40    9.40
 -11 -10   1   36.50    5.80
  21 -10  -1   30.80   14.50
 -10 -11  -1   45.20    6.10
 -11  21  -1   38.40   11.00
   9  12   1   19.10   12.50
   9 -21  -1   59.59    6.80
  12 -21   1   53.09   12.70
  12   9  -1   62.59   10.40
 -21   9   1   41.40    6.30
   9 -21  -1   27.70    9.80
  12 -21   1   58.19    8.10
 -21  12  -1   60.19    6.30
  12   9  -1    4.10   19.90
 -21   9   1   60.89   10.50
   9  12   1   59.39    9.30
 -12  -9   1   48.90    6.30
  21  -9  -1   51.59   16.10
 -12  21  -1   36.70   10.70
  21 -12   1   40.70   12.40
  -9 -12  -1   55.69    6.80
  13 -21   1   -9.70   11.60
 -21  13  -1   13.20    3.90
   8  13   1   22.60    6.20
 -21   8   1   18.60    7.30
 -21   8   1   11.70    4.50
   8 -21  -1   14.60    4.40
  13 -21   1   10.90    5.80
  13   8  -1   17.40   18.30
  13   8  -1   30.80    7.60
   8  13   1  -24.00   11.20
  21 -13   1    4.00   13.60
  -8 -13  -1    8.50    4.60
 -13  -8   1   10.00    4.50
  21  -8  -1    2.10   10.90
 -13  21  -1   10.40    9.30
  14   7  -1    3.20    7.80
 -21  14  -1    8.20    4.10
   7  14   1   16.80    5.80
  14 -21   1  -14.40   12.30
 -21   7   1   -4.60    6.80
 -21  14  -1   22.10    6.40
   7  14   1  -13.60   11.70
   7 -21  -1    8.20    4.00
   7 -21  -1    4.60    7.90
  14   7  -1  -29.00   19.90
 -21   7   1    0.10    3.70
  14 -21   1    0.10    6.20
 -14  21  -1    4.50    9.10
  -7 -14  -1    6.00    4.60
 -14  -7   1    1.90    6.50
  21 -14   1   -8.70   11.30
  -7  21   1   -3.20   10.20
  21  -7  -1   14.10   20.40
  15 -21   1   18.80   14.20
 -21   6   1   32.40    8.00
  15   6  -1   43.20    9.40
   6  15   1   35.20    7.00
   6  15   1   20.50   11.70
 -21  15  -1   32.50    7.40
  15 -21   1   33.20    7.00
 -21   6   1   25.50    5.00
 -21  15  -1   36.70    6.00
   6 -21  -1   28.20    5.00
  15   6  -1   47.00   22.10
   6 -21  -1   23.80    8.40
 -15  21  -1   23.60   10.60
  -6  21   1   23.80    9.70
  21 -15   1   29.50   13.40
  -6 -15  -1   31.80    5.80
   5  16   1   44.10   12.50
 -21   5   1   73.19   15.40
  16   5  -1   63.99   23.20
   5 -21  -1   51.09    9.20
 -21  16  -1   67.79   10.60
  16   5  -1   74.29   13.10
   5  16   1   49.00    9.60
  16 -21   1   67.39   11.20
 -21  16  -1   67.69    6.50
  16 -21   1   51.19   17.10
 -21   5   1   48.70    6.90
   5 -21  -1   49.50    6.80
 -16  21  -1   47.10   10.40
  -5  21   1   38.60   10.30
  -5 -16  -1   51.99    6.90
  21 -16   1   64.59   17.90
 -16  -5   1   34.00    6.10
   4 -21  -1   10.30    4.80
  17 -21   1   -1.80   14.90
 -21   4   1   -0.20    4.40
   4 -21  -1   -4.10    8.10
 -21  17  -1   18.40    7.60
  17   4  -1  -13.00   23.20
  17   4  -1   12.90    9.60
  17 -21   1   -1.20    8.10
 -21  17  -1   15.60    4.40
   4  17   1   -9.40    6.20
   4  17   1    6.20   10.60
  21  -4  -1    6.40   10.90
  -4  21   1    0.40    9.40
 -17  -4   1    5.20    4.50
 -17  21  -1   13.00    8.80
  21 -17   1    0.90   25.50
  -4 -17  -1   10.30    5.00
 -21  18  -1   31.50    8.20
  18 -21   1   40.40   16.60
 -21   3   1   18.70    4.90
  18   3  -1   25.60   11.40
   3  18   1   28.70    7.20
  18 -21   1   24.20    9.50
   3 -21  -1   17.20    5.00
   3  18   1   23.20   12.00
 -18  -3   1   13.80    4.60
  21  -3  -1   13.20   12.00
 -18  21  -1   29.30   10.10
  -3  21   1   16.20   11.00
  19 -21   1   16.30   10.10
 -21   2   1    3.90    6.20
  19 -21   1   13.00   16.70
   2  19   1    7.00    7.20
   2  19   1    4.80   11.50
  19   2  -1   21.00   12.10
 -21  19  -1   31.00    8.70
   2 -21  -1   18.00    5.70
  -2 -19  -1   14.20    4.80
  21 -19   1    3.50   19.20
 -19  -2   1    8.90    4.50
 -19  21  -1   24.60    9.30
  21 -19   1    3.00   14.40
  21  -2  -1   28.80   13.10
  -2  21   1   10.70   10.70
  20   1  -1    2.00   12.50
  20 -21   1   -2.70   17.90
 -21  20  -1   10.10    8.50
 -21   1   1    4.50    4.40
  20 -21   1    4.80   11.70
   1  20   1   12.60   10.70
  21 -20   1    7.30   14.20
  -1 -20  -1   11.70    5.90
  -1  21   1  -11.70   10.10
  21  -1  -1   18.00   11.40
 -20  -1   1   10.10    4.60
 -20  21  -1   11.90    8.70
  21 -20   1   -2.90   15.70
  21 -21   1   22.90   14.30
   0 -21  -1    7.50    5.20
  21   0  -1   21.10   10.90
 -21   0   1    1.10    4.40
 -21  21  -1    0.20    8.90
   0  21   1  -12.60    9.40
  21 -21   1  -10.50   16.30
 -22  22   1   -0.20    8.70
   0 -22   1    2.60    4.90
   0  22  -1    8.70   12.60
  22   0   1    4.10    9.50
 -22   0  -1    5.70    4.90
  22 -22  -1   13.60   16.60
  21   1   1    9.90    9.30
   1 -22   1    8.30    5.20
 -22  21   1   -0.80    8.20
  21 -22  -1   -2.60   16.20
 -22   1  -1   14.30    5.20
   1  21  -1   14.90   13.20
  22  -1   1    8.40   11.00
 -21  -1  -1    9.40    4.70
  -1  22  -1    5.00   12.10
  22 -21  -1   18.60   14.30
 -21  22   1   13.40    8.70
  -1 -21   1    4.30    4.60
 -22   2  -1    2.20    4.50
   2 -22   1   -1.00    4.70
  20   2   1   -4.70   10.20
   2  20  -1    5.60   13.10
 -22  20   1    3.10    8.50
  20 -22  -1    9.80   15.40
  -2 -20   1    2.10    4.90
 -20  22   1    4.60    8.30
  22 -20  -1    9.60   13.40
  22  -2   1    4.60    9.50
 -20  -2  -1    7.00    4.60
  -2  22  -1   -1.30   12.50
 -22   3  -1   42.10    6.30
  19 -22  -1   47.50   16.50
   3  19  -1   30.60   16.00
 -22  19   1   21.40    9.60
   3 -22   1   34.90    6.40
  19   3   1   46.10    9.80
  -3  22  -1   31.90   12.80
  -3 -19   1   45.60    6.80
  22 -19  -1   30.30   14.20
  22  -3   1   37.20   11.30
 -19  22   1   42.40    9.50
 -19  -3  -1   45.80    6.30
 -22   4  -1   42.20    6.60
 -22  18   1   33.70    8.90
  18   4   1   38.90    9.80
   4 -22   1   32.90    5.90
   4  18  -1   27.10   15.80
  -4 -18   1   24.60    5.10
 -18  -4  -1   38.50    6.30
  22  -4   1   37.10   11.40
 -18  22   1   34.10    9.50
  -4  22  -1   28.80   13.40
  22 -18  -1   34.50   14.00
   5  17  -1   31.90   15.90
 -22  17   1   19.80    4.60
  17 -22  -1   29.40   15.10
 -22   5  -1   25.40    4.90
   5 -22   1   19.80    5.60
  17   5   1   28.80   10.10
 -22  17   1   25.30    8.40
  22  -5   1   23.30   10.50
  -5  22  -1   24.90   12.20
  -5 -17   1   21.40    5.20
 -17  -5  -1   32.00    5.60
  22 -17  -1   29.00   13.60
 -17  22   1   18.90    8.20
 -22   6  -1  166.58   10.10
   6 -22   1  174.38   12.30
  16   6   1  172.68   15.30
 -22  16   1  160.38    9.20
 -22  16   1  153.98   14.30
  16 -22  -1  149.99   20.90
   6  16  -1  135.49   23.50
 -16  22   1  151.68   13.80
  22 -16  -1  145.49   20.00
  -6  22  -1  132.09   16.90
 -16  -6  -1  153.48    9.90
  -6 -16   1  146.69    9.50
  22  -6   1  150.08   17.20
   7 -22   1   56.29    6.70
 -22  15   1   80.09   10.80
 -22  15   1   42.80    6.20
  15   7   1   69.39   11.50
   7  15  -1   56.49   17.00
  15 -22  -1   45.80   13.00
  -7  22  -1   58.39   13.60
  22 -15  -1   47.10   14.10
 -15  22   1   56.69   10.30
  -7 -15   1   54.29    6.30
 -15  -7  -1   68.89    7.60
  22  -7   1   39.50   12.30
 -22  14   1   71.99   11.90
 -22  14   1   72.79    6.70
  14 -22  -1   78.19   14.20
  14   8   1   94.09   12.40
  14 -22  -1   99.39    9.80
 -22   8  -1   80.89    6.70
   8  14  -1   66.29   18.20
   8 -22   1   74.89    8.00
  22 -14  -1   58.69   14.90
 -14  -8  -1   77.29    7.70
  -8 -14   1   77.09    7.40
  22  -8   1   62.49   12.70
 -14  22   1   61.09   11.00
  -8  22  -1   50.59   13.00
 -22   9  -1  167.98    9.80
  13   9   1  167.28   13.30
 -22  13   1  137.19    9.10
  13 -22  -1  157.88   11.50
   9  13  -1  147.59   23.20
   9 -22   1  154.68   10.30
  13 -22  -1  125.29   17.90
 -22  13   1  137.39   13.40
  22 -13  -1  144.29   19.00
 -13  -9  -1  146.59    9.50
  22  -9   1  161.68   19.40
 -13  22   1  134.39   13.70
  -9  22  -1  151.18   17.80
  -9 -13   1  145.49    9.40
  10 -22   1   40.60    7.10
  12  10   1    6.00   18.50
 -22  12   1   61.39    9.30
  12 -22  -1   39.70   12.00
  10  12  -1   37.60   19.80
  12  10   1   61.29   10.50
 -22  10  -1   49.30    5.80
  12 -22  -1   33.00    6.40
 -22  12   1   25.60    4.90
 -10  22  -1   31.10   11.50
 -10 -12   1   36.50    5.80
 -12  22   1   29.70    9.10
  22 -10   1   28.10   12.40
 -12 -10  -1   45.00    6.20
  22 -12  -1   31.60   13.40
 -22  11   1  141.39    8.80
  11  11   1  143.39   12.10
  11 -22   1  143.99   10.30
 -22  11  -1  144.39    9.20
  11  11  -1  122.29   23.30
  11 -22  -1  133.09   10.00
 -22  11   1  165.08   13.20
  11  11   1   95.09   16.60
  11 -22  -1  102.39   16.60
  22 -11  -1  144.59   19.20
  22 -11   1  128.39   20.20
 -11  22   1  128.29   14.50
 -11  22  -1  136.69   16.70
 -11 -11   1  134.89    8.90
 -11 -11  -1  154.68   10.00
  12  10  -1  113.09   22.50
  12  10  -1   99.29   11.80
  10  12   1  121.79   10.90
 -22  10   1   99.19    8.30
 -22  10   1  136.69   12.40
  12 -22   1  107.59    9.80
 -22  12  -1  117.99    8.10
  10 -22  -1  108.19    8.70
  10 -22  -1   83.99   13.00
 -12  22  -1  101.39   15.20
 -10  22   1  108.89   12.70
  22 -10  -1  112.09   18.50
 -10 -12  -1  126.59    8.90
  22 -12   1   99.59   17.30
 -12 -10   1  111.89    8.10
 -22   9   1    5.90    7.10
  13   9  -1    4.00    7.30
  13 -22   1   13.50    6.20
  13   9  -1   -7.00   19.80
 -22   9   1   -4.90    4.10
  13 -22   1   35.60   13.80
 -22  13  -1    8.30    3.90
   9 -22  -1    4.60    4.40
   9  13   1    5.90    6.10
   9 -22  -1   -1.40    9.30
  22  -9  -1    9.10   12.10
  -9 -13  -1    5.10    4.40
 -13  -9   1   -0.10    4.30
 -13  22  -1   13.60    9.60
  -9  22   1   -2.00    7.90
  22 -13   1    5.00   11.70
 -22   8   1   19.80    5.00
   8  14   1  -11.00   12.50
 -22  14  -1   24.70    4.80
  14 -22   1   22.80    7.10
   8 -22  -1    0.30    9.60
  14 -22   1   12.60   14.00
 -22   8   1   22.80    8.50
   8  14   1   25.10    6.90
  14   8  -1    6.20   20.70
   8 -22  -1   25.00    5.10
 -14  -8   1   16.80    4.70
  -8  22   1   21.80    9.60
  22 -14   1    7.80   12.80
 -14  22  -1   21.10   10.50
  -8 -14  -1   24.50    5.30
  22  -8  -1    8.10   13.00
  15 -22   1   46.00   17.00
   7 -22  -1   51.69   11.50
  15 -22   1  105.79   10.70
  15   7  -1   92.79   13.70
 -22   7   1   75.89    7.60
   7 -22  -1   96.49    8.00
   7  15   1   82.59   14.80
   7  15   1   77.99   10.80
 -22  15  -1  103.49    7.40
  15   7  -1  109.59   23.80
 -15  22  -1   72.29   14.50
 -15  -7   1   70.89    7.50
  -7 -15  -1   86.29    8.10
  22 -15   1   70.79   15.80
  -7  22   1   70.09   13.10
  22  -7  -1   64.59   15.20
   6 -22  -1   24.90    8.30
  16 -22   1   20.30    8.30
  16 -22   1   -1.30   15.60
   6  16   1   21.40    7.10
 -22   6   1    7.70    4.70
   6  16   1   11.00   11.90
  16   6  -1   27.10    8.60
   6 -22  -1   18.10    5.20
  16   6  -1  -10.60   22.90
 -22  16  -1   24.90    5.00
 -22  16  -1   25.80    8.50
 -16  -6   1   10.20    4.40
  -6  22   1   14.60    9.70
  22  -6  -1   20.90   12.40
  22 -16   1   18.70   13.60
 -16  22  -1   10.40   10.60
  -6 -16  -1   15.80    4.80
   5 -22  -1   34.60    6.00
   5  17   1   49.30    8.90
 -22   5   1   36.30    6.60
   5  17   1   19.80   12.10
  17 -22   1   41.10    9.80
 -22  17  -1   50.39    6.30
  17 -22   1   51.69   17.70
  17   5  -1   13.10   23.90
  17   5  -1   26.80   10.40
 -22  17  -1   44.00    9.00
  22 -17   1   33.50   14.60
  -5  22   1   37.00   10.80
 -17  -5   1   31.20    5.80
  -5 -17  -1   26.70    5.60
 -17  22  -1   29.50   11.90
  22  -5  -1   24.60   11.90
  18 -22   1   88.99   13.40
  18 -22   1  100.99   19.40
   4  18   1   72.99   14.70
 -22  18  -1   84.29    7.80
  18   4  -1   88.59   14.20
 -22  18  -1  109.79   12.10
   4 -22  -1   74.59    7.70
 -18  22  -1   36.90   12.10
  22  -4  -1   56.99   13.30
 -18  -4   1   63.29    7.00
  -4  22   1   58.69   11.50
  22 -18   1   82.29   18.30
  -4 -18  -1   63.99    7.00
 -22   3   1   17.10    5.10
   3  19   1   23.20   12.00
  19 -22   1    8.70    9.10
   3 -22  -1   19.00    5.20
 -22  19  -1   18.00    8.80
  19 -22   1   16.70   17.40
  19   3  -1   27.50   10.40
  -3  22   1    2.10    9.60
 -19  -3   1   16.30    4.70
 -19  22  -1   14.70    9.20
  22 -19   1   13.00   14.70
  22  -3  -1   16.50   11.70
  -3 -19  -1   15.50    4.90
  20 -22   1   12.50   21.20
   2 -22  -1   11.00    5.30
  20   2  -1   11.30   12.20
  20 -22   1   17.90   11.90
 -22   2   1    8.80    5.30
 -22  20  -1   32.50    8.60
   2  20   1   19.80   11.90
  22  -2  -1   21.50   12.90
 -20  -2   1   10.70    4.50
  22 -20   1   10.60   17.20
  -2 -20  -1   13.70    5.00
 -20  22  -1    3.80    8.70
  -2  22   1   -0.90   10.60
  21   1  -1   10.50   11.60
  21 -22   1   -6.90   17.40
   1  21   1   -3.60    9.90
 -22  21  -1   27.00    9.70
  21 -22   1   -0.20   14.10
 -22   1   1   13.80    5.00
   1 -22  -1    3.30    5.20
  22 -21   1   -3.60   15.10
 -21  22  -1   17.40    9.60
 -21  -1   1   11.90    4.80
  22 -21   1   23.80   17.90
  22  -1  -1   14.90   12.30
  -1  22   1   -0.40   10.90
  -1 -21  -1   11.60    5.40
  22 -22   1   18.10   18.20
  22 -22   1    0.20   16.80
   0  22   1   -2.60   10.90
 -22   0   1   13.10    5.20
   0 -22  -1   15.20    5.80
 -22  22  -1   22.20    9.70
  22   0  -1   29.40   12.00
   1 -23   1   -3.50    5.50
 -23  22   1    9.50    8.80
 -23   1  -1   -2.10    5.10
  22   1   1   -3.10   10.30
  22 -23  -1    1.90   17.10
   1  22  -1    8.80   13.20
 -22  23   1   11.90    8.90
  23 -22  -1   32.10   16.70
 -22  -1  -1   -1.20    4.80
  -1  23  -1   -5.40   12.80
  -1 -22   1    1.30    5.10
  23  -1   1    3.10   10.60
  21 -23  -1    8.70   17.40
  21   2   1   28.40   11.30
   2 -23   1   15.70    5.20
 -23  21   1   28.10   10.00
   2  21  -1   17.30   13.60
 -23   2  -1   17.10    5.20
  23  -2   1   12.10   11.90
 -21  -2  -1   20.10    5.20
  -2 -21   1   20.80    5.60
 -21  23   1    6.90    8.40
  23 -21  -1   54.19   15.40
  -2  23  -1   14.50   12.30
   3 -23   1   15.30    5.20
 -23   3  -1   17.40    5.20
   3  20  -1   21.90   14.60
 -23  20   1   14.10    9.20
  20   3   1   15.80    9.10
  20 -23  -1   23.90   16.00
 -20  23   1   16.50    8.80
  23 -20  -1    4.80   13.50
 -20  -3  -1   18.40    5.00
  23  -3   1    6.40    9.80
  -3 -20   1   12.40    4.80
  -3  23  -1   15.00   12.60
   4 -23   1    0.20    4.80
  19   4   1   16.10    9.20
  19 -23  -1    0.30   15.30
   4  19  -1  -10.40   15.40
 -23   4  -1    5.10    5.10
  23  -4   1   -0.80   10.00
  23 -19  -1    9.00   13.30
 -19  23   1    7.50    7.90
  -4  23  -1    1.30   11.10
 -19  -4  -1    6.60    4.70
  -4 -19   1    0.20    4.50
 -23   5  -1   50.39    6.40
   5  18  -1   35.40   16.30
  18   5   1   43.30   10.10
 -23  18   1   67.99   12.00
   5 -23   1   58.69    7.70
  18 -23  -1   53.49   16.40
  23 -18  -1   50.39   15.90
  23  -5   1   33.40   11.80
 -18  -5  -1   58.49    7.60
  -5  23  -1   35.20   13.10
 -18  23   1   51.49   10.40
  -5 -18   1   48.60    6.70
 -23   6  -1   41.60    6.60
   6 -23   1   28.90    6.40
   6  17  -1   42.10   15.70
  17   6   1   37.80   10.70
 -23  17   1   24.30    9.40
  17 -23  -1   40.70   15.70
  23 -17  -1   32.50   13.70
 -17  -6  -1   26.00    5.50
 -17  23   1   38.50    9.70
  23  -6   1   37.00   11.40
  -6  23  -1   30.30   13.30
  -6 -17   1   23.20    5.00
  16 -23  -1   11.20   14.90
   7 -23   1   12.50    5.20
 -23   7  -1   17.10    4.80
 -23  16   1   31.90    8.70
  16   7   1   27.00    8.90
   7  16  -1    6.20   16.20
  -7 -16   1   16.90    4.80
  23 -16  -1   19.30   13.70
  23  -7   1   15.90   12.30
 -16  23   1    4.10    8.60
 -16  -7  -1   19.10    5.10
  -7  23  -1   15.70   11.80
  15   8   1  138.89   13.80
 -23  15   1   93.39    8.20
 -23   8  -1  137.29    9.00
 -23  15   1  126.59   13.30
  15 -23  -1  112.99   19.20
   8  15  -1  121.49   22.30
  -8  23  -1  102.89   15.50
  -8 -15   1  113.09    8.20
  23 -15  -1  132.19   19.30
  23  -8   1   97.19   16.70
 -15  -8  -1  120.99    8.60
 -15  23   1  110.49   13.80
 -23   9  -1   20.50    4.70
  14 -23  -1   35.80   13.10
 -23  14   1   11.90    4.30
  14   9   1   22.00    7.90
   9  14  -1   42.30   18.60
 -23  14   1   19.70    8.90
   9 -23   1   24.70    5.60
  -9  23  -1   17.40   11.80
  23 -14  -1   27.00   12.90
  23  -9   1    9.20   11.20
  -9 -14   1   16.70    4.50
 -14  23   1   15.30    8.70
 -14  -9  -1   11.00    4.70
  10  13  -1   68.99   19.60
 -23  13   1   59.39    7.30
 -23  13   1   99.69   11.20
  13 -23  -1   68.59   14.70
  10 -23   1   91.79    8.70
  13  10   1   87.29   11.80
  13 -23  -1  105.09   10.50
 -10 -13   1   79.69    7.30
  23 -13  -1   94.19   18.30
 -10  23  -1   85.59   13.90
  23 -10   1   85.89   15.50
 -13 -10  -1   85.29    8.00
 -13  23   1   69.89   11.60
 -23  12   1   67.29    6.90
  12  11   1   95.39   10.70
  12 -23  -1   59.59   13.00
  12 -23  -1   80.69    8.90
 -23  11  -1   77.19    7.70
 -23  12   1   89.89   11.90
  11  12  -1   49.99   21.60
  11 -23   1   80.59    8.90
 -11  23  -1   56.99   11.80
 -12  23   1   54.79   10.20
 -12 -11  -1   83.19    7.90
  23 -12  -1   63.89   15.00
 -11 -12   1   64.09    6.70
  23 -11   1   61.19   14.10
  11  12   1    6.70    6.40
 -23  11   1    2.20    4.30
  11 -23  -1   -9.30   11.70
  11 -23  -1   12.80    5.40
  12 -23   1   12.40    5.50
  12  11  -1   11.60   19.50
 -23  12  -1    5.00    4.70
 -23  11   1   17.40    8.00
 -11  23   1    5.60    8.70
 -11 -12  -1   10.30    4.60
  23 -12   1    8.30   12.10
  23 -11  -1   -1.90   13.10
 -12  23  -1    4.30    9.40
 -12 -11   1   -0.50    4.10
  13  10  -1   51.59   20.60
  10 -23  -1   76.29   13.00
  10  13   1   45.00   15.40
  10 -23  -1   76.69    8.30
  13 -23   1   81.29    9.50
 -23  13  -1   96.49    7.40
  10  13   1   94.19   11.50
  13  10  -1   97.29   12.20
  23 -13   1   77.49   15.70
  23 -10  -1   50.49   14.30
 -10 -13  -1   78.99    7.30
 -10  23   1   67.39   11.60
 -13  23  -1   69.09   12.70
 -13 -10   1   71.99    7.00
 -23   9   1   36.60    6.60
  14   9  -1   51.99   21.80
   9 -23  -1   39.30   11.00
  14 -23   1   58.69    9.30
   9  14   1   44.40    8.70
 -23  14  -1   66.69    6.90
   9  14   1   29.70   13.40
   9 -23  -1   55.79    7.80
  14   9  -1   78.59   12.40
  -9 -14  -1   57.99    7.50
  -9  23   1   31.30    9.50
  23 -14   1   50.79   13.30
  23  -9  -1   56.49   13.90
 -14  23  -1   48.80   11.70
 -14  -9   1   39.90    6.30
  15   8  -1   29.20    9.20
  15 -23   1   14.80   16.30
   8  15   1  -10.80   11.70
   8 -23  -1   15.50    4.90
 -23  15  -1   15.20    5.00
   8 -23  -1   -7.20    9.60
  15 -23   1   13.20    6.80
 -23   8   1    6.30    4.70
   8  15   1   21.20    6.90
  15   8  -1  -25.50   21.90
  23 -15   1    3.90   12.70
  -8 -15  -1   11.00    4.70
  -8  23   1   -2.50    8.30
  23  -8  -1   13.10   11.60
 -15  23  -1    4.90   10.00
 -15  -8   1    5.80    4.60
  16 -23   1   51.39    9.80
   7  16   1   86.69    9.80
   7 -23  -1   68.39    7.40
   7  16   1   52.19   14.50
  16 -23   1   50.59   18.40
 -23   7   1   50.89    7.60
  16   7  -1   34.90   23.90
  16   7  -1   79.99   14.00
 -23  16  -1   73.39    7.30
  23 -16   1   57.39   15.10
 -16  -7   1   50.79    6.40
  -7  23   1   56.29   10.70
  23  -7  -1   45.40   13.10
  -7 -16  -1   64.29    7.60
 -16  23  -1   76.49   13.60
  17   6  -1  138.39   16.20
  17 -23   1  122.99   24.10
 -23   6   1  121.99    9.40
   6  17   1  119.39   18.30
   6 -23  -1  121.99    9.50
 -23  17  -1  136.29    9.30
  17 -23   1  139.59   13.80
  -6 -17  -1  136.39    9.80
  23  -6  -1  110.29   17.10
  23 -17   1  144.29   23.40
 -17  23  -1  111.89   13.40
 -17  -6   1  124.59    9.20
  -6  23   1  110.69   13.80
 -23   5   1   34.70    6.20
  18 -23   1   64.39   17.60
  18   5  -1   23.70   10.50
 -23  18  -1   48.60    6.70
  18 -23   1   22.80    9.50
   5 -23  -1   44.50    7.10
   5  18   1   30.00   15.40
 -18  -5   1   27.70    5.40
  23  -5  -1   35.90   12.40
 -18  23  -1   36.30   10.40
  -5 -18  -1   24.00    5.20
  -5  23   1   18.30    9.50
  23 -18   1   25.30   14.50
 -23  19  -1   45.50    7.00
 -23   4   1   41.00    7.20
  19   4  -1   49.40   19.70
  19 -23   1   46.80   10.90
 -23  19  -1   42.90    9.80
   4  19   1   47.70   13.40
  19 -23   1   53.89   18.70
 -19  23  -1   47.20   11.20
  23 -19   1   57.29   17.60
  -4  23   1   30.90   11.00
  -4 -19  -1   41.70    6.40
 -19  -4   1   39.60    6.40
  23  -4  -1   35.10   14.00
   3 -23  -1   79.69    8.50
 -23  20  -1  104.49   12.70
   3  20   1   69.89   14.00
 -23   3   1   72.49    8.70
  20   3  -1  127.19   16.70
  20 -23   1   61.99   14.70
  -3  23   1   75.29   13.20
  23  -3  -1   94.59   16.60
 -20  -3   1   79.19    7.50
  23 -20   1   82.99   17.80
 -20  23  -1   93.69   14.10
 -23   2   1   33.00    6.20
 -23  21  -1   26.50    9.90
   2  21   1   26.30   11.50
  21 -23   1    2.50   17.80
  21   2  -1   35.90   11.80
  21 -23   1  -17.90   13.80
   2 -23  -1   41.10    7.50
 -21  23  -1   32.70   10.10
  -2 -21  -1   21.00    6.00
  23  -2  -1   26.90   14.50
 -21  -2   1   22.60    5.30
  23 -21   1   38.30   18.30
  -2  23   1   35.40   11.30
   1  22   1   -9.30   11.20
  22 -23   1    3.00   15.40
   1 -23  -1   -1.70    5.50
 -23   1   1    9.00    5.60
  22   1  -1   -0.90   12.30
  22 -23   1   21.80   18.80
  23 -22   1    7.90   17.70
  23  -1  -1   14.70   11.60
 -22  23  -1    3.00    9.90
  -1  23   1   -6.90   10.70
  -1 -22  -1    0.00    5.10
 -22  -1   1    3.60    4.80
   3 -24   1   -2.70    5.10
  21 -24  -1   -9.10   17.70
   3  21  -1    2.20   13.50
 -24   3  -1   -0.50    5.20
  21   3   1    6.40    9.60
 -24  21   1    3.40    8.80
  24  -3   1   11.70   11.70
 -21  -3  -1    5.50    5.00
  24 -21  -1   -5.00   14.10
 -21  24   1    5.30    8.60
  -3 -21   1    5.40    5.30
  -3  24  -1   -2.00   12.10
 -24  20   1   27.20    9.80
 -24   4  -1   19.60    5.30
  20 -24  -1   18.90   15.90
   4  20  -1   28.80   15.80
   4 -24   1   17.00    5.50
  20   4   1   20.30   10.00
 -20  24   1   13.60    9.20
  -4 -20   1   15.20    4.90
  24 -20  -1   -4.20   13.90
  24  -4   1   27.40   12.30
 -20  -4  -1   20.30    5.60
  -4  24  -1    7.00   12.90
   5 -24   1    9.60    5.20
 -24  19   1   28.40    9.90
 -24   5  -1   11.70    5.10
  19   5   1   15.80   10.60
  19 -24  -1  -11.10   14.20
   5  19  -1   -8.00   15.20
  24  -5   1   23.80   12.40
  -5  24  -1    5.80   12.20
  24 -19  -1   13.70   14.10
 -19  -5  -1   16.40    5.40
  -5 -19   1   17.30    5.00
 -19  24   1   11.50    8.50
  18 -24  -1   -8.20   13.30
  18   6   1    4.20    7.90
 -24   6  -1    5.60    4.70
   6 -24   1   -0.70    5.10
   6  18  -1   -2.50   14.30
 -24  18   1   19.50    9.70
 -18  24   1    1.30    8.20
  -6 -18   1    1.40    5.00
  24 -18  -1    9.70   14.80
 -18  -6  -1   -0.40    4.40
  24  -6   1  -13.20   10.10
  -6  24  -1    3.20   11.80
   7 -24   1   39.80    6.70
   7  17  -1   47.10   17.50
 -24  17   1   73.19   11.80
 -24   7  -1   49.30    6.80
  17   7   1   69.69   12.80
  17 -24  -1   28.50   16.20
 -17  24   1   23.20    8.70
  24  -7   1   32.30   11.90
 -17  -7  -1   34.70    5.80
  -7 -17   1   38.50    6.10
  -7  24  -1   29.60   12.20
  24 -17  -1   29.30   13.60
 -24   8  -1    9.10    4.80
  16   8   1   19.90   10.00
   8 -24   1   17.30    5.80
  16 -24  -1   -0.50   14.90
   8  16  -1    8.10   16.20
 -24  16   1   22.30    9.70
  -8 -16   1   10.10    4.50
  -8  24  -1   13.20   11.30
  24  -8   1   11.10   11.40
 -16  -8  -1   11.40    4.80
 -16  24   1   19.80    8.40
  24 -16  -1   16.10   13.10
  15   9   1   45.70    9.00
   9 -24   1   22.20    6.00
 -24  15   1   42.70   10.60
   9  15  -1    6.20   17.50
 -24   9  -1   43.40    6.80
  15 -24  -1   22.40   14.80
 -24  15   1   27.30    5.50
 -15  24   1   26.90    9.00
  -9 -15   1   30.40    5.30
 -15  -9  -1   31.90    5.80
  24 -15  -1   35.90   14.00
  24  -9   1   35.20   13.30
  -9  24  -1   31.50   11.70
  14 -24  -1   56.19   14.00
  10 -24   1   64.89    8.30
 -24  14   1   43.50    6.10
  14  10   1   49.99    9.20
 -24  10  -1   73.89    7.10
  10  14  -1   79.39   22.70
 -14 -10  -1   62.39    6.80
  24 -14  -1   58.79   15.70
 -10  24  -1   49.99   12.40
 -10 -14   1   54.49    7.10
 -14  24   1   64.89   10.50
  24 -10   1   42.70   12.90
  11  13  -1    8.60   18.40
  11 -24   1   10.90    7.20
 -24  13   1   42.70    9.80
  13 -24  -1    0.10   13.40
 -24  13   1    7.90    4.50
 -24  11  -1   19.70    5.10
  24 -11   1   12.30   12.30
 -13  24   1    6.50    8.30
 -11 -13   1   14.90    5.00
 -13 -11  -1   16.30    5.10
  24 -13  -1    9.00   12.70
 -11  24  -1   16.00   10.00
 -24  12  -1   65.89    7.10
  12 -24  -1   80.39   13.50
  12 -24  -1   20.90   13.50
  12  12   1   66.09   10.30
  12  12  -1   41.10   21.10
 -12 -12   1   49.90    6.80
 -12 -12  -1   51.09    6.60
 -12  24  -1   46.60   11.70
  24 -12   1   48.80   13.60
 -12  24   1   52.89   10.10
  24 -12  -1   38.60   13.80
  11  13   1   12.50   13.70
  11  13   1   28.20    8.10
 -24  13  -1   25.90    5.30
  13 -24   1   22.20    6.80
  11 -24  -1   30.20    6.10
  13  11  -1    7.60   20.20
  11 -24  -1    8.00   12.40
 -11 -13  -1   21.90    5.30
  24 -13   1   19.30   13.10
 -13 -11   1   20.50    4.80
 -11  24   1   21.80    8.90
  24 -11  -1   28.30   13.00
 -13  24  -1   17.10   10.20
 -24  14  -1   18.70    4.60
  10 -24  -1  -21.80   12.40
  10  14   1   12.20    7.80
  14 -24   1    9.80    6.20
  10  14   1   11.10   13.00
 -24  10   1    8.50    4.80
  10 -24  -1   12.20    5.60
  14  10  -1   -5.20   19.40
  24 -14   1    8.50   12.70
 -14  24  -1   16.70    9.40
 -14 -10   1   10.00    4.40
 -10 -14  -1   11.20    5.30
  24 -10  -1   -1.80   11.60
 -10  24   1    2.60    8.70
 -24   9   1   46.70    7.40
  15 -24   1   64.79   10.50
   9  15   1   82.19   12.20
   9 -24  -1   51.49    8.00
 -24  15  -1   58.99    7.20
   9  15   1   89.49   15.70
  15   9  -1   48.10   22.50
 -15  -9   1   50.19    7.20
  24 -15   1   46.20   13.80
 -15  24  -1   50.99   11.60
  -9 -15  -1   46.50    6.50
  -9  24   1   47.20   10.50
  24  -9  -1   39.90   12.90
  16   8  -1  125.39   25.90
 -24  16  -1  110.89    8.80
 -24   8   1   97.59    8.90
  16 -24   1   95.99   11.80
  16 -24   1  136.89   26.10
   8  16   1  109.59   17.80
   8 -24  -1  109.69    9.10
  -8  24   1   88.09   13.70
 -16  -8   1   89.39    7.70
  24 -16   1   84.39   16.20
  24  -8  -1  104.29   17.80
 -16  24  -1   98.59   14.20
  -8 -16  -1  101.49    8.60
   7  17   1   12.80   12.60
 -24  17  -1   13.10    4.80
  17 -24   1    5.90    7.90
  17   7  -1   19.40    8.80
   7 -24  -1   12.60    5.70
  17 -24   1   61.29   19.00
 -24   7   1    9.10    5.30
  24 -17   1   14.20   14.10
 -17  -7   1    6.10    4.70
 -17  24  -1    7.90    9.00
  -7  24   1    8.20    9.30
  -7 -17  -1    8.50    4.80
  24  -7  -1   14.30   11.60
 -24  18  -1   97.29    8.40
   6 -24  -1   70.69    8.40
  18   6  -1   86.59   15.60
   6  18   1   62.19   14.10
 -24   6   1   72.79    8.40
  -6  24   1   82.29   13.80
 -18  -6   1   80.09    7.40
  24 -18   1   79.29   18.60
  -6 -18  -1   76.49    8.30
 -18  24  -1   93.49   13.90
  24  -6  -1   63.29   14.10
 -24   5   1  167.38   11.00
   5  19   1  153.58   18.50
  19 -24   1  138.59   19.50
   5 -24  -1  172.38   11.30
 -24  19  -1  178.18   11.20
  19 -24   1  231.08   29.70
 -19  24  -1  161.78   16.00
  24  -5  -1  149.19   20.10
  -5  24   1  147.49   15.30
 -19  -5   1  159.08   10.20
  24 -19   1  160.28   23.20
  -5 -19  -1  171.28   10.80
  20 -24   1   48.30   12.80
   4  20   1   32.40   12.40
  20   4  -1   55.29   12.30
   4 -24  -1   41.40    7.00
 -24   4   1   43.40    7.60
  20 -24   1   28.90   21.60
  -4  24   1   40.50   11.60
  -4 -20  -1   55.79    6.90
 -20  24  -1   52.39   11.70
  24  -4  -1   49.70   14.90
 -20  -4   1   48.30    7.40
  24 -20   1   46.60   18.50
  21   3  -1   43.20   13.30
  21 -24   1   36.80   14.00
 -24   3   1   23.00    5.50
   3  21   1    7.50   11.30
  21 -24   1   19.70   20.60
 -24  21  -1   30.70    6.10
 -24  21  -1   32.90   10.40
   3 -24  -1   18.00    5.90
  -3  24   1   21.20   10.40
  24 -21   1   31.10   17.00
 -21  24  -1   41.90   11.10
 -21  -3   1   17.80    5.60
  24  -3  -1   44.90   14.70
  -3 -21  -1   10.90    5.80
   5  20  -1   17.20   16.00
  20 -25  -1   26.70   17.40
  20   5   1   -9.70   10.80
   5 -25   1    6.00    6.00
 -25  20   1   14.40   10.60
 -25   5  -1    1.80    4.80
 -20  -5  -1    1.70    4.60
  -5  25  -1   -0.80   11.10
  25  -5   1   -0.20   10.90
 -20  25   1   -2.00    8.30
  25 -20  -1    5.80   14.50
  -5 -20   1    6.60    5.00
  19   6   1   24.30    9.80
   6  19  -1    7.50   16.30
 -25  19   1   17.40    9.80
 -25   6  -1    2.40    5.40
   6 -25   1    7.40    5.10
  19 -25  -1    7.70   16.90
 -19  -6  -1    4.40    4.60
  25 -19  -1    3.90   14.00
  25  -6   1    1.30   11.30
  -6  25  -1   12.80   11.30
  -6 -19   1    4.50    4.50
 -19  25   1    9.80    8.60
   7  18  -1  -18.40   17.30
  18   7   1   18.40    8.50
 -25   7  -1   10.40    5.20
 -25  18   1   25.00   17.50
   7 -25   1    6.90    5.80
  18 -25  -1  -17.70   15.70
  -7 -18   1    2.60    4.90
  -7  25  -1    1.90   11.30
  25  -7   1    5.20   10.40
  25 -18  -1   21.70   16.20
 -18  25   1    4.40    8.40
 -18  -7  -1    3.40    4.80
   8 -25   1   10.60    5.60
 -25  17   1   24.10   10.10
  17 -25  -1   -1.40   15.40
 -25   8  -1    3.80    4.80
   8  17  -1   12.90   16.40
  17   8   1    3.00    9.30
 -17  25   1   13.10    9.00
  -8 -17   1    5.80    4.60
  25  -8   1   -1.30   11.90
 -17  -8  -1    1.70    4.70
  -8  25  -1   -2.60   10.60
  25 -17  -1    6.10   14.90
  16   9   1   37.40    9.40
 -25  16   1   38.10   14.30
   9  16  -1   61.89   19.00
 -25   9  -1   24.30    5.50
   9 -25   1   45.50    7.40
  -9 -16   1   33.60    5.70
  -9  25  -1   29.30   11.70
  25  -9   1   29.40   12.50
 -16  -9  -1   45.70    6.40
 -16  25   1   30.10    9.40
  25 -16  -1   40.60   14.00
  15 -25  -1   -5.90   15.70
  15  10   1    0.60    9.80
 -25  10  -1   11.20    4.90
  10 -25   1   19.50    6.00
 -25  15   1   -1.50    4.50
  10  15  -1  -26.00   17.10
 -10 -15   1    6.30    4.50
 -10  25  -1   16.10   10.80
  25 -15  -1   14.30   12.50
 -15  25   1    9.60    8.50
 -15 -10  -1    3.20    4.60
  25 -10   1    3.50   12.70
 -25  11  -1   24.40    5.50
  11  14  -1    6.70   19.30
  11 -25   1   11.30    6.50
  14  11   1   29.30    8.40
 -25  14   1   11.40    5.10
  14 -25  -1   21.20   14.40
  25 -14  -1    6.70   13.60
 -11  25  -1   18.40   10.00
  25 -11   1    4.10   11.40
 -11 -14   1    7.60    4.70
 -14 -11  -1    9.20    5.20
 -14  25   1    7.60    8.40
 -25  13   1   -9.20    5.10
  13 -25  -1    9.50   12.80
  12 -25   1   15.50    6.20
 -25  12  -1    3.80    4.90
  13  12   1   -2.70    8.10
 -13 -12  -1    9.50    5.00
  25 -13  -1   11.60   13.40
  25 -12   1    4.20   11.40
 -12  25  -1    2.20    9.50
 -12 -13   1    3.20    4.70
 -13  25   1    9.90    8.70
  13  12  -1    2.50   20.00
 -25  13  -1   12.50    4.60
 -25  12   1   -1.40    5.40
  13 -25   1   14.00    7.00
  12  13   1   14.30    8.10
  12 -25  -1  -24.20   13.70
 -13 -12   1   11.80    4.60
 -13  25  -1   11.70   10.90
  25 -12  -1   11.90   12.60
 -12  25   1   12.10    9.10
 -12 -13  -1   18.30    5.30
  25 -13   1   15.40   13.80
  11  14   1   55.49    9.80
  11  14   1   57.59   14.90
  11 -25  -1   63.79    9.20
  14 -25   1   61.29    9.80
 -25  11   1   49.30    7.60
  11 -25  -1   55.19   14.00
  14  11  -1   10.50   21.90
 -25  14  -1   49.50    7.10
 -11  25   1   44.90    9.90
  25 -11  -1   49.40   13.50
  25 -14   1   51.69   14.40
 -14  25  -1   44.80   11.10
 -11 -14  -1   58.39    7.80
 -14 -11   1   51.39    6.40
  15 -25   1   43.40    9.00
  10 -25  -1   46.30    8.30
  10  15   1   50.79   14.50
 -25  10   1   47.80    8.60
  15  10  -1  -15.90   21.80
 -25  15  -1   49.90    7.20
  25 -10  -1   44.70   13.20
 -15 -10   1   45.90    6.80
 -10  25   1   36.40    9.50
  25 -15   1   47.20   13.50
 -15  25  -1   52.49   11.00
 -10 -15  -1   50.09    6.60
 -25  16  -1   40.20    6.70
  16 -25   1   29.10    8.20
 -25   9   1    6.80    5.60
   9  16   1   34.70   13.50
   9 -25  -1   29.90    6.30
  16   9  -1    5.60   22.40
  25 -16   1   24.00   12.80
  -9 -16  -1   23.10    5.30
 -16  25  -1   18.50    9.50
  -9  25   1   14.30    8.80
  25  -9  -1   19.00   12.80
 -16  -9   1   18.40    5.20
   8  17   1  106.69   18.00
 -25   8   1   47.40    8.40
  17   8  -1   38.50   25.30
  17 -25   1   78.09   13.50
   8 -25  -1   63.89    8.40
  17   8  -1  104.99   15.40
  25 -17   1   66.49   16.90
 -17  25  -1   38.40   10.20
 -17  -8   1   56.69    7.40
  -8  25   1   49.80   10.50
  25  -8  -1   99.79   17.00
   7 -25  -1  141.79   11.30
 -25  18  -1  155.88   10.10
   7  18   1  145.19   19.10
 -25   7   1  140.49   10.60
  18 -25   1  154.28   17.20
  18 -25   1  192.18   29.50
  25 -18   1  147.19   21.10
 -18  -7   1  150.98    9.60
  -7  25   1  110.19   14.00
  25  -7  -1  134.09   18.70
  -7 -18  -1  131.19    9.70
 -25  19  -1   45.80    6.90
   6 -25  -1   23.00    6.40
   6  19   1   36.50   13.50
  19   6  -1   35.10   11.70
  19 -25   1   33.20   22.20
  19 -25   1   26.40   11.50
 -25   6   1   21.50    5.80
  -6  25   1   23.60   10.30
  25 -19   1   13.90   16.00
  -6 -19  -1   19.10    5.70
 -19  25  -1   31.90   11.30
 -19  -6   1   23.40    5.30
  25  -6  -1   21.90   13.80
  20 -25   1   31.70   23.30
   5 -25  -1   54.49    9.10
  20   5  -1   67.99   14.10
  20 -25   1   84.79   15.50
 -25   5   1   44.30    7.40
   5  20   1   32.60   13.20
 -25  20  -1   70.89    8.00
 -20  25  -1   49.40   11.00
  25 -20   1   59.19   19.30
  -5  25   1   39.40   10.90
  25  -5  -1   60.89   14.30
 -20  -5   1   60.89    7.50
  -5 -20  -1   63.69    7.90
  17   9   1   18.60    9.50
   9  17  -1   -9.40   16.30
  17 -26  -1    1.00   16.50
 -26  17   1    9.00   11.30
   9 -26   1    5.50    6.20
 -26   9  -1    7.00    5.20
 -17  -9  -1    2.60    4.70
 -17  26   1    1.40    8.70
  -9 -17   1    5.10    4.30
  26  -9   1    4.90   12.80
  26 -17  -1    8.70   15.30
  -9  26  -1   -6.80   10.30
  10  16  -1   -0.80   18.30
  16 -26  -1   12.10   16.00
  16  10   1   -5.70    9.30
  10 -26   1    8.70    6.10
 -26  10  -1    2.10    5.20
 -10 -16   1   -1.60    4.30
  26 -16  -1   11.80   13.10
 -10  26  -1    2.40   10.50
  26 -10   1   -1.20   11.80
 -16 -10  -1   -0.50    5.00
 -16  26   1    2.70    8.60
  11 -26   1    1.60    6.80
 -26  15   1    7.40    5.20
 -26  11  -1    8.20    4.80
  11  15  -1  -12.30   17.20
  26 -15  -1  -12.60   14.10
 -11  26  -1    9.60   10.70
  26 -11   1   10.10   13.50
 -11 -15   1    4.90    4.20
 -15  26   1    3.70    8.50
 -15 -11  -1    1.90    4.80
  14 -26  -1    8.80   16.80
 -26  12  -1    9.20    4.90
  12 -26   1   10.70    6.20
  14  12   1   -3.10    9.00
  12  14  -1  -37.60   19.20
  26 -12   1    1.00   11.80
 -12 -14   1    1.80    4.50
 -14  26   1    4.70    8.40
 -12  26  -1    3.10    9.60
  26 -14  -1   -0.70   14.40
 -14 -12  -1    3.80    4.70
 -26  13  -1    9.10    5.40
  13 -26  -1   31.50   15.00
  13  13  -1   -4.60   19.30
  13  13   1    7.70    9.00
  13 -26   1   24.20    7.90
 -13  26  -1    9.80   10.20
 -13  26   1    5.40    8.70
  26 -13   1   14.90   12.20
  26 -13  -1   17.80   13.20
 -13 -13   1   11.00    4.90
 -13 -13  -1   12.40    5.00
  14 -26   1    9.50    6.50
 -26  14  -1   12.60    5.10
  12  14   1    9.20    8.60
  14  12  -1   34.00   23.40
 -12  26   1   16.00    8.90
 -14  26  -1    6.70    9.60
  26 -14   1   15.80   13.00
 -12 -14  -1    5.90    5.00
  26 -12  -1    6.10   12.10
 -14 -12   1    0.10    4.20
 -26  15  -1   39.80    6.80
 -26  11   1   30.70    6.60
  11  15   1   36.10   15.10
  15  11  -1   -0.80   21.70
  15 -26   1   14.20    8.10
 -11 -15  -1   26.90    5.60
 -11  26   1   19.70    9.60
 -15  26  -1   30.70   10.70
  26 -11  -1   27.60   13.10
  26 -15   1   17.00   14.40
 -15 -11   1   20.80    5.00
  16 -26   1   76.29   11.00
 -26  16  -1   61.79    7.90
  16  10  -1   15.10   25.00
 -26  10   1   33.10    7.10
  10 -26  -1   61.19    9.70
 -10  26   1   55.79   11.10
  26 -16   1   44.90   15.50
 -16 -10   1   56.59    7.20
  26 -10  -1   58.19   15.90
 -16  26  -1   46.80   11.00
 -10 -16  -1   51.99    7.00
 -26  17  -1  129.49    9.10
  17 -26   1  106.29   14.40
   9 -26  -1  117.39   11.40
   9  17   1  136.79   19.70
 -26   9   1   91.89   10.00
 -17  -9   1   92.59    9.00
  26  -9  -1  122.39   18.20
  -9 -17  -1  108.09    9.10
  26 -17   1  103.59   19.90
  -9  26   1   89.19   14.20
 -17  26  -1   99.49   13.70
   0   0   2    5.20    2.70
   0   0   2   -1.30    3.30
   0   0   2    0.50    2.20
   1   0   2   -3.10    2.60
  -1   1   2    1.50    1.90
   0  -1   2    3.10    1.80
  -1   1   2   -6.60    3.30
  -1   1   2   -1.60    2.40
   1   0   2   -1.80    2.70
   0  -1   2   -2.20    1.90
   0  -1   2   -1.40    3.70
   1   0   2   -0.30    3.10
   0   1   2    9.10    3.60
   0   1   2    9.50    2.90
  -1   0   2   13.50    2.10
   0   1   2   14.40    3.10
   1  -1   2   12.30    2.70
  -1   0   2   14.50    2.60
   1  -1   2   14.90    2.80
  -1   0   2   12.70    3.90
   1  -1   2   16.10    3.80
   0  -2   2   14.60    2.20
  -2   2   2   13.60    1.90
   2   0   2   12.20    3.20
   0  -2   2   13.00    2.30
   2   0   2   19.50    4.20
   0  -2   2   12.80    3.80
  -2   2   2   11.50    3.90
  -2   2   2   13.10    3.00
   2   0   2   10.70    3.20
  -2   1   2   24.50    4.30
   1  -2   2   16.50    3.90
  -2   1   2   20.70    3.70
   1   1   2   20.80    3.30
  -2   1   2   17.10    2.30
   1  -2   2   17.30    2.60
   1   1   2   20.20    4.40
   1  -2   2   16.60    2.70
   1   1   2   22.30    3.70
   2  -1   2   21.30    3.50
  -1  -1   2   21.00    2.60
  -1   2   2   16.10    3.80
  -1  -1   2   18.10    3.20
  -1   2   2   18.60    3.50
   2  -1   2   20.80    3.40
  -1  -1   2   17.30    4.20
  -1   2   2   18.90    3.00
   2  -1   2   18.90    3.60
  -2   0   2  387.56   16.40
   0   2   2  393.86   17.10
   0   2   2  396.76   18.20
   2  -2   2  390.86   17.00
   2  -2   2  394.36   17.30
  -2   0   2  403.56   17.90
   2  -2   2  387.46   17.10
   0   2   2  380.26   17.50
  -2   0   2  409.36   16.90
   0  -3   2   17.40    2.70
  -3   3   2    8.80    3.90
  -3   3   2   13.30    2.10
  -3   3   2   26.10    3.70
   0  -3   2   17.80    4.00
   0  -3   2   17.30    2.60
   3   0   2   18.30    2.90
   3   0   2   16.40    5.20
   3   0   2   19.80    3.50
  -3   2   2   53.39    6.40
   2   1   2   58.29    7.40
   2   1   2   49.40    4.70
   1  -3   2   56.39    3.90
   1  -3   2   59.49    4.10
   2   1   2   59.69    4.90
   1  -3   2   55.19    5.30
  -3   2   2   52.29    3.10
  -2   3   2   49.90    5.50
  -1  -2   2   59.09    3.60
  -1  -2   2   64.39    3.80
  -2   3   2   64.69    4.80
   3  -1   2   53.59    4.80
   3  -1   2   60.29    4.60
  -2   3   2   63.89    5.10
  -1  -2   2   67.49    6.20
   3  -1   2   62.79    6.00
  -3   1   2  298.27   12.70
   1   2   2  302.97   13.80
  -3   1   2  315.57   14.60
   2  -3   2  302.47   13.60
   1   2   2  292.27   13.70
   2  -3   2  302.07   13.30
   2  -3   2  295.87   13.80
   3  -2   2  300.27   14.00
   3  -2   2  314.07   13.60
   3  -1  -2  313.17   13.50
  -2  -1   2  306.77   14.60
  -1   3   2  300.67   13.60
  -1   3   2  302.47   14.10
   3  -2   2  300.67   13.60
  -2  -1   2  303.37   12.90
   0  -3  -2   10.70    1.80
   0   3   2   14.30    3.00
   3  -3   2   14.00    3.30
   3  -3   2   13.80    3.00
   3   0  -2   16.70    3.00
   3  -3   2   13.80    3.00
   0   3   2   12.00    3.30
  -3   0   2   12.70    2.10
  -3   0   2   18.90    4.40
   4   0   2   78.79    6.00
   0  -4   2   83.09    4.40
   4  -4  -2   82.39    5.80
   0  -4   2   82.79    4.80
  -4   4   2   84.19    7.20
   4   0   2   88.59    5.10
   0  -4   2   91.89    6.60
   1  -4   2  145.29    8.30
   3  -4  -2  139.59    5.90
   3   1   2  154.68    8.00
   1  -4   2  136.59    6.70
   1  -4   2  143.69    7.00
   3   1   2  135.39    7.30
  -4   3   2  137.29    6.10
  -4   3   2  144.89    8.60
   4  -1   2  157.18   10.60
  -1  -3   2  138.69    6.80
   4  -1   2  143.49    7.90
  -3  -1  -2  143.99    6.70
   4  -3  -2  152.88    7.70
   4  -1   2  133.19    7.10
  -3   4   2  154.38    7.60
  -1  -3   2  144.99    8.40
  -3   4   2  125.19    8.30
  -4   2   2   46.60    2.70
   2  -4   2   49.90    3.50
   2  -4   2   41.70    4.20
   2   2   2   45.90    4.40
   2  -4  -2   48.70    2.50
   2   2   2   50.79    4.70
  -4   2   2   45.10    5.70
   2   2  -2   56.59    3.60
   2  -4   2   50.99    5.40
   4  -2  -2   50.69    4.60
  -2  -2   2   46.50    3.40
  -2   4   2   54.49    4.60
  -2  -2   2   37.70    5.50
   4  -2   2   49.30    4.80
   4  -2   2   46.80    4.00
   4  -2   2   46.30    5.90
  -2  -2  -2   48.70    3.10
  -2   4   2   41.60    5.30
   1   3   2  771.42   32.30
   3  -4   2  786.62   32.00
   3  -4   2  760.62   32.20
   1  -4  -2  736.13   31.30
   1   3   2  759.92   32.30
  -4   1   2  731.83   31.40
   3   1  -2  782.92   32.00
  -4   1   2  792.52   33.10
   3  -4   2  762.22   32.40
  -1   4   2  775.02   32.20
  -3  -1   2  803.22   33.00
   4  -3   2  764.32   32.30
   4  -3   2  789.42   32.70
  -1  -3  -2  755.62   31.40
  -3  -1   2  741.63   31.60
   4  -1  -2  808.52   32.20
  -1   4   2  763.62   32.60
   4  -3   2  777.82   32.10
   4  -4   2 1215.88   48.80
   4   0  -2 1204.48   48.50
   0   4   2 1153.18   48.70
   0   4   2 1172.88   48.60
  -4   0   2 1133.79   47.80
   4  -4   2 1166.28   48.50
   0  -4  -2 1123.59   47.70
  -4   0   2 1243.28   49.30
   5   0   2   33.20    3.10
   5  -5  -2   44.30    4.90
  -5   5   2   26.20    4.70
   0  -5   2   36.00    5.40
  -5   0  -2   34.80    3.30
   5   0   2   42.40    5.20
   0  -5   2   31.10    3.50
  -5   4   2    5.30    1.00
   1  -5   2    8.80    2.20
   1   4  -2    6.20    1.90
   1  -5   2    7.10    1.60
   1  -5   2   14.10    3.80
   4   1   2   11.70    2.40
   4   1   2    6.30    3.30
  -5   4   2    8.10    4.00
   5  -1   2   10.00    2.10
  -1  -4   2    9.60    4.00
  -4   5   2    8.70    4.10
   5  -1   2    3.90    3.50
   5  -1   2    2.90    6.20
   5  -4  -2    7.70    3.50
  -1  -4   2    9.50    2.10
  -4  -1  -2    7.00    1.90
   3   2   2  234.78   11.30
   3  -5  -2  215.38    9.40
   2  -5   2  232.28   10.60
   2  -5   2  237.18   11.50
   2  -5   2  222.58   10.10
  -5   3   2  225.18    9.60
  -5   3   2  235.68   12.00
   3   2   2  228.68   10.70
   2   3  -2  221.28   10.30
  -3  -2  -2  233.08   10.20
   5  -3  -2  230.68   11.30
   5  -2   2  229.78   11.50
  -3   5   2  227.68   10.90
   5  -2   2  230.28   10.30
  -2  -3   2  233.48   11.80
  -2  -3   2  240.98   10.40
  -3   5   2  236.28   11.70
   5  -2   2  231.68   12.90
   2   3   2  928.31   37.90
   3  -5   2  927.61   37.60
   3  -5   2  913.91   37.30
  -5   2   2  859.21   36.80
  -5   2   2  935.71   38.50
   2  -5  -2  846.92   36.60
   2   3   2  885.01   37.60
   3   2  -2  900.11   37.30
   5  -2  -2  927.11   37.90
   5  -3   2  897.81   38.50
  -2   5   2  915.31   38.20
  -3  -2   2  950.40   38.40
   5  -3   2  904.31   37.30
  -3  -2   2  883.01   37.10
  -2  -3  -2  899.71   37.00
  -2   5   2  922.11   37.70
   5  -3   2  893.81   38.00
   1  -5  -2   21.30    2.10
   4  -5   2   22.00    3.30
  -5   1   2   24.60    2.30
   4  -5   2   22.80    4.00
  -5   1   2   23.90    4.70
  -5   4  -2   36.00    9.40
   1   4   2   29.40    4.30
   1   4   2   23.70    4.40
   4   1  -2   31.90    4.30
  -1  -4  -2   23.60    2.40
   5  -4   2   21.30    4.00
  -4  -1   2   24.10    2.70
   5  -4   2   21.40    4.00
  -1   5   2   22.40    4.10
  -4   5  -2   26.70   10.80
  -1   5   2   27.00    4.10
   5  -1  -2   26.30    4.40
  -4  -1   2   21.00    4.50
   5   0  -2 2234.18   91.19
  -5   5  -2 2294.87   94.39
  -5   0   2 2209.48   90.39
   0   5   2 2167.88   91.09
  -5   0   2 2326.17   91.89
   0   5   2 2250.67   91.39
   5  -5   2 2224.98   91.29
   0  -5  -2 2173.38   90.29
   5  -5   2 2251.57   91.39
  -6   6   2  168.88    9.40
   6  -6  -2  145.09    8.60
   0  -6   2  149.99    8.00
   6   0   2  170.28    6.90
   6   0   2  155.18    9.10
   0   6  -2  128.49    6.50
   1   5  -2  143.69    6.90
  -6   5   2  156.18    9.40
   1  -6   2  160.38    7.50
   1  -6   2  148.79    6.60
   5  -6  -2  122.19    9.00
   5   1   2  160.28    7.20
  -5   6   2  127.49    9.90
  -1  -5   2  161.78    7.40
   6  -5  -2  144.29    8.70
  -1  -5   2  146.29    9.80
   6  -1   2  156.68    9.00
   6  -1   2  158.18    6.80
  -5  -1  -2  164.88    7.30
   2  -6   2  159.78    7.80
   2   4  -2  143.09    7.60
  -6   4   2  151.38    6.70
  -6   4   2  148.59    9.30
   2  -6   2  157.78    7.20
   4   2   2  156.68    8.80
   4   2   2  157.58    7.70
  -2  -4   2  163.38    7.60
  -4  -2  -2  162.98    7.40
   6  -4  -2  159.08    9.00
   6  -2   2  168.58   12.50
   6  -2   2  162.88    9.30
  -2  -4   2  175.38    9.80
  -2   6  -2  141.99   21.40
  -4   6   2  157.88    9.60
   3   3  -2   23.80    4.00
   3   3   2   32.60    4.00
   3  -6   2   40.70    4.00
  -6   3   2   33.00    5.70
   3   3   2   33.30    5.20
  -6   3  -2   59.09    9.50
  -6   3   2   35.10    2.30
   3  -6  -2   35.30    2.10
   3  -6   2   35.40    3.40
   6  -3   2   39.30    5.30
  -3  -3  -2   37.10    2.90
  -3   6   2   38.10    4.40
  -3  -3   2   38.70    3.30
   6  -3   2   46.50    6.50
  -3   6  -2   38.00   12.80
   6  -3  -2   33.70    5.10
  -3  -3   2   35.30    5.50
  -3   6   2   36.90    5.80
   2   4   2 1573.34   63.79
   4  -6   2 1491.95   63.29
  -6   4  -2 1570.24   65.59
   2   4   2 1522.55   63.49
  -6   2   2 1487.95   62.69
   2  -6  -2 1505.45   62.59
   4   2  -2 1531.75   63.49
  -6   2   2 1640.84   64.39
   4  -6   2 1572.44   63.59
  -2   6   2 1515.75   63.49
  -2   6   2 1586.54   64.09
   6  -4   2 1554.94   64.49
  -4   6  -2 1606.14   68.29
   6  -4   2 1542.85   63.99
  -2  -4  -2 1503.55   62.79
  -4  -2   2 1585.24   64.19
  -4  -2   2 1528.05   62.99
   6  -2  -2 1576.64   63.99
  -6   1   2 2668.13  106.59
   1   5   2 2583.04  105.99
   5   1  -2 2717.83  106.09
   5  -6   2 2612.74  105.99
  -6   5  -2 2674.93  108.19
   1  -6  -2 2562.14  104.99
   5  -6   2 2289.97  106.59
  -6   1   2 2625.24  105.19
   1   5   2 2633.54  105.99
  -1  -5  -2 2579.94  105.09
   6  -5   2 2338.07  107.19
  -5  -1   2 2605.14  105.29
  -1   6   2 2588.54  106.29
  -5   6  -2 2755.42  109.49
  -1   6   2 2578.64  105.89
   6  -1  -2 2758.72  106.39
   6  -5   2 2632.24  106.39
  -5  -1   2 2672.83  106.69
   0   6   2    4.70    3.80
  -6   0   2   -1.30    4.40
   6   0  -2    7.40    4.40
   6  -6   2    8.30    4.00
   0  -6  -2    2.30    1.60
  -6   6  -2    9.30    8.10
   0   6   2    2.40    5.10
   6  -6   2    1.80    3.10
  -6   0   2   14.00    2.10
   7   0   2    1.80    4.10
   0  -7   2   -0.60    2.10
  -7   0  -2   -2.10    2.10
  -7   7   2   -2.20    4.10
   7  -7  -2    8.20    4.30
   0   7  -2  -23.90   15.10
   6   1   2  151.28    7.00
  -7   1  -2  145.19    7.30
   6  -7  -2  149.29    8.90
  -7   6   2  153.98    9.80
   1   6  -2  133.49    6.80
   1  -7   2  145.89    7.60
   6   1   2  155.18    9.10
  -1  -6   2  159.18    9.50
  -6  -1  -2  156.98    7.50
  -1  -6   2  154.58    7.70
   7  -1   2  152.88    9.60
   7  -6  -2  145.79    9.10
  -1   7  -2  165.78   20.70
  -6   7   2  154.48    9.50
  -7   5   2  202.78   11.00
   5   2   2  182.08    8.60
   5   2   2  184.98   10.10
   2  -7   2  196.78    9.10
   2  -7   2  176.88    8.00
  -7   2  -2  174.98    9.70
   2   5  -2  177.48    8.90
  -7   5   2  186.88    7.80
   5  -7  -2  168.08    9.50
   7  -5  -2  179.48   10.30
  -5   7   2  197.48   10.70
  -2   7  -2  179.08   19.30
  -2  -5   2  205.78   10.60
  -5  -2  -2  194.38    8.70
   7  -2   2  189.98   11.10
   3  -7   2  694.43   28.40
   4   3   2  656.13   28.20
  -7   3  -2  665.53   29.30
  -7   4   2  682.23   27.50
   4   3   2  672.03   29.00
   3   4  -2  654.13   28.40
   4  -7  -2  637.24   27.30
   3  -7   2  668.13   27.80
  -3  -4   2  696.73   28.20
  -3   7  -2  668.13   35.00
   7  -3   2  663.93   30.30
  -4  -3  -2  686.73   28.00
  -3  -4   2  686.03   29.40
  -4   7   2  675.53   29.70
   7  -3   2  707.63   31.10
  -7   4  -2 1540.55   61.89
   3  -7  -2 1418.26   59.69
   4  -7   2 1514.95   60.79
   4  -7   2 1429.76   60.39
  -7   3   2 1535.75   59.99
   3   4   2 1307.67   61.49
   4   3  -2 1508.95   60.89
   3   4   2 1474.05   60.69
  -4   7  -2 1538.95   65.69
   7  -4   2 1525.25   62.29
   7  -4   2 1577.54   61.79
  -3  -4  -2 1441.66   60.09
  -4  -3   2 1344.47   62.19
  -4  -3   2 1485.45   60.29
   7  -3  -2 1553.64   61.49
   5  -7   2   20.70    4.10
  -7   5  -2   18.30    6.70
   2  -7  -2   18.30    2.20
   5   2  -2   22.20    4.50
   5  -7   2   20.20    3.70
  -7   2   2   19.60    2.60
   2   5   2   17.70    4.30
   2   5   2   23.10    4.00
  -5  -2   2   20.90    2.90
   7  -5   2   25.80    5.20
  -2   7   2   24.40    4.70
  -5  -2   2   25.80    5.60
  -5   7  -2   28.20   10.60
   7  -2  -2   27.10    5.00
  -2  -5  -2   20.00    2.70
   7  -5   2   23.10    4.80
  -2   7   2   23.70    5.00
  -7   6  -2 3372.66  136.59
   6  -7   2 3341.07  134.99
   1   6   2 3345.47  134.89
  -7   1   2 3249.07  136.09
   6  -7   2 3200.08  134.99
   6   1  -2 3296.37  135.19
  -7   1   2 3391.26  134.09
   1   6   2 3434.96  135.19
  -1   7   2 3255.87  134.69
   7  -6   2 3238.68  135.29
   7  -1  -2 3367.36  135.39
  -6  -1   2 3400.86  135.59
  -1   7   2 3443.56  135.39
  -6   7  -2 3410.26  137.79
  -6  -1   2 3350.96  134.19
  -1  -6  -2 3052.69  133.89
   7  -6   2 3306.47  135.39
  -7   0   2 4191.28  169.48
   7  -7   2 4109.49  170.68
  -7   7  -2 4313.07  172.28
   7  -7   2 4183.38  170.58
   0   7   2 4441.16  170.78
  -7   0   2 4170.38  170.78
   0   7   2 4070.79  170.08
   7   0  -2 4125.09  170.68
   0   8  -2  247.18   25.50
   8  -8  -2  238.38   13.20
  -8   0  -2  242.78   11.20
   0  -8   2  252.07   11.40
   8   0   2  233.48   13.20
  -8   8   2  247.88   13.20
   1   7  -2  139.19   22.40
  -8   7   2  150.18   10.40
   7  -8  -2  148.09    9.70
   7   1   2  154.58    9.80
   7   1   2  155.88    7.00
   1  -8   2  159.18    8.00
  -8   1  -2  161.38    7.80
  -7   8   2  154.18   10.40
  -1  -7   2  164.38    8.10
  -1   8  -2  152.28   20.30
   8  -7  -2  154.88   10.10
   8  -1   2  155.88   10.10
  -7  -1  -2  163.28    8.00
  -8   6   2  295.57   12.30
   2  -8   2  301.87   13.40
   2   6  -2  290.87   13.00
   6  -8  -2  297.27   14.40
   6   2   2  288.37   12.90
  -8   2  -2  301.17   13.20
  -8   6   2  287.37   15.00
   6   2   2  291.97   14.50
  -6  -2  -2  291.77   13.10
   8  -6  -2  297.37   15.20
  -2  -6   2  301.87   13.30
   8  -2   2  292.97   15.20
  -2   8  -2  302.07   25.00
  -6   8   2  304.97   14.90
  -2  -6   2  314.47   15.00
   3  -8   2  623.14   25.40
  -8   3  -2  590.34   25.60
  -8   5   2  609.34   27.30
   5  -8  -2  589.74   24.90
   3  -8   2  612.34   26.10
   5  -8  -2  616.24   26.50
   3   5  -2  607.04   26.20
  -8   5   2  607.34   25.20
   5   3   2  615.94   26.90
   5   3   2  584.94   25.80
  -3  -5   2  628.54   25.90
  -5  -3  -2  619.84   25.80
   8  -3   2  623.44   27.60
   8  -5  -2  616.34   27.40
   8  -3   2  636.24   29.70
  -3   8  -2  663.03   34.90
  -3  -5   2  638.24   27.30
  -5   8   2  622.74   27.30
  -8   4   2  296.17   14.80
   4  -8  -2  288.97   12.20
   4  -8   2  279.07   13.00
   4   4   2  290.57   14.30
   4   4   2  294.47   13.50
   4  -8   2  293.97   13.50
   4   4  -2  288.77   14.10
  -8   4   2  303.57   12.50
  -8   4  -2  292.67   14.00
  -4  -4   2  307.17   15.00
  -4   8  -2  284.97   21.30
  -4  -4  -2  273.87   13.10
   8  -4  -2  297.17   15.20
  -4  -4   2  298.97   13.10
  -4   8   2  303.97   13.80
   8  -4   2  299.97   17.00
  -4   8   2  301.47   14.80
   8  -4   2  292.47   15.20
   5  -8   2 1761.32   70.59
   3   5   2 1725.33   70.69
   3   5   2 1769.72   70.59
  -8   3   2 1773.62   69.69
  -8   3   2 1768.92   71.39
   5  -8   2 1677.03   70.39
  -8   5  -2 1722.73   71.09
   3  -8  -2 1693.43   69.49
   5   3  -2 1785.32   70.99
  -3  -5  -2 1639.54   69.79
  -3   8   2 1717.03   70.59
  -3   8   2 1750.72   71.29
   8  -3  -2 1702.33   71.39
   8  -5   2 1808.32   72.19
   8  -5   2 1674.43   71.59
  -5   8  -2 1453.85   76.59
  -5  -3   2 1753.42   71.19
   2  -8  -2 3526.25  139.29
   2   6   2 3395.36  140.39
  -8   6  -2 3581.94  141.29
  -8   2   2 3630.14  141.09
  -8   2   2 3632.34  139.59
   2   6   2 3655.63  140.69
   6  -8   2 3470.35  140.39
   6  -8   2 3299.07  140.39
   6   2  -2 3541.45  140.79
   8  -6   2 2998.60  141.79
  -6   8  -2 3643.04  143.59
  -2   8   2 3677.43  141.09
  -2  -6  -2 3351.76  139.49
  -2   8   2 3396.06  140.19
   8  -2  -2 3034.20  141.69
   8  -6   2 3404.86  141.19
  -6  -2   2 3505.25  139.79
   7  -8   2  270.87   14.30
  -8   1   2  276.37   14.60
  -8   1   2  281.77   12.30
   1   7   2  275.87   13.50
   1  -8  -2  270.67   11.90
  -8   7  -2  294.27   16.20
   7  -8   2  262.07   13.60
   1   7   2  268.37   14.20
   7   1  -2  290.07   15.30
  -1   8   2  281.07   14.60
  -1  -7  -2  270.77   12.20
   8  -7   2  274.07   14.60
  -7   8  -2  293.07   18.40
  -1   8   2  272.37   13.20
  -7  -1   2  282.97   12.50
  -7  -1   2  265.27   14.20
   8  -7   2  259.47   14.30
   0  -8  -2 1229.98   50.79
  -8   0   2 1247.58   52.59
  -8   8  -2 1244.08   53.99
   8  -8   2 1199.68   52.59
   0   8   2 1281.37   52.49
   8  -8   2 1277.27   52.29
   8   0  -2 1205.48   52.89
   0   8   2 1219.78   51.69
  -8   0   2 1286.87   51.09
   0   9  -2  412.66   28.80
   0  -9   2  402.16   17.70
   9   0   2  404.06   19.70
  -9   0  -2  398.06   17.60
  -9   9   2  411.06   19.70
   9  -9  -2  396.46   19.60
   8  -9  -2   41.00    6.80
  -9   8   2   24.70    1.90
  -9   8   2   26.60    5.60
   8   1   2   36.50    6.20
  -9   1  -2   30.30    4.00
   1   8  -2   19.70   17.20
   1  -9   2   39.40    4.30
   9  -1   2   22.80    5.80
  -8  -1  -2   27.30    3.70
  -8   9   2   26.80    6.10
  -1   9  -2   28.30   15.20
   9  -8  -2   31.40    6.40
  -1  -8   2   32.10    3.90
  -9   7   2  240.68   10.00
  -9   7   2  229.68   13.00
   2   7  -2  243.88   26.30
   7  -9  -2  235.38   12.50
   7   2   2  234.08   10.50
   7   2   2  226.18   12.70
  -9   2  -2  227.48   10.90
   2  -9   2  241.18   11.40
   9  -2   2  246.08   14.10
   9  -7  -2  270.67   13.90
  -2   9  -2  231.88   22.00
  -2  -7   2  233.68   11.10
  -7  -2  -2  237.18   10.90
  -7   9   2  232.58   13.30
  -9   3  -2  114.29    6.50
   6   3   2  120.29    8.40
   3  -9   2  122.59    6.80
   6   3   2  118.09    6.50
  -9   6   2  121.69    8.80
   6  -9  -2  103.49    7.90
  -9   6   2  122.79    5.50
   3  -9   2  115.19    5.50
   6  -9  -2  114.89    5.20
   3   6  -2  122.19    6.90
  -6  -3  -2  115.19    6.60
  -3  -6   2  119.39    8.80
  -6   9   2  124.09    9.70
  -3   9  -2  125.59   20.10
   9  -6  -2  113.79    9.60
   9  -3   2  111.79    9.60
  -3  -6   2  133.09    6.90
   5  -9  -2  683.53   29.30
   4  -9   2  700.33   29.00
   5  -9  -2  653.53   27.80
  -9   5   2  727.13   28.10
   4  -9   2  644.64   28.30
   5   4   2  685.53   28.90
   4   5  -2  690.33   29.20
  -9   4  -2  658.93   28.20
  -9   5   2  708.73   30.20
  -4   9  -2  674.03   35.80
   9  -4   2  687.23   31.00
  -4  -5   2  678.63   28.70
  -5  -4  -2  677.33   28.50
   9  -5  -2  685.33   30.60
   9  -4   2  670.23   32.50
  -5   9   2  694.43   30.30
  -4  -5   2  674.03   30.00
   4   5   2 1499.75   62.59
   5  -9   2 1499.55   62.19
   4  -9  -2 1397.06   61.09
  -9   4   2 1566.74   63.29
   5  -9   2 1431.86   61.99
  -9   4   2 1538.35   61.39
   5   4  -2 1532.95   62.69
   4   5   2 1561.74   62.39
  -9   5  -2 1527.65   62.19
   9  -5   2 1502.15   63.59
  -4  -5  -2 1459.25   61.59
   9  -5   2 1543.25   64.69
  -5  -4   2 1547.75   63.09
  -5   9  -2 1559.44   67.39
  -4   9   2 1534.15   63.19
  -5  -4   2 1477.45   61.79
   9  -4  -2 1537.55   63.49
  -4   9   2 1504.95   62.39
   3   6   2  248.88   12.80
   6  -9   2  259.37   13.00
   6   3  -2  265.37   14.10
  -9   6  -2  261.77   13.80
   6  -9   2  253.47   12.50
   3   6   2  271.67   13.50
  -9   3   2  252.27   13.60
   3  -9  -2  258.37   11.20
  -9   3   2  276.07   11.60
  -3   9   2  256.47   12.80
  -3  -6  -2  249.58   11.70
   9  -6   2  253.57   15.30
   9  -3  -2  251.17   14.80
  -3   9   2  270.67   14.00
   9  -6   2  241.58   14.40
  -6  -3   2  261.57   11.80
  -6   9  -2  250.37   18.50
  -6  -3   2  251.07   13.60
  -9   7  -2 1057.69   44.10
   7  -9   2 1031.60   43.10
   7   2  -2 1007.20   44.00
   2   7   2 1014.30   43.00
   2  -9  -2 1020.50   41.90
  -9   2   2 1056.29   44.00
   7  -9   2 1000.20   43.60
  -9   2   2 1017.00   42.10
   2   7   2 1052.29   43.70
   9  -7   2 1024.60   44.30
  -2   9   2 1035.20   43.00
  -2   9   2 1041.80   43.90
  -7  -2   2 1057.89   42.40
   9  -2  -2 1022.20   44.40
  -2  -7  -2  911.51   42.50
  -7   9  -2  979.30   46.70
  -7  -2   2 1063.09   43.90
   9  -7   2 1032.10   44.20
   1  -9  -2 1777.02   74.39
  -9   1   2 1847.92   76.09
   8   1  -2 1857.61   76.69
  -9   1   2 1780.52   74.59
   8  -9   2 1848.22   75.79
   1   8   2 1773.02   75.29
   1   8   2 1876.71   76.09
  -9   8  -2 1885.91   76.79
   8  -9   2 1855.41   76.39
   9  -8   2 1848.62   76.29
  -8  -1   2 1820.32   74.69
  -1   9   2 1904.01   76.29
   9  -1  -2 1825.12   76.69
  -8  -1   2 1888.31   76.19
   9  -8   2 1829.82   76.59
  -1  -8  -2 1769.32   74.39
  -1   9   2 1806.92   75.29
  -8   9  -2 1763.52   78.19
   0  -9  -2  132.79    7.00
   0   9   2  133.49   10.80
  -9   0   2  142.49    7.40
   9  -9   2  137.39    9.50
   9   0  -2  144.49   11.50
   9  -9   2  129.99   11.40
  -9   0   2  132.99   10.30
   0   9   2  129.29    8.10
  -9   9  -2  145.49   12.60
 -10   0  -2  117.99    7.10
   0 -10   2  114.89    6.90
   0  10  -2  101.99   18.90
 -10  10   2  110.59    5.10
 -10  10   2  111.39    9.40
  10   0   2  125.29   10.00
  10 -10  -2  129.59   10.20
   1 -10   2  681.13   29.20
 -10   9   2  701.53   30.80
 -10   9   2  671.83   28.00
   9   1   2  686.13   30.70
 -10   1  -2  683.43   29.00
   1   9  -2  678.93   39.30
   9 -10  -2  687.73   30.70
  -9  10   2  665.63   30.70
  10  -9  -2  709.33   31.30
  -9  -1  -2  692.73   29.00
  -1  10  -2  653.03   38.20
  -1  -9   2  714.13   29.30
  10  -1   2  703.63   31.10
 -10   2  -2  249.18   11.60
 -10   8   2  243.88   13.60
   8   2   2  243.58   10.90
   8 -10  -2  246.18   13.50
   8 -10  -2  230.98   11.20
   8   2   2  251.07   13.60
   2 -10   2  260.87   11.90
   2   8  -2  228.88   26.00
 -10   8   2  249.58   10.60
  10  -8  -2  254.77   14.80
  -8  10   2  246.78   13.90
  -2  10  -2  313.77   25.20
  10  -2   2  257.77   14.70
  -8  -2  -2  261.97   11.80
  -2  -8   2  257.17   11.80
   3   7  -2   31.00    3.10
   3 -10   2   23.50    3.90
   7   3   2   30.00    5.20
   7 -10  -2   32.20    2.50
 -10   7   2   30.10    5.60
   7   3   2   34.50    3.70
 -10   7   2   20.70    2.50
   7 -10  -2   29.80    5.80
 -10   3  -2   23.30    3.50
  -3  -7   2   36.60    4.40
  10  -7  -2   23.10    6.80
  -3  10  -2   39.00   13.90
  -7  10   2   19.80    5.80
  -7  -3  -2   21.70    4.10
  10  -3   2   23.70    6.30
   4   6  -2  273.67   12.80
   4 -10   2  257.57   11.60
 -10   6   2  268.57   11.50
 -10   6   2  267.47   14.40
   4 -10   2  268.27   12.50
   6 -10  -2  267.97   13.70
   6   4   2  280.27   13.70
   6 -10  -2  263.07   11.20
   6   4   2  270.87   12.50
  -4  -6   2  263.97   12.20
  10  -6  -2  255.77   15.20
  -6  -4  -2  264.97   12.10
  -4  10  -2  236.68   22.40
  10  -4   2  254.27   15.10
  -4  -6   2  257.87   14.10
  -6  10   2  259.17   14.30
   5 -10  -2   49.50    5.90
   5   5   2   55.19    6.20
   5 -10  -2   47.30    3.10
 -10   5  -2   48.50    4.40
   5 -10   2   50.99    4.90
   5   5   2   48.70    5.80
 -10   5   2   48.00    3.70
 -10   5   2   49.10    7.50
   5   5  -2   59.39    7.20
   5 -10   2   45.20    5.10
  10  -5   2   48.80    8.40
  10  -5  -2   65.89    9.60
  -5  -5  -2   47.40    4.10
  -5  -5   2   55.89    6.90
  -5  10   2   53.69    8.20
  10  -5   2   62.79   10.20
  -5  10  -2   83.69   15.30
  -5  -5   2   55.79    4.70
   6 -10   2  417.76   18.70
   4   6   2  404.66   19.00
 -10   4   2  420.16   17.80
   4   6   2  411.56   19.50
   4 -10  -2  394.76   17.40
 -10   6  -2  396.66   18.60
   6 -10   2  407.06   19.10
 -10   4   2  410.26   20.10
   6   4  -2  424.16   20.00
  -4  10   2  419.46   20.20
  -6  -4   2  414.96   18.20
  10  -6   2  437.36   21.00
  -6  10  -2  397.76   24.30
  -4  -6  -2  403.26   18.00
  -4  10   2  420.56   18.90
  10  -4  -2  439.26   21.10
  -6  -4   2  435.76   20.10
  10  -6   2  432.76   22.60
   7   3  -2 1219.58   52.49
   3   7   2 1299.17   52.29
 -10   3   2 1244.78   50.59
 -10   3   2 1250.87   52.39
   7 -10   2 1229.48   51.99
   3   7   2 1175.48   51.49
   7 -10   2 1224.18   51.49
   3 -10  -2 1186.48   50.29
 -10   7  -2 1258.07   51.79
  -7  10  -2 1236.28   55.39
  -3  10   2 1237.88   51.39
  10  -3  -2 1220.28   53.19
  -3  -7  -2 1187.48   50.59
  -7  -3   2 1250.67   52.29
  -7  -3   2 1263.37   50.89
  10  -7   2 1257.57   53.39
  -3  10   2 1244.98   52.49
  10  -7   2 1244.38   53.29
   2   8   2   90.19    7.10
   2 -10  -2  101.69    5.60
 -10   2   2   98.79    6.10
 -10   8  -2  119.99   10.00
   8 -10   2  108.89    9.80
 -10   2   2  104.19    8.60
   8   2  -2  104.79   10.80
   2   8   2   98.99    9.20
   8 -10   2  100.69    7.50
  -2  10   2  108.69    7.30
  10  -2  -2  121.69   12.50
  10  -8   2   84.29    9.30
  -2  -8  -2  104.99    6.10
  10  -8   2  100.59   11.60
  -8  -2   2  100.89    9.00
  -8  10  -2  100.49   12.30
  -8  -2   2   95.59    6.20
  -2  10   2  110.19   10.10
 -10   1   2  547.25   25.10
   9   1  -2  523.65   26.40
   1 -10  -2  521.35   22.80
 -10   1   2  546.45   23.10
   1   9   2  565.64   25.60
   1   9   2  519.75   23.80
 -10   9  -2  547.15   25.90
   9 -10   2  544.45   24.60
  10  -9   2  537.35   25.40
  -1  10   2  534.65   25.60
  10  -1  -2  536.45   26.90
  10  -9   2  525.05   26.50
  -9  -1   2  558.24   25.10
  -1  -9  -2  536.15   22.90
  -9  10  -2  551.84   27.20
  -9  -1   2  548.85   23.20
  -1  10   2  530.35   23.80
  10 -10   2  775.22   35.80
 -10   0   2  775.92   34.30
 -10  10  -2  797.12   35.70
   0  10   2  785.82   34.80
   0 -10  -2  767.12   32.20
 -10   0   2  773.12   32.50
  10   0  -2  747.73   35.80
   0  10   2  757.52   33.10
  10 -10   2  771.12   34.20
   0 -11   2  955.80   39.40
   0  11  -2  920.91   49.00
 -11  11   2  865.81   38.00
 -11   0  -2  956.30   39.20
  11 -11  -2  988.00   41.70
  11   0   2  940.21   41.30
 -11  11   2  943.31   41.30
 -11  10   2  259.77   14.50
 -11  10   2  256.57   10.90
   1 -11   2  262.57   12.40
  10   1   2  253.27   14.70
   1  10  -2  258.67   25.80
  10 -11  -2  258.97   15.20
 -11   1  -2  263.97   12.20
  -1  11  -2  266.47   25.10
  -1 -10   2  269.87   12.40
  11 -10  -2  249.18   15.70
  11  -1   2  264.37   15.20
 -10  11   2  247.68   15.00
 -10  -1  -2  263.27   12.20
 -10  11   2  243.98   10.70
   9   2   2  152.48   11.10
 -11   9   2  158.78   10.90
 -11   9   2  163.28    7.40
   2 -11   2  165.38    8.80
 -11   2  -2  166.78    8.60
   9 -11  -2  146.99    8.70
   9   2   2  172.38    7.60
   9 -11  -2  176.58   11.30
   2   9  -2  172.58   25.60
  -2  -9   2  171.28    8.80
  11  -2   2  158.98   12.20
  -9  11   2  167.98   11.90
  -9  -2  -2  180.48    9.00
  -2  11  -2  184.28   21.10
  11  -9  -2  171.28   12.80
   3 -11   2  215.28   10.70
   8   3   2  214.68   10.10
 -11   8   2  212.98   13.10
 -11   3  -2  228.88   10.70
   8   3   2  218.18   12.30
   8 -11  -2  216.68    9.80
   8 -11  -2  238.08   13.30
 -11   8   2  215.18    9.60
   3   8  -2  196.28    9.30
   3   8  -2  230.98   28.50
  -3  11  -2  207.28   21.20
  -8  -3  -2  228.48   10.50
  -3  -8   2  231.68   10.80
  11  -8  -2  222.58   14.40
  11  -3   2  209.78   14.10
  -8  11   2  215.98   13.00
 -11   7   2  151.58   10.30
 -11   4  -2  139.09    7.40
   4   7  -2  128.49    7.40
   7 -11  -2  135.89    6.40
   4 -11   2  131.39    7.70
   7   4   2  140.99    9.30
   4 -11   2  131.59    6.50
 -11   7   2  133.79    6.70
   7   4   2  158.68    8.10
   7 -11  -2  116.89    9.10
  -7  11   2  139.39   10.30
  -7  -4  -2  143.09    7.80
  11  -4   2  134.79   11.40
  -4  11  -2  165.78   18.80
  11  -7  -2  144.19   12.30
  -4  -7   2  140.39    7.50
   6   5   2   42.10    5.90
 -11   5  -2   38.00    2.80
 -11   6   2   35.60    6.20
   5 -11   2   42.60    4.70
   6 -11  -2   31.20    2.70
   6 -11  -2   34.90    6.00
   5 -11   2   30.80    4.40
 -11   6   2   29.10    3.30
   5   6  -2   39.80    6.20
   6   5   2   27.70    5.10
  -5  -6   2   39.20    7.00
  -5  -6   2   41.10    4.20
  11  -5   2   31.00    7.30
  -6  11   2   37.90    7.10
  -6  -5  -2   25.80    4.00
  -5  11  -2   34.10   12.40
  11  -6  -2   41.40    8.40
   6 -11   2  196.58   10.40
   5   6   2  219.78   11.80
   6   5  -2  202.38   12.30
   5 -11  -2  198.18   11.00
   6 -11   2  211.28   11.00
 -11   6  -2  186.98    9.70
   5 -11  -2  190.78    9.00
   5   6   2  192.48   11.00
 -11   5   2  201.68   12.40
 -11   5   2  203.58    9.50
  -5  -6  -2  199.48    9.70
  -5  11   2  207.58   12.70
  -6  11  -2  223.78   19.60
  -6  -5   2  205.98   10.10
  11  -6   2  192.38   13.70
  11  -5  -2  208.68   15.20
  11  -6   2  200.78   15.70
  -6  -5   2  214.78   12.50
 -11   4   2   53.19    4.40
   4   7   2   53.19    6.60
   7 -11   2   74.19    8.00
 -11   7  -2   61.79    6.10
 -11   4   2   47.20    7.80
   4   7   2   66.69    7.80
   7 -11   2   45.30    5.40
   4 -11  -2   48.70    3.60
   7   4  -2   61.89    8.50
  -4  11   2   51.39    8.10
  -4  11   2   49.60    5.70
  -4  -7  -2   52.09    4.90
  -7  11  -2   75.29   12.90
  11  -7   2   77.49   12.30
  11  -7   2   52.09    8.70
  11  -4  -2   57.69   10.60
  -7  -4   2   68.79    8.20
  -7  -4   2   56.59    5.20
 -11   3   2  345.47   14.80
   8 -11   2  324.77   17.60
   8 -11   2  317.47   16.10
 -11   8  -2  311.67   16.40
   3   8   2  353.86   17.50
   8   3  -2  317.97   18.30
   3 -11  -2  323.77   14.40
 -11   3   2  327.47   17.00
   3   8   2  321.57   15.80
  -3  -8  -2  332.47   14.90
  11  -8   2  304.77   18.20
  11  -8   2  347.37   18.90
  -8  -3   2  335.77   15.00
  -3  11   2  325.67   15.90
  -3  11   2  349.47   17.60
  11  -3  -2  351.26   19.30
  -8  11  -2  332.97   20.30
  -8  -3   2  326.27   16.70
   2   9   2  598.34   27.00
   9 -11   2  543.55   25.60
 -11   2   2  581.74   24.50
   9   2  -2  567.94   27.60
   2 -11  -2  572.54   24.20
   9 -11   2  580.94   27.70
   2   9   2  564.44   25.30
 -11   2   2  570.54   26.40
 -11   9  -2  573.44   26.50
  11  -9   2  574.74   27.10
  -2  11   2  571.24   25.30
  11  -9   2  577.44   28.60
  -9  -2   2  552.34   26.10
  -2  11   2  573.54   26.90
  -9  -2   2  581.84   24.60
  -2  -9  -2  561.34   24.40
  11  -2  -2  556.04   28.10
  -9  11  -2  606.44   29.30
   1  10   2   14.60    4.20
   1 -11  -2   14.10    2.80
  10 -11   2    6.80    4.70
 -11   1   2   12.90    3.30
  10   1  -2   12.70    8.10
  10 -11   2   14.40    8.10
   1  10   2   22.50    7.20
 -11   1   2    8.30    5.50
  11 -10   2   20.00    8.10
  11  -1  -2   14.10    8.30
  -1  11   2    9.30    6.60
  11 -10   2   12.30    5.90
 -10  -1   2   12.80    6.10
 -10  11  -2   24.20    8.90
 -10  -1   2    9.90    3.10
  -1  11   2   17.60    4.80
  -1 -10  -2   11.20    3.00
 -11   0   2  289.57   16.20
 -11   0   2  304.07   13.90
  11 -11   2  305.67   16.20
  11   0  -2  274.47   18.10
   0 -11  -2  302.07   13.60
   0  11   2  291.27   14.90
 -11  11  -2  282.07   18.00
  11 -11   2  306.17   19.60
   0  11   2  304.67   17.60
 -12   0  -2   33.30    5.60
 -12  12   2   32.30    7.80
  12   0   2   38.40    8.00
   0  12  -2   24.70   17.40
 -12  12   2   44.00    2.80
  12 -12  -2   36.50    9.40
   0 -12   2   38.60    5.60
 -12  11   2  454.25   19.80
 -12   1  -2  479.65   21.00
  11   1   2  481.15   23.60
   1 -12   2  469.25   21.20
 -12  11   2  474.35   23.70
   1  11  -2  462.75   33.40
  11 -12  -2  527.25   24.60
 -11  12   2  440.06   19.70
 -11  -1  -2  499.45   21.10
  12  -1   2  494.55   24.10
  -1 -11   2  496.95   21.40
  12 -11  -2  501.25   24.80
  -1  12  -2  482.95   32.20
 -11  12   2  473.05   23.60
   2  10  -2  867.31   46.30
  10 -12  -2  850.31   37.00
 -12   2  -2  827.32   34.80
   2 -12   2  842.22   35.10
  10 -12  -2  754.52   35.00
 -12  10   2  812.12   36.60
  10   2   2  822.02   36.80
 -12  10   2  796.52   33.80
  -2  12  -2  834.02   43.80
  -2 -10   2  813.82   35.00
 -10  -2  -2  857.21   34.90
 -10  12   2  831.82   37.20
  12 -10  -2  844.22   37.90
  12  -2   2  868.51   37.80
   9   3   2  122.99   10.50
   9 -12  -2  118.29    6.80
   3   9  -2  107.69   21.10
   9   3   2  130.99    6.50
 -12   3  -2  115.99    7.00
   3 -12   2  120.09    7.30
 -12   9   2  110.39   10.30
   9 -12  -2  111.79   10.10
 -12   9   2  108.29    6.00
  -3  12  -2  165.08   20.50
  -9  -3  -2  125.89    7.30
  12  -3   2  121.09   11.90
  -9  12   2  117.49   10.30
  -3  -9   2  127.49    7.50
  12  -9  -2  140.69   13.10
   8   4   2  129.39    7.30
 -12   8   2  111.89    6.00
   4   8  -2  127.49   22.60
 -12   8   2  113.29    9.40
   8 -12  -2  120.59    9.70
   8 -12  -2  111.59    6.00
   4 -12   2  118.29    7.50
   4   8  -2  103.09    6.10
 -12   4  -2  117.59    7.00
   8   4   2  112.29    9.70
  -4  -8   2  118.69    7.10
  -4  12  -2  115.29   18.60
  12  -4   2  119.49   11.80
  12  -8  -2  113.89   12.80
  -8  12   2  120.79   10.10
  -8  -4  -2  123.99    7.10
 -12   7   2  161.18   10.90
 -12   5  -2  155.38    8.40
   7   5   2  151.88   10.20
   5   7  -2  151.98    9.00
   7 -12  -2  167.08   11.10
   5 -12   2  169.78    8.50
   7   5   2  183.48   10.00
 -12   7   2  154.18    7.90
   5 -12   2  164.68    9.00
   7 -12  -2  165.08    7.60
  12  -7  -2  159.88   13.50
  12  -5   2  170.98   13.10
  -7  12   2  169.68   11.70
  -7  -5  -2  167.28    8.70
  -5  -7   2  164.38    8.80
  -5  12  -2  191.28   19.00
   6   6  -2  192.88   11.80
   6 -12  -2  206.18    9.40
   6   6   2  200.28   11.60
 -12   6   2  222.38   12.60
 -12   6  -2  199.68    9.60
 -12   6   2  211.08    9.90
   6   6   2  233.68   12.50
   6 -12   2  212.28   11.30
   6 -12   2  208.78   10.80
   6 -12  -2  185.88   11.50
  -6  12   2  224.08   13.40
  -6  -6   2  213.88   12.70
  12  -6   2  216.38   15.00
  -6  12  -2  221.18   19.40
  -6  -6   2  222.68   10.70
  12  -6  -2  214.58   15.70
  -6  -6  -2  214.58   10.50
   5 -12  -2   16.40    2.80
 -12   5   2   18.70    5.80
   5 -12  -2   21.60    5.50
   7   5  -2   24.20    6.30
   5   7   2   26.80    5.90
 -12   7  -2   30.70    4.60
   7 -12   2   20.40    4.10
   5   7   2   20.50    4.80
   7 -12   2   23.70    5.70
 -12   5   2   12.80    2.80
  12  -7   2   10.50    8.80
  12  -7   2   13.70    8.00
  -7  -5   2   17.60    3.60
  -5  12   2   17.60    6.90
  12  -5  -2   22.60    8.90
  -5  -7  -2   15.80    3.40
  -7  12  -2   22.50   11.40
  -7  -5   2   17.20    6.10
   4 -12  -2  103.29    5.80
   8 -12   2   97.39    7.60
   4   8   2  125.49   10.40
 -12   8  -2   96.29    8.00
   8 -12   2  128.29   11.40
 -12   4   2  107.39    6.50
   8   4  -2  115.99   11.60
   4   8   2  104.89    7.90
 -12   4   2  108.79    9.90
  12  -4  -2  106.29   13.20
  -8  12  -2  126.19   14.70
  -4  -8  -2  107.79    6.60
  -8  -4   2  115.59   10.10
  -4  12   2  104.29   10.60
  -8  -4   2  110.19    7.10
  12  -8   2  117.39   14.10
  12  -8   2  116.79   12.50
   9   3  -2   10.00    7.60
 -12   3   2    2.30    5.90
   3   9   2   15.00    6.60
   9 -12   2    2.90    4.10
   3 -12  -2    6.90    2.30
   9 -12   2   14.10    7.60
 -12   9  -2    5.60    5.00
   3   9   2    7.80    4.70
 -12   3   2    2.40    2.70
  -9  -3   2    1.00    5.70
  12  -9   2    9.70    8.80
  -3  12   2    1.70    6.70
  -9  12  -2    4.70    9.70
  12  -9   2    1.00    7.40
  -9  -3   2    6.50    3.50
  -3  -9  -2    7.30    3.10
  -3  12   2    9.00    4.60
  12  -3  -2    1.50    8.50
   2  10   2  237.48   15.20
  10   2  -2  233.08   16.60
 -12   2   2  235.68   14.20
  10 -12   2  237.68   16.60
 -12   2   2  241.08   11.50
   2 -12  -2  232.88   11.00
  10 -12   2  237.78   13.20
   2  10   2  222.98   12.30
 -12  10  -2  240.78   14.20
 -10  12  -2  260.87   17.20
 -10  -2   2  234.68   13.90
  12  -2  -2  239.68   18.70
  -2  12   2  216.58   15.60
 -10  -2   2  235.28   11.70
  -2 -10  -2  231.88   11.40
  -2  12   2  224.38   12.40
  12 -10   2  255.87   17.50
  12 -10   2  233.78   15.70
 -12   1   2  135.59   11.30
   1 -12  -2  149.99    8.00
  11 -12   2  161.58   15.40
  11 -12   2  151.28   10.80
  11   1  -2  151.18   15.10
   1  11   2  136.89    9.80
 -12   1   2  146.69    8.40
   1  11   2  139.09   12.10
 -12  11  -2  149.99   12.60
 -11  -1   2  138.29    8.10
  12  -1  -2  156.98   16.30
  -1 -11  -2  134.99    8.10
 -11  -1   2  136.39   11.30
  -1  12   2  148.69    9.30
  12 -11   2  144.69   11.90
  12 -11   2  155.68   16.40
  -1  12   2  144.09   12.40
 -11  12  -2  150.48   14.20
   0  12   2   46.40    9.70
   0  12   2   39.60    6.40
 -12  12  -2   44.80    9.10
 -12   0   2   55.09    5.90
  12   0  -2   52.49   11.30
   0 -12  -2   46.80    5.10
  12 -12   2   50.19    8.10
 -12   0   2   48.30    9.00
  12 -12   2   61.09   11.70
 -13   0  -2  582.34   25.00
   0  13  -2  576.54   36.50
 -13  13   2  552.44   23.60
 -13  13   2  564.34   27.70
   0 -13   2  574.94   25.10
  13   0   2  579.94   28.00
  13 -13  -2  578.74   29.10
   1 -13   2  828.82   35.40
  12   1   2  860.51   37.80
 -13  12   2  827.32   37.60
 -13  12   2  800.42   34.00
   1  12  -2  769.12   45.80
 -13   1  -2  819.42   35.10
  12 -13  -2  843.12   38.30
 -12  13   2  759.42   33.90
 -12  -1  -2  859.21   35.30
  13 -12  -2  874.71   39.60
  13  -1   2  883.31   38.20
  -1  13  -2  868.31   45.40
 -12  13   2  830.02   37.60
  -1 -12   2  839.32   35.40
  11   2   2   60.69    9.60
 -13  11   2   68.09    4.10
 -13  11   2   64.99    9.10
  11 -13  -2   91.49   11.50
 -13   2  -2   69.59    5.90
   2 -13   2   71.99    6.00
   2  11  -2   47.00   19.90
 -11  13   2   51.69    9.40
  13 -11  -2   90.09   13.60
  -2 -11   2   72.49    6.40
  -2  13  -2   70.19   17.80
  13  -2   2   57.89   11.40
 -11  -2  -2   74.89    6.10
  10   3   2  392.96   20.10
 -13  10   2  375.46   16.20
   3 -13   2  386.46   17.60
  10 -13  -2  368.26   17.10
 -13  10   2  365.36   20.00
 -13   3  -2  364.46   17.10
  10   3   2  369.26   16.30
   3  10  -2  384.36   33.80
  10 -13  -2  404.86   20.90
  -3  13  -2  343.47   29.40
  13 -10  -2  391.66   22.20
  13  -3   2  398.56   21.40
  -3 -10   2  406.46   17.70
 -10  -3  -2  397.56   17.50
 -10  13   2  361.86   19.90
   9   4   2  306.97   16.30
   9 -13  -2  324.97   17.60
 -13   4  -2  308.27   14.30
 -13   9   2  311.27   17.00
   9 -13  -2  307.07   13.80
   4   9  -2  298.17   29.50
 -13   9   2  296.07   13.50
   9   4   2  328.17   14.40
   4 -13   2  323.97   14.90
   4   9  -2  280.37   13.20
  13  -9  -2  302.37   19.50
  -9  -4  -2  305.27   14.40
  -4  -9   2  322.47   14.80
  -4  13  -2  330.07   25.10
  -9  13   2  306.37   17.70
  13  -4   2  318.37   18.80
 -13   8   2  246.18   14.60
   8   5   2  287.57   13.20
 -13   8   2  243.08   11.30
 -13   5  -2  250.07   12.10
   5   8  -2  235.08   29.20
   8   5   2  237.28   13.70
   5 -13   2  254.57   12.50
   8 -13  -2  258.77   15.00
   8 -13  -2  245.48   11.10
   5   8  -2  221.88   11.70
  13  -8  -2  247.58   18.00
  -5  13  -2  289.67   22.70
  -8  -5  -2  246.18   12.10
  -5  -8   2  251.27   12.40
  13  -5   2  231.78   16.40
  -8  13   2  242.48   14.90
 -13   7   2   41.40    4.60
   7   6   2   53.99    7.90
   6 -13   2   70.49    6.60
   7   6   2   81.29    8.20
 -13   7   2   47.30    8.40
   7 -13  -2   49.00    4.00
   6   7  -2   46.90    6.70
   6 -13   2   43.90    5.50
 -13   6  -2   53.89    5.40
 -13   6  -2   61.89    3.80
   7 -13  -2   58.79    7.70
  13  -6   2   67.19   10.20
  -7  -6  -2   58.49    5.80
  -7  13   2   57.09    8.70
  -6  13  -2   79.69   14.80
  13  -7  -2   65.19   11.00
  -6  -7   2   54.19    5.70
 -13   6   2   38.80    4.50
   7 -13   2   72.39    8.80
   6   7   2   76.59    9.10
   6   7   2   36.10    6.40
 -13   7  -2   43.90    4.40
   7 -13   2   51.09    6.20
   6 -13  -2   36.80    6.20
   7   6  -2   44.20    6.70
 -13   6   2   50.29    7.50
   6 -13  -2   46.10    3.80
  -7  -6   2   56.49    5.80
  -7  13  -2   51.59   13.30
  13  -6  -2   56.39   11.10
  -6  -7  -2   51.39    5.10
  -6  13   2   49.80    8.80
  13  -7   2   61.39   10.10
  -7  -6   2   49.60    8.20
   8 -13   2   81.29    7.40
   5 -13  -2   79.09    7.90
   5   8   2   74.39    7.40
 -13   5   2   80.29    8.60
   8   5  -2   79.79   10.60
   8 -13   2   89.09   10.80
 -13   8  -2   98.49    6.90
   5 -13  -2   84.89    5.20
   5   8   2  105.39   10.60
  -8  -5   2   86.39    6.60
  13  -5  -2   85.99   16.20
  -8  -5   2   90.49    9.00
  13  -8   2   72.89   14.50
  -8  13  -2  118.79   15.60
  -5  13   2   87.89   11.60
  13  -8   2  106.09   14.10
  -5  -8  -2   86.99    6.20
 -13   9  -2   50.99    6.90
   4   9   2   41.50    8.00
   9 -13   2   73.49   10.70
 -13   4   2   39.10    5.00
 -13   4   2   34.00    7.20
   9   4  -2   47.30    8.80
   4   9   2   39.60    7.30
   9 -13   2   37.10    6.30
   4 -13  -2   42.60    4.20
  -9  13  -2   45.70   11.60
  13  -9   2   41.20   10.00
  13  -4  -2   53.49   12.30
  -4  -9  -2   35.30    4.80
  -9  -4   2   44.30    5.10
  -4  13   2   36.00    8.70
  13  -9   2   39.90   10.00
  -9  -4   2   35.30    7.50
   3  10   2   91.79    7.60
 -13   3   2   77.79    9.60
 -13   3   2   86.59    6.30
  10 -13   2   76.19    8.10
  10   3  -2   81.19   12.50
   3 -13  -2   87.79    5.50
  10 -13   2  114.89   12.80
   3  10   2   88.89   11.30
 -13  10  -2   80.79    9.20
  -3  13   2   92.89    8.30
  13 -10   2   72.99   11.70
 -10  13  -2  123.19   15.60
  13 -10   2  112.49   16.10
  -3 -10  -2   90.39    6.50
 -10  -3   2   91.49    6.90
 -10  -3   2   84.89    9.00
  -3  13   2   81.99   11.00
  13  -3  -2   77.89   14.30
   2  11   2   52.59    8.90
  11 -13   2   73.69   13.50
   2 -13  -2   56.29    5.30
 -13   2   2   59.09    9.00
 -13  11  -2   55.79    9.60
 -13   2   2   50.99    5.70
   2  11   2   55.39    7.60
  11   2  -2   65.09   11.10
  11 -13   2   50.49    7.70
  13  -2  -2   73.39   14.00
  13 -11   2   83.89   14.30
  13 -11   2   58.69    9.40
 -11  13  -2   55.69   10.90
 -11  -2   2   57.09    6.10
  -2 -11  -2   56.99    5.70
 -11  -2   2   63.59    8.70
  -2  13   2   60.89   10.10
  -2  13   2   55.09    7.60
   1 -13  -2  152.68    8.20
  12 -13   2  134.99   11.80
   1  12   2  144.19   10.20
  12 -13   2  162.28   16.70
  12   1  -2  135.89   14.80
 -13   1   2  141.99    8.60
   1  12   2  126.09   13.60
 -13   1   2  150.18   11.80
 -13  12  -2  145.19   12.90
 -12  -1   2  142.79    8.70
  13 -12   2  161.98   16.00
 -12  -1   2  137.99   11.40
  13 -12   2  136.49   12.30
  -1 -12  -2  151.38    8.40
  -1  13   2  145.89   10.30
  -1  13   2  129.19   12.90
  13  -1  -2  121.29   15.20
 -12  13  -2  167.68   14.70
 -13   0   2   -3.20    6.20
   0  13   2   -4.10    4.40
  13 -13   2   17.20   10.60
 -13   0   2    0.00    3.30
  13 -13   2   -0.60    6.70
 -13  13  -2   13.20    8.20
  13   0  -2   -9.20    9.20
   0 -13  -2    3.40    3.60
   0  13   2    3.40    8.10
   0  14  -2  952.00   49.99
  14   0   2  981.50   43.00
 -14  14   2  908.01   38.70
 -14  14   2  948.11   42.60
   0 -14   2  934.21   40.10
  14 -14  -2  961.70   44.00
 -14   0  -2  954.70   39.90
 -14  13   2   59.49    9.30
   1 -14   2   56.09    6.20
  13 -14  -2   81.89   15.00
   1  13  -2   60.39   19.20
  13   1   2   65.59   11.00
 -14  13   2   76.19    4.10
 -14   1  -2   56.79    6.20
 -13  14   2   74.39    3.90
 -13  -1  -2   60.59    6.40
  -1 -13   2   67.89    6.40
  14  -1   2   76.69   11.60
 -13  14   2   58.89    9.10
  14 -13  -2   61.49   11.90
  -1  14  -2   68.29   19.80
   2 -14   2  370.86   17.30
 -14   2  -2  378.66   17.20
   2  12  -2  382.16   33.90
  12 -14  -2  378.06   21.20
 -14  12   2  369.86   15.90
 -14  12   2  368.16   20.10
  12   2   2  368.86   20.00
  -2 -12   2  374.46   17.20
  14 -12  -2  379.46   23.00
 -12  -2  -2  377.46   17.20
  14  -2   2  375.76   21.50
  -2  14  -2  391.96   30.60
 -12  14   2  346.77   19.70
 -14  11   2  553.64   26.50
   3 -14   2  552.14   24.40
 -14   3  -2  545.75   24.10
  11 -14  -2  576.94   27.30
   3  11  -2  527.65   39.90
  11   3   2  555.04   26.60
  11 -14  -2  524.55   24.40
 -14  11   2  551.54   23.20
  14  -3   2  565.44   28.30
 -11  -3  -2  575.94   24.30
  14 -11  -2  569.14   28.80
  -3  14  -2  560.84   35.80
  -3 -11   2  555.74   24.40
 -11  14   2  552.94   27.30
  10 -14  -2   88.19   10.80
  10   4   2   72.89    9.30
 -14   4  -2   82.49    6.30
   4  10  -2  108.49   22.40
  10 -14  -2   86.79    6.40
 -14  10   2   71.89   10.00
 -14  10   2   78.29    5.10
   4 -14   2   75.99    6.90
  14 -10  -2  118.29   15.20
 -10  -4  -2   81.59    7.10
  -4  14  -2   93.79   17.70
  -4 -10   2   86.29    6.60
  14  -4   2   78.99   12.70
 -10  14   2   81.19   10.50
   9   5   2  127.29   10.30
   9 -14  -2  126.29   11.20
   5 -14   2  118.99    8.30
 -14   9   2  113.69   10.10
   9 -14  -2  125.69    7.00
 -14   5  -2  116.09    7.40
   9   5   2  149.09    8.90
   5   9  -2  115.89   23.30
   5   9  -2  112.49    6.90
 -14   9   2  112.89    6.70
  14  -9  -2  125.79   15.80
  -9  -5  -2  137.79    7.90
  -9  14   2  108.99   12.10
  -5  -9   2  123.09    8.20
  14  -5   2  113.69   13.80
  -5  14  -2  159.68   22.80
 -14   8   2   54.99    9.50
 -14   6  -2   47.20    5.30
   8   6   2   49.40    7.70
   8 -14  -2   58.59    4.40
   6 -14   2   54.99    6.30
   6   8  -2   81.79   25.00
 -14   8   2   50.39    4.80
   8 -14  -2   70.99   10.30
   6   8  -2   51.59    6.00
  -8  14   2   58.69    9.10
  -6  -8   2   53.89    6.10
  -6  14  -2   88.69   16.60
  14  -6   2   62.69   10.90
  -8  -6  -2   61.39    5.70
  14  -8  -2   60.79   12.30
   7   7  -2   73.09    8.10
   7 -14   2   74.99    6.70
   7 -14  -2   75.39    5.00
 -14   7   2   71.89    9.90
   7 -14   2   99.69    9.40
 -14   7   2   69.69    5.70
   7   7   2   74.49    7.90
   7   7  -2   76.09   24.40
 -14   7  -2   72.09    5.80
 -14   7  -2   76.79    5.10
   7 -14  -2   70.79    9.60
  -7  14  -2  109.49   19.10
  14  -7   2   89.09   13.70
  -7  -7  -2   93.69    6.90
  -7  -7   2   94.09    6.90
  14  -7  -2   81.99   15.50
  -7  14   2   66.49   10.80
   8 -14   2  166.48   12.80
 -14   6   2  123.89    7.60
   6 -14  -2  127.99    7.00
   8   6  -2  130.19   10.70
   6   8   2  167.98   11.80
   6 -14  -2  134.89   10.70
   6   8   2  130.89    9.50
 -14   8  -2  133.09    7.80
   8 -14   2  137.09    9.10
 -14   6   2  135.69   11.20
  -8  14  -2  136.89   17.20
  14  -6  -2  120.39   16.20
  14  -8   2  140.79   15.20
  -6  14   2  121.29   12.00
  -6  -8  -2  127.59    8.10
  -8  -6   2  127.29    8.10
 -14   9  -2   14.90    4.30
   9   5  -2   21.00    7.30
   5 -14  -2   13.90    2.80
   5 -14  -2   25.80    6.20
   9 -14   2   29.30    8.00
   5   9   2   20.00    7.60
 -14   5   2   12.20    3.30
 -14   5   2   12.60    6.40
   9 -14   2    8.40    4.60
   5   9   2   14.30    5.10
  14  -5  -2   30.90   11.40
  -9  -5   2   13.80    6.60
  -9  14  -2   19.40   12.20
  -9  -5   2   17.90    4.20
  14  -9   2   16.80    9.40
  -5  -9  -2   13.60    4.00
  -5  14   2   22.60    8.10
  14  -9   2   13.30   10.20
 -14   4   2    2.00    6.60
   4  10   2    3.10    4.60
 -14   4   2   -4.30    3.00
 -14  10  -2    4.10    4.70
   4  10   2   -3.20    7.20
  10 -14   2   22.40    9.00
   4 -14  -2    1.70    2.80
  10   4  -2   -2.30    7.60
  10 -14   2    0.60    4.90
 -10  14  -2   11.40   11.60
 -10  -4   2    6.20    6.30
  14 -10   2    3.40    9.60
  14  -4  -2   -3.20   10.80
  -4  14   2    3.80    8.20
  14 -10   2   14.20   10.30
 -10  -4   2    5.50    3.90
  -4 -10  -2    9.30    3.70
   3 -14  -2   80.19    5.80
  11 -14   2  112.19   14.50
 -14  11  -2   85.79    9.50
   3  11   2   61.09   11.30
  11 -14   2   76.09    8.60
 -14   3   2   78.29    6.50
   3  11   2   74.49    7.60
  11   3  -2   77.29   13.50
 -14   3   2   69.59    9.80
  -3  14   2   68.39   11.40
 -11  -3   2   98.19   10.50
 -11  14  -2   75.59   13.40
  14 -11   2   75.29   12.70
 -11  -3   2   80.79    7.00
  -3  14   2   89.69    8.80
  -3 -11  -2   80.99    6.20
  14 -11   2  126.09   17.80
  14  -3  -2   94.29   15.40
 -14   2   2   78.29   10.30
   2 -14  -2   80.09    6.40
  12 -14   2   83.29   10.00
   2  12   2   79.69   12.40
  12 -14   2  121.29   15.80
 -14  12  -2   87.09   10.70
  12   2  -2   92.69   15.00
   2  12   2   80.89    8.60
 -14   2   2   77.99    6.60
  14  -2  -2   92.59   14.30
 -12  14  -2   96.79   14.30
  14 -12   2  124.99   18.00
 -12  -2   2   73.99    6.60
  -2  14   2   87.69   12.70
  -2 -12  -2   95.39    6.90
 -12  -2   2   79.19   10.20
  14 -12   2   75.39   12.70
  -2  14   2   88.19    8.50
   1  13   2   95.39    9.00
   1  13   2   77.29   11.70
 -14   1   2  105.09   10.90
  13 -14   2  108.29   15.10
  13   1  -2   75.49   14.20
   1 -14  -2   93.79    7.00
 -14   1   2   87.79    6.80
  13 -14   2   91.69   11.20
 -14  13  -2  115.29   11.60
  14  -1  -2   87.29   15.40
  14 -13   2   92.49   12.90
 -13  14  -2   95.79   13.30
 -13  -1   2   89.79   10.70
  -1 -13  -2   98.59    7.20
  -1  14   2   94.49   13.50
  14 -13   2  134.09   18.10
 -13  -1   2   98.09    7.40
  -1  14   2   90.89    8.40
 -14   0   2   16.90    4.20
  14 -14   2   27.90   12.30
  14   0  -2   10.50   11.60
 -14   0   2   21.70    7.80
  14 -14   2   18.20    8.00
   0  14   2   14.80    9.90
   0 -14  -2   17.70    4.00
 -14  14  -2   19.50    8.40
   0  14   2   23.80    5.80
   0 -15   2   52.39    6.80
  15 -15  -2   49.60   12.00
   0  15  -2   46.30   18.30
 -15   0  -2   61.19    6.40
 -15  15   2   36.70    8.70
  15   0   2   42.30    9.40
 -15   1  -2  467.45   20.60
   1  14  -2  426.36   32.90
  14 -15  -2  467.05   25.80
 -15  14   2  442.96   19.30
  14   1   2  477.05   24.10
   1 -15   2  444.16   20.60
 -15  14   2  467.75   23.90
  15  -1   2  426.66   24.10
  -1  15  -2  432.36   31.70
 -14  -1  -2  448.86   20.40
 -14  15   2  438.06   23.20
  15 -14  -2  450.35   26.00
  -1 -14   2  462.05   20.80
   2  13  -2  633.14   39.50
  13 -15  -2  618.94   31.30
   2 -15   2  625.24   27.60
 -15  13   2  605.54   26.20
  13   2   2  629.04   30.10
 -15  13   2  660.23   30.40
 -15   2  -2  612.84   27.30
 -13  15   2  620.94   30.30
  15 -13  -2  663.13   32.70
  -2 -13   2  617.94   27.50
  -2  15  -2  635.44   39.50
  15  -2   2  650.03   31.30
 -13  -2  -2  645.64   27.50
 -15   3  -2   74.69    6.90
  12   3   2   64.99   10.30
  12 -15  -2   91.59   14.50
   3 -15   2   81.99    6.70
 -15  12   2   64.69   10.80
   3  12  -2   95.39   22.60
 -15  12   2   77.29    4.70
  12 -15  -2   53.19    8.90
  15 -12  -2  102.09   15.80
 -12  -3  -2   77.29    6.80
 -12  15   2   60.79    9.80
  15  -3   2   73.79   11.20
  -3 -12   2   71.59    6.60
  -3  15  -2  105.49   20.00
 -15   4  -2  239.68   12.10
  11   4   2  224.88   15.60
   4 -15   2  247.48   12.50
  11 -15  -2  249.18   16.20
 -15  11   2  247.18   11.10
  11 -15  -2  242.68   12.70
 -15  11   2  228.38   14.90
   4  11  -2  206.58   31.60
  -4  15  -2  247.08   24.00
  15  -4   2  230.08   17.80
 -11  15   2  250.17   16.40
 -11  -4  -2  250.97   12.50
  15 -11  -2  257.47   20.00
  -4 -11   2  264.47   12.60
   5 -15   2  111.09    8.00
 -15  10   2   97.39    6.20
 -15   5  -2  104.89    7.10
  10   5   2   93.29   10.00
 -15  10   2   95.69   10.00
  10 -15  -2  112.09    7.20
   5  10  -2  131.59   23.70
   5  10  -2  101.19    6.00
  10 -15  -2  109.69   11.50
 -10  -5  -2  125.99    8.10
  15 -10  -2  100.19   16.40
 -10  15   2   92.99   11.20
  15  -5   2   98.69   14.20
  -5  15  -2  146.79   20.50
  -5 -10   2  100.89    7.30
 -15   6  -2   78.69    6.70
   9   6   2   71.99    8.70
 -15   9   2  100.19   10.70
   6   9  -2   82.59   22.50
   6   9  -2   80.29    6.40
   9 -15  -2   72.49   10.30
   9 -15  -2   78.59    5.50
   6 -15   2   81.39    7.20
 -15   9   2   65.19    5.40
  -9  -6  -2   88.29    6.80
  -9  15   2   74.39   10.90
  -6  -9   2   78.69    7.10
  -6  15  -2   97.19   16.50
  15  -9  -2   99.69   16.60
  15  -6   2   71.39   13.30
   8   7   2   84.79    9.70
 -15   7  -2   65.39    5.90
 -15   8   2   68.49    9.20
   8   7   2   74.99    8.60
   7   8  -2   64.49    7.20
   7   8  -2   67.99   23.80
   8 -15  -2   69.39    5.10
   7 -15   2   74.69    7.20
   8 -15  -2   91.89   11.20
  -8  15   2   62.19   11.10
  15  -7   2   73.59   14.10
  -7  15  -2  100.59   18.00
  -7  -8   2   67.09    6.30
  15  -8  -2   82.29   13.80
  -8  -7  -2   77.49    6.50
 -15   7   2   50.89    8.00
   8 -15   2   52.49    6.90
 -15   8  -2   47.20    5.20
   7   8   2   42.70    7.30
   7   8   2   90.59   10.70
   7 -15  -2   55.29    4.60
   7 -15  -2   51.69    9.50
   8   7  -2   68.49    8.50
 -15   8  -2   57.39    5.00
   8   7  -2   19.00   22.90
 -15   7   2   37.60    5.10
  -8  -7   2   56.19    5.90
  -7  -8  -2   56.29    6.00
  -7  15   2   41.80    9.20
  -8  15  -2   52.79   14.10
  15  -7  -2   52.79   12.70
  15  -8   2   59.09   12.70
   6   9   2   48.40    9.10
   9 -15   2   25.60    5.10
   9   6  -2   32.20    7.50
   6   9   2   37.60    6.60
 -15   9  -2   43.30    5.80
   6 -15  -2   23.50    6.40
 -15   6   2   26.80    6.80
 -15   6   2   30.80    4.20
  -9  15  -2   54.09   14.10
  15  -9   2   40.90   11.40
  15  -6  -2   49.10   12.40
  -6  15   2   30.30    8.90
  -6  -9  -2   39.20    6.10
  -9  -6   2   32.60    5.40
   5 -15  -2   52.29    5.00
  10 -15   2  103.09   13.90
 -15  10  -2   69.69    7.60
  10   5  -2   77.29   11.10
   5 -15  -2   64.89    7.80
 -15   5   2   39.90    5.70
 -15   5   2   58.09    9.70
   5  10   2   58.49    8.40
  10 -15   2   63.79    8.10
   5  10   2   42.00    9.60
  15  -5  -2   61.89   13.00
  -5  15   2   62.39   10.70
 -10  15  -2   55.19   12.80
 -10  -5   2   60.09   10.10
 -10  -5   2   59.49    6.10
  15 -10   2   62.99   13.40
  -5 -10  -2   74.29    6.20
  15 -10   2   71.79   13.60
  11   4  -2  114.69   14.20
  11 -15   2  119.79   10.00
  11 -15   2  171.28   17.00
   4 -15  -2  134.99    7.90
 -15   4   2  126.69   11.70
   4  11   2   93.39   13.50
   4  11   2  140.19   10.20
 -15   4   2  126.79    8.40
 -11  15  -2  159.58   16.00
  -4 -11  -2  140.69    8.30
  -4  15   2  120.49   13.00
  15 -11   2  167.58   17.70
 -11  -4   2  144.49   12.20
  15 -11   2  127.29   15.60
 -11  -4   2  147.19    8.70
  15  -4  -2  165.38   17.90
  12 -15   2   17.30    6.40
 -15   3   2   17.30    7.30
 -15  12  -2   25.70    6.50
 -15   3   2   11.60    3.80
   3  12   2   23.30    6.30
   3  12   2    0.20    8.90
  12 -15   2   40.40   11.60
   3 -15  -2   21.10    3.60
  12   3  -2   13.40    9.90
 -12  15  -2   20.60   11.00
  -3  15   2   22.30    6.10
 -12  -3   2   22.30    4.70
  15 -12   2   35.60   12.40
  -3  15   2   10.70    9.40
  15 -12   2   14.90    9.70
  15  -3  -2   16.20   11.50
 -12  -3   2   16.20    7.40
  -3 -12  -2   23.20    4.40
   2  13   2   51.59    8.40
 -15  13  -2   55.89    8.70
  13   2  -2   44.90   11.80
 -15   2   2   40.00    5.90
  13 -15   2   97.99   17.50
 -15   2   2   56.39    9.10
  13 -15   2   54.39    8.40
   2  13   2   25.70    9.80
   2 -15  -2   48.90    5.40
  -2  15   2   45.90   10.30
  15  -2  -2   56.29   14.10
 -13  15  -2   48.00   10.40
 -13  -2   2   63.19   10.20
 -13  -2   2   50.39    6.50
  15 -13   2   36.90    9.80
  -2 -13  -2   50.49    6.20
  -2  15   2   48.80    8.10
  15 -13   2   64.69   13.10
  14 -15   2   51.99    9.20
 -15   1   2   63.99    9.50
   1  14   2   61.49    8.70
 -15   1   2   46.30    5.80
   1 -15  -2   73.59    6.30
 -15  14  -2   65.19   11.90
  14 -15   2   99.59   18.10
   1  14   2   58.99   11.30
  14   1  -2   54.99   13.30
  15 -14   2   40.20    9.60
  -1  15   2   60.99    7.80
  15 -14   2   89.39   16.40
 -14  15  -2   68.79   10.80
  15  -1  -2   57.79   13.00
  -1 -14  -2   69.79    6.60
  -1  15   2   44.10   10.50
 -14  -1   2   56.89   10.40
 -14  -1   2   62.39    6.90
 -15  15  -2   41.50    9.30
  15 -15   2   43.60    9.80
   0  15   2   43.00   10.70
  15 -15   2   52.69   14.00
   0 -15  -2   50.79    6.10
 -15   0   2   50.29    8.90
  15   0  -2   51.39   13.70
   0  15   2   43.70    7.10
 -15   0   2   33.20    5.10
 -16  16   2  300.27   18.20
   0 -16   2  301.17   14.80
  16   0   2  295.27   18.40
 -16   0  -2  294.67   14.60
  16 -16  -2  298.67   20.90
   0  16  -2  298.77   27.00
 -16  15   2  532.45   26.90
  15 -16  -2  546.85   30.50
 -16   1  -2  556.24   24.40
  15   1   2  572.64   27.70
   1 -16   2  562.04   24.70
   1  15  -2  524.05   36.70
 -15  -1  -2  551.44   24.30
  -1 -15   2  546.65   24.50
  -1  16  -2  561.84   35.10
 -15  16   2  523.15   26.90
  16  -1   2  559.14   28.10
  16 -15  -2  525.15   29.80
  14 -16  -2   38.10   11.90
  14   2   2   32.80    9.00
 -16   2  -2   40.10    5.80
 -16  14   2   33.80    8.80
   2  14  -2   29.70   18.50
   2 -16   2   24.40    4.80
  -2 -14   2   39.20    6.50
  16  -2   2   32.80    9.80
 -14  16   2   20.80    8.00
  -2  16  -2   44.40   18.10
  16 -14  -2   41.40   12.50
 -14  -2  -2   31.60    5.40
  13   3   2  269.37   16.60
 -16   3  -2  244.58   12.70
   3 -16   2  268.67   13.10
  13 -16  -2  256.47   19.60
  13 -16  -2  237.38   15.80
   3  13  -2  228.68   27.90
 -16  13   2  247.48   16.60
 -16  13   2  242.68   11.50
  -3 -13   2  260.77   13.00
  16  -3   2  246.68   18.30
  16 -13  -2  243.08   20.60
 -13  16   2  248.88   17.10
 -13  -3  -2  265.27   13.10
  -3  16  -2  286.37   27.60
   4  12  -2  276.97   30.30
 -16   4  -2  265.77   13.10
 -16  12   2  245.98   11.70
  12   4   2  258.77   16.10
  12 -16  -2  252.37   13.90
 -16  12   2  248.28   16.30
  12 -16  -2  254.77   17.60
   4 -16   2  249.08   13.10
  16 -12  -2  252.17   20.80
  -4  16  -2  270.57   27.30
  -4 -12   2  266.87   13.20
 -12  16   2  238.88   16.30
 -12  -4  -2  271.27   13.20
  16  -4   2  260.97   18.90
  11   5   2   60.29    6.90
   5 -16   2   57.39    6.30
 -16   5  -2   42.30    5.70
   5  11  -2   27.20   22.70
 -16  11   2   52.29    9.00
  11 -16  -2   50.79    6.60
  11 -16  -2   44.30    9.40
  11   5   2   45.20    8.10
 -16  11   2   36.10    4.40
  16  -5   2   83.09   14.30
  16 -11  -2   51.99   13.50
  -5  16  -2   67.79   17.00
 -11  -5  -2   65.39    7.10
  -5 -11   2   53.29    6.10
 -11  16   2   40.60    9.20
  10 -16  -2   92.69   13.00
 -16  10   2   86.19   11.20
   6  10  -2  142.99   26.60
   6 -16   2  109.19    8.10
   6  10  -2   87.29    6.60
 -16   6  -2   99.89    7.40
  10   6   2   97.29    9.20
  10 -16  -2   99.79    6.90
  10   6   2  101.99   11.10
 -16  10   2   79.49    6.10
  -6  16  -2  132.89   22.10
  -6 -10   2  100.29    7.80
  16 -10  -2  107.09   19.80
  16  -6   2   92.39   14.50
 -10  -6  -2  108.39    7.60
 -10  16   2   76.39   11.40
   7   9  -2   31.20    6.00
   7   9  -2   11.10   22.50
   9   7   2   30.30    7.20
 -16   9   2   26.50    7.60
   9 -16  -2   34.40    4.50
 -16   9   2   30.40    3.90
   7 -16   2   29.60    5.20
   9   7   2    7.60    6.40
   9 -16  -2   35.60    8.10
 -16   7  -2   24.90    4.40
  -9  16   2   23.30    9.00
  -7  -9   2   24.40    4.60
  -7  16  -2   43.50   15.00
  16  -9  -2   25.80   12.60
  16  -7   2   21.80   10.60
  -9  -7  -2   46.60    6.60
   8   8   2   -3.20    5.80
 -16   8  -2   -0.30    3.70
   8 -16   2    2.80    4.30
   8 -16  -2    1.70    2.70
   8   8   2  -11.60    6.50
   8   8  -2    0.00    4.90
 -16   8   2   -0.90    6.50
   8 -16  -2    6.40    7.70
   8   8  -2    1.60   23.90
  16  -8   2    9.70   10.50
  16  -8  -2    0.00   11.80
  -8  -8  -2    5.30    4.50
  -8  16   2  -11.80    7.70
  -8  16  -2    6.80   13.50
  -8  -8   2    6.70    4.30
 -16   9  -2  142.99    8.50
 -16   7   2  149.69   12.20
   9   7  -2  171.68   30.70
   7 -16  -2  145.79    8.20
   9 -16   2  164.98   10.30
   9   7  -2  159.78   11.50
   7   9   2  102.89   13.50
   7 -16  -2  146.49   11.30
 -16   9  -2  149.59    8.60
 -16   7   2  145.59    8.50
   7   9   2  146.29   10.50
  16  -9   2  167.08   17.50
  -9  -7   2  150.88    9.10
  16  -7  -2  162.88   20.80
  -7  -9  -2  160.68    9.60
  -7  16   2  136.49   13.30
 -16   6   2  140.49   12.30
   6  10   2  150.38   11.20
  10   6  -2  142.69   13.20
   6 -16  -2  155.08   12.40
   6 -16  -2  140.89    8.10
 -16   6   2  132.19    8.60
 -16  10  -2  152.18    9.40
  10 -16   2  150.38   10.70
 -10  -6   2  153.88    9.10
  -6  16   2  141.69   13.50
  -6 -10  -2  168.48    9.20
 -10  16  -2  151.08   19.80
  16 -10   2  169.48   17.60
  16  -6  -2  139.19   18.90
 -16  11  -2   44.30    7.40
   5  11   2   11.60    9.30
  11   5  -2   43.00    9.40
   5 -16  -2   30.70    4.90
  11 -16   2   35.30    6.30
   5  11   2   47.10    7.50
 -16   5   2   28.80    4.70
 -16   5   2   45.50    8.70
   5 -16  -2   39.20    6.90
 -11  -5   2   47.40    6.70
  16 -11   2   41.70   12.40
  -5  16   2   36.00    9.70
  -5 -11  -2   48.00    6.50
  16 -11   2   48.60   12.90
  16  -5  -2   67.29   14.70
 -11  -5   2   52.19    9.00
 -11  16  -2   50.59   13.20
  12   4  -2   79.29   13.10
 -16   4   2   61.59   10.50
   4  12   2   76.79    8.10
   4  12   2   54.79   11.00
 -16  12  -2   81.19    9.70
  12 -16   2  122.69   17.70
  12 -16   2   57.89    8.80
   4 -16  -2   84.49   10.00
   4 -16  -2   70.99    6.20
  16 -12   2  103.59   19.70
  -4  16   2   65.09   11.30
  -4 -12  -2   80.39    7.20
 -12  -4   2   73.99    7.30
 -12  16  -2   89.19   13.60
  16 -12   2   65.79   12.80
 -12  -4   2   86.89   11.00
  16  -4  -2   64.39   13.90
  13   3  -2  133.69   16.30
 -16  13  -2  140.39   11.60
 -16   3   2  113.29    8.30
  13 -16   2  139.19   18.30
   3 -16  -2  127.29    8.10
   3  13   2  101.29   14.60
 -16   3   2  115.29   12.40
  13 -16   2  128.99   11.90
   3  13   2  125.69    9.70
  16  -3  -2  101.09   17.50
 -13  16  -2  135.19   16.40
  -3  16   2  101.99   13.10
  -3 -13  -2  142.39    8.60
 -13  -3   2  131.79    8.80
  16 -13   2  156.18   20.70
 -13  -3   2  125.49   12.00
  16 -13   2  163.78   16.70
   2 -16  -2   14.10    3.90
  14 -16   2   12.30   12.80
  14 -16   2    4.50    7.30
 -16  14  -2   16.10    7.20
 -16   2   2    3.10    4.10
   2  14   2    7.50    5.10
 -16   2   2    4.50    7.30
  14   2  -2    3.00   10.40
   2  14   2   -0.30    8.40
  -2  16   2  -10.40    8.10
 -14  16  -2   16.60    9.10
  16 -14   2   16.20    9.30
  -2 -14  -2   18.10    4.70
  -2  16   2    4.80    5.70
 -14  -2   2   10.90    4.40
 -14  -2   2   14.70    7.60
  16 -14   2   12.50   12.80
  16  -2  -2    9.80   13.10
  15 -16   2   53.19   14.10
   1  15   2   52.29   10.80
 -16  15  -2   63.99    9.60
  15   1  -2   59.39   12.80
   1  15   2   58.49    8.70
  15 -16   2   49.90    9.10
   1 -16  -2   59.89    6.00
 -16   1   2   36.80    6.10
 -16   1   2   44.70    8.60
  16 -15   2   53.49   13.10
 -15  16  -2   59.49   10.20
 -15  -1   2   63.59   10.20
  16 -15   2   61.79   10.80
  -1  16   2   47.80    8.30
  -1 -15  -2   59.79    6.40
  -1  16   2   33.60    9.80
 -15  -1   2   35.60    6.40
  16  -1  -2   48.90   13.70
  16   0  -2  207.08   19.00
   0  16   2  246.68   14.40
 -16   0   2  225.58   12.30
   0  16   2  214.38   17.40
 -16  16  -2  268.57   17.10
  16 -16   2  242.88   22.50
   0 -16  -2  246.18   12.60
 -16   0   2  247.58   15.70
  16 -16   2  225.48   16.50
  17 -17  -2   90.59   15.10
   0  17  -2  113.19   19.70
   0 -17   2   88.59    7.80
 -17   0  -2  104.69    8.20
 -17  17   2   92.59   10.90
  17   0   2  107.39   12.70
   1 -17   2    3.30    3.90
   1  16  -2    2.60   15.50
 -17   1  -2    6.30    4.40
 -17  16   2   -3.50    6.80
  16 -17  -2   -0.50   10.20
  16   1   2    7.20    7.30
  17  -1   2    2.90    8.40
  17 -16  -2   -9.60   10.50
  -1  17  -2   -1.90   14.60
  -1 -16   2   -0.80    3.80
 -16  -1  -2    4.20    4.10
 -16  17   2    2.90    7.20
   2  15  -2  258.17   25.70
  15   2   2  261.57   16.70
  15 -17  -2  240.08   19.20
 -17  15   2  258.27   16.70
   2 -17   2  253.47   13.20
 -17   2  -2  268.07   13.40
  17 -15  -2  241.08   20.60
 -15  17   2  255.27   16.30
  17  -2   2  278.97   18.10
  -2  17  -2  248.08   25.90
  -2 -15   2  269.87   13.30
 -15  -2  -2  262.77   13.20
   3 -17   2  242.08   13.00
  14 -17  -2  248.88   18.40
  14   3   2  256.87   16.40
 -17   3  -2  258.87   13.00
   3  14  -2  252.37   28.80
 -17  14   2  254.97   16.60
 -14  17   2  243.58   16.80
  17 -14  -2  231.58   20.80
  -3 -14   2  253.87   13.20
  -3  17  -2  263.47   24.20
  17  -3   2  250.07   17.90
 -14  -3  -2  256.57   13.00
  13   4   2   19.40    7.50
 -17   4  -2   17.40    4.30
   4  13  -2    8.30   18.00
  13 -17  -2   13.00    9.30
   4 -17   2   16.70    4.60
 -17  13   2    7.20    7.50
  13 -17  -2   13.40    5.50
  17  -4   2   26.50   10.00
 -13  -4  -2   25.30    5.20
  -4 -13   2   17.30    4.50
 -13  17   2    5.90    7.80
  17 -13  -2   13.90   12.90
  -4  17  -2   16.20   15.30
  12 -17  -2  131.89   14.30
   5 -17   2  148.29    9.50
  12 -17  -2  150.48   10.10
 -17   5  -2  130.29    8.60
   5  12  -2  173.48   30.20
 -17  12   2  138.29   12.00
  12   5   2  136.59   11.90
 -17  12   2  131.89    7.60
  -5 -12   2  149.79    9.50
  17  -5   2  142.79   15.90
 -12  -5  -2  147.29    9.60
  17 -12  -2  129.69   18.20
  -5  17  -2  177.58   23.50
 -12  17   2  146.19   12.80
 -17   6  -2   17.10    4.50
  11 -17  -2   25.00    4.60
  11   6   2   22.10    7.10
   6 -17   2   21.00    4.70
 -17  11   2   18.20    7.50
  11 -17  -2   18.60    8.60
  11   6   2   21.10    6.30
 -17  11   2    6.40    4.50
   6  11  -2   16.20   22.40
 -11  17   2   14.60    8.70
 -11  -6  -2   18.80    4.90
  -6 -11   2   16.50    4.40
  17 -11  -2   21.60   13.10
  -6  17  -2   23.90   15.00
  17  -6   2   17.30    9.90
 -17   7  -2   16.40    4.00
   7  10  -2   20.00    4.30
  10 -17  -2   13.60    3.90
 -17  10   2   15.70    3.30
   7  10  -2   -3.30   20.60
   7 -17   2   17.00    5.00
  10   7   2   16.80    6.90
  10 -17  -2   19.10    8.90
 -17  10   2    8.60    7.30
  10   7   2   -2.00    6.00
  -7 -10   2   17.60    4.40
  17  -7   2   18.40   10.80
 -10  17   2   14.70    9.40
  -7  17  -2   16.20   15.20
  17 -10  -2    4.60   14.00
   9   8   2   42.90    8.30
   8   9  -2   50.19   22.30
 -17   8  -2   55.49    5.90
 -17   9   2   49.60    8.60
   9 -17  -2   63.89   12.00
   8 -17   2   65.59    6.90
   9   8   2   35.80    8.70
   9 -17  -2   59.69    6.60
   8   9  -2   64.99    7.10
  -8  -9   2   54.19    6.20
  17  -9  -2   69.39   14.00
  -9  -8  -2   68.99    6.80
  17  -8   2   43.50   12.00
  -9  17   2   58.59   10.90
  -8  17  -2   71.49   15.50
   9 -17   2  132.09    9.30
 -17   9  -2  126.49    8.50
   8 -17  -2  132.49    7.90
   8   9   2  137.39   10.40
   9   8  -2  134.59   15.70
   9   8  -2  143.79   27.80
   8 -17  -2  144.29   12.10
 -17   8   2  125.09   12.20
   8   9   2  121.19   13.40
 -17   8   2  117.39    8.00
  17  -8  -2  119.89   18.40
  -8  -9  -2  136.69    8.70
  17  -9   2  119.59   16.40
  -8  17   2  121.19   12.80
  -9  17  -2  184.08   19.40
  -9  -8   2  143.99    9.30
 -17   7   2   31.60    8.40
  10 -17   2   43.40   16.90
   7  10   2    1.20    8.70
 -17   7   2   24.30    4.10
   7 -17  -2   26.00    7.30
  10   7  -2   30.80    7.60
 -17  10  -2   28.60    4.80
 -17  10  -2   35.10    5.80
  10 -17   2   21.40    5.40
   7  10   2   29.60    7.10
  10   7  -2   38.20   25.90
   7 -17  -2   28.10    4.80
  17  -7  -2   21.50   15.00
  17 -10   2   31.90   12.00
 -10  -7   2   28.80    4.90
  -7  17   2   26.00    9.20
 -10  17  -2   27.80   14.20
  11 -17   2  116.49    9.40
 -17   6   2  110.59   11.80
 -17  11  -2  126.79    9.00
   6 -17  -2  124.79   11.80
   6  11   2   96.19    9.40
 -17   6   2   96.59    7.30
   6 -17  -2  107.49    7.20
  11 -17   2  156.38   16.90
  11   6  -2  118.79   12.30
   6  11   2   68.29   12.90
  -6  17   2  102.49   13.60
  17  -6  -2   87.29   15.20
  -6 -11  -2  118.99    7.90
 -11  -6   2  109.29    8.00
 -11  17  -2  122.09   16.20
  17 -11   2  114.79   19.00
 -17  12  -2  244.58   14.30
   5  12   2  263.97   14.90
   5  12   2  216.48   18.00
   5 -17  -2  254.97   12.70
  12 -17   2  246.68   14.70
  12 -17   2  325.37   22.10
 -17   5   2  265.67   16.50
 -17   5   2  235.98   13.00
   5 -17  -2  276.77   15.50
  12   5  -2  242.58   17.50
 -12  -5   2  273.77   13.50
  -5 -12  -2  270.17   13.50
 -12  17  -2  288.97   21.00
  -5  17   2  241.38   17.00
  17  -5  -2  256.17   23.60
  17 -12   2  265.67   23.50
  17 -12   2  257.77   21.70
   4  13   2   13.60    9.10
   4 -17  -2   24.60    6.50
 -17  13  -2   28.80    6.70
   4 -17  -2   23.50    4.10
  13 -17   2   37.70   12.50
 -17   4   2   18.90    7.50
  13 -17   2   18.50    6.50
   4  13   2   23.20    6.70
  13   4  -2   25.40   10.40
  -4  17   2   18.70    9.10
  17 -13   2   20.60   11.60
  -4 -13  -2   21.50    4.70
  17  -4  -2    8.10   12.10
 -13  17  -2   38.90   11.40
  17 -13   2   19.30   12.40
 -13  -4   2   15.80    4.50
 -13  -4   2   18.40    8.10
   3  14   2   79.29   13.90
   3  14   2   83.79    9.50
 -17  14  -2   95.89   10.60
 -17   3   2   79.49    6.90
 -17   3   2   85.79   11.20
   3 -17  -2   89.39    7.00
  14   3  -2   86.79   14.30
  14 -17   2  100.19   11.30
  14 -17   2  132.39   18.60
  -3  17   2   64.89   10.80
 -14  -3   2   64.89   11.20
  17 -14   2  102.99   15.60
 -14  17  -2  100.49   13.90
  17  -3  -2   92.99   16.90
  17 -14   2  101.79   19.90
 -14  -3   2   81.19    7.00
  -3 -14  -2   90.99    7.00
   2 -17  -2  180.68    9.70
   2  15   2  183.58   12.00
  15 -17   2  142.79   20.70
 -17   2   2  161.18   10.00
   2  15   2  160.78   15.40
 -17   2   2  179.08   14.20
  15 -17   2  182.18   14.60
  15   2  -2  147.49   17.70
 -17  15  -2  188.88   13.40
 -15  17  -2  185.48   15.30
  17  -2  -2  154.38   18.00
  17 -15   2  173.98   21.20
  -2 -15  -2  177.58    9.80
 -15  -2   2  164.08   10.20
 -15  -2   2  167.98   13.40
  17 -15   2  172.88   17.50
  -2  17   2  168.68   12.20
  -2  17   2  145.29   14.20
 -17   1   2   79.59    7.10
  16   1  -2   88.59   16.70
 -17   1   2   89.99   11.20
  16 -17   2   56.79   14.70
  16 -17   2   93.59   12.70
   1  16   2   67.59   11.40
   1 -17  -2   92.09    7.10
 -17  16  -2  107.09   11.10
   1  16   2   83.29    9.20
  17 -16   2   70.79   14.60
  -1  17   2   84.79    9.40
  17  -1  -2   86.49   14.60
 -16  -1   2   61.59    7.00
  17 -16   2   84.39   12.70
  -1 -16  -2   90.69    7.20
 -16  -1   2   60.19   11.30
 -16  17  -2   93.99   13.10
  -1  17   2   73.49   12.90
  17   0  -2   14.00   11.40
 -17  17  -2    7.30    7.50
   0  17   2    1.20    9.10
 -17   0   2   -1.10    4.10
   0 -17  -2    4.70    3.90
  17 -17   2    3.60    8.30
 -17   0   2    8.60    7.60
   0  17   2    8.70    5.70
  17 -17   2  -18.00   12.60
  18 -18  -2   15.30   12.00
 -18   0  -2   23.90    5.20
 -18  18   2   12.60    7.90
   0  18  -2    5.00   18.50
 -18  17   2   15.80    7.70
  17 -18  -2    3.90   11.10
   1  17  -2   19.80   16.10
   1 -18   2   17.80    5.10
 -18   1  -2   22.30    5.10
  17   1   2   12.80    8.20
  -1 -17   2   15.30    4.50
  18 -17  -2    3.60   11.50
 -17  -1  -2   20.50    5.10
 -17  18   2   17.00    7.80
  18  -1   2   25.30    9.10
  -1  18  -2   29.30   15.10
   2  16  -2   65.59   18.90
 -18  16   2   63.49   10.20
   2 -18   2   54.89    6.90
  16   2   2   73.19   11.20
 -18   2  -2   60.49    7.00
  16 -18  -2   57.79   13.00
 -16  18   2   56.59    9.80
  -2  18  -2   63.29   17.20
  18 -16  -2   66.19   14.00
  -2 -16   2   61.59    6.40
 -16  -2  -2   71.29    6.80
  18  -2   2   50.19   10.20
  15   3   2   19.60    7.70
 -18  15   2    4.50    7.10
   3  15  -2    4.00   15.40
 -18   3  -2   12.90    4.40
   3 -18   2   11.60    4.30
  15 -18  -2   -1.10   11.20
  -3 -15   2    9.00    4.30
 -15  -3  -2   18.10    5.00
  -3  18  -2   19.10   14.80
  18 -15  -2   -0.10   11.70
 -15  18   2    2.10    6.80
  18  -3   2    8.50    8.80
  14 -18  -2  123.29   14.70
   4 -18   2  148.29    9.40
  14   4   2  131.59   12.20
 -18   4  -2  141.59    8.90
   4  14  -2  160.68   26.00
 -18  14   2  139.79   12.70
  -4 -14   2  136.49    8.70
 -14  18   2  124.89   12.30
  18 -14  -2  112.99   17.20
 -14  -4  -2  142.79    8.90
  -4  18  -2  149.29   20.30
  18  -4   2  136.99   14.80
  13 -18  -2   37.80    9.90
   5 -18   2   44.60    6.70
  13   5   2   43.90    8.70
 -18   5  -2   42.50    6.20
 -18  13   2   36.00    8.30
   5  13  -2   32.80   18.30
 -13  18   2   34.30    9.00
  18 -13  -2   45.30   13.60
  -5 -13   2   54.59    6.70
  -5  18  -2   48.90   15.00
 -13  -5  -2   43.40    6.20
  18  -5   2   34.60   10.20
   6 -18   2   41.40    6.50
  12   6   2   44.80    8.50
 -18  12   2   29.80    8.00
 -18   6  -2   32.60    6.00
   6  12  -2   25.90   21.10
  12 -18  -2   29.40    9.40
 -12  -6  -2   42.20    6.20
  -6 -12   2   41.20    5.80
  -6  18  -2   47.20   14.80
  18  -6   2   34.00   10.90
  18 -12  -2   31.70   12.60
 -12  18   2   25.40    8.90
 -18  11   2   26.70    7.70
  11 -18  -2   36.60    5.10
  11 -18  -2   23.50    8.60
   7 -18   2   31.60    5.80
   7  11  -2   26.30   19.30
  11   7   2   31.00    7.60
 -18  11   2   27.10    4.10
  11   7   2   49.99    9.60
 -18   7  -2   30.00    4.60
 -11  18   2   34.80    9.40
  18 -11  -2   22.60   12.90
 -11  -7  -2   40.30    6.30
  -7  18  -2   25.80   14.10
  -7 -11   2   31.50    5.20
  18  -7   2   29.20   10.40
 -18  10   2   12.70    3.50
  10   8   2   16.10    6.50
   8 -18   2   16.40    5.00
   8  10  -2   36.10   23.20
  10 -18  -2   10.20    7.80
 -18   8  -2   12.30    3.90
  10 -18  -2   15.50    4.80
   8  10  -2   23.20    4.80
 -18  10   2   10.00    7.10
  10   8   2   14.80    7.40
  18 -10  -2    4.40   11.50
 -10  18   2   12.80    8.90
  -8 -10   2   19.80    4.40
 -10  -8  -2   22.20    5.10
  18  -8   2    5.50   10.00
  -8  18  -2   38.70   14.70
   9 -18   2   15.00    4.80
   9 -18  -2   12.60    3.50
 -18   9   2    9.30    7.40
   9   9  -2    5.50   20.70
 -18   9  -2   17.50    4.20
   9 -18  -2   14.80    7.70
 -18   9   2    9.40    3.70
   9   9   2   24.30    8.50
   9   9   2   10.30    5.70
  -9  18  -2   13.70   13.10
  18  -9   2   14.70   11.00
  -9  18   2    2.80    8.10
  -9  -9  -2   14.40    4.60
  18  -9  -2    2.20   12.10
  -9  -9   2   16.50    4.50
  10   8  -2  145.49   25.70
   8 -18  -2  119.59    7.50
   8  10   2   69.99   12.90
   8  10   2  104.79    9.50
  10   8  -2  112.99   10.20
 -18  10  -2  113.49    7.60
 -18   8   2  119.79    7.60
   8 -18  -2  112.79   12.70
  10 -18   2  109.19    9.20
 -18   8   2  117.89   11.50
  -8  18   2  101.99   12.10
  -8 -10  -2  133.29    8.40
 -10  -8   2  116.59    8.40
 -10  18  -2  138.79   17.30
  18  -8  -2  125.89   18.40
  18 -10   2  103.09   16.70
  11   7  -2  208.98   15.00
   7  11   2  224.68   13.80
   7 -18  -2  215.98   11.30
 -18   7   2  228.58   11.70
 -18   7   2  227.08   15.30
   7  11   2  163.28   16.40
  11   7  -2  187.58   34.70
   7 -18  -2  231.78   15.20
  11 -18   2  230.58   13.50
  11 -18   2  278.07   19.10
 -18  11  -2  223.28   11.50
  -7 -11  -2  225.08   11.90
  -7  18   2  217.08   16.60
 -11  -7   2  236.58   12.30
 -11  18  -2  248.58   20.80
  18 -11   2  235.98   21.80
  18  -7  -2  202.68   20.20
  12   6  -2   81.79   25.10
  12 -18   2   71.89    9.10
 -18   6   2   67.89   10.30
   6 -18  -2   73.29   10.90
   6  12   2   66.59    9.20
   6  12   2   82.29   11.90
  12 -18   2  115.09   16.60
  12   6  -2   99.49   11.90
 -18   6   2   67.29    6.40
 -18  12  -2   79.19    8.30
   6 -18  -2   71.09    6.20
  18 -12   2   87.09   14.10
  -6  18   2   65.79   11.20
 -12  -6   2   77.89    7.40
  -6 -12  -2   73.19    6.80
 -12  18  -2   78.59   14.20
  18  -6  -2   63.39   14.00
   5  13   2  129.09   15.30
  13 -18   2  175.88   19.70
 -18   5   2  146.09   12.80
  13   5  -2  178.28   15.20
   5 -18  -2  157.18    9.10
 -18   5   2  145.89    9.40
 -18  13  -2  161.08   11.20
   5  13   2  171.88   11.60
  13 -18   2  160.08   12.20
   5 -18  -2  179.88   12.50
  -5 -13  -2  162.08    9.80
  -5  18   2  140.39   13.70
 -13  18  -2  168.68   17.30
 -13  -5   2  156.08   10.10
  18 -13   2  149.69   20.00
  18  -5  -2  134.49   18.30
  18 -13   2  145.09   18.60
  14 -18   2  235.08   15.20
   4 -18  -2  251.67   14.30
 -18   4   2  232.48   15.80
   4  14   2  213.78   17.80
   4 -18  -2  233.78   11.80
 -18  14  -2  253.97   14.60
  14 -18   2  208.38   22.60
   4  14   2  234.08   13.50
  14   4  -2  247.98   18.00
 -18   4   2  227.78   12.10
  18  -4  -2  236.68   20.90
 -14  18  -2  248.08   18.20
 -14  -4   2  230.78   12.50
  -4 -14  -2  240.08   12.10
  18 -14   2  235.28   20.40
  -4  18   2  199.48   16.00
  18 -14   2  195.88   21.00
   3 -18  -2   72.69    6.90
 -18  15  -2   96.59   10.40
   3  15   2   65.09   11.90
 -18   3   2   69.79   10.10
   3 -18  -2   76.79    9.90
 -18   3   2   63.09    6.70
  15 -18   2   57.29   14.70
   3  15   2   74.49    9.10
  15 -18   2   90.29   11.20
  15   3  -2   85.59   13.80
 -15  -3   2   72.79    6.60
  -3  18   2   48.00    9.90
  18 -15   2   55.99   16.00
  -3 -15  -2   79.69    7.50
 -15  18  -2   75.29   13.20
 -15  -3   2   63.19   11.00
  18  -3  -2   62.09   14.70
  18 -15   2   70.59   13.30
 -18   2   2   66.39   10.20
   2 -18  -2   58.59    6.70
 -18   2   2   54.69    6.30
 -18  16  -2   57.79   10.30
   2  16   2   60.49   11.40
   2  16   2   53.99    9.20
  16   2  -2   69.69   12.80
  16 -18   2   68.09   12.10
  16 -18   2   21.60   14.50
 -16  18  -2   49.20   10.40
  -2 -16  -2   64.29    6.80
  18 -16   2   25.90   14.30
  18  -2  -2   64.09   14.70
  18 -16   2   61.69   12.80
 -16  -2   2   43.30    9.60
 -16  -2   2   50.99    6.60
  -2  18   2   50.99   10.30
 -18   1   2   69.39    6.90
  17   1  -2   62.29   13.20
   1  17   2   64.59   11.60
 -18   1   2   58.99   10.70
   1 -18  -2   77.19    6.90
 -18  17  -2   84.79   11.00
  17 -18   2   76.59   11.40
   1  17   2   70.69    9.50
  18 -17   2   36.00   15.50
  18 -17   2   84.09   14.90
 -17  18  -2   91.79   12.50
  -1  18   2   63.39    9.90
  18  -1  -2   65.89   13.90
 -17  -1   2   58.19    9.70
  -1  18   2   83.49   12.40
  -1 -17  -2   73.29    7.40
 -17  -1   2   49.50    6.90
 -18  18  -2   33.20    9.30
 -18   0   2    5.30    8.30
   0 -18  -2   24.60    5.10
   0  18   2   26.30    6.80
  18 -18   2   28.60   10.00
 -18   0   2   11.00    4.80
   0  18   2   22.90    9.50
  18 -18   2  -13.60   12.70
  18   0  -2    8.80   11.70
 -19   0  -2   14.20    4.90
 -19  19   2    3.80    9.60
  19   0   2    5.30    8.90
  19 -19  -2    2.60   13.10
   0  19  -2   17.80   16.50
   0 -19   2    8.80    4.40
 -19  18   2   18.10    8.80
   1 -19   2   13.90    4.60
   1  18  -2   -0.40   15.30
  18   1   2    8.60    8.90
 -19   1  -2   12.70    4.90
  -1  19  -2   34.90   15.80
 -18  19   2    2.20    8.90
  19 -18  -2    6.10   12.50
 -18  -1  -2   10.30    5.00
  19  -1   2    6.40    8.30
  -1 -18   2   10.10    4.80
 -19  17   2    6.00    7.50
  17   2   2    9.40    8.80
  17 -19  -2   -6.10   10.90
 -19   2  -2    8.60    4.70
  -2 -17   2    8.60    4.30
  19  -2   2   10.20    8.70
  -2  19  -2   10.30   14.60
 -17  -2  -2   15.30    5.10
 -17  19   2    4.80    7.90
  16   3   2   22.90    9.40
 -19  16   2   13.40    7.50
 -19   3  -2   18.40    4.60
   3 -19   2   26.80    5.40
  16 -19  -2   -0.30   10.10
   3  16  -2    6.40   17.60
  -3 -16   2   18.40    7.20
  19  -3   2   11.10   16.10
 -16  19   2   23.40    8.20
  19 -16  -2    3.30   13.40
 -19   4  -2   10.60    4.30
  15 -19  -2   -8.90   10.80
   4 -19   2    0.90    3.90
 -19  15   2    7.50    7.40
   4  15  -2    2.30   16.40
  15   4   2   12.10    7.30
 -15  -4  -2    9.30    4.80
  19  -4   2   -3.30    8.40
 -15  19   2    2.30    7.30
  -4  19  -2   -5.00   13.80
  19 -15  -2   -6.00   12.70
  -4 -15   2    2.00    4.00
   5 -19   2   35.30    6.40
 -19  14   2   22.60    8.00
  14   5   2   31.50    7.70
  14 -19  -2   19.20   10.10
   5  14  -2   21.50   16.90
 -19   5  -2   35.10    5.40
  19 -14  -2   22.50   13.90
 -14  -5  -2   35.20    6.10
  -5 -14   2   28.20    5.20
  -5  19  -2   49.50   15.40
  19  -5   2   29.60   10.10
 -14  19   2   22.80    8.70
   6  13  -2   58.39   20.20
  13   6   2   42.90    8.40
  13 -19  -2   31.60    9.90
 -19  13   2   33.60    7.80
   6 -19   2   36.20    6.50
 -19   6  -2   44.30    5.70
  19  -6   2   32.40   11.00
 -13  19   2   42.00    9.60
  19 -13  -2   31.00   13.20
 -13  -6  -2   40.50    6.20
  -6 -13   2   37.80    5.80
  -6  19  -2   39.90   14.40
 -19  12   2   -3.00    3.40
  12 -19  -2   -2.50    8.10
 -19   7  -2    2.90    3.60
  12   7   2   12.40    6.30
   7  12  -2    7.90   18.10
   7 -19   2   12.50    4.60
 -19  12   2    8.00    7.40
  19  -7   2    6.40    9.20
 -12  -7  -2    7.40    4.50
  19 -12  -2    0.30   11.50
  -7  19  -2   26.10   13.60
 -12  19   2    4.20    7.70
  -7 -12   2    4.90    3.80
  11   8   2   19.50   11.20
  11 -19  -2    8.80    9.40
   8  11  -2   19.60   21.00
 -19  11   2   15.90    7.80
  11   8   2   13.30    7.10
 -19  11   2   10.10    3.60
  11 -19  -2   12.80    4.30
   8 -19   2   13.80    4.80
 -19   8  -2   11.20    3.90
  19 -11  -2   -2.00   11.70
  -8 -11   2    8.90    4.30
  -8  19  -2   22.50   13.90
 -11  19   2    7.90    8.20
 -11  -8  -2   17.00    4.60
  19  -8   2    5.40    9.60
  10   9   2   28.20    8.40
  10 -19  -2   39.10    9.60
 -19  10   2   24.30    7.60
  10 -19  -2   26.90    4.50
 -19  10   2   27.00    4.50
  10   9   2   26.90    6.40
   9  10  -2   27.40   19.90
 -19   9  -2   30.70    5.00
   9 -19   2   33.90    6.00
 -10  19   2   30.30    8.80
  -9 -10   2   31.20    5.30
  -9  19  -2   34.40   13.20
 -10  -9  -2   38.10    6.50
  19  -9   2   17.60   10.90
  19 -10  -2   14.90   12.10
   9 -19  -2  143.19   13.80
 -19   9   2  143.29    9.20
  10 -19   2  151.28   10.50
  10   9  -2  158.98   11.10
   9  10   2  148.99   11.90
   9 -19  -2  157.98    8.90
 -19  10  -2  146.99    8.90
  10   9  -2  143.09   27.10
   9  10   2  171.98   15.00
 -19   9   2  153.08   12.90
  19 -10   2  142.99   17.30
  19  -9  -2  142.29   18.80
  -9  19   2  137.99   12.90
 -10  19  -2  149.99   17.50
  -9 -10  -2  165.28    9.60
 -10  -9   2  151.98    9.40
 -19   8   2   62.09    6.20
 -19  11  -2   57.89    6.50
  11   8  -2   77.39   23.10
   8  11   2   63.19    9.30
   8 -19  -2   53.89    9.50
   8  11   2   56.39   10.60
 -19   8   2   69.99   10.20
  11   8  -2   80.19    9.30
  11 -19   2   55.09    8.10
   8 -19  -2   58.89    5.80
  19  -8  -2   47.80   13.10
 -11  19  -2   73.19   13.20
  -8  19   2   58.79   10.50
 -11  -8   2   59.59    6.30
  19 -11   2   61.69   12.90
  -8 -11  -2   65.59    6.50
   7 -19  -2  160.08    9.30
 -19  12  -2  167.48    9.70
   7 -19  -2  151.08   13.80
   7  12   2  150.68   15.50
 -19   7   2  175.98   13.50
  12   7  -2  169.28   28.20
   7  12   2  165.08   11.20
 -19   7   2  167.38    9.60
  12 -19   2  152.88   10.80
  12   7  -2  173.68   13.20
 -12  19  -2  180.68   18.70
  -7 -12  -2  156.48    9.50
  19 -12   2  152.98   17.80
  19  -7  -2  124.49   18.00
 -12  -7   2  155.48    9.50
  -7  19   2  141.99   14.20
 -19   6   2  263.17   13.50
  13   6  -2  299.77   37.00
   6  13   2  251.57   19.10
 -19  13  -2  245.68   15.20
  13 -19   2  244.48   15.00
   6  13   2  268.67   15.20
  13 -19   2  308.67   22.70
 -19   6   2  246.78   16.50
   6 -19  -2  300.67   16.30
   6 -19  -2  250.97   13.10
  13   6  -2  275.27   18.00
  -6 -13  -2  260.77   13.30
  19  -6  -2  249.97   23.30
 -13  -6   2  255.97   13.40
 -13  19  -2  271.67   19.20
  19 -13   2  257.67   21.40
  -6  19   2  241.08   17.00
   5 -19  -2   10.60    3.80
   5 -19  -2   11.50    7.50
 -19   5   2    6.30    4.10
 -19  14  -2   24.70    6.20
   5  14   2    3.60    5.60
 -19   5   2   15.30    7.30
  14   5  -2   50.39   25.50
  14 -19   2    8.90   12.60
   5  14   2    6.10    9.30
  14   5  -2   21.80    9.10
  14 -19   2    8.20    5.90
  19 -14   2  -15.30   11.40
 -14  -5   2    4.30    4.70
  -5  19   2   -5.40    7.70
 -14  19  -2   33.00   10.60
  -5 -14  -2    7.30    4.40
  19  -5  -2    9.50   11.90
   4 -19  -2  182.08   10.40
  15   4  -2  185.98   16.70
   4  15   2  161.98   16.90
  15 -19   2  172.38   13.80
 -19   4   2  179.58   10.50
   4 -19  -2  191.78   12.90
 -19   4   2  183.38   14.10
   4  15   2  186.08   15.50
  15 -19   2  131.09   20.60
 -19  15  -2  182.98   12.80
  19  -4  -2  165.78   21.00
  19 -15   2  143.69   20.30
 -15  -4   2  168.28   10.40
  19 -15   2  175.68   19.20
  -4  19   2  138.49   14.40
 -15  19  -2  187.38   16.60
  -4 -15  -2  183.98   10.70
 -19   3   2  183.58   14.90
   3  16   2  182.38   12.60
 -19   3   2  178.38   10.60
  16 -19   2  131.39   19.80
 -19  16  -2  208.68   13.80
   3 -19  -2  185.78   12.90
  16 -19   2  166.08   14.80
   3 -19  -2  172.08   10.40
   3  16   2  182.58   16.70
  16   3  -2  170.88   17.90
 -16  -3   2  155.18   14.10
  -3  19   2  159.78   14.80
 -16  -3   2  169.68   10.50
  19 -16   2  180.08   20.30
  -3 -16  -2  187.68   10.70
  19  -3  -2  177.58   19.10
  19 -16   2  124.39   22.70
 -16  19  -2  179.68   16.40
 -19   2   2   41.00    6.20
   2  17   2   36.20   10.80
  17 -19   2    4.30   13.80
   2 -19  -2   46.40    7.00
   2  17   2   49.20    8.90
 -19  17  -2   41.70    8.70
 -19   2   2   54.79    9.80
  17 -19   2   50.49   10.30
  17   2  -2   42.60   13.00
  19  -2  -2   35.90   11.90
  19 -17   2   28.50   14.20
  -2 -17  -2   43.60    6.30
  -2  19   2   41.20   10.80
  19 -17   2   36.10   12.70
 -17  -2   2   31.10    5.30
 -17  19  -2   41.30   10.50
 -17  -2   2   43.50    9.70
   1  18   2    6.10    6.30
  18   1  -2   14.60   12.30
   1  18   2   -1.60    9.70
 -19  18  -2   17.10    8.30
  18 -19   2    8.60    8.90
   1 -19  -2   10.10    4.60
 -19   1   2   12.30    8.50
 -19   1   2    7.80    4.60
  18 -19   2  -14.20   13.40
  -1  19   2    6.00    8.90
 -18  -1   2    0.50    4.60
  19 -18   2   13.00   10.10
  -1 -18  -2    8.30    4.40
 -18  19  -2   16.90    8.90
 -18  -1   2    6.90    8.90
  19  -1  -2    4.20   11.70
  19 -18   2    2.20   14.20
  19 -19   2    2.40    9.60
 -19  19  -2   26.10    9.40
   0 -19  -2   25.10    5.20
 -19   0   2   13.00    8.60
   0  19   2   20.20    7.60
   0  19   2   23.60   10.80
  19 -19   2   40.20   16.10
 -19   0   2    6.60    5.30
  19   0  -2   22.20   12.30
 -20   0  -2    7.80    4.90
  20 -20  -2    2.00   13.20
 -20  20   2   -2.40    8.10
   0 -20   2    2.70    4.60
  20   0   2    1.00    7.80
   0  20  -2   -4.20   14.80
   1 -20   2   15.50    4.80
  19   1   2   18.20    8.60
  19 -20  -2   15.50   15.20
   1  19  -2    4.30   15.10
 -20  19   2   14.90    8.90
 -20   1  -2   24.50    5.40
  20  -1   2    5.30    9.60
  -1 -19   2   20.00    5.20
  -1  20  -2    9.40   15.10
 -19  20   2   13.00    8.20
  20 -19  -2    9.90   13.00
 -19  -1  -2   20.80    5.10
   2 -20   2   11.10    4.70
  18 -20  -2   17.00   12.50
 -20   2  -2   14.10    4.60
   2  18  -2   -2.90   15.30
 -20  18   2   12.60    8.20
  18   2   2    7.40    8.40
 -18  -2  -2   10.10    4.70
  20  -2   2    9.20    9.70
  20 -18  -2    1.30   12.50
  -2 -18   2    4.30    4.40
  -2  20  -2    6.60   14.10
 -18  20   2   11.30    8.50
 -20  17   2   17.70    9.00
   3  17  -2   26.20   16.40
  17   3   2   17.40   10.20
  17 -20  -2   21.60   14.90
   3 -20   2   18.40    4.90
 -20   3  -2   16.30    4.70
  -3  20  -2    2.90   14.50
 -17  -3  -2   17.90    5.20
  20  -3   2    5.30   10.30
  20 -17  -2   16.20   12.60
 -17  20   2   17.20    8.30
  -3 -17   2   17.60    5.10
 -20  16   2   12.90    7.80
  16 -20  -2    3.90   10.90
 -20   4  -2   12.20    4.40
  16   4   2   18.30    8.10
 -16  20   2    8.40    7.60
  20  -4   2    3.10    9.30
  -4 -16   2   12.00    4.40
  -4  20  -2    6.60   14.50
  20 -16  -2    3.20   12.60
 -16  -4  -2   17.60    5.00
   5 -20   2   10.30    4.90
  15   5   2   10.50    8.00
  15 -20  -2  -19.50   11.20
   5  15  -2   24.90   18.10
 -20  15   2   -2.20    7.10
  -5  20  -2    6.80   13.30
  20 -15  -2    5.60   12.70
  20  -5   2    2.00    9.50
  -5 -15   2   10.00    4.30
 -15  -5  -2    8.90    4.60
  14 -20  -2  -10.70    9.50
  14   6   2   12.00    7.40
 -20   6  -2   15.30    4.40
 -20  14   2   15.50    7.20
   6  14  -2   -9.80   16.50
   6 -20   2   10.80    4.70
 -14  20   2   10.60   11.80
  20  -6   2    4.20   16.80
 -20   7  -2   43.60    5.90
  13 -20  -2   47.90   10.50
  13   7   2   43.50    7.90
 -20  13   2   43.50    9.20
   7 -20   2   49.30    6.90
   7  13  -2   30.20   19.70
  -7  20  -2   54.79   15.80
  -7 -13   2   48.10    6.20
  20 -13  -2   26.40   14.00
 -13  -7  -2   42.80    6.40
  20  -7   2   28.30   12.60
 -13  20   2   42.10    9.40
 -20  12   2    8.40    3.70
 -20  12   2    6.90    7.00
 -20   8  -2    8.20    4.00
   8 -20   2    6.10    4.60
  12 -20  -2   19.70   10.30
   8  12  -2    8.70   20.00
  12   8   2    5.10    6.30
  -8 -12   2    6.20    4.10
  -8  20  -2    9.10   12.90
 -12  20   2    8.70    7.80
  20  -8   2   -2.40    9.40
  20 -12  -2    3.60   12.20
 -12  -8  -2    6.70    4.50
 -20  11   2   61.39    9.90
  11 -20  -2   32.30   10.40
  11   9   2   45.10    8.40
 -20   9  -2   45.40    5.60
 -20  11   2   34.20    6.00
  11 -20  -2   44.40    7.10
   9 -20   2   51.59    7.10
   9  11  -2   40.00   22.20
 -11  -9  -2   50.49    6.20
  20 -11  -2   40.50   13.40
 -11  20   2   37.50    9.00
  -9  20  -2   51.69   13.70
  20  -9   2   34.60   11.60
  -9 -11   2   46.70    6.30
  10 -20   2   61.99    7.20
  10 -20  -2   69.09    6.50
 -20  10  -2   65.19    6.40
  10  10   2   54.39    9.60
 -20  10   2   63.59   10.90
  10 -20  -2   39.00    9.20
  10  10  -2   54.89   21.70
  10  10   2   87.39   12.80
 -20  10   2   41.10    6.30
  20 -10  -2   39.90   13.30
  20 -10   2   44.60   12.70
 -10  20   2   44.60    9.80
 -10 -10  -2   64.79    7.40
 -10  20  -2   61.99   13.60
 -10 -10   2   57.29    6.90
  11   9  -2  134.29   10.50
 -20   9   2  105.29    8.00
   9 -20  -2  121.29    7.90
   9 -20  -2  109.99   13.10
  11 -20   2  112.39    9.50
   9  11   2  157.78   15.50
  11   9  -2  117.99   26.10
 -20   9   2   89.49   15.10
   9  11   2  115.49   11.20
 -20  11  -2  104.89    8.00
  -9  20   2   95.09   11.70
  -9 -11  -2  103.99    8.00
 -11  -9   2  107.19    8.60
  20  -9  -2   95.29   15.30
  20 -11   2   86.29   15.90
 -11  20  -2  115.49   16.00
  12   8  -2  252.37   33.30
  12 -20   2  186.68   11.80
 -20   8   2  185.98   14.70
   8  12   2  193.28   13.20
   8  12   2  188.78   17.20
  12   8  -2  209.58   13.30
 -20  12  -2  184.18   10.40
   8 -20  -2  174.68   10.20
 -20   8   2  172.88   10.60
   8 -20  -2  176.58   14.80
  -8 -12  -2  180.28   10.50
  -8  20   2  182.88   15.50
 -12  20  -2  194.38   18.00
 -12  -8   2  172.08   10.70
  20  -8  -2  162.68   19.20
  20 -12   2  157.78   18.90
   7  13   2   11.10    6.20
  13   7  -2   41.90   23.30
  13 -20   2   14.40    6.10
   7 -20  -2    8.30    4.00
   7  13   2   15.50   10.10
 -20   7   2   22.00    8.00
 -20  13  -2   13.40    4.10
 -20   7   2   11.60    4.20
   7 -20  -2    1.30    8.50
  -7 -13  -2   12.30    4.70
  20  -7  -2    8.10   12.20
  -7  20   2   -2.00    8.20
  20 -13   2  -20.10   10.90
 -13  20  -2   12.10   10.60
 -13  -7   2   13.50    4.50
   6 -20  -2  271.07   14.30
  14   6  -2  249.28   18.80
  14 -20   2  320.37   23.20
   6 -20  -2  290.37   17.40
  14   6  -2  294.77   38.90
 -20  14  -2  312.77   14.50
   6  14   2  305.27   16.70
 -20   6   2  285.47   14.70
  14 -20   2  293.47   16.80
   6  14   2  269.37   20.30
 -20   6   2  300.17   18.00
 -14  20  -2  309.17   20.70
 -14  -6   2  281.47   14.50
  -6  20   2  236.58   17.80
  20  -6  -2  277.07   22.90
  -6 -14  -2  293.97   14.70
  20 -14   2  261.57   22.80
  15 -20   2  399.06   21.30
  15 -20   2  361.26   27.30
  15   5  -2  414.46   23.20
   5 -20  -2  388.26   18.30
 -20  15  -2  425.96   21.50
   5  15   2  392.56   24.40
   5  15   2  400.66   20.20
 -20   5   2  386.36   18.40
 -20   5   2  377.66   21.60
   5 -20  -2  413.36   21.50
  20 -15   2  352.16   27.00
 -15  -5   2  377.26   18.70
  -5 -15  -2  392.76   18.40
  20  -5  -2  362.46   27.80
  -5  20   2  345.07   23.50
 -15  20  -2  363.96   23.50
  16   4  -2   56.19   12.10
 -20   4   2   63.59    7.10
  16 -20   2   60.89    9.90
 -20  16  -2   60.89   10.00
 -20   4   2   31.00    9.70
   4 -20  -2   54.39    6.60
   4 -20  -2   72.79   10.80
  16 -20   2   10.30   14.30
   4  16   2   51.59   11.50
   4  16   2   57.59    9.10
 -16  -4   2   42.70    6.20
  20  -4  -2   48.80   14.10
 -16  20  -2   40.70   11.00
  20 -16   2   32.70   13.90
  20 -16   2   39.80   17.00
  -4 -16  -2   55.99    7.10
 -20  17  -2   39.20    8.30
   3 -20  -2   39.20    6.10
  17   3  -2   34.80   11.50
  17 -20   2   34.40    9.40
   3  17   2   22.50    7.70
 -20   3   2   27.70    8.90
  17 -20   2    4.90   13.70
   3  17   2   40.00   11.40
 -20   3   2   39.10    6.70
  20  -3  -2   40.20   13.70
  -3  20   2   20.50   11.60
  -3 -17  -2   29.00    5.30
  20 -17   2   17.60   13.60
 -17  20  -2   36.40   10.30
 -17  -3   2   17.80    5.20
  20 -17   2    3.20   14.60
 -20   2   2   39.60    6.70
   2 -20  -2   64.79   10.60
  18 -20   2   25.10   15.20
   2  18   2   46.10   11.90
  18   2  -2   36.50   11.40
 -20   2   2   33.60    9.80
  18 -20   2   59.59   11.40
 -20  18  -2   81.69   11.00
   2  18   2   44.50    8.40
   2 -20  -2   50.59    7.00
  20  -2  -2   43.60   14.70
  20 -18   2   50.49   17.90
  -2 -18  -2   45.80    7.20
  20 -18   2   50.19   14.50
  -2  20   2   40.90   10.40
 -18  -2   2   39.50    7.50
 -18  20  -2   56.49   11.20
   1  19   2   32.00    7.60
 -20   1   2   47.00    7.60
   1 -20  -2   36.50    6.40
  19 -20   2   63.49   16.60
  19 -20   2   30.70   11.00
  19   1  -2   56.79   14.20
 -20   1   2   21.90    9.20
  20 -19   2    2.10   20.50
 -19  -1   2   33.80    7.60
  20  -1  -2   43.80   14.20
  -1  20   2   35.80   10.90
 -19  20  -2   33.00    9.40
  -1 -19  -2   25.40    5.40
 -19  -1   2   19.60    9.60
  20 -19   2   36.50   17.30
   0  20   2   14.80    9.40
  20 -20   2   26.00   11.50
   0 -20  -2   19.90    5.50
 -20  20  -2   26.90    9.50
 -20   0   2   12.20   10.10
 -20   0   2   12.40    5.40
  20 -20   2   48.90   15.80
   0  21  -2   -0.60   13.90
 -21   0  -2   33.90    6.20
   0 -21   2   18.00    5.20
 -21  21   2   33.60   10.00
  21 -21  -2   32.90   14.60
  21   0   2   19.80   10.10
 -21   1  -2   64.89    7.70
   1 -21   2   60.79    7.50
   1  20  -2   43.80   15.70
 -21  20   2   45.80   10.20
  20   1   2   41.50    9.90
  20 -21  -2   53.89   16.40
  -1 -20   2   58.29    7.30
  21 -20  -2   51.99   14.80
  21  -1   2   53.59   12.00
  -1  21  -2   46.30   16.40
 -20  -1  -2   60.89    7.30
 -20  21   2   47.90    9.60
  19 -21  -2   31.20   14.20
   2 -21   2   27.80    5.60
 -21  19   2   16.80    8.10
   2  19  -2    1.50   15.40
 -21   2  -2   25.00    5.30
  19   2   2   26.70   10.40
 -19  21   2   15.60    9.00
  21  -2   2   21.70   10.40
 -19  -2  -2   30.40    5.60
  -2 -19   2   24.20    5.10
  -2  21  -2   12.40   14.00
  21 -19  -2   33.70   15.80
 -21   3  -2   13.30    4.80
  18 -21  -2    4.40   12.50
   3 -21   2   14.50    5.10
   3  18  -2    5.30   15.80
  18   3   2   22.80    9.70
 -21  18   2    6.90    9.50
 -18  -3  -2   11.70    4.90
 -18  21   2   11.80    8.00
  21  -3   2   17.60   10.30
  21 -18  -2    6.50   13.20
  -3 -18   2   15.60    4.90
  -3  21  -2   13.20   14.60
   4 -21   2   14.60    5.30
 -21   4  -2   24.60    5.20
  17   4   2   19.50    9.00
   4  17  -2   13.80   16.60
 -21  17   2   26.30    9.30
  17 -21  -2    9.90   13.70
  -4  21  -2   23.10   14.50
  21  -4   2   20.00   11.30
  -4 -17   2   14.20    4.60
  21 -17  -2    3.30   12.90
 -17  21   2    7.70    7.80
 -17  -4  -2   20.00    5.20
   5  16  -2   51.99   19.30
  16 -21  -2   53.79   12.40
 -21   5  -2   60.89    6.40
   5 -21   2   53.79    6.90
 -21  16   2   50.19   10.10
  21  -5   2   50.09   11.10
  21 -16  -2   44.30   13.80
 -16  -5  -2   67.39    7.70
 -16  21   2   51.29    9.90
  -5  21  -2   58.19   15.70
  -5 -16   2   57.39    6.50
  15   6   2   55.39   10.90
   6 -21   2   56.59    7.70
 -21  15   2   60.09   11.00
 -21   6  -2   61.69    6.50
  15 -21  -2   40.10   13.60
  21  -6   2   41.00   11.40
  -6  21  -2   47.10   14.50
 -15  21   2   61.99   10.50
 -15  -6  -2   65.19    7.10
  -6 -15   2   65.39    7.30
  21 -15  -2   55.09   15.80
   7 -21   2   14.30    5.60
 -21   7  -2   12.10    4.60
 -21  14   2    7.20    8.20
  14   7   2   14.00    7.80
  14 -21  -2   -6.60    9.80
   7  14  -2   40.20   20.60
 -14  -7  -2   11.60    4.80
  21 -14  -2    3.70   12.50
 -14  21   2   15.80    8.60
  21  -7   2    9.20   10.20
  -7 -14   2   11.90    4.70
  -7  21  -2    1.00   13.00
   8 -21   2   64.39    7.10
  13   8   2   79.99   11.30
   8  13  -2   67.59   22.40
  13 -21  -2   68.09   12.50
 -21  13   2   75.29   11.60
  21  -8   2   52.29   12.50
  -8  21  -2   46.00   14.50
 -13  -8  -2   68.19    7.00
  21 -13  -2   40.20   14.10
  -8 -13   2   61.59    6.50
 -13  21   2   60.59   10.50
  12   9   2   37.80    8.00
 -21   9  -2   33.70    5.50
  12 -21  -2   12.90    9.80
   9 -21   2   35.50    6.40
 -21  12   2   35.70    5.60
 -21  12   2   52.09    9.10
   9  12  -2   31.80   20.00
 -12  -9  -2   43.60    6.40
  -9 -12   2   28.70    5.00
  21 -12  -2   28.00   13.20
  -9  21  -2   37.00   13.80
 -12  21   2   22.40    8.60
  21  -9   2   14.30   10.80
  10 -21   2   18.00    5.70
 -21  10  -2   21.20    4.60
 -21  11   2   10.40    4.70
  11  10   2   12.70    6.70
  11 -21  -2    5.50   10.80
 -21  11   2   10.10    7.90
  10  11  -2   15.20   21.10
 -11  21   2   13.80    8.60
 -10  21  -2   17.40   14.60
  21 -10   2    7.50   10.80
 -10 -11   2   11.90    4.30
  21 -11  -2    9.30   12.50
  11  10  -2  115.99   24.80
  11 -21   2  104.79    9.30
 -21  11  -2  108.49    8.00
 -21  10   2   97.89   12.00
 -21  10   2   98.89    8.30
  10  11   2  100.99   11.00
  10 -21  -2   95.99   13.90
 -10 -11  -2   96.99   11.60
 -11 -10   2   99.59    7.80
  21 -11   2   88.29   16.30
 -11  21  -2  105.89   22.80
 -10  21   2   84.89   12.00
  21 -10  -2  103.29   17.10
 -21   9   2   22.50    4.90
  12   9  -2   30.80   23.40
   9 -21  -2   31.00    9.40
  12 -21   2   32.40    6.30
 -21   9   2   21.60    8.30
 -21  12  -2   24.80    4.70
   9  12   2   39.00    7.70
   9 -21  -2   29.70    4.90
  21 -12   2    6.50   13.40
 -12  -9   2   21.60    4.80
  -9 -12  -2   24.90    5.10
 -12  21  -2   32.30   13.40
  -9  21   2   18.40    8.90
  21  -9  -2   12.30   12.40
   8  13   2  279.07   19.80
 -21  13  -2  260.87   13.20
   8  13   2  257.67   15.70
   8 -21  -2  244.28   13.00
  13 -21   2  248.28   15.20
 -21   8   2  255.47   13.40
 -21   8   2  261.77   16.70
  13   8  -2  248.48   16.70
  13   8  -2  244.38   36.50
   8 -21  -2  255.07   17.50
  -8 -13  -2  240.38   13.50
 -13  -8   2  237.48   13.50
  21  -8  -2  217.48   21.30
 -13  21  -2  252.77   20.30
  -8  21   2  218.28   16.60
  14   7  -2  395.36   22.30
   7  14   2  378.86   24.50
   7 -21  -2  385.66   21.80
  14 -21   2  379.46   20.50
 -21   7   2  375.06   18.60
 -21  14  -2  374.06   17.90
  14   7  -2  391.96   39.40
   7  14   2  411.96   20.20
 -21   7   2  391.66   21.90
  14 -21   2  436.56   27.20
   7 -21  -2  367.06   18.20
  -7 -14  -2  401.96   18.60
  21  -7  -2  352.36   27.50
 -14  -7   2  347.37   18.20
 -14  21  -2  360.66   23.10
 -21   6   2   40.70    9.60
   6  15   2   56.59   12.20
   6 -21  -2   21.10    9.90
   6  15   2   35.00    7.20
 -21   6   2   29.50    5.60
  15 -21   2   22.70    7.30
 -21  15  -2   45.60    6.50
  15 -21   2   25.10   14.10
   6 -21  -2   36.70    6.50
  15   6  -2   44.60    9.90
  15   6  -2   88.99   27.00
  -6  21   2   36.70    9.60
 -15  -6   2   27.70    5.20
  21  -6  -2   37.10   15.00
  -6 -15  -2   47.30    7.10
 -15  21  -2   31.40   11.20
  16   5  -2  160.28   32.70
 -21   5   2  110.89    8.90
   5  16   2  118.29   11.50
 -21   5   2   90.89   13.40
  16 -21   2   75.39   17.10
   5 -21  -2  117.29    8.70
   5 -21  -2  131.29   12.40
   5  16   2  118.09   16.00
  16   5  -2  128.29   16.60
  16 -21   2  119.29   12.80
  -5  21   2   87.29   12.60
 -16  -5   2   98.39    8.80
 -16  21  -2   88.29   14.40
  21  -5  -2  120.79   18.90
  -5 -16  -2  127.59    9.30
   4  17   2  149.88   13.00
 -21   4   2  159.38   14.90
  17   4  -2  184.88   17.20
  17 -21   2  142.59   14.90
   4 -21  -2  154.88   14.30
  17 -21   2  140.29   20.70
   4  17   2  168.18   17.40
 -21   4   2  156.98   10.50
   4 -21  -2  160.68   10.50
  17   4  -2  238.58   39.70
 -17  -4   2  145.19   10.20
  -4 -17  -2  149.29   10.40
 -17  21  -2  186.98   16.70
  21  -4  -2  172.78   21.20
  -4  21   2  146.49   15.50
 -21   3   2   49.10   10.60
  18   3  -2   52.59   13.60
   3  18   2   52.29   12.60
   3  18   2   42.30    8.40
 -21  18  -2   36.80    9.40
 -21   3   2   51.49    7.10
  18 -21   2   59.39   15.40
   3 -21  -2   46.40    7.50
 -18  21  -2   51.39   11.10
  21 -18   2   31.50   17.30
  -3  21   2   35.10   10.30
  -3 -18  -2   35.40    7.70
  21  -3  -2   44.10   13.20
 -18  -3   2   39.60    6.30
  19   2  -2   11.00   12.10
 -21   2   2   28.90    9.00
  19 -21   2   61.69   16.60
 -21  19  -2   30.90    9.20
   2  19   2   20.80    7.20
 -21   2   2   -5.20    9.60
   2 -21  -2   19.80    5.40
   2  19   2   14.10   10.50
  19 -21   2   21.10   10.40
  21 -19   2    3.80   13.50
  21 -19   2    6.00   16.70
 -19  21  -2   21.90    9.30
 -19  -2   2   19.50    5.20
  -2  21   2   13.80    9.80
  21  -2  -2   24.30   12.20
 -21   1   2  -17.20    8.80
  20 -21   2    4.60   10.50
   1  20   2    5.40   10.20
   1 -21  -2   16.90    8.60
   1  20   2  -18.70    7.70
 -21   1   2  -10.30    5.00
  20   1  -2   -2.20   17.80
  20 -21   2   24.10   15.20
   1 -21  -2    1.10    5.00
 -20  21  -2   -4.00    9.50
  21 -20   2   -5.80   12.80
 -20  -1   2    2.30    4.70
  21  -1  -2   -4.80   13.40
  -1 -20  -2   -0.80    4.70
  21 -20   2    7.20   17.40
  -1  21   2   10.10    9.10
  21 -21   2   18.00   18.20
 -21  21  -2   45.30   10.80
   0 -21  -2    2.60    5.90
  21 -21   2    0.70   14.10
   0  21   2   21.80   10.70
 -21   0   2    7.60    5.00
  21   0  -2   40.80   13.70
 -22   0  -2   72.99    7.90
   0  22  -2   37.20   16.00
   0 -22   2   72.79    7.50
  22   0   2   55.79   12.40
  22 -22  -2   51.29   17.40
 -22  22   2   72.59   12.40
  21 -22  -2   30.30   16.30
   1  21  -2   18.30   14.70
  21   1   2   22.30    9.70
   1 -22   2   25.00    5.80
 -22  21   2   21.90    9.10
 -22   1  -2   18.90    5.20
  -1  22  -2    6.40   15.50
  -1 -21   2   20.00    5.50
 -21  22   2   24.70    9.10
  22  -1   2   -3.30   10.00
  22 -21  -2   29.90   15.10
 -21  -1  -2   24.80    5.70
  20 -22  -2   19.70   15.40
 -22   2  -2   40.60    6.90
   2  20  -2    7.40   14.70
   2 -22   2   25.60    5.70
 -22  20   2   29.00    9.30
  20   2   2   29.90    9.60
  -2 -20   2   18.30    5.00
  22 -20  -2   26.00   13.80
  -2  22  -2    4.80   14.90
  22  -2   2   20.40    9.50
 -20  22   2   19.50    9.50
 -20  -2  -2   20.60    5.50
   3  19  -2   50.29   16.90
 -22  19   2   74.19   11.30
   3 -22   2   64.99    7.10
  19   3   2   66.89   12.40
  19 -22  -2   49.20   15.60
 -22   3  -2   66.19    6.80
  22  -3   2   57.99   10.90
  22 -19  -2   60.29   14.80
 -19  -3  -2   76.59    8.00
  -3  22  -2   56.19   15.80
  -3 -19   2   58.99    6.80
 -19  22   2   48.80    9.60
  18 -22  -2  101.29   17.60
 -22   4  -2  104.79    8.30
   4  18  -2   57.29   17.60
  18   4   2   96.49   11.90
 -22  18   2   71.69   12.80
   4 -22   2   78.39    7.80
 -18  -4  -2   87.79    8.30
 -18  22   2   66.69   11.20
  22  -4   2   72.09   13.20
  -4 -18   2   88.69    8.20
  22 -18  -2   88.69   17.30
  -4  22  -2   72.99   16.40
 -22   5  -2   34.80    5.90
  17 -22  -2   27.70   14.50
  17   5   2   29.90    8.60
   5 -22   2   19.60    5.40
   5  17  -2    9.40   16.40
 -22  17   2   14.10   14.20
  -5 -17   2   19.30    4.80
  22  -5   2   18.40   10.10
 -17  -5  -2   28.00    5.40
 -17  22   2   15.20    8.20
  22 -17  -2   37.00   14.20
  -5  22  -2   19.10   14.50
  16   6   2    9.30    8.10
   6  16  -2  -17.60   17.20
  16 -22  -2   -2.40   12.90
 -22   6  -2   16.60    4.90
   6 -22   2    7.70    5.00
 -22  16   2   15.50    8.80
  22  -6   2    9.60   10.00
 -16  -6  -2    9.90    5.00
  -6 -16   2    8.10    4.40
 -16  22   2    6.20    7.60
  -6  22  -2   10.50   13.10
  22 -16  -2   -8.00   12.60
 -22   7  -2  104.29    7.60
   7  15  -2   58.79   19.40
  15 -22  -2   81.29   15.20
   7 -22   2  100.49    8.70
 -22  15   2  106.29   12.80
  -7 -15   2   92.99    8.30
  -7  22  -2   73.69   15.30
  22 -15  -2  106.29   19.20
  22  -7   2   90.39   15.10
 -15  -7  -2   99.89    8.20
 -15  22   2   78.49   11.30
 -22   8  -2   98.39    7.80
  14 -22  -2   78.99   15.10
 -22  14   2   94.99   12.60
   8  14  -2   61.79   24.30
   8 -22   2   85.09    8.10
  14   8   2  106.79   12.70
 -14  -8  -2   96.69    8.50
  22 -14  -2   98.69   18.70
  22  -8   2   85.89   14.40
 -14  22   2   86.59   11.60
  -8 -14   2  100.79    8.20
  -8  22  -2   82.49   15.00
 -22  13   2   -2.00    7.10
   9 -22   2    1.80    4.80
  13 -22  -2   -9.00    9.50
   9  13  -2    2.60   19.90
  13   9   2    2.90    7.40
 -22   9  -2    3.00    4.50
 -13  22   2   -2.80    7.30
  -9  22  -2    7.30   12.80
  22 -13  -2    2.10   13.70
  22  -9   2  -11.80    9.70
  -9 -13   2    2.40    4.30
 -13  -9  -2    7.60    5.20
  10  12  -2   17.60   20.10
  10 -22   2   31.20    7.40
 -22  12   2   28.30    8.90
  12  10   2   36.50    8.40
 -22  12   2   15.00    7.50
 -22  10  -2   39.50    5.70
  12 -22  -2    7.40   10.80
 -12 -10  -2   31.10    5.60
  22 -10   2    9.60   11.00
 -12  22   2   35.70    9.50
  22 -12  -2   35.40   13.80
 -10 -12   2   25.30    5.30
 -10  22  -2   33.20   12.90
 -22  11   2   29.30    5.50
  11  11   2   33.10    7.10
 -22  11  -2   40.30    6.30
 -22  11   2   43.10    9.30
  11  11  -2   45.30   21.40
  11 -22  -2    3.40   11.50
 -11 -11  -2   37.70    6.40
  22 -11   2   23.30   13.30
 -11  22  -2   55.69   13.70
  22 -11  -2   23.20   12.70
 -11  22   2   32.50    9.00
 -11 -11   2   35.40    6.40
 -22  10   2  172.78   14.20
 -22  10   2  131.59    9.80
  10 -22  -2  136.99   15.60
  12  10  -2  110.19   26.30
  12 -22   2  156.48   13.50
 -22  12  -2  143.19    8.90
  10  12   2  154.38   12.70
 -10 -12  -2  143.69    9.50
 -12  22  -2  151.58   18.70
  22 -10  -2  108.39   19.20
 -12 -10   2  130.39    9.40
 -10  22   2  120.49   13.00
  22 -12   2  113.99   18.00
 -22  13  -2  255.77   13.70
   9  13   2  261.07   16.30
   9  13   2  275.27   20.80
 -22   9   2  273.67   17.40
  13 -22   2  247.98   16.40
   9 -22  -2  262.47   18.40
 -22   9   2  262.67   13.80
  13   9  -2  281.77   33.60
  22  -9  -2  245.98   22.20
  -9 -13  -2  265.27   14.00
  -9  22   2  237.08   17.50
  22 -13   2  249.88   21.90
 -13  -9   2  225.78   13.10
 -13  22  -2  239.28   20.40
  14   8  -2   26.70    8.80
  14 -22   2   23.70    8.70
   8 -22  -2   32.70   10.10
   8 -22  -2   28.20    5.90
 -22   8   2   18.60    5.40
  14   8  -2    9.40   23.90
 -22   8   2   30.10    9.00
 -22  14  -2   26.00    5.30
   8  14   2   33.20   11.50
   8  14   2   33.80    7.70
  -8  22   2   26.30    9.40
 -14  22  -2   26.80   11.30
  22 -14   2   17.00   12.90
 -14  -8   2   25.20    5.20
  22  -8  -2   25.70   13.50
  -8 -14  -2   30.50    5.60
   7  15   2  113.49   12.00
 -22   7   2  136.99   13.40
   7 -22  -2  139.69   14.40
 -22  15  -2  140.29    9.10
  15   7  -2  134.89   14.80
   7 -22  -2  126.79    9.20
   7  15   2  131.39   17.40
  15   7  -2  109.59   29.30
 -22   7   2  114.29    9.80
  22  -7  -2  107.09   18.60
 -15  -7   2  115.69    8.90
  -7 -15  -2  120.19    9.00
  22 -15   2  129.29   19.00
 -15  22  -2  117.89   16.30
  -7  22   2  111.39   13.00
   6  16   2  219.78   19.40
   6 -22  -2  214.78   12.00
 -22  16  -2  222.28   11.90
 -22   6   2  205.68   16.20
  16   6  -2  270.97   36.20
   6  16   2  226.18   15.20
  16   6  -2  236.88   17.00
   6 -22  -2  159.68   17.50
 -22   6   2  205.68   12.30
  16 -22   2  172.88   24.40
  16 -22   2  175.48   20.50
  22 -16   2  231.78   24.40
 -16  22  -2  186.38   17.20
  -6 -16  -2  194.08   11.80
  -6  22   2  170.18   16.50
 -16  -6   2  190.78   11.70
  22  -6  -2  196.28   21.10
   5  17   2    8.50    6.90
 -22  17  -2   26.20    5.30
 -22   5   2   20.30    9.20
 -22   5   2   14.30    5.40
   5  17   2   31.40   11.20
  17 -22   2   10.20    8.20
  17   5  -2   13.40   10.90
   5 -22  -2   21.60    5.40
   5 -22  -2   18.40    9.10
  17 -22   2    0.20   13.90
  17   5  -2   66.19   28.90
  -5  22   2   22.40    9.70
 -17  22  -2   33.40   11.50
  22  -5  -2    6.80   13.10
  -5 -17  -2   15.70    5.00
  22 -17   2   14.60   13.60
 -17  -5   2   10.60    5.00
  18 -22   2   50.89   10.70
   4 -22  -2   51.49    7.20
   4  18   2   59.29   13.30
 -22   4   2   69.99   12.50
 -22   4   2   49.90    7.50
  18   4  -2   63.09   13.30
  18 -22   2    7.60   14.40
  18   4  -2   85.19   31.20
   4  18   2   36.20    9.10
   4 -22  -2   82.99   11.60
 -18  22  -2   46.30   11.80
 -18  -4   2   39.40    7.20
  22  -4  -2   34.00   12.90
  -4  22   2   28.60    9.80
  -4 -18  -2   42.70    7.30
  22 -18   2   61.69   18.30
   3  19   2   30.30    8.30
   3 -22  -2   39.70    6.50
  19   3  -2   50.49   12.70
   3  19   2   32.70   11.50
 -22   3   2   50.69    7.40
  19 -22   2   33.20   10.20
  19 -22   2   54.99   16.10
  19   3  -2   89.29   33.10
   3 -22  -2   29.10   10.80
  22 -19   2   38.00   16.80
 -19  -3   2   37.90    6.30
  22  -3  -2   34.70   14.40
  22 -19   2   26.50   16.10
  -3 -19  -2   44.80    7.20
  -3  22   2   24.20   10.20
 -19  22  -2   49.00   13.00
   2  20   2   14.70   11.00
  20   2  -2   36.30   14.20
   2 -22  -2   19.40    6.10
  20   2  -2  119.59   34.10
 -22   2   2   20.20    6.30
  20 -22   2   21.60   18.10
  20 -22   2   11.80   11.00
 -22  20  -2   21.80    9.80
   2  20   2   25.50    8.60
  -2 -20  -2   27.30    5.70
 -20  -2   2   25.90    5.70
  22 -20   2    0.80   14.10
 -20  22  -2   11.40   16.80
  22 -20   2   24.80   18.60
  -2  22   2   27.10   10.10
  22  -2  -2   31.00   12.60
 -22  21  -2   49.40   10.40
   1  21   2   44.70   12.10
  21 -22   2   20.90   18.80
  21   1  -2   38.90   13.50
 -22   1   2   27.40    6.40
  21 -22   2   32.70   12.30
   1 -22  -2   41.10    7.00
  -1  22   2   48.20   11.90
  22 -21   2   25.00   14.30
  22  -1  -2   59.89   14.20
 -21  22  -2   42.60   17.10
 -21  -1   2   48.70    7.50
  -1 -21  -2   37.00    6.60
  22 -21   2   57.49   20.50
   0 -22  -2   29.20    6.50
 -22  22  -2   49.40   19.30
  22 -22   2   32.10   14.70
   0  22   2   31.40   11.80
 -22   0   2   26.70    6.00
  22 -22   2   -0.10   19.80
  22   0  -2   33.70   13.00
 -23   2  -2   78.69    8.30
   2 -23   2   77.79    7.90
  21 -23  -2  128.49   23.50
 -23  21   2   91.99   13.70
   2  21  -2   57.99   16.40
  21   2   2   74.39   13.20
  -2  23  -2   77.79   17.30
  -2 -21   2   79.49    8.10
 -21  23   2   78.59   13.30
  23 -21  -2   47.70   16.10
 -21  -2  -2   76.09    7.70
  23  -2   2   73.29   14.20
 -23   3  -2   75.89    7.10
   3  20  -2   44.10   16.90
   3 -23   2   67.79    8.00
  20 -23  -2   89.39   17.80
  20   3   2   66.89   12.30
 -23  20   2   74.99   12.80
 -20  -3  -2   71.09    7.40
  23 -20  -2   68.19   17.90
 -20  23   2   53.49   10.50
  -3 -20   2   56.49    6.90
  23  -3   2   68.49   11.70
  -3  23  -2   47.70   15.20
  19 -23  -2    6.90   14.60
   4 -23   2    6.70    5.30
 -23  19   2   20.40    9.50
  19   4   2   17.90    9.50
 -23   4  -2   14.30    5.00
   4  19  -2    9.10   17.00
  23 -19  -2    8.10   13.40
  -4 -19   2    6.20    4.80
  23  -4   2    2.30   10.60
  -4  23  -2    7.60   13.40
 -19  -4  -2   11.50    5.00
 -19  23   2   19.10    8.20
   5  18  -2   38.30   18.20
  18   5   2   52.59   10.60
 -23  18   2   40.90   10.00
 -23   5  -2   64.09    7.40
   5 -23   2   51.49    7.50
  18 -23  -2   32.90   14.00
  -5 -18   2   41.90    7.10
  23 -18  -2   34.30   14.80
  -5  23  -2   41.00   14.70
 -18  -5  -2   57.09    6.80
  23  -5   2   39.30   11.60
 -18  23   2   32.90    8.90
 -23   6  -2  109.99    8.70
  17 -23  -2  124.29   17.80
  17   6   2  140.29   14.60
   6  17  -2  101.79   21.50
   6 -23   2   97.09    8.70
 -23  17   2  118.89   13.60
 -17  -6  -2  116.99    9.30
 -17  23   2   99.69   12.10
  -6  23  -2  108.89   19.70
  23  -6   2  127.99   15.60
  23 -17  -2  131.19   22.40
  -6 -17   2   99.89    8.10
 -23  16   2   51.49   10.80
  16   7   2   64.19   10.60
 -23   7  -2   62.79    7.00
   7 -23   2   56.19    7.90
   7  16  -2   22.80   19.90
  16 -23  -2   30.70   14.50
  23 -16  -2   49.60   14.30
 -16  -7  -2   59.59    7.00
 -16  23   2   29.40    8.90
  23  -7   2   40.00   11.40
  -7 -16   2   47.60    6.30
  -7  23  -2   41.80   14.60
  15   8   2   12.20    8.50
 -23  15   2   15.20    8.90
   8 -23   2    5.90    4.90
  15 -23  -2    5.00   13.50
 -23   8  -2   12.60    4.70
   8  15  -2  -11.80   18.40
  23 -15  -2   21.60   14.50
  -8  23  -2   13.60   13.10
  23  -8   2    1.40   10.00
 -15  23   2    4.10    7.60
  -8 -15   2    2.70    4.50
 -15  -8  -2    8.30    5.20
 -23  14   2   97.89   12.80
 -23   9  -2  114.19    8.40
   9  14  -2  100.69   23.10
   9 -23   2  106.29    9.50
  14   9   2   97.59   11.40
  14 -23  -2   68.39   14.70
  23  -9   2   90.29   16.20
 -14  -9  -2  105.29    9.10
  -9 -14   2  101.79    7.90
  23 -14  -2  150.48   21.40
  -9  23  -2   90.39   15.70
 -14  23   2   89.09   12.70
  13  10   2   71.89   13.20
 -23  10  -2   61.89    6.70
 -23  13   2   79.29   12.00
  13 -23  -2   52.09   13.40
  10  13  -2   53.89   22.10
  10 -23   2   63.39    8.70
 -13 -10  -2   70.59    7.70
  23 -13  -2   51.69   14.60
  23 -10   2   54.69   12.60
 -10  23  -2   55.89   13.20
 -13  23   2   48.60    9.60
 -10 -13   2   61.09    6.60
  12  11   2   68.19   10.90
 -23  12   2   59.59   10.90
  11 -23   2   53.99    8.30
  12 -23  -2   52.39   13.20
 -23  11  -2   58.09    6.90
 -12  23   2   25.70    9.10
 -11  23  -2   51.59   14.60
  23 -11   2   38.50   13.80
 -11 -12   2   43.80    6.00
 -12 -11  -2   54.39    7.50
  23 -12  -2   26.80   13.10
 -23  12  -2  107.19    7.70
 -23  11   2   93.99   11.10
  12  11  -2   88.39   24.40
  11  12   2  104.29   11.80
 -23  11   2  119.79   12.90
  11 -23  -2   76.49   13.50
  12 -23   2  107.19   10.30
  23 -11  -2   81.99   16.10
  23 -12   2   98.49   17.20
 -11  23   2   80.69   11.70
 -12 -11   2   87.29    7.40
 -11 -12  -2  103.19    8.80
 -12  23  -2   90.69   15.30
 -23  13  -2   18.20    5.20
  13  10  -2   -3.60   23.40
  10 -23  -2  -18.30   10.60
  10  13   2   23.00    7.70
  13 -23   2   11.60    6.20
 -23  10   2   18.70    5.30
 -23  10   2    8.00    9.30
 -10  23   2    8.90    8.50
 -10 -13  -2   13.10    5.00
  23 -13   2    9.40   12.60
  23 -10  -2    2.80   14.00
 -13 -10   2    8.00    5.00
 -13  23  -2   13.00   10.70
 -23  14  -2  110.99    8.30
  14 -23   2  109.19   11.20
 -23   9   2  108.39   13.50
  14   9  -2   99.89   29.00
 -23   9   2   81.99    9.10
   9 -23  -2   75.49   14.70
   9  14   2  144.79   17.30
   9  14   2  115.19   11.20
  23  -9  -2  108.79   18.80
 -14  23  -2   92.99   15.70
  -9  23   2   76.99   12.70
  -9 -14  -2  100.29    8.60
 -14  -9   2   91.69    7.70
  23 -14   2   81.79   15.20
 -23   8   2  164.08   12.10
   8  15   2  203.68   14.50
   8  15   2  227.88   20.00
  15   8  -2  193.08   34.60
   8 -23  -2  181.88   16.50
  15 -23   2  208.38   14.20
 -23  15  -2  190.78   10.90
 -23   8   2  210.08   15.60
  23  -8  -2  174.58   20.10
  -8  23   2  174.58   15.90
 -15  -8   2  170.98   11.10
  -8 -15  -2  191.08   11.20
 -15  23  -2  179.98   16.70
  23 -15   2  186.18   20.50
   7 -23  -2   -4.10   10.30
  16   7  -2  -34.70   25.00
 -23   7   2   17.10    8.80
   7  16   2   20.10    7.50
 -23  16  -2   17.70    5.00
   7  16   2   32.40   11.80
  16 -23   2   17.00    7.80
 -23   7   2   18.40    5.40
   7 -23  -2   26.70    7.30
 -16  23  -2    9.30   10.90
  -7 -16  -2   17.30    6.00
  -7  23   2   10.50    9.30
  23 -16   2   23.90   14.80
  23  -7  -2    2.00   12.80
 -16  -7   2    9.50    4.60
   6 -23  -2   58.89    8.10
   6 -23  -2   68.49   13.60
  17 -23   2   79.79   12.50
 -23   6   2   70.29    8.80
   6  17   2   71.19   13.90
 -23  17  -2   84.19    7.80
   6  17   2   60.19   11.30
 -23   6   2   47.90   18.10
  17   6  -2   92.69   16.20
  17   6  -2   97.59   31.40
  23  -6  -2   64.59   15.70
  23 -17   2   58.19   15.60
 -17  23  -2   81.29   14.60
  -6  23   2   54.39   11.40
  -6 -17  -2   63.99    7.80
 -17  -6   2   67.59    7.80
  18 -23   2   54.99   10.90
   5 -23  -2   28.40   12.40
 -23   5   2   71.99   12.40
  18   5  -2  101.49   14.60
   5  18   2   53.59    9.50
   5 -23  -2   58.49    8.20
  18   5  -2  108.29   31.10
  18 -23   2   70.49   18.50
  23  -5  -2  110.29   19.80
  -5 -18  -2   87.69    8.30
 -18  -5   2   60.99    7.80
 -18  23  -2   90.29   14.20
  -5  23   2   30.20    9.90
  23 -18   2   99.09   19.00
   4 -23  -2    8.70    5.30
  19 -23   2   23.10   16.90
  19   4  -2   64.09   29.70
   4  19   2    7.70    7.60
 -23   4   2   13.40    5.60
  19   4  -2   14.80   12.30
   4 -23  -2   27.30   10.20
  19 -23   2   11.40   10.20
   4  19   2   12.30   11.40
  -4 -19  -2    5.10    5.60
 -19  -4   2    4.50    5.10
  23  -4  -2    5.70   13.00
  -4  23   2    6.10    9.50
  23 -19   2    7.30   14.90
 -19  23  -2   14.20    9.40
  20   3  -2   47.20   32.50
 -23   3   2    8.70    5.50
  20 -23   2    8.50    9.20
   3  20   2   19.00   11.30
  20 -23   2   15.10   18.90
  20   3  -2   16.80   13.30
  23  -3  -2   25.50   14.10
 -20  -3   2    9.20    4.90
 -20  23  -2    3.10    9.70
  23 -20   2   30.70   18.00
  -3 -20  -2    8.90    5.50
  -3  23   2   -3.60    8.90
   2  21   2   13.90   11.10
  21 -23   2   -3.00   11.50
  21   2  -2   26.90   13.10
 -23   2   2   -5.10    6.10
  21 -23   2  -26.70   18.60
   2 -23  -2   -3.80    5.80
  -2  23   2    1.50   10.30
  23 -21   2  -14.80   15.60
 -21  -2   2    8.00    5.30
  23  -2  -2   -9.70   14.00
  -2 -21  -2    2.90    5.10
 -21  23  -2   20.30   10.20
  23 -21   2    8.50   18.10
  20   4   2   79.09   12.30
   4  20  -2   46.10   18.50
 -24  20   2   62.29   12.20
  20 -24  -2   59.69   17.90
 -24   4  -2   69.69    7.60
   4 -24   2   63.79    8.40
 -20  24   2   51.29   10.50
  -4  24  -2   45.10   14.70
  -4 -20   2   57.39    7.00
  24  -4   2   64.29   13.00
  24 -20  -2   60.39   17.00
 -20  -4  -2   72.49    8.00
  19 -24  -2   89.19   19.20
   5  19  -2   90.19   20.80
 -24   5  -2  100.59    8.60
   5 -24   2  105.49    9.20
 -24  19   2  102.79   13.20
  19   5   2  106.59   12.90
  -5 -19   2   88.79    8.50
 -19  -5  -2  100.89    8.90
  24  -5   2   76.39   14.80
 -19  24   2   96.39   13.00
  24 -19  -2  110.19   20.10
  -5  24  -2   88.99   16.40
   6 -24   2    8.80    5.80
  18 -24  -2   24.40   15.40
  18   6   2   12.20    9.10
 -24  18   2   19.10    9.90
 -24   6  -2   15.40    5.10
   6  18  -2   19.10   16.80
  -6  24  -2    8.10   12.60
  24  -6   2    7.00   10.40
  24 -18  -2   11.90   13.60
  -6 -18   2   14.40    5.00
 -18  -6  -2    7.40    5.00
 -18  24   2   13.00    7.70
   7 -24   2   47.70    7.70
  17   7   2   38.90    9.30
 -24   7  -2   53.39    7.20
 -24  17   2   42.40   10.20
  17 -24  -2   42.00   14.80
   7  17  -2   36.80   18.30
 -17  -7  -2   44.70    6.60
 -17  24   2   35.60    9.20
  -7  24  -2   34.00   13.40
  -7 -17   2   33.70    5.80
  24  -7   2   39.70   12.40
  24 -17  -2   39.50   14.30
   8  16  -2   94.29   22.20
   8 -24   2  139.09   10.50
 -24   8  -2  137.69    9.40
 -24  16   2  119.89   15.60
  16   8   2  164.08   14.60
 -16  -8  -2  139.49   10.10
 -16  24   2  126.39   13.80
  -8 -16   2  130.49    9.70
  24 -16  -2  136.19   19.40
  -8  24  -2  105.59   17.20
  24  -8   2  131.79   16.70
 -24  15   2   90.89   12.20
  15   9   2   91.19   12.00
  15 -24  -2   59.39   14.10
   9  15  -2   46.30   21.00
 -24   9  -2   86.39    7.40
   9 -24   2   91.49    9.00
  24 -15  -2   64.79   15.10
 -15  24   2   76.19   11.40
  24  -9   2   64.69   12.90
 -15  -9  -2   78.09    7.40
  -9 -15   2   64.59    7.80
  -9  24  -2   58.19   13.70
  14  10   2    9.40    7.10
  10 -24   2    4.20    5.90
 -24  14   2    0.60    9.60
 -24  10  -2    4.30    4.60
  14 -24  -2  -23.70   12.90
  10  14  -2   -6.80   20.00
  24 -10   2  -11.40   11.00
 -14  24   2   -0.90    7.30
 -10  24  -2   -0.60   12.30
  24 -14  -2   -5.30   12.70
 -14 -10  -2    2.80    4.70
 -10 -14   2    2.80    4.30
 -24  13   2   24.70    9.20
  11 -24   2   14.60    6.00
 -24  11  -2   22.00    5.10
  11  13  -2  -15.00   20.40
  13  11   2   10.90    7.10
 -11  24  -2   26.30   13.00
 -13  24   2   13.40    8.40
  24 -13  -2   12.30   13.40
  24 -11   2    7.20   10.90
 -11 -13   2   14.00    4.70
 -13 -11  -2   10.90    5.00
 -24  12   2   38.40    9.60
  12 -24   2    9.10    6.20
  12  12   2   16.60   14.30
  12  12  -2  -24.20   21.70
  12 -24  -2    9.40   12.40
 -12 -12  -2   20.70    5.20
  24 -12   2   22.00   13.10
 -12  24  -2   19.60   11.50
 -12  24   2    9.40    8.00
  24 -12  -2   10.40   12.80
 -12 -12   2   14.00    4.60
  11  13   2   53.29   10.80
  11 -24  -2   29.50   12.90
  13  11  -2   14.70   23.80
  13 -24   2   38.90    7.80
 -24  11   2   30.20   10.30
 -24  13  -2   56.89    7.00
 -13  24  -2   43.90   12.40
 -11  24   2   32.60    9.20
 -13 -11   2   37.30    5.90
  24 -11  -2   33.10   13.90
 -11 -13  -2   40.70    6.80
  24 -13   2   37.90   14.50
 -24  14  -2  112.39    8.70
  10  14   2  113.39   12.40
  14  10  -2  119.09   50.29
  14 -24   2  120.19   11.30
 -24  10   2   96.19    9.90
 -24  10   2  117.29   13.90
  10 -24  -2   76.59   15.20
 -14 -10   2   96.29    8.70
  24 -14   2  108.39   20.90
 -10 -14  -2  113.59    9.00
 -10  24   2  103.39   12.20
  24 -10  -2  100.19   18.90
 -14  24  -2  119.09   16.30
 -24   9   2   21.30   10.10
  15 -24   2   24.00    7.40
 -24  15  -2   25.20    5.00
   9  15   2   34.60   12.60
   9 -24  -2   12.50   11.00
  15   9  -2  -13.30   28.40
 -24   9   2    0.40    6.20
   9  15   2   32.00    8.40
 -15  -9   2   11.30    4.60
 -15  24  -2   23.40   11.00
  24 -15   2   10.00   14.90
  -9  24   2    3.40    8.50
  -9 -15  -2   15.50    5.10
  24  -9  -2   16.20   12.90
 -24   8   2   50.29    8.40
   8  16   2  100.09   16.50
   8  16   2   79.89   11.00
  16   8  -2   30.90   28.50
 -24  16  -2   68.09    6.70
   8 -24  -2   54.39   11.80
  16 -24   2   59.69   10.90
  24 -16   2   58.79   16.40
  -8  24   2   40.50   10.40
 -16  24  -2   53.19   13.10
  24  -8  -2   49.10   16.00
 -16  -8   2   44.30    7.10
  -8 -16  -2   59.99    8.10
   7  17   2  126.29   18.20
 -24   7   2   91.09    9.70
   7 -24  -2   72.19   12.80
 -24  17  -2  100.89    8.20
   7  17   2   67.89   12.00
  17   7  -2  132.69   31.70
  17 -24   2   96.19   12.80
  24  -7  -2  128.79   20.80
  -7 -17  -2   82.49    8.00
  24 -17   2  114.49   20.10
  -7  24   2   77.69   12.30
 -17  -7   2   78.99    7.50
 -17  24  -2   92.09   15.10
 -24  18  -2   16.00    5.00
 -24   6   2    6.30    5.90
  18   6  -2   13.50   31.20
   6 -24  -2    1.20   10.60
  18   6  -2   20.30   11.20
   6 -24  -2  -11.50    5.20
  18 -24   2   -1.00    8.50
   6  18   2    6.10    8.00
   6  18   2   31.90   12.80
 -18  -6   2    1.30    4.50
  24 -18   2    4.30   16.10
  -6 -18  -2    6.60    5.10
 -18  24  -2   11.70    9.90
  -6  24   2   -3.00    8.80
  24  -6  -2    6.70   12.40
 -24   5   2   16.50    5.80
   5 -24  -2   13.70    5.80
  19 -24   2   16.40   10.10
   5  19   2   27.10   12.60
  19   5  -2   51.69   12.80
 -24  19  -2   13.60    5.30
  19   5  -2  -17.80   32.40
   5 -24  -2   15.00   11.00
  -5 -19  -2    9.30    6.00
 -19  24  -2   14.90   10.20
 -19  -5   2    9.30    5.20
  -5  24   2    8.00    9.80
  24  -5  -2   10.50   13.60
  24 -19   2   18.50   15.30
   4  20   2    7.40   11.10
  20 -24   2   -4.30   21.90
  20   4  -2   23.70   32.60
 -24   4   2    2.50    5.70
  20 -24   2    6.80    9.80
 -24  20  -2    9.40    5.20
   4 -24  -2    1.40    5.80
  20   4  -2   26.80   12.10
 -20  -4   2   -3.90    5.40
 -20  24  -2   26.60   10.80
  -4  24   2    3.10    9.10
  24  -4  -2   11.30   14.60
  -4 -20  -2    3.40    5.20
  24 -20   2   18.80   17.20
   7  18  -2   94.89   21.20
   7 -25   2  114.49   10.00
 -25  18   2  125.49   14.80
  18 -25  -2  112.89   22.00
  18   7   2  138.49   14.60
 -25   7  -2  112.19    8.60
 -18  -7  -2  113.39    8.90
  25  -7   2  112.19   17.80
  -7 -18   2   89.89    8.00
  25 -18  -2  125.99   20.20
 -18  25   2   92.59   13.50
  -7  25  -2   73.39   15.30
   8  17  -2   33.80   20.30
 -25   8  -2   51.89    7.20
  17 -25  -2   53.99   16.00
  17   8   2   36.90   10.20
   8 -25   2   34.20    7.20
 -25  17   2   21.30   11.30
 -17  -8  -2   35.40    6.20
 -17  25   2   28.80    8.80
  -8 -17   2   25.30    5.20
  -8  25  -2   11.90   11.80
  25  -8   2   29.90   11.40
  25 -17  -2   32.30   14.50
  16 -25  -2  -21.90   14.60
   9  16  -2    8.50   18.90
 -25  16   2   28.00   10.20
   9 -25   2   16.90    5.70
 -25   9  -2   18.60    5.40
  16   9   2   25.10    9.30
  -9 -16   2   10.80    5.00
  -9  25  -2   -2.50   12.60
  25 -16  -2   11.00   13.40
  25  -9   2   10.60   12.10
 -16  25   2    1.70    7.60
 -16  -9  -2   13.90    5.10
  10  15  -2    1.30   20.50
  15 -25  -2   52.09   15.20
 -25  10  -2   66.39    7.00
  15  10   2   62.99   10.30
  10 -25   2   52.69    8.90
 -25  15   2   54.59   12.60
  25 -15  -2   36.60   14.80
 -15  25   2   53.89   10.40
 -15 -10  -2   55.09    7.00
 -10  25  -2   40.20   13.60
  25 -10   2   39.50   12.50
  14  11   2   16.70    7.60
  11  14  -2   -1.20   20.80
  14 -25  -2   -3.10   14.30
 -25  14   2   21.30   10.30
  11 -25   2   17.30    6.20
 -25  11  -2   24.10    5.20
 -11  25  -2   25.10   12.90
 -14  25   2   14.60    8.00
 -14 -11  -2   19.70    5.70
  25 -11   2    5.10   11.90
  25 -14  -2   10.70   13.30
 -11 -14   2    9.00    4.40
 -25  13   2   24.40    9.70
 -25  12  -2    9.50    5.00
  13  12   2    1.80    7.70
  12 -25   2    4.80    6.00
  13 -25  -2  -24.10   14.40
  12  13  -2   22.70   22.00
 -12 -13   2    0.20    4.40
  25 -13  -2   13.70   15.00
 -13 -12  -2   10.00    5.40
  25 -12   2    5.50   11.20
 -12  25  -2    7.90   10.60
 -13  25   2   -5.20    7.90
  13 -25   2   55.69    8.70
 -25  13  -2   56.29    7.40
  12  13   2   57.49    9.90
 -25  12   2   29.20   12.10
  12 -25  -2   39.70   15.10
  13  12  -2   43.80   23.70
  25 -12  -2   40.00   14.50
 -12  25   2   26.80    8.90
  25 -13   2   53.09   15.00
 -13  25  -2   36.30   12.10
 -12 -13  -2   45.80    7.90
 -13 -12   2   39.30    6.50
  11  14   2   16.60    9.00
 -25  11   2   19.60    6.50
  14  11  -2  -13.10   26.40
  14 -25   2   34.80    7.50
 -25  14  -2   37.90    6.60
 -11 -14  -2   43.30    7.20
 -14 -11   2   18.70    4.90
 -14  25  -2   17.60   10.90
 -11  25   2   22.90    8.90
  25 -14   2   41.60   15.20
  25 -11  -2   42.30   15.60
  15  10  -2   19.60   25.40
  10  15   2   60.09   15.70
 -25  10   2   -2.10    6.50
 -25  15  -2   43.10    6.70
  10  15   2   38.60    8.80
  15 -25   2   25.90    7.70
  10 -25  -2   24.30   14.00
 -15  25  -2   19.90   10.40
 -10  25   2   16.60    8.70
 -15 -10   2   15.40    5.60
  25 -15   2   29.60   15.40
 -10 -15  -2   24.10    5.50
  25 -10  -2   14.90   13.00
   9  16   2   94.19   17.10
  16 -25   2   74.29   10.80
 -25  16  -2   56.89    6.70
   9  16   2   41.00   16.20
  16   9  -2   74.39   28.50
 -25   9   2   37.20    7.20
  25 -16   2   58.39   16.60
  25  -9  -2   62.19   15.50
 -16  -9   2   44.70    6.50
 -16  25  -2   46.30   12.70
  -9  25   2   35.10    9.60
  -9 -16  -2   46.00    8.00
 -25   8   2    6.80    6.70
  17 -25   2   13.20    8.70
 -25  17  -2   14.40    4.90
  17   8  -2  -64.59   28.20
   8 -25  -2    1.90   12.60
   8  17   2   28.70   14.80
 -17  25  -2    6.80    9.90
  25 -17   2    7.80   14.50
  25  -8  -2    2.70   12.70
  -8 -17  -2   13.20    5.40
 -17  -8   2    0.90    4.50
  -8  25   2   -2.00    8.20
  18   7  -2   20.80   33.20
   7 -25  -2   21.70   12.20
   7  18   2   15.00    9.80
   7  18   2   12.80   12.80
  18 -25   2   11.90    8.80
 -25   7   2    5.70    6.10
 -25  18  -2   15.70    5.50
  25  -7  -2    8.50   13.30
 -18  25  -2   22.90   10.50
 -18  -7   2    3.30    5.00
  -7  25   2    5.30    9.20
  -7 -18  -2    5.50    5.60
  25 -18   2   27.10   17.40
   0   0   3  454.15   19.60
   0   0   3  423.06   19.50
   0   0   3  472.15   20.50
   0  -1   3  414.26   19.10
   0  -1   3  409.76   18.20
  -1   1   3  414.46   18.40
  -1   1   3  413.86   18.10
   1   0   3  431.56   19.20
  -1   1   3  425.86   19.40
   0  -1   3  409.36   18.10
   1   0   3  404.46   18.80
   1   0   3  418.26   18.40
   0   1   3   36.90    5.20
   0   1   3   33.40    4.80
   1  -1   3   38.00    5.20
  -1   0   3   41.80    3.90
   1  -1   3   36.10    4.50
   1  -1   3   34.10    4.50
  -1   0   3   31.80    4.00
   0   1   3   31.90    5.60
  -1   0   3   38.10    6.40
   0  -2   3  570.44   23.70
   2   0   3  497.75   24.70
   2   0   3  609.34   24.60
   0  -2   3  547.95   26.00
   0  -2   3  602.14   23.90
  -2   2   3  588.04   23.70
   2   0   3  588.94   25.00
  -2   2   3  510.65   24.70
  -2   2   3  496.45   25.60
   1   1   3 1439.26   56.99
  -2   1   3 1329.47   57.19
  -2   1   3 1347.17   55.69
   1  -2   3 1343.67   55.99
  -2   1   3 1333.67   56.09
   1  -2   3 1364.46   56.69
   1  -2   3 1399.26   56.19
   1   1   3 1373.56   56.69
   2  -1   3 1362.66   56.59
  -1  -1   3 1294.57   55.89
  -1   2   3 1350.16   56.79
   2  -1   3 1409.86   56.69
   2  -1   3 1362.36   56.29
  -1   2   3 1385.06   56.29
  -1  -1   3 1346.77   55.79
   0   2   3  680.13   29.80
   0   2   3  700.63   30.40
   2  -2   3  718.33   30.30
  -2   0   3  697.73   29.50
   0   2   3  685.43   30.50
  -2   0   3  693.03   29.20
   2  -2   3  709.53   29.70
   2  -2   3  701.33   30.00
  -2   0   3  723.23   30.70
  -3   3   3  772.22   33.90
  -3   3   3  820.72   35.00
   0  -3   3  815.22   33.70
   0  -3   3  806.92   34.70
   3   0   3  836.52   34.20
   0  -3   3  793.32   33.40
   3   0   3  805.62   34.10
  -3   3   3  796.62   33.40
   3   0   3  790.82   35.30
   2   1   3   74.39    5.90
   1  -3   3   65.99    5.30
   1  -3   3   71.89    6.40
  -3   2   3   74.19    7.10
   2   1   3   68.99    6.20
  -3   2   3   70.69    4.40
   2   1   3   77.39    9.00
   1  -3   3   74.29    5.20
  -1  -2   3   72.09    7.50
   3  -1   3   68.69    6.20
   3  -1   3   79.99    6.20
  -2   3   3   60.49    6.60
  -2   3   3   73.59    5.70
  -1  -2   3   73.29    5.10
  -1  -2   3   72.49    4.90
  -2   3   3   71.79    5.90
   3  -1   3   70.79    7.50
  -3   1   3  654.13   26.10
   2  -3   3  628.14   26.90
  -3   1   3  639.14   27.80
   1   2   3  612.74   26.90
   2  -3   3  662.53   27.50
   1   2   3  641.34   28.60
  -3   1   3  604.54   26.60
   2  -3   3  614.34   26.60
   1   2   3  640.74   27.40
  -1   3   3  593.84   26.80
   3  -2   3  632.74   26.90
  -2  -1   3  615.84   26.50
   3  -2   3  623.04   27.10
  -2  -1   3  631.64   27.90
   3  -2   3  611.84   27.30
  -1   3   3  619.04   27.50
  -2  -1   3  624.94   26.20
  -1   3   3  626.14   27.70
  -3   0   3 2296.57   90.69
   3  -3   3 2098.09   90.79
   0   3   3 2192.98   89.79
   3  -3   3 2187.18   89.99
   3  -3   3 2232.78   89.69
   0   3   3 2188.08   90.19
  -3   0   3 2188.68   89.09
   0  -4   3   30.30    3.60
   4   0   3   24.80    4.90
  -4   4   3   35.40    6.10
   4   0   3   28.40   11.30
   0  -4   3   29.00    3.50
   0  -4   3   31.60    5.40
   4   0   3   36.00    4.90
  -4   4   3   35.50    3.70
   3   1   3  421.46   18.70
   1  -4   3  403.96   17.80
   3   1   3  409.76   21.30
  -4   3   3  436.86   19.60
   1  -4   3  436.06   18.20
   3   1   3  407.56   18.70
   1  -4   3  420.86   19.20
  -4   3   3  414.16   17.40
  -1  -3   3  403.56   17.80
   4  -1   3  354.06   20.90
  -1  -3   3  415.06   17.90
  -3   4   3  425.06   19.60
   4  -1   3  395.46   18.60
  -3   4   3  406.06   18.50
   4  -1   3  425.56   18.50
  -1  -3   3  417.16   19.50
  -3   4   3  406.16   18.40
   2  -4   3  880.61   37.90
   2  -4   3  875.31   36.80
   2   2   3  886.31   37.40
   2   2   3  896.41   37.60
  -4   2   3  901.61   36.40
   2  -4   3  922.31   37.30
  -4   2   3  937.51   38.40
  -2  -2   3  894.11   36.70
  -2  -2   3  922.31   38.20
  -2   4   3  872.11   37.20
   4  -2  -3  745.23   37.50
  -2   4   3  891.11   37.90
   4  -2   3  887.51   37.30
   4  -2   3  892.51   38.20
   1  -4  -3  402.56   16.70
   3  -4   3  407.86   17.70
   3   1  -3  400.86   17.50
   3  -4   3  402.76   18.10
   3  -4   3  384.66   18.30
  -4   1   3  383.46   19.00
  -4   1   3  395.26   16.90
   1   3   3  388.26   18.30
   1   3   3  403.76   18.10
  -1  -3  -3  403.36   16.90
   4  -3   3  398.46   18.60
  -1   4   3  407.96   18.00
   4  -3   3  396.76   18.10
   4  -3   3  397.46   17.90
   4  -1  -3  404.06   17.70
  -3  -1   3  388.56   17.10
  -3  -1   3  411.36   19.10
   4   0  -3  372.86   17.00
   4  -4   3  378.56   17.60
   4  -4   3  367.46   16.90
  -4   0   3  383.46   18.30
   0  -4  -3  377.16   15.90
   4  -4   3  386.66   17.40
  -4   0   3  369.66   16.10
   0   4   3  375.76   17.20
   0   4   3  383.96   17.80
   0  -5   3  196.58    9.80
  -5   5   3  196.08   11.60
   0  -5   3  196.98    9.20
   5   0   3  213.78   10.10
   5   0   3  203.18   11.00
   0  -5   3  192.88   11.30
   5  -5  -3  195.18   10.70
   1  -5   3  450.15   19.70
   4   1   3  430.36   20.30
  -5   4   3  454.35   21.40
  -5   4   3  445.16   18.80
   1  -5   3  467.15   20.90
   4  -5  -3  455.95   18.40
   1  -5   3  440.16   19.20
   4   1   3  473.55   20.10
   5  -1   3  453.85   22.70
  -4   5   3  448.06   21.00
  -4   5   3  456.45   20.10
   5  -4  -3  438.16   20.10
   5  -1   3  444.86   20.50
  -1  -4   3  458.75   21.00
   5  -1   3  463.85   19.90
  -1  -4   3  448.46   19.50
   2  -5   3   77.39    7.60
   2  -5   3   77.59    5.70
   3   2   3   81.29    6.30
   3  -5  -3   82.89    3.80
  -5   3   3   72.99    7.60
   2  -5   3   81.29    5.40
   3   2   3   86.99    6.70
  -5   3   3   75.59    4.30
   2   3  -3   85.89    5.40
   5  -2   3   78.39    6.10
  -2  -3   3   87.99    8.20
   5  -2   3   85.69    8.70
   5  -2   3   73.49    6.40
   5  -3  -3   77.29    6.30
  -3  -2  -3   79.39    4.80
  -3   5   3   78.59    7.40
  -2  -3   3   77.59    5.20
  -3   5   3   82.29    6.40
   2   3   3  210.48   10.90
   3  -5   3  222.68   10.70
   2   3   3  212.98   10.80
   3  -5   3  208.48   10.10
  -5   2   3  212.78    9.20
   2  -5  -3  204.18    8.90
   3   2  -3  209.48   10.10
  -5   2   3  210.58   12.00
   5  -3   3  187.28   11.00
  -3  -2   3  208.98   11.90
  -2   5   3  205.58   10.60
   5  -3   3  198.58   10.50
   5  -2  -3  199.18   11.00
  -2   5   3  201.28   11.50
  -3  -2   3  200.58    9.60
   5  -3   3  210.78   12.50
  -2  -3  -3  202.98    9.40
   1   4   3  450.55   21.70
   4  -5   3  481.65   21.80
   4  -5   3  493.95   22.00
   4  -5   3  479.95   21.30
  -5   1   3  493.25   22.70
   4   1  -3  476.35   21.30
   1  -5  -3  485.15   20.20
  -5   1   3  485.15   20.50
   1   4   3  485.15   21.80
  -4  -1   3  488.65   20.70
  -4  -1   3  505.45   22.70
   5  -4   3  505.95   22.40
  -1   5   3  512.45   21.70
   5  -4   3  492.45   21.80
   5  -4   3  493.65   21.60
  -1  -4  -3  479.05   20.40
  -1   5   3  501.55   22.40
   5  -5   3   13.10    3.50
   0   5   3   16.40    4.00
   5   0  -3   20.60    4.50
  -5   0   3   15.20    2.70
   5  -5   3   16.80    4.30
   0  -5  -3   13.70    2.00
  -5   0   3   13.00    5.60
   5  -5   3    9.90    4.30
   6   0   3   32.20    4.20
   6  -6  -3   29.40    5.00
   0  -6   3   30.40    5.70
   6   0   3   32.20    5.50
   0  -6   3   32.30    4.30
  -6   0  -3   26.20    3.40
  -6   6   3   40.60    6.40
   1   5  -3    8.40    2.50
   1  -6   3    6.30    2.80
   1  -6   3    9.70    4.80
   1  -6   3    4.80    2.20
   5   1   3    5.60    4.00
  -6   5   3    8.50    1.60
  -6   5   3    4.60    5.20
   5   1   3    7.10    3.10
   5  -6  -3    7.60    4.20
  -5  -1  -3    3.80    2.10
   6  -5  -3    2.90    4.20
  -1  -5   3    5.00    2.50
  -1  -5   3    8.20    4.80
   6  -1   3    4.60    4.00
  -5   6   3    7.50    4.80
   6  -1   3    7.20    2.80
   6  -1   3    2.10    7.30
   2  -6   3  162.48    8.70
   4   2   3  164.58    9.70
   4   2   3  168.38    9.20
  -6   4   3  167.78    7.40
  -6   4   3  173.18   10.90
   2  -6   3  178.08   10.20
   2   4  -3  160.28    8.40
   2  -6   3  168.68    8.10
   4  -6  -3  154.58    7.00
  -4   6   3  157.18   10.40
  -2  -4   3  174.68   10.40
   6  -4  -3  161.08    9.70
   6  -2   3  179.48   13.00
  -4  -2  -3  160.78    8.00
   6  -2   3  163.78    8.60
  -4   6   3  171.68    9.30
  -2  -4   3  169.88    8.40
   6  -2   3  161.68    9.70
   3   3  -3  195.88    9.90
  -6   3   3  194.48    8.70
   3  -6   3  196.98   10.10
   3   3   3  202.08   10.70
   3  -6  -3  192.18    8.40
   3  -6   3  192.88    9.60
  -6   3   3  219.28   12.00
   3  -6   3  201.08   11.00
   3   3   3  196.18   10.40
  -3  -3   3  207.18   11.70
  -3  -3  -3  195.88    9.10
   6  -3   3  189.98   10.70
   6  -3   3  190.38    9.90
  -3   6   3  186.08   11.40
  -3   6   3  193.88   10.50
  -3  -3   3  197.18    9.40
   6  -3   3  211.38   12.70
   6  -3  -3  188.78   10.60
   2   4   3  141.29    8.40
   4   2  -3  135.79    7.80
   2  -6  -3  126.49    6.10
   4  -6   3  129.49    7.50
   4  -6   3  127.99    8.60
   4  -6   3  141.99    8.50
  -6   2   3  137.09    9.70
   2   4   3  128.49    8.40
  -6   2   3  133.59    6.40
  -2  -4  -3  131.89    6.60
  -4  -2   3  133.79    9.60
   6  -4   3  123.99   10.30
   6  -2  -3  145.09    8.70
   6  -4   3  126.69    8.00
  -4  -2   3  131.79    7.00
  -2   6   3  131.59    9.00
   6  -4   3  142.29    8.40
  -2   6   3  139.99    8.20
   1   5   3   69.89    6.70
   1  -6  -3   71.99    4.20
   1   5   3   73.69    6.50
  -6   1   3   81.09    8.20
   5   1  -3   74.89    6.50
  -6   1   3   72.49    4.40
   5  -6   3   71.89    6.00
   5  -6   3   78.79    6.80
  -1   6   3   72.39    7.50
  -1  -5  -3   72.09    4.50
   6  -5   3   77.19    7.60
   6  -1  -3   74.29    7.10
  -1   6   3   79.69    6.30
  -5  -1   3   73.89    4.70
  -5  -1   3   81.69    8.00
   0   6   3   57.39    5.90
   6  -6   3   45.30    5.70
  -6   6  -3   56.49   14.40
   6  -6   3   48.30    6.90
  -6   0   3   44.10    7.20
   0   6   3   44.60    6.70
   0  -6  -3   49.30    3.60
  -6   0   3   47.50    3.90
  -7   0  -3   -1.10    2.40
   0  -7   3    1.00    2.50
   0  -7   3    6.30    4.90
   7  -7  -3    2.50    4.60
   7   0   3    3.50    4.60
  -7   7   3    0.80    5.00
   7   0   3    3.70    2.50
   0   7  -3    4.60    2.10
   6   1   3   27.70    5.10
   1  -7   3   41.30    6.70
   1  -7   3   31.00    3.10
  -7   6   3   32.90    6.10
   1   6  -3   26.00    3.80
   1  -7   3   31.50    4.10
   6   1   3   35.60    4.30
   6  -7  -3   31.80    5.40
   7  -6  -3   31.40    5.50
   7  -1   3   31.90    6.00
  -1  -6   3   40.30    6.50
   7  -1   3   35.10    3.80
  -6  -1  -3   33.60    3.90
  -1  -6   3   35.70    4.30
  -6   7   3   29.20    6.20
   2  -7   3  154.98    8.10
  -7   5   3  154.28   10.30
   5   2   3  152.08    9.20
   2   5  -3  145.19    7.70
   5   2   3  144.99    8.20
   2  -7   3  146.49    7.20
  -7   5   3  142.99    6.40
  -2  -5   3  141.29   10.40
  -5   7   3  136.59   10.00
   7  -5  -3  158.28    9.60
   7  -2   3  144.89    9.30
  -2  -5   3  145.99    7.60
   7  -2   3  134.09    7.60
   7  -2   3  147.09   13.30
  -5  -2  -3  150.68    7.60
   3  -7   3   12.20    3.40
  -7   4   3   11.80    1.90
   4  -7  -3    9.80    1.60
   3  -7   3   18.90    2.90
   4   3   3   15.80    4.20
   4   3   3   19.10    3.70
  -7   4   3   15.50    5.50
   3   4  -3   12.90    3.40
   7  -3   3   14.80    4.50
   7  -4  -3   13.90    4.90
  -4  -3  -3   14.40    2.50
  -3  -4   3   19.10    5.50
   7  -3   3   28.70    7.50
  -3  -4   3   14.90    2.70
  -4   7   3   12.50    5.10
  -4   7   3   17.40    4.10
   7  -3   3   15.00    3.30
   3   4   3  449.16   20.60
   4  -7   3  476.75   20.40
   3  -7  -3  445.66   18.70
  -7   3   3  446.16   18.90
   4   3  -3  457.55   20.10
  -7   3   3  449.46   21.50
   3   4   3  448.46   20.40
   4  -7   3  453.85   19.70
  -4  -3   3  449.66   21.50
  -3   7   3  470.55   20.50
   7  -4   3  458.65   22.60
  -4   7  -3  399.46   30.50
  -3   7   3  469.75   21.50
   7  -4   3  423.46   20.70
  -4  -3   3  454.15   19.60
   7  -3  -3  469.75   21.20
  -7   2   3   36.80    6.60
   5  -7   3   29.10    5.20
   5  -7   3   33.70    5.00
   2   5   3   32.00    5.70
   2   5   3   37.50    5.70
  -7   5  -3   46.20   12.30
   5   2  -3   44.70    5.90
   2  -7  -3   34.60    2.90
  -7   2   3   36.30    3.20
  -2  -5  -3   30.40    3.40
  -2   7   3   44.70    5.50
  -5  -2   3   41.90    3.90
   7  -5   3   37.70    5.80
  -5   7  -3   37.40   15.30
  -2   7   3   36.50    6.20
  -5  -2   3   43.10    6.60
   7  -5   3   44.90    6.60
   7  -2  -3   48.30    7.00
   1   6   3    9.40    4.00
   6   1  -3   11.50    4.90
   6  -7   3   10.20    3.70
   6  -7   3    6.60    4.30
  -7   1   3    8.30    5.40
  -7   6  -3   13.80   11.30
   1  -7  -3    8.30    1.90
  -7   1   3    9.60    2.10
   1   6   3    5.00    4.20
  -6  -1   3   10.10    2.40
  -6  -1   3    6.30    5.80
  -1   7   3    9.00    4.60
   7  -6   3    5.90    4.20
   7  -6   3   13.00    5.10
   7  -1  -3    6.80    5.20
  -6   7  -3    3.60   12.50
  -1   7   3    9.00    4.00
  -1  -6  -3    8.70    2.20
  -7   0   3   54.09    8.40
   0  -7  -3   45.30    3.70
  -7   7  -3   74.49   13.90
   7  -7   3   61.99    7.00
  -7   0   3   47.50    4.00
   7   0  -3   41.30    7.50
   7  -7   3   35.30    6.00
   0   7   3   49.70    7.00
   0   7   3   43.30    5.80
  -8   8   3  147.89   11.30
   0  -8   3  157.38    8.20
  -8   0  -3  151.78    7.70
   8  -8  -3  141.59   10.20
   8   0   3  152.08   10.00
   8   0   3  138.09    6.90
   0   8  -3  118.79    6.60
   7   1   3  112.69    6.50
  -8   1  -3  115.99    6.80
   7   1   3  119.89    8.70
   7  -8  -3  126.19    9.00
  -8   7   3  113.59    9.40
   1  -8   3  117.99    7.00
   1   7  -3  109.79    6.30
  -1  -7   3  118.99    9.30
   8  -1   3  110.39    6.00
   8  -1   3  115.09    8.90
   8  -7  -3  146.69    9.60
  -7   8   3  103.69    9.50
  -1  -7   3  106.19    6.70
  -7  -1  -3  115.49    6.50
  -8   6   3   -1.60    5.20
   2  -8   3    3.20    2.90
   2   6  -3    5.30    3.00
   6   2   3    6.60    4.50
   6  -8  -3    2.40    4.30
   2  -8   3    1.40    1.80
   6   2   3   -0.10    2.70
  -6   8   3   -0.10    5.10
  -2  -6   3    3.30    2.50
  -6  -2  -3    2.70    2.60
   8  -2   3    1.10    4.40
  -2  -6   3    9.10    5.30
   8  -6  -3    2.40    5.10
  -2   8  -3  -12.60   17.70
   3   5  -3  461.25   21.30
  -8   5   3  471.25   20.10
   5   3   3  481.85   21.40
   5   3   3  498.55   22.20
   3  -8   3  503.75   21.60
  -8   5   3  488.55   23.20
   3  -8   3  482.15   20.70
  -5  -3  -3  501.95   21.00
   8  -3   3  487.55   25.50
  -3  -5   3  504.95   21.20
   8  -5  -3  488.95   22.70
  -5   8   3  492.75   23.00
  -3   8  -3  497.55   33.30
   8  -3   3  479.35   22.60
  -3  -5   3  512.55   23.10
  -8   4   3  476.15   20.30
   4  -8   3  486.25   20.90
   4  -8   3  509.45   21.80
  -8   4   3  476.65   23.00
   4   4   3  484.55   22.20
   4  -8  -3  487.95   20.00
  -8   4  -3  485.45   26.00
   4   4   3  473.35   21.70
   4   4  -3  496.05   21.70
   8  -4   3  496.75   24.70
   8  -4   3  473.75   22.50
  -4  -4  -3  505.65   20.90
  -4   8  -3  446.06   31.80
  -4   8   3  494.85   23.30
  -4  -4   3  477.75   21.10
   8  -4  -3  511.45   23.00
  -4   8   3  518.25   22.00
  -4  -4   3  478.45   22.90
   3   5   3   65.99    6.30
  -8   3   3   58.59    7.70
   3   5   3   61.29    6.50
  -8   5  -3   67.49   11.40
   3  -8  -3   52.19    3.50
   5  -8   3   63.99    5.30
   5  -8   3   66.09    6.00
   5   3  -3   59.99    6.90
  -8   3   3   64.69    3.80
  -3  -5  -3   58.39    4.40
  -5  -3   3   60.99    4.80
  -5  -3   3   57.89    7.80
   8  -5   3   47.70    6.70
  -3   8   3   59.39    7.90
   8  -5   3   62.19    8.70
  -3   8   3   60.49    6.30
  -5   8  -3   49.40   15.60
   8  -3  -3   53.69    7.40
  -8   2   3  117.79    5.90
   6  -8   3  115.79    7.60
   6  -8   3  112.39    7.90
  -8   2   3  111.99   10.10
  -8   6  -3  100.29   15.10
   2   6   3  109.09    7.80
   6   2  -3  115.19    8.70
   2  -8  -3  110.49    5.80
  -6  -2   3  115.99    6.40
   8  -6   3  126.19   10.60
   8  -2  -3  124.19   10.10
  -6   8  -3  104.89   17.40
  -6  -2   3  117.89    9.30
  -2  -6  -3   90.59    6.60
   8  -6   3  113.29    8.80
  -2   8   3  122.49    8.00
  -2   8   3  104.79    8.70
   1   7   3   64.59    6.50
   7  -8   3   52.99    6.80
  -8   7  -3   65.19   12.40
  -8   1   3   56.59    7.90
   1  -8  -3   61.69    4.20
   7  -8   3   63.19    6.60
  -8   1   3   61.19    4.50
   7   1  -3   58.69    8.60
   1   7   3   59.99    7.20
   8  -7   3   61.59    7.90
  -7  -1   3   71.89    8.30
  -7  -1   3   61.59    4.70
   8  -7   3   58.19    7.20
   8  -1  -3   64.69    8.70
  -1  -7  -3   63.19    4.40
  -7   8  -3   82.09   15.00
  -1   8   3   60.89    6.40
  -1   8   3   55.49    7.10
  -8   0   3    5.50    2.50
  -8   0   3    2.30    5.70
   0  -8  -3    4.70    2.30
   0   8   3   10.20    4.30
   0   8   3   10.00    5.30
  -8   8  -3    4.90   11.50
   8  -8   3    5.50    5.00
   8   0  -3    4.10    6.30
   8  -8   3    1.50    4.30
   0   9  -3   95.19   23.30
   9   0   3  115.89    9.80
   0  -9   3  125.59    7.50
  -9   0  -3  117.09    7.10
   9  -9  -3  139.59   10.60
  -9   9   3  127.39   10.60
   8   1   3   33.30    6.10
  -9   1  -3   24.20    4.00
   8   1   3   32.40    3.60
   8  -9  -3   23.30    6.00
   1  -9   3   30.50    4.50
  -9   8   3   27.90    6.60
   9  -1   3   29.60    6.20
  -8  -1  -3   29.00    4.10
  -8   9   3   27.70    6.60
   9  -8  -3   29.30    6.50
  -1   9  -3   21.90   19.50
  -1  -8   3   31.90    4.80
  -9   2  -3  506.85   22.20
   7   2   3  522.35   23.80
  -9   2  -3  466.05   23.30
  -9   7   3  519.45   24.40
   7  -9  -3  517.85   23.60
   2   7  -3  487.65   22.10
   2  -9   3  508.95   22.60
   7   2   3  514.35   22.20
  -2  -7   3  543.45   24.40
  -2  -7   3  521.75   22.50
  -7  -2  -3  542.95   22.30
  -2   9  -3  531.45   35.80
   9  -2   3  521.25   24.20
  -7   9   3  559.84   24.80
   9  -7  -3  503.85   24.20
   6  -9  -3  776.32   31.10
   6   3   3  689.93   30.00
  -9   3  -3  627.34   31.50
   6   3   3  756.32   31.30
  -9   6   3  676.23   28.80
   3  -9   3  696.23   29.20
   3  -9   3  707.13   30.30
   3   6  -3  703.93   30.20
  -9   6   3  714.53   32.20
   9  -3   3  680.53   34.50
  -6  -3  -3  726.43   29.80
   9  -6  -3  754.12   31.80
  -3  -6   3  713.13   30.00
  -6   9   3  711.33   31.90
  -3   9  -3  669.43   41.50
   9  -3   3  716.43   31.70
  -3  -6   3  710.23   31.70
   5   4   3   46.10    5.40
  -9   5   3   34.30    2.70
   4   5  -3   46.30    6.40
  -9   5   3   40.30    6.90
   5  -9  -3   30.30    2.00
   5   4   3   41.90    6.30
  -9   4  -3   42.30    8.10
   4  -9   3   38.20    5.40
   4  -9   3   42.60    4.00
  -4   9  -3   24.40   15.80
  -5  -4  -3   36.80    4.20
   9  -4   3   35.60    7.00
  -4  -5   3   37.20    4.50
   9  -4   3   44.50    9.90
   9  -5  -3   44.30    8.00
  -4  -5   3   42.90    7.30
  -5   9   3   36.20    6.50
   4   5   3  688.83   30.80
  -9   4   3  734.73   32.20
  -9   5  -3  667.53   33.30
   5  -9   3  701.23   30.10
   5   4  -3  697.23   31.10
   4   5   3  730.63   31.30
  -9   4   3  701.23   29.40
   5  -9   3  709.53   30.80
   4  -9  -3  693.73   29.10
  -5  -4   3  741.43   30.30
  -4   9   3  738.43   31.00
   9  -5   3  693.23   31.70
  -5  -4   3  741.53   32.10
  -4  -5  -3  718.43   29.90
  -4   9   3  719.03   31.90
   9  -5   3  730.73   33.70
  -5   9  -3  724.33   40.30
   9  -4  -3  725.93   32.00
   3   6   3  364.56   17.80
  -9   3   3  372.96   16.20
   6  -9   3  379.66   17.80
   6  -9   3  373.66   17.20
  -9   3   3  373.26   19.10
  -9   6  -3  366.36   21.80
   3   6   3  373.26   17.90
   6   3  -3  375.46   18.70
   3  -9  -3  374.96   15.90
  -3   9   3  386.26   17.90
  -6  -3   3  396.76   19.10
  -3   9   3  378.66   18.80
   9  -3  -3  399.76   19.20
  -6  -3   3  372.66   16.80
  -6   9  -3  382.96   26.30
   9  -6   3  377.46   18.90
   9  -6   3  376.56   19.90
  -3  -6  -3  374.46   16.50
  -9   7  -3   37.30   10.20
   2  -9  -3   26.40    3.30
   2   7   3   36.90    6.60
   7  -9   3   33.50    5.10
  -9   2   3   33.20    3.60
   7  -9   3   29.10    5.30
   2   7   3   27.40    5.10
   7   2  -3   37.20    7.20
  -9   2   3   40.30    7.50
  -2   9   3   31.90    5.70
  -7   9  -3   23.70   13.30
  -7  -2   3   46.10    7.90
   9  -7   3   23.80    6.60
   9  -7   3   37.30    6.90
   9  -2  -3   30.50    6.70
  -2   9   3   37.60    6.80
  -7  -2   3   28.70    4.20
  -2  -7  -3   30.30    3.90
   1  -9  -3   20.80    3.50
  -9   1   3   21.40    6.90
   1   8   3   21.30    4.90
   8  -9   3   27.80    5.20
   8   1  -3   38.40    7.60
   8  -9   3   30.10    5.90
   1   8   3   26.40    5.60
  -9   8  -3   25.90   10.40
  -1   9   3   28.80    5.70
   9  -8   3   21.60    6.40
  -8  -1   3   28.60    4.10
  -8  -1   3   27.00    6.70
  -8   9  -3   33.20   12.40
  -1   9   3   17.10    5.90
  -1  -8  -3   23.20    3.80
   9  -8   3   29.60    6.00
   9  -1  -3   35.30    7.40
   9  -9   3   93.39    9.20
   9   0  -3  106.99   11.60
  -9   0   3   92.89   10.40
   9  -9   3  103.59    9.30
   0   9   3  101.09    8.20
  -9   0   3  107.29    6.50
   0  -9  -3   95.79    6.60
   0   9   3  103.49    9.90
  -9   9  -3  104.19   16.60
  10   0   3   43.30    8.30
   0 -10   3   53.69    5.30
   0  10  -3   36.10   21.10
 -10  10   3   40.30    8.00
 -10   0  -3   49.40    5.00
  10 -10  -3   51.89    9.60
 -10   9   3  458.45   22.20
   9 -10  -3  435.76   21.40
   1   9  -3  346.77   38.00
 -10   1  -3  425.46   19.10
   9   1   3  414.06   21.10
   1 -10   3  432.16   19.50
  -1  10  -3  425.96   33.80
  -9  -1  -3  452.45   19.30
  10  -1   3  431.26   21.40
  10  -9  -3  430.16   21.60
  -1  -9   3  451.05   19.60
  -9  10   3  435.26   21.70
   2 -10   3  490.65   21.50
   8 -10  -3  484.05   22.70
   8   2   3  489.45   22.70
   8   2   3  471.55   20.60
 -10   8   3  472.35   23.50
 -10   2  -3  484.35   21.00
  -8  10   3  472.75   23.40
  -2  10  -3  460.85   34.10
  10  -8  -3  485.85   23.50
  10  -2   3  475.75   23.20
  -2  -8   3  479.85   21.20
  -8  -2  -3  486.25   20.90
 -10   7   3    4.50    6.50
   7 -10  -3    5.20    5.80
 -10   3  -3   -3.20    3.40
   3 -10   3    2.40    3.30
   3   7  -3   12.10    4.10
 -10   3  -3   -0.10    3.00
   7   3   3    6.30    3.00
   7   3   3   10.50    5.10
  -7  10   3    0.80    5.90
  -7  -3  -3    6.70    3.10
  -3  -7   3   18.00    6.00
  -3  10  -3  -14.10   17.60
  10  -3   3    4.60    5.50
  -3  -7   3    4.40    2.90
  10  -7  -3    8.20    6.60
   6 -10  -3  893.41   38.60
   6   4   3  901.41   38.80
 -10   6   3  891.71   39.70
 -10   6   3  873.81   36.60
   6   4   3  889.71   37.90
 -10   4  -3  822.42   38.10
   4   6  -3  880.71   38.40
   4 -10   3  868.21   37.00
   4 -10   3  901.21   38.10
  10  -4   3  914.21   39.50
  -6  10   3  937.61   39.70
  10  -6  -3  909.71   39.70
  -6  -4  -3  913.31   37.60
  -4  -6   3  942.31   39.60
  -4  10  -3  947.41   47.80
  10  -4   3  918.21   43.10
  -4  -6   3  923.91   37.80
   5 -10   3  992.20   41.70
   5 -10   3 1041.60   42.70
   5   5   3  985.70   42.40
   5   5  -3  997.90   42.90
 -10   5  -3  940.01   43.30
   5   5   3 1036.20   43.00
 -10   5   3 1015.20   43.80
   5 -10  -3  920.81   40.80
 -10   5   3  990.20   41.10
  -5  -5  -3 1019.50   41.80
  10  -5   3  999.60   43.70
  -5  10   3 1009.80   43.80
  10  -5  -3 1074.59   44.20
  10  -5   3 1046.90   46.30
  -5  10  -3 1000.50   50.49
  -5  -5   3 1029.80   42.00
  -5  -5   3 1024.70   43.70
 -10   6  -3   44.70    8.60
 -10   4   3   46.20    3.60
   4   6   3   39.50    6.40
   6   4  -3   49.40    8.80
   6 -10   3   39.90    5.00
 -10   4   3   46.90    7.80
   4 -10  -3   39.10    3.10
   6 -10   3   33.50    5.60
   4   6   3   49.70    6.40
  -6  -4   3   42.70    4.50
  -4  10   3   40.90    6.10
  10  -6   3   40.90    9.20
  10  -6   3   49.60    8.00
  10  -4  -3   48.50    8.00
  -6  10  -3   56.29   16.80
  -4  -6  -3   44.50    4.80
  -4  10   3   45.40    7.90
  -6  -4   3   52.19    7.90
   7   3  -3  258.27   14.60
 -10   3   3  230.48   14.40
 -10   3   3  244.78   10.80
   7 -10   3  217.48   12.20
   3   7   3  235.48   12.60
   3   7   3  236.98   12.80
   3 -10  -3  217.68   10.30
   7 -10   3  236.68   12.60
 -10   7  -3  203.78   16.40
  -3  -7  -3  223.18   11.00
  10  -3  -3  239.38   14.70
  10  -7   3  220.28   15.80
  -3  10   3  232.28   12.50
  -3  10   3  230.78   14.20
  10  -7   3  224.28   14.20
  -7  -3   3  249.78   14.50
  -7  10  -3  224.58   22.40
  -7  -3   3  239.98   11.50
 -10   8  -3  291.97   20.00
   2   8   3  308.87   15.70
 -10   2   3  295.87   17.10
   8 -10   3  323.47   16.10
   2 -10  -3  297.87   13.30
   2   8   3  302.27   15.90
 -10   2   3  307.57   13.70
   8   2  -3  304.47   17.90
  -2  10   3  302.17   15.20
  -2  10   3  299.17   16.80
  10  -8   3  285.17   16.50
  -2  -8  -3  292.37   13.60
  10  -2  -3  292.97   17.40
  10  -8   3  293.27   17.80
  -8  -2   3  298.27   14.00
  -8  10  -3  310.17   24.20
 -10   1   3   95.29    6.40
   1 -10  -3   92.49    5.90
   9 -10   3   94.99    9.00
   1   9   3  104.69    9.90
 -10   1   3  101.19   10.80
   9 -10   3   88.29    8.90
   9   1  -3   97.59   11.80
   1   9   3   88.39    8.10
 -10   9  -3   84.29   15.30
  -1  10   3   98.99    9.00
  10  -9   3   93.09   10.00
  -1  -9  -3  103.99    6.50
  -1  10   3   94.19   10.40
  10  -9   3   97.49   10.40
  -9  -1   3  108.89    6.70
  -9  -1   3   88.39   10.50
  10  -1  -3  103.39   11.60
  -9  10  -3   92.89   17.00
  10 -10   3   10.40    6.50
 -10   0   3    4.30    6.90
  10 -10   3   -6.90    5.90
  10   0  -3    1.50    8.70
 -10   0   3    1.30    3.00
   0  10   3    1.20    4.50
 -10  10  -3    3.90   10.90
   0 -10  -3    3.10    2.80
   0  10   3    9.40    6.00
  11   0   3  424.56   21.50
   0  11  -3  370.36   36.50
 -11   0  -3  437.46   19.20
  11 -11  -3  416.66   22.30
 -11  11   3  427.06   21.80
   0 -11   3  434.66   19.50
   1  10  -3  273.27   31.50
 -11  10   3  281.47   16.90
  10 -11  -3  287.37   16.40
  10   1   3  270.17   15.60
   1 -11   3  265.67   13.40
 -11   1  -3  272.17   13.20
 -10  -1  -3  278.87   13.20
  -1 -10   3  284.07   13.50
  11 -10  -3  282.07   17.10
 -10  11   3  275.97   16.30
  -1  11  -3  265.97   29.60
  11  -1   3  281.27   16.20
   9 -11  -3   26.20    7.00
 -11   9   3    6.70    6.60
   9   2   3   12.20    6.20
 -11   2  -3    9.60    3.60
   2   9  -3  -20.80   22.20
   2 -11   3   12.90    3.80
  -2  -9   3   12.20    3.50
  11  -2   3    1.90    6.50
  -9  -2  -3    9.80    3.50
  11  -9  -3   16.40    7.80
  -2  11  -3   21.40   19.20
  -9  11   3    7.80    7.10
   8   3   3  613.54   27.10
 -11   8   3  638.44   29.70
   8   3   3  638.44   29.00
   3 -11   3  633.84   27.80
 -11   3  -3  641.34   27.40
   8 -11  -3  623.54   29.00
  11  -3   3  632.04   29.70
  -8  -3  -3  650.83   27.40
  11  -8  -3  666.83   30.30
  -8  11   3  662.43   29.90
  -3  11  -3  649.64   41.20
  -3  -8   3  651.53   27.70
   7 -11  -3  926.71   39.70
   7   4   3  883.41   38.50
   7   4   3  904.41   39.80
 -11   7   3  883.81   37.30
   4 -11   3  931.31   39.00
   4   7  -3  857.91   38.70
 -11   7   3  919.41   40.60
  -7  11   3  947.91   40.70
  11  -7  -3  951.60   41.20
  11  -4   3  934.71   40.90
  -4  11  -3  917.71   48.80
  -4  -7   3  942.41   40.60
  -7  -4  -3  951.40   38.50
  -4  -7   3  915.31   38.60
   6 -11  -3   21.70    6.10
 -11   6   3   18.40    7.20
   5   6  -3   26.60    6.10
   6 -11  -3   19.20    2.90
   6   5   3   23.00    5.60
   6   5   3   31.40    5.30
   5 -11   3   20.80    3.80
 -11   6   3   27.20    2.80
 -11   5  -3   16.60    4.30
   5 -11   3   17.50    4.20
  -6  -5  -3   20.10    3.70
  11  -5   3   11.30    9.90
  -6  11   3   15.90    6.70
  11  -6  -3   22.90    8.10
  -5  -6   3   17.30    6.90
  -5  11  -3   27.90   17.30
  11  -5   3   17.00    6.60
  -5  -6   3   19.70    3.80
   6 -11   3  562.04   24.90
   6   5  -3  569.54   26.30
 -11   6  -3  533.75   25.50
   5 -11  -3  519.15   22.90
   6 -11   3  544.85   24.10
   5   6   3  555.24   24.90
 -11   5   3  559.84   23.40
 -11   5   3  552.44   26.40
   5   6   3  541.45   25.30
  -6  -5   3  577.94   24.30
  -5  11   3  558.44   26.30
  -6  11  -3  568.74   34.00
  11  -5  -3  571.04   27.10
  11  -6   3  562.24   29.30
  -6  -5   3  571.34   26.40
  -5  -6  -3  567.34   24.00
  11  -6   3  576.84   27.00
   7 -11   3  605.34   27.30
 -11   7  -3  619.94   29.00
 -11   4   3  646.04   26.40
   4 -11  -3  601.54   25.80
   7 -11   3  612.54   27.70
   4   7   3  622.54   28.00
   4   7   3  630.34   27.90
   7   4  -3  601.14   29.00
 -11   4   3  625.14   29.10
  -4  -7  -3  642.74   26.70
  -4  11   3  636.54   29.50
  11  -7   3  623.84   29.10
  -4  11   3  621.04   27.80
  11  -4  -3  669.33   30.70
  -7  -4   3  642.84   27.00
  -7  11  -3  643.44   36.60
  -7  -4   3  609.04   28.90
  11  -7   3  593.64   30.70
   3 -11  -3   45.80    4.10
   3   8   3   45.10    6.80
 -11   3   3   41.60    4.70
   8   3  -3   48.40    9.40
   3   8   3   54.59    8.40
   8 -11   3   44.90    7.20
   8 -11   3   44.80    6.60
 -11   8  -3   53.19    9.30
 -11   3   3   57.59    8.60
  -8  -3   3   48.10    8.40
  -8  -3   3   51.49    5.40
  11  -8   3   45.50    9.10
  -8  11  -3   56.89   14.60
  11  -8   3   52.89    9.20
  -3  11   3   47.20    8.10
  -3  11   3   34.50    6.80
  11  -3  -3   51.29   10.30
  -3  -8  -3   42.10    4.90
   2 -11  -3  123.99    7.00
   2   9   3  126.59    9.30
 -11   2   3  127.39   11.80
   2   9   3  129.49   10.60
   9   2  -3  118.29   13.30
   9 -11   3  119.99    9.70
 -11   2   3  130.39    7.70
 -11   9  -3  118.29   14.30
   9 -11   3  119.49    9.90
  11  -2  -3  133.19   13.40
  -2  11   3  122.19   11.90
  11  -9   3  121.39   11.50
  -9  11  -3  161.08   19.20
  -2  11   3  137.19    9.50
  11  -9   3  122.69   12.10
  -2  -9  -3  130.29    7.50
  -9  -2   3  123.89   11.80
  -9  -2   3  133.49    7.90
   1 -11  -3  181.28    9.20
   1  10   3  201.08   13.30
  10 -11   3  190.88   13.10
 -11  10  -3  200.08   17.10
   1  10   3  173.98   11.80
 -11   1   3  165.18   13.40
  10   1  -3  180.48   16.10
 -11   1   3  180.98    9.80
  10 -11   3  161.48   12.80
 -10  -1   3  188.58   12.80
 -10  11  -3  197.68   19.50
  11 -10   3  172.68   13.00
  -1  11   3  197.68   12.00
  11  -1  -3  186.48   17.00
  11 -10   3  177.58   13.50
 -10  -1   3  190.88    9.90
  -1 -10  -3  172.78    9.50
  -1  11   3  183.88   12.90
  11 -11   3   88.59   11.30
 -11  11  -3   99.99   16.10
  11   0  -3   94.09   15.00
   0  11   3   79.19    8.20
 -11   0   3   85.29   10.20
   0 -11  -3   87.39    6.30
 -11   0   3   91.49    6.90
   0  11   3  109.79   11.10
  11 -11   3   70.19    9.90
 -12  12   3   56.39    9.90
   0  12  -3   77.59   22.50
  12 -12  -3   81.29   12.30
  12   0   3   75.99   10.60
   0 -12   3   69.99    6.50
 -12   0  -3   79.19    6.50
 -12   1  -3   24.60    4.30
  11 -12  -3   27.10    8.50
  11   1   3   30.00    7.20
   1 -12   3   31.80    5.40
   1  11  -3   21.90   21.20
 -12  11   3   24.00    7.80
  12  -1   3   23.60    7.70
 -11  12   3   42.50    8.70
  -1  12  -3   25.10   20.60
  -1 -11   3   44.00    6.00
 -11  -1  -3   32.70    5.80
 -12   2  -3  388.66   18.00
  10   2   3  428.96   20.80
 -12  10   3  395.76   20.90
  10 -12  -3  391.16   21.60
   2  10  -3  356.36   38.30
   2 -12   3  401.76   18.60
  12 -10  -3  428.16   22.60
  12  -2   3  393.96   21.00
  -2  12  -3  355.86   33.00
 -10  12   3  393.96   21.10
  -2 -10   3  410.46   18.40
 -10  -2  -3  413.56   18.30
 -12   9   3  636.84   30.00
 -12   3  -3  639.34   27.40
   9 -12  -3  688.83   29.60
   9   3   3  648.34   29.30
   9   3   3  636.74   26.80
   3   9  -3  525.55   44.20
   3 -12   3  613.24   27.70
  -9  12   3  617.64   29.80
  12  -9  -3  659.53   30.90
  12  -3   3  627.64   29.90
  -3  12  -3  579.14   39.30
  -9  -3  -3  661.63   27.50
  -3  -9   3  663.03   27.80
   4   8  -3   46.60    4.90
 -12   4  -3   33.90    4.90
   8 -12  -3   35.60    7.50
 -12   8   3   30.50    8.20
   4 -12   3   31.90    6.00
   8   4   3   41.80    5.00
   8   4   3   41.40    8.00
  -8  -4  -3   31.20    5.00
  -4  12  -3   51.69   20.00
  12  -8  -3   39.40    9.20
  -8  12   3   27.30    7.80
  -4  -8   3   40.20    5.30
  12  -4   3   41.10    8.20
 -12   7   3  502.15   24.70
   5 -12   3  471.45   20.90
   5 -12   3  527.65   22.60
   7   5   3  484.25   23.30
   7 -12  -3  478.35   23.20
 -12   7   3  506.35   20.70
   7   5   3  500.45   22.10
   5   7  -3  471.45   22.60
  -7  12   3  502.35   24.40
  -7  -5  -3  497.95   21.70
  -5  -7   3  520.65   24.50
  -5  12  -3  507.65   33.30
  12  -7  -3  485.05   25.40
  12  -5   3  488.65   24.60
  -5  -7   3  499.15   21.90
 -12   6  -3  558.74   25.70
 -12   6   3  609.94   25.30
   6   6   3  592.64   27.30
   6   6   3  606.74   26.70
   6 -12   3  571.04   25.60
 -12   6   3  578.64   28.20
   6 -12   3  612.24   26.90
   6 -12  -3  600.54   27.30
   6 -12  -3  563.14   24.70
   6   6  -3  591.14   27.70
  12  -6   3  621.04   32.90
  12  -6  -3  643.64   30.60
  12  -6   3  630.74   29.30
  -6  -6   3  630.04   26.30
  -6  12  -3  592.04   35.70
  -6  -6   3  631.54   28.40
  -6  12   3  585.84   28.40
  -6  -6  -3  649.93   26.10
   5 -12  -3    9.90    2.10
 -12   5   3    9.30    2.70
 -12   7  -3    6.30    5.30
   7   5  -3   20.60    7.40
   5   7   3   17.90    5.40
   7 -12   3    6.70    4.50
   5   7   3    8.90    5.30
   7 -12   3   13.90    4.20
 -12   5   3    5.30    7.00
  -5  12   3    2.20    7.00
  -7  -5   3   14.50    3.80
  12  -7   3   17.20    7.20
  -5  -7  -3    8.50    3.50
  12  -7   3   12.40    9.80
  -7  -5   3   14.30    7.30
  12  -5  -3   22.10    9.30
  -7  12  -3   26.90   16.00
   8 -12   3  370.36   18.70
 -12   4   3  374.96   20.30
   8 -12   3  400.36   19.20
   4   8   3  421.86   20.00
   4 -12  -3  361.36   16.90
 -12   8  -3  405.36   20.50
   4   8   3  403.86   19.60
 -12   4   3  414.46   17.60
  12  -8   3  393.16   23.00
  -4  -8  -3  398.96   17.80
  -4  12   3  404.76   19.10
  -4  12   3  403.06   21.40
  12  -8   3  387.16   21.30
  -8  12  -3  394.46   26.90
  12  -4  -3  397.56   22.40
  -8  -4   3  395.66   18.10
  -8  -4   3  402.36   20.40
   9 -12   3  381.66   19.30
   3   9   3  399.76   20.00
   9   3  -3  392.66   22.70
   9 -12   3  379.86   19.30
   3   9   3  368.96   18.90
 -12   3   3  370.26   20.30
 -12   3   3  422.96   17.70
 -12   9  -3  382.76   21.60
   3 -12  -3  386.96   17.00
  -3  12   3  387.76   20.50
  -9  -3   3  415.66   18.10
  -3  -9  -3  386.86   17.60
  -3  12   3  404.46   19.40
  -9  12  -3  388.16   26.00
  12  -9   3  382.96   21.00
  -9  -3   3  383.16   20.20
  12  -9   3  401.36   22.90
  12  -3  -3  397.16   22.60
  10   2  -3   48.90   10.60
 -12   2   3   41.50    8.70
   2  10   3   44.80    6.90
  10 -12   3   54.79    9.50
   2 -12  -3   44.40    4.60
  10 -12   3   36.10    7.30
 -12  10  -3   50.39   10.40
   2  10   3   69.09    9.80
 -12   2   3   44.30    5.60
  12 -10   3   45.00    9.00
  -2  12   3   38.70    7.40
  -2 -10  -3   51.99    5.70
  -2  12   3   63.29   11.00
 -10  12  -3   65.39   14.70
 -10  -2   3   42.10    8.20
 -10  -2   3   42.50    5.20
  12  -2  -3   74.09   13.90
  12 -10   3   38.00    8.80
  11 -12   3   58.99   10.50
  11   1  -3   45.10   10.90
  11 -12   3   37.20    7.50
   1  11   3   51.19    7.70
 -12   1   3   45.80    5.90
 -12  11  -3   41.70   10.90
   1 -12  -3   43.40    5.10
 -12   1   3   57.49    9.50
   1  11   3   71.39   10.20
  12  -1  -3   59.09   11.50
  12 -11   3   45.70    9.20
  12 -11   3   42.50    8.80
  -1  12   3   48.50    7.50
  -1 -11  -3   54.69    5.30
 -11  -1   3   44.60    5.90
 -11  12  -3   64.19   13.20
  -1  12   3   59.59   10.80
 -11  -1   3   58.79    9.60
   0  12   3   70.49    9.30
 -12   0   3   79.29   10.20
  12 -12   3   93.69   12.60
   0  12   3   92.29   11.40
 -12   0   3   77.89    6.90
 -12  12  -3   93.19   16.10
  12   0  -3   83.19   15.90
   0 -12  -3   77.79    6.40
  12 -12   3   75.39   10.80
   0  13  -3  -16.60   20.40
 -13   0  -3   -0.70    3.80
  13 -13  -3    0.20    9.60
   0 -13   3    3.40    4.00
 -13  13   3   -2.50    7.70
  13   0   3   -6.00    7.00
 -13   1  -3   82.59    7.50
  12   1   3   78.79   10.60
 -13  12   3   75.29   10.90
  12 -13  -3   94.59   12.90
   1  12  -3  158.88   29.10
   1 -13   3  107.79    7.90
 -12  13   3   96.69   11.30
  -1  13  -3   91.89   23.20
  -1 -12   3  105.19    7.40
  13  -1   3   81.99   11.40
 -12  -1  -3   92.59    7.10
  13 -12  -3  109.49   15.60
  11   2   3  250.27   15.50
   2  11  -3  202.28   33.80
   2 -13   3  275.17   13.50
  11 -13  -3  263.27   16.60
 -13  11   3  240.08   15.80
 -13   2  -3  253.57   12.70
  13  -2   3  251.47   17.20
  13 -11  -3  256.57   18.00
  -2  13  -3  297.27   32.70
 -11  -2  -3  273.77   13.20
 -11  13   3  258.67   16.40
  -2 -11   3  263.27   13.10
 -13  10   3   58.89   10.60
  10   3   3   70.89    9.30
 -13   3  -3   65.89    6.20
  10 -13  -3   87.89   11.00
   3 -13   3   66.39    6.50
   3  10  -3   62.19   24.40
  13 -10  -3   66.99   11.30
  -3 -10   3   77.49    6.40
  -3  13  -3  118.89   22.70
  13  -3   3   66.49   10.70
 -10  -3  -3   77.39    6.90
 -10  13   3   76.29   11.30
   9   4   3  282.37   13.10
   9   4   3  274.07   15.70
   4 -13   3  284.67   14.20
 -13   4  -3  266.87   13.40
   4   9  -3  187.88   34.30
   9 -13  -3  283.87   16.20
 -13   9   3  273.97   16.50
  -9  13   3  268.67   17.40
  13  -9  -3  287.77   20.20
  -4  -9   3  289.57   13.80
  13  -4   3  284.07   17.30
  -4  13  -3  282.47   27.90
  -9  -4  -3  288.17   13.50
 -13   8   3  500.65   21.40
   8   5   3  506.25   24.20
 -13   5  -3  518.55   22.50
   8   5   3  495.75   22.60
 -13   8   3  497.45   25.00
   5 -13   3  496.65   23.00
   5   8  -3  458.75   22.40
   8 -13  -3  526.35   24.60
  -5  13  -3  574.94   36.40
  13  -8  -3  511.05   26.80
  13  -5   3  512.65   25.60
  -5  -8   3  536.35   22.90
  -8  -5  -3  547.35   22.80
  -8  13   3  539.05   25.90
   7   6   3    8.90    5.60
   7 -13  -3    3.90    6.10
   6   7  -3   10.90    5.60
   6 -13   3    1.70    4.20
   7 -13  -3    8.60    1.70
   7   6   3   18.80    4.30
 -13   7   3    6.70    2.30
   6 -13   3    9.50    2.90
 -13   7   3   -0.10    6.60
  -7  -6  -3    8.20    3.90
  -6  13  -3   14.40   16.40
  -7  13   3    8.70    7.60
  13  -7  -3   16.30    9.60
  -6  -7   3   12.00    7.00
  13  -6   3    2.90    7.20
  -6  -7   3   10.30    3.80
 -13   6   3  504.05   20.90
   6 -13  -3  443.96   20.10
   7 -13   3  452.15   21.30
   7   6  -3  458.15   23.80
   7 -13   3  484.75   22.20
 -13   6   3  505.95   24.40
 -13   7  -3  438.76   21.00
   6   7   3  457.35   22.80
   6 -13  -3  466.15   22.70
  13  -6  -3  508.65   27.40
  -6  13   3  496.15   24.40
  -6  -7  -3  496.95   21.30
  -7  -6   3  492.85   24.00
  13  -7   3  486.95   29.10
  -7  -6   3  533.35   21.90
  13  -7   3  523.55   25.70
  -7  13  -3  488.45   31.20
 -13   5   3  504.45   25.20
   8 -13   3  477.25   23.20
 -13   8  -3  502.75   23.40
   8 -13   3  514.65   23.70
   5   8   3  541.95   24.50
   8   5  -3  505.45   25.70
   5 -13  -3  489.95   21.70
   5   8   3  496.95   24.00
 -13   5   3  535.95   22.40
  13  -8   3  506.85   28.60
  -5  -8  -3  527.35   22.70
  -8  -5   3  534.95   25.70
  13  -5  -3  545.65   27.90
  -5  13   3  506.95   25.60
  -8  13  -3  527.95   33.10
  -8  -5   3  525.25   22.90
  13  -8   3  527.85   26.30
   4 -13  -3   10.30    2.40
   9 -13   3   -3.00    5.00
   4   9   3   11.30    6.00
 -13   4   3    7.40    3.30
 -13   4   3    1.50    7.30
   9   4  -3   16.90    8.60
 -13   9  -3   -4.50    6.50
   4   9   3   16.70    6.50
  -9  -4   3    9.00    3.90
  13  -9   3   19.10   10.50
  -4  13   3   11.70    8.10
  -4  -9  -3   14.60    3.80
  -4  13   3   15.90    5.80
  -9  13  -3   19.40   15.40
  13  -9   3    8.30    8.00
  13  -4  -3   18.80   10.50
  -9  -4   3    7.90    7.30
  10 -13   3  189.58   13.40
   3  10   3  179.98   11.90
  10   3  -3  186.88   16.30
  10 -13   3  191.58   12.60
 -13   3   3  181.48   13.40
 -13   3   3  201.18   10.40
   3  10   3  216.48   14.20
 -13  10  -3  152.98   16.20
  -3  13   3  203.58   12.60
  13  -3  -3  199.18   17.80
  -3  13   3  198.88   14.20
  13 -10   3  196.98   15.30
 -10  -3   3  199.78   10.80
  -3 -10  -3  197.08   10.40
 -10  -3   3  187.08   13.40
 -10  13  -3  198.38   21.20
  13 -10   3  179.58   15.80
 -13   2   3  148.69    9.30
 -13   2   3  146.19   12.40
   2  11   3  155.38   10.80
  11 -13   3  167.78   13.20
  11   2  -3  162.98   17.50
   2  11   3  177.78   13.00
  11 -13   3  137.49   11.40
 -13  11  -3  159.58   14.50
   2 -13  -3  153.68    8.60
  -2  13   3  159.18   12.90
 -11  -2   3  159.68    9.50
  13  -2  -3  153.38   17.10
  -2 -11  -3  152.78    9.10
 -11  13  -3  153.48   18.30
  13 -11   3  159.28   14.30
  -2  13   3  150.68   10.90
  13 -11   3  145.79   14.10
 -11  -2   3  148.89   13.00
  12 -13   3   23.10    8.60
  12   1  -3   12.10   11.10
 -13  12  -3   23.20   10.00
  12 -13   3   16.00    7.00
   1  12   3   20.10    6.40
   1  12   3   38.00    9.10
   1 -13  -3   19.30    3.80
 -13   1   3   24.00    8.50
 -13   1   3   17.40    4.40
 -12  13  -3   26.90   12.10
  -1 -12  -3   21.30    4.00
  -1  13   3   16.60    5.80
 -12  -1   3   18.90    4.50
  13 -12   3   18.60    9.40
  13  -1  -3   23.30   12.00
 -12  -1   3   20.70    8.60
  13 -12   3   16.70    8.30
  -1  13   3   23.80    8.70
   0 -13  -3    7.80    3.80
 -13  13  -3    7.00   10.20
   0  13   3    5.50    5.50
 -13   0   3    7.90    4.30
  13 -13   3   15.50    9.50
 -13   0   3   11.00    7.60
  13 -13   3    3.00    7.50
   0  13   3    1.80    7.90
  13   0  -3   12.50   12.10
 -14  14   3  -10.70    6.80
  14 -14  -3    4.60    9.70
 -14   0  -3   -5.50    4.10
  14   0   3   -0.30    7.30
   0  14  -3    4.90   19.00
   0 -14   3    0.60    4.00
  13   1   3   48.70    8.80
 -14   1  -3   46.10    6.20
  13 -14  -3   53.49   11.20
   1 -14   3   55.79    6.80
 -14  13   3   38.80    9.10
   1  13  -3   49.50   22.50
  -1 -13   3   55.49    6.30
  -1  14  -3   45.70   20.80
  14 -13  -3   48.70   11.40
  14  -1   3   47.50    9.40
 -13  14   3   44.70    9.00
 -13  -1  -3   50.79    6.30
 -14   2  -3   23.10    4.70
 -14  12   3   16.80    8.30
   2 -14   3   25.70    4.90
  12 -14  -3   22.80   10.30
   2  12  -3   48.80   24.40
  12   2   3   23.20    7.70
  14  -2   3   18.70    8.30
 -12  14   3   13.00    8.50
  -2  14  -3    5.40   19.20
  -2 -12   3   22.50    4.70
 -12  -2  -3   24.20    5.00
  14 -12  -3   23.40   10.60
 -14  11   3  103.79   11.60
   3 -14   3  122.99    8.50
  11 -14  -3  114.99   12.80
   3  11  -3  110.09   27.50
 -14   3  -3  119.89    8.00
  11   3   3  125.29   11.50
  14 -11  -3  123.19   15.40
 -11  14   3  135.19   13.20
  -3  14  -3  117.69   22.10
  -3 -11   3  124.49    8.80
 -11  -3  -3  135.19    8.80
  14  -3   3  134.49   13.00
   4  10  -3  347.67   36.70
   4 -14   3  369.86   17.60
  10 -14  -3  364.36   19.90
 -14   4  -3  352.06   16.90
  10   4   3  351.16   19.20
 -14  10   3  338.47   19.70
 -10  14   3  368.96   20.30
  -4 -10   3  370.36   17.30
  -4  14  -3  411.06   31.40
  14 -10  -3  394.86   22.80
  14  -4   3  374.96   20.90
 -10  -4  -3  388.66   17.40
   9 -14  -3   39.80    8.20
   5   9  -3   23.60   25.40
 -14   5  -3   33.50    6.10
 -14   9   3   41.30    5.10
   9   5   3   39.80    7.50
   5 -14   3   37.20    6.00
 -14   9   3   32.20    8.30
  14  -9  -3   57.49   11.70
  -5  -9   3   51.19    6.30
  -5  14  -3   61.59   19.80
  14  -5   3   37.10    9.00
  -9  14   3   42.90    9.10
  -9  -5  -3   55.49    6.00
   6   8  -3  286.87   15.10
 -14   8   3  306.57   13.70
 -14   6  -3  291.17   14.50
 -14   8   3  305.47   18.10
   8   6   3  319.17   15.10
   8 -14  -3  296.37   17.00
   6 -14   3  321.77   15.70
   8   6   3  305.27   17.10
  14  -6   3  305.37   19.70
  -6  -8   3  315.87   14.90
  -6  14  -3  310.17   27.10
  -8  -6  -3  304.97   14.80
  -8  14   3  314.47   18.70
  14  -8  -3  316.67   21.20
 -14   7   3  369.76   20.60
   7 -14   3  398.46   18.90
   7 -14   3  377.16   17.60
   7   7   3  394.16   19.70
   7   7  -3  383.16   19.80
   7   7   3  386.36   19.70
 -14   7   3  396.86   17.50
   7 -14  -3  373.36   16.70
   7 -14  -3  385.26   19.80
  -7  -7  -3  406.06   18.20
  -7  -7   3  409.46   18.40
  -7  14  -3  412.66   29.00
  -7  14   3  395.26   21.30
  14  -7  -3  431.56   24.10
  -7  -7   3  405.76   21.30
  14  -7   3  409.36   22.40
   6 -14  -3   25.10    3.40
   6   8   3   58.59    8.50
   6   8   3   29.70    6.50
 -14   6   3   15.70    7.40
 -14   6   3   25.70    3.90
   6 -14  -3   24.80    7.40
   8   6  -3   34.20    8.40
   8 -14   3   36.00    6.10
 -14   8  -3   43.30    5.50
   8 -14   3   23.00    5.40
  14  -8   3   26.40    9.10
  -6  14   3   19.00    8.40
  -6  -8  -3   32.10    5.70
  -8  -6   3   32.00    5.10
  -8  14  -3   43.60   17.00
  14  -6  -3   36.70   11.60
  -8  -6   3   31.90    8.40
  14  -8   3   34.70   13.00
   9 -14   3  359.86   18.60
   5 -14  -3  358.16   16.50
   5   9   3  359.86   18.90
   9 -14   3  375.96   18.90
 -14   9  -3  355.56   18.50
   5   9   3  387.06   20.10
   9   5  -3  372.76   21.90
 -14   5   3  387.96   17.50
 -14   5   3  386.66   20.90
  -5  14   3  390.96   21.60
  -9  14  -3  389.56   28.30
  14  -9   3  413.46   23.30
  -9  -5   3  387.96   21.00
  14  -9   3  386.46   24.40
  -5  -9  -3  380.26   17.60
  -9  -5   3  404.56   18.10
  14  -5  -3  402.26   24.40
 -14  10  -3  328.57   17.90
  10 -14   3  325.27   17.50
 -14   4   3  344.87   15.90
 -14   4   3  298.37   18.50
  10   4  -3  320.17   21.30
   4  10   3  310.17   17.10
  10 -14   3  311.57   18.30
   4 -14  -3  303.27   15.00
   4  10   3  345.77   18.80
 -10  -4   3  343.47   19.40
  14  -4  -3  370.96   24.70
  14 -10   3  375.66   22.80
  -4  14   3  350.16   17.30
 -10  14  -3  372.96   26.20
 -10  -4   3  335.77   16.00
  -4  14   3  352.56   19.50
  -4 -10  -3  336.47   15.80
  14 -10   3  348.67   22.00
  11 -14   3   25.80    7.50
   3  11   3   12.40    5.70
   3  11   3   24.20    8.20
   3 -14  -3    6.70    3.20
 -14   3   3    4.30    3.90
  11   3  -3    4.60    9.70
 -14   3   3    6.80    7.90
 -14  11  -3    1.30    7.40
  11 -14   3    2.30    5.90
 -11  -3   3   10.40    4.00
  -3  14   3    8.50    6.20
  14  -3  -3   14.40   12.90
  -3 -11  -3   12.50    4.20
 -11  -3   3    9.20    7.90
  14 -11   3   15.10   10.10
  -3  14   3   17.70    8.20
  14 -11   3    6.40    9.40
 -11  14  -3    4.40   13.20
  12 -14   3   72.19   10.00
   2 -14  -3   64.79    5.80
   2  12   3   83.79   12.00
   2  12   3   56.79    8.30
  12 -14   3   99.79   12.80
 -14   2   3   50.29    6.80
  12   2  -3   63.19   12.70
 -14  12  -3   52.19   10.60
 -14   2   3   60.99   10.10
  -2 -12  -3   56.99    6.20
  14 -12   3  100.19   15.30
  14  -2  -3   36.10   12.20
 -12  -2   3   60.69    6.50
 -12  14  -3   93.89   17.00
  14 -12   3   39.30   10.00
  -2  14   3   62.79    8.40
  -2  14   3   62.79   10.40
 -12  -2   3   51.89    9.00
 -14  13  -3   13.70    9.70
  13 -14   3   15.20    7.70
   1  13   3   21.70    6.10
 -14   1   3   16.60    8.40
  13 -14   3   30.60    9.90
  13   1  -3   31.70   11.80
   1 -14  -3   24.10    4.40
   1  13   3   28.60    8.90
 -14   1   3   21.90    4.80
 -13  -1   3   23.70    8.50
  -1  14   3   30.50    9.30
 -13  -1   3   17.10    4.60
  14 -13   3   27.40    9.80
  -1  14   3   29.90    7.10
  14 -13   3    8.40    8.50
 -13  14  -3   22.10   11.30
  14  -1  -3   31.00   13.30
  -1 -13  -3   19.20    4.30
  14   0  -3    1.50   11.20
   0 -14  -3    7.60    3.70
  14 -14   3    8.00   10.20
   0  14   3   19.60    8.40
  14 -14   3    7.80    8.10
 -14   0   3    3.90    7.30
 -14   0   3    4.70    4.30
   0  14   3   10.10    6.40
 -14  14  -3   11.10    9.60
   0  15  -3   24.00   18.30
   0 -15   3   25.60    4.80
  15   0   3   35.60    8.50
 -15  15   3   33.90    8.10
  15 -15  -3   46.30   10.90
 -15   0  -3   44.40    6.40
  14 -15  -3   24.90   11.10
  14   1   3   20.30    7.70
   1 -15   3   20.20    4.60
 -15   1  -3   15.70    4.30
   1  14  -3   24.40   19.70
 -15  14   3   14.30    8.30
  -1  15  -3   24.40   18.20
  15  -1   3    8.10    7.50
  -1 -14   3   17.20    4.80
  15 -14  -3   21.20   10.20
 -14  15   3   15.60    7.90
 -14  -1  -3   15.20    4.40
   2 -15   3   12.70    4.40
 -15   2  -3   10.80    4.20
   2  13  -3   -6.80   21.30
  13   2   3   17.30    7.30
 -15  13   3    7.40    7.80
  13 -15  -3   31.40    9.80
  -2  15  -3   24.80   19.90
 -13  -2  -3   21.40    5.00
  -2 -13   3    9.80    4.40
  15  -2   3   21.20    8.00
 -13  15   3    2.40    8.00
  15 -13  -3   22.90   10.60
   3  12  -3  174.18   28.50
 -15  12   3  131.89   12.20
  12 -15  -3  112.19   13.50
  12   3   3  113.19   11.80
 -15   3  -3  115.39    8.80
   3 -15   3  142.79    9.30
  -3  15  -3  165.88   25.40
  15 -12  -3  169.38   16.60
 -12  -3  -3  136.39    8.70
  -3 -12   3  130.29    9.00
 -12  15   3  119.19   13.20
  15  -3   3  128.99   13.40
   4 -15   3   48.10    6.80
 -15  11   3   43.80    9.30
 -15   4  -3   42.80    5.80
  11 -15  -3   48.80    9.40
   4  11  -3   42.50   24.60
  11   4   3   48.20    8.30
 -11  15   3   41.00    9.60
  -4  15  -3   41.40   19.00
  15 -11  -3   51.59   12.40
 -11  -4  -3   50.69    6.40
  15  -4   3   69.59   11.90
  -4 -11   3   53.69    6.20
 -15  10   3  157.48   13.00
 -15   5  -3  158.98    9.80
   5  10  -3  186.98   31.30
   5 -15   3  168.88   10.00
  10 -15  -3  157.08   14.70
  10   5   3  153.88   12.30
 -10  -5  -3  168.08   10.10
  15  -5   3  168.58   14.90
  15 -10  -3  168.78   17.80
  -5  15  -3  177.78   27.20
  -5 -10   3  165.88    9.80
 -10  15   3  160.48   14.40
   6   9  -3  295.17   41.90
   6 -15   3  382.96   18.50
   9   6   3  384.16   18.10
 -15   6  -3  383.86   17.80
 -15   9   3  383.76   21.40
   9   6   3  356.76   19.70
   9 -15  -3  383.86   20.60
 -15   9   3  387.16   17.00
  15  -9  -3  412.56   24.40
  15  -6   3  419.16   22.40
  -6  -9   3  400.76   18.40
  -9  -6  -3  402.86   18.10
  -6  15  -3  378.56   29.80
  -9  15   3  391.16   21.80
   8 -15  -3   16.00    7.60
   7   8  -3   26.20    5.60
   7 -15   3   13.10    4.90
   8   7   3   25.30    7.10
 -15   8   3   11.40    3.20
 -15   8   3   10.70    7.90
 -15   7  -3   12.90    4.30
  -8  -7  -3   34.40    6.30
  -8  15   3   14.30    8.50
  15  -8  -3   22.90   11.80
  -7  -8   3   19.80    4.60
  -7  15  -3   21.20   16.40
  15  -7   3   21.50    9.60
   7   8   3  195.78   13.30
   7   8   3  239.38   13.60
   8 -15   3  212.38   12.90
 -15   7   3  223.08   15.50
 -15   7   3  198.58   10.90
   8   7  -3  219.38   14.40
   8 -15   3  214.28   11.70
   7 -15  -3  207.98   10.10
   7 -15  -3  201.08   14.70
  -8  -7   3  230.88   11.90
  -8  15  -3  242.88   23.40
  -7  -8  -3  235.38   11.90
  -7  15   3  220.18   15.60
  15  -8   3  234.18   17.40
  -8  -7   3  244.38   16.00
  15  -7  -3  220.48   19.90
   6   9   3  269.87   15.80
   6   9   3  243.48   14.60
 -15   9  -3  252.07   12.90
 -15   6   3  257.57   16.70
   6 -15  -3  230.58   11.60
 -15   6   3  239.58   12.70
   9 -15   3  250.27   14.00
   9   6  -3  261.47   18.10
   6 -15  -3  246.68   14.80
   9 -15   3  260.37   14.30
  -9  15  -3  263.87   23.80
  -9  -6   3  272.57   13.20
  15  -9   3  240.88   21.50
  15  -6  -3  275.27   21.70
  -6  15   3  269.77   17.70
  15  -9   3  261.47   19.90
  -6  -9  -3  266.67   12.90
  -9  -6   3  280.67   17.10
 -15   5   3   13.20    7.80
  10 -15   3   23.20    6.90
   5  10   3   39.90    7.90
   5 -15  -3   24.00    4.10
   5  10   3   25.80    6.40
  10 -15   3   14.80    5.90
 -15  10  -3   30.80    5.90
   5 -15  -3   10.40    6.60
  10   5  -3   23.70   10.00
 -10  -5   3   12.80    4.50
 -10  -5   3    9.30    8.00
  -5  15   3   25.60    8.80
  15  -5  -3   19.80   13.70
 -10  15  -3   35.50   15.60
  -5 -10  -3   22.30    4.70
  15 -10   3   31.40   10.20
  15 -10   3   28.80   12.40
   4  11   3  269.27   16.60
   4  11   3  224.88   14.40
  11   4  -3  243.88   19.20
   4 -15  -3  226.38   11.30
  11 -15   3  248.48   15.50
 -15   4   3  209.98   12.40
  11 -15   3  234.88   14.50
 -15   4   3  220.58   16.10
 -11  -4   3  225.38   15.40
 -11  15  -3  267.97   23.00
  15  -4  -3  217.08   20.70
  -4  15   3  239.68   16.20
 -11  -4   3  245.48   12.80
  -4 -11  -3  246.58   12.60
  15 -11   3  249.38   18.30
  15 -11   3  268.97   21.40
 -15  12  -3  136.79   12.80
  12   3  -3  129.39   16.60
   3 -15  -3  136.99    8.20
 -15   3   3  134.19   12.40
  12 -15   3  155.78   14.10
  12 -15   3  128.79   12.20
   3  12   3  159.98   14.10
   3  12   3  148.89   11.40
 -12  -3   3  131.79   12.90
  -3 -12  -3  138.89    9.00
  15  -3  -3  145.99   18.20
  15 -12   3  135.29   15.60
  -3  15   3  152.08   11.70
 -12  -3   3  136.39    9.40
  -3  15   3  155.58   14.30
  15 -12   3  189.68   17.90
 -12  15  -3  184.68   19.80
   2  13   3   38.00    9.50
  13 -15   3   17.90    7.70
   2  13   3   20.90    6.20
   2 -15  -3   15.60    3.90
 -15  13  -3   38.30    8.80
 -15   2   3   12.60    4.30
  13 -15   3   28.80    9.70
 -15   2   3   22.60    8.60
  13   2  -3   18.30   11.40
  15 -13   3   30.40   11.10
 -13  -2   3   17.90    4.50
  -2  15   3   29.40    9.10
  -2 -13  -3   23.40    4.60
 -13  15  -3   28.10   11.50
  -2  15   3   17.80    6.70
 -13  -2   3   13.10    8.20
  15  -2  -3   32.40   13.70
  15 -13   3   15.10    9.20
  14   1  -3   52.99   12.80
 -15   1   3   48.60    6.60
   1 -15  -3   52.39    5.80
   1  14   3   53.19    8.20
 -15   1   3   55.69    9.70
  14 -15   3   77.69   14.70
  14 -15   3   59.99    9.90
 -15  14  -3   57.79   10.00
   1  14   3   56.19   10.20
  -1  15   3   59.49   10.70
 -14  -1   3   55.59    9.40
 -14  15  -3   64.79   11.60
  15 -14   3   75.49   13.80
 -14  -1   3   43.50    6.60
  15 -14   3   57.59   10.60
  15  -1  -3   55.69   13.40
  -1 -14  -3   54.89    6.30
  -1  15   3   60.99    8.30
 -15   0   3   77.29    7.30
   0  15   3   76.79    8.70
 -15   0   3   71.09   10.10
   0 -15  -3   71.79    7.10
  15 -15   3  109.49   15.90
  15 -15   3   76.29   11.70
   0  15   3   69.19   11.00
  15   0  -3   98.69   17.60
 -15  15  -3   74.09   13.60
   0 -16   3    4.80    4.10
 -16  16   3   12.30    8.00
  16   0   3   12.50    7.60
   0  16  -3   -0.50   17.70
 -16   0  -3    9.40    4.30
  16 -16  -3   12.80   10.80
 -16  15   3   66.89   11.50
 -16   1  -3   85.19    7.60
   1 -16   3   91.19    7.80
  15   1   3   92.19   11.20
  15 -16  -3   96.79   14.00
   1  15  -3   91.09   20.40
 -15  -1  -3   84.59    7.10
  -1 -15   3   93.39    7.30
  16 -15  -3  101.19   15.10
 -15  16   3   67.79   10.60
  -1  16  -3   80.09   19.50
  16  -1   3   95.39   11.60
  14   2   3  115.29   11.30
   2  14  -3   85.19   22.00
 -16   2  -3  108.79    7.60
  14 -16  -3  108.39   14.10
 -16  14   3  100.89   11.20
   2 -16   3  110.29    7.90
  -2  16  -3  115.59   20.60
  -2 -14   3  114.69    8.30
  16  -2   3  107.69   12.00
 -14  -2  -3  118.49    8.40
  16 -14  -3  122.29   15.50
 -14  16   3   94.69   11.50
   3 -16   3   44.00    6.60
 -16  13   3   43.40    8.60
   3  13  -3   30.20   21.10
 -16   3  -3   35.40    5.70
  13   3   3   49.60    8.40
  13 -16  -3   51.39   10.70
  16 -13  -3   43.80   11.60
  16  -3   3   54.19    9.60
  -3 -13   3   41.50    5.90
 -13  -3  -3   48.40    6.30
 -13  16   3   50.69    9.00
  -3  16  -3   51.19   19.20
 -16   4  -3   25.00    4.60
   4  12  -3   62.59   24.90
  12 -16  -3   20.80    8.90
 -16  12   3   24.10    7.80
   4 -16   3   30.80    5.70
  12   4   3   28.50    7.40
  -4 -12   3   36.70    6.40
 -12  16   3   26.90    8.70
  -4  16  -3   53.29   19.20
 -12  -4  -3   37.00    5.80
  16 -12  -3   39.80   12.00
  16  -4   3   37.20    8.90
   5  11  -3  134.79   27.00
 -16  11   3  130.79   12.20
  11 -16  -3  142.39   12.90
 -16   5  -3  130.59    8.60
  11   5   3  114.89   11.10
   5 -16   3  133.59    8.90
  -5  16  -3  158.18   25.30
 -11  16   3  133.29   12.30
  16  -5   3  138.39   14.10
 -11  -5  -3  124.79    8.60
  -5 -11   3  131.49    9.20
  16 -11  -3  136.99   17.20
  10 -16  -3   22.70    9.20
 -16   6  -3   21.80    4.50
  10   6   3   24.70    6.80
 -16  10   3   20.00    8.40
   6  10  -3   12.00   21.90
   6 -16   3   21.80    5.00
  16  -6   3   31.40    9.20
  -6  16  -3   34.50   17.30
 -10  -6  -3   25.80    5.00
 -10  16   3   18.90    8.00
  16 -10  -3   38.40   11.90
  -6 -10   3   24.70    4.80
 -16   9   3  182.28   14.10
   9   7   3  181.98   12.50
   7   9  -3  180.28   33.00
   9 -16  -3  194.18   13.90
   9   7   3  214.18   11.40
 -16   7  -3  179.08   10.30
   7 -16   3  195.28   11.80
 -16   9   3  174.18   10.60
  -9  -7  -3  206.68   11.20
  -7  -9   3  197.98   10.90
  16  -7   3  188.08   16.50
  -9  16   3  188.38   14.70
  16  -9  -3  182.28   19.10
  -7  16  -3  232.38   25.90
   8 -16   3  277.97   15.20
   8 -16  -3  280.17   16.80
   8   8   3  279.07   16.10
   8   8  -3  284.77   15.90
   8   8   3  321.77   16.00
 -16   8   3  277.57   17.20
 -16   8  -3  282.97   14.30
  -8  -8  -3  313.47   14.80
  -8  -8   3  296.57   14.90
  -8  16  -3  323.97   27.30
  -8  16   3  280.27   18.80
  16  -8  -3  309.77   22.70
  16  -8   3  293.87   19.90
 -16   7   3   18.40    3.90
   7 -16  -3   25.00    7.50
 -16   7   3   28.20    8.10
   9 -16   3   30.50    6.20
   7 -16  -3   27.00    3.30
   7   9   3   32.40    7.40
   9 -16   3   50.99    7.80
   7   9   3   54.19    8.90
  16  -9   3   40.80   10.10
  -7  16   3   31.40    8.80
  -7  -9  -3   39.20    6.60
  16  -7  -3   53.19   13.50
  -9  16  -3   38.30   15.60
  -9  -7   3   25.90    5.10
   6  10   3  156.08   12.10
   6 -16  -3  104.59   10.60
   6  10   3  130.89   10.30
 -16   6   3  132.19   12.70
  10 -16   3  131.29   10.20
  10   6  -3  129.39   14.10
   6 -16  -3  125.89    7.20
 -16   6   3  100.19    8.20
  16 -10   3  146.79   15.70
 -10  -6   3  135.19    9.30
 -10  -6   3  155.68   13.30
 -10  16  -3  170.28   21.40
  -6 -10  -3  138.59    8.90
  16 -10   3  119.19   17.80
  -6  16   3  138.39   14.00
  16  -6  -3  153.18   20.70
   5 -16  -3   87.29    9.80
  11 -16   3  115.29   11.10
 -16  11  -3   90.59    8.80
  11   5  -3   93.29   13.60
   5  11   3  106.09   11.70
   5 -16  -3   81.09    5.90
 -16   5   3   60.39    7.00
   5  11   3   80.39    8.80
  11 -16   3   83.19    9.20
 -16   5   3   78.69   11.40
  16 -11   3   76.69   13.90
  -5  16   3   85.09   11.50
  16  -5  -3   80.29   14.70
 -11  -5   3   82.79   10.70
 -11  16  -3   84.69   15.70
  16 -11   3   97.49   14.50
  -5 -11  -3   89.19    7.70
 -11  -5   3   70.99    7.50
  12 -16   3   47.80    7.80
   4  12   3   86.89   11.30
   4  12   3   53.79    9.20
   4 -16  -3   48.90    5.50
 -16   4   3   41.70    8.50
  12   4  -3   44.80   11.40
 -16   4   3   42.30    5.70
  16 -12   3   44.80   12.70
  -4  16   3   64.59   10.80
 -12  -4   3   63.19   10.90
 -12  16  -3   54.89   14.00
  16  -4  -3   46.10   14.30
  16 -12   3   64.59   11.90
  -4 -12  -3   49.50    6.40
 -12  -4   3   47.60    6.80
  13 -16   3  217.68   16.50
   3  13   3  214.08   15.20
 -16   3   3  155.58   10.60
 -16   3   3  183.68   14.40
  13 -16   3  195.98   14.10
  13   3  -3  170.48   18.90
 -16  13  -3  164.08   13.90
   3  13   3  186.68   12.80
   3 -16  -3  178.88    9.80
  16  -3  -3  202.28   21.50
 -13  -3   3  182.38   10.90
 -13  -3   3  190.78   14.40
  16 -13   3  209.78   19.30
  16 -13   3  160.98   17.80
  -3 -13  -3  188.08   10.50
  -3  16   3  178.08   12.30
  -3  16   3  172.88   14.40
 -13  16  -3  195.58   18.70
  14 -16   3   62.79   10.10
 -16   2   3   67.29    7.20
 -16   2   3   74.29   11.20
  14   2  -3   94.29   16.10
 -16  14  -3   89.99   12.10
   2  14   3   63.69   10.90
   2 -16  -3   65.29    6.70
  14 -16   3  109.19   14.80
   2  14   3   80.79    9.40
  -2  16   3   86.09    8.90
  -2 -14  -3   89.69    7.20
 -14  -2   3   76.49    7.50
  16 -14   3   76.79   14.80
  16  -2  -3   84.19   15.00
 -14  16  -3   80.39   12.80
  16 -14   3   79.59   13.20
  -2  16   3   65.29   11.10
 -14  -2   3   76.79   11.20
   1  15   3  -20.50    7.80
   1 -16  -3    5.20    3.80
  15 -16   3    2.20   10.00
  15 -16   3   -3.10    7.10
   1  15   3    9.00    5.80
 -16  15  -3   16.60    8.10
  15   1  -3   11.70   11.90
 -16   1   3   -8.60    6.50
  -1 -15  -3    0.60    3.90
  16 -15   3    0.10    7.80
 -15  -1   3    2.00    7.40
  -1  16   3    5.70    6.30
  16 -15   3    9.70   11.20
  16  -1  -3   -1.90   10.60
 -15  -1   3    0.30    4.00
  -1  16   3   -0.90    8.20
 -15  16  -3    3.60    9.80
   0 -16  -3  240.58   12.60
  16 -16   3  270.37   21.30
 -16  16  -3  250.37   17.70
  16 -16   3  239.18   18.10
   0  16   3  198.28   17.60
 -16   0   3  221.58   12.90
 -16   0   3  241.38   16.10
   0  16   3  254.57   14.60
  16   0  -3  257.57   22.20
 -17   0  -3  112.69    7.90
 -17  17   3   89.09   11.30
   0 -17   3   97.59    8.30
  17 -17  -3   87.89   16.20
  17   0   3   94.99   12.10
   0  17  -3  112.49   20.70
  16   1   3   70.79   10.90
   1 -17   3   74.49    9.90
   1  16  -3   70.89   22.80
 -17   1  -3   68.19    9.40
 -17  16   3   85.59   11.10
  16 -17  -3   79.69   13.70
  -1 -16   3   75.09    8.00
 -16  -1  -3   68.19    7.60
  17 -16  -3   76.19   15.20
  17  -1   3   76.79   12.80
 -16  17   3   74.89   12.10
   2  15  -3   16.50   18.70
 -17   2  -3   16.00    4.50
  15 -17  -3   13.50   10.90
   2 -17   3   12.30    4.50
  15   2   3   16.20    7.30
 -17  15   3   15.20    7.50
  17  -2   3   18.00    8.00
 -15  -2  -3   19.50    4.80
  17 -15  -3   17.20   12.10
  -2  17  -3    9.70   16.10
  -2 -15   3    9.80    4.30
 -15  17   3   16.60    8.00
  14 -17  -3   56.59   10.80
  14   3   3   50.79    8.60
 -17  14   3   52.29    9.30
   3  14  -3   49.40   20.90
   3 -17   3   49.80    6.30
 -17   3  -3   53.39    6.60
 -14  17   3   38.00    8.70
  17  -3   3   64.79   10.80
  -3  17  -3   39.40   18.30
  17 -14  -3   52.79   11.90
 -14  -3  -3   54.69    6.90
  -3 -14   3   42.30    6.60
   4 -17   3   89.19    7.40
  13   4   3  110.49   11.80
  13 -17  -3   83.59   13.00
   4  13  -3   96.69   23.70
 -17  13   3   81.79   11.40
 -17   4  -3   95.09    7.60
  17  -4   3  111.19   12.70
  -4  17  -3  134.29   21.30
  17 -13  -3  101.19   17.50
  -4 -13   3   93.59    7.40
 -13  17   3   96.89   11.10
 -13  -4  -3   96.79    8.00
  12   5   3   27.00    6.90
   5 -17   3   28.90    5.20
 -17  12   3   32.90    8.90
  12 -17  -3   29.80    9.00
   5  12  -3   44.80   22.40
 -17   5  -3   22.90    4.40
 -12  17   3   15.00    7.50
  -5  17  -3   34.40   18.00
  17  -5   3   14.50    8.40
 -12  -5  -3   33.20    5.80
  -5 -12   3   24.60    4.80
  17 -12  -3   25.90   11.80
   6 -17   3   37.60    6.70
  11 -17  -3   31.20    8.80
 -17  11   3   38.70    8.30
 -17   6  -3   27.90    5.20
   6  11  -3   30.60   21.30
  11   6   3   41.20    7.60
  17  -6   3   52.49    9.80
 -11  -6  -3   43.80    6.70
 -11  17   3   39.50    8.60
  -6 -11   3   38.60    6.20
  17 -11  -3   34.00   12.30
  -6  17  -3   47.00   16.40
  10   7   3  146.89   11.50
 -17   7  -3  151.88    9.20
   7 -17   3  153.48    9.90
 -17  10   3  156.08   13.30
  10 -17  -3  157.68   13.10
   7  10  -3  143.79   27.80
  -7 -10   3  153.08   10.00
 -10  17   3  143.19   14.00
  -7  17  -3  173.38   21.60
 -10  -7  -3  169.18   10.00
  17  -7   3  174.38   15.60
  17 -10  -3  169.88   18.30
 -17   8  -3    5.90    3.90
 -17   9   3    0.20    6.80
   8   9  -3    8.50   24.40
   9 -17  -3    6.60    7.60
   8 -17   3   11.50    5.00
   9   8   3   15.40    6.70
  -9  17   3    8.30    7.70
  17  -8   3   13.40    9.50
  17  -9  -3   20.00   12.30
  -9  -8  -3   10.10    4.60
  -8  17  -3   20.70   14.30
  -8  -9   3   12.30    4.90
 -17   8   3   77.59   10.90
   9 -17   3   91.09    8.80
   9   8  -3   73.49   27.30
   8 -17  -3   98.89   11.50
   8   9   3   88.99    9.50
   9   8  -3  105.59    9.80
   8   9   3  107.69   10.00
 -17   9  -3   84.59    6.90
 -17   8   3   79.19    6.80
  17  -8  -3   93.39   16.80
  -9  -8   3   89.09    7.90
  -8  17   3   90.99   11.40
  -9  17  -3  128.39   21.30
  -8  -9  -3   99.79    7.50
  17  -9   3  100.59   15.70
  10   7  -3  149.39   12.40
 -17   7   3  108.59    8.10
  10 -17   3  129.89    9.80
   7  10   3  126.89   11.20
   7 -17  -3  143.59   12.70
   7  10   3  147.89   11.60
 -17   7   3  125.29   12.10
   7 -17  -3  123.29    7.90
  -7 -10  -3  133.19    8.60
 -10  -7   3  128.59    9.10
  -7  17   3  138.69   12.70
  17  -7  -3  112.69   18.10
  17 -10   3  151.88   15.70
 -10  17  -3  127.29   18.40
 -17   6   3   51.79    9.30
   6  11   3   67.69    9.60
   6 -17  -3   73.49    5.70
   6  11   3  107.99   11.20
  11   6  -3   90.69   12.50
   6 -17  -3   56.09   10.20
  11 -17   3   73.69    9.20
 -11  -6   3   66.19   11.10
  17  -6  -3   72.49   14.10
 -11  17  -3   72.89   14.40
  17 -11   3   72.79   14.60
 -11  -6   3   76.59    7.40
  -6 -11  -3   71.59    7.40
  -6  17   3   67.89   12.30
  17 -11   3   89.19   14.20
   5 -17  -3  128.39   10.90
   5 -17  -3  125.19    7.90
   5  12   3  136.89   11.20
  12 -17   3  127.39   10.90
   5  12   3  124.89   12.60
 -17   5   3  141.49   12.60
  12   5  -3  135.99   15.60
 -12  17  -3  139.39   19.10
 -12  -5   3  144.19   13.10
  17  -5  -3  136.59   18.30
 -12  -5   3  135.49    9.20
  -5 -12  -3  126.09    8.70
  -5  17   3  159.48   13.90
  17 -12   3  166.08   16.50
  17 -12   3  137.69   17.60
   4  13   3   49.40    8.70
  13 -17   3   36.50    7.50
  13   4  -3   49.10   10.90
   4 -17  -3   36.20    4.80
 -17  13  -3   67.39    9.00
   4  13   3   53.49    9.40
 -17   4   3   47.70    9.30
  17 -13   3   65.79   13.40
  17  -4  -3   31.50   13.00
 -13  -4   3   58.49   10.30
 -13  -4   3   45.10    6.60
  -4  17   3   41.70    9.50
  17 -13   3   39.90   11.80
  -4 -13  -3   40.60    6.20
 -13  17  -3   56.99   13.60
  14 -17   3   32.50    7.60
  14   3  -3   38.90   11.60
   3  14   3   40.00    7.60
   3  14   3   44.40   10.70
 -17   3   3   29.20    8.60
   3 -17  -3   39.90    5.30
  17  -3  -3   34.20   13.60
 -14  -3   3   43.00    9.20
 -14  -3   3   32.00    5.50
  17 -14   3   44.50   11.90
  -3 -14  -3   35.00    5.50
  17 -14   3   29.30   11.50
  -3  17   3   34.10    9.80
  -3  17   3   35.00    7.10
 -14  17  -3   43.30   11.60
 -17   2   3  159.18   11.50
  15   2  -3  202.38   20.00
   2  15   3  142.69   16.10
  15 -17   3  250.67   19.30
 -17  15  -3  201.68   15.60
   2  15   3  223.58   13.80
   2 -17  -3  210.98   10.90
  15 -17   3  202.58   15.20
 -17   2   3  202.58   14.70
  17 -15   3  237.58   20.90
  -2 -15  -3  199.38   11.20
  -2  17   3  179.38   16.10
  -2  17   3  206.58   13.90
  17  -2  -3  217.88   21.40
  17 -15   3  207.38   18.50
 -15  -2   3  203.78   15.20
 -15  -2   3  191.18   11.50
 -15  17  -3  183.18   18.30
 -17   1   3  238.58   16.20
 -17   1   3  193.28   12.60
  16 -17   3  279.67   20.80
  16   1  -3  266.37   22.30
  16 -17   3  223.58   17.40
   1  16   3  250.77   14.90
   1  16   3  176.68   16.90
 -17  16  -3  206.98   16.60
 -16  -1   3  236.28   16.20
  17 -16   3  204.48   17.50
 -16  17  -3  223.98   17.80
  -1  17   3  201.68   16.30
  -1  17   3  233.08   14.10
  -1 -16  -3  236.78   12.50
 -16  -1   3  218.38   12.60
  17 -16   3  249.68   19.40
  17  -1  -3  240.28   21.00
   0  17   3   -1.70    6.60
 -17  17  -3   13.50    9.70
  17   0  -3   24.80   12.90
  17 -17   3   17.90   11.10
 -17   0   3   -0.50    7.90
  17 -17   3    6.50    8.30
   0  17   3   -3.40    9.00
   0 -17  -3    1.60    3.90
 -18  18   3  175.78   14.40
  18 -18  -3  171.18   20.00
  18   0   3  198.18   15.10
   0 -18   3  170.08   10.80
 -18   0  -3  204.08   11.00
   0  18  -3  183.38   24.40
   1  17  -3   28.10   18.60
  17 -18  -3    9.50   11.10
 -18   1  -3   11.00    4.50
 -18  17   3    5.20    9.00
  17   1   3    9.10    7.90
   1 -18   3   10.00    4.60
 -17  18   3   16.80    8.50
  18 -17  -3   -4.40   11.40
 -17  -1  -3   15.20    4.90
  18  -1   3    7.60    7.90
  -1  18  -3   14.00   18.10
  -1 -17   3    5.70    4.50
 -18  16   3   62.99   11.70
   2  16  -3   60.19   19.90
 -18   2  -3   76.39    6.90
  16   2   3   61.79   10.70
   2 -18   3   68.49    7.00
  -2 -16   3   77.89    7.60
  18  -2   3   83.69   13.50
  18 -16  -3   60.09   13.30
 -16  18   3   70.19   12.60
  -2  18  -3   59.99   18.70
 -16  -2  -3   70.09    7.00
 -18   3  -3   66.89    9.80
  15 -18  -3   53.99   11.20
   3  15  -3   28.50   30.00
 -18  15   3   55.39    9.90
  15   3   3   67.19   10.40
  18  -3   3   65.69   12.50
  -3 -15   3   39.60    9.20
 -15  18   3   50.69   14.10
  -3  18  -3   49.40   25.00
   4  14  -3   40.90   20.30
  14 -18  -3    9.00   10.60
 -18  14   3    9.90    7.50
   4 -18   3   16.10    4.80
 -18   4  -3   12.00    4.30
  14   4   3    7.50    7.10
  18  -4   3    5.60    8.60
 -14  -4  -3    9.80    4.60
  -4  18  -3   27.70   17.80
  -4 -14   3   11.10    4.40
 -14  18   3    7.70    8.00
  18 -14  -3   11.70   11.20
  13 -18  -3   26.50    9.60
  13   5   3   30.90    7.30
 -18  13   3   36.90    8.90
 -18   5  -3   28.60    5.30
   5 -18   3   31.50    5.90
   5  13  -3   15.20   21.70
 -13  18   3   27.30    8.70
 -13  -5  -3   37.80    6.90
  -5 -13   3   28.30    5.30
  18 -13  -3   25.50   13.40
  -5  18  -3   32.20   17.50
  18  -5   3   29.50    8.90
   6 -18   3   67.09    6.90
   6  12  -3   67.89   22.70
 -18   6  -3   61.69    6.20
  12   6   3   71.59   10.80
  12 -18  -3   65.49   11.60
 -18  12   3   58.79   10.60
  -6  18  -3   95.39   18.90
  18  -6   3   52.79   10.40
  18 -12  -3   63.39   13.70
  -6 -12   3   59.49    7.00
 -12  18   3   80.19   10.60
 -12  -6  -3   67.79    7.40
  11 -18  -3   24.30    8.60
 -18   7  -3   20.50    4.20
   7  11  -3   21.90   22.00
   7 -18   3   18.80    4.90
 -18  11   3   29.40    8.50
  11   7   3   28.10    7.40
  18  -7   3   26.80    9.70
  -7  18  -3   18.60   14.70
 -11  -7  -3   25.40    5.00
 -11  18   3   25.60    8.30
  18 -11  -3   20.30   12.70
  -7 -11   3   25.80    5.00
 -18   8  -3   40.70    5.60
  10 -18  -3   36.50    8.70
 -18  10   3   42.30    8.30
  10   8   3   43.50    7.90
   8  10  -3   42.30   22.50
   8 -18   3   41.60    6.50
 -10  18   3   36.90    8.90
  -8 -10   3   44.80    6.10
  -8  18  -3   54.89   16.60
  18  -8   3   38.50   10.30
  18 -10  -3   32.60   12.60
 -10  -8  -3   42.70    6.20
 -18   9  -3   83.99    6.80
   9 -18  -3   90.89   11.50
 -18   9   3   79.19   11.00
   9   9  -3   96.79   27.60
   9   9   3  107.09    9.60
   9   9   3   82.89    9.40
   9 -18   3   81.69    8.40
  -9  -9  -3   92.59    8.10
  -9  18  -3   80.09   16.60
  18  -9   3   93.79   13.70
  -9  -9   3   84.39    7.20
  18  -9  -3   89.49   16.00
  -9  18   3   97.39   11.50
 -18   8   3    8.60    7.70
   8 -18  -3    8.70    6.90
   8  10   3    9.80    6.40
  10   8  -3   23.80    6.80
   8  10   3    9.20    5.70
  10 -18   3   10.30    5.60
 -18  10  -3   12.90    4.10
  10   8  -3   25.90   23.60
 -18   8   3    7.20    3.80
  -8 -10  -3   15.80    5.00
  18  -8  -3   22.70   14.20
  -8  18   3   19.50    8.10
  18 -10   3   13.30   11.00
 -10  -8   3   13.90    4.50
 -10  18  -3   24.10   13.90
 -18   7   3   18.80    4.50
   7 -18  -3   33.20    8.80
   7  11   3   31.20    6.70
  11 -18   3   24.10    5.90
 -18   7   3   28.10    8.70
  11   7  -3   40.70    8.60
   7  11   3   32.50    7.70
 -11  18  -3   29.00   13.80
  -7  18   3   29.30    8.60
 -11  -7   3   36.80    5.60
  18  -7  -3   31.80   13.90
  18 -11   3   46.20   12.30
  -7 -11  -3   40.20    6.80
  12 -18   3   12.30    6.20
   6 -18  -3   11.10    7.30
   6  12   3    8.70    6.00
  12   6  -3   12.10    8.10
   6  12   3   -6.10    6.90
 -18   6   3    0.90    7.20
   6 -18  -3    9.20    3.30
  -6  18   3   10.00    7.50
 -12  18  -3   16.70   13.10
  -6 -12  -3    9.50    4.40
 -12  -6   3   10.50    4.40
  18  -6  -3   -3.80   11.70
 -12  -6   3    2.50    7.50
  18 -12   3   20.60   11.80
 -18   5   3   52.99    9.20
   5  13   3   67.79    9.70
   5 -18  -3   61.89    8.80
   5  13   3   33.20    9.30
  13 -18   3   53.29    8.60
   5 -18  -3   52.39    5.80
  18 -13   3   43.90   13.70
  -5 -13  -3   59.49    6.70
  -5  18   3   55.89   10.30
 -13  -5   3   46.20    9.40
  18  -5  -3   52.99   13.80
  18 -13   3   62.49   13.40
 -13  -5   3   53.09    6.30
 -13  18  -3   55.39   13.10
  14 -18   3  176.68   14.00
  14 -18   3  227.58   17.80
  14   4  -3  156.08   18.40
   4 -18  -3  166.28    9.60
   4  14   3  153.58   15.40
   4  14   3  181.68   12.80
 -18   4   3  165.08   13.20
 -18  14  -3  182.48   13.90
   4 -18  -3  187.28   12.40
 -18   4   3  135.99   10.50
  18  -4  -3  179.28   19.00
  -4 -14  -3  161.38   10.30
  18 -14   3  162.78   18.20
  -4  18   3  149.39   14.90
 -14  18  -3  178.78   17.80
  18 -14   3  182.08   18.80
 -14  -4   3  173.48   10.80
 -14  -4   3  178.48   15.00
 -18   3   3  134.49    9.90
 -18   3   3  147.59   13.40
   3 -18  -3  139.09    9.10
 -18  15  -3  172.98   13.00
   3  15   3  103.29   14.80
   3  15   3  152.28   11.90
  15   3  -3  164.88   18.80
  15 -18   3  138.69   12.60
  -3  18   3  109.49   13.00
  -3 -15  -3  156.88    9.50
 -15  -3   3  131.79    9.60
 -15  -3   3  144.39   13.60
 -15  18  -3  120.99   17.00
  18 -15   3  117.89   17.40
  18  -3  -3  141.69   20.40
  18 -15   3  145.59   20.20
   2  16   3   37.20    8.00
   2  16   3   12.20    9.30
   2 -18  -3   25.30    4.60
  16 -18   3   35.70    9.40
  16   2  -3   43.50   12.40
 -18   2   3   28.60    9.40
 -18   2   3    2.80    5.00
  16 -18   3   49.30   12.60
 -16  -2   3   21.00    8.90
  -2 -16  -3   32.40    5.70
  18 -16   3   50.19   12.40
 -16  18  -3   45.10   11.30
  18  -2  -3   18.40   13.50
  -2  18   3   14.70    9.20
  -2  18   3   16.70    7.10
 -16  -2   3   19.00    5.30
  18 -16   3   14.40   10.90
  17   1  -3  270.77   22.10
 -18   1   3  251.87   17.50
   1 -18  -3  256.17   13.20
 -18  17  -3  249.48   17.90
   1  17   3  266.97   16.20
 -18   1   3  215.88   13.80
   1  17   3  219.18   17.60
  17 -18   3  299.17   22.00
 -17  -1   3  217.98   13.50
  -1 -17  -3  263.17   13.60
 -17  18  -3  270.47   18.70
  -1  18   3  278.67   16.10
 -17  -1   3  237.28   17.50
  18 -17   3  297.27   22.80
  18  -1  -3  250.17   21.50
  -1  18   3  209.78   18.70
  18 -18   3  293.37   21.30
 -18   0   3  259.47   15.20
 -18  18  -3  312.17   19.70
   0  18   3  311.77   17.50
   0 -18  -3  283.57   15.10
  18 -18   3  337.07   24.20
  18   0  -3  298.87   24.70
 -18   0   3  295.47   19.00
   0  18   3  256.07   20.30
 -19  19   3    6.50    8.20
 -19   0  -3   10.20    4.90
  19   0   3    8.90    8.20
  19 -19  -3   12.10   12.30
   0 -19   3    3.10    4.70
   0  19  -3   -0.30   17.00
 -19   1  -3  135.99    8.90
   1  18  -3  127.89   23.10
   1 -19   3  126.99    9.10
 -19  18   3  139.99   14.10
  18 -19  -3   98.69   16.30
  18   1   3  133.89   13.30
  19  -1   3  146.49   14.30
 -18  -1  -3  142.79    9.50
  -1 -18   3  130.49    9.00
  -1  19  -3  118.99   21.40
 -18  19   3  120.09   14.00
  19 -18  -3  136.19   17.80
  17   2   3  155.18   13.30
 -19   2  -3  149.69    9.30
   2  17  -3  146.69   26.70
 -19  17   3  157.98   14.50
  17 -19  -3  128.79   19.30
   2 -19   3  146.69    9.50
  -2  19  -3   92.69   19.60
 -17  19   3  129.29   12.90
  19 -17  -3  116.99   17.60
  -2 -17   3  143.79    9.60
  19  -2   3  155.08   14.30
 -17  -2  -3  145.59    9.90
  16 -19  -3   10.00   10.90
   3 -19   3   22.50    5.30
  16   3   3   17.00    7.80
   3  16  -3   21.00   18.80
 -19   3  -3   22.90    4.90
 -16  19   3   13.70    8.10
 -16  -3  -3   17.40    5.00
  -3  19  -3   28.40   17.20
  19  -3   3   21.20    8.60
  19 -16  -3   16.00   11.90
  -3 -16   3   18.90    5.00
 -19  15   3   28.20    8.70
 -19   4  -3   30.70    5.10
  15   4   3   27.40    8.40
   4 -19   3   27.90    5.40
   4  15  -3   43.10   20.20
  19  -4   3   34.30   10.70
  19 -15  -3   17.10   12.50
  -4 -15   3   24.00    5.30
 -15  19   3   20.80    8.40
 -15  -4  -3   38.90    7.20
  -4  19  -3   35.40   17.50
  14 -19  -3   11.10   11.00
  14   5   3   10.30    7.70
   5 -19   3    9.70    4.70
 -19   5  -3   13.90    4.80
 -19  14   3   14.80    7.90
  -5 -14   3   12.70    4.80
  19  -5   3    7.90    8.30
  19 -14  -3   -7.70   11.50
 -14  19   3   10.00    7.80
  -5  19  -3   17.80   15.80
 -14  -5  -3    9.20    4.90
   6  13  -3   14.00   20.80
  13   6   3    7.30    7.00
  13 -19  -3   11.10    9.70
 -19   6  -3    0.10    6.20
 -19  13   3    3.20    6.90
 -13  -6  -3    0.50    4.50
  19  -6   3    6.70   10.00
 -13  19   3   -0.70    7.30
  19 -13  -3   -5.60   12.20
 -19   7  -3   20.20    6.30
  12 -19  -3   13.00    9.00
   7  12  -3    5.60   22.70
  12   7   3   13.30    6.60
   7 -19   3   19.30    5.50
 -19  12   3   15.40    7.80
  -7 -12   3    8.80    4.50
 -12  -7  -3   24.00    5.20
  -7  19  -3   33.80   17.40
  11 -19  -3   64.69   11.30
   8  11  -3   63.99   23.00
   8 -19   3   60.09    7.90
 -19   8  -3   57.49    6.10
  11   8   3   72.29   10.50
 -19  11   3   69.59   10.90
 -11  19   3   40.10   14.40
  19  -8   3   79.39   13.40
  19 -11  -3   61.59   14.50
 -11  -8  -3   76.59    7.30
  -8 -11   3   61.39    6.60
  -8  19  -3   70.09   16.50
 -19   9  -3    9.50    4.20
  10 -19  -3   17.10    9.10
 -19  10   3    6.10    7.00
   9 -19   3    9.60    5.30
   9  10  -3    8.80   22.00
  10   9   3    7.10    5.90
  19 -10  -3   -6.60   12.00
  -9  19  -3   11.80   15.10
 -10  -9  -3   14.70    5.20
  -9 -10   3    7.10    4.70
  19  -9   3    5.90    9.70
 -10  19   3   10.60    8.10
 -19  10  -3   27.90    4.80
  10 -19   3   25.70    6.10
  10   9  -3   25.40   23.70
   9 -19  -3   22.30    8.70
 -19   9   3   28.10    9.00
   9  10   3   20.00    6.70
  19 -10   3   21.60   10.70
  -9  19   3   26.30    8.50
 -10  19  -3   42.30   14.10
  19  -9  -3   33.10   14.50
 -10  -9   3   27.30    5.20
  -9 -10  -3   25.30    5.10
   8  11   3   29.00    7.30
 -19   8   3   18.20    4.90
 -19   8   3   41.60    9.30
   8 -19  -3   19.30    7.90
   8  11   3   24.70    8.20
 -19  11  -3   32.10    5.20
  11 -19   3   24.80    6.20
  11   8  -3   68.09   24.60
  -8 -11  -3   38.70    6.80
 -11  19  -3   39.60   14.50
  -8  19   3   29.20    9.50
  19 -11   3   25.70   11.30
  19  -8  -3   22.00   14.40
 -11  -8   3   29.70    5.50
  12   7  -3   21.70    8.80
 -19   7   3   -5.20    3.70
   7  12   3   10.90    7.90
  12 -19   3   -1.40    5.30
 -19   7   3   -1.20    7.50
 -19  12  -3    1.80    3.90
   7 -19  -3   10.40    8.50
   7  12   3    3.50    5.60
  -7 -12  -3    0.80    4.40
  19  -7  -3   -9.70   13.80
 -12  19  -3   24.60   13.20
  -7  19   3    2.20    8.00
  19 -12   3    9.60   10.70
 -12  -7   3    4.20    4.50
   6  13   3   -7.00    7.80
   6  13   3   13.40    6.40
 -19   6   3   23.10    8.70
 -19   6   3    4.70    4.20
   6 -19  -3   18.70    8.20
  13   6  -3   38.20    9.60
  13 -19   3   19.30    6.90
  19 -13   3   15.20   11.90
 -13  19  -3   10.60   12.40
  -6 -13  -3   12.30    4.80
 -13  -6   3   11.60    4.30
  -6  19   3   12.10    8.20
  19  -6  -3   16.60   12.50
   5 -19  -3   29.00    7.50
   5  14   3   18.10    6.30
   5  14   3   20.90    9.60
 -19   5   3    6.70    4.70
  14   5  -3   14.60   11.00
  14 -19   3   14.00    6.50
   5 -19  -3    6.30    4.00
 -19   5   3   18.00    8.70
  -5  19   3   12.10    8.40
 -14  -5   3   13.10    8.70
  19 -14   3   18.00   13.50
  19 -14   3    3.00   13.00
  19  -5  -3   17.60   12.50
 -14  -5   3   15.00    5.20
  -5 -14  -3   21.10    5.10
 -14  19  -3   11.40   12.20
   4 -19  -3   44.10    6.10
   4 -19  -3   44.10    9.20
   4  15   3   45.10    8.20
   4  15   3   25.60    9.80
  15   4  -3   84.69   14.70
 -19   4   3   42.40    9.70
  15 -19   3   43.00   12.70
 -19   4   3   40.80    7.30
 -15  -4   3   23.80    5.40
  -4 -15  -3   44.20    6.70
  19  -4  -3   37.90   13.60
  -4  19   3   38.50   10.70
 -15  19  -3   32.50   12.70
 -15  -4   3   33.40    9.50
  19 -15   3   38.90   13.90
 -19   3   3  194.28   16.30
   3  16   3  229.78   14.60
  16 -19   3  194.38   16.20
   3  16   3  162.08   17.10
   3 -19  -3  194.48   11.80
  16   3  -3  210.98   20.20
 -19   3   3  201.58   12.50
  -3 -16  -3  232.18   12.20
  19  -3  -3  194.18   23.40
  19 -16   3  200.18   19.90
 -16  19  -3  223.98   18.30
 -16  -3   3  191.98   16.00
 -16  -3   3  192.88   12.00
  19 -16   3  239.28   22.90
  -3  19   3  160.08   22.10
  17 -19   3  314.37   21.00
  17 -19   3  396.16   25.90
  17   2  -3  318.27   24.50
   2 -19  -3  321.27   16.00
 -19  17  -3  346.87   19.80
   2  17   3  337.57   18.60
   2  17   3  267.67   20.90
 -19   2   3  293.47   16.70
 -19   2   3  326.17   20.00
 -17  -2   3  300.47   16.30
 -17  -2   3  310.27   19.80
 -17  19  -3  309.07   21.50
  -2 -17  -3  325.97   16.10
  19 -17   3  297.87   23.50
  19  -2  -3  317.37   26.30
   1  18   3   10.60    9.90
  18   1  -3   35.60   12.40
   1  18   3   22.60    8.00
  18 -19   3    5.90    8.80
 -19   1   3   13.20    5.40
 -19   1   3   24.00    9.10
 -19  18  -3   34.70    9.40
   1 -19  -3   27.20    5.10
  -1 -18  -3   23.10    5.90
 -18  -1   3   10.20    9.30
  -1  19   3   15.30    8.10
  -1  19   3   14.10   12.00
  19 -18   3   13.20   10.60
  19  -1  -3   20.50   14.60
 -18  19  -3   27.60   10.80
 -18  -1   3    8.50    5.20
  19 -18   3   37.20   13.40
   0  19   3  147.49   17.10
 -19  19  -3  176.58   15.90
   0 -19  -3  179.98   10.80
 -19   0   3  154.18   15.40
  19   0  -3  178.88   19.00
 -19   0   3  158.48   11.10
   0  19   3  181.08   14.00
  19 -19   3  137.89   16.50
  19 -19   3  210.68   21.30
 -20  20   3  147.79   14.50
 -20   0  -3  146.39    9.90
   0  20  -3  143.19   24.60
  20 -20  -3  102.59   18.30
   0 -20   3  133.99    9.50
  20   0   3  132.49   14.10
   1  19  -3  176.48   24.70
  19 -20  -3  162.98   19.60
 -20  19   3  207.38   15.40
   1 -20   3  184.48   11.20
  19   1   3  213.98   16.60
 -20   1  -3  202.98   11.20
  -1 -19   3  177.68   11.10
 -19  -1  -3  194.88   11.70
  20 -19  -3  175.58   19.90
  -1  20  -3  204.98   25.10
 -19  20   3  181.78   14.80
  20  -1   3  197.48   15.90
   2  18  -3   10.40   16.60
 -20   2  -3   12.90    4.70
   2 -20   3   12.20    5.00
  18 -20  -3    4.70   11.40
  18   2   3   15.70    7.90
 -20  18   3    4.20    7.80
  20  -2   3    9.70    8.30
  20 -18  -3   -1.10   12.10
  -2  20  -3    6.60   15.60
 -18  20   3    6.30    7.80
 -18  -2  -3   19.00    5.40
  -2 -18   3   15.80    5.10
  17   3   3  110.69   12.10
 -20   3  -3  112.59    8.50
   3  17  -3   64.69   20.90
  17 -20  -3   71.09   13.60
   3 -20   3   94.89    8.70
 -20  17   3   78.09   11.80
  20  -3   3  105.59   13.00
  -3 -17   3  107.49    8.60
  20 -17  -3   74.89   14.80
 -17  20   3   93.19   12.70
  -3  20  -3   93.69   19.20
 -17  -3  -3  111.29    9.00
  16   4   3   65.69   11.10
   4  16  -3   56.49   20.30
  16 -20  -3   44.20   12.40
   4 -20   3   65.99    6.90
 -20  16   3   63.39   11.70
 -20   4  -3   69.79    7.30
  -4  20  -3   42.70   16.60
 -16  20   3   75.69   11.70
  20  -4   3   71.79   13.10
  20 -16  -3   39.20   14.30
  -4 -16   3   55.49    6.60
 -16  -4  -3   68.49    7.30
   5  15  -3   21.10   19.00
 -20   5  -3    9.60    4.30
  15   5   3   13.20    7.30
 -20  15   3   18.00   14.60
   5 -20   3   10.50    4.80
  15 -20  -3   -5.00    9.90
  20 -15  -3   -8.80   12.80
 -15  -5  -3   14.60    5.20
 -15  20   3    8.50    7.60
  20  -5   3   10.40    8.50
  -5  20  -3   14.90   15.90
  -5 -15   3    8.50    4.50
   6 -20   3    3.90    4.70
 -20   6  -3    2.70    4.20
  14   6   3   -3.60    6.60
   6  14  -3    3.50   20.10
 -20  14   3    3.80    7.70
  -6 -14   3    1.20    4.40
  20  -6   3   -3.70    8.50
  -6  20  -3    4.40   15.40
  20 -14  -3  -21.70   11.80
 -14  20   3    0.20    7.30
 -14  -6  -3   -0.80    4.60
  13 -20  -3    8.90   10.20
  13   7   3   16.90   12.40
   7 -20   3   10.10    4.90
 -20   7  -3   11.50    4.50
   7  13  -3   -6.00   21.30
 -20  13   3   11.50    8.40
  -7  20  -3    3.60   14.70
  20 -13  -3   -1.70   12.30
 -13  -7  -3   10.80    5.00
 -13  20   3   18.20    8.00
  -7 -13   3    4.70    4.30
  20  -7   3    9.00    9.20
  12   8   3    2.70    6.30
 -20   8  -3   -2.20    4.00
   8 -20   3   -2.60    4.40
 -20  12   3   10.90    7.50
  12 -20  -3   -0.60   10.00
   8  12  -3   -5.00   33.00
  -8 -12   3    1.60    4.20
  -8  20  -3   -5.40   14.50
 -12  20   3   -2.80    7.60
  20  -8   3  -12.50    9.70
  20 -12  -3  -24.00   13.60
 -12  -8  -3    1.30    4.80
 -20   9  -3   35.90    5.50
  11 -20  -3   41.30    9.90
   9  11  -3   47.90   23.80
   9 -20   3   33.80    6.20
  11   9   3   40.60    7.70
 -20  11   3   40.90    9.20
  20  -9   3   38.00   11.40
  20 -11  -3   13.40   13.60
  -9  20  -3   50.39   16.00
 -11  -9  -3   45.30    9.20
  -9 -11   3   33.70    6.20
 -11  20   3   36.50    9.00
  10 -20  -3   45.50    9.70
  10  10  -3   90.29   26.40
  10  10   3   39.60    7.90
 -20  10   3   45.00    9.20
  10 -20   3   38.00    7.40
 -20  10  -3   40.30    5.80
  20 -10  -3   11.20   13.90
 -10  20   3   34.30    9.60
 -10 -10  -3   42.80    7.20
  20 -10   3   51.49   12.90
 -10 -10   3   33.40    6.10
   9  11   3    0.70    6.80
   9 -20  -3   -4.40    9.30
 -20  11  -3    3.30    4.10
  11 -20   3    3.60    9.50
  11   9  -3    0.60   23.50
 -20   9   3   -3.40    7.70
  20  -9  -3  -18.40   11.90
  -9 -11  -3   -0.30    4.70
  -9  20   3    0.00    7.70
 -11  20  -3   10.90   13.20
   8  12   3   12.30    8.20
  12 -20   3    3.50    7.70
   8  12   3    3.80    6.30
 -20   8   3   12.10    8.50
   8 -20  -3    6.90    8.10
 -20  12  -3    6.70    4.20
  12   8  -3   24.80   25.80
 -20   8   3   -0.20    4.50
 -12  20  -3   14.30   13.10
  20  -8  -3    8.20   13.40
  -8 -12  -3    7.70    4.80
  -8  20   3    5.80    8.10
   7  13   3    0.60    8.40
 -20   7   3    0.40    7.60
 -20   7   3    2.00    4.50
  13   7  -3   17.90   24.70
 -20  13  -3    4.40    4.30
   7 -20  -3    6.30    8.40
   7  13   3    7.50    6.60
  13 -20   3    0.00    6.60
  20  -7  -3   -7.90   14.90
 -13  -7   3   -1.10    7.10
  20 -13   3  -15.70   18.30
 -13  20  -3    5.10   13.00
  -7 -13  -3   -0.30    4.60
  -7  20   3   -9.50    7.50
  14   6  -3   26.30   10.60
   6  14   3    7.30    9.30
 -20   6   3    9.40    4.80
 -20   6   3    9.10    8.50
  14 -20   3    2.00    6.40
   6 -20  -3   13.50    8.30
   6  14   3    3.00    6.80
  20  -6  -3   -5.10   20.00
  -6 -14  -3   -0.10    4.60
  20 -14   3   12.60   13.70
 -14  -6   3   -0.20    7.20
  -6  20   3   11.50    8.60
 -14  20  -3   10.40   11.90
   5  15   3   48.70   11.30
   5 -20  -3   65.29   11.10
 -20   5   3   60.19    7.70
  15   5  -3   73.69   14.30
  15 -20   3   38.90    8.50
   5  15   3   37.70    7.40
 -20   5   3   34.40    9.80
  -5  20   3   25.90    9.20
  20 -15   3   44.00   15.30
  20 -15   3   31.40   14.00
 -15  -5   3   32.90    9.60
  -5 -15  -3   56.09    7.20
 -15  20  -3   50.79   13.80
   4 -20  -3  113.39    9.00
 -20   4   3  115.89    9.80
  16 -20   3  155.28   19.30
 -20   4   3  108.89   13.80
   4  16   3  115.79   10.50
  16 -20   3  102.99   13.20
   4  16   3  116.89   16.20
   4 -20  -3  115.69   10.90
  16   4  -3  151.38   19.60
  -4 -16  -3  122.19    9.20
 -16  -4   3  100.39   13.20
  20 -16   3   88.79   16.70
 -16  20  -3  125.79   15.90
  -4  20   3   89.09   13.60
  20 -16   3  121.29   19.00
  17   3  -3   69.39   14.10
   3 -20  -3   54.39    7.20
 -20   3   3   50.79   10.50
 -20   3   3   40.40    6.90
  17 -20   3   60.29   10.60
   3  17   3   56.69    9.40
   3  17   3   64.39   12.40
   3 -20  -3   79.79   11.80
  20 -17   3   31.30   13.30
 -17  -3   3   35.60   10.10
  -3 -17  -3   59.09    7.60
  -3  20   3   51.49   11.10
  20  -3  -3   44.10   23.10
  20 -17   3   61.59   16.60
 -17  20  -3   61.69   12.10
  18   2  -3  257.07   21.20
   2  18   3  234.68   15.40
  18 -20   3  277.07   23.90
   2 -20  -3  186.38   12.00
  18 -20   3  194.08   17.50
 -20   2   3  203.38   16.30
   2  18   3  195.88   18.40
 -20   2   3  206.18   12.90
  -2  20   3  179.18   16.10
 -18  20  -3  189.08   18.60
 -18  -2   3  197.68   17.10
  -2 -18  -3  204.48   12.20
  20  -2  -3  162.38   26.10
  20 -18   3  200.18   21.90
 -18  -2   3  193.68   12.60
  20 -18   3  199.98   21.00
  19 -20   3  258.67   20.90
 -20   1   3  282.77   15.40
  19   1  -3  280.47   24.50
  19 -20   3  350.96   24.20
 -20   1   3  259.77   19.00
   1  19   3  281.37   17.40
   1 -20  -3  269.57   14.90
 -19  -1   3  270.67   19.10
  20 -19   3  241.28   23.30
 -19  -1   3  269.97   15.20
  20 -19   3  292.77   24.90
  20  -1  -3  272.87   24.90
 -19  20  -3  281.37   19.70
  -1  20   3  249.58   20.20
  -1 -19  -3  280.97   15.10
   0  20   3   29.10   11.70
   0 -20  -3   41.00    7.50
 -20  20  -3   75.39   13.40
 -20   0   3   28.20   10.20
  20   0  -3   26.70   15.40
 -20   0   3   24.60    6.40
  20 -20   3   26.00   11.70
  20 -20   3   41.70   14.40
   0 -21   3  113.69    9.20
 -21   0  -3  135.19    9.70
 -21  21   3  129.89   13.60
  21   0   3  126.39   14.10
  21 -21  -3  135.49   20.60
   0  21  -3  100.29   20.40
  20   1   3   10.60    8.30
   1 -21   3    5.80    4.90
 -21  20   3    8.70    8.50
 -21   1  -3   12.40    4.80
   1  20  -3   -1.00   16.50
  20 -21  -3   10.00   14.60
  21 -20  -3   -3.10   13.40
  21  -1   3   -5.50    8.20
 -20  -1  -3    6.70    4.80
  -1  21  -3   -5.90   15.80
  -1 -20   3    4.80    4.70
 -20  21   3   -0.40    7.90
 -21   2  -3  136.99    9.10
  19   2   3  159.38   14.70
 -21  19   3  127.39   14.30
  19 -21  -3  111.09   18.60
   2  19  -3   87.19   20.20
 -19  -2  -3  137.39    9.30
  21  -2   3  119.49   14.10
  -2  21  -3   80.99   18.40
 -19  21   3  117.39   14.00
  -2 -19   3  129.79    9.60
  21 -19  -3  109.89   21.50
 -21   3  -3  132.49    9.30
  18 -21  -3   83.79   16.60
  18   3   3  123.99   12.60
   3 -21   3  125.19    9.10
 -21  18   3  112.89   13.80
   3  18  -3   85.39   20.00
  -3  21  -3  132.49   23.20
  21  -3   3  128.49   13.90
  21 -18  -3   98.89   18.60
 -18  21   3  144.19   14.10
  -3 -18   3  112.99    8.60
 -18  -3  -3  120.69    9.00
   4 -21   3   12.10    4.80
 -21  17   3   15.50    8.60
 -21   4  -3   15.30    4.70
  17   4   3   14.70    8.00
  17 -21  -3   -4.10   12.70
   4  17  -3   18.10   18.80
 -17  -4  -3   14.30    5.30
  -4  21  -3   11.80   15.50
  21  -4   3    8.60    9.80
  -4 -17   3   10.20    4.60
 -17  21   3   14.90    8.50
  21 -17  -3    3.60   12.90
 -21  16   3   54.39   10.40
 -21   5  -3   70.79    7.30
   5 -21   3   61.99    7.20
  16   5   3   77.49   10.60
  16 -21  -3   37.50   12.20
   5  16  -3   67.29   21.50
  21 -16  -3   53.09   14.60
  21  -5   3   48.20   10.60
  -5  21  -3   66.99   16.90
 -16  21   3   66.09   12.10
 -16  -5  -3   62.99    7.10
  -5 -16   3   52.79    6.80
 -21  15   3   12.00    8.40
  15 -21  -3    6.20   11.70
  15   6   3   18.70    8.10
   6 -21   3   17.00    5.30
 -21   6  -3    9.60    4.50
   6  15  -3   13.50   20.20
  21  -6   3   -4.10    8.10
  21 -15  -3  -10.40   13.90
  -6  21  -3    6.30   15.40
  -6 -15   3    5.10    4.50
 -15  -6  -3    8.20    5.30
 -15  21   3   13.50    7.90
   7 -21   3    2.60    4.80
  14 -21  -3   -2.50   10.30
  14   7   3    4.00    6.80
   7  14  -3   12.00   19.90
 -21   7  -3    1.60    4.20
  21 -14  -3  -13.10   12.30
  -7 -14   3    0.30    4.10
  21  -7   3    1.00    8.90
 -14  21   3    4.60    7.60
 -14  -7  -3    2.80    4.90
  -7  21  -3  -11.90   14.50
 -21   8  -3   27.70    5.10
   8  13  -3   23.50   21.50
  13   8   3   33.10    8.30
   8 -21   3   29.40    6.10
  13 -21  -3   16.30   12.50
 -21  13   3   31.40    9.10
  21 -13  -3   18.30   13.80
  -8  21  -3   40.80   15.10
  21  -8   3   16.00   11.30
 -13  21   3   27.90    8.40
  -8 -13   3   17.50    4.80
 -13  -8  -3   23.70    5.50
   9  12  -3   29.40   23.00
   9 -21   3   10.80    5.60
  12   9   3   28.40    8.40
 -21  12   3    9.40    8.50
 -21   9  -3   21.60    4.70
 -12  21   3   12.20    7.90
 -12  -9  -3   15.10    5.10
  -9 -12   3   13.50    4.70
  -9  21  -3   16.20   14.80
  21  -9   3   13.10   10.30
  21 -12  -3    6.40   12.80
  11 -21  -3   10.70   10.00
  10  11  -3  -19.80   24.00
 -21  11   3    9.50    8.00
  10 -21   3    3.00    4.90
 -21  10  -3    9.90    4.00
  21 -11  -3   -9.30   12.60
 -11 -10  -3    9.50    5.00
  21 -10   3    5.10   10.20
 -11  21   3   -1.80    7.50
 -10 -11   3    2.60    4.90
 -10  21  -3   -4.70   14.40
  10 -21  -3   73.59   12.30
 -21  10   3   57.49   10.20
  11 -21   3   49.99    8.10
  10  11   3   67.69   10.60
 -21  11  -3   56.89    7.00
 -11  21  -3   49.50   15.60
 -10  21   3   43.20    9.40
  21 -10  -3   47.10   16.10
 -10 -11  -3   62.89    8.00
 -11 -10   3   52.29    7.40
  21 -11   3   41.90   12.60
 -21   9   3   36.00   10.30
  12 -21   3   29.60    6.70
 -21  12  -3   40.10    5.80
  12   9  -3   44.40   38.30
   9  12   3   43.40    8.10
   9 -21  -3   55.99   11.20
  21  -9  -3   21.90   13.80
 -12  -9   3   28.40    5.30
 -12  21  -3   47.30   13.90
  21 -12   3   39.70   12.60
  -9 -12  -3   38.40    6.50
  -9  21   3   23.40    9.10
   8  13   3    7.00    6.80
 -21   8   3    3.20    7.60
   8 -21  -3   -1.60    9.50
 -21   8   3    7.90    5.10
  13 -21   3   15.00    6.80
 -21  13  -3   11.60    4.50
  13   8  -3   25.30   26.80
   8  13   3    6.10   10.80
 -13  -8   3    4.90    4.60
  21 -13   3   -6.00   11.00
 -13  21  -3   16.20   12.70
  21  -8  -3   -8.80   12.30
  -8 -13  -3    5.70    5.30
  -8  21   3    0.00    8.30
 -21   7   3    4.10    4.80
   7  14   3    2.70    6.70
  14   7  -3   25.60   27.90
 -21   7   3   -0.30    8.00
   7  14   3   13.30    9.80
  14 -21   3    4.60    6.50
   7 -21  -3   -2.40    9.10
 -21  14  -3    4.40    4.50
 -14  21  -3    9.10   20.30
 -14  -7   3   -4.90    4.20
  -7  21   3  -17.80    7.70
  21  -7  -3   -2.70   12.50
  21 -14   3  -20.30   11.50
 -21   6   3   12.30    8.20
   6  15   3   12.40    7.20
  15   6  -3   55.49   31.00
  15 -21   3    7.80    7.00
 -21   6   3   10.60    5.30
   6  15   3   23.60   10.90
   6 -21  -3   14.70    9.90
  21 -15   3  -12.20   14.30
  -6  21   3   -3.50    8.30
 -15  -6   3    5.50    4.80
  21  -6  -3    8.70   14.90
  16   5  -3   16.20   12.00
 -21   5   3   26.90    5.90
   5  16   3   17.90    7.70
 -21   5   3   12.70    8.50
   5  16   3   23.90   11.10
   5 -21  -3   31.80    9.00
  16 -21   3   14.40    7.30
  21 -16   3  -20.40   13.40
  -5  21   3   -0.50    8.00
  21  -5  -3    8.60   13.70
 -16  21  -3   18.80   12.00
 -16  -5   3    0.10    4.80
   4  17   3   86.09   11.20
   4  17   3  106.59   16.50
 -21   4   3   91.79    9.30
   4 -21  -3  126.29   12.90
 -21   4   3   77.49   14.10
  17   4  -3  114.39   16.80
  17 -21   3   79.89   13.70
  -4  21   3   72.79   13.00
 -17  21  -3  105.29   15.70
  21 -17   3   48.70   17.90
  21 -17   3   78.79   17.20
  21  -4  -3   97.09   17.60
 -17  -4   3   64.39    8.50
  18 -21   3  260.27   23.50
   3 -21  -3  218.08   12.80
   3  18   3  227.98   20.90
 -21   3   3  230.58   17.90
   3 -21  -3  241.18   16.40
  18   3  -3  227.48   21.90
 -21   3   3  229.68   13.90
  18 -21   3  213.68   18.00
   3  18   3  213.48   17.20
  -3  21   3  194.78   17.60
  21  -3  -3  203.68   22.40
 -18  -3   3  207.18   17.40
 -18  -3   3  228.38   13.20
 -18  21  -3  182.98   19.00
  21 -18   3  210.68   23.80
   2  19   3   28.90   11.60
 -21   2   3   35.70    8.30
  19 -21   3   77.29   16.70
   2 -21  -3   38.10   12.00
   2 -21  -3   47.70    7.40
  19   2  -3   31.20   15.60
 -21   2   3   45.80   10.90
  19 -21   3   33.80    9.90
  21 -19   3   30.20   13.90
  -2  21   3   41.40   11.00
 -19  -2   3   10.60   16.60
 -19  -2   3   41.90    7.40
  21  -2  -3   52.59   13.90
 -19  21  -3   85.29   15.50
  20 -21   3   88.89   16.20
  20 -21   3  156.78   23.80
   1  20   3  130.89   16.90
   1  20   3  110.09   12.50
  20   1  -3  154.88   21.60
   1 -21  -3   82.39    9.80
 -21   1   3  108.49    9.90
 -20  -1   3  117.69    9.60
 -20  21  -3  136.99   15.60
  21 -20   3   74.39   18.80
  21  -1  -3  103.69   19.70
  -1 -20  -3  105.49   13.60
 -20  -1   3   66.69   16.60
  -1  21   3  116.99   14.50
  21 -20   3   74.79   15.40
  21   0  -3  203.88   22.00
 -21   0   3  183.28   11.90
   0 -21  -3  158.48   11.70
  21 -21   3  183.88   21.40
  21 -21   3  128.79   25.20
   0  21   3  187.78   18.30
 -21   0   3  158.78   17.70
  21   1   3  101.89   14.20
   1  21  -3   78.89   19.70
   1 -22   3   79.89    8.10
  21 -22  -3   81.79   17.70
 -22   1  -3   85.39    7.90
 -22  21   3   76.49   13.60
  22  -1   3   85.19   15.20
  -1 -21   3   87.49    8.70
  -1  22  -3   69.99   18.40
 -21  -1  -3   90.19    8.10
  22 -21  -3   98.19   19.20
 -21  22   3   72.79   13.50
  20 -22  -3  119.59   21.50
  20   2   3   99.29   12.80
   2  20  -3   82.09   19.70
 -22  20   3   97.39   12.80
   2 -22   3   99.39    9.10
 -22   2  -3  110.39    8.10
  22  -2   3   95.99   15.50
 -20  22   3   87.39   13.70
  -2 -20   3  106.39    8.40
  -2  22  -3   87.29   18.10
 -20  -2  -3   94.89    8.20
  22 -20  -3  119.69   21.90
 -22  19   3    3.30    8.10
   3  19  -3    3.50   16.80
 -22   3  -3   10.50    5.10
   3 -22   3    9.40    5.40
  19   3   3    8.90    9.50
  19 -22  -3    1.50   13.20
  22 -19  -3    5.40   13.40
 -19  -3  -3    6.10    4.90
  22  -3   3   -6.00    8.20
 -19  22   3    3.70    8.00
  -3 -19   3    8.50    4.80
  -3  22  -3    6.60   15.10
   4  18  -3   56.99   18.90
  18 -22  -3   71.59   14.70
   4 -22   3   95.49    8.80
 -22   4  -3   92.39    7.80
  18   4   3  110.39   13.90
 -22  18   3   99.49   11.90
  22  -4   3  102.99   13.50
 -18  -4  -3   94.99    8.10
 -18  22   3   88.89   12.70
  -4 -18   3   92.99    7.80
  -4  22  -3   75.09   17.40
  22 -18  -3   95.29   18.60
  17 -22  -3   62.99   15.60
   5 -22   3   60.39    8.10
  17   5   3   78.59   12.30
 -22   5  -3   68.59    7.50
   5  17  -3   34.80   18.60
 -22  17   3   48.70   11.00
 -17  -5  -3   67.49    7.90
 -17  22   3   50.69   10.10
  -5 -17   3   51.49    6.60
  22  -5   3   55.19   11.90
  22 -17  -3   45.40   14.10
  -5  22  -3   47.30   17.00
  16 -22  -3   16.30   11.60
 -22  16   3   14.30    8.70
  16   6   3   24.70    8.90
   6 -22   3   13.90    5.40
 -22   6  -3   15.30    4.60
   6  16  -3   12.70   18.30
  22 -16  -3    5.90   12.80
  -6  22  -3   18.20   14.20
 -16  -6  -3   14.00    5.50
 -16  22   3   12.70    8.50
  22  -6   3    9.90    9.10
  -6 -16   3   12.00    4.60
  15 -22  -3   -8.40   11.30
   7  15  -3   25.40   20.80
  15   7   3   12.10    7.30
 -22  15   3   14.30    9.50
   7 -22   3   10.50    5.10
 -22   7  -3   12.50    4.80
  -7  22  -3   13.10   14.00
 -15  22   3   19.30    8.00
 -15  -7  -3    9.10    5.40
  22  -7   3   -3.50    9.90
  -7 -15   3    7.90    4.60
  22 -15  -3   -1.10   13.20
  14   8   3   20.30    8.10
 -22   8  -3   16.80    4.70
   8 -22   3   15.00    5.60
  14 -22  -3    2.60   11.80
 -22  14   3   20.40    9.00
   8  14  -3   15.20   20.40
 -14  22   3   10.20    7.80
  -8  22  -3   21.80   14.90
  22  -8   3    5.00    9.50
  22 -14  -3    8.40   12.60
  -8 -14   3    8.80    4.50
 -14  -8  -3   20.60    5.30
   9  13  -3    0.50   22.70
  13 -22  -3   -0.40   11.00
  13   9   3   12.30    7.60
   9 -22   3    5.00    5.30
 -22   9  -3   17.40    4.80
 -22  13   3    7.10   10.40
  22  -9   3    0.30   10.70
 -13  -9  -3   11.60    5.30
 -13  22   3   12.50    8.30
  22 -13  -3    0.10   14.40
  -9 -13   3   10.70    4.50
  -9  22  -3   16.00   15.40
  10  12  -3   73.79   25.80
 -22  12   3   79.09   14.10
  10 -22   3   86.69    9.20
 -22  10  -3   97.59    7.30
  12 -22  -3   86.99   15.90
  12  10   3   92.79   10.50
  22 -10   3   79.39   15.30
 -10  22  -3   93.49   16.90
 -12  22   3   77.69   11.40
  22 -12  -3   77.39   16.00
 -10 -12   3   72.99    8.20
 -12 -10  -3  100.49    8.10
  11  11   3   73.49    9.50
  11 -22  -3   62.49   12.40
  11  11  -3   52.09   25.50
 -22  11   3   82.29   12.00
 -22  11  -3   71.99    7.10
  11 -22   3   61.49    9.10
 -11  22   3   40.50    9.50
 -11  22  -3   49.99   15.40
 -11 -11   3   42.20    7.50
 -11 -11  -3   56.99    7.30
  22 -11  -3   49.50   16.20
  22 -11   3   53.09   12.60
  12  10  -3   19.50   25.70
 -22  10   3   21.50    9.60
  12 -22   3    6.60    6.40
  10  12   3   16.40    6.90
 -22  12  -3    9.70    4.30
  10 -22  -3   -1.00   16.00
 -12 -10   3    6.30    4.50
 -10  22   3    1.60    8.10
  22 -10  -3   19.90   13.50
  22 -12   3    3.20   12.10
 -12  22  -3   18.60   12.70
 -10 -12  -3    6.50    5.40
 -22  13  -3   46.40    6.70
  13 -22   3   40.30    7.70
   9  13   3   46.00    8.70
 -22   9   3   47.00   10.30
  13   9  -3   37.80   26.50
 -13  22  -3   26.10   12.70
  -9 -13  -3   42.60    6.60
 -13  -9   3   38.50    6.10
  -9  22   3   27.30    9.60
  22 -13   3   38.40   14.00
  22  -9  -3   41.50   14.00
   8 -22  -3   18.60   16.10
  14 -22   3   33.20    7.80
 -22   8   3   31.10    9.30
  14   8  -3   18.10   26.10
 -22  14  -3   42.00    6.60
   8  14   3   30.00    7.90
  -8  22   3   21.10    9.10
 -14  -8   3   29.70    5.50
  -8 -14  -3   27.60    5.90
  22 -14   3   33.90   13.30
 -14  22  -3   23.50   13.40
  22  -8  -3   27.60   14.00
   7  15   3   17.90    8.80
 -22  15  -3   29.20    5.50
 -22   7   3   14.50    5.60
 -22   7   3   21.40    9.20
  15 -22   3   20.40    7.40
  15   7  -3   48.20   29.30
   7 -22  -3    8.40   15.80
   7  15   3   36.90   11.00
  22  -7  -3   31.10   14.10
  -7  22   3   17.00    9.00
  -7 -15  -3   31.80    6.30
 -15  -7   3   19.80    5.50
 -15  22  -3   19.60   12.20
  22 -15   3   -3.50   13.50
  16 -22   3    0.10    6.90
   6 -22  -3   10.00   14.90
 -22   6   3   -2.90    8.40
 -22  16  -3    9.10    4.60
  16   6  -3   29.80   28.30
   6  16   3   23.20   11.50
   6  16   3   -5.80    6.70
 -22   6   3   12.80    5.50
  -6 -16  -3    4.60    5.20
 -16  22  -3    0.00   10.80
 -16  -6   3   -3.30    4.30
  -6  22   3   -4.80    8.40
  22  -6  -3    9.40   14.00
  22 -16   3  -28.20   14.50
   5  17   3   52.59    9.30
  17   5  -3  102.69   34.60
 -22   5   3   37.70   11.50
  17 -22   3   42.10    9.30
 -22   5   3   52.19    8.80
  22 -17   3   25.30   15.80
  -5  22   3   40.30   10.00
  -5 -17  -3   68.39    8.30
  22  -5  -3   60.69   16.60
 -17  22  -3   71.49   13.40
 -17  -5   3   35.30    6.30
 -22   4   3   31.30    7.10
   4  18   3   44.90   23.70
  18 -22   3   41.40   10.20
   4 -22  -3   46.60   13.30
   4  18   3   34.00    9.30
  18   4  -3   58.29   14.10
 -22   4   3   40.00   10.70
 -18  -4   3   25.70    6.10
 -18  22  -3   18.20   12.80
  22  -4  -3   32.70   15.10
  -4 -18  -3   29.10    5.90
  22 -18   3   24.70   14.90
  22 -18   3  -15.40   15.70
  -4  22   3   38.50   10.40
   3  19   3   98.19   16.70
   3  19   3   75.89   12.30
 -22   3   3   80.99   12.00
   3 -22  -3  122.29   13.50
   3 -22  -3   81.19   13.60
  19   3  -3  139.19   20.20
  19 -22   3   80.69   14.70
 -19  -3   3   85.79    8.50
  22 -19   3   39.10   19.20
  22  -3  -3  115.39   20.90
  -3  22   3   60.39   11.80
  22 -19   3   56.79   15.80
  -3 -19  -3   66.69    9.00
 -19  22  -3  127.49   15.90
   2  20   3  170.18   18.80
 -22   2   3  112.49   16.10
   2 -22  -3  143.29   10.90
  20   2  -3  163.18   21.10
  20 -22   3  133.79   24.90
   2 -22  -3  178.58   15.00
  20 -22   3  123.69   16.80
 -22   2   3  130.69   11.40
   2  20   3  146.99   14.00
  -2  22   3  150.98   16.50
  22 -20   3  120.09   21.60
  22  -2  -3  173.08   23.50
  -2 -20  -3  135.79   10.70
  22 -20   3   89.79   21.00
 -20  -2   3  145.89   10.50
 -20  22  -3  164.58   17.40
   1 -22  -3   29.70   11.10
   1 -22  -3   20.10    6.50
 -22   1   3   30.10    6.50
  21   1  -3   37.00   16.50
   1  21   3   36.90   12.60
  21 -22   3   21.40   11.50
 -22   1   3   24.30   11.50
  22 -21   3  -17.70   16.90
 -21  22  -3   38.20   11.90
  -1  22   3   11.10   10.50
 -21  -1   3    2.10   10.90
  22 -21   3   24.90   14.40
 -21  -1   3   30.10    6.10
  22  -1  -3   63.69   16.10
  -1 -21  -3   21.50    5.70
   4 -23   3   55.19    8.00
 -23  19   3   72.39   11.90
 -23   4  -3   75.69    7.80
  19 -23  -3   54.39   15.50
   4  19  -3   20.10   19.30
  19   4   3   50.79   10.10
  23  -4   3   42.20   10.70
  -4 -19   3   59.19    7.00
  -4  23  -3   55.79   16.80
  23 -19  -3   63.29   17.30
 -19  23   3   45.10    9.80
 -19  -4  -3   64.49    8.20
  18 -23  -3   20.60   13.10
 -23  18   3   11.90    9.80
   5  18  -3   -9.30   18.60
   5 -23   3   24.10    6.00
 -23   5  -3   24.30    5.30
  18   5   3   17.40    9.00
 -18  -5  -3   23.80    5.90
  23  -5   3   22.00    9.90
  -5  23  -3   13.30   14.40
 -18  23   3   17.40    8.60
  -5 -18   3   11.40    4.90
  23 -18  -3   20.60   14.90
  17 -23  -3   28.90   14.90
   6  17  -3   52.49   20.60
   6 -23   3   52.49    7.10
 -23  17   3   45.30   10.10
  17   6   3   66.89   12.80
 -23   6  -3   61.49    7.30
  23  -6   3   34.10   10.90
  -6 -17   3   45.70    6.50
 -17  -6  -3   55.99    7.40
  -6  23  -3   24.00   15.50
  23 -17  -3   37.80   14.50
 -17  23   3   39.10    9.70
  16 -23  -3  -23.00   13.20
   7  16  -3  -15.70   19.20
 -23  16   3    2.10    9.30
 -23   7  -3    4.50    4.40
   7 -23   3   -0.50    5.00
  16   7   3    3.30    7.10
  -7  23  -3  -16.50   13.80
  -7 -16   3    1.10    4.40
  23 -16  -3   14.30   13.10
  23  -7   3   -5.10    8.70
 -16  23   3    2.80    7.80
 -16  -7  -3    1.00    5.30
  15 -23  -3   10.00   11.60
 -23   8  -3   23.90    5.20
  15   8   3   33.50    8.00
   8 -23   3   21.90    6.00
   8  15  -3   18.40   21.70
 -23  15   3   31.20    9.50
 -15  -8  -3   18.80    5.50
  -8 -15   3   15.70    4.80
  23 -15  -3    7.60   13.60
  23  -8   3   14.40   10.20
 -15  23   3   18.60    8.20
  -8  23  -3    8.00   13.60
  14 -23  -3   84.59   14.00
   9 -23   3   91.69    9.00
   9  14  -3   80.59   24.20
 -23  14   3   82.69   13.50
 -23   9  -3  103.29    8.00
  14   9   3  120.39   12.80
  23  -9   3   85.09   15.20
  -9 -14   3   80.89    8.10
 -14  23   3   75.29   12.10
 -14  -9  -3  104.99    8.40
  -9  23  -3  101.79   18.60
  23 -14  -3  103.29   19.10
  10  13  -3   69.59   25.50
 -23  13   3   83.59   12.90
  10 -23   3   65.59    8.80
 -23  10  -3   77.79    7.40
  13 -23  -3   65.59   14.50
  13  10   3   94.59   11.80
  23 -13  -3   50.99   15.70
  23 -10   3   53.69   14.30
 -10 -13   3   68.59    7.60
 -13 -10  -3   75.49    8.30
 -10  23  -3   51.49   14.60
 -13  23   3   38.50    9.30
  12 -23  -3  -17.90   11.50
 -23  12   3   11.80    9.40
  11 -23   3    6.40    5.70
  12  11   3   19.30    8.10
  11  12  -3   24.20   24.90
 -23  11  -3   16.80    4.80
  23 -11   3    5.80   10.70
 -12  23   3    8.20    8.20
 -11  23  -3    9.80   13.70
  23 -12  -3   20.40   15.20
 -12 -11  -3   15.40    5.40
 -11 -12   3    6.40    4.80
  11 -23  -3   76.09   13.60
 -23  12  -3   96.79    7.50
  11  12   3  101.39   12.00
  12  11  -3   90.69   28.10
  12 -23   3   90.59    9.30
 -23  11   3   72.09   12.10
 -12 -11   3   72.49    7.50
  23 -12   3   80.59   15.50
 -11 -12  -3   78.89    7.80
 -11  23   3   63.29   11.90
 -12  23  -3   66.49   14.50
  23 -11  -3   77.09   15.70
  13  10  -3   77.99   28.40
  10  13   3   71.09   11.70
  10 -23  -3   72.39   13.00
  13 -23   3   80.39    9.20
 -23  13  -3   91.79    7.80
 -13  23  -3   90.39   16.20
  23 -13   3   66.59   14.20
  23 -10  -3   73.39   15.50
 -13 -10   3   76.19    7.80
 -10  23   3   47.80    9.90
 -10 -13  -3   93.39    8.60
 -23  14  -3   25.40    5.70
  14   9  -3   19.40   25.10
   9  14   3   30.10    7.80
  14 -23   3   22.10    7.30
   9 -23  -3   30.60   11.90
  -9  23   3    6.50    8.30
 -14  23  -3    0.70   12.70
  23  -9  -3   20.10   15.30
  23 -14   3    5.80   13.70
 -14  -9   3   15.60    4.80
  -9 -14  -3   16.50    5.40
  15 -23   3   15.90    6.80
 -23  15  -3   20.90    5.20
   8  15   3    4.70    7.60
   8 -23  -3   21.20   11.30
  15   8  -3    6.00   24.80
  23  -8  -3    9.70   15.20
  -8 -15  -3   17.60    6.00
  23 -15   3   -1.30   12.60
  -8  23   3    5.00    7.90
 -15  -8   3    1.60    4.70
 -15  23  -3   22.00   11.40
  16 -23   3   33.80    8.70
   7 -23  -3    7.50   12.30
   7  16   3   36.40    8.40
  16   7  -3   88.79   31.80
 -23  16  -3   52.09    7.00
 -23   7   3   42.50    7.40
   7  16   3   55.79   13.00
  23 -16   3   -0.40   14.00
 -16  -7   3   36.30    6.20
  -7  23   3   30.70    9.90
  -7 -16  -3   37.80    6.50
 -16  23  -3   41.10   12.10
  23  -7  -3   45.20   16.60
   6 -23  -3   57.09   12.00
 -23   6   3   12.20   20.60
  17 -23   3   67.89   11.10
 -23  17  -3   64.59    7.40
  17   6  -3   53.79   32.30
 -23   6   3   60.09    8.50
   6  17   3  121.59   18.20
   6  17   3   55.89   10.70
  -6  23   3   37.50   10.70
 -17  -6   3   40.70    7.20
  23 -17   3   38.40   17.70
 -17  23  -3   48.10   13.00
  -6 -17  -3   52.29    8.30
  23  -6  -3   67.79   15.70
  18 -23   3    3.90    8.90
  18   5  -3   57.89   33.20
   5  18   3    4.10    8.10
 -23   5   3    1.70   10.00
   5  18   3   23.20   13.00
 -23   5   3    2.30    6.50
 -18  -5   3   -8.50    4.70
 -18  23  -3  -20.10   12.00
  23 -18   3  -37.80   16.10
  23  -5  -3   12.80   14.70
  -5 -18  -3    6.90    5.60
  -5  23   3    3.60    8.70
  19   4  -3   87.99   34.90
   4  19   3   40.60    9.70
 -23   4   3   49.10    8.50
 -23   4   3   40.20   11.80
   4 -23  -3   39.30   12.50
   4  19   3   74.79   15.10
  19 -23   3   31.40   10.90
 -19  -4   3   29.90    6.60
  23 -19   3   15.10   16.30
 -19  23  -3   84.29   15.30
  -4  23   3   55.49   12.00
  23  -4  -3   55.39   16.40
   7 -24   3   35.10    6.80
 -24  17   3   38.60   10.90
  17 -24  -3   30.40   14.00
 -24   7  -3   57.89    7.40
  17   7   3   37.00    9.30
   7  17  -3   37.70   19.70
  24  -7   3   29.30   10.70
  -7  24  -3   35.00   15.70
 -17  24   3   45.80    9.90
  -7 -17   3   37.90    6.40
 -17  -7  -3   51.89    7.80
  24 -17  -3   37.50   14.80
  16   8   3   67.09   10.70
  16 -24  -3   29.70   14.90
   8 -24   3   68.39    8.80
   8  16  -3   58.29   21.50
 -24   8  -3   69.29    7.00
 -24  16   3   73.49   12.80
 -16  24   3   63.59   10.90
  -8 -16   3   62.79    7.20
  24  -8   3   41.90   11.60
  -8  24  -3   52.69   15.50
 -16  -8  -3   70.09    7.70
  24 -16  -3   56.79   15.20
   9  15  -3   45.70   21.80
 -24  15   3   52.39   11.60
  15 -24  -3   47.10   14.90
   9 -24   3   56.39    8.80
  15   9   3   63.89   10.90
 -24   9  -3   64.19    7.50
  -9  24  -3   41.40   15.10
  24  -9   3   57.59   13.30
 -15  -9  -3   60.09    7.20
  24 -15  -3   60.09   16.00
 -15  24   3   44.00   10.00
  -9 -15   3   53.49    7.20
 -24  10  -3   11.80    5.10
  10  14  -3    8.00   21.10
  14  10   3    2.60    7.20
 -24  14   3   23.10    9.70
  10 -24   3    6.20    5.80
  14 -24  -3    9.20   13.20
 -14 -10  -3    8.00    5.80
  24 -14  -3   -0.60   14.70
 -10 -14   3    0.00    4.50
 -10  24  -3   22.30   14.50
  24 -10   3  -11.20   10.50
 -14  24   3   -1.00    7.40
  11  13  -3  106.09   26.80
  13  11   3  131.19   12.20
  11 -24   3  111.59   10.20
 -24  11  -3  120.99    8.50
  13 -24  -3  114.39   18.60
 -24  13   3  124.19   14.90
  24 -13  -3  109.79   19.60
  24 -11   3  104.49   16.60
 -13 -11  -3  130.19    9.70
 -11 -13   3  102.99    8.50
 -13  24   3  109.29   13.20
 -11  24  -3  104.09   19.00
  12 -24   3  127.99   11.20
  12  12   3  131.99   12.90
  12 -24  -3   79.49   15.70
 -24  12  -3  118.69    8.70
  12  12  -3   50.69   28.40
 -24  12   3  111.99   14.10
 -12  24  -3   77.49   15.60
 -12 -12   3   82.49    8.90
 -12 -12  -3  108.39    9.40
 -12  24   3   79.09   12.90
  24 -12  -3  135.69   19.80
  24 -12   3  119.69   17.00
 -24  13  -3   14.50    5.30
  11  13   3   11.80    8.10
  13  11  -3   22.30   24.50
 -24  11   3   18.60    9.50
  11 -24  -3    5.20   11.20
  13 -24   3   19.90    6.80
  24 -11  -3    7.90   14.60
 -13  24  -3   16.00   13.20
 -13 -11   3    3.00    4.50
 -11  24   3    0.20    7.60
 -11 -13  -3   17.60    5.60
  24 -13   3    2.20   11.40
  10 -24  -3   44.30   12.30
  14  10  -3   71.89   27.00
 -24  14  -3   54.29    7.20
 -24  10   3   55.59   11.40
  10  14   3   64.59    9.50
  14 -24   3   38.70    8.00
  24 -10  -3   45.00   15.10
 -14 -10   3   43.70    7.00
  24 -14   3   47.50   14.10
 -10  24   3   20.60    9.00
 -10 -14  -3   49.50    8.00
 -14  24  -3   42.50   14.00
  15 -24   3   28.40    7.40
 -24  15  -3   59.39    7.40
  15   9  -3    1.90   30.00
   9  15   3   49.99   10.10
   9 -24  -3   54.09   12.80
 -24   9   3   56.79   12.10
 -15  24  -3   53.09   13.60
  -9  24   3   29.40    9.50
 -15  -9   3   33.80    6.30
  24 -15   3   62.79   16.80
  -9 -15  -3   43.20    8.00
  24  -9  -3   48.60   14.90
   8  16   3   44.40    8.80
 -24  16  -3   54.59    7.20
 -24   8   3   19.90   10.70
  16   8  -3   67.29   29.80
   8 -24  -3   32.50   12.20
  16 -24   3   25.20    8.10
 -16  -8   3   30.20    6.00
 -16  24  -3   37.50   12.90
  24 -16   3   33.70   14.80
  24  -8  -3   46.60   15.80
  -8  24   3   28.50    9.60
  -8 -16  -3   35.70    6.40
  17   7  -3   72.19   30.10
  17 -24   3    9.70    8.10
 -24   7   3   15.50    6.70
 -24   7   3    4.00   10.30
   7  17   3   54.09   14.30
   7  17   3   15.60    8.60
 -24  17  -3   26.10    5.70
   7 -24  -3  -14.40   11.70
 -17  -7   3   12.90    5.60
  24 -17   3    8.90   16.80
  -7 -17  -3   13.60    5.90
 -17  24  -3   17.30   11.30
  24  -7  -3   32.20   14.90
  -7  24   3    4.40    8.90
   0   0   4    0.30    4.80
   0   0   4   -0.80    3.30
   0  -1   4  159.08   10.50
   0  -1   4  156.88    9.20
  -1   1   4  149.29    8.90
  -1   1   4  155.38   10.50
  -1   1   4  156.58    9.50
   1   0   4  150.08    8.90
   1   0   4  154.68   10.50
   0  -1   4  157.18    9.10
   1   0   4  158.88   10.30
  -1   0   4   63.79    6.10
   0   1   4   69.89    6.20
   1  -1   4   63.69    7.00
   0   1   4   70.99    8.20
  -1   0   4   66.69    7.70
   1  -1   4   68.69    6.50
  -1   0   4   67.09    5.90
   1  -1   4   69.89    7.40
   0   1   4   63.89    7.30
  -2   2   4   60.09    6.10
  -2   2   4   67.69    8.60
   2   0   4   57.19    6.70
   2   0   4   69.59    7.50
   0  -2   4   61.99    5.50
   0  -2   4   68.09    7.80
  -2   2   4   59.69    6.50
   2   0   4   59.29    8.40
   0  -2   4   63.59    6.00
   1  -2   4  238.38   12.20
  -2   1   4  242.68   12.00
   1   1   4  234.18   12.20
   1  -2   4  237.48   12.60
   1   1   4  243.78   13.60
   1  -2   4  243.98   13.70
  -2   1   4  239.48   12.40
  -2   1   4  236.88   14.20
  -1  -1   4  257.17   12.10
  -1   2   4  236.58   12.30
   2  -1   4  255.77   13.90
   2  -1   4  248.28   13.40
  -1  -1   4  226.88   11.80
  -1   2   4  234.58   13.40
  -1   2   4  241.28   13.00
  -1  -1   4  246.98   13.70
   2  -1   4  231.78   12.20
   2  -2   4  366.66   18.00
  -2   0   4  364.66   16.80
   2  -2   4  376.86   18.00
  -2   0   4  375.76   19.00
   0   2   4  370.46   19.00
   0   2   4  375.96   18.40
   0   2   4  354.26   17.30
  -2   0   4  369.26   17.10
   2  -2   4  376.46   17.30
   3   0   4  794.92   34.30
   0  -3   4  789.42   33.90
  -3   3   4  799.32   35.40
  -3   3   4  796.22   34.00
  -3   3   4  790.22   34.10
   3   0   4  813.22   34.80
   3   0   4  794.42   36.20
  -3   2   4  195.08    9.90
  -3   2   4  175.98   10.10
  -3   2   4  199.68   12.50
   2   1   4  175.98   11.40
   1  -3   4  187.38   10.40
   1  -3   4  196.58   12.00
   1  -3   4  182.98   10.10
   2   1   4  189.88   11.00
   2   1   4  180.78   14.00
   3  -1   4  181.88   10.40
  -2   3   4  190.48   12.20
  -1  -2   4  189.28   10.00
  -1  -2   4  184.88   11.90
   3  -1   4  197.78   11.40
   3  -1   4  182.88   12.40
  -2   3   4  195.98   10.60
  -1  -2   4  180.28    9.80
  -2   3   4  191.68   11.30
   1   2   4   53.29    6.00
   1   2   4   52.39    9.70
  -3   1   4   54.29    8.10
  -3   1   4   53.99    6.30
   2  -3   4   48.60    6.80
   2  -3   4   55.59    6.70
   1   2   4   54.39    7.10
   2  -3   4   56.49    6.00
  -3   1   4   52.69    5.00
  -1   3   4   56.19    9.00
   3  -2   4   52.09    5.90
  -1   3   4   55.69    6.20
   3  -2   4   56.29    6.90
  -2  -1   4   67.09    5.80
  -2  -1   4   55.19    7.70
   3  -2   4   54.29    7.50
  -1   3   4   50.39    7.70
  -2  -1   4   53.79    5.00
   3  -3   4  343.07   16.30
  -3   0   4  336.57   15.40
   0   3   4  342.97   17.00
   3  -3   4  341.27   16.90
   0   3   4  336.67   16.60
  -3   0   4  338.67   17.80
   3  -3   4  363.46   17.40
   0   3   4  336.17   18.90
   0  -4   4  702.93   30.00
   0  -4   4  716.53   31.80
   4   0   4  701.13   31.30
  -4   4   4  717.53   30.70
  -4   4   4  674.93   31.60
   0  -4   4  710.43   30.30
   4   0   4  725.33   33.80
   4   0   4  693.03   30.80
  -4   4   4  701.93   30.30
   1  -4   4   90.19    6.90
   3   1   4   80.69    8.10
   3   1   4   96.99    7.40
  -4   3   4   85.99    6.10
  -4   3   4   81.29    8.70
   3   1   4   85.59   12.20
   1  -4   4   70.49    6.00
   1  -4   4   87.99    8.20
  -1  -3   4   82.89    6.40
   4  -1   4   74.89    6.90
   4  -1   4   88.69   10.90
  -3   4   4   76.29    6.80
  -3   4   4   77.49    8.40
  -1  -3   4   71.59    7.20
  -1  -3   4   90.49    9.40
  -3   4   4   84.89    8.40
  -4   2   4  341.67   15.90
   2  -4   4  351.36   17.80
   2  -4   4  348.77   16.90
   2   2   4  358.36   16.90
   2  -4   4  348.57   16.30
  -4   2   4  358.76   18.50
   2   2   4  336.97   17.30
  -2   4   4  363.46   17.20
   4  -2   4  351.36   18.60
  -2  -2   4  356.76   16.30
   4  -2   4  355.96   17.00
  -2   4   4  348.47   17.80
  -2  -2   4  355.66   16.10
   4  -2   4  366.36   17.40
  -2  -2   4  360.16   18.20
  -4   1   4  355.36   18.90
  -4   1   4  377.96   16.60
   3  -4   4  378.16   17.30
   3  -4   4  380.16   18.00
   1   3   4  374.26   17.60
   1   3   4  382.06   18.40
   3  -4   4  378.66   18.40
  -1   4   4  356.16   18.40
   4  -3   4  382.26   19.10
   4  -3   4  362.36   18.00
   4  -3   4  361.06   17.60
  -3  -1   4  372.36   16.70
   4  -1  -4  378.96   17.70
  -3  -1   4  371.06   18.90
  -1   4   4  368.66   17.60
  -4   0   4    5.30    2.60
   4   0  -4    4.50    3.70
   4  -4   4    6.50    3.60
  -4   0   4   -4.40    5.60
   0   4   4    2.30    5.00
   4  -4   4    9.00    5.00
   4  -4   4    4.60    4.90
   0  -4  -4    5.40    2.00
   0   4   4    9.90    4.50
   5   0   4   19.00    5.60
   5   0   4   26.90    9.60
  -5   5   4   21.30    6.60
   0  -5   4   26.60    6.40
   0  -5   4   21.00    3.80
   5   0   4   29.50    5.30
  -5   5   4   17.10    4.50
   0  -5   4   17.30    3.70
   1  -5   4 1155.58   48.80
  -5   4   4 1104.49   47.20
   4   1   4 1132.49   48.20
   4   1   4 1146.59   48.30
   1  -5   4 1140.69   47.30
   1  -5   4 1140.49   47.70
  -5   4   4 1151.18   49.30
   5  -1   4 1153.18   48.20
  -4   5   4 1119.09   49.00
   5  -1   4 1162.88   50.99
   5  -4  -4 1192.38   48.30
  -1  -4   4 1074.79   47.20
  -4   5   4 1122.89   48.00
   5  -1   4 1175.58   48.20
  -1  -4   4 1132.39   47.50
  -1  -4   4 1133.79   49.00
   2  -5   4  284.57   13.90
  -5   3   4  292.27   13.30
   3   2   4  295.87   15.10
   3   2   4  290.57   14.80
   2  -5   4  277.77   15.20
  -5   3   4  289.47   16.00
   3  -5  -4  291.07   12.40
   2  -5   4  297.27   14.50
  -2  -3   4  291.37   13.70
   5  -3  -4  290.07   14.60
  -3   5   4  296.07   14.60
   5  -2   4  304.27   17.50
   5  -2   4  282.57   14.70
  -2  -3   4  303.97   16.00
  -3   5   4  276.07   16.00
   5  -2   4  294.57   15.00
  -5   2   4   87.69    5.50
   3  -5   4   96.79    7.90
   2   3   4   81.69    7.60
   3  -5   4   94.39    8.80
   3  -5   4   78.89    6.60
  -5   2   4   75.49    9.70
   2   3   4   80.69    8.00
   3   2  -4   85.79    6.70
   2  -5  -4   85.09    4.60
  -3  -2   4   84.29    5.90
   5  -2  -4   91.09    7.30
  -2   5   4   87.99    9.20
   5  -3   4   81.69    7.00
  -2   5   4   85.29    7.50
  -2  -3  -4   79.39    5.30
   5  -3   4   79.69    9.20
  -3  -2   4   81.69    9.90
   5  -3   4   86.29    7.50
  -5   1   4  142.09   10.90
   1  -5  -4  142.59    6.80
   4  -5   4  137.09    9.40
   4  -5   4  132.99    8.60
   4  -5   4  145.79    9.70
   4   1  -4  136.89    8.80
   1   4   4  136.99    9.00
   1   4   4  142.49   10.10
  -5   1   4  141.29    7.50
  -1   5   4  133.39    9.20
   5  -1  -4  136.79    9.40
  -4  -1   4  130.09   11.50
  -4  -1   4  137.79    7.60
   5  -4   4  132.89   11.20
   5  -4   4  137.39    9.50
   5  -4   4  125.59    8.50
  -1   5   4  136.09   10.50
   0  -5  -4   54.59    4.10
   5   0  -4   55.29    7.30
   5  -5   4   49.30    7.50
  -5   0   4   52.79    4.80
   5  -5   4   49.50    7.50
   0   5   4   62.19    7.00
   5  -5   4   54.79    6.60
  -5   0   4   59.99    8.40
   0   5   4   58.39    8.20
   6  -6  -4 1284.27   54.59
   6   0   4 1401.66   57.09
   0  -6   4 1363.36   56.19
  -6   6   4 1357.36   57.79
   6  -6  -4 1370.26   56.79
   0  -6   4 1375.06   57.59
   6   0   4 1381.36   56.49
   0  -6   4 1297.27   55.59
   5   1   4 1004.60   42.00
   5   1   4  980.70   41.70
  -6   5   4  947.61   42.70
  -6   5   4  943.31   40.50
   5  -6  -4  915.51   39.50
   1  -6   4 1009.60   42.80
   1  -6   4  968.70   41.30
   1  -6   4  948.11   40.70
   6  -1   4  986.20   45.40
   6  -1   4  978.60   41.80
   6  -5  -4 1039.00   41.90
  -5  -1  -4  965.40   40.60
  -5   6   4  970.70   42.80
   6  -1   4  977.40   41.50
  -1  -5   4  984.40   41.10
  -1  -5   4 1013.30   42.90
   2  -6   4  105.99    9.70
  -6   4   4   86.79    9.70
   4   2   4   93.99    8.40
   2   4  -4   98.79    6.90
  -6   4   4   97.29    5.80
   2  -6   4   95.99    7.10
   2  -6   4   95.89    6.80
   4  -6  -4   97.79    4.60
   4   2   4   88.39    8.10
  -4   6   4   92.79    7.80
   6  -2   4  112.29   13.80
   6  -4  -4   85.09    8.00
  -4  -2  -4   96.09    6.00
  -2  -4   4   98.69    9.60
  -4   6   4   93.79    9.40
   6  -2   4   93.79    7.80
   6  -2   4   93.59    8.00
  -2  -4   4   94.69    6.30
   3   3   4  378.16   18.40
   3  -6   4  379.46   18.20
   3  -6   4  377.76   17.50
   3   3   4  386.96   18.60
   3  -6  -4  376.96   16.20
  -6   3   4  377.06   16.80
   3  -6   4  390.66   19.30
  -6   3   4  372.26   19.70
  -3  -3  -4  397.16   16.90
   6  -3   4  396.36   21.30
  -3  -3   4  392.66   17.40
  -3   6   4  391.36   18.40
   6  -3  -4  407.96   18.90
  -3   6   4  384.76   19.70
   6  -3   4  383.26   18.70
   6  -3   4  383.26   18.30
   4  -6   4  178.48    9.80
   4  -6   4  172.08   11.00
   2  -6  -4  174.68    8.00
   4  -6   4  180.98   11.10
  -6   2   4  176.58   12.30
   2   4   4  169.18   10.70
   4   2  -4  162.38   10.30
  -6   2   4  184.58    8.70
   2   4   4  175.78   11.10
  -2  -4  -4  173.68    8.60
  -4  -2   4  173.88    9.10
   6  -4   4  155.68   11.90
  -4  -2   4  178.68   12.30
  -2   6   4  175.48   11.40
   6  -4   4  167.68   10.20
  -2   6   4  171.78   10.50
   6  -2  -4  174.08   10.70
   6  -4   4  176.58   12.50
   1   5   4    4.90    4.90
   5  -6   4   10.00    5.20
   5  -6   4    4.90    4.70
  -6   1   4    3.40    6.30
   1  -6  -4    0.70    2.00
   1   5   4    1.30    4.60
   5   1  -4    4.10    4.20
   5  -6   4    4.10    3.80
  -6   1   4    3.30    2.40
  -1   6   4   -1.90    4.60
  -5  -1   4   -1.80    6.20
  -1   6   4    5.20    5.10
  -5  -1   4    1.40    2.50
   6  -5   4    0.30    3.90
   6  -5   4    1.40    4.80
   6  -5   4    3.20    6.20
  -1  -5  -4    2.00    2.60
   6  -1  -4    2.80    5.30
   6   0  -4    9.00    5.40
   0   6   4    8.00    5.30
   6  -6   4   14.00    5.50
  -6   0   4   12.10    6.70
   0   6   4   15.90    5.20
   6  -6   4    6.20    4.40
  -6   0   4    3.40    2.60
   6  -6   4    2.40    5.50
   0  -6  -4    9.30    2.40
   0  -7   4 1168.28   49.90
  -7   0  -4 1144.59   47.80
  -7   7   4 1154.38   50.39
   7   0   4 1157.58   49.30
   7   0   4 1143.39   48.40
   0  -7   4 1115.09   48.20
   7  -7  -4 1202.08   49.20
   1  -7   4   23.90    3.60
   1  -7   4   35.40    6.90
   6   1   4   31.70    5.10
   6   1   4   24.70    6.20
  -7   6   4   24.00    7.30
   1  -7   4   31.20    5.20
   6  -7  -4   15.20    5.90
   1   6  -4   24.50    3.90
  -1  -6   4   22.90    4.00
   7  -1   4   17.70    5.60
   7  -1   4   21.70    4.60
  -1  -6   4   30.60    7.60
  -6  -1  -4   19.00    3.40
  -6   7   4   17.80    6.90
   7  -6  -4   12.20    6.60
   2  -7   4 1232.68   52.59
   2  -7   4 1246.58   51.49
   2   5  -4 1219.68   50.99
   5  -7  -4 1157.08   49.70
   2  -7   4 1211.08   50.79
   5   2   4 1255.17   52.09
  -7   5   4 1188.08   50.39
   5   2   4 1228.78   51.79
  -7   5   4 1250.07   53.09
  -5   7   4 1201.28   52.79
   7  -2   4 1218.58   52.09
   7  -2   4 1263.97   55.59
   7  -2   4 1232.48   51.49
  -5  -2  -4 1244.98   50.79
   7  -5  -4 1291.27   52.19
  -2  -5   4 1261.67   52.89
  -2  -5   4 1226.58   51.09
  -7   4   4  341.97   15.10
   4  -7  -4  335.47   14.50
   3   4  -4  350.96   16.40
  -7   4   4  352.36   19.10
   3  -7   4  370.76   18.30
   4   3   4  344.77   17.30
   3  -7   4  355.96   17.00
   3  -7   4  334.17   15.90
  -4  -3  -4  345.77   15.50
  -4   7   4  364.66   17.10
   7  -4  -4  345.57   17.30
  -3  -4   4  349.17   16.00
   7  -3   4  333.57   16.60
  -3  -4   4  357.96   18.50
  -4   7   4  331.57   18.00
   7  -3   4  369.16   21.50
   7  -3   4  344.47   17.20
   3   4   4    6.30    4.90
   3   4   4    8.00    4.90
  -7   3   4   11.00    6.50
   4  -7   4    4.40    4.30
  -7   3   4    9.20    2.30
   4  -7   4   10.40    4.00
   3  -7  -4    6.60    1.80
   4  -7   4   10.60    5.60
  -3   7   4    8.20    6.30
   7  -3  -4    6.30    5.40
  -4  -3   4   14.30    6.90
   7  -4   4   14.30    7.40
   7  -4   4    4.50    4.50
  -3   7   4    7.20    5.10
  -3  -4  -4    9.10    2.70
   7  -4   4   11.50    4.90
  -4  -3   4    9.80    3.10
   5  -7   4  107.29    8.60
   2   5   4   95.69    8.80
   5  -7   4   92.09    7.70
  -7   2   4  105.29   10.40
   2  -7  -4   89.39    5.10
   2   5   4   91.89    8.00
   5   2  -4   91.59    8.10
  -7   2   4   95.39    5.60
   7  -5   4   94.29   10.40
  -2   7   4   92.29    8.20
  -2  -5  -4   91.59    5.80
  -5  -2   4   90.79    6.20
  -2   7   4   97.89    9.90
   7  -5   4   76.59    9.60
   7  -5   4   85.29    8.50
  -5  -2   4   81.89    9.80
   7  -2  -4   95.29    9.60
   6  -7   4   12.00    4.50
   6   1  -4   17.20    5.80
  -7   1   4   10.40    7.40
   1   6   4   17.10    5.80
  -7   1   4    9.10    2.70
   6  -7   4   14.20    5.70
   1   6   4   15.40    5.20
   1  -7  -4    9.40    2.30
   7  -6   4   14.60    4.80
   7  -1  -4   16.10    6.20
  -1   7   4   15.80    6.10
   7  -6   4   11.80    6.90
  -6  -1   4   11.80    3.00
  -6  -1   4    8.90    6.90
  -1   7   4   12.40    5.40
  -1  -6  -4    8.00    2.50
   0   7   4    2.50    5.60
  -7   0   4   10.40    7.20
   7  -7   4   -0.70    5.60
   7  -7   4    7.30    5.00
   0   7   4    5.00    5.60
   7   0  -4    4.00    5.90
  -7   7  -4   -5.60   17.70
  -7   0   4    0.40    2.50
   0  -7  -4    5.10    2.50
   0  -8   4   66.89    9.10
   0  -8   4   57.49    5.80
   8   0   4   56.29    8.20
   8   0   4   40.60    5.90
  -8   0  -4   46.80    5.60
  -8   8   4   52.79    9.40
   0   8  -4   42.90    5.10
   8  -8  -4   51.69    8.00
  -8   1  -4 1527.55   61.59
   7   1   4 1470.45   62.79
   7  -8  -4 1492.05   62.59
   7   1   4 1559.04   62.09
   1  -8   4 1503.15   62.09
   1   7  -4 1423.76   61.29
   1  -8   4 1502.55   63.39
  -8   7   4 1499.75   63.79
  -7  -1  -4 1502.65   61.49
  -1  -7   4 1453.65   61.79
   8  -1   4 1483.15   62.89
  -1  -7   4 1570.14   63.69
   8  -1   4 1465.85   61.69
   8  -7  -4 1502.65   62.89
  -7   8   4 1458.55   63.59
   2  -8   4  972.70   43.30
  -8   6   4  979.80   43.80
   2   6  -4  972.00   41.60
   6   2   4 1012.90   42.80
   2  -8   4  951.90   41.10
   6   2   4 1009.00   42.20
   2  -8   4  988.90   42.10
   6  -8  -4 1032.20   42.70
  -6  -2  -4 1016.30   41.40
   8  -2   4  997.60   43.10
  -2  -6   4 1014.20   43.60
   8  -2   4  955.40   41.70
  -2  -6   4  975.50   41.70
   8  -6  -4 1041.20   43.10
  -6   8   4  963.90   43.50
   8  -2   4  997.60   46.60
   3   5  -4   30.60    6.00
  -8   5   4   32.90    3.40
  -8   5   4   26.60    7.50
   3  -8   4   32.00    4.70
   5   3   4   36.50    7.20
   5   3   4   35.10    5.70
   3  -8   4   35.40    5.30
  -5  -3  -4   28.80    4.10
  -3  -5   4   34.00    8.00
   8  -3   4   32.20    5.00
  -5   8   4   31.00    7.30
   8  -5  -4   46.90    8.60
   8  -3   4   34.70   11.00
  -3  -5   4   35.00    5.10
   8  -3   4   29.40    6.50
   4  -8   4  276.97   13.90
   4  -8  -4  252.37   11.30
   4   4   4  278.17   14.40
  -8   4   4  273.07   11.90
   4   4  -4  260.37   13.70
   4   4   4  270.57   14.40
  -8   4   4  263.77   15.80
   4  -8   4  262.67   13.00
  -4  -4   4  264.17   12.80
  -4   8   4  264.77   14.10
  -4  -4  -4  263.47   12.40
   8  -4   4  265.37   14.40
   8  -4  -4  257.87   14.90
  -4  -4   4  277.87   16.30
  -4   8   4  259.37   15.90
   8  -4   4  272.87   18.00
   3   5   4  153.58   10.70
  -8   3   4  149.39   11.90
   5  -8   4  149.79   10.20
   5   3  -4  152.58   10.60
   3  -8  -4  147.69    7.30
   5  -8   4  145.79    9.10
  -8   3   4  161.98    7.80
   3   5   4  156.88   10.50
  -5  -3   4  158.88   12.00
   8  -5   4  153.68   10.30
  -3  -5  -4  154.48    8.30
   8  -3  -4  166.68   11.40
  -5   8  -4  181.68   27.20
  -3   8   4  156.68   11.60
  -5  -3   4  162.58    8.70
  -3   8   4  153.58   10.50
   8  -5   4  163.68   13.50
   2  -8  -4    1.20    2.20
   2   6   4    6.60    5.20
   6  -8   4    4.50    4.10
   6   2  -4    5.80    6.00
  -8   6  -4   -5.70   15.60
   2   6   4    5.00    5.30
  -8   2   4    2.40    2.30
  -8   2   4    5.90    7.10
   6  -8   4    3.40    5.20
  -6   8  -4    0.70   19.70
  -2   8   4    6.90    5.30
   8  -6   4    3.00    5.00
  -6  -2   4    3.30    2.70
   8  -6   4    2.50    6.80
   8  -2  -4    0.80    5.80
  -6  -2   4    2.60    7.20
  -2   8   4   -1.00    5.90
  -2  -6  -4    3.50    2.70
  -8   7  -4   13.60   16.10
   7   1  -4   27.80    6.90
  -8   1   4   25.00    3.80
   1  -8  -4   21.90    3.70
   7  -8   4   16.90    6.50
   1   7   4   27.90    6.10
  -8   1   4   12.40    7.30
   1   7   4   25.60    6.60
   7  -8   4   23.40    5.40
  -7   8  -4   15.40   17.90
  -1   8   4   29.20    6.00
  -7  -1   4   21.70    3.60
   8  -7   4   21.60    7.30
  -7  -1   4   30.90    7.90
  -1  -7  -4   25.50    4.20
  -1   8   4   21.30    6.90
   8  -1  -4   26.60    6.80
   8  -7   4   25.50    5.80
  -8   0   4   24.10    3.60
   8  -8   4   25.80    5.70
   0   8   4   12.90    6.30
   8  -8   4   15.50    6.90
  -8   8  -4   21.40   17.20
  -8   0   4   22.30    7.90
   0   8   4   19.80    5.70
   0  -8  -4   23.10    3.40
   8   0  -4   36.40    8.20
   9  -9  -4 1614.44   65.79
   9   0   4 1514.35   63.69
  -9   9   4 1598.94   66.39
   0   9  -4 1435.66   63.39
  -9   0  -4 1595.54   63.99
   9   0   4 1560.34   65.59
   0  -9   4 1569.14   64.49
   8   1   4 1018.20   43.80
   1   8  -4  941.81   41.90
   8  -9  -4 1069.19   43.90
  -9   8   4 1048.10   45.10
  -9   1  -4 1012.20   42.20
   1  -9   4  993.40   42.70
   8   1   4 1028.20   42.50
   9  -1   4 1033.80   43.90
   9  -8  -4 1040.80   44.20
  -1  -8   4 1017.90   42.70
   9  -1   4  968.30   42.00
  -1   9  -4  943.51   41.50
  -8   9   4 1014.40   44.80
  -8  -1  -4 1017.00   42.20
   7   2   4   27.30    4.90
   7   2   4   24.30    6.10
   7  -9  -4   20.20    6.70
   2  -9   4   25.10    5.00
   2   7  -4   16.90    4.70
  -9   7   4   15.90    7.60
   2  -9   4   22.30    3.30
  -7  -2  -4   20.10    3.70
   9  -2   4   13.00    4.20
  -7   9   4   33.00    7.90
  -2  -7   4   20.80    4.40
  -2  -7   4   25.30    7.30
   9  -7  -4   28.40    7.50
   9  -2   4   27.20    7.00
   3  -9   4  768.52   33.70
   3  -9   4  809.52   34.80
   6   3   4  812.72   35.60
   6  -9  -4  836.42   35.50
   6   3   4  790.62   34.90
  -9   6   4  820.02   36.60
   3   6  -4  748.23   34.50
  -6  -3  -4  824.42   34.00
  -6   9   4  797.92   36.50
   9  -3   4  784.22   39.60
  -3   9  -4  796.92   52.49
   9  -6  -4  814.92   36.00
   9  -3   4  813.92   36.00
  -3  -6   4  872.91   36.70
  -3  -6   4  819.02   34.40
   4   5  -4  279.07   15.40
   5   4   4  298.37   18.90
   5   4   4  311.67   15.90
  -9   5   4  294.47   13.20
   4  -9   4  305.67   14.10
   4  -9   4  312.17   15.20
  -9   5   4  303.67   17.20
   9  -4   4  302.07   20.70
  -5   9   4  292.07   17.70
   9  -4   4  308.57   16.80
  -4  -5   4  312.97   17.20
  -4  -5   4  307.97   14.50
  -5  -4  -4  302.77   14.00
  -4   9  -4  306.57   32.50
   9  -5  -4  300.77   17.60
   4  -9  -4    8.70    2.00
  -9   5  -4   16.80   14.50
  -9   4   4   13.00    7.20
   5   4  -4    5.80    5.90
   4   5   4   14.80    5.20
   5  -9   4    3.70    4.60
   4   5   4   17.70    5.60
  -9   4   4   13.30    2.30
   5  -9   4   10.50    4.00
   9  -5   4   10.50    8.80
  -5   9  -4   16.50   22.30
  -4  -5  -4    6.80    3.10
  -4   9   4   16.60    5.60
   9  -5   4   11.30    5.70
   9  -4  -4   14.20    7.60
  -5  -4   4   11.70    3.50
  -4   9   4    2.60    6.60
  -5  -4   4    7.10    7.00
   3  -9  -4   22.70    3.50
  -9   3   4   20.80    7.70
   3   6   4   33.20    6.40
   6  -9   4   35.10    6.30
  -9   6  -4   57.59   15.40
   6   3  -4   35.20    7.00
  -9   3   4   31.70    3.70
   3   6   4   27.70    6.10
   9  -3  -4   28.40    7.40
   9  -6   4   29.50    6.20
  -3  -6  -4   20.30    3.50
  -6   9  -4    7.90   20.70
  -3   9   4   29.30    6.20
  -3   9   4   21.80    7.10
  -6  -3   4   34.60    8.20
  -6  -3   4   27.40    4.70
   9  -6   4   28.00    8.60
   2   7   4   28.00    6.00
   7  -9   4   24.70    5.40
  -9   2   4   20.30    7.70
   2  -9  -4   22.70    3.00
  -9   2   4   22.40    3.80
   7  -9   4   29.90    6.60
   2   7   4   27.20    6.20
  -9   7  -4   14.20   15.20
   7   2  -4   29.10    7.10
  -2   9   4   28.20    6.60
   9  -7   4   21.30    7.90
  -2  -7  -4   20.80    3.40
  -7  -2   4   21.50    3.80
  -7  -2   4   30.60    8.30
  -2   9   4   25.40    7.30
   9  -2  -4   21.90    7.50
  -7   9  -4   17.60   17.50
   9  -7   4   31.50    6.60
   1   8   4    2.80    5.30
   1  -9  -4    5.20    2.60
   8  -9   4    9.10    6.70
  -9   8  -4    4.40   15.00
  -9   1   4    9.10    7.20
   8   1  -4   19.30    7.30
   8  -9   4    5.50    4.80
  -9   1   4    6.00    2.80
   1   8   4    7.30    5.70
  -8   9  -4    4.20   16.90
  -8  -1   4    7.10    3.10
   9  -8   4   10.70    7.50
   9  -8   4    7.60    5.80
  -1  -8  -4    7.90    3.00
  -1   9   4   10.70    6.80
   9  -1  -4    4.20    7.50
  -8  -1   4   10.80    7.80
  -1   9   4    5.50    5.40
   9  -9   4  127.59   10.40
   0   9   4  132.79   11.60
  -9   0   4  137.89    7.70
  -9   0   4  118.89   13.10
  -9   9  -4  124.79   22.80
   9  -9   4  112.59   12.30
   9   0  -4  150.38   11.80
   0   9   4  130.49   10.00
   0  -9  -4  127.89    7.40
  10   0   4  220.28   14.10
 -10   0  -4  224.58   11.30
 -10  10   4  211.38   15.00
   0 -10   4  230.48   11.90
   0  10  -4  203.48   32.60
  10 -10  -4  227.18   15.10
   1 -10   4  138.69    8.70
 -10   1  -4  133.59    8.20
   9 -10  -4  117.59   11.70
 -10   9   4  129.19   12.30
   9   1   4  142.49   11.20
  -1  10  -4  124.89   28.20
  10  -1   4  141.19   11.30
  -1  -9   4  139.39    8.70
  -9  10   4  137.49   12.40
  -9  -1  -4  137.69    8.50
  10  -9  -4  132.29   12.30
 -10   8   4 1098.59   47.20
   8   2   4 1070.89   45.90
   8 -10  -4 1116.69   46.00
 -10   2  -4 1104.99   44.50
 -10   2  -4  996.70   47.90
   8   2   4 1091.99   44.70
   2   8  -4  958.40   44.30
   2 -10   4 1063.89   45.00
  -2  -8   4 1053.29   46.50
  -8  10   4 1075.19   47.10
  -8  -2  -4 1093.29   44.40
  10  -8  -4 1077.59   46.50
  -2  -8   4 1044.00   44.70
  -2  10  -4 1013.80   61.59
  10  -2   4 1045.50   46.10
   7   3   4  498.75   23.20
 -10   3  -4  499.35   27.30
   7 -10  -4  497.05   23.40
   7   3   4  498.55   22.30
   3   7  -4  471.75   22.30
 -10   7   4  465.55   24.40
   3 -10   4  496.05   22.30
   3 -10   4  469.25   20.80
  -7  -3  -4  493.15   21.40
  -3  -7   4  465.95   21.70
  -7  10   4  507.15   24.50
  10  -7  -4  499.15   24.30
  -3  -7   4  495.05   24.20
  -3  10  -4  486.65   41.90
  10  -3   4  493.65   23.60
 -10   4  -4   54.49   12.40
   4 -10   4   34.80    6.30
 -10   6   4   52.29    8.60
   6   4   4   42.40    6.90
   4 -10   4   37.00    4.80
   6   4   4   45.90    8.10
   4   6  -4   33.70    6.60
   6 -10  -4   34.40    7.20
  -4  -6   4   51.99    8.80
  -6  10   4   35.30    8.20
  -6  -4  -4   41.60    5.40
  10  -4   4   37.10    7.80
  -4  10  -4   33.50   21.70
  -4  -6   4   44.50    5.20
  10  -6  -4   41.10    8.50
  10  -4   4   42.30   12.60
   5   5   4  105.69    8.80
 -10   5   4   92.29   11.60
   5 -10   4   85.99    7.10
 -10   5   4   98.49    5.40
   5   5   4   96.49    9.30
 -10   5  -4   94.39   17.50
   5 -10   4  107.49    8.30
   5   5  -4   99.59    9.80
  -5  -5   4  103.09    7.10
  -5  -5  -4   91.79    6.60
  -5  -5   4   91.99   10.50
  10  -5   4   91.99   10.40
  -5  10  -4  125.59   25.00
  10  -5   4  103.79   16.70
  -5  10   4  113.19   11.80
  10  -5  -4   73.19   11.20
 -10   6  -4   51.29   13.50
   6   4  -4   44.80    8.40
 -10   4   4   51.49    9.20
   6 -10   4   46.10    7.20
   4   6   4   51.79    7.80
   6 -10   4   51.99    6.40
 -10   4   4   42.40    3.90
   4   6   4   50.39    7.60
   4 -10  -4   39.00    3.50
  10  -4  -4   51.79   10.10
  10  -6   4   44.10    8.20
  -6  -4   4   56.09    9.40
  -4  10   4   43.40    8.00
  -6  -4   4   48.00    5.60
  -4  -6  -4   40.40    5.20
  10  -6   4   56.49   11.30
  -4  10   4   50.29    7.70
  -6  10  -4   59.69   21.60
   3   7   4    2.70    5.60
   3 -10  -4   -2.10    2.20
 -10   3   4   -0.70    2.40
 -10   3   4    5.40    7.80
   7 -10   4   -0.90    5.40
   7 -10   4    1.60    4.40
   3   7   4   -2.10    5.10
   7   3  -4    4.20    7.40
  -7  -3   4   -6.90    7.30
  -7  10  -4   -2.40   19.10
  10  -7   4   -5.90    8.00
  -7  -3   4    0.00    3.30
  -3  10   4    3.00    6.70
  -3  10   4   -0.70    5.20
  -3  -7  -4    1.00    3.10
  10  -3  -4    7.00    7.70
  10  -7   4   -4.30    5.20
 -10   8  -4   57.69   15.10
   2 -10  -4   69.49    5.30
   2   8   4   76.49    9.20
   8 -10   4   76.89    7.80
 -10   2   4   80.39    5.70
 -10   2   4   70.09   10.40
   8 -10   4   59.39    9.60
   8   2  -4   74.29   11.50
   2   8   4   73.69    8.50
  -2  10   4   77.09   10.50
  10  -8   4   79.09    9.50
  10  -8   4   79.29   12.80
  -8  -2   4   76.59    6.30
  -8  -2   4  102.89   11.90
  10  -2  -4   75.79   10.90
  -8  10  -4   83.89   20.60
  -2  10   4   82.79    8.90
  -2  -8  -4   77.49    5.90
 -10   1   4   97.89   11.20
   9 -10   4  101.89   11.40
 -10   1   4   88.79    6.60
   1 -10  -4   72.69    6.80
   9 -10   4   88.09    9.20
 -10   9  -4  116.89   20.90
   9   1  -4   93.49   12.70
   1   9   4  104.59    9.40
   1   9   4   98.79   10.30
  10  -9   4   97.69    9.90
  -1  10   4  107.19   11.00
  -1  10   4  111.39    9.30
  -9  10  -4  109.09   19.80
  10  -9   4   75.09   12.40
  -9  -1   4   82.99   11.80
  -9  -1   4   87.39    6.70
  10  -1  -4   93.89   13.20
  -1  -9  -4   91.69    6.60
 -10   0   4   11.50    3.60
   0 -10  -4   13.60    3.70
  10 -10   4    3.70    7.50
  10   0  -4    9.40    8.40
  10 -10   4   20.60    6.30
 -10   0   4   11.70    8.00
   0  10   4    9.00    6.00
 -10  10  -4   15.00   16.00
   0  10   4   17.80    7.00
   0  11  -4   34.50   25.40
 -11   0  -4   45.80    6.30
  11 -11  -4   56.49    9.70
 -11  11   4   39.40    9.10
   0 -11   4   59.19    6.40
  11   0   4   38.70    7.90
   1  10  -4   99.89   29.70
   1 -11   4  126.39    8.40
  10 -11  -4  150.18   12.70
 -11   1  -4  114.79    8.20
 -11  10   4   96.99   11.70
  10   1   4  111.19   10.90
  -1 -10   4  120.09    8.30
  -1  11  -4  134.29   27.40
  11 -10  -4  120.59   12.60
  11  -1   4  124.09   11.20
 -10  -1  -4  118.39    7.80
 -10  11   4  120.49   12.20
 -11   2  -4  100.19    7.60
   2 -11   4  107.39    7.80
 -11   9   4   88.59   11.30
   9 -11  -4   99.09   10.90
   9   2   4  100.29   10.00
  -2  11  -4  106.99   27.70
  -9  11   4   94.49   11.50
  11  -9  -4  125.09   14.00
  11  -2   4  116.69   10.90
  -2  -9   4   97.09    7.50
  -9  -2  -4  105.29    7.10
   8   3   4  155.68    9.20
 -11   3  -4  132.19    8.30
 -11   8   4  150.68   13.30
   3   8  -4  130.59   10.10
   3 -11   4  144.79    9.70
   8 -11  -4  137.19   11.90
   8   3   4  140.69   11.00
  11  -8  -4  129.49   13.20
  -3  -8   4  143.69    8.80
  11  -3   4  131.09   11.60
  -3  -8   4  147.19   12.00
  -3  11  -4  145.59   28.00
  -8  -3  -4  136.19    8.30
  -8  11   4  122.79   13.30
 -11   7   4  325.17   18.70
   7   4   4  345.37   16.50
   4 -11   4  310.27   14.80
   4   7  -4  331.47   17.50
   4 -11   4  343.57   16.60
   7   4   4  319.67   17.50
 -11   4  -4  302.77   19.50
   7 -11  -4  341.87   17.70
  -4  11  -4  360.16   35.50
  11  -7  -4  360.96   20.60
  11  -4   4  318.87   18.10
  -7  -4  -4  350.66   15.70
  -4  -7   4  356.86   18.70
  -4  -7   4  339.77   15.90
  -7  11   4  332.37   19.10
   6   5   4   90.79    8.90
   5 -11   4   76.69    7.50
 -11   6   4   72.99    4.50
   5   6  -4   89.09   10.00
 -11   6   4   74.79   11.40
   6 -11  -4   78.29    9.30
 -11   5  -4   85.49   11.80
   5 -11   4   78.69    6.10
  -6  11   4   70.39   11.10
  -5  11  -4   89.59   22.60
  11  -6  -4   85.99   11.80
  11  -5   4   65.09    9.60
  -5  -6   4   76.19   10.50
  11  -5   4   78.69   13.70
  -5  -6   4   79.39    6.50
  -6  -5  -4   76.59    6.60
   6 -11   4    4.80    5.10
 -11   5   4    1.80    2.10
   6   5  -4    2.20    7.20
   6 -11   4    2.80    3.70
   5   6   4    4.00    5.20
 -11   5   4    3.00    7.90
 -11   6  -4   -2.60   10.40
   5   6   4   -1.40    5.50
  11  -6   4  -11.50    9.50
  -5  -6  -4    4.30    3.40
  -6  11  -4   16.70   19.90
  -6  -5   4    3.20    3.60
  -5  11   4    0.70    7.10
  -6  -5   4   13.90    7.50
  11  -6   4    4.50    5.90
  11  -5  -4    5.30    9.10
 -11   4   4   15.70    7.90
   7 -11   4   22.40    5.90
   7 -11   4   23.00    6.70
 -11   4   4   24.00    3.10
   4   7   4   17.90    6.00
   7   4  -4   29.80    8.40
   4   7   4   36.70    6.70
   4 -11  -4   20.90    3.20
 -11   7  -4   20.90   11.90
  -7  -4   4   29.00    5.40
  -7  11  -4   23.90   18.70
  11  -4  -4   29.70    8.90
  -4  -7  -4   24.40    4.10
  11  -7   4   15.00    9.90
  -4  11   4   25.30    6.00
  -4  11   4   16.00    8.10
  11  -7   4   25.20    6.80
  -7  -4   4   27.10    8.70
   3 -11  -4   50.99    4.60
   8 -11   4   57.19    8.70
   8 -11   4   55.39    7.40
 -11   8  -4   80.39   14.40
   3   8   4   60.19    9.20
   3   8   4   58.39    8.30
   8   3  -4   61.59   10.00
 -11   3   4   64.89    9.70
  -8  -3   4   54.99    6.10
  11  -8   4   59.79   11.30
  11  -8   4   59.99   10.20
  11  -3  -4   63.59   11.20
  -3  11   4   54.19    8.30
  -8  11  -4   69.39   20.80
  -8  -3   4   65.99   10.10
  -3  11   4   59.79   11.00
  -3  -8  -4   53.09    5.90
   9 -11   4   -4.40    5.90
 -11   2   4    4.90    8.00
 -11   2   4    2.90    3.10
   9 -11   4    0.10    5.40
   2 -11  -4    4.30    2.90
   9   2  -4   11.80    9.00
 -11   9  -4   -3.00   12.60
   2   9   4   -2.20    5.60
   2   9   4    9.30    6.70
  -2  11   4    1.10    5.70
  -2  11   4    3.40    7.50
  -2  -9  -4    1.40    3.30
  11  -9   4    3.30    8.30
  -9  11  -4    7.00   16.70
  -9  -2   4    8.90    3.70
  11  -2  -4   14.10   10.10
  11  -9   4    7.50    6.20
  -9  -2   4   11.00    7.70
   1  10   4  280.97   16.80
  10 -11   4  267.67   17.10
  10 -11   4  270.67   15.30
 -11   1   4  262.07   13.10
   1 -11  -4  267.67   12.80
   1  10   4  273.27   15.10
 -11  10  -4  252.47   23.60
  10   1  -4  293.27   19.10
 -11   1   4  279.37   17.90
  11  -1  -4  283.07   18.20
  -1  11   4  280.37   15.10
 -10  -1   4  244.88   16.60
  11 -10   4  250.27   17.50
  -1  11   4  275.07   17.20
 -10  -1   4  274.27   13.60
 -10  11  -4  250.77   25.70
  11 -10   4  247.78   16.10
  -1 -10  -4  267.87   12.90
  11 -11   4  268.57   17.10
 -11  11  -4  264.27   23.70
 -11   0   4  256.37   13.00
   0 -11  -4  253.77   12.60
 -11   0   4  275.17   17.60
  11 -11   4  220.28   15.50
   0  11   4  266.67   16.80
  11   0  -4  252.97   19.50
   0  11   4  259.57   14.80
   0 -12   4   14.80    4.80
 -12  12   4    4.40    7.60
  12 -12  -4   12.50    8.80
  12   0   4   10.70    7.00
 -12   0  -4    6.00    3.90
   0  12  -4    6.00   22.00
  11   1   4  114.49   11.00
   1  11  -4  121.89   28.40
   1 -12   4  112.89    8.20
  11 -12  -4  121.09   12.50
 -12   1  -4  114.49    8.10
 -12  11   4  104.49   11.80
  12  -1   4  121.49   11.40
  -1 -11   4  115.09    8.10
  12 -11  -4  102.99   13.20
  -1  12  -4  106.09   27.10
 -11  -1  -4  110.29    8.20
 -11  12   4   99.49   11.70
 -12   2  -4   81.99    7.30
 -12  10   4   87.39   11.50
  10   2   4   94.49   10.30
  10 -12  -4  123.09   12.00
   2 -12   4   85.19    7.50
   2  10  -4   60.09   30.90
  -2 -10   4   88.99    7.30
  12 -10  -4   90.89   13.00
 -10  12   4   80.09   12.60
  12  -2   4   74.89   10.50
 -10  -2  -4   87.69    7.40
  -2  12  -4   90.89   24.80
   9 -12  -4   55.19    8.70
 -12   3  -4   58.29    6.10
   3 -12   4   65.29    6.90
 -12   9   4   61.89   10.40
   9   3   4   62.09    9.30
  12  -3   4   58.79   10.10
  -9  -3  -4   56.29    6.50
  12  -9  -4   65.49   12.40
  -3  -9   4   75.09    6.50
  -3  12  -4   52.59   23.40
  -9  12   4   60.39   10.80
   4 -12   4   -0.10    4.60
   8 -12  -4   -4.90    6.50
   8   4   4    7.60    4.20
 -12   8   4   -6.80    7.60
   8   4   4    1.10    6.10
   4   8  -4   -1.00    5.40
 -12   4  -4   -5.50    3.50
  -4  -8   4    4.60    4.00
  -8  12   4   -4.60    7.50
  -8  -4  -4   -4.80    3.80
  -4  12  -4   23.30   23.70
  12  -8  -4   17.20    9.30
  -4  -8   4    9.90    7.50
  12  -4   4    1.80    6.70
 -12   7   4   94.29   11.30
   5   7  -4  105.29   11.10
   7 -12  -4   65.69    9.80
   5 -12   4   98.09    8.40
   7   5   4   86.29    9.80
   7   5   4  106.59    8.60
  -7  -5  -4   92.99    7.30
  -5  -7   4   96.89    7.70
  -5  12  -4   95.89   23.10
  -7  12   4  100.59   12.70
  -5  -7   4   93.39   12.00
  12  -7  -4  121.89   15.90
  12  -5   4   96.59   11.90
 -12   6   4   70.29    4.60
   6   6   4   69.09    9.10
   6   6   4   85.79    8.70
   6 -12  -4   66.09    9.30
 -12   6  -4   68.69   10.00
   6   6  -4   86.09   11.80
 -12   6   4   60.99   11.30
   6 -12   4   69.49    8.60
   6 -12   4   74.09    6.30
  -6  -6   4   72.39    6.90
  12  -6  -4   81.39   14.70
  -6  12   4   67.19   10.80
  12  -6   4   92.29   11.60
  12  -6   4   69.79   13.90
  -6  -6   4   79.49   11.90
  -6  -6  -4   56.49    6.60
  -6  12  -4   90.79   23.60
 -12   7  -4  -16.50    8.90
   7   5  -4   13.00   14.90
   5   7   4    5.30    5.70
 -12   5   4   -0.80    2.20
   5   7   4   13.50    5.70
   7 -12   4   -1.70    3.90
   7 -12   4   -2.50    5.20
 -12   5   4   -4.00    7.60
  -5  12   4   -4.00    7.60
  -5  -7  -4    1.90    3.70
  12  -5  -4   -2.60    9.80
  12  -7   4    4.80    6.70
  -7  -5   4   -0.70    7.90
  -7  12  -4    0.10   20.30
  12  -7   4   -4.00   10.40
  -7  -5   4    1.90    3.80
   8 -12   4    8.60    5.00
 -12   4   4    9.80    2.90
 -12   4   4    7.00    7.90
   4   8   4    8.00    5.90
   4 -12  -4    9.90    2.50
   8   4  -4   13.90    9.20
   4   8   4   14.80    6.00
 -12   8  -4    0.10   10.50
   8 -12   4    6.50    5.80
  -8  -4   4   12.30    4.30
  -4  12   4    6.90    8.00
  -4  12   4    9.00    6.00
  -8  12  -4    9.30   18.70
  12  -4  -4   19.40    9.40
  12  -8   4   13.00    6.80
  -4  -8  -4   10.10    4.00
  12  -8   4    4.00   10.10
  -8  -4   4    9.60    8.40
   9   3  -4  138.49   16.20
 -12   3   4  138.59   12.90
   9 -12   4  146.79   12.30
   3   9   4  152.48   11.30
 -12   9  -4  138.69   18.40
 -12   3   4  149.09    8.50
   3   9   4  151.78   12.40
   3 -12  -4  151.48    8.00
   9 -12   4  144.59   10.80
  -9  -3   4  148.19    9.40
  12  -9   4  161.68   15.70
  12  -9   4  159.68   13.50
  12  -3  -4  160.08   15.70
  -3  12   4  160.78   12.00
  -9  -3   4  135.19   13.70
  -9  12  -4  186.88   26.00
  -3  -9  -4  144.29    9.00
  -3  12   4  164.18   13.00
  10   2  -4  234.18   18.10
 -12  10  -4  208.98   20.30
   2 -12  -4  204.18   10.80
   2  10   4  225.18   14.80
  10 -12   4  220.38   13.70
  10 -12   4  229.28   14.70
 -12   2   4  217.98   11.20
   2  10   4  209.08   14.10
 -12   2   4  211.08   15.30
 -10  12  -4  216.88   25.00
 -10  -2   4  215.28   11.80
  12 -10   4  184.08   16.30
  -2 -10  -4  208.38   11.30
  12  -2  -4  241.78   17.70
  -2  12   4  244.98   15.90
 -10  -2   4  205.38   15.20
  -2  12   4  221.98   14.20
  12 -10   4  212.98   14.50
 -12  11  -4    7.50   12.70
 -12   1   4    8.30    3.80
  11   1  -4    3.40   10.50
 -12   1   4    8.00    8.30
   1  11   4   19.40    7.50
  11 -12   4    1.60    7.00
   1  11   4    6.50    5.60
  11 -12   4    7.60    6.20
   1 -12  -4    9.20    3.50
  -1  12   4    5.80    7.80
  -1 -11  -4    5.30    3.80
  -1  12   4    5.10    5.80
 -11  12  -4   11.60   14.80
 -11  -1   4   19.60    9.00
  12 -11   4    2.60    8.30
 -11  -1   4    9.00    4.10
  12 -11   4   16.60    7.40
  12  -1  -4   13.20   11.10
 -12   0   4  464.15   24.50
   0  12   4  479.45   23.00
   0 -12  -4  458.55   21.10
 -12   0   4  485.65   21.80
  12 -12   4  477.15   24.20
  12   0  -4  512.15   27.90
   0  12   4  498.95   25.00
  12 -12   4  473.45   25.70
 -12  12  -4  436.36   29.80
 -13  13   4    7.40    7.30
   0 -13   4    2.60    4.10
  13   0   4    1.30    6.30
   0  13  -4   14.20   20.70
  13 -13  -4    3.90    8.60
 -13   0  -4   -0.80    4.10
  12   1   4   75.49    9.70
  12 -13  -4   79.39   13.60
   1  12  -4   75.99   24.00
   1 -13   4   81.09    7.60
 -13  12   4   68.89   10.30
 -13   1  -4   70.19    6.60
 -12  -1  -4   85.69    6.90
  13  -1   4   91.39   10.70
 -12  13   4   73.09   10.70
  -1  13  -4   91.89   24.90
  -1 -12   4   80.29    7.00
  13 -12  -4   92.39   12.80
 -13   2  -4   -2.00    3.60
  11   2   4    3.10    6.50
  11 -13  -4   -1.40    8.00
   2  11  -4  -12.20   24.30
 -13  11   4    3.60    7.70
   2 -13   4    6.10    4.30
  13  -2   4   -0.30    6.50
  -2 -11   4    4.10    4.20
 -11  -2  -4    0.30    4.00
 -11  13   4   -2.20    7.40
  -2  13  -4   14.40   21.20
  13 -11  -4    6.10   10.20
 -13  10   4   99.59   11.90
 -13   3  -4  124.29    8.00
   3  10  -4  102.69   31.40
  10   3   4  115.89   10.80
  10 -13  -4  143.49   12.60
   3 -13   4  114.59    8.60
 -10  -3  -4  117.99    8.30
  13 -10  -4  140.69   14.80
 -10  13   4  111.29   12.30
  13  -3   4  121.99   11.70
  -3  13  -4   97.79   24.40
  -3 -10   4  117.99    8.70
 -13   9   4   65.09   10.70
 -13   4  -4   56.09    6.10
   4 -13   4   66.39    7.10
   9   4   4   55.89    9.10
   9 -13  -4   69.69   10.00
  -9  13   4   64.49   10.30
  -4  -9   4   63.89    7.00
  -9  -4  -4   59.39    6.90
  13  -9  -4   77.69   13.60
  13  -4   4   63.19   10.00
  -4  13  -4   67.19   23.00
 -13   5  -4    4.00    4.10
   8   5   4   -4.50    5.90
   8   5   4   17.80    4.50
   5 -13   4    2.30    5.00
 -13   8   4    4.80    7.90
   8 -13  -4   -9.50    6.70
  -5  -8   4   13.80    7.70
  -5  -8   4    8.30    4.30
  13  -5   4   14.40    8.20
  -8  13   4    9.70    8.10
  13  -8  -4    8.20    9.70
  -8  -5  -4    7.00    4.00
  -5  13  -4   10.30   20.10
   6 -13   4   23.30    5.60
   7   6   4   31.50    8.90
 -13   7   4   11.70    7.90
   6   7  -4   36.40    7.90
   7   6   4   29.60    6.80
   7 -13  -4   17.80    7.20
  -7  -6  -4   26.10    4.80
  -6  -7   4   28.90    5.00
  -6  13  -4   40.80   21.50
  13  -7  -4   38.10   10.50
  -7  13   4   21.50    8.40
  -6  -7   4   21.30    8.20
  13  -6   4   34.60    9.00
 -13   7  -4   29.10    8.50
   7 -13   4   48.20    6.20
   6 -13  -4   52.69    9.50
 -13   6   4   64.79   11.70
 -13   6   4   53.89    4.60
   7 -13   4   55.29    7.80
   7   6  -4   56.99   10.10
   6   7   4   67.29    8.40
   6   7   4   42.80    8.30
  13  -6  -4   60.39   12.30
  13  -7   4   55.69   13.60
  -7  13  -4   63.39   21.40
  -6  13   4   50.19    9.50
  -7  -6   4   42.30    9.10
  -6  -7  -4   45.90    6.30
  -7  -6   4   46.30    6.00
  13  -7   4   56.89    9.70
   8 -13   4    2.20    5.50
   8 -13   4    7.70    4.50
 -13   5   4    3.50    2.70
 -13   5   4    5.60    8.10
   8   5  -4   15.80    9.50
   5   8   4    4.10    5.60
 -13   8  -4   -1.90    8.40
   5   8   4   15.80    5.90
  13  -8   4    2.50    7.50
  -8  13  -4   20.20   18.70
  -5  13   4   11.70    8.40
  13  -5  -4   17.80   10.50
  -8  -5   4    4.60    3.90
  -5  -8  -4    5.60    4.10
  13  -8   4    0.90   11.50
  -8  -5   4    7.40    7.60
 -13   4   4   93.59   11.40
   4 -13  -4   78.79    5.60
   4   9   4  115.29   10.60
   9 -13   4   75.69    8.50
 -13   4   4   86.29    6.40
 -13   9  -4   89.59   14.10
   9 -13   4   90.49    9.80
   4   9   4   91.29   10.50
   9   4  -4   79.19   14.80
  13  -4  -4   99.29   14.90
  -4  13   4  105.99   12.80
  13  -9   4   90.79   11.10
  -4  13   4   89.39    9.30
  -9  13  -4   86.59   18.80
  13  -9   4  127.59   17.30
  -4  -9  -4   93.09    7.20
  -9  -4   4   88.99    7.70
  -9  -4   4   75.69   12.20
  10 -13   4    3.90    6.20
 -13   3   4    9.30    8.10
  10 -13   4   18.00    5.90
  10   3  -4   11.00   10.60
   3  10   4   27.70    7.50
   3  10   4   14.10    5.90
 -13   3   4   10.70    3.60
   3 -13  -4    4.10    3.20
 -13  10  -4   23.50   10.60
  13 -10   4    3.30   10.20
  -3 -10  -4   16.80    4.30
  13  -3  -4   24.50   10.80
  -3  13   4   10.20    5.80
  13 -10   4   21.00    8.00
 -10  -3   4    3.40    7.60
 -10  -3   4    8.20    4.30
  -3  13   4   20.30    8.60
 -10  13  -4   21.50   15.90
 -13  11  -4  355.46   24.60
   2  11   4  375.26   19.60
 -13   2   4  378.76   21.20
  11 -13   4  398.56   21.40
 -13   2   4  405.46   18.10
  11 -13   4  366.16   19.80
   2  11   4  399.66   21.30
   2 -13  -4  380.06   17.40
  11   2  -4  384.16   24.50
  -2 -11  -4  394.46   17.80
  13 -11   4  391.16   20.80
  13 -11   4  375.26   23.30
  13  -2  -4  407.06   24.10
 -11  -2   4  390.66   18.40
 -11  13  -4  369.26   29.10
  -2  13   4  404.36   21.90
  -2  13   4  402.26   20.30
 -11  -2   4  352.56   20.90
   1 -13  -4  415.16   19.40
 -13   1   4  451.95   20.20
  12 -13   4  423.96   22.20
 -13  12  -4  451.75   26.80
  12   1  -4  430.66   26.60
   1  12   4  458.35   23.10
 -13   1   4  416.16   22.80
  12 -13   4  428.16   23.00
   1  12   4  439.76   21.80
 -12  -1   4  418.66   22.70
 -12  -1   4  448.06   20.20
  -1  13   4  447.56   23.60
 -12  13  -4  424.16   28.10
  13 -12   4  410.46   23.80
  -1 -12  -4  430.06   19.60
  -1  13   4  420.36   21.30
  13 -12   4  407.46   22.60
  13  -1  -4  463.25   27.00
   0  13   4   14.30    7.10
 -13  13  -4    9.60   11.60
   0  13   4    4.70    5.90
 -13   0   4   -6.30    3.90
  13 -13   4    5.10    8.00
   0 -13  -4    0.50    3.40
  13   0  -4   18.80   11.90
  13 -13   4   23.90    7.30
 -13   0   4    1.10    7.80
  14 -14  -4   50.19   10.40
   0 -14   4   37.70    5.80
 -14   0  -4   33.40    5.50
   0  14  -4   29.20   22.00
  14   0   4   55.09    9.90
 -14  14   4   42.50    8.80
 -14  13   4   61.39   10.00
   1  13  -4   85.09   24.30
   1 -14   4   65.29    6.70
 -14   1  -4   67.49    6.80
  13   1   4   79.29    9.80
  13 -14  -4   73.19   12.00
  14  -1   4   77.09   10.20
  -1 -13   4   81.89    7.40
 -13  14   4   64.39   11.20
  14 -13  -4   81.79   13.30
 -13  -1  -4   64.49    6.30
  -1  14  -4   55.49   21.70
   2  12  -4   38.20   22.60
  12   2   4   29.60    7.20
  12 -14  -4   32.00    9.00
 -14  12   4   36.50    8.40
 -14   2  -4   33.30    5.40
   2 -14   4   48.40    6.70
  14 -12  -4   39.90   10.50
 -12  14   4   45.60    9.50
 -12  -2  -4   38.00    6.20
  -2  14  -4   33.50   22.00
  14  -2   4   42.30    7.90
  -2 -12   4   50.99    6.70
   3  11  -4   56.69   26.20
  11 -14  -4   53.19    9.50
 -14   3  -4   53.19    6.40
 -14  11   4   41.30    8.90
   3 -14   4   59.49    6.50
  11   3   4   47.80    8.80
 -11  -3  -4   63.89    6.70
  14 -11  -4   54.69   11.10
  -3  14  -4   83.89   23.00
  -3 -11   4   61.79    7.00
  14  -3   4   61.69    9.90
 -11  14   4   61.29    9.80
 -14   4  -4   52.49    6.00
  10   4   4   59.09    8.60
 -14  10   4   58.99   10.40
   4 -14   4   48.80    6.80
  10 -14  -4   71.49   10.90
   4  10  -4   15.00   27.30
 -10  14   4   36.90    9.00
 -10  -4  -4   52.19    6.60
  14  -4   4   58.99   10.40
  14 -10  -4   63.59   11.40
  -4  14  -4   78.99   23.00
  -4 -10   4   56.59    6.90
 -14   5  -4  173.18   10.10
   5 -14   4  166.78   10.70
   9   5   4  166.78   12.20
 -14   9   4  165.88   13.30
   9 -14  -4  165.68   12.80
  -5  -9   4  183.08   10.80
  14  -5   4  182.28   13.90
  14  -9  -4  185.58   16.30
  -5  14  -4  193.08   30.20
  -9  14   4  170.88   14.70
  -9  -5  -4  178.28   10.40
   6 -14   4   86.69    8.10
 -14   8   4   83.09   11.80
   8   6   4   74.29    9.30
 -14   6  -4   70.19    7.10
   8   6   4   96.79    8.00
   8 -14  -4   80.09   10.30
  14  -6   4   84.59   11.20
  14  -8  -4   95.69   14.30
  -6  14  -4   60.69   20.20
  -6  -8   4   89.69   11.90
  -6  -8   4   80.99    7.70
  -8  -6  -4   81.39    6.90
  -8  14   4   88.19   11.30
   7 -14   4    2.90    5.20
   7 -14  -4    4.50    6.70
   7   7   4    1.50    5.80
   7   7  -4   16.20    7.70
 -14   7   4   -3.20    7.10
   7   7   4   19.80    5.20
  -7  -7   4    5.20    4.30
  -7  14  -4   28.10   19.00
  -7  -7   4    8.40    7.60
  14  -7  -4   21.60   10.70
  14  -7   4    0.60    7.90
  -7  -7  -4    5.10    3.80
  -7  14   4   -3.10    7.90
 -14   6   4   65.79    6.50
   8   6  -4   79.19   13.90
 -14   6   4   72.89   10.50
   6   8   4   73.09    9.10
   8 -14   4   62.99    8.40
   8 -14   4   88.39    9.60
   6   8   4   96.49    9.00
   6 -14  -4   72.49    9.90
  -6  -8  -4   72.19    7.00
  -8  -6   4   69.09    7.20
  -8  14  -4   70.89   20.30
  -8  -6   4   72.09   10.60
  14  -8   4   62.89   14.00
  14  -6  -4   73.69   12.30
  14  -8   4   68.39   12.10
  -6  14   4   64.29   10.90
   5   9   4   18.00    5.90
   9   5  -4   18.50    9.60
 -14   9  -4   18.90    9.70
 -14   5   4   14.60    3.30
   9 -14   4    6.70    6.00
 -14   5   4   11.80    8.50
   5   9   4   32.10    6.80
   9 -14   4   35.90    6.40
  -9  -5   4   16.70    8.00
  -5  -9  -4   19.50    4.50
  -9  14  -4   13.90   16.30
  -5  14   4   15.40    7.80
  14  -9   4   12.50   11.40
  14  -9   4   13.80    7.70
  -9  -5   4   10.10    4.30
  14  -5  -4   17.50   11.80
   4 -14  -4  138.99    7.90
  10   4  -4  146.39   16.60
   4  10   4  145.79   11.20
 -14   4   4  148.69    8.80
  10 -14   4  150.38   10.90
 -14   4   4  134.29   12.70
  10 -14   4  135.79   11.50
   4  10   4  156.38   12.10
 -14  10  -4  138.39   14.40
  14  -4  -4  147.99   16.70
 -10  -4   4  149.29   13.60
  -4  14   4  167.08   14.10
  -4 -10  -4  148.89    9.30
  14 -10   4  161.78   17.30
 -10  14  -4  150.08   23.10
  -4  14   4  140.49   11.20
 -10  -4   4  159.98    9.70
  14 -10   4  159.18   12.90
 -14   3   4  229.08   16.00
 -14   3   4  247.28   12.90
   3 -14  -4  245.98   11.80
   3  11   4  273.37   16.20
 -14  11  -4  212.98   18.70
  11   3  -4  233.68   19.70
   3  11   4  253.07   15.20
  11 -14   4  258.57   15.90
  11 -14   4  220.38   14.80
  14 -11   4  261.57   17.00
  14  -3  -4  254.67   19.90
 -11  -3   4  266.37   13.30
  -3  14   4  267.87   17.10
 -11  14  -4  260.37   23.80
  -3  14   4  240.88   14.40
  14 -11   4  243.18   18.80
  -3 -11  -4  243.38   12.70
 -11  -3   4  229.88   16.00
  12 -14   4   -0.50    6.40
 -14   2   4   -3.60    4.00
   2  12   4   22.70    7.00
 -14  12  -4  -23.00   10.20
   2  12   4    1.40    5.70
  12   2  -4   21.30   10.80
   2 -14  -4   -2.30    3.20
 -14   2   4    3.80    7.70
  -2  14   4    9.80    7.30
 -12  -2   4    3.60    7.90
  14 -12   4   -6.30    8.60
 -12  -2   4    2.50    3.90
  -2  14   4    7.90    6.50
  14 -12   4    8.10    7.30
 -12  14  -4   12.60   13.80
  -2 -12  -4    3.20    4.10
  14  -2  -4   10.90   10.50
 -14  13  -4  348.47   25.40
 -14   1   4  403.26   22.50
   1  13   4  420.96   22.80
 -14   1   4  403.76   19.30
   1 -14  -4  410.66   18.50
  13   1  -4  422.26   26.10
   1  13   4  404.36   20.40
  13 -14   4  407.36   22.40
  13 -14   4  389.86   21.40
  -1  14   4  416.36   20.60
 -13  14  -4  408.86   27.00
 -13  -1   4  419.16   22.70
  14 -13   4  372.76   22.80
  -1  14   4  415.46   22.80
 -13  -1   4  406.36   19.50
  14 -13   4  411.76   22.40
  -1 -13  -4  403.46   18.60
  14  -1  -4  424.46   27.00
   0  14   4  338.07   17.90
  14 -14   4  296.97   20.10
 -14   0   4  323.77   16.30
  14   0  -4  323.37   23.80
   0 -14  -4  305.17   15.40
   0  14   4  359.76   20.20
 -14  14  -4  260.27   23.50
 -14   0   4  302.37   19.50
  14 -14   4  350.36   19.50
 -15   0  -4   34.90    6.50
 -15  15   4   41.30   14.50
   0  15  -4   10.00   24.10
 -15   1  -4    8.00    4.40
 -15  14   4    2.10    7.70
  14 -15  -4   23.80    9.70
   1 -15   4    9.80    4.70
  14   1   4   12.90    6.90
   1  14  -4    5.60   19.60
 -14  15   4    6.60    7.60
  -1  15  -4   -1.60   20.80
 -14  -1  -4    2.10    4.00
  15 -14  -4    6.40    9.30
  -1 -14   4    3.00    4.00
  15  -1   4    4.70    6.70
   2  13  -4   94.89   25.00
  13 -15  -4   96.69   12.80
 -15  13   4  105.69   11.40
  13   2   4  117.99   12.00
   2 -15   4  111.39    8.30
 -15   2  -4  111.69    8.10
 -13  15   4  110.99   11.90
  -2  15  -4   97.09   22.80
  15  -2   4  112.69   11.50
  -2 -13   4  120.49    8.30
 -13  -2  -4  116.59    8.40
  15 -13  -4   93.69   14.10
   3  12  -4   67.59   23.70
  12 -15  -4   64.09   11.20
  12   3   4   73.89    9.80
 -15  12   4   74.59   11.50
 -15   3  -4   62.59    6.20
   3 -15   4   60.19    7.20
  15  -3   4   59.99   10.10
  -3  15  -4   66.59   20.40
 -12  -3  -4   55.19    6.20
 -12  15   4   52.29   10.00
  15 -12  -4   52.79   11.00
  -3 -12   4   70.79    6.50
  11   4   4  150.98   11.80
   4 -15   4  154.08   10.10
   4  11  -4  170.58   30.50
 -15   4  -4  155.28    9.40
 -15  11   4  167.58   13.00
  11 -15  -4  177.88   13.60
  -4  15  -4  183.98   28.10
  15  -4   4  186.78   14.60
 -11  -4  -4  169.58    9.80
  -4 -11   4  176.48   10.10
  15 -11  -4  184.58   16.00
 -11  15   4  154.78   13.30
 -15  10   4   14.60    7.70
   5  10  -4   -2.00   22.90
  10   5   4   23.90    6.70
  10 -15  -4   19.00    8.90
   5 -15   4   17.00    4.70
 -15   5  -4   18.40    4.50
  15  -5   4   18.90    7.70
  -5 -10   4   22.00    4.90
  -5  15  -4   10.40   17.80
  15 -10  -4   29.00   10.30
 -10  15   4   13.80    7.80
 -10  -5  -4   15.10    4.40
 -15   6  -4  109.19    8.00
   6 -15   4  110.99    8.80
   9   6   4  104.99   10.10
   9 -15  -4   95.19   12.10
 -15   9   4  114.89   12.40
  -9  -6  -4  122.89    8.40
  15  -9  -4  127.99   15.70
  -6  -9   4  120.29    8.70
  -9  15   4  104.79   12.80
  -6  15  -4  118.59   22.00
  15  -6   4  113.49   12.20
 -15   7  -4  192.98   10.80
   8 -15  -4  193.08   13.60
   8   7   4  211.18   12.30
   8   7   4  215.18   13.30
   7 -15   4  193.78   12.00
 -15   8   4  193.98   14.90
  -7  -8   4  194.48   14.40
  -7  15  -4  220.18   27.50
  15  -7   4  196.28   15.00
  -8  15   4  213.38   15.10
  15  -8  -4  226.88   18.30
  -8  -7  -4  204.08   11.00
  -7  -8   4  218.28   11.90
   7 -15  -4   51.29    9.20
   7   8   4   63.19    8.70
   8   7  -4  119.79   17.80
   8 -15   4   64.49    8.70
 -15   7   4   70.29   10.50
  -8  15  -4   73.89   19.40
  -8  -7   4   83.59   11.70
  -7  -8  -4   69.39    6.50
  15  -7  -4   62.19   12.30
  -8  -7   4   68.29    7.20
  -7  15   4   63.09   10.10
  15  -8   4   74.89   11.20
   6   9   4   43.30    8.10
 -15   6   4   53.99    9.20
   9   6  -4   71.69   13.10
   9 -15   4   47.60    7.60
   6 -15  -4   57.69    9.10
  -6  15   4   66.39   10.40
  -9  15  -4   64.69   18.60
  15  -9   4   61.79   10.60
  15  -9   4   35.20   12.50
  -9  -6   4   44.70    8.80
  -6  -9  -4   50.09    6.30
  -9  -6   4   43.00    6.30
  15  -6  -4   57.19   12.60
  10 -15   4  146.29   11.50
 -15   5   4  147.19    9.00
   5  10   4  193.48   12.70
 -15   5   4  146.59   13.70
  10 -15   4  152.48   10.70
  10   5  -4  172.18   15.70
   5  10   4  157.08   11.30
 -10  -5   4  139.79   12.70
 -10  15  -4  135.79   20.90
  15  -5  -4  147.69   16.80
  15 -10   4  145.29   17.20
  15 -10   4  150.48   14.60
 -10  -5   4  151.68    9.80
  -5 -10  -4  153.08    9.50
  -5  15   4  149.88   14.00
  11   4  -4   21.10    9.80
  11 -15   4   15.90    5.60
   4  11   4    1.50    6.00
   4  11   4   18.70    6.80
 -15   4   4   -3.90    7.10
 -15  11  -4  -15.80    8.10
  11 -15   4   -3.00    6.00
 -15   4   4   -8.90    3.40
  15 -11   4    8.60    8.10
  -4  15   4    3.60    7.50
  15 -11   4   15.00   11.50
 -11  -4   4    1.80    7.00
  -4  15   4    1.40    5.90
 -11  -4   4    0.20    4.10
  15  -4  -4   18.60   11.60
  -4 -11  -4    1.10    4.10
 -11  15  -4   11.50   14.90
   3  12   4  254.77   15.60
   3 -15  -4  201.78   11.30
 -15  12  -4  231.98   17.10
  12 -15   4  232.88   15.10
  12 -15   4  230.58   15.10
   3  12   4  225.08   13.70
 -15   3   4  212.88   15.30
  12   3  -4  225.08   18.60
 -12  -3   4  228.08   16.20
 -12  -3   4  241.58   12.80
 -12  15  -4  218.38   22.50
  -3  15   4  252.47   17.00
  -3  15   4  230.98   13.90
  15 -12   4  234.38   17.50
  -3 -12  -4  213.78   12.10
  15  -3  -4  225.68   21.40
  15 -12   4  206.18   18.20
  13 -15   4  271.87   16.40
 -15  13  -4  257.57   19.10
   2  13   4  257.77   17.30
   2 -15  -4  245.28   12.80
  13 -15   4  243.18   16.40
  13   2  -4  283.77   21.00
   2  13   4  267.57   14.90
 -15   2   4  257.97   17.40
 -15   2   4  265.77   13.70
 -13  -2   4  243.58   14.10
  15  -2  -4  248.18   22.70
  -2  15   4  282.27   18.10
  15 -13   4  272.57   19.90
  15 -13   4  258.67   17.80
  -2 -13  -4  265.97   13.30
 -13  15  -4  237.58   22.20
  -2  15   4  272.17   15.70
 -13  -2   4  241.68   16.40
 -15   1   4   25.10    4.90
   1  14   4   36.70    9.40
  14 -15   4   21.60    8.90
  14   1  -4   28.00   11.60
 -15   1   4   30.10    9.20
   1 -15  -4   14.20    4.40
 -15  14  -4   17.20   10.40
   1  14   4   20.40    6.30
  15  -1  -4   32.50   12.80
  15 -14   4   18.00    9.00
 -14  -1   4   22.30    8.20
 -14  -1   4   17.10    5.30
  -1  15   4   34.20    8.80
 -14  15  -4   10.50   13.00
  -1 -14  -4   12.10    4.60
  15 -14   4   29.00    9.70
  -1  15   4   25.50    6.80
   0  15   4  426.36   21.30
 -15  15  -4  399.06   25.30
   0 -15  -4  428.06   19.50
 -15   0   4  405.16   22.80
  15 -15   4  384.26   30.40
   0  15   4  456.55   24.30
  15 -15   4  391.46   23.90
  15   0  -4  458.65   28.20
   0  16  -4    5.40   20.40
   0 -16   4    6.40    4.30
 -16  16   4    7.40    7.90
  16 -16  -4   -6.90    9.80
 -16   0  -4    1.10    4.40
  16   0   4    5.30    7.60
 -16   1  -4   35.20    5.90
  15 -16  -4   48.40   10.80
 -16  15   4   30.30    8.60
  15   1   4   40.90    8.40
   1  15  -4   25.10   20.80
   1 -16   4   54.19    7.10
  -1  16  -4   45.40   20.30
 -15  16   4   34.10    8.90
  16  -1   4   41.40    8.60
 -15  -1  -4   46.70    6.20
  16 -15  -4   31.80   11.00
  -1 -15   4   41.10    6.10
 -16   2  -4  122.09   11.80
   2  14  -4  109.79   25.00
 -16  14   4   94.89   13.70
   2 -16   4   97.69   11.20
  14   2   4  122.89   13.60
  16  -2   4  122.69   12.80
  16 -14  -4  100.69   18.20
 -14  -2  -4  123.39    8.70
  -2  16  -4  131.49   33.80
 -14  16   4  100.49   16.10
  13   3   4   65.49    9.70
  13 -16  -4   52.09   10.00
 -16   3  -4   46.60    6.50
   3 -16   4   46.90    6.60
   3  13  -4   44.10   24.20
 -16  13   4   47.90    9.50
  16  -3   4   64.49   12.60
 -13  16   4   55.49   10.60
  16 -13  -4   54.59   12.00
 -13  -3  -4   66.39    6.60
  -3 -13   4   55.39    6.50
  -3  16  -4   52.89   19.60
 -16  12   4   56.09    9.90
  12 -16  -4   51.69   10.50
   4 -16   4   60.39    7.40
   4  12  -4   44.00   23.10
 -16   4  -4   57.39    6.70
  12   4   4   65.39    9.30
  16 -12  -4   60.99   11.70
 -12  16   4   64.39   10.30
 -12  -4  -4   61.19    7.10
  -4 -12   4   60.79    7.10
  -4  16  -4   47.10   19.50
  16  -4   4   65.49   11.20
 -16  11   4  162.28   14.10
  11 -16  -4  175.18   14.80
   5 -16   4  152.88   10.20
   5  11  -4  119.79   27.80
  11   5   4  149.88   11.90
 -16   5  -4  162.48    9.80
  -5 -11   4  165.18   10.40
  16 -11  -4  179.68   17.10
 -11  16   4  145.39   13.50
  -5  16  -4  171.48   25.30
 -11  -5  -4  167.58   10.20
  16  -5   4  174.18   14.10
  10 -16  -4  309.27   17.60
  10   6   4  284.97   16.30
 -16  10   4  268.77   17.70
 -16   6  -4  284.27   14.10
   6  10  -4  251.57   34.50
   6 -16   4  280.17   15.00
 -10  -6  -4  288.47   14.40
 -10  16   4  287.57   18.00
  16  -6   4  322.07   19.50
  16 -10  -4  293.37   20.80
  -6 -10   4  294.67   15.00
  -6  16  -4  252.67   26.80
   9 -16  -4    9.80    7.10
 -16   9   4    8.00    7.60
   7 -16   4    4.60    4.80
 -16   7  -4    9.20    4.00
   9   7   4   15.20    6.50
  16  -9  -4   12.70   11.80
  -7  16  -4   22.40   18.10
  -9  -7  -4   10.20    4.40
  16  -7   4   13.20    8.40
  -7  -9   4    9.40    4.60
  -9  16   4    7.70    7.50
   8 -16   4  101.29    9.00
   8 -16  -4  107.39   11.00
   8   8   4  110.89    9.90
 -16   8   4  110.39   11.50
 -16   8  -4   99.89    7.40
  16  -8  -4  105.89   15.70
  16  -8   4  100.19   13.40
  -8  16  -4   97.59   19.20
  -8  -8  -4   93.29    7.90
  -8  16   4  113.59   12.80
  -8  -8   4   90.59   11.20
  -8  -8   4  103.99    8.00
   7 -16  -4  159.08   12.40
 -16   7   4  171.28   14.10
   7   9   4  195.68   12.40
   7   9   4  178.28   12.10
   9 -16   4  165.28   11.50
  16  -9   4  181.88   15.70
  16  -7  -4  183.28   17.90
  -9  16  -4  156.48   22.80
  -7  16   4  164.28   13.80
  -9  -7   4  171.18   10.50
  -9  -7   4  177.88   14.20
  -7  -9  -4  175.68   10.30
 -16   6   4   34.90    8.90
  10 -16   4   45.60    7.70
   6  10   4   46.40    8.00
   6 -16  -4   45.70    7.90
  10   6  -4   53.39   10.80
  10 -16   4   73.49   10.70
  16 -10   4   59.89   11.30
  -6  16   4   48.60    9.30
 -10  -6   4   49.90    6.80
  16 -10   4   48.50   14.10
  -6 -10  -4   48.10    6.60
 -10  -6   4   33.40    8.50
 -10  16  -4   56.49   16.90
  16  -6  -4   60.59   14.00
 -16   5   4   80.09   11.70
  11   5  -4   83.89   14.80
   5  11   4   95.19    9.50
 -16   5   4   59.89    6.90
   5  11   4  109.09   10.80
  11 -16   4   65.49    9.20
 -11  16  -4   99.59   18.90
  16 -11   4   71.29   13.70
  -5  16   4  103.29   11.50
  16  -5  -4   93.49   16.90
  16 -11   4   87.39   12.90
 -11  -5   4   81.69   11.90
 -11  -5   4   92.69    8.00
  -5 -11  -4   82.89    7.50
   4  12   4  167.68   12.70
  12 -16   4  138.19   11.90
  12   4  -4  140.89   17.70
 -16   4   4  126.69    8.80
  12 -16   4  116.69   11.20
 -16   4   4  125.89   13.00
   4  12   4  118.29   10.50
  16 -12   4  130.89   15.70
  -4 -12  -4  127.89    9.10
  16 -12   4  128.59   17.30
  -4  16   4  129.59   12.90
  16  -4  -4  158.28   20.20
 -12  16  -4  116.69   18.10
 -12  -4   4  135.59    9.60
 -12  -4   4  134.39   12.50
   3 -16  -4   14.60    3.90
  13   3  -4   25.40   11.50
   3  13   4   36.20    8.30
 -16  13  -4    4.80    8.70
   3  13   4   10.90    6.40
 -16   3   4   18.00    8.00
 -16   3   4   17.40    4.50
  13 -16   4    9.00    7.20
  -3  16   4   13.60    6.30
 -13  -3   4   12.60    7.70
 -13  -3   4   10.50    5.10
  16 -13   4   14.30   10.70
  -3 -13  -4   19.80    4.80
  16 -13   4   23.30    9.40
  16  -3  -4   23.40   13.50
 -13  16  -4   18.00   13.80
  -3  16   4   28.50    9.00
  14 -16   4  387.46   20.40
   2  14   4  330.57   20.50
   2  14   4  329.97   17.70
   2 -16  -4  307.57   15.60
 -16   2   4  321.27   16.50
 -16   2   4  331.77   19.90
  14   2  -4  320.07   23.50
  -2  16   4  320.37   17.70
 -14  -2   4  316.37   16.90
  16  -2  -4  325.17   25.70
  16 -14   4  348.97   21.90
 -14  -2   4  335.47   19.90
  -2  16   4  331.77   20.80
 -14  16  -4  268.57   24.60
   1 -16  -4  265.17   13.80
  15 -16   4  304.27   19.40
  15   1  -4  294.77   22.90
  15 -16   4  251.77   18.20
   1  15   4  304.17   19.20
 -16   1   4  261.07   18.50
  16  -1  -4  296.97   24.40
  16 -15   4  282.87   20.20
 -15  -1   4  262.47   14.80
  -1  16   4  300.57   16.90
  -1  16   4  276.37   18.10
  -1 -15  -4  246.88   13.90
 -15  16  -4  273.67   21.20
  16 -15   4  250.57   19.00
 -15  -1   4  259.97   17.20
   0  16   4    2.90    7.20
  16 -16   4    0.30    8.00
 -16   0   4    7.70    8.10
  16 -16   4   15.70   10.50
  16   0  -4    7.80   11.90
   0 -16  -4   -1.20    4.40
   0  16   4   35.00    9.60
 -16   0   4   -2.70    4.30
   0  17  -4   17.20   19.70
  17   0   4   25.30    8.60
  17 -17  -4   25.00   12.40
   0 -17   4   26.10    5.50
 -17  17   4   23.30    8.70
 -17   0  -4   18.70    5.00
  16   1   4   31.70    8.10
 -17   1  -4   29.60    5.10
   1  16  -4   28.40   19.90
 -17  16   4   20.70    8.50
  16 -17  -4   34.60   10.80
   1 -17   4   28.30    5.40
  -1  17  -4   25.40   19.70
  -1 -16   4   28.70    5.50
 -16  -1  -4   37.60    6.10
 -16  17   4   26.00    8.70
  17 -16  -4   28.30   11.50
  17  -1   4   27.40    8.40
 -17  15   4   20.10    8.40
  15 -17  -4   20.50   10.50
  15   2   4   26.00    8.30
   2  15  -4   21.40   21.50
   2 -17   4   31.10    5.60
 -17   2  -4   22.40    4.70
 -15  17   4   19.00    8.40
 -15  -2  -4   26.50    5.50
  17  -2   4   19.60    7.80
  -2  17  -4   14.90   20.10
  -2 -15   4   21.70    5.50
  17 -15  -4   20.50   11.30
  14 -17  -4   72.69   13.00
 -17   3  -4   66.59    6.60
   3  14  -4   78.59   22.90
 -17  14   4   68.99   12.10
  14   3   4   73.39   10.20
   3 -17   4   61.09    7.60
 -14  17   4   63.99   10.50
  17 -14  -4   61.59   14.10
  -3  17  -4   68.69   20.10
  -3 -14   4   73.09    7.60
  17  -3   4   66.59   11.30
 -14  -3  -4   69.09    6.90
   4 -17   4  139.29    9.60
  13 -17  -4  122.79   20.40
 -17   4  -4  151.78    9.10
  13   4   4  152.88   12.10
   4  13  -4  118.19   27.00
 -17  13   4  114.99   14.10
  17  -4   4  139.59   13.70
  -4  17  -4  138.49   24.50
 -13  -4  -4  155.48   10.00
  17 -13  -4  161.48   17.20
 -13  17   4  159.98   14.30
  -4 -13   4  118.99   12.00
   5 -17   4  212.68   13.70
 -17   5  -4  216.08   12.10
  12 -17  -4  235.08   18.80
 -17  12   4  222.18   15.80
 -12  17   4  215.38   16.00
 -12  -5  -4  233.38   12.30
  -5 -12   4  251.17   13.10
  -5  17  -4  251.27   30.60
  11 -17  -4    9.90    8.10
 -17  11   4    6.50    7.60
   6  11  -4   10.00   22.50
  11   6   4    5.10    6.30
  -6 -11   4    7.60    4.70
  17  -6   4    8.00    7.60
  -6  17  -4    8.30   17.30
 -11  -6  -4    8.80    4.50
  17 -11  -4    2.10   12.30
 -17   7  -4  267.37   14.20
  10   7   4  255.87   15.50
   7  10  -4  261.97   34.60
  10 -17  -4  260.07   17.00
   7 -17   4  245.18   14.40
 -17  10   4  264.87   17.30
  -7 -10   4  256.87   13.70
  -7  17  -4  269.97   28.40
  17  -7   4  274.77   17.80
 -10  -7  -4  287.67   14.00
 -10  17   4  223.58   16.90
  17 -10  -4  267.17   20.60
   9   8   4  220.38   14.00
   9 -17  -4  236.38   15.10
 -17   9   4  220.58   15.30
   8 -17   4  220.98   13.00
 -17   8  -4  218.98   12.00
  -8  17  -4  212.58   24.80
  17  -8   4  242.48   16.70
  -8  -9   4  226.58   12.50
  17  -9  -4  224.58   20.10
  -9  -8  -4  229.88   12.40
  -9  17   4  231.28   16.70
 -17   9  -4    8.10    4.70
   9 -17   4   -0.70    5.00
 -17   8   4    2.40    7.10
   8   9   4   10.00    5.90
   8 -17  -4    2.50    7.50
  -8  17   4    6.30    7.60
  17  -9   4   13.60    8.20
  -9  -8   4    7.40    4.90
  -8  -9  -4   12.90    4.80
  17  -8  -4    5.20   11.50
  -9  17  -4   20.30   16.70
  10 -17   4   69.89    8.50
   7 -17  -4   74.99   11.30
   7  10   4   72.19    9.10
 -17   7   4   71.29   11.80
  17 -10   4   93.79   14.60
 -10  -7   4   66.99   11.70
  17  -7  -4   90.89   17.20
 -10  -7   4   79.59    7.80
  -7  17   4   82.99   11.50
 -10  17  -4   73.59   18.90
  -7 -10  -4   78.89    7.80
   6 -17  -4  179.08   12.90
 -17   6   4  162.68   13.70
   6  11   4  201.08   14.10
  11 -17   4  185.58   14.30
   6  11   4  190.98   12.60
 -11  -6   4  186.78   11.10
 -11  17  -4  199.58   23.30
  17  -6  -4  175.28   19.10
 -11  -6   4  181.28   14.40
  -6 -11  -4  179.68   10.90
  -6  17   4  192.28   14.80
  17 -11   4  191.08   17.60
  12   5  -4   75.09   13.20
 -17   5   4   81.09   11.80
 -17   5   4   85.29    7.10
   5  12   4  115.59   11.50
   5 -17  -4   67.29    9.80
   5  12   4   84.89   10.60
 -12  17  -4   70.29   16.90
  17  -5  -4   60.09   14.20
  17 -12   4   86.49   13.90
  -5 -12  -4   75.49    7.80
 -12  -5   4   74.29    8.10
  17 -12   4   90.89   24.00
  -5  17   4   82.49   12.10
 -12  -5   4   63.89   11.80
  13   4  -4  155.38   16.60
   4  13   4  126.09   10.90
 -17   4   4  111.79   13.30
   4  13   4  159.88   13.80
  13 -17   4  105.79   12.50
 -17   4   4  127.69    9.10
  17  -4  -4  121.39   18.40
  -4 -13  -4  121.49    8.80
  17 -13   4   98.79   16.80
  -4  17   4  129.89   13.40
  17 -13   4  152.28   17.20
 -13  -4   4  124.29   10.00
 -13  17  -4  118.89   19.90
 -13  -4   4  115.99   13.70
   3  14   4  165.28   12.70
  14   3  -4  173.48   20.20
 -17   3   4  148.99   13.60
   3  14   4  155.08   14.80
  14 -17   4  152.58   13.20
 -17   3   4  156.88   10.20
  -3 -14  -4  144.09    9.80
 -14  17  -4  128.89   20.70
 -14  -3   4  163.88   14.80
  -3  17   4  172.68   15.70
  -3  17   4  148.49   13.30
  17 -14   4  179.08   17.90
  17 -14   4  133.49   19.10
 -14  -3   4  145.49   10.90
  17  -3  -4  185.38   21.80
 -17   2   4    5.50    8.90
 -17  15  -4   13.60    9.90
  15 -17   4    4.90    7.90
   2 -17  -4    4.10    5.00
   2  15   4    4.20    6.30
   2  15   4   19.50    9.20
 -17   2   4   10.10    4.60
  15 -17   4   24.90    8.60
  15   2  -4   11.80   12.80
 -15  17  -4   14.20   13.10
  -2  17   4   17.10    6.80
  -2 -15  -4   -2.30    4.60
  17 -15   4   29.30    9.90
  -2  17   4   14.90    8.90
  17  -2  -4    9.40   13.90
 -15  -2   4    9.20    5.30
 -15  -2   4    4.10    8.80
  17 -15   4   13.70   10.70
 -17   1   4  176.38   11.60
   1  16   4  232.28   17.20
 -17  16  -4  192.28   17.00
  16 -17   4  179.68   16.70
 -17   1   4  191.68   15.80
  16   1  -4  210.58   22.80
   1 -17  -4  184.38   11.00
  16 -17   4  196.38   17.90
  17  -1  -4  177.38   19.50
 -16  -1   4  192.38   16.00
 -16  17  -4  138.79   18.90
  -1  17   4  188.48   17.10
  -1 -16  -4  166.68   11.20
 -16  -1   4  166.88   11.50
  17 -16   4  178.28   18.10
 -17   0   4  117.49   18.40
 -17  17  -4  130.39   15.40
  17 -17   4  169.08   18.40
   0  17   4  126.59   14.10
 -17   0   4  104.49    9.40
   0 -17  -4  128.59    9.30
  17   0  -4  125.39   20.40
   0  17   4  126.09   11.30
  17 -17   4  117.99   15.50
 -18   0  -4   16.00    5.00
   0 -18   4   15.90    5.30
   0  18  -4    6.10   17.70
 -18  18   4   12.80    8.60
  18   0   4   16.50    8.40
  18 -18  -4   21.00   12.00
   1 -18   4    0.10    4.60
   1  17  -4   -2.00   18.70
  17   1   4    4.00    8.00
 -18  17   4   -0.20    7.30
 -18   1  -4    5.40    4.60
  17 -18  -4   -3.80   10.50
  -1 -17   4   -1.60    4.40
  18  -1   4    4.80    7.50
  18 -17  -4    0.20   11.30
 -17  -1  -4   -2.40    4.40
 -17  18   4   -1.90    7.80
  -1  18  -4   10.00   19.10
   2 -18   4   15.80    5.10
 -18  16   4   16.20    8.10
  16 -18  -4   15.40   11.30
  16   2   4   24.60    7.80
 -18   2  -4   21.80    5.10
   2  16  -4   17.40   19.30
 -16  -2  -4   22.00    5.10
  -2 -16   4   16.50    5.30
  -2  18  -4   19.90   18.30
  18 -16  -4    5.50   11.30
 -16  18   4   24.70    9.20
  18  -2   4   11.30    7.70
 -18  15   4  127.69   14.10
   3 -18   4  129.59    9.90
  15   3   4  129.99   12.00
 -18   3  -4  135.19    9.30
   3  15  -4  112.79   25.00
  15 -18  -4  127.59   15.50
 -15  -3  -4  136.29    9.70
  18 -15  -4  154.28   19.50
  18  -3   4  138.49   13.40
  -3 -15   4  131.39    9.60
  -3  18  -4  121.69   23.40
 -15  18   4  129.69   14.00
  14   4   4  103.39   12.30
   4  14  -4   89.19   23.30
 -18  14   4   82.69   11.40
 -18   4  -4   89.19    7.80
   4 -18   4   81.19    7.80
  14 -18  -4   84.69   13.50
 -14  -4  -4   96.69    7.70
  18 -14  -4   96.69   16.20
  18  -4   4  100.49   12.80
  -4 -14   4   85.49    8.20
 -14  18   4   86.89   11.60
  -4  18  -4   77.49   19.80
  13 -18  -4   28.70    9.50
  13   5   4   36.00    7.70
 -18  13   4   34.60    9.50
   5  13  -4   42.80   22.20
   5 -18   4   42.60    6.70
 -18   5  -4   36.40    6.40
  -5 -13   4   42.40    6.60
 -13  -5  -4   45.00    7.20
 -13  18   4   37.60    9.30
  18 -13  -4   41.70   11.90
  18  -5   4   33.90   10.10
  -5  18  -4   21.10   17.70
   6  12  -4  217.38   31.70
  12 -18  -4  263.37   18.30
  12   6   4  259.97   15.50
   6 -18   4  223.68   13.70
 -18   6  -4  226.18   12.50
  -6  18  -4  240.18   26.00
  18  -6   4  253.17   17.60
  18 -12  -4  242.28   22.50
  -6 -12   4  251.67   13.30
 -12  18   4  249.58   17.60
   7 -18   4  337.87   17.40
 -18  11   4  303.07   19.30
  11 -18  -4  349.17   26.80
   7  11  -4  289.47   35.30
 -18   7  -4  329.37   16.00
  11   7   4  333.47   18.40
 -11  18   4  318.97   19.80
  18  -7   4  342.77   20.70
 -11  -7  -4  360.16   16.70
  -7  18  -4  226.18   42.80
  18 -11  -4  355.26   23.90
   8 -18   4    1.30    4.90
   8  10  -4   15.60   26.00
  10 -18  -4    9.70   14.50
 -18  10   4   -0.60    7.20
 -18   8  -4    1.30    3.90
 -10  18   4   15.00    8.70
  -8  18  -4    8.00   16.90
  18 -10  -4    7.50   13.50
 -10  -8  -4    3.70    4.50
  -8 -10   4    0.80    5.00
 -18   9   4  187.98   15.40
 -18   9  -4  194.88   11.20
   9 -18  -4  208.68   15.50
   9 -18   4  182.18   12.30
  -9  18   4  181.08   14.80
  -9  -9   4  201.98   12.10
  -9  -9  -4  201.98   11.70
  -9  18  -4  199.68   25.30
  18  -9   4  197.28   17.50
   8  10   4  176.18   14.30
 -18  10  -4  181.58   10.30
  10 -18   4  171.08   12.10
   8 -18  -4  179.98   14.00
 -18   8   4  162.28   14.80
  -8 -10  -4  184.58   11.10
 -10  18  -4  183.78   22.20
  -8  18   4  167.58   14.50
  18  -8  -4  157.88   22.40
  18 -10   4  198.68   16.80
 -10  -8   4  185.68   11.10
 -18   7   4   39.70    9.30
   7 -18  -4   48.80    8.70
   7  11   4   45.70    8.40
  11 -18   4   46.60    8.40
 -11  -7   4   44.40   10.80
 -11  -7   4   52.99    7.60
 -11  18  -4   32.60   16.20
  18 -11   4   56.89   12.70
  18  -7  -4   44.00   14.20
  -7 -11  -4   59.59    7.10
  -7  18   4   47.80   10.00
 -18   6   4   42.10    9.90
   6  12   4   47.20    8.80
   6 -18  -4   41.00    8.10
  12 -18   4   34.50    7.30
 -12  -6   4   29.80    9.30
 -12  18  -4   23.10   15.70
  -6 -12  -4   42.20    6.10
  -6  18   4   42.20   11.60
  18 -12   4   44.80   14.80
  18  -6  -4   42.70   14.10
  18 -12   4   46.70   12.00
 -12  -6   4   41.40    6.60
  13 -18   4   83.39   10.00
   5  13   4   82.09   11.00
 -18   5   4   81.19   11.50
 -18   5   4   73.79    8.20
  13   5  -4  129.49   16.20
   5 -18  -4   98.39   10.80
 -13  -5   4   80.59    8.80
  18 -13   4  106.69   14.50
  18  -5  -4   99.79   17.20
  -5  18   4   45.60   17.40
 -13  -5   4   83.19   13.50
 -13  18  -4   68.89   17.60
  18 -13   4   72.59   14.90
  -5 -13  -4   90.59    7.90
  14 -18   4   28.70    8.30
   4  14   4   42.80   10.00
 -18   4   4   34.40    6.00
 -18   4   4   41.50   10.30
  14   4  -4   31.90   13.20
  -4 -14  -4   39.40    6.80
  18 -14   4   53.79   12.40
  -4  18   4   25.30   16.30
  18  -4  -4   35.30   14.20
  18 -14   4   45.40   12.90
 -14  -4   4   30.30    6.70
 -14  18  -4   44.40   14.90
   3  15   4   77.19   13.70
  15 -18   4   78.59   12.80
  15   3  -4   92.89   15.30
   3  15   4   69.19   11.00
 -18   3   4   48.60    7.80
 -18   3   4   98.79   13.50
  18  -3  -4   95.09   18.40
 -15  18  -4  112.69   17.80
  -3 -15  -4   71.39    8.00
 -15  -3   4   77.29    8.60
 -15  -3   4   75.79   17.10
  18 -15   4   85.39   15.40
  -3  18   4   78.39   16.70
 -18   2   4   52.69    7.70
   2  16   4   74.19   11.00
   2  16   4   81.59   12.70
  16 -18   4   87.49   13.30
  16   2  -4  139.99   20.10
  16 -18   4  116.79   16.30
  18 -16   4   79.99   13.90
  18  -2  -4   73.49   15.10
  -2 -16  -4   81.79    8.10
  -2  18   4   50.79   12.70
 -16  -2   4   73.79    8.30
 -16  -2   4   70.49   12.50
 -16  18  -4   60.29   14.20
  -2  18   4   71.09   11.80
 -18   1   4   -7.80    4.60
  17 -18   4   -2.60    8.40
   1  17   4  -17.30    9.10
  17 -18   4   20.10   12.20
 -18   1   4  -12.50    8.00
  17   1  -4   12.30   12.80
   1  17   4   -7.00    6.20
  18  -1  -4    1.10   13.40
  -1  18   4  -20.00    8.60
 -17  -1   4   -0.70    4.50
  18 -17   4   -8.10    9.30
  -1  18   4   -2.70    6.90
 -17  18  -4    5.10   10.50
  -1 -17  -4   -7.90    4.50
 -17  -1   4   -5.10    8.60
   0  18   4   29.30   11.80
   0  18   4   55.29   10.60
 -18   0   4   23.80    5.80
 -18   0   4   54.69   10.40
  18 -18   4   33.30   10.60
 -18  18  -4   55.29   11.60
   0 -18  -4   38.00    6.10
  18   0  -4   59.59   16.40
   0 -19   4   -2.40    4.40
   0  19  -4    6.60   18.60
  19 -19  -4    6.00   12.10
 -19   0  -4    1.50    4.60
  19   0   4    8.30    8.30
 -19  19   4    6.30    8.70
 -19  18   4   12.30    8.50
   1  18  -4   21.50   18.60
  18   1   4   18.60    8.90
 -19   1  -4   26.10    5.50
   1 -19   4   16.80    5.20
  18 -19  -4   20.20   13.10
  19 -18  -4   13.80   11.80
 -18  19   4   29.00    9.10
  -1 -18   4   14.50    4.90
 -18  -1  -4   17.20    5.20
  19  -1   4   15.00    8.90
  -1  19  -4    4.90   17.30
  17   2   4   30.80    8.10
   2 -19   4   35.40    6.00
  17 -19  -4   25.70   11.80
   2  17  -4   33.80   20.40
 -19   2  -4   37.50    7.00
 -19  17   4   35.00    9.10
  -2  19  -4   34.40   17.90
  -2 -17   4   29.00    5.60
  19  -2   4   41.50    9.00
 -17  19   4   35.10    9.40
 -17  -2  -4   43.70    6.70
  19 -17  -4   24.10   12.00
   3  16  -4   32.30   19.80
  16 -19  -4   54.99   11.70
   3 -19   4   53.19    7.60
 -19   3  -4   49.90    6.10
  16   3   4   42.20    8.40
 -19  16   4   44.10   10.20
 -16  -3  -4   54.09    7.20
  -3  19  -4   43.40   19.40
 -16  19   4   52.89   10.00
  -3 -16   4   46.70    6.60
  19 -16  -4   54.19   14.20
  19  -3   4   45.80    9.20
  15 -19  -4   13.80   10.80
 -19  15   4   23.40    8.90
   4 -19   4   27.00    5.70
  15   4   4   33.90    8.10
   4  15  -4   24.40   20.90
 -19   4  -4   33.20    6.10
 -15  19   4   18.40    8.10
  19  -4   4   25.40    9.10
  -4  19  -4   34.50   17.70
  19 -15  -4   14.70   12.00
  -4 -15   4   18.10    5.00
 -15  -4  -4   26.70    5.70
   5  14  -4  165.78   28.20
  14   5   4  199.98   13.70
  14 -19  -4  197.08   16.40
   5 -19   4  178.38   11.40
 -19  14   4  191.38   14.80
 -19   5  -4  179.68   10.50
  19  -5   4  181.18   15.40
  -5 -14   4  177.48   11.10
  -5  19  -4  164.48   24.90
  19 -14  -4  196.68   19.60
 -14  19   4  171.68   15.60
 -14  -5  -4  184.38   10.90
   6 -19   4  205.28   12.80
   6  13  -4  204.88   31.60
 -19   6  -4  225.38   12.30
 -19  13   4  221.48   16.50
  13   6   4  229.78   14.90
  13 -19  -4  236.58   18.50
 -13  19   4  215.18   16.10
  19 -13  -4  230.38   20.40
  -6  19  -4  232.28   26.40
  -6 -13   4  240.78   13.10
  19  -6   4  241.68   17.20
 -13  -6  -4  225.88   12.50
   7 -19   4    9.10    5.10
 -19   7  -4    6.60    4.30
 -19  12   4    3.60    8.10
   7  12  -4    0.80   20.70
  12   7   4    8.90    6.60
  12 -19  -4   12.40    9.10
 -12  19   4    3.50    7.70
  19  -7   4    7.70    8.50
 -12  -7  -4    9.00    4.80
  -7  19  -4   17.80   16.90
  19 -12  -4    3.60   13.60
  -7 -12   4    2.50    4.70
   8  11  -4  283.17   37.60
   8 -19   4  314.37   16.70
  11   8   4  324.37   17.90
  11 -19  -4  324.87   19.30
 -19   8  -4  286.47   15.00
 -19  11   4  297.37   19.30
  -8  19  -4  304.87   29.30
  19 -11  -4  317.87   23.90
 -11  19   4  307.87   19.10
 -11  -8  -4  299.47   15.60
  -8 -11   4  307.17   15.90
  19  -8   4  324.77   20.30
   9  10  -4  205.38   34.50
 -19   9  -4  245.58   12.90
  10 -19  -4  260.97   18.20
 -19  10   4  211.08   21.50
  10   9   4  256.67   16.00
  -9 -10   4  234.88   13.30
 -10  -9  -4  193.58   17.70
 -10  19   4  249.28   17.70
  19  -9   4  251.27   18.20
  19 -10  -4  250.37   24.30
  -9  19  -4  235.68   24.40
 -19  10  -4   33.40    5.60
  10   9  -4   33.90   26.10
   9  10   4   39.60    8.40
   9 -19  -4   32.70    9.10
  10 -19   4   21.80    6.40
 -10  -9   4   33.70    6.20
  -9 -10  -4   37.90    6.10
  19  -9  -4   32.20   13.70
  19 -10   4   36.10   10.60
  -9  19   4   21.40    8.50
 -10  19  -4   42.60   21.30
 -19  11  -4   31.10    5.60
 -19   8   4   15.90   14.70
   8 -19  -4   32.00   10.00
   8  11   4   32.40    7.80
  11 -19   4   25.70    6.60
 -11  -8   4   21.20    6.30
 -11  19  -4   37.00   18.70
  19 -11   4   25.20   10.80
  -8  19   4   28.50    8.60
  19  -8  -4   23.30   14.00
  -8 -11  -4   32.90    6.20
  12 -19   4   34.60    7.50
   7  12   4   60.69   10.30
   7 -19  -4   32.60    8.90
  19  -7  -4   33.20   14.70
  -7 -12  -4   40.80    7.60
  19 -12   4   38.50   14.50
  -7  19   4   46.20    9.70
 -12  19  -4   56.29   17.00
   6  13   4   35.40    7.40
   6 -19  -4   32.00    8.50
  13 -19   4   33.40    7.40
   6  13   4   41.50    9.00
  -6 -13  -4   37.10    5.80
  -6  19   4   42.30    9.80
  19  -6  -4   35.60   15.60
 -13  -6   4   35.30   10.20
 -13  -6   4   34.70    7.90
 -13  19  -4   43.60   16.90
  19 -13   4   36.30   14.10
   5 -19  -4   69.59   11.40
 -19   5   4   35.10   14.30
   5  14   4   13.20    9.70
 -19   5   4   26.60    6.00
   5  14   4   34.90    7.40
  14   5  -4   47.40   14.00
  14 -19   4   30.20    8.00
  19 -14   4   20.00   13.00
 -14  -5   4   30.70    6.70
  19 -14   4   64.69   19.30
  -5 -14  -4   28.20    5.60
  19  -5  -4   42.80   16.40
 -14  -5   4   34.20   10.40
  -5  19   4   37.70   10.30
 -14  19  -4   37.40   15.10
  15 -19   4   55.29   10.20
   4  15   4   44.60   11.20
   4 -19  -4   56.59    9.80
 -19   4   4   35.40    6.40
   4  15   4   59.09    8.90
 -19   4   4   41.10    9.90
  19 -15   4   67.29   13.40
  -4 -15  -4   30.40    5.90
  19 -15   4   44.20   13.20
 -15  19  -4   28.90   12.90
 -15  -4   4   47.50   10.60
  19  -4  -4   41.10   16.10
  -4  19   4   47.30   11.00
 -15  -4   4   41.20    7.20
   3  16   4    3.00    6.40
 -19   3   4   -0.60    4.80
 -19   3   4   -5.80    9.60
  16   3  -4   15.30   11.60
   3  16   4   -6.70    9.20
  16 -19   4    7.30    8.10
  19  -3  -4   10.30   14.70
  19 -16   4    3.40   11.40
 -16  -3   4    0.30    5.10
  19 -16   4   18.50   11.30
 -16  -3   4   10.80    9.00
  -3  19   4   -6.40    8.40
  -3 -16  -4    7.50    4.80
 -16  19  -4  -18.50   12.30
   2  17   4   23.60    8.10
  17 -19   4   10.80    8.80
 -19   2   4   20.00    5.80
  17   2  -4    5.30   13.80
 -19   2   4   17.20    9.00
   2  17   4    7.30   10.30
  -2  19   4    3.50    9.70
  -2  19   4    8.30    7.50
 -17  -2   4   13.50    5.70
  19  -2  -4    1.80   15.30
 -17  -2   4   18.60    9.20
 -17  19  -4   21.40   11.70
  19 -17   4   28.90   12.40
  -2 -17  -4   16.20    5.80
  18   1  -4   -9.20   14.10
  18 -19   4    3.50    8.90
   1  18   4  -18.20   10.10
 -19   1   4   -7.40    4.90
 -19   1   4    1.70    9.30
  18 -19   4   38.00   14.20
   1  18   4   -0.40    6.40
  -1 -18  -4    0.80    4.80
 -18  19  -4   23.10   10.90
  19 -18   4    0.00    9.70
  19  -1  -4  -11.90   25.70
  -1  19   4    6.20    6.80
 -18  -1   4  -10.10    4.80
 -18  -1   4    3.10    9.30
 -19   0   4    1.20    6.80
  19 -19   4   29.50   11.30
   0 -19  -4   24.20    6.20
   0  19   4   29.40    8.60
 -19   0   4   19.00    9.00
   0  19   4    7.60   10.40
 -20   0  -4   17.70    5.40
   0  20  -4   21.00   18.80
  20   0   4   11.20    8.80
 -20  20   4   11.80    8.80
   0 -20   4   18.00    5.60
  20 -20  -4    3.50   12.90
 -20   1  -4    6.70    5.10
 -20  19   4   11.30    8.40
  19   1   4   13.90    8.00
  19 -20  -4   -7.80   11.90
   1 -20   4    3.80    4.60
   1  19  -4   16.10   18.20
 -19  20   4    2.30    7.90
 -19  -1  -4    5.70    4.80
  20 -19  -4  -20.50   13.50
  20  -1   4    2.90    7.90
  -1 -19   4    4.80    4.90
  -1  20  -4   13.60   18.00
 -20   2  -4   15.30    5.10
   2  18  -4    5.90   17.90
   2 -20   4    4.30    5.00
 -20  18   4    5.50    8.40
  18 -20  -4    6.00   11.80
  18   2   4    6.20    7.30
  -2 -18   4    7.80    5.00
 -18  -2  -4    6.20    4.80
 -18  20   4    3.00    7.90
  -2  20  -4    0.80   17.50
  20 -18  -4   -8.90   12.60
  20  -2   4    6.50    8.10
 -20  17   4    7.60    9.30
  17 -20  -4   -2.90   10.90
  17   3   4   14.80    7.40
   3 -20   4   11.80    5.30
   3  17  -4   13.60   19.70
 -20   3  -4   14.80    5.00
  20 -17  -4    6.60   13.50
  -3 -17   4   11.20    5.20
  -3  20  -4    0.80   17.90
 -17  20   4   17.10    8.40
 -17  -3  -4    8.50    5.00
  20  -3   4    8.80    7.70
   4  16  -4  112.69   24.40
   4 -20   4  107.29    9.40
  16 -20  -4  124.89   15.60
 -20  16   4  119.29   13.50
 -20   4  -4  117.49    8.80
  16   4   4  116.99   12.30
  -4 -16   4  112.59    9.20
  20  -4   4  118.79   13.50
 -16  -4  -4  121.39    9.40
 -16  20   4  126.99   13.50
  -4  20  -4   84.99   19.90
  20 -16  -4  112.19   17.40
   5  15  -4   60.49   22.70
  15 -20  -4  101.49   15.20
 -20  15   4  109.09   12.50
   5 -20   4  106.49    9.30
  15   5   4  116.69   11.40
 -20   5  -4  107.89    8.60
  20  -5   4  114.79   13.60
  -5 -15   4  107.69    9.00
 -15  20   4  108.59   12.40
  20 -15  -4   96.89   17.80
  -5  20  -4  119.59   22.00
 -15  -5  -4  120.49    9.40
  14 -20  -4   28.00   10.50
 -20   6  -4   11.60    4.50
   6 -20   4   11.40    5.00
 -20  14   4   13.30    8.70
  14   6   4   14.80    6.90
   6  14  -4    6.20   20.20
 -14  -6  -4   15.80    5.50
  20  -6   4   34.30   10.50
  -6 -14   4   15.80    4.90
  20 -14  -4   15.70   12.80
  -6  20  -4   14.40   16.20
 -14  20   4   17.70    8.30
   7  13  -4  215.58   34.10
 -20  13   4  195.58   15.00
  13   7   4  208.68   15.10
 -20   7  -4  202.88   11.60
  13 -20  -4  226.08   18.10
   7 -20   4  188.58   12.70
 -13  20   4  227.18   16.70
  20 -13  -4  210.98   20.70
  20  -7   4  190.68   16.40
  -7 -13   4  200.58   11.80
  -7  20  -4  189.58   23.60
 -13  -7  -4  199.88   11.70
   8 -20   4  236.58   14.20
  12 -20  -4  270.67   17.90
   8  12  -4  262.97   35.30
 -20  12   4  236.78   16.60
  12   8   4  270.77   16.00
 -20   8  -4  268.97   13.40
 -12  -8  -4  248.68   13.60
  -8 -12   4  251.27   14.10
  -8  20  -4  241.48   24.40
 -12  20   4  246.38   17.20
  20  -8   4  248.48   18.30
  20 -12  -4  262.27   24.60
 -20   9  -4   16.90    4.50
 -20  11   4   23.80    9.10
   9  11  -4   22.20   22.60
   9 -20   4   24.00    6.20
  11 -20  -4   26.80   10.50
  11   9   4   17.50    6.70
 -11  -9  -4   20.70    5.70
  20  -9   4   10.50    8.90
  20 -11  -4    8.30   13.10
  -9  20  -4    4.10   17.30
  -9 -11   4   19.10    5.40
 -11  20   4   28.10    8.70
  10  10   4  145.79   12.90
  10 -20   4  134.69   10.70
 -20  10   4  130.89   13.40
 -20  10  -4  148.29    9.50
  10 -20  -4  127.19   14.10
  10  10  -4  124.49   28.80
  20 -10  -4  140.29   22.30
 -10  20  -4  123.89   20.70
 -10  20   4  139.39   14.20
 -10 -10  -4  149.69   10.30
 -10 -10   4  132.89    9.90
  20 -10   4  143.49   16.20
 -20  11  -4   57.09    6.40
 -20   9   4   41.90   10.00
   9  11   4   73.99   10.90
   9 -20  -4   48.00   10.20
  11   9  -4   89.69   27.10
  11 -20   4   60.39    8.50
 -11  -9   4   63.59    7.80
  -9  20   4   62.89   10.60
  -9 -11  -4   62.99    7.80
  20 -11   4   61.69   12.60
 -11  20  -4   65.79   18.20
  20  -9  -4   60.79   15.00
 -20   8   4   27.60    9.10
  12 -20   4   19.30    6.80
   8 -20  -4   38.10    9.90
   8  12   4   31.40    7.80
 -20  12  -4   23.60    4.90
  20 -12   4   24.40   12.40
  20  -8  -4    6.10   13.70
  -8 -12  -4   12.40    7.60
 -12  -8   4   22.30    5.70
 -12  20  -4   30.60   17.00
  -8  20   4   29.60    9.60
  13 -20   4   -3.00    5.80
   7 -20  -4   -4.60    8.60
   7  13   4    8.30    7.50
 -20   7   4    9.00    8.70
  -7 -13  -4    9.70    7.20
  -7  20   4    5.50    8.90
 -13  -7   4    2.40    5.00
  20 -13   4   28.60   11.20
 -13  20  -4    4.40   15.30
  20  -7  -4    2.50   13.50
  14 -20   4    5.80    6.90
   6  14   4    3.00    8.60
 -20   6   4   -2.40    8.00
   6  14   4    1.90    6.50
   6 -20  -4    2.80    7.80
 -14  -6   4   -2.80    8.50
  -6 -14  -4   -2.30    4.70
  -6  20   4  -12.00    7.90
 -14  20  -4    1.00   15.10
 -14  -6   4   -5.60    5.30
  20 -14   4    9.40   12.70
  20  -6  -4   -7.90   15.10
 -20   5   4   10.80    9.40
   5  15   4   -1.30    9.80
   5 -20  -4   22.50    8.60
   5  15   4   11.50    7.00
  15 -20   4   26.20    8.00
 -15  -5   4   -7.90    5.70
  -5  20   4    8.50    8.40
  20 -15   4   15.40   12.60
  -5 -15  -4   15.80    5.70
  20  -5  -4    7.10   14.80
 -15  20  -4   21.30   15.20
 -15  -5   4   12.70    8.70
  20 -15   4   31.40   12.30
 -20   4   4   14.00    9.20
 -20   4   4    2.60    5.30
   4  16   4   19.20   10.00
   4  16   4   27.80    8.30
  16 -20   4   22.90    8.60
   4 -20  -4   28.70    9.70
  -4 -16  -4   10.30    5.20
  20 -16   4   21.00   12.90
 -16  -4   4    0.20    5.30
 -16  -4   4   13.50    9.90
  20  -4  -4   21.20   15.10
  -4  20   4    4.30    8.90
  20 -16   4   38.90   13.30
 -16  20  -4  -11.90   13.60
  17   3  -4   41.70   14.60
   3  17   4    2.70    7.20
 -20   3   4   -3.60    5.30
  17 -20   4    2.90    7.80
   3  17   4   -0.90   10.20
 -20   3   4   -4.10    8.90
  -3  20   4   -2.10    8.70
  20  -3  -4   11.70   13.60
 -17  20  -4   -1.00   11.60
  20 -17   4    2.00   11.50
  -3 -17  -4   -1.10    5.50
 -17  -3   4    8.90    9.30
  18 -20   4   44.40   15.10
 -20   2   4   11.50    9.00
 -20   2   4   -0.40    5.50
  18 -20   4    1.00    8.30
   2  18   4   13.90   11.00
   2  18   4    2.30    7.60
  -2 -18  -4    5.80    5.40
  20 -18   4   -2.20   11.70
 -18  -2   4    1.00    8.70
  20  -2  -4    2.50   14.20
  -2  20   4  -10.60    9.40
  20 -18   4   44.50   14.50
 -18  20  -4   25.90   11.50
 -18  -2   4    1.40    5.20
 -20   1   4   30.40   10.30
  19 -20   4   13.30    9.60
  19 -20   4   62.69   16.10
  19   1  -4   34.30   25.30
   1  19   4   27.80   11.40
   1  19   4    8.30    8.00
  -1  20   4   -2.30    9.60
  -1 -19  -4   -7.90    6.00
  20 -19   4   19.20   12.10
 -19  -1   4   -8.40    5.30
  20  -1  -4    6.70   15.00
 -19  -1   4   10.60   10.20
  -1  20   4   -0.10    7.80
  20   0  -4   23.90   15.10
   0  20   4  -10.40    8.10
  20 -20   4   -6.90   10.00
   0  20   4   15.00   11.00
 -20   0   4   -6.30    5.30
 -20   0   4   -5.80    9.50
  19   2   4   15.20    8.90
 -21  19   4    8.40    8.30
   2  19  -4   14.60   18.70
  19 -21  -4    4.10   13.90
   2 -21   4    2.40    4.90
 -21   2  -4   11.40    5.00
 -19  21   4   25.20    9.50
  21 -19  -4   12.00   13.60
  -2  21  -4   14.40   16.90
  -2 -19   4    7.00    4.70
  21  -2   4   11.70    9.30
 -19  -2  -4   11.00    5.40
 -21  18   4   34.20   10.20
   3 -21   4   31.20    6.10
  18 -21  -4   18.20   13.20
   3  18  -4   22.40   19.10
  18   3   4   33.10    8.40
 -21   3  -4   26.70    5.30
  -3  21  -4   35.80   18.50
 -18  21   4   37.70    9.80
  21  -3   4   32.10    9.20
  21 -18  -4   21.80   14.80
  -3 -18   4   17.40    5.40
 -18  -3  -4   38.10    6.30
   4 -21   4   66.69    8.10
  17   4   4   68.59   11.40
 -21   4  -4   74.69    7.80
   4  17  -4   75.29   21.70
 -21  17   4   72.09   12.30
  17 -21  -4   49.20   13.20
  -4  21  -4   63.69   18.10
  21 -17  -4   45.00   14.10
 -17  -4  -4   68.39    7.80
  -4 -17   4   72.29    7.30
 -17  21   4   67.39   11.10
  21  -4   4   66.89   11.70
 -21  16   4   11.80    8.60
  16 -21  -4    4.00   10.40
   5 -21   4   10.60    5.30
   5  16  -4   11.10   19.80
 -21   5  -4    5.50    4.40
  16   5   4   10.80    7.30
 -16  -5  -4    8.50    5.20
  -5  21  -4   14.00   16.40
  21  -5   4   10.30    8.80
  -5 -16   4    4.60    4.90
 -16  21   4   12.70    8.60
  21 -16  -4  -14.70   12.50
  15   6   4  124.09   12.00
  15 -21  -4  104.59   15.90
   6 -21   4  114.99    9.40
 -21  15   4  137.89   14.00
   6  15  -4  142.89   27.70
 -21   6  -4  139.19    9.50
  21  -6   4  130.09   14.70
  21 -15  -4  120.19   19.50
  -6 -15   4  127.59    9.90
  -6  21  -4  129.99   24.20
 -15  21   4  126.09   13.80
 -15  -6  -4  136.29    9.80
 -21  14   4  146.59   14.10
  14   7   4  167.48   12.90
   7  14  -4  105.19   25.50
   7 -21   4  134.49   10.20
 -21   7  -4  138.09    9.20
  14 -21  -4  141.89   17.70
 -14  -7  -4  151.78   10.40
 -14  21   4  139.29   13.60
  21 -14  -4  121.19   19.50
  -7  21  -4  163.08   24.40
  21  -7   4  147.39   16.30
  -7 -14   4  144.59   10.10
  13   8   4   12.30    7.80
 -21   8  -4    7.90    4.50
   8 -21   4   10.20    5.80
  13 -21  -4    6.40    9.90
 -21  13   4   18.50    9.10
   8  13  -4   -1.00   21.20
  -8  21  -4   20.80   17.30
 -13  21   4    4.90    7.80
  -8 -13   4    4.50    4.70
  21 -13  -4    5.80   13.00
 -13  -8  -4    6.30    5.10
  21  -8   4   -1.90    9.60
   9  12  -4  123.59   26.80
  12   9   4  188.38   13.70
 -21   9  -4  184.78   10.60
   9 -21   4  178.68   11.80
 -21  12   4  178.08   15.40
  12 -21  -4  204.48   17.70
 -12  -9  -4  194.58   11.90
 -12  21   4  175.38   14.80
  21  -9   4  193.28   16.50
  -9 -12   4  183.38   11.80
  21 -12  -4  174.98   20.60
  -9  21  -4  186.08   22.30
  10 -21   4   96.39   10.30
 -21  11   4  103.39   12.70
  11  10   4   90.69   10.70
  11 -21  -4   87.79   13.10
 -21  10  -4   91.59    8.00
  10  11  -4   99.99   25.60
  21 -10   4  108.89   16.80
 -11 -10  -4   96.59    8.90
 -11  21   4   75.99   11.60
 -10 -11   4   85.39    8.20
  21 -11  -4   83.99   16.50
 -10  21  -4   92.19   18.90
 -21  11  -4   18.70    4.90
  10  11   4   22.90    8.30
  11  10  -4   48.20   24.40
  11 -21   4   25.50    6.30
 -21  10   4   36.70    9.70
  10 -21  -4   17.20    9.50
  21 -10  -4   22.20   15.20
 -10 -11  -4   24.40    5.90
 -11  21  -4   27.70   14.90
  21 -11   4   29.40   12.50
 -11 -10   4   28.20    5.90
 -10  21   4   20.70    8.40
  12 -21   4   27.80    6.80
   9 -21  -4   50.39   11.80
   9  12   4   53.09   10.30
  12   9  -4   21.60   25.70
 -21   9   4   40.10   10.20
 -21  12  -4   43.30    6.70
 -12  21  -4   26.90   16.50
  21  -9  -4   20.80   14.10
 -12  -9   4   40.20    7.10
  21 -12   4   40.90   12.60
  -9  21   4   28.90    9.00
  -9 -12  -4   32.30    6.50
   8  13   4    5.90    7.60
 -21  13  -4    2.40    4.70
   8 -21  -4   17.40    9.40
  13 -21   4    9.70    6.30
  13   8  -4    3.40   24.70
 -21   8   4    1.50    8.20
  -8 -13  -4   -2.40    4.80
 -13  21  -4   19.00   14.80
  21  -8  -4    1.70   13.60
  21 -13   4    0.10   10.20
 -13  -8   4   -0.80    5.00
  -8  21   4   -0.90    8.00
   7  14   4   15.20    7.40
 -21   7   4    3.60    8.70
   7 -21  -4    6.40    9.10
  14 -21   4    2.10    6.40
 -21  14  -4   13.50    4.70
 -14  21  -4   13.50   13.90
  -7  21   4   -8.00    7.80
  21  -7  -4  -15.00   13.80
  21 -14   4   24.70   12.90
  -7 -14  -4    9.10    5.30
 -14  -7   4    7.20    5.10
   6  15   4   32.60   11.40
  15 -21   4   26.20    8.20
   6  15   4   15.50    7.60
   6 -21  -4   18.80    9.10
 -21   6   4    9.20    9.50
 -15  21  -4   33.20   14.30
  -6  21   4    3.30    8.10
  21 -15   4   37.10   12.70
  -6 -15  -4   15.50    5.60
  21  -6  -4   20.70   14.90
 -21   5   4   10.50    8.50
   5  16   4   12.40    9.90
   5  16   4    3.00    6.40
   5 -21  -4   -4.90    8.00
  16 -21   4    0.60    7.60
  21 -16   4    7.40   13.30
  -5 -16  -4   -2.80    5.10
  21 -16   4   21.60   13.10
  -5  21   4  -16.40    8.30
  21  -5  -4   11.00   14.90
 -16  -5   4   -1.10    9.40
   4  17   4   21.80   11.20
 -21   4   4   -4.00    5.60
  17 -21   4    8.10    8.70
   4 -21  -4   28.40    8.30
 -21   4   4   -7.20    9.40
   4  17   4    6.40    8.30
  -4 -17  -4    1.90    5.50
 -17  -4   4   -3.70    8.50
  21 -17   4   54.59   15.20
 -17  21  -4   10.00   11.90
 -17  -4   4   -6.50    5.20
  21 -17   4  -15.10   12.00
  21  -4  -4    3.80   14.80
  -4  21   4   -5.50    8.50
 -21   3   4   26.10    9.90
 -21   3   4   12.70    6.30
  18 -21   4   19.60    9.90
   3  18   4   34.30   11.90
   3  18   4   23.20    8.30
   3 -21  -4    7.30    9.00
  -3 -18  -4   20.80    6.10
  21 -18   4    8.30   12.40
 -18  21  -4   34.00   12.30
 -18  -3   4   -2.00   10.30
  21  -3  -4   -1.10   14.60
 -18  -3   4    9.20    5.40
  -3  21   4   16.30   10.50
  19 -21   4   87.89   29.80
  19   2  -4   25.10   31.30
   2  19   4   30.80   12.30
  19 -21   4    1.10    9.70
 -21   2   4   14.00    9.50
   2  19   4   10.70    8.00
 -21   2   4   -6.40   10.00
  -2  21   4   13.20   10.90
 -19  -2   4    6.70    9.70
 -19  -2   4   13.80    5.50
 -19  21  -4   -6.70   23.40
  21 -19   4    3.50   12.70
  21  -2  -4   38.90   14.40
  -2 -19  -4   16.30    6.40
  18   4   4    2.40    8.10
   4 -22   4    3.50    4.90
 -22  18   4    0.20    8.20
   4  18  -4  -11.50   18.40
 -22   4  -4    6.80    4.70
  18 -22  -4  -22.30   12.60
 -18  -4  -4    0.40    5.50
  22  -4   4   -0.60    8.90
  22 -18  -4   -4.00   14.20
  -4 -18   4    1.00    4.50
 -18  22   4   13.60    8.90
  -4  22  -4    4.80   16.70
 -22  17   4   67.99   12.00
  17   5   4   85.09   11.20
  17 -22  -4   47.30   13.80
 -22   5  -4   82.29    8.00
   5  17  -4   40.80   21.40
   5 -22   4   67.69    8.60
  -5 -17   4   65.29    7.30
  22 -17  -4   58.19   15.90
  -5  22  -4   46.10   18.30
 -17  22   4   52.79   10.30
  22  -5   4   77.29   12.70
 -17  -5  -4   77.49    8.40
 -22   6  -4  105.79    7.90
   6 -22   4   89.59    8.60
  16   6   4  101.99   11.50
 -22  16   4  105.99   13.40
  16 -22  -4   91.89   15.80
   6  16  -4   80.39   22.40
  -6  22  -4  101.19   21.00
 -16  22   4   97.19   12.50
  22  -6   4   84.59   13.70
 -16  -6  -4  102.79    8.50
  22 -16  -4   77.99   17.50
  -6 -16   4   97.39    8.40
 -22  15   4    2.00    8.30
   7 -22   4    3.80    5.20
   7  15  -4   -4.50   21.10
  15 -22  -4   12.70   11.30
 -22   7  -4   11.40    5.00
  15   7   4    7.80    7.60
  -7 -15   4    1.50    4.90
 -15  22   4    4.30    8.00
  -7  22  -4    9.20   16.60
  22 -15  -4    4.80   15.00
  22  -7   4    3.60    9.20
 -15  -7  -4   11.00    5.70
  14 -22  -4   71.59   13.60
  14   8   4   81.99   10.90
   8 -22   4   81.39    8.90
   8  14  -4   45.60   23.10
 -22  14   4  114.59   13.60
 -22   8  -4   93.59    7.60
  -8  22  -4   66.49   18.30
  -8 -14   4  101.79    8.60
  22  -8   4   77.49   13.80
  22 -14  -4  102.59   18.20
 -14  22   4   98.79   12.20
 -14  -8  -4  106.69    9.40
   9 -22   4  132.79   10.90
   9  13  -4   97.89   25.30
 -22  13   4  119.09   12.90
  13 -22  -4  164.18   17.70
 -22   9  -4  134.49    9.40
  13   9   4  142.49   13.40
  22 -13  -4  136.19   20.00
  -9 -13   4  122.49    9.40
 -13  22   4  121.19   13.10
  -9  22  -4  138.69   23.20
  22  -9   4  132.79   15.10
 -13  -9  -4  136.09   10.10
  10  12  -4   16.30   23.20
  10 -22   4    7.00    6.10
 -22  12   4   14.50    8.70
 -22  10  -4    7.00    4.60
  12 -22  -4   14.20   10.00
  12  10   4    7.40    7.00
 -10  22  -4   15.90   15.50
  22 -10   4   21.50   10.10
 -12  22   4   16.40    8.70
  22 -12  -4   -9.40   14.10
 -12 -10  -4   12.80    5.60
 -10 -12   4    7.40    5.30
  11  11  -4   67.19   24.80
  11 -22   4   81.29   10.00
  11  11   4   68.99   10.50
 -22  11   4   76.89   12.50
  11 -22  -4   79.29   13.30
 -22  11  -4   71.39    7.40
  22 -11  -4   62.89   16.60
 -11 -11   4   56.89    7.60
 -11  22   4   55.89   10.40
 -11 -11  -4   75.39    8.50
  22 -11   4   61.39   13.10
 -11  22  -4   54.39   17.90
  12 -22   4    1.90    5.90
 -22  12  -4   15.80    5.30
  12  10  -4   31.30   24.50
  10 -22  -4    8.30   10.00
 -22  10   4    7.40    8.90
  10  12   4    7.60    7.40
 -10  22   4    3.60    8.10
  22 -12   4   -7.00   11.10
  22 -10  -4    1.20   13.80
 -10 -12  -4    9.10    5.90
 -12 -10   4    6.30    5.10
 -12  22  -4    6.70   14.20
 -22  13  -4   17.50    5.10
   9  13   4   18.70    7.90
   9 -22  -4    6.50   11.80
  13 -22   4    9.40    6.70
 -22   9   4   16.80    8.70
  13   9  -4   26.80   25.80
  -9  22   4    9.80    8.90
  -9 -13  -4   20.20    6.00
 -13  -9   4   18.30    5.70
  22  -9  -4    9.40   14.90
 -13  22  -4   22.00   14.70
  22 -13   4    6.60   10.60
  14 -22   4   22.40    7.20
 -22   8   4   18.60    9.90
  14   8  -4   53.39   29.30
   8  14   4   28.80    8.30
 -22  14  -4   19.60    5.10
   8 -22  -4   39.20   11.50
  22 -14   4   26.80   13.40
 -14  22  -4   28.00   14.60
  22  -8  -4    5.80   14.10
  -8 -14  -4   14.90    5.60
  -8  22   4    2.50    9.10
 -14  -8   4    4.30    5.10
  15   7  -4   46.50   30.90
 -22   7   4   20.40    9.60
   7  15   4   17.10    7.80
   7 -22  -4   32.20   10.50
  15 -22   4    0.10    7.60
 -22  15  -4   12.60    4.80
  -7 -15  -4    5.10    5.20
  22 -15   4    4.60   11.90
  -7  22   4   -5.10    8.50
 -15  22  -4    6.90   12.70
  22  -7  -4    1.10   13.70
   6 -22  -4    9.10   11.20
   6  16   4    7.70    6.80
   6  16   4   17.50   10.80
 -22   6   4    5.60    8.70
  16 -22   4    7.80    7.80
  -6  22   4    1.00    8.30
  22 -16   4   18.10   13.60
  -6 -16  -4    4.10    5.10
  22  -6  -4   -1.60   13.80
 -16  22  -4  -18.20   14.80
 -22   5   4    4.00   11.20
   5  17   4   24.20   12.80
   5  17   4   21.00    8.30
   5 -22  -4   31.50   10.90
  17 -22   4   24.30    9.70
 -17  -5   4    1.50    6.30
 -17  22  -4   20.90   12.30
  -5  22   4   19.50   10.20
  22 -17   4   47.50   15.90
  22  -5  -4   19.30   16.40
  -5 -17  -4   26.70    6.40
   4 -22  -4   29.80   10.70
 -22   4   4   21.20    6.90
   4  18   4   11.70    8.80
 -22   4   4   21.40   10.10
   4  18   4   27.00   12.00
  18 -22   4   16.00    9.40
  22  -4  -4   12.00   15.60
  -4  22   4   16.40    9.80
 -18  -4   4    4.70    6.10
 -18  -4   4    2.20    9.90
 -18  22  -4   21.40   12.10
  22 -18   4    6.60   13.80
  -4 -18  -4    9.90    6.10
   8  15  -4   81.69   26.00
   8 -23   4   75.09    9.00
 -23   8  -4  102.29    8.70
 -23  15   4   93.09   13.90
  15 -23  -4   72.99   15.70
  15   8   4  105.99   11.60
  -8  23  -4   85.59   18.20
 -15  -8  -4   97.99    9.50
  23 -15  -4  105.79   19.80
 -15  23   4   96.29   12.40
  23  -8   4   69.09   12.40
  -8 -15   4   92.69    8.70
   9 -23   4    0.80    5.70
 -23  14   4    6.80    8.70
 -23   9  -4    7.40    4.70
  14 -23  -4   -9.40   13.20
   9  14  -4   18.10   23.40
  14   9   4   -1.70    7.80
  23  -9   4   -0.30    9.40
 -14  -9  -4   11.60    5.70
  -9 -14   4    4.10    4.80
  -9  23  -4   21.70   15.50
  23 -14  -4   -4.20   14.10
 -14  23   4    4.80    8.30
 -23  10  -4   74.09    7.60
 -23  13   4   59.29   11.90
  13 -23  -4   52.59   12.70
  10  13  -4   69.29   25.40
  13  10   4   71.09   11.70
  10 -23   4   56.19    9.50
 -10 -13   4   62.69    8.10
  23 -10   4   56.59   12.00
  23 -13  -4   47.80   16.90
 -13  23   4   36.20    9.60
 -13 -10  -4   65.59    8.40
 -10  23  -4   47.90   17.60
 -23  12   4   38.70   10.70
  12 -23  -4   32.90   11.40
  11  12  -4   -7.20   24.10
  12  11   4   20.40    8.70
  11 -23   4   18.90    6.60
 -23  11  -4   26.40    5.70
 -11 -12   4   19.00    5.80
  23 -12  -4   28.00   15.20
 -12 -11  -4   26.50    6.10
 -11  23  -4   27.10   17.10
 -12  23   4   13.80    8.30
  23 -11   4   19.70   11.70
 -23  11   4   -0.90    9.70
  12 -23   4   12.30    6.40
  12  11  -4    8.30   23.70
  11 -23  -4    4.80   10.80
 -23  12  -4   12.20    4.70
  11  12   4   17.80    7.30
  23 -11  -4   -4.00   13.60
 -11  23   4    6.20    7.80
  23 -12   4   -7.00   12.80
 -12  23  -4   20.70   15.40
 -12 -11   4   13.10    5.90
 -11 -12  -4   12.20    6.30
  13 -23   4   14.90    7.10
  10 -23  -4   21.30   12.20
 -23  13  -4   18.50    5.10
  13  10  -4   -6.20   23.40
  10  13   4   28.10    8.10
 -23  10   4   20.80    9.90
 -10 -13  -4   16.00    5.90
  23 -13   4   -4.60   13.40
  23 -10  -4    9.40   15.30
 -13 -10   4    8.70    5.20
 -10  23   4    6.90    8.10
 -13  23  -4   40.00   15.40
  14   9  -4   46.80   28.80
  14 -23   4    3.40    6.30
 -23   9   4   11.10    9.90
 -23  14  -4    3.20    4.70
   9 -23  -4   -2.50   11.70
   9  14   4   10.30    8.20
  -9 -14  -4   12.30    6.00
  -9  23   4   -2.50    8.20
  23  -9  -4   12.00   14.20
 -14  -9   4    1.20    5.20
  23 -14   4    0.30   11.90
 -14  23  -4   11.80   14.10
 -23  15  -4   14.70    5.00
   8  15   4   15.60    8.10
  15   8  -4   13.90   29.40
   8 -23  -4  -25.10   11.70
 -23   8   4    6.70    9.00
  15 -23   4    6.70    7.30
  23  -8  -4    9.20   15.60
 -15  23  -4    9.60   13.40
 -15  -8   4   -2.90    5.50
  23 -15   4  -23.00   13.90
  -8 -15  -4    3.70    5.50
  -8  23   4   -7.30    8.10
   0   0   5   -0.50    4.50
   0   0   5   -4.90    5.60
   0   0   5   -1.10    6.60
   1   0   5   72.79   10.20
   0  -1   5   65.99    8.50
   0  -1   5   65.59   10.20
   0  -1   5   83.19    8.00
   1   0   5   59.69    9.70
  -1   1   5   66.09    7.60
  -1   1   5   72.89    9.60
  -1   1   5   66.99   10.30
   1   0   5   77.19    8.40
  -1   0   5   45.60    6.80
   1  -1   5   41.20    7.40
  -1   0   5   48.50    8.50
   0   1   5   46.80    8.40
  -1   0   5   49.00    6.90
   1  -1   5   47.60    7.90
   1  -1   5   54.49    9.60
   0   1   5   52.19    8.40
   0   1   5   44.30    7.00
   2   0   5   41.20    6.80
  -2   2   5   27.00    7.60
   2   0   5   36.20    8.50
  -2   2   5   30.30    6.50
   0  -2   5   32.60    5.60
   2   0   5   37.20    7.70
  -2   2   5   39.30    6.10
   0  -2   5   39.30    6.20
   0  -2   5   30.80    7.50
   1   1   5   47.70    7.30
   1   1   5   50.39    9.20
   1  -2   5   42.80    8.00
   1  -2   5   39.50    6.20
  -2   1   5   44.90    8.00
   1  -2   5   48.10    7.90
   1   1   5   56.29    8.10
  -2   1   5   45.90    7.50
  -2   1   5   39.50    8.00
  -1   2   5   57.19    8.30
  -1   2   5   40.40    7.00
  -1  -1   5   39.30    6.30
  -1   2   5   53.49    8.60
   2  -1   5   49.00    8.50
   2  -1   5   43.60    7.00
  -1  -1   5   41.40    8.50
  -1  -1   5   40.60    6.00
   2  -1   5   49.70    8.20
   2  -2   5  388.86   20.40
   2  -2   5  385.26   19.10
  -2   0   5  408.96   19.30
   0   2   5  402.46   19.20
  -2   0   5  393.96   20.80
  -2   0   5  379.06   18.60
   2  -2   5  407.46   20.80
   0   2   5  414.86   20.90
   0   2   5  381.46   22.40
   3   0   5  146.79   10.90
   3   0   5  141.49   15.50
   3   0   5  143.89   11.70
  -3   3   5  138.99    9.80
   0  -3   5  147.19   11.60
  -3   3   5  140.49   12.50
   0  -3   5  131.79    9.50
   0  -3   5  148.39   10.20
  -3   3   5  145.29   11.50
  -3   2   5  371.46   18.00
   1  -3   5  366.66   17.90
   2   1   5  378.16   19.30
   1  -3   5  388.76   18.80
   2   1   5  366.06   22.20
  -3   2   5  348.07   19.60
   1  -3   5  368.66   19.40
  -3   2   5  377.86   20.50
   2   1   5  354.86   18.20
   3  -1   5  377.36   19.50
   3  -1   5  395.46   21.30
  -1  -2   5  367.86   17.80
   3  -1   5  359.36   18.20
  -2   3   5  367.76   18.20
  -1  -2   5  384.06   18.20
  -2   3   5  348.57   19.40
  -1  -2   5  374.86   20.10
  -3   1   5  319.67   18.80
   1   2   5  324.87   18.10
  -3   1   5  343.17   16.60
   2  -3   5  324.27   18.20
   1   2   5  354.36   16.90
  -3   1   5  313.17   16.50
   2  -3   5  328.77   16.20
   1   2   5  319.57   21.20
   2  -3   5  319.17   17.60
  -2  -1   5  316.07   18.30
   3  -2   5  333.47   16.90
  -1   3   5  328.47   20.00
  -1   3   5  323.07   16.60
  -1   3   5  328.47   18.40
   3  -2   5  342.37   19.00
  -2  -1   5  331.87   16.00
   3  -2   5  325.47   18.10
  -2  -1   5  318.87   16.40
   3  -3   5   17.50    6.90
  -3   0   5   32.40    8.10
   3  -3   5   27.10    5.50
   0   3   5   34.00    7.80
  -3   0   5   20.10    4.90
   0   3   5   25.70    6.10
   3  -3   5   28.90    7.20
   4   0   5  330.87   21.50
   0  -4   5  289.27   14.90
   4   0   5  289.07   15.80
   4   0   5  300.77   16.80
   0  -4   5  313.37   17.90
   0  -4   5  304.27   15.60
  -4   4   5  273.47   16.90
  -4   4   5  311.07   15.70
  -4   4   5  296.77   17.80
   1  -4   5   89.69   10.10
  -4   3   5  108.89    9.30
   3   1   5  116.39   10.10
   3   1   5   83.69   15.00
  -4   3   5   91.19   11.20
   3   1   5   97.89   10.20
   1  -4   5   96.69    8.20
   1  -4   5  103.69    9.40
  -1  -3   5  121.59   11.90
  -1  -3   5   99.89    7.90
   4  -1   5  117.39   14.40
   4  -1   5  107.69   10.20
  -1  -3   5   95.99    8.20
  -3   4   5   98.59   11.80
  -3   4   5  108.49    8.90
  -3   4   5   96.49   10.40
   4  -1   5   98.69    8.90
   2   2   5   77.39    9.80
   2  -4   5   63.89    7.50
   2  -4   5   71.99   10.10
   2   2   5   63.99    8.20
   2  -4   5   59.29    8.60
  -4   2   5   65.89   10.10
  -2   4   5   62.29    9.10
  -2   4   5   68.99    8.10
  -2  -2   5   61.49    9.80
  -2  -2   5   67.69    7.10
   4  -2   5   62.99    9.10
   4  -2   5   64.89    7.70
   4  -2   5   73.89   11.90
  -4   1   5  838.52   35.80
   1   3   5  818.82   36.30
  -4   1   5  814.12   37.70
   1   3   5  835.32   37.20
   3  -4   5  848.32   37.30
   3  -4   5  845.62   37.30
   3  -4   5  818.72   35.90
   4  -3   5  817.12   37.00
  -1   4   5  809.52   37.30
   4  -3   5  837.32   38.00
  -3  -1   5  832.82   37.70
   4  -3   5  818.02   36.20
  -3  -1   5  841.52   35.70
   4  -1  -5  828.32   36.30
   4  -4   5  649.24   30.80
   0  -4  -5  652.63   28.20
   4  -4   5  685.33   31.60
   4   0  -5  716.83   30.00
  -4   0   5  642.04   31.40
  -4   0   5  659.13   29.30
   0   4   5  662.93   31.10
   0   4   5  673.83   30.10
   4  -4   5  678.93   29.90
   0  -5   5    4.20    4.30
   5   0   5    9.50    5.70
   0  -5   5    3.30    7.00
   5   0   5   11.70   10.80
   5   0   5   -1.10    5.70
   0  -5   5    1.90    4.20
  -5   5   5   -4.20    6.80
   4   1   5  129.09   10.70
  -5   4   5  116.79    9.40
   4   1   5  112.19    9.60
  -5   4   5  134.39   12.60
   1  -5   5  111.69   11.70
   1  -5   5  108.79    8.50
   1  -5   5  107.39    8.90
  -1  -4   5  105.19    8.30
  -1  -4   5  115.79   12.00
   5  -1   5  118.49   10.50
   5  -4  -5  109.19    9.90
  -4   5   5  140.09    9.80
   5  -1   5  127.19    9.90
  -1  -4   5  124.99    8.80
  -4   5   5  136.19   11.50
   5  -1   5  113.89   15.70
   2  -5   5  463.85   21.40
   3  -5  -5  451.65   19.80
  -5   3   5  476.15   21.60
   3   2   5  483.35   23.10
  -5   3   5  453.75   23.60
   2  -5   5  472.85   22.30
   2  -5   5  476.65   23.50
   3   2   5  463.85   22.20
  -3   5   5  431.66   23.10
   5  -3  -5  466.65   22.10
  -3   5   5  455.75   22.00
   5  -2   5  475.65   22.90
  -2  -3   5  460.45   21.40
  -2  -3   5  497.15   24.20
   5  -2   5  462.05   25.90
   5  -2   5  473.85   22.50
   2   3   5  486.15   23.10
   2  -5  -5  498.35   20.80
   3  -5   5  498.55   24.20
   3  -5   5  476.35   23.30
   3   2  -5  504.35   22.60
   2   3   5  489.35   23.90
  -5   2   5  416.36   22.90
  -5   2   5  463.35   24.50
   3  -5   5  489.95   22.50
  -2   5   5  474.65   24.40
   5  -3   5  493.75   23.60
  -2  -3  -5  488.75   21.20
  -3  -2   5  495.35   22.10
  -2   5   5  513.65   23.10
   5  -3   5  490.45   25.70
   5  -2  -5  518.95   23.30
  -3  -2   5  479.75   24.50
   5  -3   5  492.15   22.90
   1   4   5   85.19    8.80
  -5   1   5   73.69   10.50
   4  -5   5   64.89    8.10
   1   4   5   60.69    9.60
   1  -5  -5   58.19    5.40
  -5   1   5   71.29    6.70
   4  -5   5   71.29    9.90
   4   1  -5   59.99    7.50
   4  -5   5   72.59    9.90
  -1   5   5   65.69    9.10
  -1  -4  -5   59.39    5.40
  -1   5   5   77.29    8.50
   5  -1  -5   44.10    8.70
   5  -4   5   71.19    7.90
   5  -4   5   58.09    9.20
  -4  -1   5   72.09   11.60
   5  -4   5   80.09   11.80
  -4  -1   5   70.49    6.80
   5  -5   5 1430.96   60.69
  -5   0   5 1412.16   59.19
  -5   0   5 1465.75   61.79
   5  -5   5 1489.35   61.59
   0   5   5 1436.76   60.09
   0  -5  -5 1398.56   58.39
   0   5   5 1383.96   60.79
   5   0  -5 1385.06   59.99
   6  -6  -5   57.09    8.90
   6   0   5   76.49    9.10
   0  -6   5   68.39    7.40
   6   0   5   58.59    8.70
  -6   6   5   61.59   11.10
   0  -6   5   78.29   10.30
   5  -6  -5  139.69    6.60
   1  -6   5  133.39    9.20
   5   1   5  149.19   10.60
  -6   5   5  126.89   12.00
   1  -6   5  161.88   12.80
   5   1   5  159.08   11.50
   1  -6   5  137.69    9.60
  -6   5   5  104.09   10.40
  -5  -1  -5  133.59    8.20
   6  -1   5  150.88   18.40
   6  -1   5  135.99   10.50
   6  -1   5  132.39   10.90
  -1  -5   5  144.99    9.50
   6  -5  -5  117.39   11.40
  -1  -5   5  156.18   12.30
  -5   6   5  142.99   12.90
   4   2   5  244.08   14.10
   2  -6   5  248.48   14.10
   4   2   5  233.18   14.90
   4  -6  -5  239.28   10.90
  -6   4   5  247.18   16.60
   2  -6   5  235.58   13.10
   2   4  -5  238.08   13.30
  -6   4   5  243.98   13.20
   2  -6   5  235.68   15.10
   6  -2   5  262.77   14.40
   6  -4  -5  242.08   14.20
  -2  -4   5  256.07   13.20
  -4   6   5  241.48   15.80
   6  -2   5  262.07   20.20
  -4  -2  -5  245.18   12.00
   6  -2   5  244.08   14.60
  -4   6   5  255.47   14.70
  -2  -4   5  248.88   15.60
   3   3  -5   85.29    8.20
  -6   3   5   71.49   10.70
   3   3   5   90.99   10.20
   3  -6   5   83.89    8.00
   3  -6   5   88.99    9.70
  -6   3   5   84.29    7.10
   3   3   5   90.69    9.10
   3  -6   5   88.29    9.90
   3  -6  -5   82.29    5.00
  -3  -3   5   82.89   10.70
   6  -3   5   72.89    9.30
  -3  -3  -5   82.69    6.10
   6  -3   5   82.89   12.20
  -3   6   5   76.39    8.70
   6  -3  -5   79.19   10.10
   6  -3   5   81.39    9.50
  -3   6   5   85.19   10.90
  -3  -3   5   85.09    7.50
   2   4   5 1002.60   43.70
  -6   2   5  988.50   44.50
   2  -6  -5  954.10   40.90
   2   4   5  986.70   43.00
   4  -6   5 1023.80   43.80
   4  -6   5 1018.90   43.90
   4   2  -5  992.60   42.80
   4  -6   5  974.80   42.50
  -2   6   5  950.00   43.80
   6  -2  -5 1009.00   43.30
   6  -4   5  979.60   43.00
  -2   6   5 1006.90   43.10
   6  -4   5 1000.50   43.40
  -2  -4  -5  991.00   41.40
  -4  -2   5  981.90   42.20
   6  -4   5 1027.90   45.60
  -4  -2   5 1031.20   44.80
   1   5   5 1022.10   45.50
   5  -6   5 1054.39   44.50
   5  -6   5 1032.00   45.70
   5   1  -5 1050.79   44.70
  -6   1   5 1048.40   46.70
  -6   1   5 1037.80   43.70
   5  -6   5 1033.10   45.50
   1   5   5 1025.30   44.80
  -5  -1   5 1063.79   46.30
   6  -5   5 1070.29   47.00
  -5  -1   5 1032.60   43.80
  -1   6   5 1044.60   44.70
   6  -5   5 1031.00   45.20
  -1   6   5 1018.50   45.90
   6  -5   5 1027.10   44.70
   6  -1  -5 1071.39   45.10
  -1  -5  -5 1013.40   43.00
   0  -6  -5    5.30    2.70
   6  -6   5    3.80    7.20
   0   6   5   11.00    6.70
   6   0  -5    6.50    6.70
   6  -6   5    3.80    5.60
   6  -6   5    8.60    6.50
  -6   0   5   10.10    3.70
  -6   0   5   -2.90    7.60
   0   6   5    7.50    6.00
   0  -7   5   31.40    8.10
  -7   7   5   19.40    8.30
   7   0   5   45.30    6.60
   7  -7  -5   16.30    6.80
  -7   0  -5   19.80    4.20
   0  -7   5   26.90    5.40
   7   0   5   27.80    6.80
  -7   6   5   70.59   10.70
   6   1   5   76.99    9.20
   1  -7   5   62.29    7.60
   6  -7  -5   60.29   10.60
   1  -7   5   59.09    6.60
   6   1   5   59.19    8.90
   1  -7   5   62.09   10.60
   1   6  -5   70.69    7.40
   7  -1   5   71.89    9.10
   7  -6  -5   64.59   10.60
  -6   7   5   75.79   10.20
  -1  -6   5   67.99    7.40
   7  -1   5   72.59    8.70
  -1  -6   5   70.49   11.30
  -6  -1  -5   66.69    6.20
   2  -7   5   64.29    7.30
   2  -7   5   80.99   11.00
   2  -7   5   63.39    7.50
   5   2   5   74.69    9.40
  -7   5   5   65.29   10.40
   5   2   5   79.39    9.20
   2   5  -5   64.39    7.60
  -7   5   5   82.99    7.30
   7  -2   5   66.09    9.90
   7  -2   5   90.69   15.40
  -5  -2  -5   66.89    6.10
  -2  -5   5   59.89   10.40
   7  -5  -5   59.29    9.50
   7  -2   5   78.89    8.70
  -2  -5   5   67.29    7.10
  -5   7   5   68.59   10.40
  -7   4   5  384.86   18.00
   4   3   5  407.56   19.90
  -7   4   5  379.06   21.50
   3  -7   5  429.86   21.20
   3   4  -5  380.86   19.00
   3  -7   5  393.26   19.70
   3  -7   5  386.66   18.40
   4  -7  -5  366.36   16.40
   4   3   5  382.36   19.50
  -3  -4   5  406.06   21.60
   7  -3   5  386.16   19.50
  -4   7   5  380.56   21.10
   7  -3   5  382.56   24.10
  -4   7   5  401.86   19.40
   7  -4  -5  384.56   19.90
  -4  -3  -5  386.36   17.60
   7  -3   5  390.56   20.10
  -3  -4   5  373.16   18.30
   3   4   5  755.52   34.40
   3   4   5  792.02   34.30
   3  -7  -5  729.43   31.50
   4  -7   5  740.93   33.10
   4  -7   5  778.02   34.30
   4  -7   5  789.42   34.90
  -7   3   5  765.62   32.60
   4   3  -5  770.62   33.50
  -7   3   5  767.42   35.50
   7  -4   5  753.52   36.90
  -4  -3   5  754.82   35.30
  -3   7   5  763.72   33.70
  -3   7   5  740.53   35.20
   7  -3  -5  775.02   34.10
  -3  -4  -5  738.73   32.10
   7  -4   5  758.72   33.90
  -4  -3   5  763.82   32.90
   7  -4   5  777.72   34.20
   5   2  -5   32.10    7.20
   2   5   5   31.80    6.90
   2  -7  -5   27.70    3.90
  -7   2   5   27.50    8.60
  -7   2   5   28.90    4.70
   5  -7   5   24.20    6.80
   5  -7   5   30.20    7.40
   5  -7   5   33.60    6.20
   2   5   5   40.90    7.60
   7  -5   5   24.60    6.80
  -5  -2   5   24.70    4.60
  -2   7   5   33.00    8.00
  -5  -2   5   14.20    8.30
  -2  -5  -5   30.50    4.60
   7  -2  -5   32.10    7.20
   7  -5   5   43.30    7.20
  -2   7   5   28.30    6.90
   7  -5   5   22.00    8.70
   6  -7   5  451.45   21.70
  -7   1   5  470.25   24.50
   6  -7   5  460.45   23.50
  -7   1   5  449.36   20.40
   6   1  -5  419.56   22.10
   1   6   5  444.06   22.90
   1   6   5  452.05   21.90
  -1   7   5  434.06   22.70
  -6  -1   5  457.75   20.60
   7  -6   5  469.25   22.40
  -1  -6  -5  442.36   19.80
   7  -1  -5  434.66   22.80
  -6  -1   5  457.05   23.80
   7  -6   5  487.05   24.90
   7  -6   5  465.45   22.20
  -1   7   5  468.85   22.00
   0   7   5  322.37   18.50
  -7   0   5  330.07   19.40
   7  -7   5  310.67   17.00
   7   0  -5  322.77   18.20
  -7   0   5  319.27   15.50
   7  -7   5  356.76   19.50
   0  -7  -5  319.77   14.80
   0   7   5  330.17   17.30
   0   8  -5   56.19    6.70
  -8   0  -5   45.50    6.10
   8   0   5   50.79    9.80
   0  -8   5   47.80    7.20
   8   0   5   39.90    7.60
   8  -8  -5   62.99    9.80
  -8   8   5   56.99    9.50
   0  -8   5   84.59   11.40
   7   1   5  103.19    9.60
   1  -8   5  119.89   11.20
   1   7  -5   67.89   11.50
  -8   1  -5   89.99    7.30
   7  -8  -5   91.59   10.20
  -8   7   5   87.29   11.20
   1  -8   5  101.49    8.30
   7   1   5  102.29    9.80
  -1  -7   5   98.59    8.20
   8  -1   5   92.99    9.90
  -1  -7   5   94.59   11.20
  -7   8   5   91.29   12.40
  -7  -1  -5   96.99    7.20
   8  -7  -5   90.39   10.90
   6   2   5   49.20    7.40
   6   2   5   52.69    8.50
   2  -8   5   66.89   10.50
   6  -8  -5   39.60    8.00
   2  -8   5   42.50    7.60
  -8   6   5   42.70    8.90
   2   6  -5   51.39    7.60
  -2  -6   5   57.19    9.80
   8  -2   5   48.40    7.80
  -6  -2  -5   44.10    5.60
  -2  -6   5   41.20    6.10
   8  -2   5   41.90    7.30
  -6   8   5   46.80    8.90
   8  -6  -5   46.40    8.70
   5   3   5  261.07   14.70
  -8   5   5  244.48   16.80
   3  -8   5  232.58   12.50
   5   3   5  259.77   15.10
   3  -8   5  239.68   13.70
   3   5  -5  238.58   13.90
   3  -8   5  266.67   16.10
   8  -3   5  249.28   21.60
  -3  -5   5  223.58   15.70
   8  -5  -5  236.98   15.00
  -3  -5   5  230.78   12.40
   8  -3   5  239.78   14.20
   8  -3   5  227.68   13.90
  -5   8   5  231.88   15.50
  -5  -3  -5  237.48   12.00
   4  -8   5   47.60    9.00
   4  -8  -5   55.39    6.00
  -8   4   5   50.79    5.80
   4  -8   5   60.69    7.30
   4  -8   5   55.79   10.10
   4   4  -5   50.39    8.70
   4   4   5   59.09    8.70
  -8   4   5   45.40    9.40
   4   4   5   60.29    8.70
   8  -4   5   72.79   13.50
   8  -4   5   51.49    8.80
   8  -4   5   66.39    9.80
   8  -4  -5   74.29   11.50
  -4   8   5   56.99    9.20
  -4   8   5   51.69    8.40
  -4  -4   5   51.79    6.20
  -4  -4  -5   49.99    5.60
  -4  -4   5   58.69    9.70
   5   3  -5  238.48   15.20
   5  -8   5  258.37   15.30
  -8   3   5  262.97   12.90
   5  -8   5  265.17   14.30
   3  -8  -5  244.08   11.80
   3   5   5  263.77   15.20
  -8   3   5  294.27   17.90
   3   5   5  260.07   15.40
  -3   8   5  270.87   17.00
   8  -5   5  264.57   15.00
  -3   8   5  258.07   14.70
  -3  -5  -5  256.27   12.60
  -5  -3   5  285.77   17.90
   8  -5   5  268.17   19.80
  -5  -3   5  271.57   13.30
   8  -3  -5  274.37   16.80
   8  -5   5  266.27   15.20
   6  -8   5  379.66   18.80
  -8   2   5  387.66   17.50
   6   2  -5  377.46   20.00
  -8   2   5  368.56   21.10
   2  -8  -5  364.86   16.60
   2   6   5  369.66   20.00
   6  -8   5  381.66   20.60
   2   6   5  380.26   19.30
   8  -6   5  397.86   22.30
  -6  -2   5  402.16   21.80
   8  -2  -5  374.86   19.90
  -6  -2   5  377.96   17.80
  -2   8   5  370.56   20.90
  -2   8   5  390.66   19.40
   8  -6   5  385.66   19.70
  -2  -6  -5  381.66   17.20
  -8   1   5    8.90    8.70
   1   7   5    8.90    7.10
   1   7   5    8.90    5.90
  -8   7  -5   17.10   22.10
   7  -8   5    4.00    5.30
   1  -8  -5    5.70    2.90
  -8   1   5   11.50    3.60
   7  -8   5    8.50    6.90
   7   1  -5    6.80    7.10
  -7   8  -5    9.20   24.30
   8  -7   5    9.80    6.20
  -7  -1   5    2.80    8.10
  -1   8   5   13.70    7.10
  -1   8   5   23.50    6.60
   8  -7   5   -2.90    7.90
  -7  -1   5    8.80    3.70
   8  -1  -5    8.90    7.90
  -1  -7  -5    8.90    3.30
   0  -8  -5  324.57   15.40
  -8   8  -5  328.27   37.50
   8   0  -5  343.27   19.60
   8  -8   5  351.16   20.60
   0   8   5  350.16   18.00
   8  -8   5  334.77   17.30
  -8   0   5  328.27   16.00
   0   8   5  344.87   19.20
  -8   0   5  356.76   19.80
   9  -9  -5   32.40    7.90
   0  -9   5   34.70    6.20
   0  -9   5   43.30    8.90
   9   0   5   30.60    6.90
  -9   0  -5   33.90    5.10
  -9   9   5   41.30    8.80
  -9   8   5   30.00    8.40
   8   1   5   44.40    8.50
   8   1   5   47.20    7.30
   1  -9   5   37.90    6.40
   1   8  -5   36.20    7.00
   1  -9   5   42.50    8.90
   8  -9  -5   50.49    9.00
  -9   1  -5   35.70    5.90
   9  -8  -5   47.00    8.60
  -8  -1  -5   33.90    5.10
  -1  -8   5   48.60    7.00
   9  -1   5   42.50    6.10
  -1  -8   5   60.09   10.00
  -1   9  -5   58.09    6.00
   9  -1   5   39.80    7.40
  -8   9   5   35.80    8.70
   7   2   5   52.49    7.70
   7  -9  -5   49.50    8.10
   2  -9   5   37.00    5.30
   2  -9   5   47.30    6.90
   2   7  -5   51.79    7.40
  -9   7   5   56.19   10.40
   7   2   5   64.29    8.50
   9  -7  -5   53.29    8.80
   9  -2   5   44.10    7.30
  -2  -7   5   47.20    9.00
  -7   9   5   55.89    9.90
   9  -2   5   50.79    8.80
  -7  -2  -5   47.00    5.70
  -2  -7   5   44.00    6.10
   3   6  -5   63.09    8.30
   3  -9   5   45.60    7.70
   3  -9   5   56.39    8.40
   6   3   5   61.09    8.00
   6   3   5   46.30    8.60
  -9   6   5   63.29   10.10
   6  -9  -5   64.69   10.80
  -6  -3  -5   53.99    5.50
  -3  -6   5   48.40    6.40
  -3  -6   5   64.69   10.10
   9  -3   5   64.29   14.80
  -6   9   5   58.19   10.10
   9  -3   5   56.49   10.00
   9  -6  -5   78.59   12.20
   4  -9   5   46.80    6.70
   4   5  -5   46.20    8.40
   5   4   5   47.20    7.40
  -9   5   5   42.90    9.20
   5   4   5   49.40    8.80
   4  -9   5   44.20    7.70
   9  -5  -5   45.10    8.50
  -4  -5   5   46.90    6.50
  -5  -4  -5   47.20    5.70
  -4  -5   5   58.59    9.70
   9  -4   5   53.09   13.20
   9  -4   5   49.20    8.50
  -5   9   5   61.09   11.30
   5  -9   5  236.88   13.40
  -9   4   5  243.78   16.20
   5  -9   5  249.88   15.20
   5   4  -5  240.68   14.80
  -9   4   5  246.78   12.10
   4   5   5  249.38   15.10
   4   5   5  241.18   15.30
  -5  -4   5  250.47   16.20
  -4   9   5  244.68   14.30
   9  -4  -5  254.57   15.70
  -4   9   5  253.07   16.50
  -4  -5  -5  245.28   12.20
  -5   9  -5  269.07   36.20
   9  -5   5  268.87   20.40
   9  -5   5  251.67   15.30
  -5  -4   5  250.47   13.00
   6   3  -5    9.10    7.30
   6  -9   5    1.70    6.00
   3   6   5    7.10    6.20
   3   6   5    2.00    5.80
  -9   6  -5   -9.60   19.40
  -9   3   5    5.10    8.30
   6  -9   5    2.90    5.40
  -9   3   5    6.30    3.30
   3  -9  -5    1.30    2.60
  -3   9   5   14.40    6.70
   9  -3  -5   11.70    7.60
   9  -6   5    9.30    6.50
  -6   9  -5  -27.20   23.70
   9  -6   5   -0.40   10.10
  -6  -3   5    6.80    3.90
  -3  -6  -5    4.40    3.40
  -3   9   5   13.50    7.60
  -6  -3   5   -0.20    8.10
  -9   2   5  327.27   15.80
   2  -9  -5  313.97   15.10
   2   7   5  338.57   17.90
   7  -9   5  336.27   17.50
   7  -9   5  364.96   19.60
  -9   7  -5  373.46   35.00
  -9   2   5  319.87   19.60
   7   2  -5  326.47   19.00
   2   7   5  345.77   18.80
   9  -7   5  338.27   20.80
  -7  -2   5  355.16   16.30
  -2   9   5  352.36   19.40
  -2   9   5  340.07   17.80
  -7   9  -5  352.66   37.60
  -7  -2   5  382.86   20.60
   9  -7   5  349.07   18.30
   9  -2  -5  345.87   20.10
  -2  -7  -5  327.07   15.60
   8  -9   5  179.28   13.90
  -9   1   5  187.68   14.40
   1  -9  -5  177.18    9.70
   8  -9   5  195.28   12.30
   1   8   5  198.28   12.40
  -9   8  -5  220.28   30.00
  -9   1   5  181.48   10.20
   8   1  -5  178.58   14.90
   1   8   5  199.28   13.80
  -1   9   5  187.68   13.90
   9  -1  -5  211.38   15.70
  -8   9  -5  237.08   31.50
  -8  -1   5  186.88   14.50
  -1   9   5  220.78   13.50
  -8  -1   5  191.88   10.50
  -1  -8  -5  189.58   10.00
   9  -8   5  185.58   12.80
   9  -8   5  183.78   15.20
   0  -9  -5   12.40    3.50
   9  -9   5   13.30    6.30
   0   9   5   15.60    6.30
  -9   0   5   19.30    8.50
   9   0  -5   17.30    8.50
  -9   9  -5   10.90   20.40
   0   9   5   19.60    7.30
  -9   0   5   13.30    3.90
   9  -9   5   19.60    8.30
 -10  10   5   25.70    8.20
 -10   0  -5   24.80    4.30
  10 -10  -5   34.60    8.60
   0 -10   5   38.30    6.70
  10   0   5   41.00    7.40
 -10   9   5   25.00    8.10
 -10   1  -5   18.00    4.10
   9   1   5   27.60    6.70
   1 -10   5   25.90    5.40
   9 -10  -5   18.10    7.20
  10  -1   5   22.40    6.60
  -1  -9   5   21.80    4.80
  -1  -9   5   39.20    8.90
  10  -9  -5   41.20    8.70
  -9  -1  -5   24.30    4.50
  -9  10   5   23.90    8.70
   8 -10  -5   55.59    9.80
 -10   2  -5   60.09    6.50
   8   2   5   55.99    8.00
   2 -10   5   55.79    7.90
   2   8  -5   71.19   10.60
 -10   8   5   65.99   10.00
   8   2   5   77.69    9.20
  -2  -8   5   70.59   10.30
  -2  -8   5   58.59    7.00
  -8  10   5   71.69   10.80
  -2  10  -5   20.50   27.00
  10  -2   5   54.09    8.80
  -8  -2  -5   58.59    6.20
  10  -8  -5   73.29   10.90
 -10   7   5  194.98   14.40
   7   3   5  210.98   12.90
   3 -10   5  205.88   12.40
   3 -10   5  214.28   13.70
   7   3   5  199.88   13.20
   7 -10  -5  207.58   13.30
   3   7  -5  173.58   12.80
  -3  -7   5  202.38   11.30
  10  -7  -5  213.98   14.70
  -7  10   5  196.58   14.60
  -3  10  -5  184.38   34.20
  -7  -3  -5  206.38   10.80
  -3  -7   5  201.88   14.40
  10  -3   5  202.28   14.00
   6 -10  -5  153.48   12.20
   6   4   5  179.88   12.00
   4 -10   5  165.48   11.00
 -10   6   5  170.58   13.60
   4   6  -5  140.99   12.30
   6   4   5  183.38   12.10
   4 -10   5  141.79   10.20
  -4  10  -5  192.48   33.30
  10  -6  -5  164.38   14.70
  10  -4   5  169.78   12.10
  -4  -6   5  175.18   13.50
  -4  -6   5  168.88   10.10
  -6  -4  -5  172.38    9.40
  -6  10   5  169.28   13.20
  10  -4   5  183.08   18.90
 -10   5   5   31.30    8.60
   5   5   5   40.60    7.20
   5 -10   5   33.70    6.60
   5   5  -5   40.00    7.70
   5   5   5   45.90    7.50
   5 -10   5   49.50    6.50
 -10   5  -5   52.19   19.30
  -5  -5  -5   39.20    5.60
  -5  -5   5   40.40    6.00
  10  -5   5   36.30   12.80
  10  -5  -5   45.60    9.10
  -5  10  -5   32.00   25.50
  -5  10   5   42.10    8.90
  10  -5   5   41.00    7.90
  -5  -5   5   49.30    9.20
   6 -10   5  162.88   12.30
 -10   4   5  151.88   14.10
 -10   4   5  141.49    8.50
   4   6   5  154.58   11.70
   6 -10   5  152.78   10.00
   4   6   5  148.39   11.20
   6   4  -5  137.69   12.40
 -10   6  -5  200.38   26.40
  10  -6   5  185.58   17.70
  -4  10   5  151.18   11.10
  -4  10   5  153.08   13.30
  -6  10  -5  165.38   27.60
  -6  -4   5  149.39    9.40
  -6  -4   5  154.28   13.00
  -4  -6  -5  139.59    8.70
  10  -4  -5  144.89   13.10
  10  -6   5  137.79   11.20
   3 -10  -5  202.38   10.10
 -10   3   5  209.88   12.40
   7   3  -5  192.38   14.70
   7 -10   5  192.08   13.60
   7 -10   5  214.18   12.60
   3   7   5  209.08   13.20
   3   7   5  217.38   13.80
 -10   7  -5  207.98   27.80
 -10   3   5  200.88   15.00
  -3  10   5  208.98   14.50
  -7  10  -5  242.88   32.40
  10  -7   5  211.78   13.30
  -3  -7  -5  213.58   10.90
  -7  -3   5  215.88   11.50
  10  -7   5  231.58   18.80
  -3  10   5  218.88   13.10
  10  -3  -5  218.38   16.50
  -7  -3   5  209.68   15.10
 -10   8  -5  -14.70   16.80
 -10   2   5   17.00    3.80
   2   8   5   30.80    6.90
   8 -10   5   30.10    7.60
   8 -10   5   22.10    6.20
   2   8   5   26.50    7.10
   2 -10  -5   24.50    3.60
   8   2  -5   27.70    7.90
 -10   2   5   25.50    9.10
  -2  10   5   24.10    6.70
  10  -8   5   19.20    6.10
  -8  10  -5   45.70   21.30
  -8  -2   5   22.70    4.40
  -2  10   5   24.20    8.20
  10  -8   5   27.80    9.90
  -8  -2   5   27.60    8.60
  10  -2  -5   22.60    9.50
  -2  -8  -5   17.80    4.00
   1 -10  -5  227.48   11.60
   9   1  -5  236.78   16.50
   9 -10   5  249.28   16.60
 -10   1   5  239.18   12.10
   1   9   5  246.88   14.20
 -10   9  -5  241.88   28.00
 -10   1   5  237.88   16.20
   1   9   5  256.17   15.50
   9 -10   5  223.68   14.30
  -1  10   5  237.38   14.20
  10  -1  -5  232.68   17.10
  -1  -9  -5  237.48   11.80
  10  -9   5  225.98   17.50
  10  -9   5  229.88   14.50
  -9  -1   5  250.07   16.10
  -9  -1   5  241.08   12.40
  -9  10  -5  228.38   30.50
  -1  10   5  242.68   16.20
   0 -10  -5  128.89    8.00
  10 -10   5  119.19   12.90
 -10   0   5  135.29    8.40
  10 -10   5  132.69   11.00
   0  10   5  139.89   10.50
  10   0  -5  137.19   14.30
 -10  10  -5  114.99   21.80
 -10   0   5  145.29   13.70
   0  10   5  132.79   12.50
   0  11  -5  105.39   27.00
   0 -11   5  126.89    9.30
 -11   0  -5  128.49    8.60
 -11  11   5  129.39   12.40
  11   0   5  126.49   10.90
  11 -11  -5  133.49   13.60
  10   1   5   26.30    6.90
  10 -11  -5   25.50    7.80
 -11  10   5   32.40    8.60
 -11   1  -5   22.30    4.40
   1 -11   5   20.70    5.00
  11  -1   5   21.00    6.50
  -1 -10   5   19.70    4.80
 -10  11   5   16.30    8.30
  -1  11  -5    2.30   22.70
 -10  -1  -5   23.00    4.20
  11 -10  -5   27.40    8.20
   9 -11  -5   49.90    8.50
   2 -11   5   55.09    6.70
 -11   9   5   48.30    8.80
 -11   2  -5   46.70    5.80
   9   2   5   57.59    8.50
  11  -2   5   53.19    8.80
  -2  -9   5   52.49    9.70
  11  -9  -5   62.19   10.80
  -9  -2  -5   56.19    6.30
  -2  -9   5   62.69    6.90
  -9  11   5   47.40    9.20
  -2  11  -5   53.09   25.30
   8   3   5   38.00    7.00
 -11   8   5   42.20    8.60
 -11   3  -5   35.70    6.00
   8 -11  -5   37.30    7.70
   3 -11   5   39.40    6.60
  -8  11   5   40.40    9.00
  -3  11  -5   34.70   26.10
  -8  -3  -5   32.80    5.60
  -3  -8   5   41.80    8.60
  11  -8  -5   65.89   12.50
  11  -3   5   39.50    7.40
  -3  -8   5   40.30    6.20
 -11   7   5   23.80    7.90
   7   4   5   49.99    7.80
   4 -11   5   17.70    5.40
   7   4   5   26.90    6.70
   4   7  -5    8.40    7.10
   7 -11  -5   20.30    6.90
  -4  11  -5   13.20   23.80
  -4  -7   5   21.90    4.70
  -7  -4  -5   26.60    4.60
  -7  11   5   23.90    8.40
  -4  -7   5   23.30    8.10
  11  -4   5   23.80    6.90
  11  -7  -5   29.70    8.80
   5   6  -5   89.99   11.10
   5 -11   5  104.49    9.40
   6   5   5  116.79   10.20
   6 -11  -5  102.59   10.50
   5 -11   5   97.99    9.80
   6   5   5  118.09   10.20
 -11   6   5  112.79   12.70
 -11   5  -5   69.09   17.70
  -6  11   5  130.19   11.80
  11  -6  -5  113.49   13.90
  -5  -6   5  115.29    7.90
  11  -5   5  110.19   11.60
  -6  -5  -5  107.59    7.50
  11  -5   5  114.59   19.00
  -5  11  -5  130.29   25.70
  -5  -6   5  118.69   11.90
 -11   6  -5  277.37   25.60
   5   6   5  253.97   15.00
   6   5  -5  218.38   15.70
   6 -11   5  243.78   14.50
 -11   5   5  256.27   16.90
   6 -11   5  233.18   13.20
   5   6   5  250.07   14.50
  11  -5  -5  265.47   18.00
  11  -6   5  239.08   15.00
  -5  11   5  261.27   16.30
  11  -6   5  256.67   20.60
  -6  -5   5  246.48   13.10
  -6  11  -5  245.48   33.80
  -5  -6  -5  256.87   12.50
  -6  -5   5  253.67   16.10
   4   7   5   28.30    6.60
   7   4  -5   16.00    8.30
   4   7   5   30.50    6.50
   7 -11   5    7.40    5.10
   7 -11   5   15.90    6.80
 -11   4   5   13.90    7.90
 -11   7  -5    8.60   15.40
  -4  11   5   21.10    8.30
  11  -7   5   21.00   11.20
  11  -7   5   14.10    7.00
  -7  -4   5   14.60    8.50
  11  -4  -5   24.00   10.00
  -7  11  -5    7.70   21.40
  -4  11   5   18.40    6.30
  -7  -4   5   16.70    4.40
  -4  -7  -5   10.50    3.70
   3   8   5  201.28   13.40
   3   8   5  186.38   13.30
   8 -11   5  188.38   11.80
 -11   8  -5  169.48   25.00
 -11   3   5  195.08   15.10
   8 -11   5  186.48   13.20
 -11   3   5  183.78    9.90
   8   3  -5  172.88   15.50
  -3  -8  -5  180.88   10.30
  -8  -3   5  195.08   14.20
  11  -3  -5  189.28   15.20
  -8  -3   5  203.78   10.90
  -3  11   5  196.18   12.40
  11  -8   5  187.48   13.70
  11  -8   5  190.88   16.90
  -3  11   5  223.78   15.30
  -8  11  -5  192.98   30.50
 -11   2   5  130.59   12.50
   9   2  -5  120.19   14.00
 -11   2   5  120.59    7.90
 -11   9  -5  128.59   23.30
   2   9   5  146.59   11.80
   9 -11   5  128.09   10.70
   2   9   5  131.99   10.70
   9 -11   5  126.19   11.70
  -2  -9  -5  116.99    8.00
  -9  -2   5  132.79    8.70
  11  -9   5  123.49   13.90
  -2  11   5  136.99   12.80
  -9  -2   5  127.79   12.40
  -2  11   5  133.09   10.50
  -9  11  -5  160.18   28.00
  11  -9   5  131.69   11.70
  11  -2  -5  140.19   14.60
 -11   1   5   12.90    7.80
   1  10   5    2.90    5.70
  10 -11   5   18.30    7.90
 -11  10  -5   17.30   15.70
  10 -11   5   15.00    5.90
   1  10   5    6.90    6.90
 -11   1   5    4.00    3.30
   1 -11  -5    3.10    3.50
  10   1  -5    3.90    8.70
  11 -10   5    8.00    7.90
  11  -1  -5    7.90    9.40
  -1 -10  -5    2.50    3.40
  11 -10   5    0.30    6.00
 -10  -1   5   12.00    7.90
  -1  11   5    4.60    5.80
 -10  -1   5    5.90    3.80
 -10  11  -5    7.10   16.80
  -1  11   5   16.40    7.60
 -11   0   5   35.20    5.80
   0  11   5   56.19    8.40
 -11   0   5   47.00    9.10
   0  11   5   69.19   10.70
 -11  11  -5   34.50   18.00
  11 -11   5   45.80    7.90
   0 -11  -5   39.80    5.60
  11 -11   5   43.10    9.20
  11   0  -5   48.70   10.70
  12   0   5    2.30    6.60
   0 -12   5    0.80    4.40
 -12  12   5    1.90    7.30
 -12   0  -5    1.00    3.70
   0  12  -5   -1.30   23.30
  12 -12  -5    3.80    8.10
  11   1   5  260.27   15.60
   1  11  -5  236.58   35.00
   1 -12   5  267.27   14.00
 -12  11   5  260.97   17.40
 -12   1  -5  262.87   13.20
  -1 -11   5  260.47   13.90
  12  -1   5  255.77   16.30
  -1  12  -5  251.07   33.20
 -11  -1  -5  257.77   13.00
  12 -11  -5  260.17   17.00
 -11  12   5  270.17   17.80
  10 -12  -5  157.88   12.60
 -12   2  -5  137.59    9.10
   2 -12   5  141.39   10.10
 -12  10   5  146.79   12.80
  10   2   5  141.99   11.30
 -10  12   5  131.89   12.60
  12 -10  -5  143.29   13.40
  -2 -10   5  145.99    9.40
  -2  12  -5  174.58   29.50
 -10  -2  -5  135.89    8.90
  12  -2   5  161.78   12.80
   9   3   5   20.70    6.50
   3 -12   5   15.10    5.40
 -12   3  -5   10.20    4.10
   9 -12  -5   21.60    8.20
 -12   9   5    9.10    7.30
  -3  12  -5   13.90   22.20
  -9  -3  -5   14.80    4.50
  12  -3   5   22.30    7.50
  -3  -9   5   15.00    7.50
  -3  -9   5   15.70    4.60
  -9  12   5   14.20    7.90
  12  -9  -5    6.00    8.20
 -12   4  -5   35.00    5.40
   8 -12  -5   47.30    7.90
 -12   8   5   51.59    9.50
   4 -12   5   37.80    6.70
   8   4   5   47.10    9.20
  12  -8  -5   51.09    9.80
  -4  12  -5   40.30   22.80
  -8  12   5   47.80    9.30
  -4  -8   5   58.89    9.90
  -4  -8   5   48.30    6.10
  -8  -4  -5   43.20    5.90
  12  -4   5   56.39    9.10
   7   5   5   18.20    5.60
   5 -12   5    6.90    5.20
 -12   7   5   10.40    7.30
   7   5   5   12.00    5.90
   7 -12  -5   -1.70    6.00
  -7  12   5   11.50    7.80
  12  -5   5    9.80    6.30
  -5  12  -5  -10.80   21.20
  -5  -7   5    9.20    4.30
  -7  -5  -5    0.90    3.60
  12  -7  -5   11.10    8.40
  -5  -7   5    1.80    7.60
   6 -12  -5   -5.70    6.30
   6   6   5    8.70    5.20
   6 -12   5    1.30    5.50
   6   6  -5   -5.60    7.50
   6   6   5   -0.10    5.30
 -12   6   5    0.00    6.90
  12  -6   5    3.00    6.60
  -6  -6   5   -1.50    7.60
  -6  -6  -5   -1.80    3.40
  -6  12   5    2.70    7.60
  12  -6   5   -2.10   10.90
  12  -6  -5   11.30   10.00
  -6  12  -5   -9.60   20.00
  -6  -6   5    1.00    4.00
   7   5  -5  134.39   14.90
   7 -12   5  180.08   12.70
   5   7   5  155.38   11.60
   5   7   5  174.18   12.30
 -12   5   5  176.88   13.70
   7 -12   5  167.08   10.60
  -5  -7  -5  166.18    9.60
  12  -5  -5  178.78   16.30
  12  -7   5  181.58   18.10
  12  -7   5  177.78   12.40
  -5  12   5  164.88   13.50
  -7  -5   5  180.38   10.20
  -7  -5   5  167.38   13.10
  -7  12  -5  170.38   30.40
   8   4  -5  157.28   15.70
   8 -12   5  199.48   11.70
 -12   8  -5  147.39   19.90
   8 -12   5  171.38   12.40
   4   8   5  194.08   13.30
   4   8   5  182.28   12.20
 -12   4   5  182.68   14.60
  12  -8   5  192.18   18.30
  -4  12   5  183.68   12.00
  12  -8   5  196.38   13.70
  -8  -4   5  194.48   14.20
  -4  12   5  190.68   14.10
  12  -4  -5  180.98   16.70
  -4  -8  -5  170.78   10.10
  -8  -4   5  182.38   10.80
  -8  12  -5  231.28   29.90
   9 -12   5   18.70    5.20
   3   9   5   13.90    6.50
 -12   9  -5  -26.90   13.00
 -12   3   5    1.30    3.00
 -12   3   5    2.60    7.30
   9   3  -5    3.80    9.50
   9 -12   5    2.80    6.20
   3   9   5    1.50    6.10
  12  -3  -5    8.20    8.60
  12  -9   5   -3.20    8.70
  -9  12  -5   -9.50   18.30
  -9  -3   5    5.70    7.30
  12  -9   5    5.60    6.60
  -9  -3   5    5.50    4.00
  -3  -9  -5   -3.10    3.40
  -3  12   5   12.10    7.90
  -3  12   5    3.60    5.40
   2  10   5   64.79    8.60
 -12  10  -5   86.19   16.80
 -12   2   5   81.29   10.80
  10 -12   5   66.09   10.10
 -12   2   5   66.19    6.20
   2  10   5   83.69   10.90
  10   2  -5   75.49   14.30
  10 -12   5   90.39    8.90
  12 -10   5   82.69   14.20
  12 -10   5   73.19   10.30
  12  -2  -5   71.49   11.70
  -2  12   5   68.29    8.90
 -10  -2   5   71.59   11.80
  -2 -10  -5   61.99    6.40
 -10  12  -5  101.89   21.40
  -2  12   5  100.29   12.00
 -10  -2   5   70.99    6.80
 -12   1   5   41.30    9.40
   1  11   5   58.49   10.70
  11   1  -5   33.20   11.30
   1  11   5   33.70    7.00
  11 -12   5   25.80    7.30
  11 -12   5   42.30    9.60
 -12  11  -5   52.79   16.30
   1 -12  -5   28.60    4.50
 -12   1   5   35.60    5.60
 -11  -1   5   36.20    5.70
  12 -11   5   32.70    9.50
  -1  12   5   43.80    8.90
  12 -11   5   54.09    9.70
  -1 -11  -5   26.20    4.80
  -1  12   5   42.00    7.90
 -11  -1   5   27.40    8.70
  12  -1  -5   37.20   10.10
 -11  12  -5   25.10   17.40
  12 -12   5   12.40    6.60
   0  12   5   16.00    7.80
   0 -12  -5    2.00    3.80
 -12   0   5    4.30    3.80
   0  12   5   12.00    6.30
  12 -12   5    2.00    8.10
  12   0  -5    7.10   10.60
 -12  12  -5   17.00   15.40
 -12   0   5    5.80    7.70
  13 -13  -5  475.95   25.50
 -13  13   5  447.96   24.70
  13   0   5  444.36   23.00
 -13   0  -5  457.65   20.80
   0  13  -5  432.66   38.30
 -13   1  -5  384.76   17.30
   1 -13   5  349.77   17.70
  -1 -12   5  351.76   17.60
 -12  -1  -5  377.76   17.40
 -12  13   5  321.37   27.40
  -1  13  -5  293.27   47.80
   2  11  -5  -33.30   24.50
  11   2   5    2.40    6.30
 -13   2  -5    1.60    4.00
  11 -13  -5    9.20    8.90
 -13  11   5   -4.00    7.20
   2 -13   5    2.10    4.60
  -2  13  -5  -16.90   20.70
  -2 -11   5    5.70    4.40
 -11  -2  -5    5.50    4.10
  13 -11  -5    6.10    8.70
 -11  13   5    0.60    7.20
  13  -2   5    2.50    6.70
 -13  10   5  112.49   11.60
   3 -13   5  117.19    9.00
 -13   3  -5  119.39    8.10
  10 -13  -5  110.49   11.50
  10   3   5  121.49   10.50
 -10  -3  -5  124.59    8.40
 -10  13   5  123.99   12.10
  13  -3   5  123.99   11.10
  -3  13  -5   97.99   24.90
  -3 -10   5  118.09    8.80
  13 -10  -5  122.29   13.70
 -13   4  -5  148.99    9.20
 -13   9   5  144.99   13.60
   9   4   5  136.79   11.40
   9 -13  -5  139.29   12.30
   4 -13   5  123.29    9.70
  -4  13  -5  171.38   29.10
  -9  13   5  160.48   14.30
  13  -9  -5  161.18   14.10
  13  -4   5  162.88   13.00
  -4  -9   5  141.79   13.60
  -9  -4  -5  134.29    9.00
  -4  -9   5  145.79    9.70
   5 -13   5   24.00    5.60
   8 -13  -5   22.60    7.20
 -13   8   5   28.60    8.50
   8   5   5   27.40    6.70
 -13   5  -5   29.60    4.90
  -8  13   5   42.10    8.90
  -8  -5  -5   19.00    4.60
  -5  13  -5    6.90   21.20
  13  -8  -5   26.40    9.90
  -5  -8   5   34.60    6.20
  -5  -8   5   37.30    8.90
  13  -5   5   36.00    7.40
   7   6   5   23.20    6.40
 -13   7   5    4.90    7.70
   6 -13   5    9.10    5.40
   7 -13  -5    5.90    6.20
   7   6   5   17.20    6.80
  -6  -7   5    8.60    4.20
  -7  13   5    9.80    7.80
  -7  -6  -5    4.90    4.10
  13  -6   5   13.50    6.70
  -6  -7   5    8.60    7.50
  13  -7  -5   20.20   10.40
  -6  13  -5   21.00   20.80
   6   7   5   28.90    6.60
   6 -13  -5   14.20    6.80
   7   6  -5    2.40    8.70
   6   7   5   11.10    5.80
   7 -13   5   12.50    5.80
 -13   6   5    8.80    7.90
  13  -6  -5   14.60    9.10
  -6  -7  -5   13.20    4.30
  -7  -6   5   18.40    7.90
  -6  13   5   20.40    8.00
  -7  13  -5   13.50   19.00
  13  -7   5   21.60   12.00
  -7  -6   5   10.80    4.20
  13  -7   5   23.00    7.80
 -13   5   5   27.10    8.20
   5   8   5   27.10    7.30
   8 -13   5   23.70    6.70
   8   5  -5    7.80    9.50
   5   8   5   15.20    6.90
  13  -5  -5   24.60    9.50
  13  -8   5   19.80    7.00
  -8  -5   5   22.90    5.00
  -5  13   5   22.40    8.40
  13  -8   5   12.40   11.00
  -5  -8  -5   21.50    4.30
  -8  -5   5   16.40    8.20
  -8  13  -5   10.80   20.30
   9 -13   5  173.58   11.60
   9 -13   5  156.58   12.30
   9   4  -5  140.99   16.70
 -13   9  -5  145.39   20.20
 -13   4   5  173.38   13.80
   4   9   5  174.78   12.70
   4   9   5  191.58   13.30
  13  -9   5  176.78   13.90
  -9  -4   5  167.28   13.70
  13  -4  -5  170.48   17.60
  -4  -9  -5  149.79    9.70
  13  -9   5  166.98   19.40
  -4  13   5  187.48   14.30
  -9  13  -5  175.98   26.70
  -4  13   5  180.58   12.20
  -9  -4   5  171.98   10.50
  10 -13   5   93.49   10.70
 -13  10  -5   29.40   15.00
 -13   3   5   82.39   12.40
   3  10   5  100.59   11.70
   3  10   5   89.29    9.60
 -13   3   5   74.99    9.30
  10   3  -5   76.99   13.10
  10 -13   5   81.69    9.50
  -3 -10  -5   73.99    6.80
  13  -3  -5  100.49   14.10
  13 -10   5   84.09   11.60
  -3  13   5   72.59    9.00
 -10  13  -5   59.89   21.80
  13 -10   5   76.59   13.10
 -10  -3   5   73.29    7.30
 -10  -3   5   82.49   10.90
  -3  13   5   92.69   12.90
   2  11   5   29.90    8.40
 -13   2   5    4.30    7.70
   2  11   5   10.40    6.00
  11 -13   5   11.90    6.40
 -13  11  -5  -16.10   13.90
 -13   2   5   11.70    3.60
  11   2  -5   -2.00   11.00
  11 -13   5    2.50    6.80
 -11  13  -5   15.60   16.60
 -11  -2   5    6.20    4.10
  13  -2  -5    1.20   10.10
  -2 -11  -5    0.40    4.30
  -2  13   5   27.40    8.70
 -11  -2   5   -3.80    8.10
  13 -11   5    9.60    9.20
  -2  13   5    8.40    6.00
  13 -11   5   15.60    7.60
 -13  12  -5   -2.70   14.50
   1  12   5   10.40    6.40
  12 -13   5   21.10    6.50
  12   1  -5    0.60   11.90
 -13   1   5    0.90    7.50
   1  12   5   34.40    8.80
 -13   1   5    4.70    4.00
 -12  -1   5   10.40    8.70
 -12  13  -5    4.10   16.30
  13 -12   5   13.80    7.30
  -1  13   5    3.60    6.20
  13  -1  -5    3.00   11.00
 -12  -1   5    7.30    4.60
  13 -12   5    1.80   14.80
  -1 -12  -5    4.10    4.10
  -1  13   5   21.20    8.60
  13 -13   5    9.80    9.30
   0 -13  -5    6.90    4.20
  13   0  -5   12.00   12.10
  13 -13   5   15.20    7.00
 -13  13  -5   -2.60   14.90
 -13   0   5   11.30    4.70
   0  13   5   20.50    8.40
  14 -14  -5  212.28   17.00
   0 -14   5  204.58   12.30
   0  14  -5  209.98   31.80
 -14   0  -5  227.08   12.20
  14   0   5  223.48   14.70
 -14  14   5  208.88   15.80
  13   1   5   18.10    6.90
  13 -14  -5    8.20    9.10
 -14   1  -5   18.30    4.50
   1 -14   5   21.20    5.10
   1  13  -5   20.40   22.60
 -14  13   5   12.10    8.10
  -1 -13   5   23.40    5.50
  -1  14  -5   22.90   22.90
  14 -13  -5   20.00    9.40
  14  -1   5   20.00    7.60
 -13  14   5   20.00    8.10
  12 -14  -5  364.66   21.30
 -14   2  -5  393.06   21.40
   2 -14   5  385.86   19.00
 -14  12   5  363.86   21.80
   2  12  -5  368.26   38.40
 -12  -2  -5  385.96   18.00
  14  -2   5  417.16   21.50
  -2  14  -5  408.36   38.30
  -2 -12   5  343.17   19.50
  14 -12  -5  402.26   23.60
 -12  14   5  387.26   21.90
 -14  11   5  186.18   14.50
 -14   3  -5  184.08   13.10
  11   3   5  200.68   13.40
  11 -14  -5  205.58   15.20
   3  11  -5  196.48   32.60
  -3 -11   5  199.58   11.60
 -11  -3  -5  213.18   11.40
  -3  14  -5  212.78   34.00
 -11  14   5  198.58   15.20
   4 -14   5   16.60    6.10
 -14   4  -5   24.30    4.90
 -10  14   5   31.10   12.70
  14 -10  -5   30.20   11.40
  -4 -10   5   24.60    5.40
 -10  -4  -5   26.40    5.10
  -4  14  -5   24.20   21.70
  14  -4   5   24.50    8.00
 -14   5  -5  122.79    8.30
   9   5   5  122.09   15.40
 -14   9   5  123.29   11.90
   9 -14  -5  131.09   13.60
   5 -14   5  122.49   10.00
  14  -5   5  135.09   13.00
  -9  14   5  126.79   13.80
  14  -9  -5  114.79   14.70
  -9  -5  -5  132.49    8.80
  -5  -9   5  128.99    8.90
  -5  -9   5  108.99   15.40
  -5  14  -5  128.59   25.80
   8 -14  -5   19.70    7.20
   8   6   5   22.60    6.70
 -14   6  -5   23.30    4.70
 -14   8   5   27.70    8.40
   6 -14   5   28.20    6.20
  -8  14   5   22.90    8.60
  -6  14  -5   23.20   21.50
  -6  -8   5   29.40    5.40
  -6  -8   5   25.60    8.40
  14  -8  -5   25.40    9.70
  -8  -6  -5   19.70    4.60
  14  -6   5   26.60    7.50
   7   7   5   44.50    8.20
   7 -14  -5   31.40    8.10
 -14   7   5   40.20    8.90
   7 -14   5   38.80    6.80
  -7  14   5   43.60    9.50
  -7  -7   5   42.90    6.80
  -7  14  -5   30.00   20.70
  -7  -7   5   55.39    9.80
  14  -7  -5   44.30   10.80
  -7  -7  -5   37.70    6.30
  14  -7   5   53.79   10.00
   8 -14   5   54.89    8.70
   6   8   5   68.79    8.70
 -14   6   5   72.79   11.90
   6   8   5   94.69   10.20
   6 -14  -5   82.09   10.10
  -8  -6   5   65.09   10.60
  14  -8   5   50.99   13.80
  -6  -8  -5   65.59    6.90
  14  -8   5   82.39   12.00
  14  -6  -5   77.39   13.70
  -8  -6   5   67.79    7.40
  -8  14  -5   76.39   21.90
  -6  14   5   75.19   11.50
   5   9   5   26.90    7.10
 -14   5   5   32.30    9.10
   5   9   5   57.69    9.10
   9 -14   5   18.90    7.60
   9   5  -5   41.60   11.50
  -9  -5   5   34.60    9.20
  14  -9   5   36.50   14.20
  -5  14   5   46.20    9.70
  -5  -9  -5   21.10    4.80
  -9  -5   5   39.20    5.80
  14  -9   5   37.70    8.30
  -9  14  -5   45.30   20.90
  14  -5  -5   31.90   11.20
  10   4  -5   40.70   12.20
   4  10   5   62.89   10.50
   4  10   5   31.50    8.00
 -14   4   5   39.00    9.10
  -4 -10  -5   38.90    6.40
  14  -4  -5   52.49   13.20
 -10  -4   5   48.60    7.00
 -10  14  -5   72.69   19.90
  14 -10   5   45.50    8.90
  -4  14   5   68.29   12.00
  -4  14   5   47.00    9.10
 -10  -4   5   40.90    9.20
  11 -14   5  165.78   13.90
 -14   3   5  150.18   13.90
  11 -14   5  180.98   12.40
  11   3  -5  187.38   19.70
 -11  -3   5  167.98   10.80
  14 -11   5  165.38   16.90
  14  -3  -5  155.68   17.80
  -3  14   5  209.48   15.30
  -3 -11  -5  145.39   10.20
 -11  14  -5  196.98   25.80
  14 -11   5  167.38   14.60
   2  12   5   62.79   11.40
 -14   2   5   30.30    5.30
 -14  12  -5   15.10   14.00
  12   2  -5   43.40   12.40
  12 -14   5   33.20    8.90
   2  12   5   32.00    7.40
  12 -14   5   34.40    7.90
 -12  -2   5   40.80    5.90
  -2  14   5   38.10    9.60
 -12  14  -5    7.30   18.20
  -2  14   5   35.20    7.30
  14 -12   5   42.70    9.30
  14 -12   5   37.80   10.90
 -12  -2   5   32.50   10.40
  14  -2  -5   43.40   12.20
  -2 -12  -5   29.70    5.20
  13 -14   5    7.70    8.40
 -14  13  -5   -5.40   14.00
  13   1  -5   23.10   12.40
   1  13   5   26.60    8.50
 -14   1   5    3.20    4.10
 -14   1   5    8.90    8.30
  13 -14   5   23.40    7.40
   1  13   5   13.80    6.60
 -13  -1   5   11.80    4.80
  14 -13   5    7.00    8.20
  -1 -13  -5   -2.20    4.00
  -1  14   5   11.20    8.60
 -13  14  -5    1.60   14.90
  14  -1  -5   15.00   13.00
  -1  14   5   17.10    6.70
 -13  -1   5   -3.50    7.70
  14 -13   5   -1.00    8.80
  14 -14   5   11.50    8.40
 -14   0   5   -2.50    7.90
   0  14   5    3.50    6.30
  14   0  -5   22.20   13.30
 -14   0   5    3.50    4.50
   0  14   5   14.00    9.40
 -14  14  -5   -8.20   14.40
  14 -14   5    5.50    9.20
   0  15  -5   -8.70   21.30
 -15  15   5   26.20    9.40
  15 -15  -5   11.40   10.00
   0 -15   5   18.10    5.30
 -15   0  -5   15.40    4.90
  15   0   5   14.50    7.30
   1  14  -5  251.67   36.00
  14   1   5  271.97   16.40
 -15   1  -5  271.87   14.00
 -15  14   5  262.97   18.10
  14 -15  -5  269.87   19.80
   1 -15   5  263.37   14.30
  -1  15  -5  265.17   34.50
 -14  15   5  246.68   17.20
  -1 -14   5  249.97   14.10
  15 -14  -5  269.47   19.70
 -14  -1  -5  278.97   14.00
  13   2   5  196.18   13.60
 -15   2  -5  202.28   10.90
   2  13  -5  194.88   31.00
 -15  13   5  178.68   14.70
  13 -15  -5  205.08   15.60
   2 -15   5  177.68   11.60
 -13  15   5  183.18   14.50
  -2  15  -5  173.18   29.80
  -2 -13   5  192.68   11.80
  15 -13  -5  213.68   17.30
 -13  -2  -5  190.98   10.80
  15  -2   5  190.38   14.10
   3 -15   5   23.90    5.60
 -15   3  -5   19.40    4.70
  12 -15  -5   26.20    9.00
   3  12  -5   25.30   24.00
  12   3   5   51.49    9.30
 -15  12   5   21.20    8.30
  15  -3   5   27.10    7.70
 -12  15   5   42.20    9.20
 -12  -3  -5   24.50    7.70
  -3  15  -5   36.60   22.10
  -3 -12   5   22.30    5.60
  15 -12  -5   23.20   11.50
 -15   4  -5  190.48   10.80
  11   4   5  197.48   13.50
   4  11  -5  167.08   32.40
  11 -15  -5  208.68   15.20
 -15  11   5  193.88   15.30
   4 -15   5  200.18   12.10
 -11  15   5  211.78   16.00
 -11  -4  -5  193.38   11.30
  -4 -11   5  199.08   12.70
  15  -4   5  188.18   14.20
  -4  15  -5  165.28   28.80
  15 -11  -5  188.98   16.90
 -15  10   5  151.58   13.60
 -15   5  -5  131.29    8.70
   5 -15   5  129.39   10.40
  10 -15  -5  122.59   12.50
  10   5   5  136.09   11.50
 -10  -5  -5  132.59    9.00
  15 -10  -5  142.89   15.50
  -5  15  -5  129.19   30.00
 -10  15   5  121.99   12.80
  -5 -10   5  132.89    9.70
 -15   9   5   57.79   10.40
   6 -15   5   78.79    8.40
   9 -15  -5   66.39   10.60
   9   6   5   62.29    9.50
 -15   6  -5   67.09    6.70
  15  -6   5   73.59   11.00
  15  -9  -5   86.69   16.60
  -6  -9   5   71.69   11.30
  -6  15  -5   89.89   23.40
  -9  -6  -5   76.09    7.50
  -6  -9   5   63.09    7.20
  -9  15   5   81.19   11.50
   7 -15   5   64.49    8.50
 -15   7  -5   69.99    6.90
   8   7   5   88.79    9.70
   8 -15  -5   80.59   11.60
 -15   8   5   65.89   10.90
  -7  -8   5   82.79   12.30
  -7  -8   5   80.69    8.10
  -8  -7  -5   76.69    7.30
  15  -7   5   79.79   11.40
  15  -8  -5   80.29   14.50
  -7  15  -5   53.29   20.70
   7   8   5    2.00    5.80
   7 -15  -5    0.50    6.80
 -15   7   5   -4.50   13.00
   8 -15   5    2.50    5.40
  -8  15  -5   -5.30   19.20
  -8  -7   5    3.10    7.70
  -8  -7   5    3.00    4.40
  15  -7  -5    5.10   12.00
  15  -8   5    5.00    8.40
  -7  -8  -5    6.00    4.50
  -7  15   5    6.20    8.80
   9 -15   5   48.20    8.10
   6   9   5   42.20    7.60
   6 -15  -5   37.40    8.50
 -15   6   5   36.50   15.10
  -6  15   5   59.69   11.20
  -6  -9  -5   36.60    6.60
  15  -9   5   55.29   10.40
  -9  -6   5   42.50    9.40
  15  -6  -5   46.20   13.20
  -9  -6   5   46.30    7.10
  -9  15  -5   49.00   21.30
  15  -9   5   62.59   14.90
 -15   5   5  150.78   15.30
   5  10   5  198.78   14.80
  10 -15   5  192.78   14.00
   5  10   5  175.88   12.70
  -5 -10  -5  176.68   10.90
 -10  15  -5  195.98   27.90
 -10  -5   5  199.88   12.00
  15  -5  -5  224.58   18.60
  -5  15   5  199.28   16.10
 -10  -5   5  197.58   15.50
  15 -10   5  193.48   15.50
  15 -10   5  185.88   19.70
 -15   4   5  107.09   13.20
  11   4  -5  107.09   18.60
  11 -15   5   94.89   11.90
   4  11   5  129.79   12.90
   4  11   5   97.19   10.00
  -4  15   5   94.09   10.10
  15 -11   5  105.69   18.40
  15  -4  -5  123.19   16.30
  -4 -11  -5   69.59    8.20
  15 -11   5  107.89   13.20
  -4  15   5   95.59   12.50
 -11  -4   5   93.19    8.80
 -11  -4   5   72.89   11.10
 -11  15  -5   83.09   19.90
   3  12   5   46.30    8.70
 -15   3   5   46.00   10.00
  12   3  -5   67.19   13.80
  12 -15   5   46.70    8.20
  12 -15   5   38.50    8.80
  -3  15   5   32.40    7.40
 -12  -3   5   41.80    9.50
 -12  15  -5   28.80   17.40
  15 -12   5   35.80   11.60
  15  -3  -5   44.40   12.70
  15 -12   5   62.09   12.20
  -3 -12  -5   41.30    5.80
 -12  -3   5   50.19    7.30
  -3  15   5   75.49   13.60
   2  13   5   99.79   10.40
 -15   2   5   97.29   12.00
  13 -15   5  100.19   14.00
  13   2  -5  150.98   18.60
   2  13   5  146.39   13.90
 -15   2   5  105.49    8.60
  15 -13   5  133.59   13.60
  -2 -13  -5   74.79    8.50
 -13  15  -5  117.59   19.30
 -13  -2   5   87.29   12.00
  15  -2  -5  105.59   19.70
  15 -13   5   89.79   16.10
  -2  15   5  113.49   11.60
 -13  -2   5  103.29    9.00
  -2  15   5  117.79   14.50
  14 -15   5   35.00   10.00
 -15   1   5   52.59    7.40
 -15  14  -5  -14.60   16.10
  14   1  -5   55.19   14.30
   1  14   5   66.19   11.80
   1  14   5   42.90    7.80
  14 -15   5   38.30    8.90
 -15   1   5   26.20   10.20
  15  -1  -5   30.00   12.70
 -14  15  -5   25.60   14.90
 -14  -1   5   41.30    7.40
  -1  15   5   38.80    8.30
  -1  15   5   48.00   11.80
  15 -14   5   71.89   12.00
 -14  -1   5   21.50    9.10
  -1 -14  -5   28.20    5.30
  15 -14   5   29.90   10.80
 -15   0   5   23.00    9.70
 -15   0   5   28.40    5.70
   0  15   5   26.50    8.00
  15 -15   5   18.70    9.70
   0  15   5   35.30   11.00
  15   0  -5   44.90   14.50
  15 -15   5   32.70    9.70
   0 -16   5  146.59   10.50
  16 -16  -5  142.09   16.10
  16   0   5  152.78   13.10
 -16   0  -5  148.49    9.90
 -16  16   5  134.99   13.50
   0  16  -5  112.89   25.10
   1 -16   5   96.59    8.90
  15 -16  -5   86.59   14.60
   1  15  -5   83.29   23.70
  15   1   5  108.59   11.00
 -16  15   5   94.39   11.80
 -16   1  -5  100.59    8.40
  16 -15  -5   99.79   14.80
 -15  16   5   84.29   12.60
  -1  16  -5   64.89   23.10
  16  -1   5  111.89   12.90
  -1 -15   5  104.99    8.90
 -15  -1  -5  101.49    8.60
 -16   2  -5   19.10    5.00
   2  14  -5    9.20   23.60
  14 -16  -5    2.80    9.30
  14   2   5   15.40    7.50
   2 -16   5   20.00    5.60
 -16  14   5   25.50    8.60
 -14  16   5   18.80    8.20
  -2 -14   5   14.00    4.90
  -2  16  -5   15.30   22.60
 -14  -2  -5    8.50    4.90
  16 -14  -5   15.60   10.50
  16  -2   5   23.70    7.50
   3 -16   5  225.88   13.30
 -16  13   5  210.08   16.60
 -16   3  -5  227.88   12.40
   3  13  -5  201.88   31.50
  13   3   5  245.78   15.70
  13 -16  -5  220.78   16.40
  -3 -13   5  226.48   13.20
 -13  16   5  223.88   17.00
  16 -13  -5  204.18   18.00
  -3  16  -5  231.98   31.00
  16  -3   5  239.98   15.60
 -13  -3  -5  219.98   12.60
 -16  12   5   99.99   11.50
  12   4   5   90.39   10.60
  12 -16  -5  110.39   12.60
   4 -16   5  100.89    8.70
   4  12  -5   67.39   26.50
 -16   4  -5  106.59    8.20
  16  -4   5  106.49   11.70
 -12  -4  -5   92.59    7.90
  -4 -12   5   93.59    8.30
  -4  16  -5  108.19   23.60
  16 -12  -5   93.59   15.10
 -12  16   5   92.29   12.30
 -16  11   5   35.50    9.30
  11 -16  -5   21.00    9.00
   5  11  -5   41.40   25.30
   5 -16   5   31.30    6.20
  11   5   5   27.20    7.50
 -16   5  -5   23.10    5.00
  16  -5   5   26.90    8.50
  -5  16  -5   28.60   20.50
  16 -11  -5   14.60   10.90
  -5 -11   5   24.10    5.50
 -11  -5  -5   19.00    5.70
 -11  16   5   23.50    9.20
 -16   6  -5  135.89    8.80
  10 -16  -5  120.59   12.50
 -16  10   5  116.89   12.40
   6 -16   5  129.49   10.00
  10   6   5  147.09   12.40
  16 -10  -5  138.49   16.50
 -10  -6  -5  129.89    9.40
  -6  16  -5  168.38   26.90
 -10  16   5  150.08   14.40
  16  -6   5  134.09   13.20
   9   7   5    9.80    6.30
 -16   9   5    5.60    8.00
   7 -16   5    7.80    5.80
 -16   7  -5    6.70    4.40
   9 -16  -5   12.60    8.70
  -7  -9   5    8.90    5.10
  16  -7   5   13.30    9.30
  -9  16   5    7.00    8.40
  -9  -7  -5   10.60    4.60
  -7  16  -5   14.40   33.70
  16  -9  -5   20.30   12.70
   8 -16   5   80.49    9.70
   8 -16  -5   87.09   10.80
 -16   8  -5   68.79    7.00
   8   8   5   69.49    9.50
 -16   8   5   83.99   11.00
  -8  16  -5   76.89   22.70
  -8  16   5   86.79   12.20
  -8  -8   5   74.89    8.10
  -8  -8   5   92.39   11.40
  16  -8  -5   82.09   15.70
  -8  -8  -5   81.49    7.70
   7   9   5  154.48   12.60
 -16   7   5  146.79   13.70
   7 -16  -5  157.68   12.40
   9 -16   5  149.59   11.70
  -7  16   5  161.78   14.30
  16  -9   5  156.28   13.90
  -9  -7   5  147.79   13.70
  -7  -9  -5  150.78   10.10
  -9  -7   5  159.28   10.90
  -9  16  -5  152.38   28.20
 -16   6   5   61.99   10.90
   6  10   5   90.29   11.10
   6  10   5   90.29   12.80
  10 -16   5   64.19    9.40
   6 -16  -5   89.69   10.60
  -6  16   5   74.19   12.10
 -10  -6   5   77.99   12.10
 -10  -6   5   72.59    8.40
 -10  16  -5   63.89   20.80
  -6 -10  -5   69.69    7.60
  16  -6  -5   74.39   14.50
  16 -10   5   93.99   13.30
  16 -10   5   78.09   14.90
 -16   5   5   21.10    8.50
  11 -16   5   16.10    6.90
   5  11   5   38.00    8.10
 -11  -5   5   33.40    9.60
 -11  16  -5   25.80   20.40
  16 -11   5   40.50   10.00
 -11  -5   5   23.20    5.60
  16  -5  -5   40.70   14.10
  16 -11   5   34.70   13.20
  -5  16   5   33.00   10.40
  -5 -11  -5   20.90    5.50
  12 -16   5  211.88   15.40
   4  12   5  280.27   17.70
  12   4  -5  245.48   21.00
   4  12   5  256.57   15.70
 -16   4   5  200.78   15.90
 -12  -4   5  219.38   16.90
  16 -12   5  243.58   16.30
 -12  -4   5  221.08   13.50
  16 -12   5  252.67   21.10
  16  -4  -5  234.18   23.60
 -12  16  -5  212.48   25.70
  -4 -12  -5  208.28   12.80
  -4  16   5  177.28   25.50
  13 -16   5  111.49   12.40
  13   3  -5  119.09   20.20
   3  13   5  130.89   12.00
 -16   3   5  128.59   14.20
 -13  -3   5  116.29   13.50
 -13  -3   5  118.39   10.10
  16 -13   5  109.09   18.50
  -3  16   5  125.79   11.40
  -3 -13  -5  107.79    9.30
  16  -3  -5  121.39   18.00
 -13  16  -5   99.59   20.20
  16 -13   5  136.79   12.80
   2  14   5   76.99   13.50
   2  14   5   58.39   10.60
  14   2  -5   46.10   14.80
  14 -16   5   47.20    9.60
 -16   2   5   42.50   10.00
  -2 -14  -5   57.99    7.40
  16  -2  -5   44.40   16.10
  -2  16   5   47.50    8.10
 -14  -2   5   50.59   10.90
 -14  -2   5   39.00    6.50
 -14  16  -5   80.39   17.20
  16 -14   5   46.30   12.50
 -16   1   5   27.60    9.10
  15 -16   5   28.20    9.60
  15 -16   5   45.80   10.20
  15   1  -5   32.50   14.90
 -16   1   5   30.90    6.20
   1  15   5   35.40   11.30
   1  15   5   28.90    8.10
  16 -15   5   29.40   11.60
 -15  -1   5   32.20    6.50
  16  -1  -5   64.49   15.50
 -15  -1   5   38.10    9.40
  -1  16   5   63.49   18.10
  16 -15   5   54.49   10.90
  -1  16   5   34.70    8.10
  16 -16   5   31.00   10.00
 -16   0   5   24.30    9.00
   0  16   5   29.50    7.80
   0  16   5   50.99   14.00
  16   0  -5   26.20   15.10
 -16   0   5   43.10    7.30
   0  17  -5   30.60   20.80
  17 -17  -5   29.70   11.10
 -17  17   5   26.10    9.00
 -17   0  -5   33.10    6.00
   0 -17   5   26.20    5.90
  17   0   5   30.40    9.20
   1  16  -5   -4.40   21.00
 -17  16   5    7.80    8.00
 -17   1  -5    5.00    4.40
  16   1   5   13.30    7.00
   1 -17   5    7.90    4.70
  16 -17  -5    9.30   10.00
  17 -16  -5   16.10   12.20
 -16  17   5   11.80    8.60
  -1 -16   5    4.10    5.00
  17  -1   5   13.00    7.30
 -16  -1  -5    6.30    4.90
  -1  17  -5    6.90   20.80
 -17   2  -5  105.39    8.10
   2  15  -5   89.59   24.00
   2 -17   5   94.99    8.60
 -17  15   5  113.19   12.10
  15 -17  -5  108.19   14.60
  15   2   5  102.09   11.20
  17 -15  -5  103.19   15.50
  -2  17  -5  125.19   24.20
  -2 -15   5  105.19    8.50
 -15  17   5  106.49   12.10
  17  -2   5  114.09   11.90
 -15  -2  -5   98.09    8.60
 -17  14   5   72.99   11.40
 -17   3  -5   71.59    7.10
   3 -17   5   83.19    8.10
   3  14  -5   82.19   26.00
  14   3   5   90.89   10.80
  14 -17  -5   94.29   13.60
  17 -14  -5   84.49   15.10
 -14  17   5   88.39   11.80
  -3 -14   5   82.09    8.50
  17  -3   5   85.09   11.30
  -3  17  -5   93.59   23.20
 -14  -3  -5   82.59    7.60
   4  13  -5   39.10   22.70
  13   4   5   35.00    7.70
 -17  13   5   32.40    9.20
  13 -17  -5   30.10    9.50
   4 -17   5   47.50    7.80
 -17   4  -5   32.30    5.90
 -13  17   5   42.70    9.50
  -4 -13   5   45.00    7.50
  17 -13  -5   28.50   11.70
 -13  -4  -5   38.10    7.10
  -4  17  -5   23.90   19.50
  17  -4   5   55.89   10.50
  12   5   5   96.09   10.70
   5 -17   5   94.89    8.90
   5  12  -5  100.39   27.70
 -17  12   5   89.09   11.60
 -17   5  -5   99.49    7.60
  12 -17  -5   88.69   12.50
  -5 -12   5  101.59    8.30
  17 -12  -5  111.99   16.40
 -12  17   5  112.49   13.50
 -12  -5  -5  109.59    8.90
  17  -5   5  106.79   12.40
  -5  17  -5  102.89   23.00
   6  11  -5   -5.30   23.50
  11   6   5   54.79   10.30
 -17  11   5   22.30    8.80
 -17   6  -5   30.30    5.30
   6 -17   5   29.50    6.10
  11 -17  -5   31.20    9.60
  -6 -11   5   31.90    6.30
 -11  -6  -5   28.80    5.40
 -11  17   5   21.20    8.90
  17  -6   5   37.40    9.50
  17 -11  -5   40.40   12.70
  -6  17  -5   28.40   20.70
  10 -17  -5   69.99   12.90
 -17  10   5   80.49   11.40
   7  10  -5   64.59   29.50
  10   7   5   74.29   10.00
   7 -17   5   79.29    8.80
 -17   7  -5   80.09    7.70
  17 -10  -5   66.29   13.60
  -7  17  -5   70.89   20.90
 -10  17   5   98.09   12.30
  17  -7   5   79.49   11.70
  -7 -10   5   80.09    7.80
 -17   9   5  121.99   12.70
   9 -17  -5  129.99   12.70
   8 -17   5  128.09   11.30
 -17   8  -5  146.89    9.20
   9   8   5  154.18   12.60
  17  -9  -5  151.48   17.90
  17  -8   5  145.39   13.70
  -8  17  -5  150.08   25.80
  -8  -9   5  142.79   10.40
  -9  17   5  145.19   14.70
  -9  -8  -5  131.39    9.90
 -17   9  -5   35.30    6.50
   8   9   5   37.40    7.30
   8 -17  -5   41.50    8.70
   9 -17   5   34.70    7.00
 -17   8   5   41.00    9.50
  17  -9   5   51.39   10.60
  -8  -9  -5   39.20    7.20
  -8  17   5   41.90    9.90
  -9  17  -5   34.10   22.20
  -9  -8   5   33.70    9.10
  17  -8  -5   31.90   14.50
   7  10   5   23.10    6.90
  10 -17   5   19.60    6.90
 -17   7   5   26.90    9.00
   7 -17  -5   15.40    7.80
 -10  17  -5    8.70   18.60
  -7  17   5   31.00    9.70
  17 -10   5   39.40    9.30
  -7 -10  -5   29.60    5.80
  17  -7  -5   18.80   14.00
 -10  -7   5   17.50    8.60
 -10  -7   5   23.50    5.90
 -17   6   5  202.68   15.70
  11 -17   5  221.08   15.20
   6  11   5  228.98   14.20
   6 -17  -5  235.98   15.70
 -11  -6   5  220.58   13.30
  -6 -11  -5  221.38   12.80
 -11  17  -5  192.28   24.90
  17  -6  -5  242.28   23.40
 -11  -6   5  216.98   16.60
  17 -11   5  182.28   21.20
  -6  17   5  222.38   17.10
  12 -17   5  135.39   13.40
   5  12   5  157.28   11.90
 -17   5   5  139.09   13.50
   5 -17  -5  146.79   12.40
 -12  -5   5  125.99   14.00
 -12  17  -5  148.39   24.30
  -5  17   5  132.89   14.50
  17 -12   5  165.88   14.10
  17  -5  -5  154.88   19.70
  17 -12   5  108.09   18.90
 -12  -5   5  143.39   10.90
  -5 -12  -5  140.09   10.20
 -17   4   5   44.60    9.80
   4  13   5   61.69    9.20
  13 -17   5   46.80    9.10
 -13  -4   5   67.19   12.40
  -4  17   5   70.99   12.40
 -13  17  -5   41.00   18.40
  17 -13   5   78.99   15.20
  17 -13   5   73.09   12.00
  -4 -13  -5   48.20    8.20
 -13  -4   5   68.19    8.60
   3  14   5  192.58   17.30
  14 -17   5  156.88   14.60
   3  14   5  156.28   12.50
 -17   3   5  165.68   15.00
  -3 -14  -5  157.28   11.00
  -3  17   5  171.58   13.00
 -14  -3   5  164.18   11.60
  -3  17   5  169.58   15.50
  17 -14   5  195.08   15.20
 -14  -3   5  154.88   14.00
  17 -14   5  156.98   20.60
 -14  17  -5  185.38   24.10
   2  15   5   89.59   14.80
  15 -17   5   39.90    9.80
  15   2  -5   63.09   14.60
   2  15   5   49.30    9.70
 -17   2   5   49.70   11.40
 -15  17  -5    4.70   17.00
 -15  -2   5   47.70   10.00
  17  -2  -5   66.19   15.20
  -2 -15  -5   47.00    7.00
 -15  -2   5   51.19    8.80
  -2  17   5  100.09   14.60
  17 -15   5   48.40   13.10
  -2  17   5   63.29    9.70
  16 -17   5   50.59   11.40
   1  16   5   21.20    7.40
 -17   1   5   36.90    9.90
 -17   1   5   10.10    5.90
   1  16   5   34.70   12.40
  16 -17   5   11.00    8.90
  17  -1  -5   17.50   15.60
 -16  -1   5   17.20    6.30
  -1  17   5   23.30    7.20
 -16  -1   5   17.80    9.50
 -16  17  -5   48.20   14.80
  17 -16   5   12.30   10.90
 -17   0   5   -5.40    6.10
   0  17   5    6.40    6.70
  17 -17   5   -3.70    9.00
   0  17   5   25.50   10.70
  17   0  -5    8.30   14.10
 -17   0   5   10.80    8.50
   0  18  -5   26.00   21.20
   0 -18   5    5.00    5.30
  18 -18  -5  -13.30   10.60
  18   0   5   13.90    8.90
 -18  18   5    4.90    8.30
 -18   0  -5    6.00    5.00
   1 -18   5   11.10    5.00
  17   1   5   16.40    7.60
  17 -18  -5   23.60   11.10
   1  17  -5    2.30   19.40
 -18   1  -5   14.60    5.10
 -18  17   5   12.20    8.40
  18  -1   5   15.90    7.70
 -17  18   5   18.10    8.90
 -17  -1  -5   23.80    5.70
  -1 -17   5   17.00    5.50
  18 -17  -5   14.30   11.40
  -1  18  -5   11.10   20.60
  16 -18  -5   12.90   10.60
 -18   2  -5   16.70    4.80
 -18  16   5   22.20    8.60
   2  16  -5    1.90   21.20
   2 -18   5   18.00    5.40
  16   2   5   23.20    7.50
  -2  18  -5   -9.80   19.20
  18  -2   5   25.00    8.00
  18 -16  -5   14.90   11.20
 -16  -2  -5   17.30    5.50
  -2 -16   5   12.50    5.00
 -16  18   5   25.10    8.50
 -18   3  -5    7.10    4.70
  15 -18  -5    3.50   10.90
 -18  15   5   -1.20    7.90
  15   3   5   19.40    8.10
   3  15  -5   -0.10   19.90
   3 -18   5    7.70    5.10
  18 -15  -5   18.80   11.90
  -3  18  -5    7.30   20.80
 -15  -3  -5   10.40    4.90
  18  -3   5   13.00    8.50
  -3 -15   5   10.90    5.40
 -15  18   5    9.10    8.20
 -18  14   5   58.29   10.60
  14 -18  -5   54.09   11.10
   4 -18   5   66.09    7.60
   4  14  -5   46.70   23.10
  14   4   5   76.29   11.50
 -18   4  -5   61.79    7.30
  18 -14  -5   59.19   13.40
 -14  -4  -5   56.19    7.90
  -4 -14   5   63.99    8.00
 -14  18   5   55.39   10.30
  -4  18  -5   50.99   20.40
  18  -4   5   66.29   12.80
 -18  13   5   16.90    8.40
  13 -18  -5   19.20    9.20
 -18   5  -5   19.80    4.90
   5  13  -5   22.70   22.30
  13   5   5   22.20    7.90
   5 -18   5   17.80    5.70
 -13  -5  -5   21.10    5.20
 -13  18   5   21.20    8.90
  -5 -13   5   15.10    5.20
  18  -5   5   15.00    8.50
  18 -13  -5   14.00   11.70
  -5  18  -5   10.80   18.80
  12 -18  -5   35.20    9.70
   6 -18   5   43.10    6.90
 -18  12   5   38.30    8.90
 -18   6  -5   42.30    6.00
   6  12  -5   39.90   23.90
  12   6   5   41.90    8.00
  18  -6   5   44.90    9.30
 -12  -6  -5   42.50    6.40
  -6  18  -5   51.69   20.10
  18 -12  -5   37.90   12.70
 -12  18   5   42.30    9.80
  -6 -12   5   45.40    7.80
  11 -18  -5  124.99   13.40
 -18   7  -5  111.09    8.70
  11   7   5  116.89   11.10
 -18  11   5  122.19   13.10
   7 -18   5  106.59    9.60
   7  11  -5  117.39   29.70
 -11  18   5  126.69   14.20
  18  -7   5  129.49   14.50
  -7 -11   5  112.99    9.10
  18 -11  -5  120.59   17.30
  -7  18  -5   99.19   22.30
 -11  -7  -5  112.39    9.20
   8  10  -5   23.70   27.40
  10 -18  -5   17.30    8.60
   8 -18   5   11.30    6.10
  10   8   5   27.40    7.80
 -18  10   5   15.10    8.10
 -18   8  -5   21.00    5.10
 -10  18   5   24.40    9.50
  18 -10  -5   29.30   14.50
  18  -8   5   30.80    9.80
 -10  -8  -5   16.00    5.50
  -8  18  -5   10.20   19.20
  -8 -10   5   23.50    5.90
 -18   9  -5   54.09    6.60
 -18   9   5   48.30    9.40
   9 -18  -5   50.59    9.20
   9 -18   5   48.50    8.30
   9   9   5   51.79    9.00
  18  -9   5   59.49   11.50
  -9  18  -5   53.19   20.20
  18  -9  -5   46.80   13.90
  -9  18   5   59.29   10.90
  -9  -9  -5   44.30    7.50
  -9  -9   5   49.10    8.10
   8 -18  -5  180.78   14.30
  10 -18   5  185.78   13.50
 -18  10  -5  184.68   10.90
 -18   8   5  179.28   15.20
   8  10   5  163.68   12.60
  18  -8  -5  161.28   19.70
 -10  -8   5  172.38   14.60
  -8 -10  -5  158.38   11.40
 -10  18  -5  164.88   27.70
 -10  -8   5  163.68   11.40
  -8  18   5  192.18   16.50
  18 -10   5  196.48   15.20
 -18   7   5  116.09   13.40
  11 -18   5  104.39   11.40
   7  11   5  122.69   11.20
   7 -18  -5  134.19   13.10
 -11  -7   5   92.29    9.60
  -7 -11  -5  110.79    9.80
  18 -11   5  117.49   13.40
 -11  18  -5  121.39   22.80
 -11  -7   5   92.49   12.20
  18  -7  -5  113.59   21.80
  -7  18   5  121.79   14.80
 -18   6   5   22.90    9.00
   6 -18  -5   31.30    7.80
  12 -18   5    9.70    6.60
   6  12   5   28.00    8.00
 -12  -6   5   21.00    9.00
  -6  18   5   35.30   10.30
  -6 -12  -5   22.50    5.60
  18 -12   5   24.30   13.40
 -12  -6   5   24.30    6.70
  18 -12   5   44.60   11.40
  18  -6  -5   19.40   13.30
 -12  18  -5    9.50   28.60
   5  13   5  275.77   16.80
  13 -18   5  228.28   16.40
 -18   5   5  257.57   17.40
  18 -13   5  275.47   24.90
 -13  18  -5  239.88   27.90
  -5  18   5  295.47   18.80
  -5 -13  -5  236.98   14.30
  18  -5  -5  279.97   23.60
 -13  -5   5  243.78   17.20
  18 -13   5  266.07   20.10
  14 -18   5  140.19   13.40
   4  14   5  154.58   13.00
 -18   4   5  127.49   13.70
   4  14   5  200.78   17.00
 -14  -4   5  142.49   13.80
  -4  18   5  185.28   16.60
  18 -14   5  151.38   16.10
  -4 -14  -5  149.39   10.40
 -14  18  -5  132.49   23.10
  18  -4  -5  150.18   23.30
  18 -14   5  169.88   20.90
 -14  -4   5  147.29   15.60
  15 -18   5   15.90    8.90
   3  15   5   33.10   11.90
   3  15   5   20.50    8.10
 -18   3   5   22.00    8.80
  18 -15   5   11.30   12.70
  18  -3  -5   28.60   16.30
 -15  -3   5   19.70    7.00
 -15  18  -5  -23.60   16.70
  -3  18   5   35.60   10.50
 -15  -3   5   27.60    9.70
  -3 -15  -5   14.30    5.80
   2  16   5   34.70    8.60
  16   2  -5   45.40   15.80
   2  16   5   52.89   13.90
 -18   2   5   23.70    9.50
  16 -18   5   31.30   10.20
  -2  18   5   26.90    8.20
  18 -16   5   31.90   12.90
  -2 -16  -5   26.40    8.50
 -16  -2   5   25.50    7.00
 -16  -2   5   28.00    9.40
  18  -2  -5   26.90   16.80
  18 -16   5   45.50   18.70
 -16  18  -5   43.40   14.60
  -2  18   5   49.70   11.50
  17 -18   5   39.30   10.80
 -18   1   5   18.90    7.20
  17   1  -5   62.99   16.30
   1  17   5   55.49   12.90
 -18   1   5   42.90   10.80
   1  17   5   48.10    9.30
  -1  18   5   37.90    8.10
  18 -17   5   46.90   12.20
 -17  -1   5   21.80    7.60
 -17  -1   5   36.20    9.60
  18 -17   5   80.69   15.80
  18  -1  -5   63.69   16.70
  -1  18   5   66.09   13.10
 -18   0   5   10.10    9.50
  18   0  -5   30.60   16.40
  18 -18   5   18.50   10.60
  18 -18   5   59.79   12.90
   0  18   5   15.70   11.10
   0  18   5   27.50    8.40
  18 -19  -5   18.50   12.20
   1 -19   5   23.00    5.60
 -19   1  -5   23.10    5.30
  18   1   5   30.80    8.30
 -19  18   5   17.50    8.60
   1  18  -5   19.70   20.90
 -18  -1  -5   31.20    6.10
  -1 -18   5   18.70    5.80
  19  -1   5   26.60    8.30
  19 -18  -5   12.10   12.70
  -1  19  -5   18.90   19.00
 -18  19   5   25.50    9.50
 -19  17   5    7.20    7.90
   2 -19   5   -0.70    4.70
 -19   2  -5    1.40    4.50
  17   2   5   -0.50    7.60
   2  17  -5  -10.10   19.90
  17 -19  -5   10.20   12.10
 -17  19   5   -1.50    7.70
  19  -2   5   13.20    7.70
  -2 -17   5   -0.50    4.60
  19 -17  -5   -5.20   11.50
 -17  -2  -5    4.30    5.30
  -2  19  -5    0.50   18.40
  16   3   5    6.80    7.10
   3  16  -5   44.90   22.40
 -19  16   5    7.60    8.70
 -19   3  -5   10.60    5.00
  16 -19  -5    7.80   10.80
   3 -19   5    6.50    5.30
  -3 -16   5    6.00    5.50
 -16  19   5    9.70    8.80
  19  -3   5   17.10    8.90
  19 -16  -5    1.60   11.80
 -16  -3  -5    9.50    5.60
  -3  19  -5   11.00   19.50
  15   4   5    8.20    7.40
   4 -19   5   14.70    5.50
   4  15  -5   25.70   22.10
  15 -19  -5   24.00   11.60
 -19   4  -5    7.70    4.70
 -19  15   5   14.20    8.10
  19 -15  -5    4.30   11.70
  -4 -15   5   13.50    5.30
 -15  -4  -5   16.60    5.20
 -15  19   5   12.60    8.20
  -4  19  -5    5.10   19.00
  19  -4   5    4.90    8.00
 -19   5  -5   14.70    4.70
 -19  14   5    7.90    7.70
  14 -19  -5   10.20    9.90
  14   5   5   19.30    7.30
   5  14  -5    9.00   22.40
   5 -19   5    9.00    5.40
  -5 -14   5    9.80    5.00
  19  -5   5   -2.40    8.50
  -5  19  -5   39.30   19.20
 -14  19   5    6.10    8.30
 -14  -5  -5   15.30    5.60
  19 -14  -5    5.10   13.30
  13   6   5   16.20    7.40
   6 -19   5   12.80    5.50
 -19   6  -5   23.10    5.20
   6  13  -5   10.60   21.80
 -19  13   5   20.10    8.70
  13 -19  -5   16.10   10.70
 -13  -6  -5   14.80    5.20
  -6  19  -5   26.00   18.20
 -13  19   5   12.90    8.40
  19 -13  -5   15.10   13.50
  19  -6   5   10.30    8.30
  -6 -13   5   13.90    5.80
   7 -19   5    7.60    5.50
  12 -19  -5   12.20    9.30
   7  12  -5    6.70   23.70
  12   7   5    4.60    6.20
 -19  12   5   12.90    7.70
 -19   7  -5    3.80    4.20
  19 -12  -5   10.40   13.00
 -12  -7  -5    0.20    5.10
  -7  19  -5    9.50   17.50
  19  -7   5    2.30    8.10
  -7 -12   5    7.60    5.00
 -12  19   5   14.60    8.90
 -19   8  -5   73.69    7.60
  11 -19  -5   71.79   14.20
 -19  11   5   59.99   10.70
   8  11  -5   75.39   26.90
  11   8   5   80.19    9.90
   8 -19   5   66.69    9.40
  19  -8   5   84.49   11.90
 -11  19   5   79.09   13.00
  -8  19  -5   65.99   20.80
  -8 -11   5   71.89    8.40
  19 -11  -5   71.49   14.60
 -11  -8  -5   53.09    7.10
   9  10  -5   82.69   27.80
 -19   9  -5  113.69    8.40
   9 -19   5  104.59   10.00
  10   9   5  111.09   11.20
 -19  10   5  102.59   12.10
  10 -19  -5  122.89   12.90
 -10  19   5  109.59   13.80
  19  -9   5  140.29   15.10
  -9 -10   5  110.09    9.90
  19 -10  -5  137.89   20.80
 -10  -9  -5  121.39    9.60
  -9  19  -5  113.39   23.50
   9  10   5   69.09    9.40
  10 -19   5   64.49    9.60
 -19  10  -5   60.79    7.30
   9 -19  -5   61.99   10.90
 -19   9   5   50.39   10.20
  19  -9  -5   44.10   14.20
  -9 -10  -5   47.90    8.10
  -9  19   5   72.79   13.40
 -10  19  -5   68.09   20.10
  19 -10   5   81.29   12.50
 -10  -9   5   40.40    7.50
 -19   8   5   20.00    8.90
   8  11   5   22.50    8.20
 -19  11  -5   19.10    4.80
   8 -19  -5   34.80   10.30
  11 -19   5   22.20    7.30
 -11  19  -5   25.90   18.00
  -8 -11  -5   22.00    6.00
  -8  19   5   24.20   10.30
 -11  -8   5   34.20    6.50
  19  -8  -5   25.60   14.80
  19 -11   5   29.30   11.10
   7  12   5  241.78   15.00
 -19   7   5  226.28   17.30
   7 -19  -5  236.28   15.80
  12 -19   5  234.78   15.40
  -7 -12  -5  230.18   14.00
 -12  19  -5  195.88   26.60
 -12  -7   5  261.77   14.80
  19 -12   5  270.97   19.20
  -7  19   5  268.17   19.20
  19  -7  -5  237.38   22.60
 -12  -7   5  231.28   16.90
  13 -19   5  171.38   14.70
 -19   6   5  188.88   16.10
   6  13   5  188.58   13.50
   6 -19  -5  209.98   14.40
 -13  19  -5  179.88   24.40
  19 -13   5  247.18   19.40
  -6  19   5  197.48   16.20
  19  -6  -5  234.98   22.60
 -13  -6   5  198.88   13.00
 -13  -6   5  179.78   15.40
  -6 -13  -5  162.88   12.90
   5 -19  -5   19.60    8.40
 -19   5   5   15.90    9.10
   5  14   5   24.50    7.10
  14 -19   5   18.20    8.10
  19  -5  -5   23.70   16.20
 -14  -5   5   14.50    9.10
  -5 -14  -5   20.80    6.00
 -14  -5   5   23.50    6.60
  19 -14   5   16.90   12.80
 -14  19  -5   -1.60   17.80
  19 -14   5   22.30   13.90
  -5  19   5   27.60   10.30
 -19   4   5  108.99   12.70
  15 -19   5  106.19   14.00
   4  15   5  125.19   11.50
   4  15   5  144.19   17.20
  19 -15   5   75.69   15.90
 -15  -4   5  109.89   10.90
 -15  -4   5  121.19   14.20
  19  -4  -5  119.59   20.70
  19 -15   5  134.69   18.20
 -15  19  -5  103.69   19.80
  -4  19   5  133.89   15.70
   3  16   5   78.39   16.00
 -19   3   5   42.50   10.50
  16 -19   5   38.60    9.60
   3  16   5   39.20    8.50
  19  -3  -5   37.20   17.50
 -16  -3   5   38.80   10.10
  19 -16   5   63.29   14.80
 -16  19  -5   38.50   22.70
 -16  -3   5   28.10    7.60
  19 -16   5   45.80   14.20
  -3  19   5   83.59   14.50
  -3 -16  -5   29.00    6.30
  17 -19   5    2.50    9.10
   2  17   5   45.60   12.50
 -19   2   5   11.00    9.10
   2  17   5   20.90    7.80
  -2  19   5   12.20   10.60
  19  -2  -5   22.40   15.50
 -17  19  -5    4.20   14.70
 -17  -2   5    0.50    9.40
  19 -17   5   20.20   13.10
  19 -17   5   14.00   13.80
   1  18   5    0.50    7.20
 -19   1   5   15.50    9.80
   1  18   5   -9.90   10.70
  18 -19   5    5.00    9.70
  18   1  -5   12.80   16.50
  -1  19   5    9.60   10.80
 -18  -1   5   -1.10    8.70
  19 -18   5   18.00   13.20
  -1  19   5   -0.90    8.00
  19  -1  -5   14.80   16.00
  19 -18   5   -1.40   10.90
  16 -20  -5    8.60   11.40
 -20   4  -5    2.50    4.60
   4 -20   5    6.60    5.50
   4  16  -5   -9.30   20.40
 -20  16   5   11.10    8.30
  16   4   5    6.90    7.40
  20  -4   5    8.60    8.60
  -4  20  -5   12.60   18.90
 -16  20   5    8.10    8.50
  20 -16  -5    3.60   13.60
 -16  -4  -5    9.80    5.60
  -4 -16   5   11.90    5.20
   5 -20   5    2.70    5.60
   5  15  -5    6.60   21.80
  15   5   5    1.70    7.60
 -20   5  -5    6.00    4.90
  15 -20  -5    3.40   11.70
 -20  15   5    8.10    8.00
 -15  20   5    5.90    8.60
  -5  20  -5    7.80   17.70
  20 -15  -5   -2.00   13.70
 -15  -5  -5    0.80    5.00
  20  -5   5   -8.60    8.60
  -5 -15   5   -3.40    5.10
   6 -20   5    1.20    5.50
  14 -20  -5   -4.30    9.80
  14   6   5    5.10    7.90
 -20  14   5   10.70    8.50
   6  14  -5   17.60   24.60
 -20   6  -5    5.00    4.50
  20  -6   5    7.50    8.50
 -14  -6  -5    2.00    5.60
  -6 -14   5    1.50    5.10
  20 -14  -5    8.00   12.70
  -6  20  -5    0.30   17.90
 -14  20   5    0.00    8.00
 -20  13   5   20.50    8.90
  13 -20  -5    9.20    9.70
   7  13  -5   17.30   21.70
  13   7   5   13.40    6.90
   7 -20   5   16.70    5.80
 -20   7  -5   21.30    5.20
  -7 -13   5   21.00    6.20
  20 -13  -5   -3.40   13.70
 -13  20   5   22.30    8.90
  20  -7   5   19.80    9.20
  -7  20  -5   24.60   19.10
 -13  -7  -5   19.50    6.00
   8  12  -5   28.90   23.00
 -20  12   5   30.30    9.50
 -20   8  -5   31.60    5.90
  12   8   5   26.90    7.60
   8 -20   5   28.00    6.60
  12 -20  -5   34.50   11.20
  20  -8   5   24.50    9.30
  -8  20  -5   18.70   17.80
 -12  -8  -5   34.60    6.20
  -8 -12   5   30.50    6.00
 -12  20   5   41.60   10.10
  20 -12  -5   21.70   14.50
  11   9   5   39.30    8.90
 -20   9  -5   35.70    5.80
   9  11  -5   46.20   24.90
  11 -20  -5   33.70   10.20
   9 -20   5   37.20    7.60
 -20  11   5   42.40   10.00
  -9 -11   5   45.00    7.20
  -9  20  -5   29.30   18.40
  20  -9   5   39.50   10.80
 -11  20   5   45.80   10.50
 -11  -9  -5   43.40    7.90
  20 -11  -5   44.80   14.60
  10  10  -5   74.59   26.60
 -20  10  -5   44.70    6.40
  10  10   5   59.19    9.50
  10 -20  -5   32.20   10.50
  10 -20   5   36.30    7.20
 -20  10   5   38.60    9.90
 -10  20  -5   46.60   19.90
 -10  20   5   52.89   11.30
 -10 -10  -5   45.00    7.30
  20 -10  -5   37.70   16.70
  20 -10   5   55.79   11.50
 -10 -10   5   38.70    7.20
 -20  11  -5  168.58   10.10
   9 -20  -5  200.88   16.00
  11 -20   5  165.58   13.40
 -20   9   5  143.19   14.00
  11   9  -5  140.29   32.90
   9  11   5  181.38   13.90
  -9  20   5  151.58   16.30
 -11  20  -5  117.29   22.80
  20 -11   5  177.18   16.80
  -9 -11  -5  160.08   11.10
 -11  -9   5  153.28   11.10
  20  -9  -5  156.08   20.20
 -20  12  -5  166.58   10.40
 -20   8   5  156.28   14.80
  12 -20   5  119.99   11.80
   8 -20  -5  180.28   15.90
   8  12   5  144.89   12.50
  20 -12   5  160.88   18.00
  20  -8  -5  131.59   20.80
 -12  -8   5  139.69   11.20
 -12  20  -5  155.38   23.90
  -8  20   5  149.29   16.00
  -8 -12  -5  151.08   10.90
 -20   7   5   -8.40    8.30
  13 -20   5   -2.80    6.50
   7 -20  -5    3.50    8.40
   7  13   5   10.10    7.20
  20 -13   5    0.90   11.00
 -13  20  -5    3.20   16.40
  20  -7  -5   -9.70   14.90
 -13  -7   5   -3.30    8.80
 -13  -7   5   -1.60    5.60
  -7  20   5   -0.20    8.60
  -7 -13  -5   -8.70    5.70
   6 -20  -5  164.78   13.50
  14 -20   5  145.99   13.80
 -20   6   5  127.89   14.50
   6  14   5  129.99   12.40
 -14  -6   5  136.69   14.90
 -14  20  -5  110.59   22.60
  -6 -14  -5  129.29   10.50
 -14  -6   5  144.59   11.40
  20 -14   5  132.89   17.00
  20  -6  -5  168.98   21.10
 -20   5   5   88.19   12.10
   5  15   5  111.99   20.00
   5 -20  -5  130.79   11.90
  15 -20   5   93.09   12.20
   5  15   5  111.79   12.10
 -15  20  -5   89.19   18.20
  20  -5  -5  104.19   20.40
  -5 -15  -5   94.99    9.10
  20 -15   5   68.79   15.50
  -5  20   5   92.19   15.10
  20 -15   5  122.09   18.60
 -15  -5   5   69.89   10.00
 -15  -5   5   79.89   14.20
   4 -20  -5   28.40   10.30
   4  16   5   11.70   14.00
   4  16   5   24.80    8.80
 -20   4   5    5.40    9.70
  16 -20   5   25.00    9.00
  -4 -16  -5    1.20    6.60
  20 -16   5    5.50   12.70
  20 -16   5   27.40   13.90
 -16  -4   5    6.70    8.80
  -4  20   5   -2.00   10.00
  20  -4  -5   16.30   14.90
 -16  20  -5    9.70   14.90
 -16  -4   5    9.20    6.60
  14 -21  -5   -3.20   11.80
   7  14  -5   10.40   22.50
 -21   7  -5   -0.40    4.50
  14   7   5   -6.20    6.70
 -21  14   5    6.10    8.10
   7 -21   5    2.40    5.70
 -14  -7  -5   -1.20    5.60
  21  -7   5   -0.10    9.10
  21 -14  -5    1.60   13.60
  -7 -14   5    1.80    5.50
 -14  21   5    4.40    8.50
  -7  21  -5   -1.20   18.80
   8 -21   5   23.90    7.30
  13   8   5   29.00    8.70
 -21   8  -5   32.80    5.80
 -21  13   5   20.80    9.90
  13 -21  -5   32.60   11.10
   8  13  -5   23.00   22.40
 -13  21   5   17.70    9.20
  21 -13  -5   26.80   14.30
  -8 -13   5   18.10    6.10
 -13  -8  -5   34.50    6.80
  21  -8   5   27.50   10.00
  -8  21  -5   15.10   18.70
  12 -21  -5   29.90   11.10
  12   9   5   34.90    8.40
 -21  12   5   45.00    9.70
   9  12  -5   22.90   23.20
 -21   9  -5   41.10    6.20
   9 -21   5   35.90    7.30
 -12  -9  -5   29.60    6.90
 -12  21   5   48.20   10.40
  21 -12  -5   39.00   17.30
  -9 -12   5   40.70    7.20
  21  -9   5   49.80   10.80
  -9  21  -5   31.60   18.20
  11  10   5   77.99   10.20
  10  11  -5   53.49   25.30
  11 -21  -5   76.19   13.00
 -21  10  -5   64.39    7.60
 -21  11   5   64.09   11.60
  10 -21   5   58.19    9.50
 -11 -10  -5   65.49    9.00
  21 -10   5   79.79   15.70
 -10  21  -5   60.99   20.30
  21 -11  -5   52.99   15.40
 -11  21   5   60.89   11.70
 -10 -11   5   53.79    8.80
  11 -21   5   75.69   10.60
  11  10  -5   56.09   27.70
  10  11   5   84.79   11.40
 -21  11  -5   87.29    8.30
 -21  10   5   72.89   12.90
  10 -21  -5   76.09   13.60
 -11  21  -5   99.49   20.90
 -10 -11  -5   67.09    8.50
  21 -10  -5   69.29   18.20
 -10  21   5   68.69   12.60
 -11 -10   5   66.09    9.10
  21 -11   5   89.39   15.00
   9 -21  -5   16.00   10.80
   9  12   5    5.30    7.40
 -21   9   5   -1.90    8.00
 -21  12  -5    8.40    4.70
  12 -21   5    5.30    6.30
  12   9  -5   33.00   27.00
 -12  21  -5   15.40   18.20
  -9  21   5    1.60    9.30
  -9 -12  -5    4.40    5.80
 -12  -9   5   -4.30    5.40
  21  -9  -5   -4.00   14.20
  21 -12   5   17.00   12.80
   8  13   5  120.69   11.60
 -21  13  -5  123.09    8.90
 -21   8   5  107.39   13.30
  13 -21   5  119.59   12.10
   8 -21  -5  129.89   13.30
 -13  21  -5  119.99   21.90
  -8 -13  -5  105.49   10.20
  -8  21   5  114.89   14.00
 -13  -8   5  118.29    9.90
  21  -8  -5   98.49   18.50
  21 -13   5  116.09   17.10
 -21   7   5   89.89   12.50
  14 -21   5   98.89   12.70
   7 -21  -5  105.69   13.40
 -21  14  -5  102.99    8.40
   7  14   5  114.29   12.90
  21  -7  -5   81.59   18.30
 -14  -7   5   96.79    9.80
 -14  21  -5   87.59   21.30
  -7  21   5   87.19   13.50
  -7 -14  -5   85.39    9.40
  21 -14   5  118.59   19.40
   0   0   6  412.26   22.60
   0   0   6  424.96   22.90
   0   0   6  420.06   20.60
   0  -1   6   64.39    9.40
   0  -1   6   53.59    8.90
  -1   1   6   65.59   10.80
   0  -1   6   44.80    8.70
   1   0   6   56.39    9.50
   1   0   6   63.39    9.50
  -1   1   6   59.89    9.90
   1   0   6   57.09   10.40
  -1   1   6   58.49    8.10
   0   1   6  757.22   33.50
   1  -1   6  759.42   35.80
  -1   0   6  724.73   33.40
  -1   0   6  791.92   35.30
   0   1   6  789.12   36.80
   1  -1   6  710.33   33.40
  -1   0   6  742.43   35.40
   0   1   6  721.43   34.90
   1  -1   6  768.72   35.10
   2   0   6  626.04   32.60
   0  -2   6  630.94   29.50
  -2   2   6  620.34   30.60
  -2   2   6  611.74   28.00
   0  -2   6  598.74   28.00
  -2   2   6  580.94   29.40
   2   0   6  612.14   28.10
   2   0   6  638.84   30.00
   0  -2   6  611.84   30.00
  -2   1   6  310.57   16.40
   1   1   6  325.87   16.80
  -2   1   6  338.97   18.80
   1  -2   6  321.57   16.90
   1   1   6  321.27   18.60
  -2   1   6  324.47   18.80
   1  -2   6  315.77   18.60
   1  -2   6  328.77   19.10
   1   1   6  303.07   22.10
  -1  -1   6  311.87   16.70
  -1   2   6  319.87   16.80
   2  -1   6  318.17   17.10
  -1   2   6  302.57   18.10
  -1  -1   6  309.37   18.20
   2  -1   6  301.77   17.70
   2  -1   6  317.47   20.40
  -1   2   6  262.67   21.00
  -1  -1   6  326.77   18.20
  -2   0   6   41.40    7.90
  -2   0   6   70.49   10.50
   2  -2   6   55.69    9.40
   0   2   6   55.49    9.30
   0   2   6   61.69   12.00
   2  -2   6   47.90    9.20
   2  -2   6   50.79    8.80
  -2   0   6   48.30    7.60
   0   2   6   59.39    9.30
   3   0   6   70.99    9.70
   0  -3   6   71.19   10.90
   0  -3   6   69.49    9.90
  -3   3   6   63.89   11.00
   3   0   6   68.69   10.40
  -3   3   6   60.39    9.90
  -3   3   6   74.09    8.70
   3   0   6   65.09   13.10
   0  -3   6   66.99    8.00
   1  -3   6   79.49   10.20
   2   1   6   79.39   10.40
   1  -3   6   73.89    8.70
   2   1   6   78.59    8.50
  -3   2   6  106.59   11.10
   1  -3   6   66.89   10.00
  -3   2   6   74.69    8.60
   2   1   6   94.99   15.90
  -3   2   6   73.59   11.20
  -2   3   6   88.39    8.70
  -1  -2   6   73.49    9.70
  -1  -2   6   82.29   10.70
   3  -1   6   77.39    9.00
  -2   3   6   81.99   11.10
  -2   3   6   93.69   13.80
   3  -1   6   73.99   13.80
   3  -1   6   69.59   10.10
  -1  -2   6   63.49    8.50
   1   2   6  430.06   23.10
   2  -3   6  437.46   23.60
   2  -3   6  434.36   23.20
   2  -3   6  456.65   21.80
   1   2   6  484.05   21.90
  -3   1   6  443.96   23.00
  -3   1   6  455.05   23.90
  -1   3   6  463.35   22.20
  -2  -1   6  423.46   22.40
  -2  -1   6  432.66   23.20
  -1   3   6  451.65   23.50
   3  -2   6  441.86   24.80
   3  -2   6  451.25   23.20
   3  -2   6  439.76   22.00
   0   3   6  102.79   11.70
  -3   0   6   98.49   11.50
   3  -3   6  115.19   11.70
   3  -3   6  107.79   10.00
   0   3   6  117.69   10.00
  -3   0   6  106.39   10.60
   3  -3   6  122.59   13.10
   0  -4   6   19.90    7.70
   4   0   6   20.60   11.60
  -4   4   6   10.50    7.70
  -4   4   6   13.10    8.20
   4   0   6   15.50    5.80
   4   0   6   12.30    7.10
   0  -4   6    7.90    5.00
   0  -4   6   15.80    6.00
   3   1   6  112.49    9.60
   1  -4   6  100.79    9.20
  -4   3   6  113.09   12.20
   1  -4   6   95.19   10.40
   3   1   6   99.29   11.00
   1  -4   6  121.59   12.10
  -4   3   6  104.79   11.80
   4  -1   6  115.39   10.50
  -1  -3   6  115.29   12.40
   4  -1   6   97.29   15.60
  -1  -3   6   88.79    9.10
  -3   4   6   97.89   10.90
  -1  -3   6  115.89    9.90
  -3   4   6  109.79    9.60
   4  -1   6   94.39   11.30
  -4   2   6   18.80    8.20
   2  -4   6   24.30    7.70
   2   2   6   33.30    8.00
   2  -4   6   23.90    6.10
   2  -4   6   24.90    7.10
   2   2   6   27.60    6.40
  -4   2   6   31.60    7.00
   4  -2  -6   22.20    6.70
   4  -2   6   21.30    6.20
   4  -2   6   21.90    9.60
   4  -2   6   29.00    7.80
  -2   4   6   34.50    7.20
  -2  -2   6   24.90    8.50
  -2  -2   6   31.80    6.20
  -2   4   6   25.50    8.30
   3  -4   6  150.18   10.90
   1   3   6  144.29   11.20
   1   3   6  148.59   12.60
  -4   1   6  161.78   11.60
   3   1  -6  165.68   11.80
  -4   1   6  140.59   12.80
   1  -4  -6  155.18    8.30
   3  -4   6  148.09   12.80
   3  -4   6  155.78   13.90
   4  -3   6  167.28   12.80
   4  -1  -6  145.39   12.00
  -1   4   6  149.79   11.30
  -1   4   6  151.38   13.10
   4  -3   6  154.18   14.60
  -3  -1   6  169.38   11.20
  -3  -1   6  147.09   12.80
   4  -3   6  155.88   11.70
  -1  -3  -6  163.68    8.60
   4  -4   6  397.26   19.90
   0   4   6  379.76   21.10
   4   0  -6  406.86   19.90
   4  -4   6  383.36   21.70
   0  -4  -6  380.06   17.50
   4  -4   6  393.16   21.10
  -4   0   6  409.16   19.70
  -4   0   6  386.16   21.40
   0  -5   6    3.10    7.10
   5   0   6    9.40    6.00
   0  -5   6    3.30    5.40
   5  -5  -6   -2.00    6.90
   5   0   6   -2.10    6.30
  -5   5   6   -4.00    6.50
   0  -5   6   -7.00    4.90
   4   1   6    0.20    5.40
  -5   4   6   -0.10    7.10
   4   1   6    2.30    6.20
   1  -5   6    0.90    5.50
   1  -5   6    6.60    5.10
   1  -5   6    7.00    7.40
  -4   5   6    0.40    6.90
   5  -4  -6   -3.70    6.70
   5  -1   6   -1.40    6.40
  -1  -4   6   13.10    7.80
   5  -1   6    1.20   10.80
   5  -1   6    5.40    6.60
  -1  -4   6   -1.30    4.70
   3   2   6   53.39    8.60
   2  -5   6   27.20    6.00
   2  -5   6   46.50    8.80
   2  -5   6   36.30    7.10
  -5   3   6   37.90    8.50
  -5   3   6   52.49    9.10
   3  -5  -6   50.49    4.30
   3   2   6   44.60    7.20
   2   3  -6   47.80    8.20
  -2  -3   6   49.70    8.10
  -3   5   6   46.80    8.90
   5  -2   6   36.60    7.40
  -3   5   6   49.99    9.10
   5  -3  -6   48.90    7.80
   5  -2   6   30.30   11.20
  -2  -3   6   51.29    9.70
   5  -2   6   39.20    7.80
  -3  -2  -6   43.50    5.20
   2  -5  -6  156.78    8.30
   3  -5   6  154.28   12.80
   3  -5   6  163.08   11.00
   2   3   6  166.68   11.30
   3  -5   6  153.88   12.20
  -5   2   6  147.99   12.80
   2   3   6  148.79   12.40
  -5   2   6  159.18   11.80
   3   2  -6  161.38   11.10
   5  -3   6  161.18   15.20
  -3  -2   6  162.48   11.30
  -2   5   6  151.18   13.20
  -2   5   6  157.18   11.20
   5  -2  -6  156.18   11.30
   5  -3   6  157.08   12.50
  -2  -3  -6  154.78    8.70
  -3  -2   6  157.68   13.90
   5  -3   6  146.99   11.20
   1   4   6   17.30    6.30
   1   4   6   24.20    7.50
  -5   1   6   14.90    8.20
   1  -5  -6   26.30    4.00
   4  -5   6   20.00    6.30
   4  -5   6   17.40    8.20
   4  -5   6   12.50    7.50
   4   1  -6   22.60    6.30
  -5   1   6   21.40    5.60
  -1   5   6   22.30    6.50
   5  -4   6   13.80    8.60
   5  -4   6   13.20    6.40
  -4  -1   6   21.50    8.40
  -4  -1   6   13.70    5.40
   5  -4   6   31.00    7.70
  -1  -4  -6   18.30    3.60
  -1   5   6   17.30    7.60
   5  -1  -6   14.40    6.10
   5  -5   6  151.28   14.00
  -5   0   6  178.58   14.20
   0  -5  -6  154.18    8.40
   5  -5   6  151.78   11.50
  -5   0   6  158.98   11.00
   5   0  -6  146.89   11.40
   0   5   6  152.88   13.10
   5  -5   6  153.88   12.80
   0  -6   6   10.80    5.60
   6   0   6    1.20    6.70
   6  -6  -6    0.80    5.80
  -6   6   6   13.60    7.50
   6   0   6    3.00    5.70
   0  -6   6    8.90    7.50
   1   5  -6   11.30    5.70
   5   1   6    9.50    6.80
  -6   5   6    0.80    7.00
   1  -6   6    3.70    4.90
   5  -6  -6    1.40    6.10
   5   1   6    6.50    6.40
   1  -6   6    8.70    5.90
   1  -6   6    6.80    7.80
  -5  -1  -6    5.10    3.60
   6  -1   6    3.50    5.50
  -5   6   6    2.00    7.10
  -1  -5   6    6.10    4.90
   6  -5  -6    7.20    6.20
   6  -1   6   10.00    6.40
  -1  -5   6    3.70    7.10
   2  -6   6   38.20    6.50
   2  -6   6   36.80    8.50
   4   2   6   57.49    8.50
   2  -6   6   34.60    6.70
   4   2   6   42.20    7.00
   2   4  -6   53.89    7.30
  -6   4   6   38.30    8.80
   6  -2   6   22.10   11.20
   6  -4  -6   33.00    6.90
   6  -2   6   35.70    6.80
  -4   6   6   40.00    7.80
   6  -2   6   52.09    9.20
  -2  -4   6   38.40    6.20
  -2  -4   6   33.60    8.90
  -4   6   6   43.90    8.80
  -4  -2  -6   35.40    5.20
   3  -6   6   47.90    8.00
   3   3   6   58.39    9.60
   3   3   6   51.79    8.00
   3  -6   6   50.49    7.10
  -6   3   6   54.59    9.70
  -6   3   6   58.29    7.80
   3   3  -6   55.69    8.50
   3  -6   6   50.39    8.70
   6  -3   6   44.20    7.90
  -3  -3  -6   44.50    5.50
  -3  -3   6   48.30    9.60
   6  -3   6   46.60    7.90
  -3  -3   6   45.00    7.30
  -3   6   6   43.10    8.20
   6  -3   6   43.10   12.30
  -3   6   6   54.59    8.10
   6  -3  -6   49.20    9.60
  -6   2   6   63.29   10.10
  -6   2   6   62.99    8.60
   2   4   6   65.59    9.60
   2   4   6   55.79    8.30
   4  -6   6   64.09   10.30
   2  -6  -6   58.89    4.90
   4   2  -6   50.09    8.90
   4  -6   6   48.60    8.00
   4  -6   6   59.39   10.20
  -4  -2   6   69.69    7.50
  -4  -2   6   71.59   11.60
   6  -2  -6   57.69   10.10
   6  -4   6   58.19    9.00
  -2  -4  -6   62.79    5.50
   6  -4   6   46.70    9.00
  -2   6   6   67.39   10.30
  -2   6   6   62.29    8.40
   6  -4   6   67.99   12.00
   5  -6   6  180.78   13.50
  -6   1   6  174.68   13.70
   5  -6   6  162.48   11.60
   1  -6  -6  172.48    8.90
   5  -6   6  185.98   14.90
   1   5   6  171.88   13.50
   1   5   6  167.48   11.90
  -6   1   6  178.58   11.40
   5   1  -6  175.18   12.30
   6  -1  -6  183.18   12.90
  -5  -1   6  166.28   13.50
   6  -5   6  164.68   11.50
   6  -5   6  174.88   14.90
   6  -5   6  191.68   13.20
  -1  -5  -6  164.68    9.20
  -5  -1   6  183.78   11.30
  -1   6   6  169.68   13.40
  -1   6   6  175.98   12.10
   0   6   6   43.10    8.20
  -6   0   6   44.00    9.20
  -6   0   6   40.80    6.80
   0   6   6   46.90    8.30
   6  -6   6   35.60    8.90
   6   0  -6   45.20    8.10
   6  -6   6   29.30    8.30
   6  -6   6   47.70    8.40
   0  -6  -6   37.50    4.40
   7   0   6    5.60    6.30
  -7   7   6   11.20    7.10
   7  -7  -6    3.20    6.30
  -7   0  -6    6.50    4.10
   7   0   6   12.30    6.60
   0  -7   6   16.20    7.40
   0   7  -6   12.60    5.20
   0  -7   6   12.10    5.10
   6  -7  -6   33.60    8.00
  -7   6   6   48.50    9.10
   1  -7   6   38.50    7.20
   6   1   6   45.80    7.90
   1  -7   6   46.00    9.00
   6   1   6   39.80    7.90
   1   6  -6   53.19    7.40
  -6  -1  -6   31.80    4.70
  -1  -6   6   38.20    8.70
   7  -1   6   54.79    8.10
   7  -1   6   53.49    8.60
  -6   7   6   31.40    7.90
  -1  -6   6   41.60    7.70
   7  -6  -6   39.50    7.60
   2  -7   6   22.60    5.50
   2   5  -6   20.60    6.30
  -7   5   6   16.90    8.20
   2  -7   6   20.80    6.40
   2  -7   6   31.90    8.50
   5   2   6   27.20    7.50
   5   2   6   25.20    6.70
  -5   7   6   22.40    7.50
  -2  -5   6   30.80    8.10
   7  -5  -6   22.40    7.20
   7  -2   6   19.90   11.40
  -2  -5   6   22.10    5.60
   7  -2   6   17.20    6.50
  -5  -2  -6   23.00    4.10
   7  -2   6   19.40    6.50
   3  -7   6    4.40    5.90
   3  -7   6   -2.70    5.10
  -7   4   6    2.20    7.50
   4   3   6    2.20    5.60
   3   4  -6    8.00    6.00
   4   3   6   11.80    6.50
   3  -7   6    2.40    7.20
  -4  -3  -6    1.70    3.20
  -4   7   6    1.50    7.10
   7  -3   6   -0.50    6.40
  -3  -4   6    5.80    4.90
   7  -3   6   -2.40   10.40
   7  -4  -6   10.40    6.60
  -4   7   6   12.40    5.90
  -3  -4   6   -0.80    7.10
   7  -3   6   10.90    6.10
   3   4   6  134.69   12.00
   4   3  -6  139.19   10.60
   3   4   6  140.89   11.70
   4  -7   6  114.19   12.30
   4  -7   6  136.29   10.20
   4  -7   6  141.89   12.40
  -7   3   6  133.99   13.30
  -4  -3   6  129.19   12.30
   7  -4   6  146.19   11.80
  -3   7   6  136.49   10.40
  -4  -3   6  129.39    9.70
  -3  -4  -6  127.49    7.90
   7  -4   6  138.89   17.70
  -3   7   6  123.69   11.80
   7  -4   6  133.99   11.40
   7  -3  -6  127.79   10.90
  -7   2   6  122.19    8.80
   5   2  -6   86.69   10.90
  -7   2   6  106.69   12.50
   2   5   6  101.59    9.50
   5  -7   6   97.19    9.40
   5  -7   6   94.79   11.40
   2   5   6  105.29   11.20
   5  -7   6  103.09   11.70
  -2   7   6   98.39   11.70
   7  -5   6   83.79   10.90
  -2  -5  -6  112.09    6.90
  -5  -2   6  105.89   11.90
   7  -5   6  123.89   15.30
   7  -5   6  107.79   10.60
  -5  -2   6   95.79    8.80
  -2   7   6  114.29    9.80
   7  -2  -6  118.99   11.80
   1   6   6   14.40    6.20
   6  -7   6    8.80    7.70
   6   1  -6   19.90    7.40
   1   6   6   21.30    7.30
   6  -7   6    6.10    7.00
  -7   1   6   21.00    4.80
  -7   1   6   22.70    8.40
   6  -7   6   17.00    6.60
   1  -7  -6   13.40    3.10
   7  -1  -6    6.90    7.00
  -1   7   6   20.50    6.50
  -6  -1   6   17.40    5.00
  -6  -1   6   18.60    8.60
   7  -6   6   14.80    8.60
  -1  -6  -6   15.60    3.50
   7  -6   6   18.70    7.30
  -1   7   6   20.20    8.00
   7  -6   6   15.60    6.40
   0   7   6   20.90    6.60
   7   0  -6   25.80    7.70
   0   7   6    9.70    7.60
  -7   0   6   14.20    8.30
   0  -7  -6   20.30    3.40
  -7   0   6   18.30    5.20
   7  -7   6   12.50    8.10
   7  -7   6   22.10    6.40
   8  -8  -6   14.40    8.10
   0  -8   6    5.70    7.60
   8   0   6   18.40    7.20
   0  -8   6   14.30    5.20
  -8   0  -6   12.50    4.30
  -8   8   6    3.40    7.20
   1   7  -6   19.90    6.00
   7   1   6   23.10    6.80
   1  -8   6   15.70    8.10
  -8   7   6   11.70    7.70
   1  -8   6   15.10    5.60
   7   1   6   13.40    6.20
   7  -8  -6    8.40    6.70
  -8   1  -6   13.80    4.30
  -7   8   6   15.40    7.60
   8  -7  -6   21.20    7.50
  -1  -7   6   16.60    7.70
  -1  -7   6   15.70    5.20
   8  -1   6   17.00    6.40
  -7  -1  -6   14.20    4.10
   8  -1   6   15.60    6.80
   6   2   6   19.10    7.00
  -8   6   6   27.90    8.60
   6  -8  -6   20.40    7.20
   2  -8   6   24.40    6.30
   2   6  -6   47.90    7.60
   2  -8   6   17.90    5.50
   2  -8   6   24.30    8.30
   6   2   6   29.00    7.40
  -6   8   6   26.10    8.50
  -2  -6   6   18.80    8.10
   8  -6  -6   15.90    7.70
   8  -2   6   20.80    6.50
  -2  -6   6   28.40    5.70
  -6  -2  -6   25.00    4.40
   8  -2   6   18.40    6.90
   5   3   6  137.89   11.00
   5   3   6  160.98   12.20
   3  -8   6  111.79    9.50
  -8   5   6  136.99   13.50
   3  -8   6  126.79   11.30
   3   5  -6  106.69   11.30
   3  -8   6  141.09   11.90
   8  -3   6  148.49   11.80
  -5   8   6  138.09   13.10
   8  -3   6  127.89   19.00
   8  -3   6  128.09   11.40
   8  -5  -6  149.59   12.70
  -5  -3  -6  126.39    8.10
  -3  -5   6  135.59   12.30
  -3  -5   6  138.99    9.80
   4   4  -6  131.59   12.70
   4   4   6  146.29   12.80
  -8   4   6  165.88   14.30
   4  -8   6  171.98   12.90
   4  -8   6  170.18   10.90
   4   4   6  163.18   11.90
   4  -8   6  162.88   12.10
   8  -4   6  164.58   12.90
  -4  -4   6  172.68   10.80
  -4  -4  -6  164.18    9.30
  -4   8   6  164.98   13.00
   8  -4   6  184.38   12.80
  -4  -4   6  167.58   13.50
  -4   8   6  187.88   12.70
   8  -4   6  176.88   19.50
   8  -4  -6  178.98   13.00
   5  -8   6   51.49    9.50
   3   5   6   58.29    8.90
   5   3  -6   51.39    9.40
  -8   3   6   49.99   10.00
   5  -8   6   53.29    8.50
   3   5   6   71.59    9.60
   8  -5   6   42.10   11.80
  -5  -3   6   51.89    7.30
  -5  -3   6   45.50    9.40
   8  -3  -6   52.39    8.90
  -3  -5  -6   50.29    5.20
   8  -5   6   45.20    8.10
  -3   8   6   59.59   10.40
  -3   8   6   58.69    9.40
   8  -5   6   61.79    9.30
   6  -8   6   78.69   10.40
   2   6   6   72.79    9.00
  -8   2   6   96.69    9.10
   6   2  -6   99.69   10.50
   6  -8   6   75.59    9.00
  -8   2   6   74.79   12.10
   2   6   6   93.79   10.50
  -2   8   6   66.99    9.80
  -2   8   6   84.89    9.20
   8  -2  -6   83.99   10.20
  -2  -6  -6   72.49    6.30
   8  -6   6   65.99   11.60
  -6  -2   6   73.09    7.90
  -6  -2   6   82.59   12.30
   8  -6   6   79.19    9.00
  -8   1   6   89.09    8.30
   1  -8  -6   91.39    6.90
   1   7   6   93.79   11.30
   7  -8   6  110.39    9.80
  -8   1   6   99.39   12.80
   1   7   6  105.59   10.90
   7   1  -6   95.39   11.30
   7  -8   6   94.59   11.90
   8  -7   6   82.99   10.40
  -1   8   6  103.39   11.20
  -1   8   6  102.09   10.00
   8  -1  -6   81.59   11.60
  -7  -1   6  101.79    8.40
  -1  -7  -6   86.69    6.80
  -7  -1   6   94.59   11.50
   8  -7   6   99.79   12.90
   0  -8  -6   20.70    3.80
  -8   0   6   34.60    8.90
   8  -8   6   21.70    9.10
  -8   8  -6   62.79   27.40
   0   8   6   42.30    8.50
   8   0  -6   30.20    8.30
   0   8   6   38.40    7.00
  -8   0   6   36.00    6.50
   8  -8   6   25.50    7.20
  -9   0  -6   11.10    4.30
  -9   9   6    7.40   11.50
   9  -9  -6   -1.00   12.40
   9   0   6   11.90    7.00
   0  -9   6   18.80    7.90
   0  -9   6    6.70    5.00
  -9   1  -6    6.30    3.80
   1  -9   6    8.80    7.90
  -9   8   6    8.60    8.50
   8  -9  -6    0.70    7.00
   8   1   6    9.50    6.30
   1  -9   6    1.80    5.10
   9  -1   6    4.30    6.10
   9  -8  -6    6.50    7.30
  -8  -1  -6    3.40    3.70
  -1  -8   6    6.10    4.90
  -8   9   6   12.40    7.90
  -1  -8   6    8.20    7.90
   7   2   6  131.89   11.60
   7  -9  -6  119.59   12.30
  -9   2  -6  134.29    8.80
   7   2   6  132.49   11.60
  -9   7   6  126.89   12.40
   2  -9   6  137.89   10.80
   2  -9   6  132.19   12.20
   9  -7  -6  134.39   12.20
  -7  -2  -6  129.59    8.30
  -7   9   6  121.39   13.00
  -2  -7   6  117.89   12.30
  -2  -7   6  141.49   10.30
   9  -2   6  132.29   11.00
   3   6  -6  143.79   11.50
   6   3   6  165.58   11.90
  -9   6   6  152.78   13.60
   6  -9  -6  164.98   13.20
   3  -9   6  164.88   12.10
   6   3   6  161.48   12.70
  -3  -6   6  150.38   13.40
  -3  -6   6  155.78   10.80
   9  -3   6  162.58   12.60
  -6  -3  -6  148.99    9.30
   9  -6  -6  154.18   13.30
  -6   9   6  165.68   12.90
   4  -9   6   56.49    8.60
   4   5  -6   86.39   10.10
   5   4   6   83.29   10.50
   4  -9   6   87.39   10.40
   5   4   6   95.39    9.90
  -9   5   6   78.59   12.10
   9  -4   6   85.59   15.60
  -5  -4  -6   92.09    8.50
  -4  -5   6   84.49   11.00
  -4  -5   6   77.69    8.00
   9  -4   6   74.79    9.10
   9  -4   6   58.19    9.80
   9  -5  -6   91.89   12.50
  -5   9   6   84.19   10.50
   4   5   6  152.18   12.30
  -9   4   6  146.39   13.60
   5  -9   6  142.99   10.20
   4   5   6  157.98   12.30
   5  -9   6  129.29   12.10
   5   4  -6  136.79   12.00
   9  -5   6  114.69   17.90
  -4   9   6  148.59   12.00
  -4   9   6  138.49   13.20
  -5  -4   6  130.89    9.90
   9  -5   6  146.89   11.90
  -5  -4   6  136.89   12.80
  -4  -5  -6  135.09    8.50
   9  -4  -6  141.89   12.30
   3   6   6   66.29    9.10
   6  -9   6   64.59    8.10
   6   3  -6   64.19   10.90
  -9   3   6   63.59   11.50
   3   6   6   65.39   10.40
   6  -9   6   63.99   10.90
  -6   9  -6   48.90   27.10
   9  -6   6   59.39   12.00
   9  -6   6   63.69    9.60
  -3   9   6   65.39    8.70
  -6  -3   6   60.49    7.30
  -3   9   6   53.69    9.90
   9  -3  -6   56.29   10.30
  -3  -6  -6   50.99    5.70
  -6  -3   6   62.59   10.60
   7  -9   6   19.10    6.10
   7   2  -6    7.10    7.50
   7  -9   6    9.70    7.70
  -9   7  -6   46.10   25.10
  -9   2   6   -4.40   10.90
   2   7   6   14.90    7.50
   2   7   6    6.70    6.20
  -2   9   6   16.60    8.50
  -2  -7  -6    1.50    3.60
   9  -7   6    7.20    9.50
  -7  -2   6    9.00    4.30
  -7   9  -6    4.90   27.50
  -7  -2   6    8.00    8.00
   9  -7   6    7.80    6.20
   9  -2  -6    3.30    7.90
  -2   9   6    8.30    7.00
   1   8   6  118.69   11.40
   8   1  -6   87.59   12.90
   8  -9   6   84.19   13.40
  -9   1   6  111.59    8.20
   8  -9   6   91.29   10.50
  -9   8  -6  100.49   26.70
  -8   9  -6  141.39   29.90
   9  -1  -6  101.89   13.10
   9  -8   6   99.19   14.50
  -1   9   6  110.79   12.20
   9  -8   6  104.49   10.90
  -8  -1   6   96.29    8.20
  -1  -8  -6   83.39    7.00
   9  -9   6  163.58   12.50
   0   9   6  156.38   11.80
   0   9   6  171.18   14.10
   9   0  -6  136.69   15.30
  -9   0   6  171.38   10.40
  -9   9  -6  180.18   31.40
   9  -9   6  161.58   15.90
  -9   0   6  168.38   14.70
  10   0   6    6.10    6.10
   0 -10   6    2.10    5.30
  10 -10  -6    5.50    8.70
 -10   0  -6   -1.60    3.80
 -10  10   6    3.70    7.80
 -10   1  -6   47.60    6.70
   1 -10   6   43.80    7.90
   9 -10  -6   49.20    9.70
   9   1   6   46.70    8.70
 -10   9   6   48.40    9.10
  -9  -1  -6   54.99    6.50
  10  -9  -6   51.99   15.40
  -1  -9   6   47.60    8.10
  -9  10   6   54.69   10.10
  -1  -9   6   49.40    9.40
 -10   8   6   85.19   11.80
   2 -10   6   80.19    8.50
   8   2   6   76.19   12.10
 -10   2  -6   74.79    6.90
   8 -10  -6   63.39   11.40
  -8  -2  -6   76.89    7.10
  10  -8  -6   95.89   11.80
  -2  -8   6   82.29    8.60
  10  -2   6   82.59   10.00
  -2  -8   6   70.29   17.10
 -10   7   6   14.70    8.10
   3 -10   6   29.20    6.90
  -7  10   6   25.00    8.50
  -7  -3  -6   21.20    4.30
  10  -7  -6   21.60    8.10
  10  -3   6   22.40    7.90
  -3  -7   6   28.20    5.80
   4 -10   6  176.08   13.20
   6   4   6  200.48   13.50
 -10   6   6  159.48   15.80
  10  -6  -6  179.68   13.90
  -4  10  -6  230.28   35.50
  -6  10   6  170.08   15.00
  -6  -4  -6  180.58   10.10
  10  -4   6  171.28   12.70
  -4  -6   6  171.08   11.20
 -10   5   6   77.89   15.70
   5 -10   6   86.39   10.50
 -10   5  -6  176.28   32.10
   5   5  -6   70.89   12.10
   5   5   6   94.29   10.70
  -5  -5  -6   79.79    7.20
  10  -5   6   96.79   10.20
  10  -5  -6   92.19   11.30
  -5  10   6   87.59   12.30
  -5  -5   6   93.29    8.40
  -5  10  -6  112.19   28.90
  10  -5   6   89.79   15.30
   6   4  -6   44.10    9.40
   6 -10   6   45.40    7.40
 -10   4   6   55.49   11.90
   4   6   6   78.49   10.70
   6 -10   6   61.39   10.10
 -10   6  -6   39.60   24.40
  10  -4  -6   53.49    9.60
  -4  -6  -6   55.09    6.00
  -4  10   6   77.89   14.90
  -6  -4   6   60.69   16.30
  -6  -4   6   63.79    7.40
  -6  10  -6   52.19   30.50
  10  -6   6   57.09   12.90
  -4  10   6   72.89   10.70
  10  -6   6   51.19    9.40
   3   7   6  262.77   15.60
   7 -10   6  241.28   16.60
 -10   3   6  248.78   17.60
 -10   7  -6  357.76   34.90
   3   7   6  236.98   16.00
   7 -10   6  257.07   15.10
   7   3  -6  226.48   17.30
  -7  -3   6  244.58   13.80
  -7  10  -6  291.07   37.20
  -3  -7  -6  251.57   12.70
  -3  10   6  239.38   15.00
  -7  -3   6  252.47   16.90
  10  -7   6  276.17   20.30
  10  -3  -6  273.97   17.10
  10  -7   6  247.58   15.80
  -3  10   6  238.78   17.10
   8 -10   6  117.49   10.70
   2   8   6  109.09   10.40
   2   8   6  135.59   12.30
 -10   2   6  127.29   13.70
   8 -10   6  106.59   11.90
 -10   8  -6  184.38   31.80
   8   2  -6   92.89   12.70
  -8  10  -6  110.89   26.50
  -8  -2   6  106.49    8.90
  -2  10   6  111.49   12.70
  -2  -8  -6   98.99    7.80
  10  -8   6  120.69   16.40
  -8  -2   6  107.79   12.40
  10  -8   6  108.59   11.50
  10  -2  -6  112.09   14.60
  -2  10   6  115.19   10.30
   9 -10   6   -7.70    6.50
   1   9   6    5.10    6.90
 -10   9  -6  -26.20   23.80
   9 -10   6    3.70   12.40
   1   9   6    8.70    7.80
 -10   1   6    4.60    4.10
 -10   1   6   12.50    8.80
   9   1  -6    9.10    9.10
  -1  10   6    3.90    6.20
  10  -1  -6   10.80    8.80
  -1  -9  -6    1.20    3.50
  -9  -1   6   10.80    8.70
  -9  -1   6    3.50    4.40
  -9  10  -6  -26.20   23.30
  10  -9   6    5.20    6.50
  -1  10   6   12.60    7.70
   0  10   6  130.89   10.90
 -10   0   6  110.79   13.50
 -10   0   6  118.19    9.30
 -10  10  -6  123.49   26.20
  10 -10   6  124.39   11.50
  10   0  -6  139.49   14.70
  10 -10   6  118.39   13.90
   0  10   6  157.78   13.40
 -11  11   6   16.10    7.70
   0  11  -6  -23.70   25.20
  11 -11  -6    3.40    8.20
  11   0   6   13.00    6.70
   0 -11   6    6.00    5.60
 -11   1  -6   20.20    5.10
 -11  10   6   27.00    8.90
  10 -11  -6   30.10    8.70
  10   1   6   28.00    7.20
   1 -11   6   26.00    6.60
  11  -1   6   28.60    7.50
  -1  11  -6    5.50   26.70
 -10  11   6   29.30    8.40
  11 -10  -6   31.30    8.70
  -1 -10   6   20.50    5.70
 -10  -1  -6   27.50    5.00
 -11   9   6   -4.00    7.10
   9   2   6    5.40    6.10
 -11   2  -6   -1.10    4.30
   9 -11  -6   -1.40    7.20
  -2  -9   6   -0.70    4.60
  -9  11   6    0.20    7.60
  11  -9  -6   -6.80    8.60
  -9  -2  -6   -2.10    3.90
  -2  -9   6    8.30    8.00
  -2  11  -6   14.20   28.80
  11  -2   6    1.50    6.20
 -11   8   6  113.89   13.00
   8 -11  -6  110.29   11.20
   3 -11   6   92.09   13.60
   8   3   6  104.49   11.40
 -11   3  -6  102.69    8.30
  11  -3   6  111.39   14.80
  -3  -8   6  100.59    8.50
  -3  11  -6  126.59   32.00
  -3  -8   6   97.29   12.10
  -8  11   6  111.39   12.30
  -8  -3  -6  109.09    7.80
 -11   7   6   38.90    8.90
   7   4   6   46.80    8.60
   4 -11   6   44.30   10.50
   7 -11  -6   41.50    8.00
  -4  -7   6   49.20    9.40
  -7  -4  -6   45.50    6.40
  -4  11  -6   30.30   29.80
  11  -4   6   52.69   10.40
  -4  -7   6   45.20    7.20
  11  -7  -6   58.69   11.30
   6 -11  -6  131.89   11.70
   5 -11   6  120.79   16.30
   6   5   6  131.39   12.00
 -11   6   6  124.19   12.70
  -5  -6   6  116.69    9.50
  11  -6  -6  108.99   14.50
  -6  11   6  115.39   12.10
  -6  -5  -6  117.79    8.40
  11  -5   6  115.99   18.90
  -5  11  -6  151.88   32.30
  -5  -6   6  123.99   13.70
  11  -5   6  130.79   11.30
 -11   5   6  488.15   25.50
   5   6   6  515.95   24.00
   6   5  -6  476.35   29.30
   5   6   6  459.75   25.00
  11  -6   6  459.45   32.80
  -6  -5   6  496.25   23.10
  -6  -5   6  479.75   25.30
  -6  11  -6  529.95   44.50
  11  -6   6  486.35   24.10
  -5  -6  -6  475.95   22.00
  -5  11   6  496.85   26.10
  11  -5  -6  513.55   25.80
 -11   4   6  158.08   14.40
   4   7   6  189.38   13.10
   4   7   6  201.38   14.60
   7 -11   6  215.98   12.70
   7   4  -6  166.78   15.30
  -7  -4   6  200.38   15.70
  -4  -7  -6  179.98   10.80
  11  -7   6  202.48   13.40
  -7  -4   6  189.28   11.60
  -7  11  -6  219.88   35.60
  -4  11   6  214.68   13.20
  11  -4  -6  210.98   15.80
  -4  11   6  195.18   14.80
   8 -11   6   18.20    7.50
   8 -11   6   51.09    8.90
   3   8   6   56.89    9.90
 -11   8  -6   57.99   22.10
   3   8   6   24.30    6.70
   8   3  -6   13.90    9.10
 -11   3   6   32.50    9.30
  -8  11  -6   16.10   25.80
  -3  -8  -6   18.50    4.40
  -3  11   6   25.20    6.90
  -8  -3   6   20.80    8.50
  11  -3  -6   23.00   10.10
  11  -8   6   30.50    7.20
  -8  -3   6   27.60    5.30
  -3  11   6   34.40    9.50
  11  -8   6   26.00   11.20
   2   9   6  179.88   14.70
 -11   2   6  167.18   14.40
 -11   9  -6  169.48   30.70
   2   9   6  166.58   12.40
   9 -11   6  173.58   14.70
   9   2  -6  153.08   15.70
   9 -11   6  162.58   13.30
  11  -9   6  195.88   13.70
  -2  -9  -6  162.18   10.00
  -2  11   6  182.98   13.30
  -2  11   6  185.88   14.20
  11  -2  -6  168.48   16.70
  11  -9   6  192.58   18.70
  -9  -2   6  183.88   14.50
  -9  11  -6  183.58   33.70
  -9  -2   6  184.58   11.10
 -11   1   6  127.19   12.80
 -11  10  -6  109.29   27.60
  10 -11   6  135.09   12.30
  10 -11   6  119.79   13.70
  10   1  -6  107.49   15.80
   1  10   6  127.09   11.10
   1  10   6  151.68   14.20
  11 -10   6  133.79   15.10
 -10  -1   6  139.99    9.50
 -10  11  -6  132.59   26.60
  11 -10   6  137.79   12.40
 -10  -1   6  133.59   12.90
  -1  11   6  150.78   14.10
  11  -1  -6  139.19   15.90
  -1  11   6  115.79   11.10
  11   0  -6   -8.30   10.50
 -11  11  -6   12.80   20.60
   0  11   6    2.40    6.50
 -11   0   6    8.30    4.20
  11 -11   6    7.60    7.20
   0  11   6   17.40    9.00
  11 -11   6    2.70    8.60
 -11   0   6   16.20    8.80
 -12   0  -6    6.90    4.40
  12   0   6    4.80    7.30
  12 -12  -6   -0.70    7.90
 -12  12   6    8.10    7.90
   0 -12   6    5.70    5.30
   0  12  -6    6.20   26.50
 -12  11   6    7.10    8.00
   1  11  -6  -37.80   26.60
  11   1   6    0.90    6.70
   1 -12   6    6.80    5.60
 -12   1  -6   -1.10    4.30
  11 -12  -6    2.20    7.90
 -11  12   6    7.10    7.70
  12 -11  -6   -6.40    8.10
  -1 -11   6    1.30    4.70
  12  -1   6    5.60    6.40
  -1  12  -6   10.80   26.60
 -11  -1  -6    1.00    4.00
 -12  10   6   20.10    8.00
 -12   2  -6   26.60    5.00
  10 -12  -6   26.30    9.20
   2 -12   6   27.70    6.10
  10   2   6   22.00    7.10
  12  -2   6   27.80    7.50
 -10  12   6   39.60    9.20
 -10  -2  -6   33.50    5.50
  -2 -10   6   31.90    8.40
  -2  12  -6   14.20   25.90
  12 -10  -6   33.00    9.60
 -12   9   6   14.60    8.30
   3 -12   6   17.80    6.40
 -12   3  -6   18.20    4.70
   9   3   6   25.00    7.00
   9 -12  -6   18.60    8.80
  12  -3   6   25.10    7.10
  12  -9  -6   25.60    9.30
  -3  -9   6   17.60    5.80
  -3  12  -6    8.90   24.50
  -9  12   6   23.00    8.60
  -9  -3  -6   16.10    4.70
  -3  -9   6   21.10    8.40
   8   4   6  122.29   10.70
   8 -12  -6  123.49   11.50
 -12   8   6  121.79   12.40
   4 -12   6  126.99   10.40
 -12   4  -6  120.09    8.90
  -4  -8   6  123.99   10.00
  12  -4   6  114.99   11.60
  12  -8  -6  109.79   13.60
  -4  -8   6  129.59   12.90
  -8  -4  -6  115.39    8.40
  -8  12   6  131.79   12.60
   5 -12   6  422.16   22.50
 -12   7   6  434.26   24.10
   7   5   6  435.36   22.10
   7 -12  -6  437.26   22.40
  -5  12  -6  422.56   39.60
  -7  12   6  425.26   23.90
  -5  -7   6  458.35   24.30
  -7  -5  -6  441.96   20.30
  -5  -7   6  455.75   21.40
  12  -5   6  467.55   24.30
   6 -12   6  157.78   13.20
   6   6   6  184.48   12.50
   6 -12  -6  158.28   12.80
 -12   6   6  157.88   14.60
  -6  12  -6  201.48   35.80
  12  -6  -6  176.08   15.40
  12  -6   6  170.18   12.90
  -6  12   6  147.19   16.20
  -6  -6   6  154.88   13.70
  -6  -6   6  155.58   10.70
  -6  -6  -6  144.69    9.70
  12  -6   6  160.08   21.70
   5   7   6   91.49   10.10
 -12   5   6   72.69   11.40
   7 -12   6   96.49   10.40
   5   7   6  115.29   11.60
  -7  -5   6   86.29    8.60
  -7  12  -6   73.29   28.70
  12  -7   6   85.19   15.50
  12  -7   6  103.09   11.00
  -5  -7  -6   86.29    7.40
  -7  -5   6   83.59   12.40
  -5  12   6  115.19   18.00
  12  -5  -6   97.49   14.50
   4   8   6  444.06   21.90
   4   8   6  435.06   23.40
   8 -12   6  427.66   23.00
 -12   4   6  406.86   23.30
   8   4  -6  404.96   25.00
  -8  -4   6  417.36   23.40
  -4  -8  -6  426.86   19.90
  12  -8   6  417.56   27.60
  -4  12   6  458.05   24.50
  -4  12   6  438.76   21.70
  -8  -4   6  447.36   20.90
  12  -8   6  409.66   22.10
  12  -4  -6  435.06   24.50
  -8  12  -6  462.95   42.20
   3   9   6  147.99   11.50
   3   9   6  179.18   14.60
   9 -12   6  149.09   11.80
   9 -12   6  144.19   13.00
   9   3  -6  171.38   17.00
 -12   3   6  134.19   13.40
  -3  12   6  144.39   12.40
  12  -3  -6  152.88   15.10
  -3  -9  -6  133.79    9.40
  12  -9   6  134.39   19.40
  -9  12  -6  198.18   30.70
  -3  12   6  157.88   15.20
  -9  -3   6  151.08   13.50
  -9  -3   6  143.39   10.40
  12  -9   6  153.78   13.40
  10   2  -6   32.60   11.00
  10 -12   6   56.49    9.40
  10 -12   6   27.00    9.40
 -12  10  -6   25.50   21.80
 -12   2   6   27.20    9.30
   2  10   6   73.59   12.10
   2  10   6   29.40    7.20
 -10  -2   6   35.40    5.90
  -2 -10  -6   15.80    4.90
  12 -10   6   18.40   10.60
 -10  -2   6   28.50    9.00
  12 -10   6   39.20    8.70
  -2  12   6   30.70    7.00
 -10  12  -6   29.80   24.30
  12  -2  -6   20.20   11.10
  -2  12   6   38.40    9.70
 -12  11  -6   63.29   24.10
   1  11   6  101.69   13.10
  11 -12   6   69.99   11.30
 -12   1   6   69.79   11.40
   1  11   6   70.69    9.90
  11 -12   6   78.19   13.50
  11   1  -6   76.89   13.70
  12  -1  -6   74.79   13.90
  12 -11   6   84.09   10.90
 -11  -1   6   79.69   11.60
  12 -11   6   80.09   12.90
 -11  12  -6  113.29   24.50
 -11  -1   6   60.59    8.00
  -1  12   6   66.99    9.70
  -1  12   6   94.99   13.40
 -12   0   6   42.80    9.90
 -12  12  -6   38.00   21.80
   0  12   6   52.29   10.70
   0  12   6   43.40    8.10
  12 -12   6   47.90   11.00
  12   0  -6   31.40   12.50
   0  13  -6   18.90   23.20
 -13  13   6   11.50    8.10
 -13   0  -6    8.50    4.40
  13   0   6   15.90    7.50
   0 -13   6   13.90    5.60
  13 -13  -6   10.80    9.00
 -13  12   6   14.10    8.00
   1  12  -6  -10.20   24.90
 -13   1  -6    7.00    4.50
  12 -13  -6   10.30    8.50
  12   1   6   14.50    7.60
   1 -13   6   12.00    6.10
  -1  13  -6   20.40   23.50
 -12  -1  -6    9.20    4.50
  13 -12  -6   11.70    9.00
  13  -1   6   17.50    7.50
  -1 -12   6   14.50    5.20
 -12  13   6   21.70    8.90
   2  11  -6   28.60   29.10
 -13   2  -6   16.00    4.90
 -13  11   6   22.50    8.50
  11 -13  -6   19.90    9.00
  11   2   6   25.20    7.50
   2 -13   6   11.50    5.70
  -2  13  -6   30.90   24.30
  -2 -11   6   15.10    5.70
  13  -2   6   11.20    7.00
 -11  13   6   10.80    8.30
  13 -11  -6   20.30    9.50
 -11  -2  -6   17.70    5.30
  10   3   6   26.20    7.00
  10 -13  -6   29.50    8.50
 -13  10   6   27.10    8.40
 -13   3  -6   37.60    6.70
   3 -13   6   32.00    6.60
  -3  13  -6   45.90   26.00
 -10  13   6   26.90    8.70
  13  -3   6   32.10    7.90
  13 -10  -6   37.20   10.20
  -3 -10   6   36.30    6.60
 -13   4  -6  210.88   11.90
   9 -13  -6  218.68   14.90
   4 -13   6  213.48   13.80
 -13   9   6  194.88   15.10
  -4  13  -6  196.88   35.30
  -9  13   6  214.78   15.60
  13  -9  -6  201.18   16.90
  -9  -4  -6  198.08   11.60
  -4  -9   6  189.68   15.10
  13  -4   6  213.58   15.40
   8   5   6   76.99    9.60
   8 -13  -6   88.39   11.90
 -13   5  -6   77.99    7.60
   5 -13   6   81.19    9.20
 -13   8   6   73.59   10.80
  -8  -5  -6   78.19    7.60
  -5  -8   6   74.59    8.60
  -5  13  -6   86.39   27.70
  13  -5   6   85.09   10.80
  -5  -8   6   79.99   12.50
  13  -8  -6   90.79   15.80
  -8  13   6   88.29   11.90
   7   6   6  108.79   10.70
 -13   7   6   98.59   12.10
   7 -13  -6  105.49   11.00
   6 -13   6  108.99   10.60
  13  -6   6   85.09   14.50
  -7  13   6  137.09   13.30
  -6  -7   6  111.79    9.40
  -6  -7   6   99.49   12.00
  13  -7  -6  117.09   15.40
  -7  -6  -6  105.69    8.30
 -13   6   6  461.55   25.70
   6 -13  -6  473.35   23.90
   6   7   6  479.75   23.70
   7 -13   6  489.65   24.60
  -7  -6   6  471.75   22.90
  -6  -7  -6  468.25   21.90
  13  -7   6  460.75   31.90
  13  -7   6  496.65   26.00
  -6  13   6  481.95   26.30
  -7  13  -6  498.75   43.40
  -7  -6   6  492.85   26.00
 -13   5   6  127.99   14.10
   8 -13   6  129.39   11.80
   5   8   6  149.59   13.30
   5   8   6  144.69   11.70
  -8  -5   6  130.79   10.20
  -5  -8  -6  126.29    9.20
  -8  -5   6  127.79   12.90
  -8  13  -6  184.78   30.80
  -5  13   6  150.28   15.00
  13  -5  -6  137.49   17.20
  13  -8   6  137.49   19.10
  13  -8   6  173.68   14.10
   9   4  -6  112.69   15.90
   4   9   6   82.29   10.00
   9 -13   6   71.19   10.70
   4   9   6  105.49   11.90
 -13   4   6   95.69   13.00
  -4  13   6   86.49    9.70
  -4  13   6   93.19   11.90
  -9  -4   6   71.49   11.30
  13  -9   6   75.29   14.50
  -4  -9  -6   64.49    7.30
  13  -9   6   78.99   12.50
  13  -4  -6   80.89   16.10
  -9  13  -6   90.59   28.30
  -9  -4   6   72.39    8.50
  10 -13   6  193.58   15.20
   3  10   6  238.78   16.50
 -13   3   6  191.18   15.60
   3  10   6  216.98   13.80
  10   3  -6  231.18   19.90
 -10  -3   6  212.58   12.70
 -10  13  -6  254.07   32.20
 -10  -3   6  197.88   15.40
  -3  13   6  213.88   13.80
  13 -10   6  193.88   20.10
  -3 -10  -6  194.08   11.80
  13 -10   6  218.28   15.90
  13  -3  -6  225.08   19.00
  11   2  -6  108.19   17.90
   2  11   6  113.89   14.00
   2  11   6   96.49   10.20
  11 -13   6   87.89   13.80
 -13   2   6   82.49   12.00
  11 -13   6  106.69   10.20
  -2  13   6  127.49   14.40
 -11  -2   6   81.29    8.60
 -11  13  -6   81.69   26.20
  13  -2  -6   86.19   17.10
  -2  13   6   92.29   10.10
  13 -11   6   84.59   14.30
  13 -11   6   95.69   12.50
 -11  -2   6   80.49   11.60
  12 -13   6   41.20   10.40
 -13   1   6   35.40    9.30
   1  12   6   52.49   10.70
   1  12   6   31.50    7.40
  12   1  -6   35.80   12.80
  12 -13   6   72.69   11.40
 -12  13  -6   31.20   20.90
 -12  -1   6   32.80    5.80
  13 -12   6   34.90    9.90
  -1  13   6   36.90    7.50
 -12  -1   6   34.30    9.40
  -1  13   6   37.20   10.00
  13  -1  -6   29.30   13.70
  13 -12   6   28.20   10.60
   0  13   6   19.30    9.60
  13 -13   6    2.70    8.00
   0  13   6    2.60    6.30
  13   0  -6    4.80   12.00
 -13   0   6    0.90    8.00
 -13  13  -6  -26.00   19.40
  13 -13   6   -3.20    8.40
   0 -14   6   57.29    8.30
   0  14  -6   73.49   26.20
 -14  14   6   47.70    9.70
  14   0   6   55.69    9.60
 -14   0  -6   48.60    6.80
  14 -14  -6   49.80   10.80
  13 -14  -6    7.80    9.00
   1  13  -6   20.10   24.60
   1 -14   6   15.30    6.10
 -14  13   6    9.30    7.70
  13   1   6   15.30    8.00
 -14   1  -6   14.70    4.70
  -1  14  -6    1.60   23.20
 -13  -1  -6   10.80    5.00
  14  -1   6   25.00    7.20
  14 -13  -6   15.00   10.90
  -1 -13   6   18.40    5.70
 -13  14   6   20.30    8.90
   2  12  -6   -1.60   25.10
 -14  12   6    3.20    7.60
  12 -14  -6    4.90    8.00
 -14   2  -6    8.00    4.60
   2 -14   6    4.80    5.10
  12   2   6    3.10    6.90
 -12  14   6    4.60    8.20
 -12  -2  -6    4.40    4.60
  14  -2   6   10.90    7.20
  -2 -12   6    5.20    5.20
  14 -12  -6    7.60    9.60
  -2  14  -6    5.30   23.00
 -14  11   6   73.79   11.70
  11 -14  -6   67.39   11.90
  11   3   6   85.89   11.20
   3  11  -6   71.09   31.50
   3 -14   6   71.59    8.30
 -14   3  -6   80.59    7.20
  14  -3   6   80.69   10.70
  -3  14  -6   75.49   26.40
 -11  14   6   87.79   11.60
  14 -11  -6   93.29   13.70
  -3 -11   6   76.29    8.60
 -11  -3  -6   69.59    7.10
 -14  10   6   51.49    9.60
 -14   4  -6   56.49    6.60
   4 -14   6   51.59    7.80
  10   4   6   48.20    8.10
  10 -14  -6   44.60    9.10
 -10  14   6   68.69   11.30
  -4 -10   6   62.49    8.10
  14  -4   6   60.09   11.40
  14 -10  -6   50.99   11.60
  -4  14  -6   44.50   27.80
 -10  -4  -6   45.30    7.10
   9 -14  -6   49.30    9.30
   5 -14   6   52.09    8.30
   9   5   6   51.19    9.00
 -14   9   6   42.40    9.00
 -14   5  -6   43.30    6.10
  -9  -5  -6   49.99    7.00
  -5  14  -6   29.30   26.40
  -5  -9   6   33.70    9.30
  -5  -9   6   51.39    8.00
  -9  14   6   54.79   10.40
  14  -9  -6   46.10   12.80
  14  -5   6   50.19    9.80
 -14   8   6  286.37   18.40
   8 -14  -6  287.27   17.50
   6 -14   6  311.07   17.70
 -14   6  -6  295.37   15.10
   8   6   6  297.97   17.00
  -8  -6  -6  303.37   15.40
  14  -8  -6  315.57   20.80
  14  -6   6  305.67   17.80
  -6  14  -6  343.57   38.00
  -6  -8   6  313.07   18.90
 -14   7   6  121.59   13.90
   7   7   6  136.99   11.60
   7 -14   6  118.09   11.40
   7 -14  -6  116.89   11.70
  14  -7   6  143.79   12.40
  -7  14   6  151.78   14.50
  -7  -7   6  123.19   10.20
  -7  -7  -6  119.79    9.20
  -7  14  -6  102.09   26.70
  14  -7  -6  141.09   17.60
  -7  -7   6  141.49   14.00
 -14   6   6   59.79   11.20
   8 -14   6   64.79   10.70
   6   8   6   70.39    9.40
   6 -14  -6   87.29   11.90
  -8  -6   6   77.09    8.60
  14  -8   6   68.39   16.00
  -6  14   6   75.29   12.90
  14  -8   6   87.19   12.20
  -8  -6   6   84.39   11.50
  -8  14  -6  109.39   43.90
  -6  -8  -6   70.69    7.20
  14  -6  -6   56.69   12.20
   9 -14   6  299.37   18.40
   5   9   6  308.87   17.00
 -14   5   6  293.87   18.60
  14  -5  -6  285.17   20.80
  -9  -5   6  274.07   18.40
  -5  -9  -6  262.97   15.10
  -9  14  -6  327.77   35.80
  14  -9   6  299.77   24.30
  -5  14   6  320.97   19.30
  -9  -5   6  307.87   15.90
   4  10   6   62.29   10.50
  10 -14   6   35.70    8.30
 -14   4   6   45.40    9.80
   4  10   6   81.49   11.90
  14 -10   6   83.39   12.10
 -10  -4   6   52.09    8.10
 -10  -4   6   46.20    9.70
  14 -10   6   51.69   14.30
  -4 -10  -6   38.10    7.00
 -10  14  -6   59.99   25.80
  -4  14   6   76.09   13.10
  11 -14   6   43.00    9.40
   3  11   6   42.00    7.90
 -14   3   6   45.50   10.30
  -3  14   6   37.80    7.80
  -3 -11  -6   26.50    7.50
 -11  -3   6   48.70    7.80
  14 -11   6   69.69   11.80
 -11  -3   6   42.90    9.70
 -11  14  -6   35.30   21.70
  -3  14   6   67.79   11.50
  14 -11   6   33.10   13.30
  14  -3  -6   42.30   13.20
   2  12   6   75.19   13.80
  12 -14   6   64.49   11.20
  12   2  -6   71.19   16.30
 -14   2   6   64.39   11.10
   2  12   6   80.39   10.20
  14 -12   6   91.99   12.20
  -2  14   6   71.29   10.60
 -12  -2   6   79.49   11.30
 -12  -2   6   56.89    8.60
  -2  14   6   86.29   13.60
  14  -2  -6   74.29   15.90
 -12  14  -6  130.29   25.00
  14 -12   6   47.70   12.20
   1  13   6   35.80   10.40
  13   1  -6   -7.20   13.40
   1  13   6   10.80    6.70
 -14   1   6   16.50    9.60
  13 -14   6   14.20    9.30
  13 -14   6   20.60    7.60
  -1  14   6   18.80   10.40
 -13  -1   6    1.70    5.40
  -1  14   6    9.90    7.20
 -13  14  -6  -34.70   19.80
 -13  -1   6   11.30    8.50
  14 -13   6   27.40    9.00
  14 -13   6   13.30   10.40
  14  -1  -6   15.60   14.20
  14 -14   6   -1.10    8.80
  14 -14   6    9.20    9.40
 -14   0   6    8.00    8.80
  14   0  -6   -8.00   14.10
   0  14   6   20.60    7.60
 -15   0  -6   90.49    8.10
   0 -15   6   81.59    8.50
   0  15  -6   80.49   25.80
  15   0   6   82.59   10.70
  15 -15  -6   91.79   13.90
 -15  15   6   69.99   12.70
   1 -15   6    6.40    5.20
 -15  14   6   -5.10    7.60
  14 -15  -6   -4.20   10.00
 -15   1  -6    0.70    4.40
  14   1   6   -1.40    6.30
   1  14  -6   16.20   22.70
 -14  15   6    3.40    8.10
  15 -14  -6   11.80   10.40
  15  -1   6    4.30    7.10
  -1  15  -6    8.20   22.60
  -1 -14   6   -0.10    5.40
 -14  -1  -6    0.10    4.60
   2 -15   6   16.20    6.10
 -15  13   6   19.10    8.60
  13 -15  -6    8.90    9.00
   2  13  -6   -5.90   23.50
 -15   2  -6   14.50    4.70
  13   2   6   10.40    7.60
 -13  -2  -6   10.80    5.00
  15  -2   6    2.40    7.20
  15 -13  -6   13.90   11.50
  -2 -13   6   16.20    5.80
 -13  15   6   15.70    8.30
  -2  15  -6    9.60   24.70
  12 -15  -6   25.30    9.20
 -15  12   6   33.00    9.00
  12   3   6   30.50    7.90
 -15   3  -6   23.10    5.20
   3  12  -6   28.50   25.50
   3 -15   6   22.60    6.10
 -12  15   6   35.60    9.50
 -12  -3  -6   24.10    5.40
  -3 -12   6   23.90    5.70
  -3  15  -6    4.70   21.30
  15  -3   6   22.10    7.50
  15 -12  -6   20.50   11.10
  11   4   6   20.10    7.30
 -15  11   6   22.10    8.10
 -15   4  -6   14.00    4.90
  11 -15  -6   29.10   10.10
   4  11  -6    4.30   27.60
   4 -15   6   18.10    6.60
 -11  -4  -6   24.50    5.50
  -4 -11   6   21.50    5.70
  15  -4   6   21.80    8.30
 -11  15   6   26.50    9.50
  -4  15  -6   16.00   22.50
  15 -11  -6   17.40   10.50
 -15  10   6  188.88   15.10
   5 -15   6  203.48   13.50
 -15   5  -6  207.08   11.80
  10 -15  -6  195.38   14.80
  10   5   6  188.98   13.60
  15  -5   6  214.48   14.60
 -10  -5  -6  201.78   11.90
  -5 -10   6  188.38   12.80
  -5  15  -6  207.98   34.10
 -10  15   6  201.28   16.70
  15 -10  -6  204.58   17.80
   9 -15  -6  107.09   11.90
   6 -15   6  101.29    9.90
 -15   6  -6   96.79    8.50
   9   6   6   96.49   10.30
 -15   9   6   92.39   12.50
  -6  -9   6  104.09    9.60
  -9  15   6  116.19   13.90
  -6  15  -6   92.19   27.10
  15  -6   6  107.39   11.40
  -9  -6  -6   86.79    9.70
  -6  -9   6   97.19   13.20
  15  -9  -6  116.09   17.40
   8   7   6   37.50    7.90
 -15   8   6   20.30    8.80
 -15   7  -6   29.30    5.30
   7 -15   6   33.30    7.60
   8 -15  -6   23.50    8.00
  -7  -8   6   38.00    6.80
  -8  -7  -6   23.90    5.50
  -7  -8   6   33.10    9.00
  15  -8  -6   22.40   11.40
  -7  15  -6   11.60   23.70
  -8  15   6   51.29   10.50
  15  -7   6   57.99   10.20
 -15   7   6  263.27   17.80
   8 -15   6  266.77   16.60
   7 -15  -6  281.57   16.70
  -7  15   6  306.47   19.60
  15  -7  -6  257.67   20.60
  -8  15  -6  319.27   35.40
  -8  -7   6  284.07   18.10
  15  -8   6  311.87   18.60
  -7  -8  -6  288.17   14.70
  -8  -7   6  241.08   19.00
   9 -15   6   94.29   10.70
   6 -15  -6  101.59   11.30
 -15   6   6  111.89   13.20
   6   9   6  101.29   11.50
  -9  -6   6   97.69    9.60
  -6  15   6  112.99   12.80
  -9  -6   6   93.39   11.90
  15  -9   6   71.79   15.60
  -6  -9  -6   77.89    8.60
  15  -6  -6   98.79   18.80
  -9  15  -6   82.29   25.50
  15  -9   6   98.09   11.60
   5 -15  -6   30.90    7.90
 -15   5   6   36.30   10.00
   5  10   6   25.80    7.60
  10 -15   6   29.30    8.50
  -5 -10  -6   17.40    5.30
  15  -5  -6   44.10   13.80
  -5  15   6   33.20    9.90
  15 -10   6   37.90    8.90
  15 -10   6   25.80   13.80
 -10  -5   6   33.50    9.40
 -10  -5   6   24.70    6.40
  11 -15   6   75.39   10.90
 -15   4   6   59.59   11.10
   4  11   6   75.19    9.50
  -4 -11  -6   45.80    6.70
 -11  -4   6   67.89    9.00
  15  -4  -6   63.49   14.20
  15 -11   6   87.59   16.70
  -4  15   6   99.59   14.10
 -11  -4   6   66.79   10.90
  15 -11   6   48.60   13.60
 -11  15  -6   76.89   24.10
  12 -15   6    0.70    8.00
 -15   3   6    4.30    8.40
   3  12   6    5.70    6.40
   3  12   6   31.50   11.00
  15 -12   6   32.00   10.60
  -3  15   6    4.60    6.70
  -3  15   6   26.30   10.70
 -12  -3   6   -1.10    7.80
  15  -3  -6    7.90   13.50
  15 -12   6    3.80   12.40
 -12  15  -6   -2.90   20.10
 -12  -3   6   -9.10    5.00
 -15   2   6   23.00    8.70
  13 -15   6   31.50    9.80
   2  13   6   75.19   13.20
   2  13   6   29.10    7.50
  -2  15   6   33.50    7.20
 -13  -2   6   17.80    6.20
  15  -2  -6   16.10   24.90
  -2  15   6   44.70   11.80
  15 -13   6   32.00   12.00
 -13  -2   6   26.80    9.20
 -13  15  -6    3.40   19.40
   1  14   6    2.80    6.60
  14 -15   6    5.00    9.60
  14 -15   6    6.10    9.00
  14   1  -6  -11.10   14.60
 -15   1   6    3.20    8.20
  -1  15   6   13.30   10.80
  15  -1  -6    9.70   16.80
  -1  15   6    2.20    7.00
 -14  -1   6    7.00    8.40
 -14  -1   6   -8.10    5.30
  15 -14   6   21.80    9.40
  15 -14   6    8.90   10.00
   0  15   6   10.50   11.20
  15   0  -6   -9.50   15.40
 -15   0   6   -0.30    8.00
  15 -15   6    2.50    9.40
   0  15   6    5.70    6.40
  16   0   6   15.10    8.20
 -16   0  -6    2.30    4.90
   0 -16   6    1.40    5.60
  16 -16  -6   17.50   12.50
   0  16  -6   -7.20   21.30
 -16  16   6   11.90    8.50
  15   1   6   90.49   10.90
 -16  15   6   79.29   11.70
 -16   1  -6   85.09    8.60
  15 -16  -6  101.89   14.40
   1  15  -6   79.89   27.30
   1 -16   6   89.79    9.70
 -15  16   6   89.29   12.20
  -1 -15   6   86.89    9.50
  -1  16  -6  117.29   27.70
  16  -1   6   92.69   11.40
  16 -15  -6   98.49   15.30
 -15  -1  -6   97.29    8.70
 -16   2  -6   48.10    7.20
   2  14  -6   41.40   23.90
  14   2   6   35.20    8.20
   2 -16   6   36.90    7.30
  14 -16  -6   27.60   10.10
 -16  14   6   31.60    8.90
  16  -2   6   41.10    9.30
 -14  16   6   45.00   10.00
  -2 -14   6   30.40    6.40
  -2  16  -6   28.30   22.90
  16 -14  -6   30.40   12.40
 -14  -2  -6   40.90    6.50
   3  13  -6   21.40   24.90
  13 -16  -6    8.50    9.90
 -16   3  -6    3.20    4.70
   3 -16   6    4.00    5.60
  13   3   6   -1.50    6.00
 -16  13   6    3.50    7.80
 -13  16   6   10.40    8.20
 -13  -3  -6    4.00    4.90
  -3  16  -6    8.20   23.10
  16 -13  -6   -4.60   10.00
  16  -3   6   11.10    8.00
  -3 -13   6    7.20    5.50
   4 -16   6   73.79    9.40
 -16  12   6   67.29   10.90
   4  12  -6   72.29   27.10
  12 -16  -6   75.99   12.30
 -16   4  -6   86.59    8.00
  12   4   6   74.49   10.20
  16 -12  -6   73.39   12.80
  -4 -12   6   76.49    8.80
  -4  16  -6   43.80   24.30
 -12  -4  -6   78.59    8.10
 -12  16   6   84.69   12.30
  16  -4   6   78.69   10.80
  11   5   6   80.99   10.20
  11 -16  -6   78.49   13.90
 -16  11   6   68.29   12.20
 -16   5  -6   71.79    7.00
   5 -16   6   64.69    8.50
   5  11  -6   77.39   28.10
  -5 -11   6   64.09    8.10
 -11  -5  -6   63.59    7.30
  16 -11  -6   63.69   12.40
 -11  16   6   71.39   11.90
  -5  16  -6   51.49   24.90
  16  -5   6   89.59   11.10
  10   6   6   18.40    6.80
 -16   6  -6   19.50    4.90
  10 -16  -6   15.30    8.40
   6 -16   6   11.80    6.00
 -16  10   6   19.40    8.10
  -6 -10   6   13.80    5.70
 -10  16   6   27.30    9.10
  16 -10  -6   20.00   12.50
  -6  16  -6   27.50   22.00
  16  -6   6   24.50    7.90
 -10  -6  -6    7.80    5.10
 -16   7  -6  194.98   11.50
   9 -16  -6  199.88   15.80
 -16   9   6  179.18   14.50
   7 -16   6  188.48   13.70
   9   7   6  176.78   13.00
  -9  16   6  201.98   15.50
  -9  -7  -6  182.28   11.30
  16  -7   6  184.78   14.50
  -7  -9   6  177.08   15.00
  16  -9  -6  183.08   18.20
  -7  -9   6  178.18   12.20
  -7  16  -6  225.08   30.40
 -16   8   6  104.19   12.10
 -16   8  -6  105.29    8.20
   8 -16  -6  100.79   11.50
   8   8   6  108.59   11.00
   8 -16   6   95.59   10.70
  16  -8   6  120.09   14.10
  -8  -8  -6   75.89   11.10
  -8  -8   6  100.69   12.40
  -8  -8   6  113.19   10.00
  16  -8  -6  111.79   19.10
  -8  16  -6  127.39   28.80
  -8  16   6  128.69   13.10
 -16   7   6   24.50    9.20
   9 -16   6   19.50    7.50
   7 -16  -6   20.60    8.00
   7   9   6   21.10    6.90
  -9  16  -6  -14.30   21.90
  -9  -7   6   18.30    9.00
  -7  16   6   21.30    9.20
  16  -9   6   15.90    8.90
  -9  -7   6   20.10    6.40
  -7  -9  -6    5.30    5.50
  16  -7  -6   26.40   12.40
   6  10   6  154.38   13.10
   6 -16  -6  150.08   13.60
 -16   6   6  138.09   13.40
 -10  -6   6  155.38   14.50
  16 -10   6  149.99   20.80
  -6  16   6  182.08   16.60
 -10  -6   6  129.39   11.60
  -6 -10  -6  146.69   10.50
  16 -10   6  139.79   14.30
 -10  16  -6  144.59   27.10
  16  -6  -6  155.58   18.30
 -16   5   6   24.90    8.80
  11 -16   6   37.70    8.60
   5  11   6   27.10    7.40
   5 -16  -6   20.40    7.90
  -5  16   6   34.40   10.70
 -11  -5   6   41.40    9.60
  -5 -11  -6    7.40    5.70
  16 -11   6   42.70   10.80
  16  -5  -6   19.70   13.40
 -11  16  -6   40.50   21.70
  16 -11   6   33.60   14.10
   4  12   6   12.90    7.00
 -16   4   6    4.00    8.20
  12 -16   6    4.30    7.60
   4  12   6    8.30   10.20
  -4  16   6   20.00   11.10
 -12  16  -6  -36.50   33.00
 -12  -4   6    4.90    8.20
  -4 -12  -6  -11.30    5.00
  16 -12   6    4.20    9.30
  16  -4  -6   17.10   14.40
  16 -12   6    8.60   12.60
 -12  -4   6    3.70    5.90
  13 -16   6   13.80    8.30
   3  13   6   17.80    7.70
   3  13   6   34.70   10.60
 -16   3   6   27.60    9.40
 -13  -3   6   19.40    6.20
  16  -3  -6    9.10   15.20
  -3  16   6   29.60   11.30
 -13  -3   6    9.50    8.40
  16 -13   6   13.30   13.00
  16 -13   6   19.90   10.80
 -13  16  -6   17.30   19.70
  -3  16   6   12.20    7.00
   2  14   6    9.70    6.90
  14 -16   6   10.80    9.50
   2  14   6   38.50   18.40
 -16   2   6    8.30    9.70
 -14  16  -6  -22.70   19.00
  -2  16   6   21.40   11.10
  16 -14   6    7.30   12.90
  16  -2  -6   13.10   15.00
  16 -14   6    7.70   12.10
  -2  16   6   21.10    7.10
 -14  -2   6    4.20    8.70
 -14  -2   6   17.10    6.20
  15 -16   6  -11.40    8.50
   1  15   6   21.50   12.50
  15   1  -6   19.10   16.20
   1  15   6    3.30    7.00
 -16   1   6   10.30    9.10
  16  -1  -6   -2.10   16.50
 -15  -1   6   -5.30    8.30
  16 -15   6    7.60   10.90
  16 -15   6   15.50   11.10
  -1  16   6    5.10    7.40
 -15  -1   6   11.20    5.70
  -1  16   6    6.30   11.10
   0  16   6   26.60    7.70
   0  16   6   12.00   11.90
  16 -16   6   41.20   11.30
  16 -16   6   17.00   10.70
 -16   0   6    8.30    8.80
  16   0  -6   23.70   17.00
 -17  15   6    7.00    8.40
   2 -17   6   -2.30    5.60
  15   2   6    0.10    6.90
 -17   2  -6    3.30    5.40
  15 -17  -6    3.30   11.00
   2  15  -6   22.80   25.20
  17  -2   6    7.30    7.40
  17 -15  -6    7.20   10.70
 -15  -2  -6    0.70    5.10
  -2  17  -6   24.20   23.20
 -15  17   6   12.40    8.40
  -2 -15   6   -1.00    5.60
 -17   3  -6   31.90    5.70
   3  14  -6   33.70   23.30
   3 -17   6   37.60    6.80
 -17  14   6   35.60    9.80
  14 -17  -6   35.20   10.60
  14   3   6   26.10    7.90
 -14  17   6   31.70    9.30
  17  -3   6   38.90    8.70
 -14  -3  -6   41.80    6.70
  -3  17  -6   46.60   24.20
  -3 -14   6   30.10    6.30
  17 -14  -6   40.20   11.80
   4  13  -6   51.79   24.50
  13 -17  -6   54.89   11.50
 -17   4  -6   48.70    6.60
 -17  13   6   42.30   10.10
   4 -17   6   42.00    7.60
  13   4   6   60.19    9.80
  17  -4   6   53.89   10.60
 -13  -4  -6   41.80    7.00
 -13  17   6   51.89   10.90
  -4  17  -6   50.89   23.70
  -4 -13   6   55.99    7.70
  17 -13  -6   50.19   12.80
   5 -17   6    5.30    6.00
  12 -17  -6   -3.10    8.70
   5  12  -6    1.20   26.20
 -17   5  -6    8.10    4.70
  12   5   6    0.00    6.30
 -17  12   6    3.80    7.80
 -12  -5  -6    6.20    5.40
  -5  17  -6   -6.20   20.50
  -5 -12   6    1.10    5.80
 -12  17   6    8.50    8.90
  17  -5   6    8.40    7.60
  17 -12  -6    0.20   10.90
   6  11  -6   52.29   26.50
  11   6   6  103.09   11.10
 -17   6  -6  108.09    8.70
   6 -17   6   97.69    9.90
 -17  11   6   87.69   11.90
  11 -17  -6  105.89   14.50
 -11  17   6  106.29   13.80
  17  -6   6  114.29   14.00
 -11  -6  -6   96.99    9.20
  -6  17  -6   99.59   24.50
  -6 -11   6  100.99   10.00
  17 -11  -6   98.59   16.20
  10   7   6   79.29    9.90
  10 -17  -6   66.59   11.40
 -17  10   6   75.99   12.20
 -17   7  -6   79.99    7.30
   7 -17   6   86.89   10.30
  -7  17  -6   51.89   23.90
 -10  17   6   80.69   13.10
  17 -10  -6   67.79   15.30
 -10  -7  -6   68.49    8.20
  -7 -10   6   75.59    9.00
  17  -7   6   89.39   12.50
   9   8   6    7.70    7.10
 -17   8  -6    9.70    5.00
   8 -17   6    4.30    6.40
 -17   9   6    5.00    8.30
   9 -17  -6    1.80    7.80
  -9  -8  -6    1.70    4.80
  17  -8   6   10.70    9.60
  17  -9  -6   -2.10   11.80
  -9  17   6    8.80    9.10
  -8  17  -6  -10.00   22.70
  -8  -9   6   -5.30    5.30
 -17   8   6   87.99   12.90
   9 -17   6   97.09   11.20
   8 -17  -6  108.69   13.30
   8   9   6  104.89   11.00
 -17   9  -6   95.99    7.90
  17  -9   6   90.29   13.20
  -8  -9  -6   75.79    9.00
  17  -8  -6   97.49   16.50
  -8  17   6  118.79   15.00
  -9  17  -6   73.59   24.10
  -9  -8   6  100.49   10.10
  -9  -8   6  103.59   13.50
 -17   7   6   31.70    9.10
   7 -17  -6   33.30    8.30
  10 -17   6   30.60    7.50
   7  10   6   37.70    7.70
 -10  17  -6   44.80   24.10
  17  -7  -6   28.80   15.10
  -7 -10  -6   31.60    6.50
  -7  17   6   43.50   11.00
 -10  -7   6   37.90    7.20
  17 -10   6   47.80   10.50
 -10  -7   6   29.10   10.10
 -17   6   6   19.00    9.00
  11 -17   6   16.00    7.70
   6 -17  -6   23.60    7.80
   6  11   6   25.10    7.50
  -6 -11  -6    6.00    6.10
 -11  -6   6   24.80    9.40
  -6  17   6   26.60   10.90
 -11  -6   6   28.40    7.00
  17  -6  -6   26.80   15.00
  17 -11   6   29.50   10.90
 -11  17  -6    0.80   22.30
  12 -17   6   39.70    8.60
   5  12   6   55.99   10.30
 -17   5   6   50.79   10.70
   5 -17  -6   27.40    8.90
  17 -12   6   37.60   13.90
  17 -12   6   53.09   12.10
 -12  -5   6   47.70    8.50
  -5  17   6   59.29   12.50
 -12  -5   6   46.80   10.10
  17  -5  -6   64.89   17.00
 -12  17  -6   34.10   22.10
   4  13   6   51.49   11.80
   4  13   6   13.30    7.00
 -17   4   6   18.90    9.50
  13 -17   6    6.70    8.90
  -4  17   6   23.10   11.30
  17 -13   6   12.20   10.70
 -13  -4   6   12.40    8.90
 -13  17  -6   29.80   19.90
  17  -4  -6   14.70   14.80
 -13  -4   6   17.30    6.40
  17 -13   6    6.60   12.20
   3  14   6   50.59   13.10
 -17   3   6    6.30    8.30
   3  14   6   -0.70    7.00
  14 -17   6    4.60    8.30
  17  -3  -6   19.70   16.50
  17 -14   6   16.20   12.00
 -14  17  -6  -35.10   19.30
  -3  17   6   26.10   11.20
 -14  -3   6   11.90    8.80
  17 -14   6    4.10   11.50
 -14  -3   6    9.70    6.90
   2  15   6   37.80    9.10
   2  15   6   64.09   14.10
  15 -17   6   20.60    9.90
 -17   2   6   29.40    9.70
  17 -15   6   33.60   14.20
 -15  -2   6   39.70   13.40
  17 -15   6   39.90   12.70
 -15  17  -6   58.79   23.80
  -2  17   6   86.29   15.30
  17  -2  -6    7.90   17.40
 -15  -2   6   35.70   10.10
  -2  17   6   35.60    8.40
  13 -18  -6   13.80   10.60
 -18  13   6   21.00    8.10
   5 -18   6   19.00    6.80
 -18   5  -6   18.00    5.30
   5  13  -6    0.30   22.20
  13   5   6   24.70    7.60
 -13  -5  -6    8.70    5.70
  18  -5   6   16.40    8.50
  -5  18  -6   19.80   23.20
  -5 -13   6   16.40    6.60
 -13  18   6   16.30    8.70
  18 -13  -6   13.30   12.80
 -18  12   6   52.99   10.50
 -18   6  -6   42.90    6.40
   6 -18   6   39.00    7.80
  12 -18  -6   44.60   10.30
   6  12  -6   59.99   26.70
  12   6   6   55.39   10.10
  -6 -12   6   37.10    6.80
  18 -12  -6   36.90   13.60
 -12  18   6   40.70    9.80
 -12  -6  -6   44.90    7.50
  18  -6   6   45.40   10.40
  -6  18  -6   14.40   22.50
  11 -18  -6    4.70    9.50
   7 -18   6    2.60    6.10
 -18   7  -6    0.70    4.90
 -18  11   6   10.30    8.20
  11   7   6    1.60    6.30
   7  11  -6    7.20   25.70
 -11  18   6   11.90    8.50
  18  -7   6   17.40   10.40
  -7 -11   6    9.60    5.50
 -11  -7  -6    3.80    5.00
  -7  18  -6  -12.20   19.90
  18 -11  -6   10.60   12.30
 -18  10   6   39.10    9.80
   8 -18   6   37.50    7.70
 -18   8  -6   41.60    6.50
  10 -18  -6   43.80   10.70
  10   8   6   70.69   10.80
  18 -10  -6   56.09   15.30
  -8 -10   6   47.50    7.80
  18  -8   6   45.20   10.60
 -10  18   6   36.00   10.00
  -8  18  -6   13.90   22.00
 -10  -8  -6   20.10    6.20
   9 -18  -6   40.50    9.20
 -18   9  -6   42.00    7.20
   9   9   6   32.10    8.10
   9 -18   6   29.70    7.90
 -18   9   6   44.20   10.20
  18  -9  -6   37.60   14.50
  18  -9   6   54.19   11.60
  -9  -9  -6   46.60    7.00
  -9  -9   6   32.70    7.40
  -9  18  -6   37.10   22.80
  -9  18   6   30.80   10.10
  10 -18   6   10.70    7.00
 -18   8   6    5.10    8.10
   8 -18  -6    5.30    8.70
   8  10   6   10.50    6.70
 -18  10  -6    5.60    4.90
 -10  18  -6   20.40   21.80
  -8  18   6   13.00   10.30
 -10  -8   6   10.00    9.20
 -10  -8   6    8.20    6.10
  18  -8  -6   -9.20   12.50
  18 -10   6   27.80    9.50
  -8 -10  -6    0.00    5.50
   7  11   6   35.50    8.30
  11 -18   6   18.40    7.50
 -18   7   6   28.20    9.30
   7 -18  -6   21.10    8.50
 -11  18  -6   21.90   22.40
 -11  -7   6   29.80    6.90
  18 -11   6   50.29   11.10
  -7 -11  -6   20.40    6.60
  -7  18   6   48.50   11.40
 -11  -7   6   34.80   10.30
  18  -7  -6   34.10   15.80
  12 -18   6   -3.90    7.00
 -18   6   6   -3.40    8.50
   6  12   6    1.10    6.80
   6 -18  -6   -2.10    7.50
 -12  18  -6  -13.90   19.40
 -12  -6   6    2.00    5.80
  -6 -12  -6  -10.40    5.40
 -12  -6   6    5.70    9.00
  18 -12   6   17.40   10.20
  18  -6  -6    1.80   16.60
  -6  18   6   28.80   10.70
   5  13   6   24.10    7.40
 -18   5   6   10.70    9.30
  13 -18   6   22.70    8.30
   5 -18  -6   10.30    8.60
  -5  18   6   41.50   12.10
  18  -5  -6   12.10   13.90
 -13  -5   6   17.40    8.90
  18 -13   6   -1.40   12.90
 -13  -5   6   17.70    7.10
 -13  18  -6    9.00   20.70
   0   0   7    6.20    7.10
   0   0   7   -3.70    9.70
   0   0   7   -6.50    6.30
   1   0   7    8.90    6.40
  -1   1   7    8.70    8.20
   0  -1   7    9.00    8.80
   1   0   7   -5.70   11.60
   0  -1   7   13.20    6.90
   1   0   7    9.90    7.60
   0  -1   7    2.40    8.40
  -1   1   7    5.50    6.10
   1  -1   7    3.80    6.10
  -1   0   7   14.40    9.30
   1  -1   7   12.50   10.00
   1  -1   7   -1.70    7.60
   0   1   7    5.50    6.90
  -1   0   7   -5.00    7.50
   0   1   7    0.00    7.50
  -1   0   7    3.60    5.90
   0   1   7   -5.20   10.60
   0  -2   7   40.30    9.80
   2   0   7   33.90    7.40
   2   0   7   40.00    8.70
   0  -2   7   34.40    7.00
  -2   2   7   28.20    8.40
   2   0   7   39.60   13.60
  -2   2   7   41.20    8.30
  -2   2   7   22.60   11.00
   0  -2   7   45.50   10.00
   1   1   7   66.99   11.60
   1   1   7   59.59    9.00
  -2   1   7   56.39   10.60
   1  -2   7   71.29   11.60
   1  -2   7   60.49    8.50
   1   1   7   71.59   14.80
  -2   1   7   64.29   11.80
   1  -2   7   62.99   10.20
  -1   2   7   61.59   10.30
   2  -1   7   56.39   14.00
   2  -1   7   62.89   11.50
  -1  -1   7   58.09    8.90
  -1  -1   7   62.79   11.00
  -1   2   7   57.79    8.80
  -1  -1   7   77.39   12.30
  -1   2   7   56.79   13.80
   2  -1   7   69.69   10.30
   0   2   7   16.30    7.90
   0   2   7    7.80    6.60
   2  -2   7   21.20    8.40
  -2   0   7   13.40    8.40
   2  -2   7   12.60    7.20
   2  -2   7   19.20   10.10
  -2   0   7   17.00    8.50
   3   0   7   87.79    9.90
  -3   3   7   82.29   12.00
   0  -3   7   66.29   10.20
   0  -3   7   90.19   12.10
   0  -3   7  105.19   13.00
   3   0   7   85.99   16.30
   3   0   7   94.79   12.60
  -3   2   7    5.20    7.90
   1  -3   7    7.10    8.20
   2   1   7    7.30    7.90
   2   1   7   11.50    7.00
   1  -3   7    9.30    8.60
   1  -3   7    7.00    6.50
  -2   3   7    5.80    7.60
  -2   3   7   13.50    7.50
  -1  -2   7    9.60    8.40
   3  -1   7   13.90    8.20
   3  -1   7   16.40   11.20
  -1  -2   7   10.60    8.30
   3  -1   7   16.70    7.40
   2  -3   7   51.09    9.60
   1   2   7   52.59    8.90
   2  -3   7   68.89   10.50
  -3   1   7   64.79   10.70
   1   2   7   66.19   10.50
   2  -3   7   74.19   11.90
  -2  -1   7   50.39   11.70
   3  -1  -7   52.39    8.90
   3  -2   7   62.69   10.50
  -2  -1   7   61.79   10.20
   3  -2   7   48.10    8.50
   3  -2   7   50.99   12.20
  -1   3   7   63.59    8.70
  -1   3   7   50.29    9.50
   0   3   7  157.88   16.90
   3  -3   7  132.59   16.50
  -3   0   7  162.48   14.70
   0   3   7  131.99   13.60
  -3   0   7  127.19   20.30
   3  -3   7  149.88   13.70
   0  -3  -7  160.78    8.90
   3   0  -7  153.98   12.80
   3  -3   7  130.59   12.20
   4   0   7   86.99    9.60
  -4   4   7   77.99   12.50
   4   0   7   68.99   10.70
   0  -4   7   98.99   12.90
   0  -4   7   99.09   11.70
   1  -4   7   24.60    7.10
   3   1   7   27.60   11.40
   1  -4   7   22.80    8.80
   3   1   7   27.70    8.20
   1  -4   7   32.80    9.60
  -4   3   7   34.70    9.80
   4  -1   7   22.20   13.50
  -3   4   7   30.80    9.30
  -1  -3   7   28.00    8.00
   4  -3  -7   20.70    7.60
   4  -1   7   39.10    8.80
   4  -1   7   26.80    7.60
   2   2  -7   91.59   10.70
  -4   2   7   99.19   11.90
   2  -4   7  119.19   13.60
   2   2   7  114.49   12.50
   2  -4   7  106.69   12.30
   2  -4   7   98.99   10.50
   4  -2   7   99.69   12.00
  -2  -2   7  122.59   11.90
   4  -2   7  101.39   18.60
  -2   4   7  106.59   12.80
  -2  -2  -7   99.29    7.60
   4  -2   7   89.49    9.80
   4  -2  -7  100.99   11.60
  -2  -2   7   97.29   14.10
  -4   1   7   13.40    8.40
  -4   1   7   22.60    8.40
   1   3   7   13.60    8.30
   1   3   7   14.30    8.10
   3  -4   7    2.00    7.00
   3   1  -7   17.70    6.80
   3  -4   7   15.30    8.90
   3  -4   7    4.80    7.40
  -3  -1   7   16.30    9.40
  -1  -3  -7   17.20    3.90
   4  -3   7    7.30    6.70
  -3  -1   7   17.80    7.80
  -1   4   7   13.70    6.80
   4  -1  -7    7.30    6.80
   4  -3   7   13.20   10.50
  -1   4   7   20.90    8.40
   4  -3   7   19.10    8.70
  -4   0   7   82.49   12.20
   0   4   7   88.69   10.20
   4   0  -7  102.39   11.20
  -4   0   7   98.49   12.80
   4  -4   7   90.19   14.70
   0  -4  -7   99.29    7.70
   4  -4   7   95.29   10.70
   0   4   7   69.49   11.70
   4  -4   7  101.99   12.20
   5   0   7   49.40    9.50
  -5   5   7   63.99   11.70
   0  -5   7   49.60    8.90
   5  -5  -7   58.79   11.00
   0  -5   7   61.79   10.60
   5   0   7   51.29    9.40
   1   4  -7  288.17   16.90
   1  -5   7  265.67   16.30
   1  -5   7  299.87   18.00
  -5   4   7  266.77   17.60
   1  -5   7  266.07   18.10
   4   1   7  288.87   16.20
   4   1   7  279.67   17.80
  -4  -1  -7  306.77   14.30
   5  -1   7  265.87   17.00
  -1  -4   7  276.37   17.80
  -1  -4   7  270.77   17.70
   5  -1   7  279.27   18.20
  -4   5   7  269.27   17.50
   5  -4  -7  270.27   22.20
   2  -5   7   74.89   12.70
   3   2   7   88.69   10.10
   2  -5   7   90.79   10.50
  -5   3   7   90.59   11.80
   3   2   7   89.89   12.60
   2   3  -7  106.09   10.10
   2  -5   7  106.89   12.10
  -3   5   7   92.79   12.20
   5  -3  -7  111.09   11.90
  -3   5   7  102.49   10.20
  -2  -3   7   94.39   11.70
  -2  -3   7   82.09   11.90
   5  -2   7  107.99   17.00
   5  -2   7   98.69   10.60
   5  -2   7   93.69   12.30
  -3  -2  -7   99.89    7.50
   2   3   7   12.00    7.00
   3  -5   7   12.50    8.80
   3   2  -7   15.30    6.70
  -5   2   7    4.00    8.60
   3  -5   7   11.30    8.60
   3  -5   7   13.60    6.50
   2   3   7   17.00    8.60
  -2  -3  -7   16.00    4.10
   5  -2  -7   10.70    6.90
  -3  -2   7   11.90    8.30
   5  -3   7   14.20    7.40
   5  -3   7   20.30    8.50
  -3  -2   7   16.50    7.80
   5  -3   7   -3.00   12.20
  -2   5   7   10.20    6.50
  -2   5   7   17.10    7.90
   4  -5   7   73.99   10.70
   4  -5   7   94.69   12.40
  -5   1   7   85.89   12.80
   4   1  -7   87.99   11.50
   4  -5   7  109.49   14.70
   1   4   7  110.19   12.50
   1   4   7  101.99   10.30
  -4  -1   7  126.09   12.30
   5  -4   7   86.69   16.30
   5  -4   7   88.49   12.40
  -4  -1   7   95.69   13.30
  -1  -4  -7  100.09    7.20
   5  -1  -7  107.19   12.10
  -1   5   7  125.99   12.50
  -1   5   7   96.29   11.10
   5  -4   7   89.89   10.90
  -5   0   7   -2.70    7.60
   5   0  -7    8.20    7.70
   0   5   7   -3.00    6.30
   5  -5   7    3.50    9.90
   5  -5   7    2.10    6.50
  -5   0   7   18.40    6.70
   0   5   7    2.80    6.80
   5  -5   7    1.20    7.50
   0   6  -7  584.44   28.10
   0  -6   7  601.44   29.00
   6  -6  -7  588.04   28.40
   0  -6   7  598.04   30.10
   6   0   7  584.44   28.10
  -6   0  -7  602.14   26.50
  -6   6   7  576.64   30.00
   5   1   7  175.28   15.10
   1  -6   7  179.28   15.00
   5  -6  -7  208.28   14.00
   1  -6   7  180.68   14.50
  -6   5   7  183.48   14.60
   1   5  -7  217.28   13.60
   5   1   7  195.48   14.30
  -5  -1  -7  205.18   11.30
  -5   6   7  161.08   14.50
   6  -1   7  184.18   13.20
  -1  -5   7  187.98   15.50
   6  -5  -7  206.08   13.80
  -1  -5   7  182.58   13.90
   6  -1   7  190.08   15.20
   4   2   7   38.40    7.60
   2  -6   7   38.40    8.40
  -6   4   7   40.50    9.50
   4   2   7   41.60    9.70
   2   4  -7   59.09    9.90
   2  -6   7   31.20    9.40
   2  -6   7   37.70    7.30
  -2  -4   7   37.70    9.70
  -4   6   7   38.10    9.60
   6  -2   7   50.89    9.60
   6  -2   7   10.90   13.90
   6  -2   7   35.20    9.00
  -4  -2  -7   38.40    6.20
  -2  -4   7   57.09    9.60
   3  -6   7  237.38   17.00
   3  -6   7  226.38   17.40
   3   3   7  233.58   14.70
  -6   3   7  231.58   17.00
   3   3  -7  227.98   15.90
   3   3   7  245.58   16.90
   3  -6   7  234.18   14.50
  -3  -3  -7  230.98   12.40
   6  -3   7  259.57   16.90
  -3  -3   7  210.48   16.00
   6  -3   7  230.88   14.80
  -3  -3   7  257.87   15.60
   6  -3   7  235.78   22.80
   6  -3  -7  236.08   15.60
  -3   6   7  230.48   14.60
   2   4   7  104.79   12.40
   2   4   7  112.89   10.90
  -6   2   7  108.79   12.20
   4   2  -7  112.49   11.80
   4  -6   7   97.69   14.50
   4  -6   7  103.09   12.80
   6  -4   7  107.19   12.90
   6  -4   7  118.59   11.60
  -2   6   7   92.59   10.20
   6  -2  -7  105.69   12.70
  -2   6   7  113.29   13.10
  -4  -2   7  104.89   13.10
   6  -4   7  106.09   17.00
  -4  -2   7  126.39   10.90
  -2  -4  -7   98.19    7.60
   5  -6   7   -8.50    7.70
   5   1  -7   13.20    7.30
   1   5   7    1.70    7.40
   5  -6   7    4.90    6.40
  -6   1   7    8.00    8.20
   1   5   7    5.90    6.50
   5  -6   7    4.50    9.40
   6  -5   7    0.00   10.20
   6  -5   7    3.50    7.80
  -5  -1   7    4.60    8.40
  -5  -1   7   11.30    6.40
   6  -1  -7    9.20    7.60
  -1   6   7    1.30    6.20
   6  -5   7    4.80    7.00
  -1   6   7    2.20    8.00
   6  -6   7  -20.00    7.50
  -6   0   7  -12.70    6.70
   6   0  -7   -2.20    8.40
   0   6   7    1.60    7.80
   0   6   7    4.50    6.50
  -6   0   7    7.60    8.40
   6  -6   7    3.10    7.20
   7   0   7  172.78   12.80
   0  -7   7  136.19   13.10
   7  -7  -7  168.88   13.10
  -7   0  -7  172.98   10.40
  -7   7   7  145.59   13.40
   0  -7   7  163.78   14.70
  -7   1  -7  138.19    9.20
   1   6  -7  136.69   12.70
  -7   6   7  117.29   12.50
   6  -7  -7  117.09   11.50
   1  -7   7  116.39   13.30
   1  -7   7  133.89   12.20
   6   1   7  115.19   11.10
   6   1   7   92.19   13.20
  -1  -6   7  123.59   13.90
  -6  -1  -7  128.69    8.90
  -1  -6   7  120.89   11.90
   7  -1   7  127.19   13.30
   7  -1   7  126.29   11.60
   7  -6  -7  111.89   12.20
  -6   7   7  130.09   12.40
   2   5  -7  511.85   25.60
  -7   5   7  495.55   26.60
   2  -7   7  506.35   26.30
   5   2   7  526.85   25.50
   5   2   7  494.85   26.30
   2  -7   7  507.55   27.10
   7  -5  -7  505.55   25.70
  -5  -2  -7  524.45   23.10
  -2  -5   7  503.95   26.80
  -5   7   7  514.25   26.60
  -2  -5   7  498.15   25.50
   7  -2   7  485.15   26.50
   7  -2   7  497.95   25.00
   3   4  -7  246.18   15.00
  -7   4   7  208.38   16.20
   3  -7   7  201.88   16.80
   4   3   7  220.88   13.90
   3  -7   7  223.58   16.00
   4   3   7  208.28   16.00
   3  -7   7  209.78   14.00
  -3  -4   7  217.08   16.50
  -4   7   7  191.88   15.70
   7  -3   7  201.58   15.80
   7  -3   7  198.28   23.60
  -3  -4   7  209.58   15.00
   7  -3   7  202.08   18.30
  -4  -3  -7  243.08   11.80
   4   3  -7    7.90    7.30
   3   4   7    8.20    8.20
  -7   3   7   19.40    8.60
   4  -7   7   -3.50    8.20
   4  -7   7   18.50   14.40
   4  -7   7   12.20    6.70
   3   4   7    9.80    6.50
  -4  -3   7    8.50    8.00
  -3  -4  -7    7.20    3.80
  -4  -3   7    0.50    6.30
  -3   7   7   10.90    8.00
   7  -3  -7   10.70    7.40
   7  -4   7   12.30    7.50
   7  -4   7   10.00   11.70
   7  -4   7   12.70    8.10
  -3   7   7    9.60    7.50
   5   2  -7   64.49   12.40
   5  -7   7  106.09   10.70
  -7   2   7  111.59   13.30
   2   5   7  109.59   12.60
   5  -7   7  103.09   19.30
   5  -7   7  100.39   12.60
   2   5   7  103.09   10.80
  -2   7   7  100.89   10.20
  -2   7   7  113.69   12.40
   7  -2  -7   82.29   13.50
   7  -5   7  117.39   11.40
   7  -5   7   94.89   12.10
  -5  -2   7  107.89   11.10
  -5  -2   7   97.79   13.10
  -2  -5  -7  107.09    7.40
   1   6   7    9.20    6.60
   6   1  -7    4.30    7.50
  -7   1   7    9.00    8.60
   6  -7   7    6.40    6.80
   1   6   7   13.80    8.30
   6  -7   7   -0.60    7.50
   6  -7   7   18.90   10.00
  -1   7   7    0.60    6.40
  -6  -1   7   11.30    8.50
   7  -6   7   11.70   10.50
   7  -1  -7   -0.40    8.40
  -1   7   7   12.90    8.00
   7  -6   7    8.20    6.20
   7  -6   7   13.60    8.20
  -6  -1   7   20.70    6.70
   0   7   7   14.10    7.90
   7   0  -7   11.40    8.00
   7  -7   7   13.30    9.40
   0   7   7   10.90    6.80
   7  -7   7   16.90    7.20
  -7   0   7   15.20    8.20
  -8   8   7   81.19   11.00
   8   0   7   69.09    9.90
   8  -8  -7   68.09   12.60
   0  -8   7   75.69   10.40
   0  -8   7   87.29   11.70
   1  -8   7  507.35   25.50
   1  -8   7  465.95   26.10
   7  -8  -7  531.05   25.50
   7   1   7  486.35   24.30
  -8   7   7  446.16   26.00
   8  -7  -7  511.35   25.70
  -1  -7   7  501.55   25.00
  -1  -7   7  480.05   25.70
   8  -1   7  465.45   24.20
  -7  -1  -7  522.45   22.70
  -7   8   7  466.95   25.90
   6   2   7  180.48   13.80
   2  -8   7  161.38   13.60
   6   2   7  232.38   20.80
  -8   6   7  180.58   14.20
   6  -8  -7  195.88   14.20
   2  -8   7  150.78   13.90
   8  -2   7  161.88   12.80
  -2  -6   7  164.88   13.30
  -6   8   7  167.68   13.90
  -2  -6   7  172.28   14.30
  -6  -2  -7  180.38   10.40
   8  -6  -7  187.48   14.90
   3  -8   7   34.30    9.30
   5   3   7   35.50    7.80
   3   5  -7    5.70   13.80
  -8   5   7   45.90    9.90
   3  -8   7   35.10    8.80
   5  -8  -7   27.60    8.20
   5   3   7   64.59   11.80
   8  -5  -7   37.00    9.80
   8  -3   7   41.60    8.00
  -3  -5   7   40.90    7.20
  -5  -3  -7   41.70    6.20
  -5   8   7   49.40    9.80
  -3  -5   7   42.10    9.90
   4  -8   7  209.78   14.20
   4   4   7  218.18   16.10
   4  -8   7  224.18   20.40
   4   4   7  234.68   14.20
   4  -8   7  234.48   16.50
  -8   4   7  224.38   15.80
   4   4  -7  173.88   15.90
   8  -4   7  217.78   23.70
  -4  -4   7  213.18   15.70
   8  -4  -7  187.78   15.80
  -4  -4  -7  233.18   11.90
  -4   8   7  211.78   15.70
  -4  -4   7  235.08   14.80
   3   5   7  123.59   12.10
  -8   3   7  115.29   13.40
   5   3  -7  106.79   12.00
   3   5   7  128.09   12.70
   5  -8   7  118.09   14.00
   8  -5   7   84.89   12.60
  -3   8   7  105.49   13.40
  -5  -3   7  126.49   11.10
   8  -5   7  110.49   12.60
  -3  -5  -7  112.49    8.20
   8  -5   7  110.79   19.60
   8  -3  -7   85.39   15.80
  -3   8   7  111.49   10.70
  -5  -3   7  125.29   13.50
   2   6   7   14.60    9.50
   6  -8   7   22.10    7.10
   6  -8   7   26.80    9.20
   2   6   7   24.60    7.50
   6   2  -7   16.90    8.60
  -8   2   7   27.00    9.20
  -2   8   7   19.50    6.80
  -6  -2   7   14.70    8.50
  -6  -2   7   32.90    7.30
   8  -6   7   32.90   13.30
   8  -2  -7   18.30    9.00
  -2   8   7   19.50   15.80
   8  -6   7   13.90    7.70
   7  -8   7   22.90   10.30
   1   7   7   26.10    8.00
  -8   1   7   12.70    8.40
   7  -8   7   32.90    8.30
   7   1  -7   25.50    9.60
   1   7   7   43.90    9.30
   8  -1  -7   25.70    9.40
  -1   8   7   24.90    7.10
  -7  -1   7   34.70   10.30
  -7  -1   7   17.20    8.50
  -1   8   7   25.90    9.90
   8  -7   7   30.10   11.30
   8  -7   7   22.70    7.80
  -7   8  -7   45.60   31.40
   8  -8   7   -0.80    7.10
   0   8   7    2.20    8.80
   8  -8   7    1.60    9.10
   8   0  -7    9.40    8.30
  -8   0   7    5.90    8.30
   0   8   7    7.80    6.70
  -8   8  -7   64.19   33.10
  -9   9   7  349.37   21.30
   9  -9  -7  363.16   20.40
  -9   0  -7  373.66   17.70
   0  -9   7  363.26   21.70
   0  -9   7  352.56   19.80
   1  -9   7  193.28   14.20
  -9   1  -7  186.88   11.10
   8  -9  -7  185.48   14.30
  -9   8   7  175.28   14.20
   1  -9   7  163.08   14.30
   8   1   7  192.88   14.30
   9  -1   7  170.08   12.80
   9  -8  -7  191.18   15.60
  -8   9   7  167.18   14.50
  -1  -8   7  173.88   13.40
  -1  -8   7  157.28   15.00
   7  -9  -7   72.59   10.40
  -9   7   7   59.19   10.60
  -9   2  -7   72.49    7.70
   7   2   7   78.39   11.00
   2  -9   7   53.29    9.30
  -2  -7   7   75.39   12.30
   9  -7  -7   72.69   13.40
  -2  -7   7   70.99   11.10
  -7   9   7   72.79   11.20
   9  -2   7   86.19    9.80
  -7  -2  -7   66.59    7.30
   6  -9  -7  255.37   15.70
   6   3   7  249.58   15.60
  -9   6   7  255.27   17.00
   3  -9   7  264.57   16.90
  -3  -6   7  264.47   15.90
   9  -6  -7  245.38   18.20
  -6   9   7  254.77   17.80
  -3  -6   7  249.48   17.20
  -6  -3  -7  261.77   13.40
   9  -3   7  264.87   16.40
   5   4   7   85.49   12.70
   5  -9  -7  101.79   12.40
  -9   5   7   88.69   11.60
   5   4   7   99.89   10.80
   4  -9   7   97.29   12.30
  -4  -5   7   86.79   12.60
  -5   9   7   99.29   11.50
  -4  -5   7  115.29   10.60
  -5  -4  -7  102.99    7.80
   9  -4   7  112.59   10.80
   9  -5  -7  100.69   12.20
   5  -9   7   21.30    7.90
   4   5   7   39.70    9.10
  -9   4   7   24.00    8.90
   4   5   7   20.20    7.50
   9  -4  -7   22.80    9.30
  -5  -4   7   35.60    7.30
   9  -5   7    9.10   13.50
  -5  -4   7   20.40    8.60
  -4  -5  -7   19.60    5.10
  -4   9   7   30.50    8.90
   9  -5   7   33.20    8.10
   6   3  -7   99.69   13.30
   3   6   7   77.89   12.70
   6  -9   7  101.39   10.90
   6  -9   7   92.69   13.80
  -9   3   7   94.39   12.80
   3   6   7   96.29   10.30
  -6  -3   7  111.19   10.60
  -3   9   7  109.99   12.90
  -6  -3   7   77.29   11.40
  -6   9  -7  110.99   33.70
  -3  -6  -7   87.09    7.50
   9  -6   7   98.79   11.90
  -3   9   7   81.39   10.10
   9  -6   7   81.09   15.00
  -9   7  -7   56.09   30.50
   2   7   7   11.00    6.90
   7  -9   7   -8.30    7.80
   7   2  -7   13.40    9.00
   2   7   7   28.10    8.40
  -9   2   7    8.50    8.30
   7  -9   7    2.00    7.00
  -7   9  -7   38.90   34.40
  -7  -2   7   10.90    8.80
  -2   9   7    6.20    6.30
   9  -7   7   17.50    7.00
   9  -7   7    9.60   12.30
  -7  -2   7    8.50    5.80
   9  -2  -7    1.00    9.10
  -2   9   7   15.10    8.50
   8  -9   7  104.69   14.80
   8  -9   7  111.29   11.40
  -9   8  -7  158.78   36.20
   1   8   7  103.19   14.20
   1   8   7  103.19   10.80
  -9   1   7   98.89   12.10
   8   1  -7   77.29   15.60
   9  -8   7  108.49   11.70
  -1   9   7  114.89   19.50
  -8  -1   7  114.89   13.70
  -8   9  -7  146.09   35.80
   9  -8   7  111.99   15.40
  -1   9   7  122.89   11.80
   9  -1  -7   96.39   14.70
  -9   9  -7  300.17   41.00
   9  -9   7  177.18   18.20
   9  -9   7  185.58   15.30
   9   0  -7  145.79   17.50
   0   9   7  196.48   13.40
   0   9   7  191.48   16.50
  -9   0   7  192.08   16.10
  10   0   7  100.69   10.50
 -10  10   7   99.69   13.10
  10 -10  -7   94.19   12.80
 -10   0  -7  107.39    8.60
   0 -10   7   97.29   10.90
 -10   1  -7   36.70    6.70
   1 -10   7   48.00    8.10
 -10   9   7   47.30    9.60
   9 -10  -7   34.20    8.50
   9   1   7   44.90    8.00
  -1  -9   7   39.00    7.60
  10  -1   7   32.50    7.60
  -9  10   7   49.30   10.00
  10  -9  -7   33.10    9.70
  -1  -9   7   48.70   10.00
  -9  -1  -7   37.90    5.90
 -10   8   7  232.08   16.50
 -10   2  -7  276.27   13.80
   8 -10  -7  254.17   17.20
   2 -10   7  239.28   16.20
   8   2   7  249.88   15.60
  -8  -2  -7  217.28   14.30
  -2  -8   7  261.67   15.60
  10  -8  -7  243.48   16.90
  -2  -8   7  271.17   17.90
  10  -2   7  243.58   15.40
  -8  10   7  236.58   17.20
 -10   7   7   90.19   11.80
 -10   3  -7   96.39    8.60
   7   3   7  115.59   10.50
   3 -10   7   97.09   11.40
   7 -10  -7   91.49   12.10
  10  -7  -7  105.59   12.40
  -3  10  -7   87.49   34.00
  10  -3   7   94.49   10.50
  -7  -3  -7  102.09    7.90
  -7  10   7   99.09   11.70
  -3  -7   7   84.69   11.80
  -3  -7   7   80.29   13.50
 -10   6   7   25.60    8.90
   6   4   7   28.60    7.30
   6 -10  -7   30.20    7.70
   4 -10   7   22.80    7.20
  10  -6  -7   36.40    9.30
  -6  -4  -7   28.00    5.20
  -4  -6   7   46.30    8.00
  -4  -6   7   27.10    9.40
  -6  10   7   38.10    9.60
  10  -4   7   25.30    8.00
  -4  10  -7   43.00   32.30
   5   5   7   83.39   11.40
   5 -10   7   77.49   12.00
 -10   5   7   86.49   11.30
   5 -10  -7   92.59   10.70
  -5  10   7   83.39   11.20
  -5  -5  -7   85.69    7.80
  10  -5   7   84.19   10.40
  10  -5   7   83.09   17.10
  -5  -5   7   71.39   10.20
  10  -5  -7  109.39   14.10
  -5  10  -7   84.99   31.50
  -5  -5   7   79.89   11.40
   4   6   7   23.40    6.90
   4   6   7   37.00    9.10
 -10   4   7   30.40    9.40
   6 -10   7   23.60    8.00
  10  -4  -7   33.80    9.70
  10  -6   7   25.00    7.40
  -6  10  -7   32.80   34.20
  -6  -4   7   27.40    6.90
  10  -6   7   24.40   13.20
  -4  10   7   37.20    9.70
  -4  -6  -7   19.80    4.70
  -6  -4   7   32.20    9.80
   7 -10   7   82.39   12.80
   3   7   7   94.79   10.50
 -10   3   7   89.39   12.70
   3   7   7   96.09   13.30
  -3  10   7   94.69   10.40
  10  -3  -7  102.69   13.50
  -7  -3   7   90.49   10.60
  -7  -3   7  112.29   13.10
  -3  10   7   96.19   13.30
  10  -7   7  109.09   17.50
  -7  10  -7  164.78   41.30
   8 -10   7  130.39   13.00
   8   2  -7  104.29   16.50
   2   8   7  132.19   11.60
 -10   2   7  128.99   13.30
   2   8   7  143.39   14.30
   8 -10   7  115.29   15.10
  -2  10   7  128.29   14.20
  -8  -2   7  141.29   13.30
  10  -8   7  128.69   19.70
  -8  -2   7  118.29   11.40
  -8  10  -7  222.78   37.70
  -2  10   7  134.69   11.40
  10  -8   7  144.09   12.80
   9 -10   7   21.80    9.60
 -10   1   7   24.20    9.30
   1   9   7   22.50    7.40
 -10   9  -7   23.80   31.10
   9   1  -7   28.40   10.40
   1   9   7   41.20   10.00
   9 -10   7   32.00    8.40
  10  -9   7   33.60    8.40
  -1  10   7   27.50    9.80
  -9  -1   7   26.70    8.90
  -9  10  -7   79.49   31.00
  10  -1  -7   21.10   11.30
  10  -9   7   31.00   11.00
  -1  10   7   26.80    7.10
   0  10   7   79.79   13.60
  10 -10   7   96.09   15.60
   0  10   7   89.09   10.50
 -10   0   7   91.99   13.20
  10 -10   7  121.19   12.50
 -10  10  -7   56.39   30.90
  10   0  -7  102.79   16.00
 -11  11   7   39.80    9.30
 -11   0  -7   41.90    6.20
   0 -11   7   34.60    7.40
  11 -11  -7   34.40    9.20
  11   0   7   36.90    7.90
   0  11  -7   56.49   29.10
 -11   1  -7  192.88   11.00
   1 -11   7  182.18   13.40
 -11  10   7  167.18   15.20
  10   1   7  168.88   12.70
  10 -11  -7  170.98   16.00
  -1 -10   7  183.18   13.40
 -10  11   7  160.58   14.80
  11  -1   7  161.58   13.20
  11 -10  -7  165.88   14.70
  -1  11  -7  135.19   33.10
 -10  -1  -7  171.08   10.70
 -11   2  -7   97.39    8.50
   9 -11  -7  103.99   11.50
   2 -11   7   99.99   11.40
 -11   9   7  105.79   12.70
   9   2   7  101.29   10.30
  -2  11  -7  130.39   33.70
  11  -9  -7   97.89   12.70
  -2  -9   7   82.99   10.60
  -9  -2  -7   89.59    8.10
  -9  11   7  109.49   13.00
  -2  -9   7   94.79   12.00
  11  -2   7   75.59   11.80
 -11   3  -7   13.80    4.70
   3 -11   7   12.00    7.20
 -11   8   7    5.40    8.00
   8   3   7   20.50    7.20
   8 -11  -7   16.50    8.10
  -3  11  -7   45.10   32.10
  -3  -8   7    9.50    8.70
  -3  -8   7    9.60    6.40
  -8  11   7    8.70    8.00
  11  -3   7   16.30    7.60
  11  -8  -7   13.40    8.80
  -8  -3  -7    9.20    4.50
   7 -11  -7   49.90    8.70
 -11   7   7   46.70    9.30
   4 -11   7   69.29   10.70
   7   4   7   67.39   10.50
 -11   4  -7   57.99    6.70
  11  -7  -7   55.09   10.80
  11  -4   7   40.00    8.60
  -7  -4  -7   46.70    7.00
  -4  -7   7   62.29   11.00
  -4  -7   7   53.49    9.40
  -4  11  -7   38.00   31.90
  -7  11   7   49.99   10.00
 -11   6   7   34.50    9.40
   5 -11   7   20.90    7.50
   6   5   7   27.10    7.20
   6 -11  -7   25.80    7.70
  -5  11  -7    6.60   30.40
  11  -5   7   17.60    7.90
  11  -6  -7   32.00   10.70
  -5  -6   7   24.60    9.00
  -5  -6   7   30.10    7.00
  -6  -5  -7   23.10    5.00
  -6  11   7   27.90   10.10
   5 -11  -7   84.09   10.50
   6 -11   7   78.59   11.70
   5   6   7   75.29   10.10
 -11   5   7   76.99   11.30
  -6  -5   7   93.59    9.70
  11  -5  -7   83.49   13.20
  11  -6   7   81.79   17.40
  -5  -6  -7   57.09    7.30
  11  -6   7   62.09   10.60
  -5  11   7   81.89   12.00
  -6  11  -7  113.79   34.40
  -6  -5   7   83.99   12.30
 -11   4   7  102.89   13.00
   7 -11   7   92.69   11.80
   4   7   7   90.19   14.30
   4   7   7  111.29   10.50
  -7  -4   7   97.99   12.20
  -4  -7  -7   94.39    8.30
  -7  -4   7  110.29    9.90
  11  -4  -7  119.49   16.20
  11  -7   7   92.09   12.70
  11  -7   7  104.59   17.20
  -7  11  -7  115.69   32.80
  -4  11   7  111.49   14.00
   3   8   7    4.70    6.60
 -11   3   7   12.00    8.40
   3   8   7   38.70    9.40
   8 -11   7    3.30    8.90
  -8  -3   7   17.80    6.40
  -8  11  -7   56.69   51.09
  -3  11   7    7.10    7.20
  11  -8   7   10.80    8.60
  -3  11   7   12.90    9.10
  11  -8   7    8.50   11.70
  11  -3  -7   -8.90   11.40
  -8  -3   7    7.50    8.30
   2   9   7  104.49   13.70
 -11   2   7   70.99   11.30
   9 -11   7   74.39   13.00
   9   2  -7   67.09   12.80
   2   9   7   82.79   10.30
  -9  -2   7   98.09   10.30
  -9  -2   7   89.99   11.80
  -2  11   7   79.39    9.80
  -2  11   7  100.59   13.80
  11  -9   7   73.99   15.30
  -9  11  -7   84.59   34.20
  11  -2  -7   73.39   13.10
  10 -11   7  252.57   19.70
  10   1  -7  212.48   19.60
  10 -11   7  237.48   16.90
   1  10   7  250.27   15.40
 -11   1   7  236.78   17.90
 -10  -1   7  242.18   17.00
  11 -10   7  252.77   16.60
  -1  11   7  241.68   15.00
  11 -10   7  234.78   21.40
  -1  11   7  235.78   18.50
   0  11   7   65.89    9.80
  11   0  -7   40.70   13.60
  11 -11   7   76.69   11.30
 -11   0   7   71.09   11.40
   0  11   7   87.49   13.10
  11 -11   7   46.10   12.10
   0 -12   7   27.60    7.60
 -12  12   7   34.80    9.50
  12 -12  -7   30.80   10.70
  12   0   7   34.60    8.30
   0  12  -7   -1.50   28.30
 -12   0  -7   37.90    6.10
 -12   1  -7   18.40    5.50
 -12  11   7   14.20    9.00
  11 -12  -7   16.30    8.80
  11   1   7   19.90    7.20
   1 -12   7   12.20    6.50
   1  11  -7    9.00   29.40
  -1 -11   7   13.40    6.70
 -11  -1  -7   16.40    4.90
  12  -1   7   14.20    8.20
 -11  12   7   21.70    8.90
  12 -11  -7    7.90    8.80
  -1  12  -7   22.50   30.30
  10   2   7   12.50    6.80
 -12   2  -7    8.00    4.90
   2 -12   7   16.80    6.80
  10 -12  -7    2.50    8.10
 -12  10   7   11.50    8.40
  -2 -10   7    6.00    6.20
 -10  -2  -7    3.10    4.70
  12  -2   7    9.10    7.10
  -2  12  -7    9.90   27.20
  12 -10  -7    9.90    9.30
 -10  12   7    5.30    8.40
   9 -12  -7   85.19   12.40
 -12   3  -7   68.49    7.80
   3 -12   7   62.69    9.50
 -12   9   7   64.69   11.80
   9   3   7   66.19    9.80
  -3  -9   7   60.09   11.10
  -9  -3  -7   44.80    7.40
  -9  12   7   69.69   11.70
  -3  12  -7   60.09   29.70
  12  -9  -7   61.59   11.40
  -3  -9   7   67.39    9.30
  12  -3   7   90.39   11.60
   4 -12   7   33.70    8.10
   8 -12  -7   22.80    8.50
 -12   8   7   23.00    8.70
 -12   4  -7   31.00    6.00
   8   4   7   23.70    7.40
  -4  12  -7   42.50   30.50
  -8  -4  -7   21.10    5.00
  -4  -8   7   33.60    6.90
  -8  12   7   16.10    8.60
  12  -4   7   28.30    8.70
  -4  -8   7   26.80    9.10
  12  -8  -7   36.70   10.30
 -12   5  -7   15.60    5.30
   7 -12  -7   19.10    7.50
   5 -12   7   13.70    7.00
   7   5   7   17.90    7.00
 -12   7   7   18.90    8.10
  -5  12  -7   37.10   29.70
  12  -7  -7   11.40   10.70
  -7  12   7   22.40    8.50
  -5  -7   7   19.80    9.10
  -5  -7   7   17.50    6.50
  -7  -5  -7    8.90    6.30
  12  -5   7   20.00    7.70
   6 -12  -7   19.00    7.40
 -12   6   7   21.50    8.80
   6 -12   7    5.30    7.80
   6   6   7   13.10    6.50
  -6  12  -7   21.60   28.60
  -6  12   7   12.80    8.90
  -6  -6   7    9.50    8.30
  12  -6   7   10.20    7.30
  -6  -6   7   19.50    7.00
  12  -6  -7   14.20    9.90
  -6  -6  -7    3.90    4.70
   7 -12   7   -3.10    6.60
 -12   5   7    5.30    8.20
   5 -12  -7    2.80    7.10
   5   7   7    4.50    6.30
  12  -7   7   -3.10   13.70
  -7  12  -7  -18.50   27.30
  12  -5  -7  -11.90   11.60
  -5  12   7   15.40    8.60
  12  -7   7   12.10    8.30
  -5  -7  -7   -2.40    4.30
  -7  -5   7    4.90    8.20
  -7  -5   7    8.60    6.60
   4   8   7   93.99   10.50
   4   8   7  121.69   13.50
   8 -12   7   84.59   13.40
 -12   4   7   92.99   13.00
  -8  12  -7   55.79   34.00
  12  -8   7   85.49   16.70
  -8  -4   7   82.59   10.30
  -8  -4   7   84.49   12.70
  -4  -8  -7   60.99   11.90
  12  -8   7  114.19   12.70
  -4  12   7  111.79   13.50
  12  -4  -7   76.49   13.90
   3   9   7  158.88   15.70
   9 -12   7  133.09   14.40
 -12   3   7  140.09   14.60
   3   9   7  158.78   13.50
  12  -3  -7  168.78   18.40
  -3  12   7  173.48   15.40
  -3  12   7  144.29   12.30
  -9  -3   7  149.29   14.80
  -9  12  -7  190.98   35.80
  12  -9   7  151.78   20.70
  -9  -3   7  140.09   12.20
  10 -12   7   52.19   11.40
 -12   2   7   49.20   10.00
   2  10   7   55.89    9.50
  12  -2  -7   47.80   12.80
  12 -10   7   51.89   10.90
 -10  12  -7   41.50   38.50
  -2  12   7   61.39    9.50
  12 -10   7   33.90   13.50
 -10  -2   7   65.39    9.00
 -10  -2   7   66.39   12.10
  11 -12   7   61.69   11.80
   1  11   7   91.59   10.60
  11   1  -7  115.59   19.40
 -12   1   7  103.29   13.80
   1  11   7   96.29   15.30
 -11  12  -7  202.08   34.70
  12  -1  -7   44.90   15.20
  12 -11   7   76.79   14.10
  -1  12   7   77.69   10.20
  -1  12   7  116.39   14.20
  12 -11   7   73.09   16.10
 -11  -1   7   91.49   12.10
  12 -12   7  253.37   18.90
  12   0  -7  288.27   38.20
 -12   0   7  269.97   18.60
  12 -12   7  319.07   22.80
   0  12   7  319.27   20.20
   0  12   7  273.07   16.70
  12   1   7    3.60    7.20
 -13   1  -7    4.70    5.00
   1  12  -7   -6.90   26.70
   1 -13   7    3.10    6.40
  12 -13  -7   -1.10    8.80
 -13  12   7   12.60    8.70
  13 -12  -7    6.40    9.40
 -12  13   7    6.50    8.50
 -12  -1  -7    2.30    5.00
  -1 -12   7   14.30    6.30
  -1  13  -7   -4.40   25.90
  13  -1   7    1.10    7.90
 -13   2  -7   -3.00    4.70
 -13  11   7    0.90    8.10
  11   2   7    5.30    7.10
   2  11  -7  -15.10   29.50
   2 -13   7    9.60    6.40
  11 -13  -7    2.40    9.60
 -11  -2  -7   -5.80    4.90
 -11  13   7    6.00    9.00
  13 -11  -7    9.90    9.80
  -2 -11   7    3.90    6.00
  -2  13  -7    7.10   27.30
  13  -2   7   -6.70    6.80
 -13  10   7   -0.80    7.90
  10   3   7    6.30    7.10
  10 -13  -7   -3.10    8.10
 -13   3  -7   -8.00    4.50
   3 -13   7    2.80    6.40
  -3  13  -7   -7.30   25.70
  13 -10  -7   -6.50    9.30
  -3 -10   7    1.30    6.10
 -10  -3  -7   -4.10    4.20
  13  -3   7    4.00    7.90
 -10  13   7    0.70    8.30
   9 -13  -7   19.90    8.00
 -13   4  -7   17.60    5.40
   9   4   7   15.00    7.80
 -13   9   7   25.90    8.80
   4 -13   7    9.50    7.70
  13  -4   7   12.30    7.30
  -4  -9   7   19.00    7.30
  -4  -9   7    5.90    8.90
  -9  13   7   15.50    8.70
  13  -9  -7   21.10   10.70
  -4  13  -7   61.39   28.70
  -9  -4  -7   19.60    5.20
 -13   5  -7   36.20    6.60
   8   5   7   36.20    7.50
 -13   8   7   22.30    8.70
   8 -13  -7   19.40    8.50
   5 -13   7   38.70    8.70
  13  -8  -7   41.80   11.30
  -8  13   7   34.00    9.30
  13  -5   7   35.30    8.80
  -8  -5  -7   28.50    6.00
  -5  -8   7   22.10    9.10
  -5  -8   7   34.70    7.70
  -5  13  -7   35.70   28.70
   7   6   7   21.30    7.30
 -13   6  -7   19.60    5.40
   7 -13  -7   22.20    7.90
 -13   7   7   22.40    9.10
   6 -13   7   10.60    6.70
  13  -7  -7    9.20   12.70
  -6  13  -7    4.00   29.60
  -7  -6  -7   13.80    5.30
  -7  13   7   28.50    9.70
  13  -6   7   26.40    8.50
  -6  -7   7   19.40    8.90
  -6  -7   7   13.30    7.20
   7 -13   7   12.80    8.20
   6   7   7   24.00    7.70
 -13   6   7   24.00    8.80
   6 -13  -7   20.80    7.70
  -7  13  -7    1.00   29.00
  13  -7   7   35.70    9.10
  13  -6  -7   23.30   10.90
  -6  13   7   37.50    9.80
  -6  -7  -7   12.70    5.10
  -7  -6   7   30.50    9.60
  -7  -6   7   19.70    7.00
   5   8   7   58.49   10.40
   5 -13  -7   63.49   12.10
   8 -13   7   58.89   10.80
 -13   5   7   59.19   10.80
  -5  13   7   54.69   11.50
  13  -8   7   81.59   11.90
  -8  -5   7   50.59   12.60
  13  -8   7   46.60   15.60
  -8  -5   7   53.49   10.80
  13  -5  -7   57.49   12.20
  -8  13  -7   85.79   30.10
   9 -13   7   51.09   10.90
   4   9   7   55.89    9.70
 -13   4   7   61.69   11.40
   4   9   7   81.69   14.20
  13  -9   7   52.89   15.00
  -9  -4   7   62.39   10.80
  13  -4  -7   78.09   14.90
  -4  13   7   88.59   13.30
  -9  13  -7   28.20   30.60
  13  -9   7   73.99   10.80
  -9  -4   7   60.09    8.80
   3  10   7  115.69   15.00
   3  10   7   78.29   10.50
 -13   3   7   85.69   13.30
  10 -13   7   66.79   11.40
 -10  -3   7   57.29   10.20
  13 -10   7   71.29   16.10
 -10  -3   7   72.49   12.90
  -3  13   7   68.19   10.00
  13 -10   7   91.39   12.80
  -3  13   7   88.49   14.10
 -10  13  -7   89.99   31.70
  13  -3  -7   46.40   14.20
   2  11   7  203.18   18.80
  11 -13   7  225.48   19.10
 -13   2   7  195.98   16.20
   2  11   7  251.07   16.10
 -11  -2   7  226.48   17.40
  13  -2  -7  199.68   22.50
 -11  -2   7  242.58   16.60
  -2  13   7  253.67   19.40
  -2  13   7  220.68   14.70
 -11  13  -7  165.18   34.80
  13 -11   7  232.28   23.80
  13 -11   7  253.87   17.30
 -13   1   7  126.79   14.40
  12 -13   7   93.39   14.90
  12   1  -7  103.99   18.10
   1  12   7  121.59   11.70
   1  12   7  169.48   16.10
  13  -1  -7   91.09   17.40
  13 -12   7  132.89   19.00
  -1  13   7  148.49   16.70
  13 -12   7   76.29   15.40
  -1  13   7  112.19   11.10
 -12  13  -7   78.49   30.20
 -12  -1   7  104.59   12.90
 -14  10   7   19.30    8.60
  10 -14  -7   27.40    9.00
   4 -14   7   14.30    7.10
  10   4   7   14.30    7.00
 -14   4  -7   16.00    5.40
 -10  14   7   17.70    8.80
  -4  14  -7  -41.80   26.10
 -10  -4  -7    7.20    5.90
  -4 -10   7    7.20    7.30
  14  -4   7   17.90    7.70
  14 -10  -7   11.90   11.60
   9   5   7   17.10    8.20
   5 -14   7   27.60    8.40
 -14   9   7   17.80    8.90
 -14   5  -7   13.10    5.70
   9 -14  -7   22.90    8.40
  14  -5   7   24.60    9.00
  -9  14   7   18.40    8.80
  -5  14  -7    9.40   28.60
  14  -9  -7   18.50   12.20
  -5  -9   7   29.60    7.70
  -5  -9   7   21.30    9.40
  -9  -5  -7   16.40    5.50
 -14   6  -7    0.90    5.10
   8   6   7   11.40    7.50
 -14   8   7   12.10    8.20
   6 -14   7   11.30    7.60
   8 -14  -7    2.00    7.90
  14  -8  -7    9.40   12.00
  -6  14  -7   -4.00   25.40
  -6  -8   7    9.70    6.20
  -8  14   7   14.30    9.20
  14  -6   7   10.10    8.00
  -8  -6  -7    5.00    5.20
  -6  -8   7    7.60    9.10
   7 -14   7    1.50    6.90
   7   7   7   10.00    6.70
 -14   7   7    5.40    8.60
   7 -14  -7   -3.70    8.00
 -14   7  -7    0.80    4.70
  -7  14   7   20.90    9.50
  14  -7  -7   -0.10   10.80
  -7  14  -7   42.40   28.40
  -7  -7   7   12.40    6.30
  14  -7   7    8.20    7.90
  -7  -7  -7   -8.60    5.00
  -7  -7   7    6.70    8.30
   6 -14  -7   13.70    7.50
 -14   6   7   18.50    9.00
   8 -14   7   15.70    7.90
   6   8   7   23.70    7.60
  -8  14  -7   35.60   30.10
  14  -6  -7   16.60   12.80
  -8  -6   7   35.50    7.00
  -6  14   7   29.50   10.60
  -8  -6   7   19.30    8.80
  14  -8   7   12.70    8.30
   9 -14   7   37.60    9.40
   5 -14  -7   58.19   10.80
 -14   5   7   55.09   11.10
   5   9   7   42.70    8.10
  -9  -5   7   29.50    9.50
  14  -9   7   43.80   10.20
  -9  -5   7   61.19    9.30
  -5  14   7   49.10   11.80
  -9  14  -7   29.50   30.70
  -5  -9  -7   30.20    8.30
  14  -5  -7   57.79   14.20
  14  -9   7   42.00   16.00
   4  10   7  120.29   12.60
  10 -14   7  102.89   13.80
 -14   4   7  101.19   13.10
 -10  -4   7  116.49   12.80
  14 -10   7  115.09   14.00
 -10  14  -7  150.38   31.70
  14 -10   7   83.09   16.80
  -4  14   7  156.98   16.60
  14  -4  -7  110.69   20.20
 -10  -4   7  111.09   12.30
   0   0   8  -17.30   14.40
   0   0   8  -14.30    7.80
   0   0   8   -0.90    7.80
   1   0   8  -28.90   14.50
  -1   1   8    4.20    8.40
   1   0   8    3.40    7.40
   0  -1   8    3.20    8.30
   1   0   8    2.80    8.20
   0  -1   8  -10.20    7.00
   1  -1   8    8.30    7.40
   0   1   8   -4.40    7.10
  -1   0   8    7.80    8.40
   0   1   8  -10.60    8.20
   1  -1   8   -3.00    8.00
   1  -1   8   19.10   13.00
   2   0   8    5.60    8.60
   0  -2   8   14.20    8.20
   2   0   8    1.20    6.80
  -2   2   8    9.20    8.40
   0  -2   8    9.50   11.40
   1  -2   8   11.00    9.10
   1   1   8   14.30    7.20
   1   1   8   -8.80    8.50
  -2   1   8    7.60    7.80
   1  -2   8    4.60    7.50
   1  -2   8   11.50   13.40
   2  -1   8   28.90   16.50
  -1  -1   8   21.30   12.00
   2  -1  -8   16.20    7.30
  -1   2   8   12.90    8.20
  -1  -1   8   10.80    8.40
   2  -1   8    6.30    7.90
  -1   2   8    5.90    7.50
   2  -1   8   14.30    9.30
   0   2   8   43.60    8.40
   2  -2   8   49.00    9.00
   2  -2   8   41.40    9.80
   0   2   8   51.59    9.80
   2  -2   8   28.40   16.10
  -2   0   8   47.10   10.50
   2   0  -8   39.40    9.30
   0  -3   8    7.80   10.60
   3   0   8    6.00    8.70
   0  -3   8    1.60    8.80
   3  -3  -8   -6.80    7.40
  -3   3   8    8.40    8.60
   3   0   8   10.00    7.50
   1  -3   8   43.70   13.30
   1  -3   8   39.10   10.00
   1   2  -8   30.20    9.20
   1  -3   8   25.00    9.40
  -3   2   8   43.30    9.80
   2   1   8   39.80    8.50
   2   1   8   12.40    9.60
  -1  -2   8   44.40   11.90
   3  -1   8   36.30    8.90
  -2   3   8   42.10   10.30
   3  -2  -8   39.60    8.80
  -1  -2   8   46.30   10.40
   3  -1   8   41.00   10.40
  -3   1   8   20.20    8.30
   1   2   8   27.60    8.60
   1   2   8   20.30    8.10
   2  -3   8    5.20    7.30
   2  -3   8   16.80    9.50
   2   1  -8   14.40    8.30
   3  -1  -8   19.50    7.90
  -2  -1   8   13.00   12.50
  -2  -1   8   13.40    8.20
   3  -2   8    5.20    8.90
   3  -2   8   19.50    8.30
  -1   3   8    8.80    7.70
  -1   3   8    4.40    9.00
   3  -3   8   82.09   11.50
   3  -3   8   28.80   17.10
  -3   0   8   70.89   12.80
   0   3   8   47.70   10.50
   3  -3   8   82.49   12.40
   0   3   8   77.29   11.40
   3   0  -8   77.29   11.50
   4   0   8   25.00    9.10
   0   4  -8   31.80    9.10
   4  -4  -8   31.50    8.00
   0  -4   8   31.30   11.00
   0  -4   8   21.80    9.00
  -4   4   8   22.40    8.50
   3  -4  -8    4.60    7.20
   1  -4   8   10.90    9.00
   3   1   8   13.90    8.30
  -4   3   8    8.20    8.80
   1  -4   8   18.50   11.10
   3   1   8    2.60    9.00
   4  -3  -8   17.40    7.50
   4  -1   8    5.70    7.60
   4  -1   8   10.90   11.30
  -3   4   8   16.50    8.30
  -1  -3   8   15.50   10.70
  -3  -1  -8    7.90    4.60
  -1  -3   8    5.90    8.10
  -4   2   8   42.90   10.10
   2   2   8   43.40    9.20
   2   2  -8   70.49   11.10
   2  -4   8   39.10   14.50
   2  -4   8   26.80    9.40
   2  -4   8   48.40   12.20
   2   2   8   68.59   12.10
   4  -2   8   39.20    8.80
  -2  -2   8   54.39   10.60
  -2  -2   8   55.19   11.80
   4  -2   8   34.00   17.10
   4  -2  -8   63.49   11.30
  -2   4   8   60.59   10.70
   4  -2   8   31.50   10.20
   1   3   8  183.88   16.50
   3  -4   8  227.98   21.20
   3   1  -8  216.38   15.70
   1   3   8  202.38   14.10
   3  -4   8  181.98   16.40
  -4   1   8  197.48   15.30
   3  -4   8  197.18   15.30
   4  -3   8  172.68   16.60
  -1   4   8  204.98   15.40
   4  -1  -8  225.38   15.80
  -1   4   8  185.08   15.90
  -3  -1   8  197.38   15.50
   4  -3   8  209.78   24.10
   4  -3   8  206.08   15.20
  -4   0   8   43.20   10.30
   4   0  -8   51.79   10.40
   4  -4   8   40.90   10.40
   0   4   8   66.89   11.30
   0   4   8   54.79    9.60
   4  -4   8   30.20   14.80
   4  -4   8   53.59    9.60
   0  -5   8    1.00    8.80
  -5   5   8    4.90    8.20
   0   5  -8   33.10   12.80
   0  -5   8   -1.90    9.60
   5  -5  -8    5.00    7.30
   5   0   8   -2.40    7.10
  -5   0  -8    5.30    4.80
   5   0   8   -0.40    9.40
   1   4  -8   32.40    8.50
   4  -5  -8    8.00    7.70
   4   1   8    5.10    8.50
   4   1   8    6.20   10.60
  -5   4   8   13.70    8.70
   1  -5   8   18.30   10.50
   1  -5   8   -0.60    8.50
  -4  -1  -8   19.90    4.80
   5  -4  -8   21.80    7.90
  -1  -4   8   34.40   14.00
   5  -1   8   21.50    8.60
  -4   5   8   16.10    8.80
  -1  -4   8   17.10    9.10
   5  -1   8    4.30    9.40
   2   3  -8  124.09   12.30
   2  -5   8  107.79   16.30
   2  -5   8   83.79   11.80
   3   2   8   77.99   14.10
   3   2   8  103.99   12.30
  -5   3   8   99.49   13.60
   2  -5   8   85.69   13.30
   5  -3  -8  114.79   13.40
  -3   5   8  115.69   13.60
  -2  -3   8   91.09   12.30
   5  -2   8   86.79   10.90
   5  -2   8  108.79   18.00
  -3  -2  -8  112.99    9.00
  -2  -3   8  106.99   15.50
   3  -5   8   69.29   13.20
   3  -5   8   32.20    9.80
   2   3   8   60.09    9.90
   2   3   8   40.80   10.60
  -5   2   8   48.20    9.70
   3   2  -8   36.40   11.70
   5  -3   8   45.20   17.40
   5  -2  -8   43.40   10.30
   5  -3   8   24.70   11.60
  -3  -2   8   36.30    9.90
   5  -3   8   24.70    9.40
  -3  -2   8   53.99   11.60
  -2   5   8   44.80   10.20
   4  -5   8   72.29   13.80
  -5   1   8   69.79   11.30
   1   4   8   71.19   11.50
   4  -5   8   66.99   11.40
   4   1  -8  105.79   12.50
   4  -5   8   65.79   11.30
   1   4   8   75.99   12.50
   5  -1  -8   62.19   11.90
   5  -4   8   75.89   16.30
  -4  -1   8   63.99   11.10
  -1   5   8   73.99   10.20
   5  -4   8   60.49   11.30
  -1   5   8   43.80   10.30
   5  -4   8   44.80    9.80
   5   0  -8  240.58   16.60
   5  -5   8  191.98   22.40
   0   5   8  218.08   14.40
  -5   0   8  201.78   16.40
   5  -5   8  187.18   17.60
   0   5   8  195.78   16.90
  -6   0  -8   10.60    5.00
   6  -6  -8    7.00    7.50
   6   0   8   14.80    7.40
   0  -6   8    6.20    8.60
   0  -6   8   19.20    9.10
  -6   6   8   13.10    8.30
   5  -6  -8   33.60    9.10
   1  -6   8   16.00    9.10
   5   1   8   36.00   10.50
   1  -6   8   46.10   11.30
  -6   5   8   29.80    9.70
  -6   1  -8   45.30    7.40
   5   1   8   34.80    8.40
  -1  -5   8   50.99   10.50
   6  -1   8   42.10   10.80
  -5  -1  -8   22.60    5.60
   6  -1   8   41.60    9.20
  -1  -5   8   34.30    9.60
  -5   6   8   29.40    9.20
   6  -5  -8   19.80    8.80
   2  -6   8   23.90   10.40
   4   2   8   19.80    8.60
  -6   4   8   38.10   10.00
   4   2   8   16.10   11.70
   4  -6  -8   36.80    9.60
   2  -6   8   28.20    9.60
   2   4  -8   40.80   10.80
   6  -2   8   40.40    9.10
  -4   6   8   54.29   10.60
   6  -4  -8   24.00    9.70
  -2  -4   8   29.70   12.70
  -2  -4   8   45.80   10.20
   6  -2   8    2.10   10.60
  -4  -2  -8   44.80    6.90
   3  -6   8   16.90    8.50
   3   3   8   18.10    7.70
   3  -6   8   11.10    9.90
  -6   3   8   15.20    9.00
   3  -6   8   31.10   11.30
   3   3   8   12.20    8.60
   6  -3   8   26.00    8.70
   6  -3  -8   30.60    9.30
  -3  -3   8   19.50   10.70
  -3  -3   8   17.30    8.80
  -3   6   8   30.30    9.60
   6  -3   8   17.40   16.30
   6  -3   8   14.90   10.10
   2   4   8  152.68   12.70
   4  -6   8  133.89   14.30
   2   4   8  148.99   15.80
   4  -6   8  159.38   17.30
  -6   2   8  153.98   14.50
   4  -6   8  117.59   15.20
   4   2  -8  145.69   22.70
   6  -4   8  148.39   22.80
   6  -2  -8  156.78   13.70
  -2   6   8  162.48   15.00
   6  -4   8  141.69   12.60
  -4  -2   8  152.38   14.70
  -4  -2   8  157.08   17.50
   1   5   8   20.70    9.50
   5  -6   8   14.30   12.50
   5   1  -8   -1.20   10.40
   1   5   8   35.30    8.90
   5  -6   8   25.80    9.10
  -6   1   8   16.70    9.30
   5  -6   8   16.00    9.40
   6  -5   8   -6.80   14.50
   6  -5   8   23.50    8.20
  -5  -1   8   18.40    8.60
  -1   6   8   25.20    9.30
   6  -1  -8    6.00   10.20
  -1   6   8   25.40    8.00
   6   0  -8   87.99   14.70
   6  -6   8   84.79   13.60
   6  -6   8  128.39   18.50
   0   6   8  115.99   13.50
   6  -6   8   75.99   11.50
   1  -7   8   25.50    9.40
  -7   1  -8   16.00    5.00
   6  -7  -8   24.60    9.30
  -7   6   8   18.20    9.00
   1  -7   8    5.70    9.60
   6   1   8   17.10    7.50
  -1  -6   8    4.50    8.10
  -6  -1  -8   15.10    4.70
  -6   7   8   15.80    8.40
   7  -1   8   12.90    8.00
  -1  -6   8    8.30    9.20
   7  -6  -8   18.50    8.30
  -7   5   8   -1.00    8.60
  -7   2  -8   19.80    5.00
   2  -7   8   -6.70    9.30
   5   2   8   -4.90    9.50
   5   2   8   14.60    7.80
   5  -7  -8    9.20    7.20
   2  -7   8   -1.40    9.00
  -2  -5   8   19.20    9.30
   7  -5  -8   11.00    7.80
  -2  -5   8   11.90    9.00
  -5  -2  -8    9.20    4.60
   7  -2   8   18.00    8.70
  -5   7   8   13.10    8.60
   4   3   8  106.69   14.50
   3  -7   8   54.89   10.40
  -7   4   8   73.39   11.70
   4   3   8   68.79   11.00
   3  -7   8   59.59   12.00
   4  -7  -8   65.89   11.20
   7  -3   8   74.59   11.70
   7  -4  -8   74.39   13.70
  -3  -4   8   80.19   13.80
  -4  -3  -8   80.19    8.10
  -4   7   8  100.89   13.00
   7  -3   8   70.49   13.40
  -3  -4   8   81.99   12.80
  -7   3   8   33.10   10.20
   3   4   8   54.09    9.80
   4  -7   8   20.50    8.90
   4  -7   8   27.90   11.20
   3   4   8   24.50   10.50
   4   3  -8    9.50   10.70
   4  -7   8   21.40    9.40
  -4  -3   8   53.99   10.80
   7  -4   8    8.60   15.30
   7  -4   8   49.20    9.30
  -4  -3   8   24.50    9.30
   7  -3  -8   28.30   10.70
  -3   7   8   42.60    9.80
   2   5   8   67.59   10.60
   5   2  -8   72.69   16.10
   2   5   8   75.19   12.30
  -7   2   8   77.69   12.50
   5  -7   8   66.09   12.30
   5  -7   8   53.89   12.00
   7  -2  -8   71.09   12.20
   7  -5   8   85.99   11.50
  -2   7   8   67.89   10.50
   7  -5   8   40.80   12.20
  -5  -2   8   70.19   12.60
  -2   7   8   87.89   13.00
   7  -5   8   75.79   16.20
   6  -7   8  186.88   20.50
   6   1  -8  200.88   17.90
   1   6   8  201.48   16.90
   1   6   8  217.48   15.40
  -7   1   8  195.98   16.00
   6  -7   8  156.98   15.70
  -1   7   8  210.58   16.60
   7  -6   8  167.18   23.70
  -6  -1   8  210.38   16.70
   7  -1  -8  230.78   17.40
   7  -6   8  208.08   15.40
  -1   7   8  193.98   14.10
  -8   4   8   31.50   10.10
   4  -8  -8   21.40    8.60
   4   4   8   22.90    8.60
   4  -8   8   14.70    9.60
   4   4   8   23.00   14.30
   8  -4   8   22.20    8.70
  -4  -4  -8   38.60    8.00
  -4  -4   8   26.00    9.60
  -4  -4   8   15.10   10.90
   8  -4  -8   28.60   10.70
  -4   8   8   39.90   10.50
   0   0   0    0.00    0.00


_computing_structure_solution     'SHELXT 2014/5 (Sheldrick, 2014)'
_computing_structure_solution     'SHELXT 2014/5 (Sheldrick, 2014)'
;
_shelx_hkl_checksum              97855
_olex2_submission_special_instructions 'No special instructions were received'
loop_
_space_group_symop_operation_xyz
'x, y, z'
'-y, x-y, z+1/3'
'-x+y, -x, z+2/3'
'y, x, -z'
'x-y, -y, -z+2/3'
'-x, -x+y, -z+1/3'
loop_
_atom_site_label
_atom_site_type_symbol
_atom_site_fract_x
_atom_site_fract_y
_atom_site_fract_z
_atom_site_U_iso_or_equiv
_atom_site_adp_type
_atom_site_occupancy
_atom_site_site_symmetry_order
_atom_site_calc_flag
_atom_site_refinement_flags_posn
_atom_site_refinement_flags_adp
_atom_site_refinement_flags_occupancy
_atom_site_disorder_assembly
_atom_site_disorder_group
Zn1 Zn 0.66228(2) 0.38151(2) 0.02228(5) 0.02281(12) Uani 1 1 d . . . . .
O2 O 0.64125(15) 0.35612(15) 0.5835(3) 0.0329(7) Uani 1 1 d . . . . .
O3 O 0.61730(15) 0.41210(16) 0.8167(3) 0.0286(7) Uani 1 1 d . . . . .
O1 O 0.58411(14) 0.34176(15) 0.2245(3) 0.0258(6) Uani 1 1 d . . . . .
C1 C 0.5529(2) 0.3750(2) 0.3070(5) 0.0280(9) Uani 1 1 d . . . . .
C2 C 0.5629(2) 0.3984(2) 0.5059(5) 0.0257(8) Uani 1 1 d . . . . .
C7 C 0.6097(2) 0.3885(2) 0.6437(5) 0.0246(8) Uani 1 1 d . . . . .
C3 C 0.5272(2) 0.4327(2) 0.5755(5) 0.0321(10) Uani 1 1 d . . . . .
H3 H 0.534291 0.448072 0.705672 0.038 Uiso 1 1 calc R . . . .
C4 C 0.4818(2) 0.4450(2) 0.4609(5) 0.0354(10) Uani 1 1 d . . . . .
C6 C 0.5078(3) 0.3887(3) 0.1921(5) 0.0394(10) Uani 1 1 d . . . . .
H6 H 0.501053 0.374643 0.060783 0.047 Uiso 1 1 calc R . . . .
C5 C 0.4732(3) 0.4220(3) 0.2656(6) 0.0451(12) Uani 1 1 d . . . . .
H5 H 0.443177 0.429548 0.183413 0.054 Uiso 1 1 calc R . . . .
O4 O 0.7100(8) 0.5047(7) 0.1675(17) 0.168(5) Uani 0.631 1 d D U P . .
O5B O 0.772(4) 0.570(3) 0.444(6) 0.54(5) Uani 0.296 1 d D U P A 2
C8B C 0.743(4) 0.549(3) 0.288(7) 0.32(2) Uani 0.296 1 d D U P A 2
C8A C 0.699(3) 0.548(2) 0.093(9) 0.289(17) Uani 0.335 1 d D U P A 1
O5A O 0.664(3) 0.573(2) 0.038(10) 0.47(3) Uani 0.335 1 d D U P A 1
loop_
_atom_site_aniso_label
_atom_site_aniso_U_11
_atom_site_aniso_U_22
_atom_site_aniso_U_33
_atom_site_aniso_U_23
_atom_site_aniso_U_13
_atom_site_aniso_U_12
Zn1 0.0265(2) 0.0304(2) 0.01408(17) 0.00103(17) 0.00021(17) 0.0161(2)
O2 0.0464(17) 0.0530(17) 0.0192(12) -0.0104(11) -0.0113(12) 0.0398(14)
O3 0.0460(18) 0.0407(17) 0.0129(10) -0.0061(12) -0.0072(12) 0.0321(15)
O1 0.0357(15) 0.0398(17) 0.0120(10) -0.0017(11) 0.0007(10) 0.0263(14)
C1 0.038(2) 0.041(2) 0.0147(17) 0.0006(16) 0.0027(16) 0.028(2)
C2 0.036(2) 0.036(2) 0.0160(17) 0.0004(16) -0.0009(15) 0.0262(19)
C7 0.033(2) 0.029(2) 0.0172(17) 0.0028(15) 0.0028(15) 0.0195(17)
C3 0.053(3) 0.047(3) 0.0136(17) -0.0024(17) 0.0001(17) 0.039(2)
C4 0.058(3) 0.055(3) 0.0172(17) -0.0006(18) -0.0001(18) 0.046(3)
C6 0.060(3) 0.069(3) 0.0135(16) -0.0057(19) -0.0051(19) 0.050(3)
C5 0.070(3) 0.081(4) 0.0183(18) -0.005(2) -0.008(2) 0.064(3)
O4 0.197(13) 0.114(9) 0.142(10) -0.019(7) 0.005(9) 0.038(9)
O5B 0.56(7) 0.32(5) 0.38(4) -0.15(4) -0.21(5) -0.05(6)
C8B 0.37(4) 0.18(3) 0.26(3) -0.09(2) -0.07(3) 0.02(3)
C8A 0.39(4) 0.10(2) 0.31(3) -0.03(2) -0.11(3) 0.08(2)
O5A 0.54(6) 0.23(4) 0.63(7) 0.02(5) -0.21(6) 0.19(4)
loop_
_atom_type_symbol
_atom_type_description
_atom_type_scat_dispersion_real
_atom_type_scat_dispersion_imag
_atom_type_scat_source
C C 0.004 0.002
'ANOMDisVal Program in PLATON Spek, A. L. J. Appl. Crystallogr. 2003, 36, 7-13'
H H 0 0
'ANOMDisVal Program in PLATON Spek, A. L. J. Appl. Crystallogr. 2003, 36, 7-13'
O O 0.013 0.007
'ANOMDisVal Program in PLATON Spek, A. L. J. Appl. Crystallogr. 2003, 36, 7-13'
Zn Zn 0.228 1.672
'ANOMDisVal Program in PLATON Spek, A. L. J. Appl. Crystallogr. 2003, 36, 7-13'
loop_
_geom_angle_atom_site_label_1
_geom_angle_atom_site_label_2
_geom_angle_atom_site_label_3
_geom_angle
_geom_angle_site_symmetry_1
_geom_angle_site_symmetry_3
Zn1 Zn1 Zn1 112.507(17) 3_664 2_655
O2 Zn1 Zn1 97.28(7) 3_664 3_664
O2 Zn1 Zn1 45.91(7) 2_654 3_664
O2 Zn1 Zn1 43.92(7) 3_664 2_655
O2 Zn1 Zn1 71.88(7) 2_654 2_655
O2 Zn1 O2 82.67(3) 2_654 3_664
O3 Zn1 Zn1 85.47(7) 1_554 3_664
O3 Zn1 Zn1 138.80(9) 1_554 2_655
O3 Zn1 O2 174.76(11) 1_554 3_664
O3 Zn1 O2 102.39(11) 1_554 2_654
O3 Zn1 O1 98.48(11) 1_554 3_664
O3 Zn1 O1 100.05(11) 1_554 .
O1 Zn1 Zn1 141.70(8) . 3_664
O1 Zn1 Zn1 120.16(7) 3_664 2_655
O1 Zn1 Zn1 42.73(7) 3_664 3_664
O1 Zn1 Zn1 42.98(8) . 2_655
O1 Zn1 O2 80.73(9) 3_664 3_664
O1 Zn1 O2 80.58(9) . 3_664
O1 Zn1 O2 82.14(10) 3_664 2_654
O1 Zn1 O2 96.31(11) . 2_654
O1 Zn1 O1 161.29(10) . 3_664
Zn1 O2 Zn1 90.17(10) 3_665 2_655
C7 O2 Zn1 136.0(2) . 3_665
C7 O2 Zn1 132.8(2) . 2_655
C7 O3 Zn1 120.4(2) . 1_556
Zn1 O1 Zn1 94.30(11) . 2_655
C1 O1 Zn1 128.3(2) . 2_655
C1 O1 Zn1 127.1(2) . .
O1 C1 C2 124.4(3) . .
O1 C1 C6 118.5(3) . .
C6 C1 C2 117.1(3) . .
C1 C2 C7 123.0(3) . .
C3 C2 C1 119.1(3) . .
C3 C2 C7 117.9(3) . .
O2 C7 C2 118.5(3) . .
O3 C7 O2 121.9(3) . .
O3 C7 C2 119.6(3) . .
C2 C3 H3 118.4 . .
C4 C3 C2 123.3(3) . .
C4 C3 H3 118.4 . .
C3 C4 C4 121.9(4) . 4_556
C3 C4 C5 116.7(3) . .
C5 C4 C4 121.4(4) . 4_556
C1 C6 H6 118.8 . .
C5 C6 C1 122.3(3) . .
C5 C6 H6 118.8 . .
C4 C5 H5 119.2 . .
C6 C5 C4 121.5(4) . .
C6 C5 H5 119.2 . .
O4 C8B O5B 154(6) . .
O4 C8A O5A 156(6) . .
loop_
_geom_bond_atom_site_label_1
_geom_bond_atom_site_label_2
_geom_bond_distance
_geom_bond_site_symmetry_2
Zn1 Zn1 2.9515(5) 3_664
Zn1 Zn1 2.9515(5) 2_655
Zn1 O2 2.120(2) 3_664
Zn1 O2 2.047(3) 2_654
Zn1 O3 1.995(2) 1_554
Zn1 O1 2.008(2) .
Zn1 O1 2.018(3) 3_664
O2 C7 1.266(4) .
O3 C7 1.259(4) .
O1 C1 1.333(4) .
C1 C2 1.421(5) .
C1 C6 1.390(5) .
C2 C7 1.472(5) .
C2 C3 1.394(5) .
C3 H3 0.9300 .
C3 C4 1.379(5) .
C4 C4 1.477(7) 4_556
C4 C5 1.397(5) .
C6 H6 0.9300 .
C6 C5 1.369(5) .
C5 H5 0.9300 .
O4 C8B 1.18(2) .
O4 C8A 1.18(2) .
O5B C8B 1.20(2) .
C8A O5A 1.20(2) .
loop_
_twin_individual_id
_twin_individual_mass_fraction_refined
1 0.60(2)
2 0.40(2)
