#------------------------------------------------------------------------------
#$Date: 2018-07-04 06:20:46 +0300 (Wed, 04 Jul 2018) $
#$Revision: 208816 $
#$URL: file:///home/coder/svn-repositories/cod/cif/4/12/71/4127188.cif $
#------------------------------------------------------------------------------
#
# This file is available in the Crystallography Open Database (COD),
# http://www.crystallography.net/
#
# All data on this site have been placed in the public domain by the
# contributors.
#
data_4127188
loop_
_publ_author_name
'Gonzalez, Miguel I.'
'Kapelewski, Matthew T.'
'Bloch, Eric D.'
'Milner, Phillip J.'
'Reed, Douglas A.'
'Hudson, Matthew R.'
'Mason, Jarad A.'
'Barin, Gokhan'
'Brown, Craig M.'
'Long, Jeffrey R.'
_publ_section_title
;
 Separation of Xylene Isomers through Multiple Metal Site Interactions in
 Metal-Organic Frameworks.
;
_journal_name_full               'Journal of the American Chemical Society'
_journal_paper_doi               10.1021/jacs.7b13825
_journal_year                    2018
_chemical_formula_moiety         '(C8 H2 Co2 O6), 0.63(C8 H10), 0.61(H2 O)'
_chemical_formula_sum            'C14.15 H10.91 Co2 O6.61'
_chemical_formula_weight         404.56
_chemical_name_common            Co2(m-dobdc)(EB)0.63(H2O)0.61
_space_group_crystal_system      trigonal
_space_group_IT_number           160
_space_group_name_Hall           'R 3 -2"'
_space_group_name_H-M_alt        'R 3 m :H'
_atom_sites_solution_hydrogens   geom
_atom_sites_solution_primary     'intrinsic phasing'
_atom_sites_solution_secondary   difmap
_audit_creation_date             2017-09-14
_audit_creation_method
;
Olex2 1.2
(compiled 2017.08.10 svn.r3461 for OlexSys, GUI svn.r5381)
;
_cell_angle_alpha                90
_cell_angle_beta                 90
_cell_angle_gamma                120
_cell_formula_units_Z            9
_cell_length_a                   25.8977(9)
_cell_length_b                   25.8977(9)
_cell_length_c                   6.7599(3)
_cell_measurement_reflns_used    8536
_cell_measurement_temperature    100(2)
_cell_measurement_theta_max      34.271
_cell_measurement_theta_min      3.921
_cell_volume                     3926.4(3)
_computing_cell_refinement       'SAINT V8.38A (?, 2016)'
_computing_data_collection       'Bruker APEX3'
_computing_data_reduction        'SAINT V8.38A (?, 2016)'
_computing_molecular_graphics    'Olex2 (Dolomanov et al., 2009)'
_computing_publication_material  'Olex2 (Dolomanov et al., 2009)'
_computing_structure_refinement  'ShelXL (Sheldrick, 2015)'
_computing_structure_solution    'ShelXT (Sheldrick, 2015)'
_diffrn_ambient_temperature      100(2)
_diffrn_detector_area_resol_mean 10.42
_diffrn_measured_fraction_theta_full 0.998
_diffrn_measured_fraction_theta_max 0.998
_diffrn_measurement_device_type  'Bruker D8 with PHOTON100 CMOS detector'
_diffrn_measurement_method       '\f and \w shutterless scans'
_diffrn_radiation_monochromator  'silicon 111'
_diffrn_radiation_type           synchrotron
_diffrn_radiation_wavelength     0.8856
_diffrn_reflns_av_R_equivalents  0.0442
_diffrn_reflns_av_unetI/netI     0.0339
_diffrn_reflns_Laue_measured_fraction_full 0.998
_diffrn_reflns_Laue_measured_fraction_max 0.998
_diffrn_reflns_limit_h_max       33
_diffrn_reflns_limit_h_min       -33
_diffrn_reflns_limit_k_max       33
_diffrn_reflns_limit_k_min       -33
_diffrn_reflns_limit_l_max       8
_diffrn_reflns_limit_l_min       -8
_diffrn_reflns_number            15913
_diffrn_reflns_point_group_measured_fraction_full 0.982
_diffrn_reflns_point_group_measured_fraction_max 0.981
_diffrn_reflns_theta_full        32.097
_diffrn_reflns_theta_max         34.484
_diffrn_reflns_theta_min         3.396
_diffrn_source                   'Advanced Light Source station 11.3.1'
_diffrn_standards_number         0
_exptl_absorpt_coefficient_mu    3.494
_exptl_absorpt_correction_T_max  0.940
_exptl_absorpt_correction_T_min  0.857
_exptl_absorpt_correction_type   multi-scan
_exptl_absorpt_process_details
;
SADABS-2016/2 (Bruker,2016) was used for absorption correction.
wR2(int) was 0.1367 before and 0.0651 after correction.
The Ratio of minimum to maximum transmission is 0.9119.
The \l/2 correction factor is Not present.
;
_exptl_crystal_colour            pink
_exptl_crystal_colour_primary    pink
_exptl_crystal_density_diffrn    1.535
_exptl_crystal_density_method    'not measured'
_exptl_crystal_description       needle
_exptl_crystal_F_000             1813
_exptl_crystal_size_max          0.18
_exptl_crystal_size_mid          0.018
_exptl_crystal_size_min          0.018
_refine_diff_density_max         1.068
_refine_diff_density_min         -0.391
_refine_diff_density_rms         0.090
_refine_ls_abs_structure_details
;
 Flack x determined using 810 quotients [(I+)-(I-)]/[(I+)+(I-)]
 (Parsons, Flack and Wagner, Acta Cryst. B69 (2013) 249-259).
;
_refine_ls_abs_structure_Flack   0.069(8)
_refine_ls_extinction_method     none
_refine_ls_goodness_of_fit_ref   1.083
_refine_ls_hydrogen_treatment    constr
_refine_ls_matrix_type           full
_refine_ls_number_parameters     146
_refine_ls_number_reflns         2004
_refine_ls_number_restraints     54
_refine_ls_restrained_S_all      1.077
_refine_ls_R_factor_all          0.0440
_refine_ls_R_factor_gt           0.0399
_refine_ls_shift/su_max          0.001
_refine_ls_shift/su_mean         0.000
_refine_ls_structure_factor_coef Fsqd
_refine_ls_weighting_details
'w=1/[\s^2^(Fo^2^)+(0.0749P)^2^+1.7444P] where P=(Fo^2^+2Fc^2^)/3'
_refine_ls_weighting_scheme      calc
_refine_ls_wR_factor_gt          0.1080
_refine_ls_wR_factor_ref         0.1099
_reflns_Friedel_coverage         0.951
_reflns_Friedel_fraction_full    0.966
_reflns_Friedel_fraction_max     0.964
_reflns_number_gt                1853
_reflns_number_total             2004
_reflns_threshold_expression     'I > 2\s(I)'
_cod_data_source_file            ja7b13825_si_007.cif
_cod_data_source_block           mk011s_0m
_cod_depositor_comments
;
 Updating space group information.

 Antanas Vaitkus,
 2018-07-04

The following automatic conversions were performed:

'_atom_sites_solution_secondary' value 'diffmap' was changed to
'difmap'.

Automatic conversion script
Id: cif_fix_values 4973 2017-02-22 13:04:09Z antanas 
;
_cod_database_code               4127188
_shelx_shelxl_version_number     2016/6
_shelx_space_group_comment
;
The symmetry employed for this shelxl refinement is uniquely defined
by the following loop, which should always be used as a source of
symmetry information in preference to the above space-group names.
They are only intended as comments.
;
_shelx_estimated_absorpt_t_max   0.940
_shelx_estimated_absorpt_t_min   0.572
_olex2_refinement_description
;
1. Fixed Uiso
 At 1.2 times of:
  All C(H) groups, All C(H,H) groups
 At 1.5 times of:
  All C(H,H,H) groups
2. Restrained distances
 C6-C12
 1.512 with sigma of 0.02
 C13-C12
 1.523 with sigma of 0.02
3. Rigid body (RIGU) restrains
 C6, C7, C8, C9, C10, C11, C12, C13
 with sigma for 1-2 distances of 0.004 and sigma for 1-3 distances of 0.004
4. Others
 Fixed Sof: O4(0.29773) C9(0.31384) H9(0.31384) C10(0.31384) H10(0.31384)
 C11(0.31384) H11(0.31384) C6(0.31384) C7(0.31384) H7(0.31384) C8(0.31384)
 H8(0.31384) C12(0.31384) H12A(0.31384) H12B(0.31384) C13(0.31384)
 H13A(0.31384) H13B(0.31384) H13C(0.31384)
5.a Secondary CH2 refined with riding coordinates:
 C12(H12A,H12B)
5.b Aromatic/amide H refined with riding coordinates:
 C3(H3), C4(H4), C9(H9), C10(H10), C11(H11), C7(H7), C8(H8)
5.c Fitted hexagon refined as free rotating group:
 C9(C10,C11,C6,C7,C8)
5.d Idealised Me refined as rotating group:
 C13(H13A,H13B,H13C)
;
_shelx_res_file
;
TITL MK011S_0m in R3m
    mk011s_0m.res
    created by SHELXL-2016/6 at 19:54:14 on 14-Sep-2017
CELL 0.8856 25.8977 25.8977 6.7599 90 90 120
ZERR 9 0.0009 0.0009 0.0003 0 0 0
LATT -3
SYMM -Y,+X-Y,+Z
SYMM +Y-X,-X,+Z
SYMM -Y,-X,+Z
SYMM +Y-X,+Y,+Z
SYMM +X,+X-Y,+Z
SFAC C H Co O
DISP C 0.006 0.003 18.6
DISP Co 0.308 1.442 7295.6
DISP H -0 0 0.7
DISP O 0.018 0.01 57.9
UNIT 127.37 87.21 18 59.45
DFIX 1.512 C6 C12
DFIX 1.523 C13 C12
RIGU C6 C7 C8 C9 C10 C11 C12 C13

L.S. 4 0 0
PLAN  20
SIZE 0.18 0.018 0.018
TEMP -173(2)
BOND $H
LIST 4
MORE -1
CONF
fmap 2 53
acta
OMIT -2 7 0
OMIT -5 7 0
REM <olex2.extras>
REM <HklSrc "%./MK011S.hkl">
REM </olex2.extras>

WGHT    0.074900    1.744400
FVAR       0.21414
CO1   3    0.658376    0.618376    0.574360    11.00000    0.03364    0.03597 =
         0.01201   -0.00211   -0.00178    0.01471
O1    4    0.588206    0.594142   -0.238421    11.00000    0.03801    0.03632 =
         0.01733    0.00058   -0.00023    0.01815
O2    4    0.644710    0.628687    0.117764    11.00000    0.04193    0.03938 =
         0.01647    0.00090   -0.00181    0.02043
O3    4    0.616403    0.561309    0.356053    11.00000    0.03835    0.03985 =
         0.01512   -0.00008   -0.00531    0.01669
C1    1    0.551196    0.543788   -0.142389    11.00000    0.02972    0.03606 =
         0.01787    0.00407    0.00374    0.02064
C2    1    0.559925    0.533755    0.061865    11.00000    0.03846    0.03670 =
         0.01501   -0.00091   -0.00067    0.02370
C3    1    0.518024    0.481976    0.152524    10.50000    0.03537    0.03537 =
         0.01477    0.00123   -0.00123    0.02381
AFIX  43
H3    2    0.525226    0.474774    0.284685    10.50000   -1.20000
AFIX   0
C4    1    0.500379    0.499621   -0.238752    10.50000    0.03587    0.03587 =
         0.01438    0.00120   -0.00120    0.02581
AFIX  43
H4    2    0.495652    0.504348   -0.375742    10.50000   -1.20000
AFIX   0
C5    1    0.609649    0.576386    0.186254    11.00000    0.03184    0.03662 =
         0.01475    0.00080    0.00110    0.02009
PART 2
O4    4    0.679894    0.555194    0.711496    10.29773    0.06138    0.06300 =
         0.03744   -0.00920   -0.01045    0.04803

PART 0
PART -1
AFIX  66
C9    1    0.348542    0.484191    0.149832    10.31384    0.07682    0.02499 =
         0.33646    0.00764    0.10299    0.02067
AFIX  43
H9    2    0.311686    0.448547    0.170987    10.31384   -1.20000
AFIX  65
C10   1    0.360650    0.512719   -0.032526    10.31384    0.03474    0.04090 =
         0.27107   -0.06898    0.01897    0.00381
AFIX  43
H10   2    0.332069    0.496572   -0.136005    10.31384   -1.20000
AFIX  65
C11   1    0.414575    0.564871   -0.063479    10.31384    0.03916    0.05084 =
         0.13899   -0.03266    0.01291    0.00986
AFIX  43
H11   2    0.422850    0.584368   -0.188113    10.31384   -1.20000
AFIX  65
C6    1    0.456392    0.588496    0.087926    10.31384    0.04358    0.04988 =
         0.11095    0.00063    0.02736    0.02683
C7    1    0.444285    0.559969    0.270284    10.31384    0.08788    0.08775 =
         0.13564    0.04442    0.05883    0.07400
AFIX  43
H7    2    0.472866    0.576116    0.373762    10.31384   -1.20000
AFIX  65
C8    1    0.390360    0.507817    0.301240    10.31384    0.09274    0.09568 =
         0.28560    0.05491    0.11150    0.06647
AFIX  43
H8    2    0.382085    0.488320    0.425874    10.31384   -1.20000
AFIX   0
C12   1    0.512383    0.648277    0.034062    10.31384    0.03271    0.06613 =
         0.11168    0.02643    0.01332    0.01161
AFIX  23
H12A  2    0.546234    0.653433    0.116534    10.31384   -1.20000
H12B  2    0.522780    0.646989   -0.106084    10.31384   -1.20000
AFIX   0
C13   1    0.503630    0.700909    0.064071    10.31384    0.04521    0.05820 =
         0.18558    0.01687   -0.04531    0.01550
AFIX 137
H13A  2    0.539228    0.737259    0.019165    10.31384   -1.50000
H13B  2    0.496995    0.704622    0.204809    10.31384   -1.50000
H13C  2    0.468961    0.695159   -0.012194    10.31384   -1.50000
AFIX   0
HKLF 4




REM  MK011S_0m in R3m
REM R1 =  0.0399 for    1853 Fo > 4sig(Fo)  and  0.0440 for all    2004 data
REM    146 parameters refined using     54 restraints

END

WGHT      0.0749      1.7396

REM Highest difference peak  1.068,  deepest hole -0.391,  1-sigma level  0.090
Q1    1   0.5263  0.4737 -0.3024  10.50000  0.05    0.55
Q2    1   0.4562  0.7281  0.5328  10.50000  0.05    0.50
Q3    1   0.2692  0.4348  0.3763  11.00000  0.05    0.41
Q4    1   0.4883  0.7441  0.5818  10.50000  0.05    0.36
Q5    1   0.2584  0.4825 -0.2944  11.00000  0.05    0.35
Q6    1   0.3875  0.6125  0.2733  10.50000  0.05    0.31
Q7    1   0.4276  0.7138  0.4285  10.50000  0.05    0.29
Q8    1   0.4313  0.5687  0.0996  10.50000  0.05    0.29
Q9    1   0.6384  0.6413  0.6386  11.00000  0.05    0.28
Q10   1   0.3659  0.6341 -0.4037  10.50000  0.05    0.27
Q11   1   0.5342  0.6856  0.0082  11.00000  0.05    0.27
Q12   1   0.6257  0.6116  0.5488  11.00000  0.05    0.25
Q13   1   0.6399  0.5772  0.6445  11.00000  0.05    0.25
Q14   1   0.6488  0.5507  0.2433  11.00000  0.05    0.25
Q15   1   0.6139  0.5447  0.2395  11.00000  0.05    0.24
Q16   1   0.6697  0.6577  0.5161  11.00000  0.05    0.24
Q17   1   0.4336  0.5664 -0.1487  10.50000  0.05    0.23
Q18   1   0.3333  0.6667  0.0180  10.16667  0.05    0.23
Q19   1   0.3333  0.6667  0.4001  10.16667  0.05    0.23
Q20   1   0.3422  0.4954  0.1915  11.00000  0.05    0.22
;
_shelx_res_checksum              45871
_shelx_hkl_file
;
   3  -3   0 8966.57 371.324   1
   3   0   0 8880.04 371.584   1
  -3   3   0 9333.89 372.657   1
   0  -3   0 8952.48 371.319   1
   0   3   0 8760.67 371.097   1
  -3   0   0 9079.14 371.921   1
   2   2   0 726.496 30.9992   3
   2  -4   0 746.894 31.9357   4
   2   2   0 689.211 33.1567   2
   2  -4   0 719.297 31.5772   2
  -4   2   0 736.754 31.4626   2
  -4   2   0 753.653 31.7606   5
  -2  -2   0 702.504 32.8737   2
  -2   4   0 679.190 31.3625   2
  -2  -2   0 748.103 30.7422   5
  -2   4   0 712.528 30.2053   3
   4  -2   0 732.788 30.2027   3
  -2  -2   0 730.604 30.5858   4
   4  -2   0 722.211 31.4984   2
  -2   4   0 724.807 30.3329   5
   4  -2   0 736.880 30.5403   4
   4   1   0 1459.50 60.0128   3
  -5   4   0 1386.58 60.0460   5
   1   4   0 1520.29 60.1303   3
  -5   1   0 1462.82 61.2026   2
  -5   4   0 1393.97 59.1789   2
   4   1   0 1358.62 62.0336   2
  -5   4   0 1382.44 60.1399   2
  -5   1   0 1550.87 61.0504   5
   1  -5   0 1446.32 60.4442   4
   1  -5   0 1431.54 61.3070   2
   1   4   0 1530.23 62.8943   2
   4  -5   0 1523.32 60.8053   4
   4  -5   0 1501.12 59.6006   2
  -1   5   0 1373.76 58.8831   5
   5  -1   0 1346.56 61.0490   2
  -4   5   0 1401.38 59.8071   2
  -4   5   0 1416.82 59.7528   5
  -1  -4   0 1433.06 59.9809   4
  -1   5   0 1469.67 59.5830   3
  -4  -1   0 1404.68 59.0658   4
  -1   5   0 1425.52 61.4980   2
   5  -4   0 1427.16 58.9279   3
  -4  -1   0 1536.43 62.4838   2
  -1  -4   0 1401.36 61.8605   2
   5  -1   0 1339.97 59.3286   3
  -1  -4   0 1466.77 59.0806   5
   5  -4   0 1437.53 60.2420   4
  -4  -1   0 1506.13 60.4165   5
   3   3   0 585.147 27.3523   3
   3  -6   0 636.730 27.9196   2
   3  -6   0 613.390 28.9154   4
   3   3   0 587.617 30.9754   2
  -6   3   0 597.365 28.6970   5
  -6   3   0 552.757 27.9982   2
   6  -3   0 570.128 25.9333   3
   6  -3   0 663.578 26.9646   4
  -3   6   0 654.514 26.3120   3
  -3  -3   0 590.054 30.4639   2
  -3  -3   0 648.289 26.9102   5
   6  -3   0 564.523 27.8639   2
  -3   6   0 531.270 26.0645   5
  -3  -3   0 552.681 26.6554   4
  -3   6   0 642.543 28.7583   2
   0  -6   0 5137.66 207.682   2
  -6   6   0 5100.09 205.529   2
  -6   0   0 5522.87 206.633   5
   6   0   0 4855.88 205.487   3
   0   6   0 5167.85 205.870   3
  -6   6   0 4782.71 205.873   5
   0   6   0 5134.09 208.284   2
   6   0   0 4768.05 207.435   2
   6  -6   0 5201.83 206.403   4
   0  -6   0 5026.84 206.081   4
  -6   0   0 5044.68 207.626   2
  -7   5   0 275.749 17.4788   5
   2   5   0 239.086 16.4851   3
   2  -7   0 304.871 18.1668   2
   5  -7   0 254.846 15.1993   2
   5   2   0 279.032 16.4552   3
   5   2   0 290.623 21.2948   2
  -7   2   0 241.367 17.8346   5
  -7   2   0 226.752 18.3532   2
   2   5   0 252.001 21.2564   2
  -7   5   0 304.501 13.8831   2
  -7   5   0 294.569 16.6878   2
   5  -7   0 231.608 17.4837   4
   2  -7   0 316.310 18.5100   4
   7  -5   0 248.085 13.5117   3
   7  -2   0 286.099 18.3802   2
  -2  -5   0 298.542 14.0537   5
  -2   7   0 247.090 13.6130   5
  -2   7   0 257.787 14.6487   3
   7  -2   0 303.506 14.8848   4
  -5   7   0 288.929 13.5768   3
  -5  -2   0 240.204 16.2041   5
  -2   7   0 242.815 18.0055   2
   7  -5   0 254.349 16.1720   4
  -5  -2   0 242.883 20.8628   2
  -5  -2   0 255.073 14.0280   4
   7  -2   0 292.363 14.4128   3
  -5   7   0 308.507 16.6413   2
  -2  -5   0 289.718 20.1006   2
  -2  -5   0 282.512 16.0858   4
  -5   7   0 292.079 15.2015   5
   4  -8   0 222.904 15.8128   2
   4  -8   0 235.590 18.8201   4
  -8   4   0 240.464 18.0065   5
   4   4   0 253.807 20.4801   2
  -8   4   0 272.611 17.1689   2
   4   4   0 257.713 15.7485   3
  -4  -4   0 261.806 14.6229   4
  -4   8   0 263.009 13.8134   5
  -4  -4   0 217.665 19.6997   2
  -4   8   0 205.737 13.7418   3
   8  -4   0 226.220 15.3380   4
   8  -4   0 252.845 16.6983   2
   8  -4   0 260.800 13.3888   3
  -4   8   0 211.654 17.5372   2
  -4  -4   0 223.491 14.9236   5
  -8   7   0 1409.12 56.8172   2
   7   1   0 1422.76 59.6213   2
   1   7   0 1257.88 56.2106   3
   1   7   0 1287.11 60.0528   2
   1  -8   0 1330.55 58.5242   2
   1  -8   0 1376.18 56.9490   4
  -8   7   0 1261.77 55.1518   2
   7  -8   0 1227.78 57.4323   4
   7  -8   0 1191.24 55.1350   2
  -8   1   0 1260.04 57.4425   5
  -8   1   0 1312.13 58.5113   2
  -8   7   0 1346.18 56.6220   5
   7   1   0 1362.04 56.0034   3
   8  -7   0 1327.50 54.4549   3
  -7   8   0 1434.72 56.3681   5
  -7  -1   0 1310.60 54.6677   4
  -7  -1   0 1289.43 57.0000   5
  -1  -7   0 1352.68 58.9466   2
  -1  -7   0 1333.99 56.5083   4
  -1   8   0 1228.66 55.9982   3
   8  -1   0 1416.43 58.5561   2
  -1  -7   0 1274.45 54.6529   5
   8  -1   0 1411.71 55.5880   3
  -7   8   0 1331.94 55.8858   2
  -7  -1   0 1305.92 59.5240   2
  -1   8   0 1291.70 54.4705   5
  -1   8   0 1251.25 59.1409   2
   8  -7   0 1213.00 56.6842   4
   6   3   0 442.453 28.6886   2
   3   6   0 472.735 28.6285   2
   3  -9   0 514.514 26.0193   2
   6   3   0 473.367 24.1007   3
  -9   6   0 458.153 25.3043   5
  -9   6   0 470.977 24.4387   2
   3  -9   0 452.736 26.0723   4
   6  -9   0 494.251 23.4296   2
  -9   6   0 458.612 21.6337   2
  -9   3   0 497.158 25.6334   2
  -6  -3   0 477.183 22.0545   4
  -6   9   0 480.785 21.5574   3
  -3   9   0 484.750 22.8830   3
   9  -6   0 483.561 24.0148   4
  -6   9   0 470.474 24.1572   2
   9  -6   0 481.601 21.5206   3
   9  -3   0 437.484 22.2307   4
   9  -3   0 456.355 25.3276   2
  -6  -3   0 459.053 27.3515   2
  -3  -6   0 474.793 22.3878   5
  -3   9   0 473.973 26.7182   2
  -6  -3   0 475.724 24.6760   5
  -3   9   0 482.684 21.6873   5
  -3  -6   0 471.574 27.3936   2
   9  -3   0 449.494 22.0280   3
  -6   9   0 447.712 22.7543   5
  -3  -6   0 465.627 23.6854   4
   0  -9   0 1421.60 59.8713   2
   9   0   0 1350.80 56.3536   3
  -9   9   0 1337.62 56.1296   2
  -9   0   0 1232.61 59.5024   2
   0   9   0 1286.91 61.2857   2
   9  -9   0 1321.72 54.6616   3
  -9   0   0 1323.70 58.4150   5
   0   9   0 1289.16 57.0026   3
   0  -9   0 1359.52 57.1790   4
   9   0   0 1346.01 59.7494   2
  -9   9   0 1371.64 56.9587   5
  -9   0   0 1277.77 54.7337   4
   9  -9   0 1244.09 55.3990   2
   9  -9   0 1271.50 57.5633   4
   5   5   0 132.737 18.1975   2
 -10   5   0 129.189 16.2534   5
   5 -10   0 153.209 17.7170   4
 -10   5   0 135.038 14.7521   2
   5   5   0 135.478 14.0990   3
   5 -10   0 146.126 13.5633   2
  10  -5   0 138.476 14.2756   2
  -5  10   0 144.461 15.3584   2
  -5  -5   0 132.007 11.8704   4
  -5  -5   0 150.209 12.5969   5
  10  -5   0 140.368 13.5382   4
  -5  10   0 140.415 11.3342   5
  -5  10   0 149.804 11.4008   3
  10  -5   0 139.733 10.8150   3
  -5  -5   0 150.656 17.7677   2
 -10   2   0 105.779 15.4084   2
 -10   8   0 69.0732 12.5621   2
   8 -10   0 113.958 10.3817   2
   2 -10   0 94.6135 14.6292   2
   2   8   0 85.8114 14.7935   3
 -10   2   0 121.987 16.7071   5
   2 -10   0 86.0676 12.0122   4
   8   2   0 85.4780 17.5863   2
   2   8   0 100.582 20.5479   2
 -10   8   0 87.6741 14.1248   5
   8 -10   0 91.1231 12.6006   4
   8   2   0 85.9681 12.0199   3
 -10   8   0 97.3773 9.20880   2
  -8  -2   0 99.8886 9.06243   4
  -8  -2   0 107.099 14.3446   5
  -2  -8   0 88.3893 13.0661   4
  -8  10   0 92.4990 8.64860   3
  -2  10   0 105.738 8.78295   5
  -2  10   0 121.096 12.9775   3
  -8  -2   0 111.529 18.0677   2
  10  -2   0 80.2320 15.1682   2
  -8  10   0 77.7636 12.1822   5
  10  -8   0 107.901 15.4268   4
  -2  -8   0 82.7379 15.5952   2
  -2  10   0 96.6971 18.3218   2
  10  -2   0 109.177 10.3672   4
  10  -8   0 114.220 8.55391   3
  -2  -8   0 97.0392 9.41980   5
  -8  10   0 97.3554 11.9184   2
  10  -2   0 68.2685 10.4996   3
   4   7   0 1150.95 56.1689   2
 -11   7   0 1191.98 52.4707   5
 -11   7   0 1217.79 49.7627   2
   4 -11   0 1286.06 53.1718   2
   4   7   0 1131.98 51.6196   3
 -11   4   0 1112.51 52.7425   2
   7   4   0 1194.27 51.5922   3
   7   4   0 1155.80 55.6016   2
   7 -11   0 1143.30 52.7577   4
 -11   7   0 1213.98 52.1380   2
   4 -11   0 1193.15 53.1008   4
 -11   4   0 1106.67 52.8825   5
   7 -11   0 1175.85 51.2109   2
  -4  11   0 1132.37 50.4363   3
  -7  11   0 1198.53 50.3938   5
  -7  -4   0 1166.57 55.4543   2
  -7  -4   0 1135.61 49.7273   4
  -7  11   0 1181.43 49.6506   3
  11  -4   0 1198.43 49.8090   3
  -7  11   0 1193.42 52.4335   2
  11  -4   0 1191.32 50.5093   4
  -7  -4   0 1156.34 51.8254   5
  -4  -7   0 1172.81 50.7973   4
  -4  -7   0 1216.19 50.5227   5
  11  -7   0 1105.82 51.5557   4
  11  -4   0 1199.10 52.8276   2
  -4  11   0 1153.92 49.4416   5
  -4  11   0 1112.39 53.8935   2
  11  -7   0 1128.53 49.1689   3
 -11  10   0 517.759 27.2009   5
   1  10   0 509.573 31.6355   2
  10 -11   0 480.901 29.1043   4
  10   1   0 513.775 25.9772   3
  10 -11   0 518.558 24.5731   2
   1 -11   0 520.158 27.5460   4
 -11   1   0 512.913 29.5641   2
  10   1   0 531.435 30.7250   2
   1 -11   0 511.281 28.6625   2
 -11  10   0 517.655 25.0003   2
 -11  10   0 557.166 27.3582   2
 -11   1   0 469.692 28.4591   5
   1  10   0 514.808 26.9340   3
  -1 -10   0 526.062 29.8492   2
 -10  -1   0 516.754 28.1852   5
 -10  -1   0 526.002 30.9209   2
 -10  11   0 532.316 25.6537   2
  -1  11   0 515.398 23.3370   5
  -1 -10   0 528.514 27.6541   4
 -10  -1   0 513.685 23.6265   4
  -1  11   0 517.648 31.2675   2
  -1 -10   0 511.646 23.8676   5
  11 -10   0 521.825 23.1989   3
 -10  11   0 525.366 23.2271   3
  11  -1   0 500.262 25.4509   3
  11  -1   0 497.573 29.5703   2
 -10  11   0 499.784 26.3966   5
   6   6   0 211.000 21.1582   2
   6 -12   0 159.310 14.9435   2
 -12   6   0 131.788 24.9723   5
 -12   6   0 230.063 17.1028   2
  -6  -6   0 160.606 15.2920   5
  12  -6   0 168.845 16.5897   4
  -6  -6   0 165.456 20.5581   2
  -6  12   0 220.146 13.1820   5
  12  -6   0 214.501 12.7875   3
  -6  -6   0 213.851 13.9020   4
  -6  12   0 166.637 18.5396   2
  12  -6   0 232.243 17.0212   2
  -6  12   0 160.792 13.7305   3
   3 -12   0 776.280 38.3930   4
 -12   3   0 720.948 36.9426   2
   3   9   0 687.966 39.2278   2
   9   3   0 687.182 33.8227   3
 -12   3   0 765.498 37.0019   5
   9 -12   0 692.107 37.1444   4
 -12   9   0 730.653 35.0266   2
   9 -12   0 682.636 33.1253   2
   9   3   0 699.840 37.8341   2
 -12   9   0 700.079 32.2438   2
 -12   9   0 734.473 36.2632   5
   3   9   0 715.872 35.2702   3
   3 -12   0 769.672 36.9699   2
  12  -3   0 701.979 36.5744   2
  -9  -3   0 700.885 31.8238   4
  -3  12   0 740.156 35.3923   3
  -3  12   0 693.356 37.9909   2
  -9  12   0 708.385 34.4219   2
  12  -3   0 712.802 32.8070   3
  -3  -9   0 710.582 38.3521   2
  12  -9   0 716.778 35.9407   4
  -9  -3   0 744.230 38.7447   2
  -3  -9   0 727.671 34.2309   4
  -3  12   0 691.670 31.3411   5
  -3  -9   0 710.995 32.5673   5
  -9  12   0 709.840 31.6584   3
  12  -9   0 746.488 31.3998   3
  -9  -3   0 746.952 35.7002   5
 -12  12   0 978.534 42.2308   2
   0 -12   0 837.038 45.3877   4
  12   0   0 930.943 46.4772   2
   0 -12   0 971.513 40.4286   5
  12   0   0 890.618 42.0753   3
   0  12   0 931.643 47.9011   2
 -12   0   0 1004.63 47.9118   2
 -12   0   0 965.463 45.5144   5
 -12  12   0 816.918 46.3983   5
   0  12   0 902.765 42.9229   3
  12 -12   0 999.286 46.0663   4
   8   5   0 820.402 43.9181   2
   8 -13   0 807.840 41.5869   4
 -13   8   0 827.589 40.0701   5
   5 -13   0 832.728 39.7417   2
   8   5   0 842.348 39.1872   3
 -13   5   0 816.073 40.3487   2
 -13   8   0 822.135 39.5687   2
   5   8   0 850.432 44.3817   2
   5 -13   0 822.734 40.7467   4
 -13   5   0 838.928 41.1305   5
   5   8   0 811.721 38.6684   3
 -13   8   0 816.228 36.2965   2
   8 -13   0 872.672 38.2295   2
  13  -8   0 810.436 35.6661   3
  -8  -5   0 839.836 36.4390   4
  -5  -8   0 798.680 37.7234   5
  -5  -8   0 802.577 42.3252   2
  13  -5   0 796.423 39.7963   2
  13  -8   0 795.589 40.1015   4
  -8  13   0 834.501 36.6757   3
  -5  13   0 847.763 37.8146   3
  13  -5   0 746.647 36.2987   3
  -5  13   0 827.801 35.9765   5
  13  -5   0 823.532 38.0956   4
  -5  13   0 833.881 42.0065   2
  -5  -8   0 806.103 37.5724   4
  -8  13   0 825.728 40.3554   2
  -8  -5   0 814.772 39.0791   5
  -8  -5   0 822.358 43.3319   2
  -8  13   0 807.006 37.2478   5
  11 -13   0 79.3511 14.4334   4
 -13  11   0 82.2414 14.6865   5
 -13  11   0 71.5064 14.2470   2
   2 -13   0 101.746 15.7337   4
 -13  11   0 54.9978 9.75708   2
 -13   2   0 94.5462 16.3917   2
   2  11   0 88.2189 13.5908   3
   2 -13   0 61.8351 14.3630   2
   2  11   0 100.673 21.9392   2
  11   2   0 73.6967 15.5241   2
 -13   2   0 63.5364 13.7358   5
  11   2   0 79.7262 11.4166   3
  11 -13   0 73.5503 10.3924   2
 -11  13   0 97.6527 12.8435   5
  13  -2   0 71.7715 11.0327   4
 -11  -2   0 77.7409 17.9570   2
  -2 -11   0 74.7244 11.0172   4
 -11  -2   0 83.1962 14.0381   5
  -2 -11   0 54.5096 13.4305   2
  13  -2   0 86.4523 17.0052   2
  13  -2   0 70.9246 11.9254   3
  -2  13   0 95.7118 14.9249   3
 -11  13   0 68.0505 13.0817   2
  13 -11   0 105.375 18.1002   4
  -2  13   0 75.1937 15.4329   2
  -2 -11   0 69.3643 9.70928   5
  -2  13   0 82.2872 8.26118   5
 -11  13   0 64.9041 10.8573   3
  13 -11   0 80.1981 8.48393   3
   7 -14   0 2686.79 114.827   2
   7   7   0 2741.47 114.542   3
   7 -14   0 2703.71 115.959   4
 -14   7   0 2739.57 115.740   5
   7   7   0 2754.54 119.442   2
 -14   7   0 2853.92 116.012   2
  14  -7   0 2875.24 115.290   2
  -7  14   0 2735.74 112.675   5
  -7  14   0 2557.81 116.100   2
  -7  -7   0 2619.49 112.849   4
  -7  -7   0 2532.85 113.960   5
  -7  14   0 2824.14 115.360   3
  14  -7   0 2823.75 112.392   3
 -14   4   0 1463.85 64.9052   5
  10 -14   0 1520.71 64.7742   4
  10   4   0 1420.82 62.5217   3
 -14  10   0 1322.35 60.7237   2
   4 -14   0 1397.28 64.1717   4
 -14   4   0 1472.97 65.3708   2
 -14  10   0 1390.09 63.8242   5
   4  10   0 1552.60 69.3949   2
  10   4   0 1455.33 67.4127   2
 -14  10   0 1398.72 63.4490   2
   4 -14   0 1343.01 63.8349   2
  10 -14   0 1438.70 61.9246   2
   4  10   0 1540.93 63.7617   3
 -10  -4   0 1483.81 63.6701   5
  -4  14   0 1396.12 66.3197   2
  -4  14   0 1476.96 59.9707   5
  14  -4   0 1405.27 60.9282   3
 -10  14   0 1359.37 60.3575   3
  14 -10   0 1524.10 59.9340   3
  14 -10   0 1471.80 63.7160   4
  -4 -10   0 1445.38 62.1618   4
 -10  14   0 1402.85 61.7229   5
  -4  14   0 1390.38 61.9445   3
  14  -4   0 1354.74 61.1621   4
 -10  -4   0 1467.52 67.1441   2
  -4 -10   0 1364.31 65.8492   2
 -10  -4   0 1422.95 60.5217   4
  14  -4   0 1454.26 64.7264   2
 -10  14   0 1346.21 63.3234   2
  -4 -10   0 1334.79 61.0388   5
  13 -14   0 454.591 22.8306   2
 -14  13   0 471.222 24.1761   2
  13   1   0 463.084 25.4219   3
  13 -14   0 421.780 30.0543   4
 -14  13   0 444.136 26.4508   2
   1 -14   0 479.547 27.5465   4
 -14   1   0 424.673 29.6565   2
   1  13   0 438.911 31.7637   2
 -14  13   0 481.858 27.0453   5
 -14   1   0 422.416 27.7929   5
   1 -14   0 461.539 27.6611   2
  13   1   0 474.616 30.0040   2
   1  13   0 426.581 27.0841   3
  -1 -13   0 482.209 29.4643   2
 -13  14   0 458.998 26.2402   5
 -13  -1   0 451.273 28.9276   5
  14  -1   0 464.001 29.7085   2
 -13  -1   0 429.531 30.1849   2
  -1  14   0 433.204 25.7660   3
  14  -1   0 468.807 24.9396   3
  14  -1   0 507.235 23.4656   4
  -1  14   0 434.762 30.7016   2
  -1 -13   0 465.095 26.7911   4
 -13  14   0 470.187 22.0283   3
 -13  -1   0 438.651 21.7778   4
 -13  14   0 483.780 25.5262   2
  14 -13   0 489.344 30.1134   4
 -15   9   0 466.957 27.5858   5
 -15   9   0 511.566 27.7877   2
 -15   6   0 480.034 27.8415   2
   9 -15   0 475.539 25.0268   2
   9   6   0 447.011 30.9301   2
   9   6   0 476.796 26.3825   3
 -15   9   0 494.333 23.3429   2
 -15   6   0 454.877 28.1924   5
   6   9   0 464.990 32.9476   2
   9 -15   0 467.643 30.9131   4
   6   9   0 453.724 27.0614   3
   6 -15   0 466.596 29.3627   4
   6 -15   0 461.543 26.5015   2
  15  -6   0 492.028 25.8122   4
  -9  -6   0 455.831 23.3302   4
  -6  -9   0 467.619 29.1058   2
  -6  -9   0 481.605 25.4007   5
  15  -6   0 482.666 27.7294   2
  15  -6   0 489.218 23.5720   3
  15  -9   0 454.982 22.4898   3
  -9  15   0 456.354 28.5593   2
  -9  -6   0 430.616 29.6015   2
  -6  15   0 456.013 25.2203   3
  -6  15   0 447.006 22.7870   5
  15  -9   0 452.356 27.1192   4
  -9  -6   0 454.405 27.1751   5
  -6  15   0 451.782 30.2096   2
  -6  -9   0 467.275 24.9928   4
  -9  15   0 465.123 24.3399   5
 -15   3   0 868.295 43.7683   2
 -15   3   0 847.367 42.4561   5
   3  12   0 849.218 46.5718   2
  12   3   0 873.223 40.5089   3
  12 -15   0 825.776 38.9346   2
   3  12   0 838.316 41.2119   3
 -15  12   0 847.724 38.4298   2
  12 -15   0 855.375 44.4285   4
   3 -15   0 867.021 42.2079   4
   3 -15   0 840.317 42.0307   2
  12   3   0 872.782 45.5861   2
 -15  12   0 847.351 41.3726   2
 -15  12   0 792.424 41.1723   5
  -3  15   0 872.659 46.2464   2
 -12  -3   0 840.166 42.6125   5
  15 -12   0 850.843 36.8406   3
  15  -3   0 855.911 39.2956   3
  15  -3   0 849.586 43.4419   2
  -3 -12   0 866.582 44.5843   2
 -12  15   0 832.816 40.7570   2
 -12  15   0 834.258 37.4186   3
  -3 -12   0 808.158 40.4728   4
 -12  -3   0 827.250 37.2018   4
  -3 -12   0 847.457 38.4563   5
 -12  15   0 836.534 39.9607   5
  15 -12   0 808.204 41.9858   4
  -3  15   0 868.807 41.4516   3
  -3  15   0 819.548 36.7159   5
  15  -3   0 821.357 38.4271   4
 -12  -3   0 810.935 43.8866   2
 -15   0   0 434.986 29.5758   2
   0  15   0 433.024 27.9373   3
   0 -15   0 399.471 27.4081   2
  15   0   0 372.364 28.9097   2
  15 -15   0 414.658 30.0980   4
 -15  15   0 420.975 24.0266   2
   0  15   0 421.149 32.7933   2
 -15  15   0 431.896 26.3669   2
 -15   0   0 395.111 27.2867   5
   0 -15   0 417.665 21.3779   5
 -15  15   0 416.845 25.8809   5
 -15  15   0 416.830 20.8192   3
  15   0   0 378.150 24.6078   3
   0 -15   0 410.133 27.1557   4
  15   0   0 427.182 23.1223   4
   8 -16   0 859.941 42.8663   4
 -16   8   0 778.031 40.2265   5
 -16   8   0 838.622 41.0926   2
   8   8   0 804.770 45.1297   2
   8   8   0 788.943 39.6527   3
   8 -16   0 799.703 39.1443   2
  -8  16   0 849.106 37.2617   5
  16  -8   0 828.404 36.8679   3
  -8  -8   0 784.516 37.1363   4
  -8  16   0 804.634 42.1890   2
  -8  -8   0 830.237 43.5190   2
  -8  -8   0 784.181 39.1615   5
  -8  16   0 781.747 37.4797   3
  16  -8   0 769.018 39.3942   4
 -16  11   0 659.677 34.6642   2
 -16   5   0 694.388 37.2186   5
   5 -16   0 635.543 36.4557   4
  11 -16   0 677.580 32.6238   2
   5  11   0 710.694 40.6519   2
 -16  11   0 644.508 35.3638   5
  11   5   0 666.404 34.2003   3
  11 -16   0 711.490 37.5808   4
   5 -16   0 660.515 35.2956   2
  11   5   0 697.268 39.9786   2
 -16  11   0 591.260 30.8883   2
   5  11   0 697.648 34.8541   3
 -11  16   0 676.372 33.1954   5
 -11  16   0 630.718 31.1472   3
  -5 -11   0 641.240 33.2395   4
  16  -5   0 627.851 33.0155   4
 -11  16   0 644.758 35.2820   2
 -11  -5   0 691.013 30.8911   4
  16 -11   0 670.747 31.5746   3
  16  -5   0 668.514 31.5588   3
  16  -5   0 655.095 35.7056   2
  -5 -11   0 628.514 32.4564   5
  -5  16   0 714.791 39.3128   2
  -5 -11   0 630.537 37.0965   2
  -5  16   0 696.189 33.9039   3
  -5  16   0 639.683 31.5583   5
 -11  -5   0 704.232 39.1034   2
 -11  -5   0 702.063 35.6701   5
  16 -11   0 668.687 36.9895   4
   2  14   0 167.487 23.4342   2
  14 -16   0 176.056 13.5852   2
  14 -16   0 191.396 25.2837   4
 -16  14   0 159.027 14.6203   2
 -16  14   0 183.258 19.2762   5
  14   2   0 178.633 22.1835   2
   2 -16   0 178.025 20.1922   2
 -16   2   0 197.353 21.9310   2
   2 -16   0 172.259 20.5993   4
 -16  14   0 174.405 18.0719   2
   2  14   0 170.347 20.7397   3
  14   2   0 174.396 17.5024   3
 -16   2   0 169.454 22.6968   5
  16 -14   0 174.140 23.8539   4
  -2 -14   0 158.499 13.8667   5
 -14  16   0 181.918 17.5010   5
 -14  -2   0 165.780 12.4771   4
 -14  16   0 187.249 13.0015   3
  16  -2   0 182.023 16.5307   3
 -14  -2   0 150.232 21.5076   5
  -2 -14   0 185.453 19.4380   4
  -2  16   0 166.533 19.4341   3
 -14  -2   0 200.355 22.3683   2
  16  -2   0 177.329 21.2305   2
 -14  16   0 174.178 16.4958   2
  16  -2   0 172.822 15.0456   4
  -2 -14   0 184.312 21.0642   2
  -2  16   0 194.402 24.4948   2
 -17  10   0 1384.87 65.4131   5
  10   7   0 1448.69 63.9352   3
   7 -17   0 1386.82 65.7392   4
   7  10   0 1384.88 69.1410   2
   7  10   0 1366.01 63.6306   3
 -17   7   0 1430.95 66.0586   2
 -17  10   0 1426.62 61.4845   2
 -17  10   0 1451.69 65.1047   2
  10 -17   0 1402.87 65.5363   4
  10   7   0 1442.33 69.5350   2
 -17   7   0 1443.77 66.0116   5
   7 -17   0 1458.90 64.4824   2
  -7 -10   0 1396.93 62.1839   4
 -10  17   0 1424.22 61.8623   3
  17 -10   0 1436.71 60.7360   3
 -10  17   0 1372.33 61.7463   5
  17  -7   0 1362.25 61.1475   3
  17 -10   0 1414.38 64.5184   4
  -7  17   0 1479.77 68.2579   2
 -10  17   0 1415.52 66.0684   2
  -7  17   0 1455.31 62.9146   3
  -7  17   0 1394.66 60.9425   5
  17  -7   0 1384.19 65.0872   2
 -10  -7   0 1444.27 64.4301   5
  -7 -10   0 1451.01 67.7190   2
  -7 -10   0 1484.64 63.6957   5
 -10  -7   0 1508.37 68.5332   2
 -10  -7   0 1382.16 61.2352   4
  17  -7   0 1526.43 64.4458   4
  13 -17   0 530.376 36.1558   4
  13   4   0 565.084 30.1819   3
 -17   4   0 537.113 34.9036   2
 -17   4   0 534.420 34.0855   5
   4  13   0 514.953 31.2968   3
   4 -17   0 563.912 32.5316   2
 -17  13   0 566.069 32.4433   5
  13   4   0 603.677 35.8274   2
   4 -17   0 578.056 33.2604   4
 -17  13   0 576.655 32.2734   2
  13 -17   0 553.511 28.8481   2
   4  13   0 534.625 36.4077   2
 -17  13   0 568.202 28.3583   2
 -13  17   0 601.245 28.1987   3
 -13  17   0 592.599 32.8091   2
  -4 -13   0 558.072 30.7956   4
 -13  -4   0 579.924 28.2319   4
  17 -13   0 609.757 34.2075   4
  -4  17   0 551.492 31.0754   3
  -4  17   0 579.987 36.9429   2
  17  -4   0 590.383 29.8783   4
 -13  17   0 570.129 30.2835   5
 -13  -4   0 552.753 33.5122   5
  -4 -13   0 606.416 34.6792   2
  -4  17   0 548.616 26.5028   5
  -4 -13   0 652.503 32.0160   5
 -13  -4   0 564.435 36.2479   2
  17 -13   0 536.642 26.4631   3
  17  -4   0 553.697 28.7538   3
  17  -4   0 580.525 35.3282   2
   1  16   0 34.5867 16.7759   2
 -17  16   0 31.8996 13.0845   2
 -17  16   0 53.8454 13.8329   5
 -17   1   0 30.3364 15.8717   5
   1  16   0 20.8299 13.0366   3
   1 -17   0 21.5545 12.0313   2
  16   1   0 21.7270 14.0321   2
   1 -17   0 38.7624 7.92947   5
  16 -17   0 22.5775 15.2712   4
  16   1   0 46.5996 8.33741   4
 -17  16   0 25.6117 9.28415   2
  16   1   0 26.2096 10.9797   3
   1 -17   0 33.9624 13.4998   4
 -17  16   0 40.8537 7.47660   3
 -17   1   0 50.5340 15.4605   2
  17  -1   0 38.7690 10.7374   3
  17 -16   0 51.9807 16.1391   4
  17  -1   0 31.4784 8.84863   4
  -1 -16   0 36.4047 13.2607   2
 -16  -1   0 30.8152 14.5295   2
  -1  17   0 48.7393 13.9095   3
 -16  17   0 40.3511 8.89129   3
 -16  -1   0 40.1618 15.5059   5
  17  -1   0 33.4134 14.3868   2
  -1  17   0 42.5369 16.4080   2
 -16  17   0 35.1431 10.4220   2
 -16  17   0 40.0137 12.6211   2
  -1 -16   0 25.6043 11.1526   4
  -1 -16   0 30.0557 8.31590   5
 -16  17   0 22.7235 11.8337   5
 -18   9   0 285.028 16.7303   2
   9 -18   0 283.809 20.7512   2
   9 -18   0 285.530 25.9192   4
 -18   9   0 275.396 23.0249   5
   9   9   0 294.486 23.3820   3
   9   9   0 304.568 28.6382   2
 -18   9   0 263.473 22.8707   2
  -9  18   0 293.317 20.1576   3
  18  -9   0 284.119 23.0703   4
  -9  18   0 267.655 24.9377   2
  -9  18   0 264.225 18.1267   5
  -9  -9   0 274.454 18.1083   4
  -9  -9   0 302.060 22.5259   5
  -9  -9   0 306.854 25.4599   2
  18  -9   0 282.880 17.9390   3
  12 -18   0 652.654 37.6549   4
  12 -18   0 613.000 32.6953   2
  12   6   0 675.022 40.6373   2
   6  12   0 631.538 35.0771   3
   6  12   0 593.313 39.4970   2
 -18  12   0 659.922 31.3545   2
 -18   6   0 632.436 36.4241   5
   6 -18   0 636.379 34.3619   2
 -18  12   0 688.311 35.9603   2
  12   6   0 680.402 34.6177   3
 -18  12   0 633.197 36.1239   5
 -18   6   0 649.544 37.1362   2
   6 -18   0 644.674 37.2454   4
  18 -12   0 670.657 36.9757   4
  -6  18   0 667.705 40.2695   2
  18 -12   0 660.388 30.2405   3
  -6 -12   0 656.556 33.6642   5
  18  -6   0 669.743 36.7019   2
 -12  18   0 650.717 36.6220   2
 -12  -6   0 638.912 36.0336   5
  -6 -12   0 677.550 33.6178   4
 -12  18   0 652.709 33.1717   5
  -6 -12   0 671.342 38.2655   2
  -6  18   0 638.386 34.2351   3
 -12  -6   0 629.994 30.9547   4
 -12  18   0 672.140 32.0339   3
  18  -6   0 639.630 34.1260   4
 -12  -6   0 617.464 38.8997   2
  18  -6   0 661.643 31.9857   3
  -6  18   0 639.977 30.5733   5
  15 -18   0 279.192 17.4912   2
 -18  15   0 210.977 22.4738   5
   3  15   0 257.494 29.6037   2
 -18   3   0 246.158 25.9795   2
  15   3   0 263.614 26.4844   2
   3 -18   0 233.270 25.0082   4
  15 -18   0 264.865 27.9323   4
 -18  15   0 248.974 22.9694   2
 -18  15   0 233.067 17.9965   2
   3 -18   0 262.586 23.1510   2
 -18   3   0 247.282 25.8157   5
  15   3   0 252.860 21.2567   3
   3  15   0 274.414 23.9676   3
  -3  18   0 275.854 26.5160   2
  18 -15   0 278.753 26.2442   4
 -15  18   0 279.192 17.4271   3
  -3 -15   0 259.573 23.0485   2
 -15  -3   0 257.099 25.6227   2
 -15  18   0 281.595 21.1840   5
  18  -3   0 260.141 19.2177   4
  -3 -15   0 233.716 18.1723   5
 -15  18   0 247.319 24.5551   2
  -3 -15   0 254.366 22.9326   4
  -3  18   0 286.458 22.9131   3
 -15  -3   0 255.587 25.5369   5
  18  -3   0 255.876 25.8070   2
  18  -3   0 250.121 19.3561   3
 -15  -3   0 266.040 15.9070   4
 -18   0   0 333.963 29.4556   5
  18   0   0 385.925 30.3326   2
 -18  18   0 335.634 23.6564   2
   0 -18   0 343.027 20.8827   5
   0 -18   0 364.814 26.8629   4
   0 -18   0 301.428 26.0042   2
 -18  18   0 387.687 25.3493   5
 -18  18   0 339.034 19.4391   3
   0  18   0 322.918 27.3235   3
   0  18   0 318.087 32.6778   2
 -18  18   0 369.740 26.8486   2
  18   0   0 359.969 24.0043   3
 -18   0   0 348.527 30.1158   2
  18 -18   0 331.747 30.4228   4
  18   0   0 332.037 21.3944   4
 -19   8   0 348.842 26.0194   5
   8 -19   0 351.768 24.2576   2
  11   8   0 327.279 29.5177   2
 -19  11   0 351.359 20.3068   2
 -19  11   0 358.735 25.7668   2
  11 -19   0 393.250 23.2279   2
  11   8   0 334.374 24.4660   3
  11 -19   0 386.282 31.3289   4
   8  11   0 371.965 25.9898   3
 -19   8   0 375.044 26.7165   2
   8  11   0 387.400 31.8719   2
   8 -19   0 346.764 28.4715   4
 -19  11   0 352.840 27.6449   5
  19 -11   0 403.744 20.6416   3
 -11  19   0 354.409 22.0311   5
  19  -8   0 358.769 25.9661   2
  -8 -11   0 369.033 25.1214   5
  -8  19   0 406.470 24.5660   3
 -11  -8   0 357.081 26.2750   5
 -11  -8   0 376.551 21.2054   4
 -11  -8   0 360.528 27.2979   2
  -8 -11   0 383.425 29.2972   2
 -11  19   0 314.825 22.0253   3
  -8  19   0 360.001 30.1117   2
  -8 -11   0 335.662 22.1901   4
  -8  19   0 367.674 20.6903   5
  19 -11   0 391.799 27.5598   4
  19  -8   0 337.253 25.4443   4
 -11  19   0 357.708 27.4590   2
 -19  14   0 393.785 22.3767   2
 -19   5   0 412.844 30.5196   2
 -19   5   0 419.660 28.6273   5
  14   5   0 354.249 30.9928   2
   5  14   0 376.428 25.9199   3
   5 -19   0 341.514 28.3511   4
  14 -19   0 414.465 32.9120   4
 -19  14   0 364.122 26.8430   5
 -19  14   0 385.469 27.0847   2
   5  14   0 362.427 31.2259   2
  14   5   0 341.737 25.5846   3
   5 -19   0 379.653 25.6073   2
  14 -19   0 407.741 22.9960   2
  19  -5   0 389.685 28.6017   2
  -5 -14   0 375.039 29.7299   2
 -14  -5   0 421.771 30.9109   2
 -14  19   0 385.692 28.2771   2
 -14  19   0 408.282 23.6301   3
 -14  -5   0 438.941 28.6431   5
  19  -5   0 369.436 23.2640   3
  19  -5   0 387.613 25.5636   4
  -5 -14   0 403.674 24.5342   5
  -5  19   0 407.946 32.1940   2
  -5  19   0 389.654 20.6010   5
  -5  19   0 434.336 26.2388   3
 -14  -5   0 418.907 21.2643   4
  19 -14   0 405.241 29.8899   4
  -5 -14   0 393.199 26.2027   4
 -14  19   0 368.827 25.4851   5
  19 -14   0 418.714 20.6841   3
   2 -19   0 136.158 13.4983   5
  17   2   0 162.297 25.1312   2
   2 -19   0 170.546 21.5850   2
 -19  17   0 157.083 16.9355   2
 -19   2   0 143.842 24.4265   5
  17   2   0 167.067 15.1023   4
  17 -19   0 176.989 27.6534   4
   2  17   0 144.313 27.9695   2
 -19  17   0 153.271 20.5714   5
 -19  17   0 157.030 20.7651   2
   2 -19   0 175.137 23.6998   4
  17   2   0 147.158 20.2740   3
   2  17   0 147.977 22.3058   3
 -19   2   0 170.241 23.9573   2
  -2 -17   0 170.780 22.8968   4
  19  -2   0 153.257 17.0067   4
  19  -2   0 181.966 24.0889   2
  -2  19   0 157.174 22.8974   3
  19  -2   0 181.712 18.2329   3
 -17  19   0 158.682 14.9310   3
 -17  19   0 147.791 20.0251   5
 -17  19   0 147.975 19.2915   2
  19 -17   0 137.567 20.6416   4
  -2  19   0 150.630 27.5509   2
 -17  -2   0 147.309 23.1478   5
  -2 -17   0 143.957 15.5862   5
  -2 -17   0 125.544 20.7259   2
 -17  -2   0 149.383 23.8460   2
 -20  10   0 858.260 44.1874   2
  10 -20   0 812.651 43.7676   4
  10  10   0 840.843 48.7092   2
 -20  10   0 798.315 43.0762   5
  10  10   0 841.987 42.3819   3
 -20  10   0 814.400 38.3944   2
  10 -20   0 788.992 40.5300   2
 -10 -10   0 853.945 39.3572   4
 -10  20   0 828.195 46.5602   2
 -10  20   0 825.681 38.6394   5
 -10 -10   0 815.694 42.2608   5
 -10 -10   0 793.944 45.2735   2
  20 -10   0 829.019 43.3191   4
 -10  20   0 787.947 40.2803   3
 -20   7   0 298.975 27.9594   5
  13   7   0 363.965 29.6814   2
   7 -20   0 344.841 28.1718   4
  13   7   0 338.517 24.2607   3
   7 -20   0 347.511 24.0720   2
  13 -20   0 298.815 21.4531   2
 -20  13   0 338.641 20.1457   2
 -20   7   0 289.191 26.0189   2
  13 -20   0 268.048 30.3119   4
 -20  13   0 332.288 25.9899   5
   7  13   0 265.102 29.3860   2
   7  13   0 281.855 24.1019   3
  -7  20   0 266.391 29.5652   2
 -13  20   0 358.561 27.4974   2
  20  -7   0 345.398 21.3032   3
  -7  20   0 318.821 19.8332   5
  -7 -13   0 312.224 23.1186   4
 -13  -7   0 299.582 19.0489   4
  20 -13   0 314.022 18.9670   3
 -13  20   0 366.194 21.9035   3
 -13  -7   0 314.498 27.1699   5
 -13  20   0 347.224 22.6259   5
  20 -13   0 301.641 28.4070   4
  -7 -13   0 350.662 24.6840   5
  20  -7   0 330.625 26.5743   2
  -7 -13   0 364.662 27.2408   2
  20  -7   0 378.077 25.9410   4
  -7  20   0 277.051 24.1806   3
 -13  -7   0 330.044 27.7478   2
 -20   4   0 31.5935 15.4516   2
 -20  16   0 20.0454 12.2620   2
  16   4   0 36.8942 15.4886   2
   4  16   0 40.0449 19.2308   2
   4 -20   0 41.0363 13.5621   2
  16 -20   0 12.4064 17.0686   4
 -20  16   0 21.5974 14.0277   5
 -20  16   0 38.8800 9.93371   2
  16   4   0 39.1352 12.6590   3
   4  16   0 11.1579 13.9255   3
   4 -20   0 34.8966 15.7894   4
  16 -20   0 32.9601 9.01746   2
 -20   4   0 0.70081 15.8138   5
  -4  20   0 16.0735 14.5073   3
  -4 -16   0 23.9912 11.0093   5
 -16  -4   0 31.7495 16.1091   2
  -4 -16   0 28.4521 13.4443   2
  -4  20   0 5.11808 15.9189   2
  20  -4   0 41.7026 11.6685   3
 -16  20   0 43.2260 13.7149   2
 -16  20   0 18.7409 12.8583   5
  20  -4   0 32.2068 15.1160   2
  20  -4   0 29.9053 12.2018   4
 -16  -4   0 8.28523 15.4745   5
 -16  -4   0 14.7904 7.24037   4
 -16  20   0 36.2202 10.8784   3
  20 -16   0 18.2557 16.0137   4
  -4 -16   0 17.2929 12.4282   4
  19   1   0 122.254 24.9403   2
  19   1   0 95.7049 15.8482   4
   1  19   0 97.4925 17.6769   3
   1 -20   0 93.7388 16.6569   4
 -20  19   0 67.3304 14.0085   2
  19 -20   0 101.914 20.7435   4
 -20  19   0 117.156 20.1335   5
  19   1   0 83.0481 14.9041   3
 -20   1   0 48.2443 17.3578   5
 -20  19   0 95.9481 20.9291   2
 -20   1   0 128.821 24.3984   2
 -19  -1   0 134.417 26.8861   5
 -19  20   0 88.5635 16.4270   5
  20  -1   0 96.0613 19.8238   2
 -19  20   0 97.2256 20.6063   2
  -1 -19   0 80.8491 15.9558   4
  -1  20   0 78.8485 17.0875   3
  20  -1   0 92.7428 13.1557   4
 -19  20   0 129.848 19.8981   2
 -19  -1   0 107.283 24.4021   2
 -19  20   0 85.2527 14.4209   3
  20  -1   0 72.6808 14.2422   3
  12   9   0 351.353 31.3329   2
   9  12   0 325.110 31.3781   2
 -21  12   0 416.203 28.5773   2
  12   9   0 372.346 26.8614   3
  12 -21   0 353.171 30.5382   4
 -21  12   0 390.765 21.9017   2
 -21  12   0 378.737 28.9056   5
   9 -21   0 376.682 25.5161   2
   9 -21   0 376.800 31.2534   4
 -21   9   0 369.542 29.6328   5
 -21   9   0 367.291 29.3220   2
  12 -21   0 366.270 24.1335   2
   9  12   0 357.164 26.6235   3
 -12  -9   0 360.029 28.7555   5
  -9 -12   0 374.387 27.3452   5
 -12  21   0 382.170 31.1518   2
 -12  -9   0 375.005 22.8630   4
  -9 -12   0 371.063 29.6481   2
  -9  21   0 386.308 26.3077   3
 -12  -9   0 386.254 29.9410   2
  21  -9   0 394.315 29.0916   4
  -9  21   0 350.923 31.8733   2
  21 -12   0 355.168 30.2008   4
  -9  21   0 364.212 22.4498   5
 -12  21   0 390.527 24.1562   5
  -9 -12   0 364.613 23.7816   4
  21  -9   0 406.734 23.2204   3
 -12  21   0 389.023 24.6750   3
  15   6   0 98.6807 21.1584   2
  15   6   0 135.993 20.0469   3
  15 -21   0 148.997 22.5517   4
 -21   6   0 93.8605 18.7990   5
 -21  15   0 115.805 20.2579   2
   6  15   0 102.580 16.8626   3
 -21  15   0 123.585 21.0884   5
   6 -21   0 131.823 19.9442   4
  15 -21   0 141.734 15.1105   2
   6 -21   0 127.131 19.4213   2
 -21   6   0 153.547 23.7994   2
 -21  15   0 101.772 14.3301   2
 -15  -6   0 158.928 13.8660   4
  -6  21   0 141.057 20.5812   3
  -6  21   0 119.365 23.7233   2
 -15  21   0 115.412 18.7536   5
  21 -15   0 150.857 20.4209   4
  21  -6   0 126.279 22.6709   2
 -15  -6   0 156.541 23.4557   5
  -6  21   0 133.568 15.7027   5
 -15  21   0 119.837 16.4476   3
 -15  21   0 147.335 22.2599   2
  -6 -15   0 110.697 22.3338   2
 -15  -6   0 145.302 23.2876   2
  21  -6   0 132.131 21.0399   4
  -6 -15   0 104.695 15.5018   4
  -6 -15   0 113.665 19.3413   5
  21  -6   0 128.865 17.2023   3
  18   3   0 169.953 27.3684   2
   3  18   0 218.263 23.4198   3
 -21   3   0 177.423 26.2662   5
  18   3   0 191.824 17.2329   4
   3 -21   0 195.453 26.3124   4
 -21  18   0 169.588 22.7307   5
 -21  18   0 184.044 24.1411   2
  18   3   0 183.989 22.1240   3
 -21   3   0 245.494 27.3915   2
  18 -21   0 254.493 31.3081   4
 -21  18   0 186.191 19.5905   2
 -18  21   0 161.224 23.2701   2
  -3 -18   0 176.708 19.1324   5
 -18  21   0 190.560 18.1335   3
  -3 -18   0 208.234 23.9738   4
 -18  -3   0 236.484 26.7873   2
  21  -3   0 168.317 26.5384   2
 -18  21   0 204.968 22.6113   5
 -18  21   0 208.863 23.3921   2
 -18  -3   0 215.166 25.9825   5
  21  -3   0 158.051 20.9178   4
  21  -3   0 192.399 20.3819   3
   0  21   0 254.955 25.7280   3
 -21   0   0 283.102 31.0014   2
 -21  21   0 218.269 24.8387   5
 -21   0   0 272.694 28.9604   5
   0 -21   0 252.044 27.4009   4
  21   0   0 248.643 23.1548   3
  21   0   0 218.269 30.5962   2
  21 -21   0 253.246 31.8167   4
 -22  11   0 39.1518 9.13550   2
  11  11   0 30.0629 12.7038   3
 -22  11   0 47.8038 14.7255   2
  11 -22   0 31.3622 19.9244   4
  11 -22   0 35.6590 11.0263   2
 -22  11   0 24.9082 21.7125   5
 -11 -11   0 36.8970 10.2177   4
 -11  22   0 50.3210 11.3604   5
 -11 -11   0 29.9535 14.7066   5
 -11  22   0 53.0956 17.9816   2
 -11 -11   0 36.3319 15.3883   2
 -11  22   0 21.1261 13.2311   3
  22 -11   0 34.4644 11.4881   3
  22 -11   0 38.4305 15.7632   4
 -22  14   0 237.237 25.5698   5
   8 -22   0 261.996 27.3533   4
 -22  14   0 265.371 25.2681   2
   8 -22   0 226.448 22.5451   2
  14   8   0 236.955 24.8517   3
  14 -22   0 279.934 20.2007   2
  14 -22   0 284.396 30.8663   4
 -22   8   0 251.040 26.7558   5
 -22   8   0 295.137 27.5663   2
  14   8   0 236.209 30.6153   2
   8  14   0 275.072 25.0169   3
 -22  14   0 203.794 17.6203   2
  -8  22   0 245.315 18.1917   5
 -14  22   0 227.081 20.8083   3
  22  -8   0 244.251 25.6566   4
 -14  -8   0 256.644 26.1917   5
  22  -8   0 229.599 26.1436   2
  -8  22   0 291.999 23.0837   3
  -8  22   0 299.283 30.5952   2
  22 -14   0 274.186 28.8812   4
 -14  22   0 259.730 21.1744   5
  -8 -14   0 256.846 21.4417   4
 -14  -8   0 289.563 25.5915   2
  -8 -14   0 205.611 23.9894   5
 -14  -8   0 265.951 19.0001   4
  22  -8   0 230.854 20.2936   3
 -14  22   0 268.375 28.0487   2
 -22  17   0 197.879 25.5831   5
  17 -22   0 258.108 30.1955   4
   5  17   0 277.261 25.8118   3
   5 -22   0 260.405 29.1123   4
  17   5   0 244.151 23.9162   3
 -22   5   0 244.073 27.9370   5
  17 -22   0 247.854 19.2876   2
  17   5   0 234.792 30.2718   2
 -22   5   0 299.875 29.0291   2
 -17  22   0 229.984 24.1199   5
 -17  -5   0 282.492 27.4878   5
  22  -5   0 237.495 28.3387   2
  22  -5   0 221.796 25.6478   4
  22 -17   0 282.674 49.8371   4
  22  -5   0 241.968 21.8327   3
 -17  22   0 249.160 25.9003   2
  -5 -17   0 219.444 22.6643   5
  -5 -17   0 253.602 25.1443   4
 -17  -5   0 305.729 28.7180   2
 -17  22   0 237.897 19.9286   3
 -17  -5   0 257.690 17.3002   4
   2  20   0 145.445 22.6858   3
   2 -22   0 110.783 22.2034   4
  20   2   0 130.398 28.7253   2
  20 -22   0 179.443 30.8656   4
  20   2   0 122.376 21.2949   3
 -22   2   0 168.872 27.0397   2
 -22   2   0 100.926 19.5550   5
 -20  -2   0 171.566 26.2511   5
  22 -20   0 126.181 21.8836   4
 -20  22   0 134.007 22.8557   5
  22  -2   0 132.086 29.0665   2
  22  -2   0 136.207 18.0799   3
  -2  22   0 177.629 24.2122   3
  -2 -20   0 96.7141 18.0997   4
 -20  -2   0 195.443 27.6121   2
  22  -2   0 150.717 25.2954   4
  13 -23   0 53.7829 11.9264   2
  10  13   0 64.4794 15.9526   3
  10 -23   0 43.6112 18.1569   4
  13 -23   0 81.9147 19.7255   4
 -23  13   0 39.5063 16.1224   5
  10 -23   0 57.6700 13.7087   2
 -23  10   0 81.9039 13.2315   2
 -23  10   0 66.9737 17.9777   5
  13  10   0 35.9943 14.3070   3
 -23  10   0 77.2388 17.3542   2
 -23  13   0 43.6709 19.6156   2
  23 -10   0 59.9486 17.1880   4
 -10 -13   0 42.2820 15.4130   5
 -13  23   0 64.7134 19.1975   2
 -10 -13   0 47.4643 11.6474   4
 -13 -10   0 74.7980 11.4578   4
  23 -13   0 61.7710 17.4489   4
 -10  23   0 121.000 25.9399   2
 -13  23   0 56.7250 13.5286   5
 -10  23   0 44.6018 14.4377   3
 -13 -10   0 69.0301 17.2955   5
 -13  23   0 68.5909 15.1004   3
 -23   7   0 390.579 32.4111   2
 -23   7   0 300.997 28.8070   5
   7 -23   0 314.131 29.7561   4
 -23  16   0 292.100 27.5001   5
  16 -23   0 374.365 34.4545   4
  16   7   0 264.473 29.1800   3
   7  16   0 303.130 26.9227   3
  16 -23   0 331.769 22.6205   2
  23  -7   0 318.428 23.7316   3
 -16  23   0 321.553 31.6284   2
  23  -7   0 267.456 30.1454   2
 -16  -7   0 335.794 29.9328   5
  -7 -16   0 290.781 26.5496   5
  -7 -16   0 335.018 25.6653   4
 -16  23   0 302.610 24.7566   5
 -16  23   0 309.971 24.5933   3
 -16  -7   0 358.282 20.4393   4
  23  -7   0 301.517 27.8565   4
   4  19   0 353.537 29.3533   3
   4 -23   0 354.569 32.7817   4
  19 -23   0 346.853 34.5554   4
 -23   4   0 364.434 33.4971   2
 -23   4   0 313.696 30.8309   5
  19   4   0 307.958 29.6997   3
 -23  19   0 359.596 29.3329   5
 -19  23   0 387.181 29.0545   5
  23  -4   0 365.272 26.1383   3
  23  -4   0 348.970 29.2165   4
  -4 -19   0 424.146 30.6886   4
  23  -4   0 341.604 33.7807   2
  -4  23   0 296.960 28.4340   3
  23 -19   0 366.657 34.2459   4
 -19  -4   0 362.396 31.7817   5
 -23   1   0 102.195 21.5603   5
  22 -23   0 93.1874 21.6979   4
   1  22   0 63.0827 16.7502   3
 -23   1   0 138.921 28.3266   2
  22   1   0 111.439 18.4081   3
   1 -23   0 106.680 20.4902   4
 -23  22   0 129.285 23.3994   5
  -1 -22   0 109.182 20.1751   4
  -1  23   0 46.0428 16.3100   3
  23 -22   0 101.650 23.3633   4
 -22  -1   0 119.422 22.5094   5
 -22  23   0 110.369 20.4324   5
  23  -1   0 87.8022 17.3308   3
 -24  12   0 32.2174 17.2071   5
  12 -24   0 47.5796 18.8075   4
  12 -24   0 36.2372 12.6405   2
  12  12   0 21.6648 14.4211   3
  24 -12   0 29.7971 18.6986   4
 -12 -12   0 50.4499 17.2472   5
 -12 -12   0 41.0616 11.4428   4
 -12  24   0 48.6611 19.0730   2
 -12  24   0 33.3314 14.3012   3
  15 -24   0 2.71315 16.1419   4
  15 -24   0 17.0130 10.8605   2
 -24  15   0 18.4823 15.7696   5
   9 -24   0 11.1279 15.6732   4
   9  15   0 16.2580 14.4283   3
 -24   9   0 16.1148 16.4677   5
  15   9   0 -4.6496 14.8875   3
 -15  -9   0 17.5693 9.75944   4
 -15  24   0 12.9646 13.8650   3
 -15  24   0 25.0004 18.4399   2
  -9 -15   0 -4.2453 14.4752   5
  -9  24   0 5.99558 18.0011   3
 -15  24   0 32.9260 14.2198   5
 -15  -9   0 20.9244 17.1037   5
  24  -9   0 1.78628 16.6415   4
  -9 -15   0 13.5555 11.6688   4
  24 -15   0 17.9196 20.9855   4
   6 -24   0 89.4581 19.8587   4
 -24  18   0 78.5112 17.8140   5
 -24   6   0 61.7774 18.8930   5
  18   6   0 108.145 17.4918   3
   6  18   0 80.1777 16.9081   3
  18 -24   0 69.2351 21.0761   4
  24 -18   0 90.1594 22.0579   4
 -18  24   0 122.745 16.6034   3
 -18  -6   0 77.6319 18.2878   5
  -6 -18   0 95.7977 16.9213   4
  24  -6   0 110.817 18.6230   4
 -18  24   0 138.321 22.6390   5
  -6  24   0 91.5224 19.1550   3
 -24  21   0 161.212 24.6877   5
 -24   3   0 162.842 26.6138   5
   3  21   0 180.743 25.7982   3
  21   3   0 141.864 24.1582   3
  21 -24   0 168.827 25.3981   4
   3 -24   0 161.449 28.3969   4
  24 -21   0 192.856 32.5807   4
  24  -3   0 176.751 23.6468   3
 -21  24   0 171.614 28.6556   5
  -3  24   0 149.014 23.1298   3
  -3 -21   0 187.796 28.6333   4
 -21  -3   0 179.173 28.0570   5
 -24   0   0 163.540 25.5286   5
   0 -24   0 137.689 22.2898   4
   0  24   0 156.871 22.8823   3
 -24  24   0 168.458 26.6508   5
  24 -24   0 150.441 26.4925   4
  24   0   0 134.864 20.7852   3
 -25  11   0 25.4891 16.9663   5
  14 -25   0 27.6880 12.5289   2
  11 -25   0 48.3155 18.1419   4
  14 -25   0 17.0747 17.4112   4
 -25  14   0 34.3758 16.8356   5
  11  14   0 34.1144 15.5016   3
  14  11   0 35.6530 15.5497   3
 -11 -14   0 21.4273 16.6726   5
 -14  25   0 26.7879 15.5190   3
 -11 -14   0 40.2577 13.0240   4
 -14 -11   0 20.6507 17.8065   5
 -14  25   0 20.4781 19.4189   2
  25 -11   0 -1.9994 18.2387   4
 -11  25   0 44.2750 15.9926   3
  25 -14   0 40.6612 19.7293   4
 -14 -11   0 43.6778 11.5552   4
 -25   8   0 63.3694 18.9042   5
 -25  17   0 56.8327 18.4480   5
  17 -25   0 71.1318 19.3552   4
   8  17   0 70.6394 18.0209   3
   8 -25   0 52.8702 18.9480   4
  17   8   0 61.4128 16.6156   3
  -8  25   0 75.0221 19.2834   3
  -8 -17   0 73.4516 16.1054   4
 -17  -8   0 73.2683 20.1736   5
  25  -8   0 37.5746 19.2171   4
 -17  25   0 104.458 17.5655   5
  25 -17   0 74.6829 21.4477   4
  -8 -17   0 82.6288 25.2124   5
 -17  25   0 88.1528 16.5828   3
 -25  20   0 122.143 21.7029   5
  20 -25   0 163.240 25.7561   4
   5  20   0 70.1670 17.4332   3
  20   5   0 133.847 20.1897   3
 -25   5   0 109.741 21.1342   5
   5 -25   0 97.5167 20.2003   4
  -5  25   0 108.330 21.3615   3
 -20  25   0 119.935 20.6870   5
  25 -20   0 72.6162 21.8536   4
 -20  -5   0 72.9956 19.9011   5
  23 -25   0 25.1047 19.6766   4
 -25  23   0 39.8570 18.1338   5
   2 -25   0 13.0031 19.9681   4
 -25   2   0 2.94476 18.8629   5
   2  23   0 34.2842 16.8651   3
  23   2   0 18.5720 16.4386   3
  25 -23   0 25.9819 22.2281   4
  -2  25   0 8.72092 15.6799   3
  -2 -23   0 21.3713 18.1538   4
 -23  25   0 25.0897 19.4913   5
  25  -2   0 31.3294 16.7039   3
 -23  -2   0 29.1444 19.0197   5
 -26  13   0 196.639 25.9619   5
  13  13   0 159.698 24.4945   3
  13 -26   0 170.501 29.2394   4
  26 -13   0 191.241 24.6392   4
 -13 -13   0 170.864 26.6099   5
 -13  26   0 152.931 24.0044   3
  10  16   0 95.7062 17.5251   3
 -26  10   0 115.083 21.6368   5
  16 -26   0 123.590 22.7448   4
 -26  16   0 63.0533 17.3797   5
  16  10   0 89.0972 18.3263   3
  10 -26   0 91.8774 20.4601   4
 -10 -16   0 103.220 20.0385   5
 -10  26   0 95.9163 20.0374   3
  26 -10   0 78.0458 26.7151   4
 -10 -16   0 97.4119 16.4857   4
  26 -16   0 100.505 21.3155   4
 -16 -10   0 103.071 21.6704   5
 -16  26   0 132.231 19.5420   3
  19   7   0 297.961 28.6182   3
 -26   7   0 265.849 27.5853   5
   7  19   0 265.876 26.3088   3
 -26  19   0 265.011 28.4707   5
   7 -26   0 326.627 32.7797   4
  19 -26   0 339.883 34.0097   4
  -7 -19   0 272.292 30.5877   4
  -7  26   0 267.348 28.5593   3
 -19  26   0 326.077 36.8099   5
 -19  -7   0 243.764 31.7958   5
  26  -7   0 277.138 33.4164   4
  26 -19   0 257.963 35.5055   4
   4  22   0 90.1202 19.4049   3
   4 -26   0 144.820 23.8073   4
  22   4   0 156.883 21.5400   3
 -26  22   0 92.0679 18.7414   5
  22 -26   0 107.315 24.7290   4
 -26   4   0 126.587 21.8103   5
 -22  26   0 117.052 22.6936   5
  26 -22   0 151.612 25.8323   4
 -22  -4   0 107.045 22.8198   5
  -4  26   0 107.623 21.6262   3
  -4 -22   0 115.985 21.9354   4
  25   1   0 35.5050 18.7643   3
  25 -26   0 29.2773 21.8051   4
 -26   1   0 36.1494 21.0100   5
   1 -26   0 23.5937 20.9950   4
   1  25   0 25.8519 16.9437   3
 -26  25   0 33.8358 20.2565   5
  26 -25   0 20.8309 23.0746   4
  -1 -25   0 10.3004 19.8408   4
 -25  26   0 44.8160 21.1760   5
 -25  -1   0 42.5704 20.2948   5
  26  -1   0 30.5213 18.5770   3
  -1  26   0 34.2678 17.8669   3
 -27  12   0 51.0621 19.8292   5
  15  12   0 50.7201 17.5735   3
  12  15   0 28.1504 15.4186   3
  12 -27   0 23.6872 19.1415   4
  15 -27   0 9.10659 17.3500   4
 -27  15   0 31.6593 17.4537   5
 -15  27   0 36.1058 17.1890   3
  27 -12   0 26.6366 21.1933   4
 -12 -15   0 46.3298 20.0316   5
 -12  27   0 29.7231 17.8118   3
 -15 -12   0 25.4936 18.1173   5
  27 -15   0 74.5959 22.0674   4
  18   9   0 68.0769 18.4961   3
   9  18   0 42.6920 15.1189   3
 -27   9   0 62.6611 18.9990   5
 -27  18   0 43.5026 18.0727   5
   9 -27   0 23.3387 19.8526   4
  18 -27   0 51.2083 19.7083   4
 -18  -9   0 67.9339 20.0096   5
  -9 -18   0 65.7542 16.0589   4
  27 -18   0 70.4907 23.2616   4
  -9  27   0 53.0605 18.9453   3
  27  -9   0 64.4335 22.4104   4
 -18  27   0 59.4359 20.5029   3
 -27  21   0 68.6544 19.6406   5
 -27   6   0 38.8237 18.7521   5
   6  21   0 29.1779 16.3704   3
  21 -27   0 66.1105 22.8120   4
   6 -27   0 50.1934 19.3915   4
  21   6   0 71.5550 18.2060   3
  27 -21   0 72.3401 25.0076   4
  -6 -21   0 90.4806 19.0177   4
 -21  -6   0 49.0658 19.6549   5
 -21  27   0 49.9393 24.5342   5
  -6  27   0 51.6993 18.4571   3
   3 -27   0 39.6345 21.1161   4
 -27  24   0 46.0933 20.2717   5
 -27   3   0 49.0535 20.7950   5
  24 -27   0 17.5472 20.9474   4
   3  24   0 24.1702 16.2671   3
  24   3   0 25.1267 18.9357   3
  -3  27   0 53.8579 20.1141   3
 -24  -3   0 24.1286 19.8138   5
 -24  27   0 77.1965 23.0659   5
  -3 -24   0 60.4221 21.0395   4
  27 -24   0 48.6320 25.2899   4
  27   0   0 49.3002 21.0116   3
  27 -27   0 10.9409 23.6948   4
   0  27   0 32.2662 17.6589   3
 -27   0   0 44.9463 20.8629   5
 -27  27   0 33.5467 22.0159   5
   0 -27   0 5.76564 20.9960   4
 -28  14   0 81.6904 18.6861   5
  14  14   0 95.1052 19.7895   3
  14 -28   0 62.8870 19.8240   4
 -14 -14   0 81.2535 21.5090   5
 -14  28   0 72.8730 20.6735   3
  28 -14   0 73.0789 22.8046   4
 -28  17   0 23.3564 16.9686   5
  17 -28   0 24.1040 18.6825   4
  17  11   0 25.3172 17.1750   3
  11 -28   0 32.9775 19.9175   4
  11  17   0 28.2360 16.4898   3
 -28  11   0 12.5127 16.3706   5
  28 -17   0 28.5184 23.2534   4
 -17  28   0 54.3520 18.2467   3
 -17 -11   0 32.2157 19.7941   5
 -11  28   0 39.7474 19.5901   3
  28 -11   0 24.4847 21.6506   4
   8 -28   0 34.3125 19.6415   4
  20   8   0 42.7164 18.5539   3
   8  20   0 50.1525 16.5875   3
  20 -28   0 64.7171 22.0268   4
 -28   8   0 40.5345 19.9635   5
 -28  20   0 29.2369 17.0103   5
  -8  28   0 17.7518 19.1482   3
  28 -20   0 30.6805 21.9314   4
 -20  -8   0 38.7358 19.2997   5
  -8 -20   0 19.9942 17.1628   4
   5  23   0 23.1577 18.0206   3
  23   5   0 57.8046 19.2886   3
   5 -28   0 20.4782 21.4099   4
 -28  23   0 13.9762 17.5480   5
  23 -28   0 27.8067 21.7943   4
 -28   5   0 31.1247 20.2283   5
  -5  28   0 19.9295 17.6763   3
  28 -23   0 17.7334 23.1320   4
 -23  -5   0 27.1921 19.2179   5
  -5 -23   0 14.8323 19.3615   4
  26 -28   0 10.2178 21.6386   4
  26   2   0 12.9582 19.8040   3
 -28   2   0 29.3455 21.0035   5
 -28  26   0 5.64696 19.5909   5
   2 -28   0 49.5617 23.3801   4
   2  26   0 10.5138 17.1972   3
 -26  28   0 32.5829 25.6992   5
  -2  28   0 15.5862 20.2976   3
 -26  -2   0 11.8839 19.1181   5
  28 -26   0 -1.4965 22.6885   4
  -2 -26   0 22.7912 21.6693   4
 -29  13   0 44.6581 18.0542   5
  16  13   0 97.3428 20.4893   3
  13  16   0 80.9295 19.8699   3
  16 -29   0 90.5198 23.0254   4
 -29  16   0 67.3461 20.2456   5
  13 -29   0 87.9041 22.0104   4
  29 -16   0 89.6091 25.8156   4
  29 -13   0 31.8239 23.7040   4
 -13 -16   0 45.7929 21.1917   5
 -13  29   0 48.4732 21.6218   3
 -16  29   0 66.6772 22.2178   3
 -16 -13   0 76.0483 20.8515   5
  19  10   0 84.7850 20.5676   3
  10 -29   0 58.5605 23.6761   4
 -29  19   0 71.9217 19.8857   5
  10  19   0 76.1370 18.7773   3
  19 -29   0 54.2694 21.6752   4
 -29  10   0 77.2616 21.4453   5
  29 -19   0 63.5748 24.9405   4
 -10  29   0 59.7817 21.1670   3
 -19 -10   0 91.9883 22.4141   5
  29 -10   0 31.4925 24.1908   4
   7  22   0 62.2952 17.8816   3
   7 -29   0 86.2883 23.5238   4
  22 -29   0 68.0729 22.3711   4
 -29   7   0 68.1025 19.8201   5
  22   7   0 91.2078 21.3386   3
 -29  22   0 39.4194 18.1681   5
  29 -22   0 52.4259 25.7470   4
 -22  -7   0 57.6046 20.7859   5
  -7  29   0 15.5859 19.6180   3
  -7 -22   0 122.684 37.9827   4
 -29  25   0 43.0600 20.6468   5
   4 -29   0 10.7716 21.8766   4
  25   4   0 22.6022 20.7952   3
 -29   4   0 25.1770 20.4931   5
   4  25   0 14.8314 17.3776   3
  25 -29   0 31.7526 20.8440   4
 -25  -4   0 37.5513 20.1080   5
  -4 -25   0 24.6159 21.3264   4
  -4  29   0 21.7875 19.5177   3
  29 -25   0 46.9105 23.3815   4
 -29   1   0 11.6994 21.2906   5
   1  28   0 -15.542 18.8689   3
  28   1   0 12.2914 26.8679   3
 -29  28   0 -7.0237 21.4570   5
   1 -29   0 -16.387 23.4302   4
  28 -29   0 -18.730 22.9968   4
  -1  29   0 -3.5664 19.4501   3
  -1 -28   0 15.3669 23.4985   4
 -28  -1   0 -1.9456 19.4221   5
  29 -28   0 -14.360 22.9896   4
  15 -30   0 23.8872 18.6573   4
  15  15   0 44.2207 17.5954   3
 -30  15   0 30.7270 18.1690   5
  30 -15   0 3.16497 23.5737   4
 -15  30   0 9.44299 21.4840   3
 -15 -15   0 13.5615 20.7711   5
  12 -30   0 5.47689 22.5435   4
  18  12   0 36.3252 19.0368   3
  18 -30   0 35.2787 20.5868   4
 -30  18   0 27.3573 18.0139   5
  12  18   0 28.7452 16.8380   3
 -30  12   0 46.2330 19.8081   5
 -18  30   0 83.9286 23.5382   3
 -12  30   0 34.8439 21.8286   3
 -18 -12   0 41.0118 20.6216   5
  30 -18   0 22.6125 24.6313   4
  30 -12   0 10.1554 25.6311   4
 -30  21   0 55.4122 20.0805   5
  21   9   0 68.7711 21.3541   3
   9 -30   0 82.2713 23.7182   4
   9  21   0 50.3350 18.9914   3
  21 -30   0 37.3352 19.5932   4
 -30   9   0 40.2616 19.9851   5
  -9  30   0 65.2397 21.5409   3
  30 -21   0 29.9317 24.0557   4
 -21  -9   0 50.6937 22.6282   5
  24   6   0 -9.3015 17.0066   3
 -30  24   0 33.3577 21.0343   5
   6  24   0 17.9750 16.4023   3
  24 -30   0 -10.788 21.4185   4
 -30   6   0 17.5563 21.0363   5
   6 -30   0 -6.5251 22.2578   4
 -24  -6   0 19.0184 20.3242   5
  30 -24   0 32.6708 26.1566   4
  -6  30   0 9.80047 19.8221   3
   3  27   0 -1.3043 18.5623   3
  27   3   0 18.7155 21.8641   3
 -30   3   0 17.3796 21.4625   5
   3 -30   0 -29.065 22.4801   4
  27 -30   0 16.6531 22.1002   4
 -30  27   0 2.49129 20.8167   5
  -3 -27   0 14.3205 23.5752   4
 -27  -3   0 1.76980 19.2709   5
  -3  30   0 9.24732 19.6917   3
  30 -27   0 -16.475 22.6993   4
 -31  17   0 59.4670 21.4989   5
  17 -31   0 57.0532 19.9812   4
  17  14   0 66.4081 20.8545   3
  14  17   0 56.8131 18.4706   3
 -31  14   0 52.6667 19.9978   5
  14 -31   0 56.8498 22.3391   4
  31 -14   0 74.5133 27.9756   4
  31 -17   0 80.5674 27.8865   4
 -17  31   0 39.8750 23.9231   3
 -14  31   0 94.1797 24.1045   3
 -17 -14   0 66.2396 22.8110   5
 -31  11   0 18.3081 17.7418   5
 -31  20   0 13.1616 18.4847   5
  20 -31   0 21.0456 19.6436   4
  20  11   0 30.6676 20.4691   3
  11 -31   0 8.53778 23.1497   4
  11  20   0 16.0055 17.3969   3
 -11  31   0 31.9466 22.9234   3
  31 -20   0 44.1328 25.6951   4
 -20 -11   0 59.8081 22.4440   5
 -31  23   0 12.5648 18.3649   5
  23   8   0 -1.4274 17.9241   3
  23 -31   0 -9.8073 19.0858   4
   8  23   0 14.6951 18.1761   3
   8 -31   0 -2.0311 21.0370   4
 -31   8   0 15.9234 19.0523   5
 -23  -8   0 0.03388 21.1161   5
  -8  31   0 5.37795 19.9778   3
  31 -23   0 -14.150 24.4728   4
  16 -32   0 2.52023 21.4117   4
 -32  16   0 -34.932 18.3933   5
  16  16   0 14.8927 19.9635   3
  32 -16   0 -29.360 26.9515   4
 -16  32   0 9.82105 24.7067   3
  13  19   0 38.5127 19.9525   3
  19 -32   0 1.41763 20.4639   4
  13 -32   0 15.7533 23.4481   4
 -32  19   0 8.80684 18.1882   5
 -32  13   0 21.4991 17.9147   5
  19  13   0 18.3365 20.2350   3
  32 -19   0 -0.5400 27.1756   4
 -13  32   0 7.37758 23.1905   3
 -19 -13   0 44.7147 23.8308   5
 -32  10   0 26.1535 18.8463   5
  22 -32   0 8.20273 20.0045   4
  10 -32   0 13.1241 23.1326   4
  22  10   0 47.7428 21.3020   3
 -32  22   0 1.74673 19.6239   5
  10  22   0 10.0158 17.4189   3
 -10  32   0 46.4067 22.4084   3
  32 -22   0 14.9387 26.0711   4
 -22 -10   0 56.7903 24.0985   5
  18  15   0 46.0697 19.0068   3
  15 -33   0 27.0059 22.5581   4
  18 -33   0 13.3333 23.0715   4
 -33  18   0 11.8831 18.2797   5
  15  18   0 43.4078 20.4132   3
 -33  15   0 25.7153 18.4162   5
  33 -15   0 1.86887 30.9123   4
 -15  33   0 17.0595 24.7128   3
  33 -18   0 36.4131 30.2898   4
   1   0   1 622.543 23.9813   2
   0   1  -1 528.872 25.9240   2
   0  -1   1 592.626 26.3047   2
  -1   0  -1 547.306 23.8702   2
   1  -1  -1 528.753 24.1887   4
   0   1  -1 544.603 23.4438   4
  -1   1   1 604.842 24.5346   2
  -1   0  -1 544.616 24.1230   4
  -1   0  -1 548.551 23.5161   3
   1  -1  -1 537.136 24.3044   3
   1  -1  -1 539.500 23.5399   5
   0   1  -1 530.188 24.2797   5
   0   1  -1 539.684 24.0336   3
  -1   1   1 621.120 27.0571   2
  -1   0  -1 513.315 23.9967   5
   2   0  -1 971.280 43.6363   2
   2  -2   1 1109.77 41.6688   2
   0  -2  -1 984.160 41.9425   4
  -2   0   1 1149.36 44.1942   2
  -2   2  -1 930.183 40.4363   3
   0  -2  -1 994.466 41.8261   2
   0  -2  -1 924.096 40.4707   5
  -2   2  -1 968.107 41.8562   5
  -2   2  -1 992.252 40.8856   4
   2   0  -1 964.575 41.4873   3
   2   0  -1 973.952 40.9204   5
   0  -2  -1 995.012 41.0182   3
   2   0  -1 903.655 40.2690   4
  -2   2  -1 945.777 41.4241   2
   2  -3  -1 498.289 23.1018   4
   2   1   1 500.419 20.7197   3
   1   2  -1 469.806 21.9405   5
  -3   1  -1 515.183 20.6524   2
   2  -3  -1 474.007 21.5460   3
  -3   1  -1 483.394 21.9024   4
   1  -3   1 471.423 21.2133   4
   1   2  -1 477.661 22.2611   3
  -3   2   1 457.704 25.4532   2
   1   2  -1 486.523 25.8230   2
   2  -3  -1 509.670 22.3548   2
  -3   2   1 483.691 21.5210   5
   2   1   1 522.163 22.3565   2
  -3   1  -1 464.387 22.4284   5
   1  -3   1 431.691 23.5549   2
   3  -2  -1 474.946 21.7681   4
   3  -1   1 508.415 20.9498   2
  -1  -2   1 506.315 20.3161   4
  -2   3   1 474.721 22.3794   2
  -1   3  -1 461.996 23.9264   2
  -2  -1  -1 452.099 22.2239   4
   3  -2  -1 459.777 22.1924   3
  -2  -1  -1 486.817 21.7312   5
  -2   3   1 525.780 20.6177   5
  -2  -1  -1 514.471 22.0061   2
   3  -2  -1 479.693 25.2192   2
  -1   3  -1 455.377 21.3801   3
  -1   3  -1 459.015 22.4728   5
  -1  -2   1 457.885 25.5820   2
  -4   0  -1 3271.85 123.292   4
  -4   0  -1 3237.98 123.578   5
   0   4  -1 3300.42 123.372   3
  -4   4   1 2781.36 122.764   5
   0   4  -1 3201.22 123.163   5
   4   0   1 2740.30 122.285   3
   0  -4   1 2707.36 122.646   4
  -4   0  -1 3157.39 123.183   2
   4  -4  -1 3266.30 123.758   4
   4  -4  -1 2964.60 123.357   2
  -4   4   1 2629.51 123.386   2
   4   0   1 2644.48 123.304   2
   0   4  -1 3300.14 125.686   2
   0  -4   1 2843.63 125.044   2
   4  -4  -1 3253.45 123.161   3
  -4   1   1 969.772 40.3659   5
  -4   1   1 991.077 44.0383   2
  -4   3  -1 884.483 40.6691   5
   3   1  -1 900.275 43.1901   2
   1  -4  -1 974.355 40.8314   2
   1   3   1 972.042 39.6302   3
   1   3   1 970.839 41.7099   2
   1  -4  -1 985.140 41.4533   4
   1  -4  -1 979.548 39.7749   3
   3  -4   1 954.256 40.1280   4
   3   1  -1 895.076 40.3007   3
   3  -4   1 883.935 40.1702   2
  -1  -3  -1 924.358 40.7836   4
  -1  -3  -1 943.295 39.0126   5
   4  -1  -1 927.912 39.0398   4
  -3   4  -1 939.326 40.2960   2
  -3   4  -1 906.898 40.5976   5
  -1  -3  -1 1015.89 41.2358   2
  -3   4  -1 942.249 38.9833   3
   4  -3   1 920.177 38.2355   2
  -1   4   1 954.751 41.1543   2
   4  -3   1 911.301 38.6403   2
  -3  -1   1 979.351 40.1889   5
   4  -1  -1 930.757 40.3690   3
  -3  -1   1 912.666 43.0987   2
   4  -1  -1 936.166 43.0595   2
   2   3  -1 1573.50 67.1470   3
   3  -5  -1 1674.81 66.5616   3
   2   3  -1 1602.01 66.4513   5
   3   2   1 1607.17 66.2112   3
  -5   3   1 1688.67 69.6078   2
  -5   2  -1 1625.75 67.6390   5
   2  -5   1 1602.17 66.7726   4
  -5   2  -1 1563.19 66.2302   4
   2  -5   1 1634.72 68.3439   2
   3  -5  -1 1558.81 67.6014   4
  -5   3   1 1694.84 66.9903   5
  -5   2  -1 1511.56 65.3871   2
   2   3  -1 1619.22 70.1980   2
   3  -5  -1 1520.98 67.1307   2
   3   2   1 1581.16 67.8417   2
  -2  -3   1 1629.34 65.5261   4
  -2   5  -1 1536.98 66.7807   5
  -2   5  -1 1596.34 66.3240   3
   5  -2   1 1611.44 65.1694   3
   5  -3  -1 1650.07 69.5173   2
  -3  -2  -1 1591.82 67.5921   2
  -2  -3   1 1693.20 69.9602   2
  -2   5  -1 1617.24 68.3950   2
   5  -2   1 1615.75 65.8969   2
   5  -3  -1 1577.03 66.7058   4
  -3   5   1 1631.37 67.6287   2
   5  -3  -1 1624.51 66.9005   3
  -3  -2  -1 1600.60 67.1711   4
  -3   5   1 1566.75 65.5520   5
  -3  -2  -1 1585.72 66.4934   5
   5  -5   1 248.173 16.0531   4
   0  -5  -1 342.630 17.6893   2
  -5   0   1 233.895 20.3289   2
   0   5   1 260.352 15.3213   3
   5   0  -1 294.841 20.4473   2
   5   0  -1 309.152 16.1894   3
  -5   0   1 265.959 17.0022   5
   5  -5   1 245.090 12.9077   2
   0  -5  -1 307.818 19.1611   4
  -5   5  -1 296.970 12.5762   3
   5   0  -1 294.564 12.7983   4
   0   5   1 276.100 19.4079   2
  -5   5  -1 291.904 13.8351   2
  -5   5  -1 311.847 16.7548   5
   1   5  -1 1806.82 74.6503   2
   5   1   1 1510.94 70.6702   3
  -6   5   1 1585.90 71.2997   5
   1  -6   1 1506.08 73.3267   2
  -6   5   1 1565.15 73.3534   2
  -6   5   1 1596.50 71.7786   2
  -6   1  -1 1803.40 72.3396   5
   5  -6  -1 1790.40 72.3446   4
   5   1   1 1482.29 72.5521   2
  -6   1  -1 1814.49 71.2915   2
   1  -6   1 1552.06 71.3918   4
   5  -6  -1 1980.41 72.3832   2
   5  -6  -1 1848.53 71.0422   3
   1   5  -1 1812.78 71.6066   3
  -6   1  -1 1839.11 71.1886   4
   1   5  -1 1868.75 71.2259   5
  -5  -1  -1 1861.97 72.2568   2
  -1  -5   1 1590.82 74.8014   2
  -5  -1  -1 1755.29 71.2635   4
   6  -1   1 1492.95 71.5628   2
  -5  -1  -1 1885.13 72.0213   5
  -1   6  -1 1796.84 71.3994   5
  -1   6  -1 1815.78 71.5471   3
  -5   6   1 1533.68 71.7419   2
   6  -5  -1 1821.12 71.2539   3
  -1  -5   1 1596.24 70.8165   4
  -1   6  -1 1856.70 74.5228   2
   6  -1   1 1656.89 70.3471   3
  -5   6   1 1597.46 70.8679   5
   6  -5  -1 1821.64 72.0424   4
   2   4   1 825.196 38.5589   3
   2  -6  -1 948.567 40.3945   2
   4  -6   1 835.698 39.7028   4
  -6   2   1 895.164 42.0979   2
  -6   4  -1 938.759 40.1679   5
   4   2  -1 933.570 43.2256   2
   2  -6  -1 974.447 41.0775   4
   4   2  -1 921.386 39.5920   3
   2   4   1 822.848 41.1253   2
  -6   2   1 864.244 39.9448   5
   4  -6   1 841.111 39.1779   2
  -4   6  -1 908.231 39.9449   2
  -2  -4  -1 896.901 37.9003   5
  -4   6  -1 928.795 39.8119   5
   6  -2  -1 962.648 39.4963   3
   6  -4   1 808.085 38.8165   4
   6  -2  -1 992.723 43.1011   2
  -4   6  -1 944.343 37.9776   3
  -2  -4  -1 965.364 40.4041   4
  -2   6   1 879.214 38.3861   3
  -2   6   1 883.669 40.8002   2
   6  -2  -1 935.003 38.3757   4
  -4  -2   1 860.130 39.2740   5
  -4  -2   1 902.185 43.1290   2
  -2  -4  -1 892.598 40.4929   2
   7  -7  -1 2150.63 85.7778   4
  -7   0  -1 2150.31 84.2465   4
   0  -7   1 1700.40 87.2743   2
  -7   0  -1 2311.62 85.7896   5
   7   0   1 1766.46 85.8548   2
   0   7  -1 2204.49 88.8996   2
   0  -7   1 1748.92 84.4310   4
   7   0   1 1775.10 83.8166   3
   7  -7  -1 2067.07 84.6686   2
  -7   0  -1 2187.49 85.6699   2
   0   7  -1 2219.58 84.4017   5
   7  -7  -1 2235.68 84.2442   3
   0   7  -1 2244.51 85.2160   3
  -7   7   1 1769.38 84.3775   5
   4  -7  -1 4390.72 180.288   4
   3   4  -1 4553.53 182.848   2
   4   3   1 4356.04 179.058   3
   3  -7   1 4171.55 179.568   4
  -7   3  -1 4272.55 180.085   5
   3   4  -1 4538.22 179.878   3
   4  -7  -1 4617.41 178.930   3
  -7   4   1 4436.82 181.821   2
   3  -7   1 4499.12 180.761   2
  -7   4   1 4389.75 179.917   5
   4  -7  -1 4303.90 180.105   2
   4   3   1 4276.94 181.275   2
  -3   7  -1 4335.52 179.431   5
  -3   7  -1 4391.07 178.915   3
  -4  -3  -1 4209.31 180.295   2
  -4   7   1 4438.41 178.158   5
  -3   7  -1 4289.81 180.895   2
   7  -4  -1 4446.99 181.512   2
   7  -3   1 4327.44 177.730   3
   7  -4  -1 4470.16 179.396   4
  -3  -4   1 4512.99 178.184   4
   7  -4  -1 4357.16 179.152   3
  -4  -3  -1 4428.45 179.621   4
  -4  -3  -1 4499.16 179.334   5
  -3  -4   1 4536.27 182.744   2
  -4   7   1 4475.10 180.546   2
   6   1  -1 542.231 31.0544   2
  -7   1   1 598.316 31.5217   2
   1  -7  -1 532.844 27.9005   2
   6   1  -1 539.171 26.8674   3
   6  -7   1 590.003 28.1063   4
   6   1  -1 526.693 23.4264   4
  -7   6  -1 535.159 27.4516   5
   6  -7   1 579.711 24.8780   2
  -7   6  -1 560.620 23.6427   2
   1  -7  -1 556.019 28.8810   4
  -7   1   1 603.963 28.2131   5
   1   6   1 576.163 30.4921   2
   1   6   1 586.003 26.5778   3
  -1   7   1 583.492 29.4089   2
  -1  -6  -1 533.981 28.6307   2
   7  -1  -1 543.851 24.7241   4
  -6   7  -1 585.742 27.6467   5
   7  -1  -1 575.243 27.1583   3
  -1  -6  -1 581.549 28.8955   4
   7  -6   1 556.185 26.8718   4
  -1   7   1 572.811 25.9707   3
  -6  -1   1 577.351 31.4084   2
  -6  -1   1 573.483 27.5119   5
  -6   7  -1 578.224 24.4282   3
  -1  -6  -1 542.723 24.2651   5
  -6   7  -1 539.099 26.0720   2
   7  -1  -1 565.656 31.5839   2
   6  -8  -1 1462.61 65.7220   4
  -8   2  -1 1339.15 63.7333   2
  -8   6   1 1645.72 67.0707   2
   2  -8   1 1565.21 64.9454   4
   6  -8  -1 1496.23 63.6257   3
  -8   6   1 1597.00 65.0178   5
  -8   2  -1 1505.03 65.7036   5
   2  -8   1 1607.64 66.8938   2
   6   2   1 1609.18 63.9589   3
   2   6  -1 1428.18 68.1945   2
  -8   6   1 1636.24 64.8213   2
   6  -8  -1 1455.46 64.8050   2
  -8   2  -1 1490.26 63.6080   4
   2   6  -1 1405.46 64.6275   3
   6   2   1 1610.29 67.0474   2
   8  -2   1 1637.94 62.9272   3
  -2  -6   1 1698.68 63.7394   4
  -6  -2  -1 1404.72 65.7919   2
   8  -6  -1 1446.26 65.0629   4
  -6   8   1 1635.57 65.6372   2
  -2  -6   1 1740.39 69.3996   2
  -6   8   1 1651.48 63.5958   5
  -2   8  -1 1404.24 63.9910   3
  -6  -2  -1 1482.74 64.8695   5
  -6  -2  -1 1414.71 64.1318   4
   8  -6  -1 1462.51 63.8492   3
  -2   8  -1 1450.87 64.0325   5
   8  -2   1 1591.69 64.6794   2
  -2   8  -1 1342.72 66.7777   2
   3   5   1 78.5382 12.9762   2
   5   3  -1 35.8794 9.06370   3
   5   3  -1 34.8153 13.2475   2
   5  -8   1 58.1905 10.3792   2
   3  -8  -1 41.5853 9.01627   2
   3  -8  -1 34.9024 10.2268   4
   5  -8   1 71.2800 10.3754   4
  -8   5  -1 28.8355 9.47806   5
  -8   3   1 80.4093 11.5317   5
   3   5   1 73.8927 8.90222   3
  -8   3   1 81.4243 14.0320   2
  -3   8   1 52.8791 4.11303   5
   8  -5   1 72.3232 10.4784   4
  -5   8  -1 43.7058 9.52203   5
  -5   8  -1 31.3792 9.36986   2
   8  -3  -1 42.3937 7.40354   4
   8  -3  -1 42.4113 8.69761   3
  -3   8   1 63.6789 9.54473   3
  -3  -5  -1 47.0099 7.15956   5
  -5   8  -1 32.3960 6.57381   3
  -3   8   1 67.8873 11.4380   2
  -5  -3   1 83.9699 15.3000   2
  -5  -3   1 61.0812 4.95828   4
  -3  -5  -1 46.0681 10.8240   2
   8  -3  -1 43.1753 12.3958   2
  -5  -3   1 60.3827 10.6895   5
  -3  -5  -1 46.5289 9.89300   4
   0  -8  -1 260.605 12.7529   5
   8  -8   1 260.927 19.3840   4
   8   0  -1 265.100 13.3717   4
  -8   0   1 277.739 23.1902   2
   8   0  -1 311.813 23.1724   2
   8   0  -1 313.369 17.6122   3
   0  -8  -1 278.619 18.6766   2
   0   8   1 238.880 16.4947   3
  -8   8  -1 307.809 18.4668   5
  -8   0   1 274.572 18.5421   5
  -8   8  -1 289.268 12.9139   3
   0   8   1 250.864 21.2208   2
   8  -8   1 228.030 12.6656   2
  -8   8  -1 275.088 14.8158   2
   0  -8  -1 316.560 19.6900   4
   1   8  -1 229.620 16.4293   3
   1   8  -1 248.926 13.7362   5
  -9   8   1 169.928 14.0789   2
  -9   8   1 208.721 18.8079   2
  -9   1  -1 271.701 17.7820   5
   8  -9  -1 253.129 18.6024   4
   1  -9   1 180.181 15.3874   4
   8   1   1 177.352 17.5064   2
   1   8  -1 235.108 21.2702   2
  -9   1  -1 242.187 13.6380   4
  -9   8   1 181.378 15.3421   5
  -9   1  -1 247.549 15.6698   2
   1  -9   1 188.264 19.5203   2
   8   1   1 186.848 13.7990   3
  -1  -8   1 187.033 14.6058   4
   9  -1   1 166.724 16.4933   2
   9  -8  -1 261.043 13.9086   3
  -1  -8   1 175.446 19.4071   2
  -1   9  -1 231.867 15.7539   3
  -1   9  -1 252.571 20.3997   2
  -8  -1  -1 257.893 17.1592   2
  -1   9  -1 245.128 14.1947   5
   9  -1   1 171.447 13.1126   3
  -8   9   1 200.391 15.0120   2
  -8  -1  -1 257.095 14.2633   4
  -8   9   1 170.388 13.9383   5
  -9   4  -1 1259.76 53.4228   2
   5   4   1 1211.46 57.6156   2
   4   5  -1 1286.73 59.9278   2
  -9   5   1 1220.67 57.8893   2
   4  -9   1 1297.01 56.2395   2
   4   5  -1 1283.49 55.4927   3
  -9   4  -1 1314.84 56.2441   5
   5   4   1 1196.50 54.5478   3
   5  -9  -1 1403.77 55.9554   2
   4  -9   1 1228.71 55.7868   4
   5  -9  -1 1292.55 56.5377   4
  -9   5   1 1224.05 55.9488   5
  -5  -4  -1 1311.77 55.0760   4
   9  -4   1 1283.06 54.3978   4
  -5  -4  -1 1326.88 54.8127   5
  -4   9  -1 1318.94 57.6910   2
   9  -4   1 1161.58 53.4105   2
   9  -5  -1 1332.44 57.8417   2
  -4   9  -1 1355.93 54.3845   3
   9  -5  -1 1320.69 54.9248   4
  -4  -5   1 1229.98 53.0520   4
  -5  -4  -1 1349.87 56.9408   2
  -4   9  -1 1297.23 54.7343   5
  -4  -5   1 1231.57 59.1688   2
   9  -4   1 1160.07 52.3014   3
  -5   9   1 1221.55 52.8561   5
  -5   9   1 1299.52 56.0052   2
   9  -5  -1 1329.31 54.6080   3
   2   7   1 1496.92 65.9829   2
  -9   2   1 1533.52 66.5035   2
   2  -9  -1 1494.15 64.0242   4
   2   7   1 1471.66 62.4429   3
   7  -9   1 1422.49 61.5566   2
  -9   7  -1 1568.05 64.1299   5
   7   2  -1 1537.19 63.0839   3
  -9   7  -1 1458.37 59.8656   3
   7  -9   1 1404.58 63.8234   4
   2  -9  -1 1425.00 63.9684   2
  -9   7  -1 1542.14 60.2559   2
  -9   2   1 1452.70 64.1371   5
   7   2  -1 1541.10 67.0663   2
  -7   9  -1 1392.77 64.1955   5
  -7   9  -1 1429.42 60.8730   3
   9  -2  -1 1514.28 66.3954   2
  -2   9   1 1430.75 64.8355   2
   9  -7   1 1418.17 62.8811   4
  -2  -7  -1 1514.24 61.3369   5
  -2  -7  -1 1526.81 63.6419   4
  -7  -2   1 1374.10 62.9958   5
  -2   9   1 1428.89 61.9728   3
  -7  -2   1 1558.40 67.7752   2
  -7   9  -1 1501.56 62.9832   2
  -2  -7  -1 1492.63 64.9015   2
   9  -2  -1 1371.75 61.2620   4
   0  10  -1 454.985 21.3509   5
   0  10  -1 447.843 28.5616   2
 -10   0  -1 458.330 24.7088   5
  10 -10  -1 431.122 26.2469   4
 -10   0  -1 411.208 21.5944   4
 -10   0  -1 364.343 23.6355   2
   0  10  -1 426.506 23.2600   3
  10 -10  -1 455.023 21.6678   3
   3 -10   1 1380.86 61.4527   4
   7   3   1 1242.67 60.7072   3
   7   3   1 1450.02 62.7634   2
   7 -10  -1 1402.24 59.3210   2
   7 -10  -1 1344.31 57.6741   3
   3   7  -1 1281.49 59.5558   3
 -10   7   1 1496.24 59.0797   2
 -10   3  -1 1281.22 58.6387   2
 -10   7   1 1488.99 60.4024   5
   3   7  -1 1297.62 64.0187   2
 -10   7   1 1383.17 61.7986   2
   3 -10   1 1513.52 61.5873   2
 -10   3  -1 1272.15 60.0754   5
   7 -10  -1 1336.76 60.8190   4
  -7  -3  -1 1284.69 58.3538   4
  -7  -3  -1 1337.87 59.5062   5
  10  -3   1 1398.02 57.0100   3
  10  -3   1 1400.59 58.9436   2
  -7  10   1 1409.25 57.5897   5
  -3  -7   1 1432.35 63.6231   2
  -3  10  -1 1310.71 62.4858   2
  -7  10   1 1547.60 60.6674   2
  -3  10  -1 1285.00 58.3324   5
  -3  -7   1 1486.81 58.3467   5
  10  -7  -1 1312.13 59.7673   4
  -3  10  -1 1268.58 58.7004   3
  10  -7  -1 1278.03 58.3244   3
  -3  -7   1 1447.53 57.9317   4
  -7  -3  -1 1379.65 61.0431   2
 -10   6  -1 1853.49 80.6804   5
   6   4  -1 1910.06 84.3572   2
   4   6   1 2004.78 83.7911   2
 -10   6  -1 1755.68 76.8388   2
   4 -10  -1 1838.28 81.1591   4
   4 -10  -1 1860.51 80.6842   2
 -10   4   1 1943.73 83.2003   2
 -10   6  -1 1714.32 77.3933   2
   4   6   1 1947.48 79.8421   3
 -10   4   1 1973.62 80.7792   5
   6 -10   1 1951.06 79.9726   2
   6 -10   1 1909.37 80.7305   4
   6   4  -1 1908.70 80.2061   3
  -6  -4   1 2002.28 80.0325   5
  10  -6   1 1950.12 76.7153   3
  -6  10  -1 1868.30 78.7079   3
  -4  10   1 1896.39 76.9863   5
  -4  -6  -1 1952.11 81.7597   2
  -6  -4   1 1948.61 77.3586   4
  10  -6   1 1918.04 79.6425   4
  -6  10  -1 1767.12 81.0741   2
  -4  10   1 1977.57 82.0467   2
  10  -4  -1 1883.10 79.0640   4
  -4  -6  -1 1857.96 79.0223   5
  10  -4  -1 1783.31 82.4547   2
  -4  -6  -1 1843.65 79.9404   4
  -6  10  -1 1736.51 80.5932   5
  -6  -4   1 2003.50 84.0969   2
  -4  10   1 1983.99 79.0232   3
   9   1  -1 14.4230 8.58011   3
 -10   1   1 5.78331 20.0831   5
   1   9   1 17.0290 9.64139   3
   9 -10   1 23.2970 12.0831   4
 -10   9  -1 18.0276 3.45229   3
   1   9   1 18.7390 11.2463   2
   9   1  -1 19.7641 12.6370   2
   1 -10  -1 20.4745 9.94199   4
 -10   9  -1 12.5625 9.82111   5
   9 -10   1 13.1620 4.51466   2
   1 -10  -1 23.1127 4.12030   5
 -10   9  -1 23.2760 5.51285   2
   9   1  -1 23.0111 4.45433   4
   1 -10  -1 16.0429 9.41142   2
 -10   1   1 17.0080 12.4699   2
 -10   9  -1 18.7953 5.10160   2
  -9  10  -1 16.0293 7.29921   2
  10  -1  -1 18.4797 8.07043   3
  10  -1  -1 21.3127 5.96580   4
  -1  10   1 18.7979 11.2863   2
  -1  10   1 3.47291 8.98886   3
  -9  -1   1 5.37720 9.27948   5
  -1  -9  -1 22.7503 5.55935   5
  10  -1  -1 20.2069 11.9600   2
  -9  10  -1 14.9612 4.98115   3
  10  -9   1 16.0479 14.6917   4
  -1  -9  -1 23.6808 10.1878   2
  -1  -9  -1 11.9108 9.82587   4
  -9  10  -1 14.2133 9.55258   5
   9 -11  -1 590.149 41.9129   4
   2   9  -1 702.734 35.6791   3
 -11   9   1 852.802 36.3192   5
 -11   2  -1 650.055 32.9356   4
   2 -11   1 796.204 38.5089   2
   9   2   1 812.354 38.8165   2
   9   2   1 786.859 34.3747   3
 -11   9   1 829.482 34.9260   2
 -11   2  -1 641.891 35.1730   2
   9 -11  -1 641.232 34.3418   2
   2   9  -1 704.086 40.7530   2
 -11   9   1 859.493 38.4994   2
 -11   2  -1 632.168 40.6353   5
   2 -11   1 828.533 36.2480   4
   9 -11  -1 721.481 33.2227   3
  -2  -9   1 832.912 34.2201   4
  11  -9  -1 698.707 36.6041   4
  11  -2   1 844.647 33.2227   3
  -2  11  -1 655.567 34.7996   3
  -2  -9   1 840.110 41.0818   2
  -9  -2  -1 696.879 33.8181   4
  -2  11  -1 689.889 39.0250   2
  -9  11   1 831.016 34.2201   5
  11  -9  -1 711.640 33.4979   3
  -2  11  -1 718.270 33.5174   5
  11  -2   1 839.221 36.3512   2
  -9  -2  -1 641.919 35.7751   5
  -9  -2  -1 649.251 36.5305   2
  -9  11   1 821.870 36.2501   2
   5 -11   1 119.141 13.7847   2
 -11   6   1 138.156 17.0893   2
   5   6  -1 90.8567 21.0335   2
 -11   5  -1 109.912 19.6410   5
   6   5   1 109.333 13.7523   3
   6 -11  -1 82.9784 12.8627   2
   5   6  -1 125.483 21.3131   3
   5 -11   1 131.735 16.3421   4
 -11   6   1 130.625 16.2491   5
   6 -11  -1 65.3694 13.7628   4
   6   5   1 129.175 18.7509   2
  11  -5   1 133.658 8.00954   3
  -6  -5  -1 82.2706 15.9405   2
  -5  -6   1 139.787 9.98842   4
  11  -5   1 115.195 13.1052   4
  -5  11  -1 93.1241 12.5287   5
  -6  -5  -1 85.6134 12.8587   5
  -5  11  -1 96.8354 16.8589   2
  -5  -6   1 135.288 12.8891   5
  -6  11   1 138.740 9.07315   5
  -6  -5  -1 87.4492 12.9740   4
  11  -6  -1 98.4682 12.3600   3
  11  -5   1 143.236 10.6146   2
  -6  11   1 121.241 11.2383   3
  -5  -6   1 115.066 20.6191   2
  11  -6  -1 88.3870 14.3032   4
  -5  11  -1 83.4260 12.1409   3
  11  -6  -1 102.856 16.1844   2
  -6  11   1 110.898 15.3391   2
   3 -11  -1 227.515 22.4855   4
   3 -11  -1 267.126 17.6863   2
 -11   3   1 190.610 19.5464   5
 -11   3   1 200.749 20.7778   2
 -11   8  -1 238.125 10.0309   3
   8   3  -1 216.928 22.6990   2
   3   8   1 193.681 20.8630   2
 -11   8  -1 246.954 11.0729   2
 -11   8  -1 223.363 12.0241   2
   8 -11   1 223.843 14.0529   2
  -8  -3   1 211.400 17.3184   5
  -8  11  -1 221.627 16.8305   5
  -8  -3   1 201.681 10.7956   4
  -8  -3   1 200.968 21.5239   2
  -3  11   1 194.977 18.8235   2
  -8  11  -1 237.813 13.5505   3
  11  -3  -1 221.551 16.1102   3
  11  -3  -1 230.751 14.8266   4
  -3  -8  -1 241.623 14.2392   5
  -3  -8  -1 234.461 18.5157   2
  -8  11  -1 239.954 17.4316   2
  -3  -8  -1 226.902 17.7475   4
  11  -3  -1 222.499 20.7312   2
  11   0  -1 1685.32 77.5802   2
   0  11   1 1729.49 77.4363   2
   0 -11  -1 1708.03 74.3891   4
   0 -11  -1 1693.64 70.7226   5
 -11   0   1 1786.16 78.5261   2
 -11  11  -1 1662.38 72.1292   2
   0 -11  -1 1734.86 75.4272   2
 -11   0   1 1796.44 75.4182   5
  11   0  -1 1709.57 71.0550   4
 -11  11  -1 1698.42 70.5359   3
   0  11   1 1731.28 73.3142   3
  11 -11   1 1709.07 70.8710   2
  11   0  -1 1704.37 73.3718   3
  11 -11   1 1687.84 74.4996   4
 -11  11  -1 1724.35 74.0925   5
 -12   1  -1 245.435 20.6685   5
   1 -12   1 220.024 19.7163   2
   1 -12   1 217.819 18.6080   4
  11 -12  -1 253.800 22.2169   4
  11 -12  -1 253.054 14.7491   3
   1  11  -1 239.863 19.4989   3
 -12  11   1 222.219 18.1325   5
 -12   1  -1 260.246 15.0686   4
   1  11  -1 262.016 14.9710   5
 -12  11   1 170.979 31.0988   2
  11 -12  -1 272.582 15.6868   2
   1  11  -1 249.702 25.2967   2
  11   1   1 196.809 16.3332   3
 -12  11   1 247.136 16.7874   2
  11   1   1 201.630 20.7269   2
 -12   1  -1 253.893 19.1012   2
  12  -1   1 199.233 19.0136   2
 -11  -1  -1 260.709 19.0856   2
  -1 -11   1 241.461 21.4010   2
 -11  12   1 206.107 16.5006   5
  -1  12  -1 239.649 17.8720   3
  -1 -11   1 220.531 17.0761   4
  -1  12  -1 251.467 15.3363   5
 -11  12   1 274.631 17.9111   2
  12 -11  -1 278.725 22.3329   4
  12  -1   1 212.082 15.2551   3
  12 -11  -1 252.171 15.7060   3
 -11  -1  -1 226.914 19.7720   5
 -12   8   1 456.951 29.9574   2
   4   8  -1 559.771 27.9764   3
   4   8  -1 509.830 36.1109   2
 -12   8   1 495.703 26.1386   2
   8   4   1 482.775 32.0292   2
 -12   8   1 506.969 28.9573   5
 -12   4  -1 612.870 30.1725   5
   8   4   1 474.193 27.1403   3
 -12   4  -1 608.495 27.2135   2
   8 -12  -1 587.585 29.8915   4
   4 -12   1 498.029 28.9358   4
   4 -12   1 514.320 29.4790   2
  -4  -8   1 516.856 26.1532   5
  -4  -8   1 455.010 25.1021   4
  -8  12   1 505.023 28.4729   2
  12  -8  -1 623.410 29.0085   4
  -8  12   1 477.252 24.9845   5
  -4  12  -1 604.387 27.1493   3
  -8  12   1 523.859 25.2189   3
  -4  -8   1 499.762 32.6529   2
  -8  -4  -1 620.875 28.5797   5
  -8  -4  -1 581.167 26.4899   4
  12  -4   1 442.843 26.2687   2
  12  -8  -1 569.897 26.0369   3
  12  -4   1 566.380 28.5035   4
  -4  12  -1 614.417 26.4402   5
  12  -4   1 462.270 23.8535   3
  -4  12  -1 594.372 32.4073   2
   7   5  -1 901.234 41.7853   3
 -12   7  -1 923.812 38.6204   2
 -12   5   1 894.964 44.8743   2
   5 -12  -1 875.500 42.6210   4
   7 -12   1 875.084 42.4430   4
   5   7   1 907.369 41.1396   3
 -12   7  -1 848.883 41.8907   5
 -12   7  -1 890.200 37.2199   2
   5   7   1 910.319 45.8939   2
   5 -12  -1 952.550 41.9425   2
 -12   5   1 905.391 43.5597   5
   7 -12   1 936.549 41.1013   2
   7   5  -1 907.166 46.8292   2
  -5  12   1 911.602 39.7410   3
  12  -7   1 897.799 37.0358   3
  -5  -7  -1 916.865 41.1675   4
  -5  -7  -1 898.907 40.5366   5
  12  -5  -1 882.255 40.0951   3
  -5  -7  -1 894.503 43.1525   2
  12  -7   1 875.835 41.0327   4
  -5  12   1 925.761 43.3871   2
  -7  -5   1 874.679 37.8085   4
  -7  12  -1 899.466 43.2728   2
  12  -5  -1 894.397 40.5755   4
  -5  12   1 859.769 37.3645   5
  12  -5  -1 853.162 43.5703   2
  -7  -5   1 857.859 46.1178   2
  -7  12  -1 896.931 39.5763   3
  -7  12  -1 867.195 40.4305   5
   2  10   1 1042.12 48.2353   3
   2  10   1 1029.45 52.1325   2
  10   2  -1 1087.12 48.5705   3
  10 -12   1 1054.75 45.9315   2
 -12  10  -1 1100.17 45.6881   2
  10 -12   1 1032.08 50.0210   4
 -12  10  -1 1081.91 48.9388   5
  10   2  -1 986.567 56.4122   2
   2 -12  -1 1102.75 50.0254   4
 -12   2   1 1045.67 52.4951   2
 -12  10  -1 1078.40 45.3184   2
 -12   2   1 1056.47 50.3856   5
   2 -12  -1 1035.28 44.0435   5
 -12  10  -1 1072.27 44.0865   3
   2 -12  -1 1082.64 49.5500   2
  -2 -10  -1 1097.22 49.1119   4
  -2 -10  -1 1076.48 45.8829   5
  12 -10   1 1069.87 49.5357   4
 -10  12  -1 1061.31 48.1350   2
 -10  12  -1 1090.05 45.5448   3
 -10  -2   1 1057.79 52.7030   2
 -10  12  -1 1048.97 48.2426   5
  12  -2  -1 1091.37 46.1305   4
 -10  -2   1 1071.14 49.5827   5
  -2 -10  -1 1109.87 50.6884   2
  -2  12   1 1060.58 47.8000   3
  12  -2  -1 1118.97 52.5617   2
  -2  12   1 1080.72 51.6949   2
 -13  13   1 459.906 30.5575   2
   0 -13   1 475.344 31.4485   2
   0  13  -1 579.559 33.9032   2
 -13  13   1 485.763 27.4501   2
 -13  13   1 408.402 30.5898   5
   0  13  -1 569.767 26.2228   5
  13   0   1 467.000 30.4287   2
   0  13  -1 571.122 28.9250   3
 -13   0  -1 572.572 30.9258   5
  13 -13  -1 556.457 25.3560   3
  13   0   1 436.808 25.8768   3
 -13   0  -1 563.266 25.5620   4
 -13   0  -1 545.218 30.6221   2
  13 -13  -1 596.015 32.5211   4
  10   3   1 736.725 35.3388   3
 -13  10   1 677.859 36.6213   5
 -13   3  -1 749.115 37.3222   5
 -13  10   1 746.161 35.0313   2
   3  10  -1 785.776 37.1805   3
 -13   3  -1 800.502 36.7283   2
   3 -13   1 733.622 37.9329   2
  10   3   1 716.257 39.8617   2
   3  10  -1 768.904 42.3791   2
 -13  10   1 621.821 41.5675   2
  10 -13  -1 766.505 39.6509   4
   3 -13   1 682.087 37.2804   4
  10 -13  -1 824.417 35.5925   2
  13 -10  -1 783.712 37.8259   4
 -10  -3  -1 687.835 43.4842   5
  -3  13  -1 783.050 36.2897   3
  -3  13  -1 793.601 41.8912   2
  -3 -10   1 771.341 41.2535   2
  -3 -10   1 720.862 34.7148   4
  13  -3   1 719.954 33.4716   3
  -3  13  -1 781.295 34.2734   5
  13 -10  -1 787.211 34.1505   3
  13  -3   1 713.669 36.6212   2
 -10  -3  -1 789.094 38.5587   2
 -10  13   1 758.062 36.1899   2
  -3 -10   1 714.984 34.4715   5
 -10  13   1 708.942 34.3959   5
   6 -13   1 263.774 18.1864   2
   7 -13  -1 276.575 18.1803   2
   7   6   1 249.360 24.3449   2
 -13   6  -1 216.086 20.6542   5
   6   7  -1 257.703 19.9111   3
 -13   7   1 236.548 19.5938   5
   6   7  -1 238.352 25.2574   2
   7 -13  -1 241.152 20.9578   4
   6 -13   1 230.415 21.1250   4
 -13   7   1 229.422 21.3876   2
   7   6   1 259.958 19.1978   3
 -13   6  -1 246.029 15.5857   2
  -7  13   1 269.173 20.6706   2
  13  -6   1 245.358 12.9195   3
  -6  -7   1 199.592 34.6214   2
  -6  -7   1 267.635 17.4068   5
  -7  -6  -1 243.755 18.3741   4
  -7  -6  -1 254.631 17.8123   5
  -7  13   1 236.937 14.0646   5
  13  -7  -1 234.004 17.0152   3
  13  -7  -1 247.217 19.1595   4
  13  -6   1 266.989 17.8986   4
  13  -6   1 242.566 15.2167   2
  -6  -7   1 265.377 14.6420   4
  -6  13  -1 225.440 16.5992   5
  -6  13  -1 229.960 22.1727   2
  -7  13   1 268.627 16.2078   3
  -7  -6  -1 266.073 20.4230   2
  -6  13  -1 253.850 17.6283   3
   9 -13   1 237.441 20.2905   4
   9   4  -1 228.610 17.7463   3
   4   9   1 231.956 18.9178   3
 -13   4   1 200.955 20.3542   5
   9   4  -1 246.034 23.0017   2
   4 -13  -1 224.923 19.2735   4
   4 -13  -1 217.890 18.6510   2
   9 -13   1 236.664 15.4339   2
 -13   9  -1 234.082 20.3483   5
 -13   9  -1 218.924 11.5645   2
   4   9   1 227.185 24.1578   2
 -13   9  -1 247.826 13.2952   2
 -13   4   1 256.510 22.5536   2
  -9  13  -1 247.201 14.7758   3
  -4  -9  -1 264.973 19.0598   4
  13  -9   1 226.921 20.0468   4
  -9  -4   1 232.527 11.9569   4
  -9  13  -1 232.508 19.0616   2
  -4  13   1 228.792 17.0229   3
  -4  13   1 234.589 10.9155   5
  -9  -4   1 237.437 27.8978   2
  -4  13   1 233.907 21.9609   2
  -9  -4   1 226.833 19.2912   5
  13  -4  -1 254.387 21.5023   2
  -4  -9  -1 223.948 15.6916   5
  13  -4  -1 237.499 16.5300   4
  13  -4  -1 229.985 16.7352   3
 -13  12  -1 296.384 15.6244   3
 -13   1   1 361.935 27.0755   2
  12   1  -1 319.976 20.6201   3
  12 -13   1 333.255 16.9584   2
   1  12   1 341.117 26.3814   2
   1 -13  -1 307.492 16.0625   5
  12 -13   1 371.809 26.3057   4
 -13  12  -1 298.515 17.7663   2
 -13  12  -1 323.333 22.6711   5
   1 -13  -1 361.643 23.7144   4
  12   1  -1 330.756 16.8314   4
   1 -13  -1 333.284 22.3715   2
  12   1  -1 364.278 26.1521   2
 -13  12  -1 340.634 18.3955   2
 -13   1   1 345.261 23.8354   5
   1  12   1 333.933 21.3289   3
  13  -1  -1 351.739 21.4604   3
  13  -1  -1 349.976 26.8041   2
 -12  13  -1 344.144 16.8892   3
 -12  -1   1 351.988 24.6960   5
  -1 -12  -1 338.623 24.1495   2
  -1 -12  -1 352.665 22.9955   4
  -1  13   1 344.885 26.4003   2
 -12  13  -1 381.874 22.6634   5
  -1 -12  -1 317.207 17.5303   5
  -1  13   1 340.653 21.6524   3
 -12  -1   1 373.658 28.1174   2
  13 -12   1 374.090 25.5492   4
 -12  13  -1 343.026 20.0366   2
  13  -1  -1 301.608 18.0516   4
 -14   2  -1 1297.81 59.5570   2
 -14  12   1 1396.65 58.0602   2
   2  12  -1 1222.18 58.2103   3
  12 -14  -1 1222.07 60.0237   4
   2  12  -1 1280.45 64.1456   2
  12   2   1 1282.60 57.0826   3
  12   2   1 1277.55 61.4657   2
   2 -14   1 1266.23 58.6331   4
 -14  12   1 1315.63 61.1594   2
 -14  12   1 1255.87 58.5627   5
  12 -14  -1 1354.55 57.4388   2
 -14   2  -1 1224.06 59.1549   5
   2 -14   1 1369.10 61.3367   2
  -2 -12   1 1342.52 56.4150   5
  14 -12  -1 1299.99 56.0532   3
 -12  -2  -1 1238.83 59.9703   2
  -2 -12   1 1312.15 57.4271   4
 -12  -2  -1 1303.88 56.3019   4
  -2  14  -1 1366.05 58.5359   3
  14  -2   1 1314.60 56.1103   3
  -2  14  -1 1350.42 63.5675   2
 -12  14   1 1280.07 57.2676   5
 -12  -2  -1 1271.34 59.3583   5
  -2 -12   1 1320.69 62.2591   2
  14  -2   1 1314.39 59.8009   2
  14 -12  -1 1343.04 60.0962   4
 -12  14   1 1272.57 60.5928   2
 -14   9   1 102.138 11.5057   2
   5   9  -1 84.7644 17.1313   2
 -14   9   1 89.5570 17.0615   2
   9   5   1 89.4162 28.2442   2
   9   5   1 85.9355 14.1929   3
 -14   5  -1 78.9956 12.1736   2
 -14   9   1 110.368 15.2281   5
   5   9  -1 78.3748 13.0594   3
   5 -14   1 97.3507 14.7031   4
 -14   5  -1 58.1511 13.5516   5
   5 -14   1 98.4245 14.2854   2
   9 -14  -1 91.1771 12.6560   2
   9 -14  -1 56.2237 13.5948   4
  -9  -5  -1 94.7703 10.8946   4
  14  -5   1 85.6704 13.4795   4
  -9  -5  -1 94.8746 13.4660   5
  14  -9  -1 72.6981 11.9150   3
  -9  14   1 79.1943 10.5010   5
  -5  -9   1 103.743 20.4175   2
  -5  -9   1 96.7553 11.2360   4
  -5  14  -1 94.3380 18.8179   2
  -5  -9   1 84.1222 12.2384   5
  -9  -5  -1 76.4243 16.2087   2
  14  -5   1 88.4975 9.12295   3
  14  -5   1 84.2371 12.7202   2
  -5  14  -1 85.1448 11.8126   5
  -5  14  -1 71.3516 11.1013   3
  -9  14   1 96.4887 11.1225   3
 -14   8  -1 500.792 28.8995   5
   6 -14  -1 513.786 30.1796   4
 -14   6   1 447.002 29.5359   5
   6   8   1 512.898 27.7177   3
 -14   6   1 487.473 30.4861   2
   8 -14   1 491.556 25.8018   2
 -14   8  -1 493.428 23.5407   2
   8 -14   1 479.162 29.9769   4
 -14   8  -1 497.128 21.4414   2
   6   8   1 509.915 32.8167   2
   8   6  -1 455.884 26.7899   3
   8   6  -1 463.610 31.7438   2
  14  -8   1 492.199 27.4827   4
  -8  14  -1 458.918 24.5006   3
  14  -6  -1 480.570 26.1938   4
  -6  -8  -1 501.148 29.2614   2
  14  -6  -1 471.720 26.9841   3
  -8  14  -1 494.144 29.3395   2
  -6  14   1 472.597 28.4132   2
  -8  -6   1 481.582 22.2682   4
  -8  14  -1 436.756 31.3960   5
  -6  14   1 478.654 24.4570   3
  -8  -6   1 500.304 33.0099   2
  -6  14   1 468.993 21.5655   5
  -6  -8  -1 500.130 25.9863   4
  14  -6  -1 472.779 29.4907   2
  -8  -6   1 506.364 26.8951   5
  -6  -8  -1 496.415 26.2431   5
  14  -8   1 485.553 21.1813   3
  11   3  -1 1958.29 86.5529   2
  11 -14   1 1867.59 82.2997   4
 -14  11  -1 1830.17 76.7955   3
   3 -14  -1 1860.03 76.9052   5
   3 -14  -1 1924.24 82.7062   4
   3 -14  -1 1907.53 82.5227   2
  11 -14   1 1895.38 79.3376   2
   3  11   1 1882.28 81.0405   3
 -14  11  -1 1918.79 78.7368   2
 -14  11  -1 1817.63 77.8766   2
   3  11   1 1913.91 85.8073   2
 -14   3   1 1876.44 84.7388   2
 -14  11  -1 1883.07 82.1332   5
  11   3  -1 1904.78 81.2502   3
 -14   3   1 1947.00 83.3268   5
  -3  14   1 1869.95 80.2717   3
  14  -3  -1 1826.44 88.4504   2
 -11  -3   1 1944.81 82.3046   5
  -3  14   1 1901.22 84.8729   2
 -11  14  -1 1893.94 81.1046   5
 -11  14  -1 1810.10 81.7022   2
  14 -11   1 1835.17 81.4432   4
  14  -3  -1 1759.41 79.2639   4
  -3 -11  -1 1919.50 81.4099   4
 -11  -3   1 1979.10 86.8866   2
  -3 -11  -1 1854.52 79.1675   5
  14  -3  -1 1892.37 80.3633   3
 -11  14  -1 1840.92 78.6608   3
  -3 -11  -1 1971.98 84.2608   2
  14   0  -1 2019.27 86.2950   4
 -14  14  -1 2153.37 89.9558   5
   0 -14  -1 2045.83 85.8308   5
   0 -14  -1 2102.57 91.1319   2
  14 -14   1 1989.44 90.4395   4
 -14  14  -1 2034.15 85.5055   3
  14   0  -1 2142.17 88.7874   3
 -14  14  -1 2155.69 87.9337   2
 -14  14  -1 2012.30 87.7085   2
   0 -14  -1 2085.21 89.9946   4
 -14   0   1 2148.85 90.8076   5
 -14   0   1 2024.36 93.4429   2
   0  14   1 2080.17 94.2832   2
   0  14   1 2013.31 88.8884   3
  14   0  -1 2112.52 93.5949   2
  14   1   1 204.385 34.6456   2
 -15  14   1 267.611 22.0378   5
 -15  14   1 239.063 18.5217   2
   1  14  -1 275.795 26.2464   2
   1 -15   1 229.109 22.7485   2
 -15   1  -1 278.279 16.5857   4
 -15   1  -1 277.025 21.6841   2
   1 -15   1 253.703 24.5589   4
  14   1   1 266.999 19.0357   3
   1  14  -1 284.311 21.0163   3
 -15   1  -1 285.129 23.5601   5
 -15  14   1 256.983 22.5399   2
  14 -15  -1 250.389 25.1720   4
  -1  15  -1 255.517 26.3329   2
 -14  15   1 247.746 19.6477   2
 -14  -1  -1 274.439 23.0550   5
  15 -14  -1 276.197 16.3376   3
  -1 -14   1 253.178 19.8288   4
  15  -1   1 247.454 22.0883   2
 -14  15   1 258.048 19.4641   5
  -1  15  -1 258.375 20.7364   3
  15 -14  -1 281.508 25.9000   4
 -14  -1  -1 250.656 16.7603   4
  -1 -14   1 241.305 24.0052   2
  -1  15  -1 277.580 16.7107   5
 -14  -1  -1 272.433 21.8516   2
 -15  11   1 214.772 22.0137   2
   4  11  -1 209.078 23.9905   2
 -15  11   1 237.224 20.3108   5
 -15   4  -1 199.318 17.8925   2
   4 -15   1 213.724 20.6653   4
  11   4   1 229.869 17.7104   3
  11   4   1 238.985 23.4427   2
   4  11  -1 189.652 18.8913   3
 -15  11   1 195.985 15.6651   2
 -15   4  -1 187.416 21.1815   5
   4 -15   1 246.422 20.2557   2
  11 -15  -1 189.850 21.7475   4
  11 -15  -1 185.071 17.6190   2
  -4  15  -1 230.567 25.2861   2
  -4  15  -1 193.172 15.4290   5
  15  -4   1 247.382 17.1685   4
  15 -11  -1 179.389 21.8208   4
 -11  15   1 225.034 15.6185   5
  -4 -11   1 232.127 16.2208   5
  15  -4   1 231.467 14.3153   3
 -11  -4  -1 200.422 15.9699   4
  -4 -11   1 220.833 22.1640   2
  -4 -11   1 220.181 16.2291   4
 -11  -4  -1 230.279 19.7931   5
  15 -11  -1 199.919 15.1500   3
 -11  15   1 222.372 15.0278   3
 -11  15   1 225.368 19.1255   2
  15  -4   1 225.820 18.0352   2
  -4  15  -1 192.171 18.8756   3
   7 -15   1 131.040 15.0346   2
   8   7   1 107.742 21.9456   2
   8 -15  -1 122.156 21.2059   4
 -15   8   1 109.226 18.9464   5
   8   7   1 113.310 17.3839   3
 -15   8   1 120.217 19.0114   2
 -15   7  -1 133.937 18.8900   5
   7   8  -1 119.472 15.9017   3
 -15   7  -1 146.168 12.7331   2
   7 -15   1 114.466 19.2278   4
   7   8  -1 139.581 21.2558   2
   8 -15  -1 148.557 13.8330   2
  -7  -8   1 110.444 15.1940   5
  -8  -7  -1 164.539 18.9169   2
  15  -7   1 121.015 15.4965   4
  -7  -8   1 116.264 19.4719   2
  -7  15  -1 141.569 20.4019   2
  -8  15   1 117.932 15.5233   2
  -8  -7  -1 122.005 14.1083   4
  -8  -7  -1 140.498 15.3153   5
  -8  15   1 100.296 10.2660   5
  -7  15  -1 139.840 14.6219   5
  15  -7   1 111.264 12.3978   2
  15  -8  -1 141.917 14.1784   3
  -8  15   1 105.730 12.0257   3
  15  -7   1 98.3109 9.64388   3
  -7  -8   1 117.432 10.8445   4
  15  -8  -1 156.547 16.5396   4
  10 -15   1 455.420 23.9784   2
   5 -15  -1 520.671 27.6582   2
 -15   5   1 441.814 29.8873   2
  10 -15   1 427.145 29.5857   4
  10   5  -1 442.827 32.4339   2
   5 -15  -1 452.614 28.6980   4
   5  10   1 459.080 31.1163   2
 -15  10  -1 471.695 20.6091   2
 -15  10  -1 460.606 28.1793   5
  10   5  -1 472.512 27.0201   3
 -15  10  -1 460.967 22.1808   2
 -15   5   1 470.376 29.5675   5
   5  10   1 433.431 26.0741   3
 -10  -5   1 446.290 26.5151   5
 -10  15  -1 436.558 25.2109   5
  -5 -10  -1 472.796 25.0110   5
  -5  15   1 424.454 24.2918   3
 -10  -5   1 426.825 30.7210   2
  -5  15   1 428.936 28.6254   2
 -10  15  -1 502.748 28.0883   2
  15  -5  -1 451.960 24.8177   3
  -5 -10  -1 435.968 26.4497   4
 -10  -5   1 423.282 20.8368   4
 -10  15  -1 481.292 23.3699   3
  -5  15   1 417.865 19.8807   5
  15 -10   1 455.227 27.9317   4
  -5 -10  -1 470.075 27.6240   2
  15  -5  -1 486.572 25.2493   4
 -15  13  -1 552.104 26.2293   2
   2 -15  -1 539.022 23.3427   5
  13 -15   1 496.938 24.8794   2
  13   2  -1 522.893 34.7619   2
  13   2  -1 521.967 29.1744   3
   2 -15  -1 554.064 31.7429   4
   2  13   1 530.148 33.9492   2
 -15  13  -1 555.301 30.8939   5
 -15  13  -1 560.755 23.3150   3
  13 -15   1 508.640 32.6315   4
   2 -15  -1 557.481 30.5904   2
  13   2  -1 548.936 24.3330   4
 -15   2   1 479.418 32.1790   5
 -15  13  -1 522.012 25.1290   2
 -15   2   1 528.466 33.7973   2
   2  13   1 495.869 28.9542   3
 -13  15  -1 538.242 25.0592   3
 -13  15  -1 505.089 28.4723   2
  -2 -13  -1 557.410 25.7010   5
  -2 -13  -1 517.379 30.1997   4
  -2 -13  -1 564.383 31.8428   2
 -13  -2   1 459.557 33.2174   2
 -13  15  -1 525.950 29.3209   5
  -2  15   1 482.191 32.6433   2
  -2  15   1 456.456 27.7084   3
  15  -2  -1 509.486 28.2163   3
  15  -2  -1 533.741 33.7058   2
  15  -2  -1 540.018 26.6080   4
 -13  -2   1 492.979 30.4352   5
  15 -13   1 542.058 32.6533   4
 -16  16   1 361.668 24.6918   5
  16   0   1 358.607 27.5321   2
 -16   0  -1 387.694 20.6242   4
   0 -16   1 376.656 28.3139   2
 -16   0  -1 388.988 27.9304   5
  16   0   1 360.577 22.4816   3
 -16  16   1 351.641 23.6967   2
  16 -16  -1 374.675 30.1284   4
   0  16  -1 389.019 25.1852   3
 -16   0  -1 345.258 25.9061   2
 -16  16   1 389.565 28.6165   2
   0  16  -1 370.934 30.3061   2
   0 -16   1 375.663 25.8931   4
 -16   3  -1 400.738 27.5690   5
   3  13  -1 385.195 24.9023   3
  13 -16  -1 363.050 29.4460   4
   3  13  -1 372.229 29.8511   2
 -16   3  -1 366.398 24.9732   2
  13 -16  -1 369.985 22.2365   2
  13   3   1 433.627 23.6962   3
   3 -16   1 418.864 27.0999   2
  13   3   1 415.946 28.5579   2
   3 -16   1 429.620 26.5086   4
 -16  13   1 382.862 26.6584   2
 -16  13   1 407.882 28.2016   2
 -16  13   1 402.629 26.4510   5
  -3  16  -1 358.608 24.0496   3
  16  -3   1 419.863 22.7171   4
 -13  -3  -1 365.650 26.6352   2
  -3  16  -1 388.569 29.8703   2
  16  -3   1 443.858 21.9354   3
  -3 -13   1 418.609 22.3641   5
  16 -13  -1 354.513 28.5849   4
  -3 -13   1 390.077 27.6283   2
 -13  16   1 406.498 20.9887   3
 -13  -3  -1 359.500 26.4631   5
 -13  -3  -1 357.171 21.9847   4
  -3  16  -1 377.625 21.4184   5
 -13  16   1 402.300 24.8143   2
  16  -3   1 405.328 26.3188   2
  16 -13  -1 360.981 21.5983   3
 -13  16   1 436.276 23.9130   5
 -16  10   1 32.9140 8.09597   2
  10   6   1 30.5999 10.7901   3
 -16   6  -1 11.5486 12.3655   5
 -16  10   1 39.8517 13.6370   5
  10   6   1 41.4538 15.1737   2
 -16  10   1 32.5161 13.1764   2
  10 -16  -1 25.7626 9.27801   2
  10 -16  -1 22.5276 14.0645   4
   6  10  -1 13.6297 10.7206   3
   6  10  -1 28.6224 14.2752   2
   6 -16   1 47.1648 13.6628   4
 -16   6  -1 25.9482 8.85109   2
  -6 -10   1 28.8998 9.93559   5
  16  -6   1 29.9061 9.67580   4
 -10  16   1 28.9343 8.36219   5
  -6  16  -1 14.2937 9.99737   3
 -10  16   1 35.4072 12.2011   2
  16  -6   1 37.2607 7.12314   3
  -6  16  -1 32.2421 8.59544   5
  16 -10  -1 35.4751 12.6241   4
  -6  16  -1 35.0611 14.7606   2
 -10  -6  -1 26.1995 8.51662   4
 -10  16   1 57.1610 9.95701   3
  16 -10  -1 20.8405 8.24004   3
  -6 -10   1 23.7378 13.8453   2
 -10  -6  -1 31.8824 11.5273   5
  16  -6   1 34.3754 9.42815   2
 -10  -6  -1 33.0142 12.0988   2
   7   9   1 429.822 31.3311   2
   9 -16   1 410.660 23.8319   2
 -16   9  -1 356.148 18.8003   2
   7 -16  -1 376.367 23.6400   2
   7 -16  -1 411.549 27.4603   4
   9 -16   1 421.586 29.4956   4
 -16   7   1 444.264 28.7659   2
 -16   9  -1 431.962 21.9365   2
   9   7  -1 396.900 25.0102   3
 -16   9  -1 404.147 27.3279   5
 -16   7   1 443.733 28.0682   5
   7   9   1 426.767 26.3099   3
   9   7  -1 424.891 30.4790   2
  16  -7  -1 388.736 24.7979   4
  16  -7  -1 340.147 39.8025   2
  -9  16  -1 417.434 22.9956   3
  -7  -9  -1 428.160 24.6323   5
  -9  16  -1 423.729 23.9926   5
  -7  -9  -1 384.972 27.1325   2
  16  -7  -1 403.605 23.3205   3
  16  -9   1 434.533 18.7322   3
  16  -9   1 395.245 26.3803   4
  -9  16  -1 389.220 27.5111   2
  -9  -7   1 401.826 25.1897   5
  -7  16   1 428.868 27.6097   2
  -9  -7   1 434.419 20.2168   4
  -9  -7   1 419.551 29.6603   2
  -7  16   1 406.679 23.3565   3
  -7  -9  -1 434.833 24.2773   4
  -7  16   1 424.189 19.4439   5
  12 -16   1 1001.45 42.7007   2
 -16   4   1 946.960 46.7169   5
 -16  12  -1 925.595 39.2353   3
 -16  12  -1 922.280 40.4940   2
  12   4  -1 916.089 49.5384   2
   4  12   1 977.618 45.3139   3
  12 -16   1 1024.99 48.1776   4
 -16  12  -1 901.427 46.1275   5
   4 -16  -1 915.515 46.6861   4
   4 -16  -1 967.779 46.1636   2
   4  12   1 953.144 49.9788   2
 -16  12  -1 894.368 41.4751   2
 -16   4   1 970.963 48.9791   2
  12   4  -1 872.356 44.0998   3
  -4  16   1 997.621 49.0289   2
  -4 -12  -1 894.989 42.7065   5
 -12  16  -1 929.867 42.0822   3
  16  -4  -1 902.246 43.4655   3
  -4  16   1 1012.78 44.0629   3
 -12  16  -1 922.079 45.9399   2
 -12  -4   1 985.223 46.7334   5
  16  -4  -1 936.795 43.2076   4
  -4 -12  -1 911.033 46.9661   2
  -4 -12  -1 937.352 45.2096   4
 -12  16  -1 919.339 44.7290   5
 -12  -4   1 950.356 50.4422   2
  16 -12   1 960.074 46.7172   4
  16  -4  -1 909.783 47.9779   2
   1 -16  -1 333.982 25.6794   4
 -16   1   1 352.228 27.8905   5
  15   1  -1 335.259 23.2229   3
   1  15   1 336.810 28.5515   2
 -16  15  -1 321.872 24.0437   5
   1  15   1 336.036 24.6346   3
 -16  15  -1 346.442 20.4532   2
 -16  15  -1 341.045 19.8837   2
 -16   1   1 342.905 28.7370   2
  15   1  -1 340.182 28.6210   2
 -16  15  -1 324.579 17.1437   3
  15 -16   1 340.518 28.2281   4
  15   1  -1 350.452 19.0865   4
   1 -16  -1 352.621 23.9547   2
  16 -15   1 382.672 28.6342   4
 -15  16  -1 355.587 24.2716   5
  -1 -15  -1 323.197 24.1027   2
  -1 -15  -1 328.400 18.9241   5
  16  -1  -1 280.307 24.5703   4
 -15  -1   1 379.565 30.7119   2
 -15  16  -1 361.078 18.4528   3
  16  -1  -1 340.697 22.5206   3
  -1  16   1 357.925 29.7694   2
 -15  16  -1 356.200 22.2271   2
  -1  16   1 356.302 24.5109   3
  16  -1  -1 345.597 28.2119   2
  -1 -15  -1 373.820 26.4312   4
 -15  -1   1 350.040 26.5568   5
 -17  15   1 332.325 27.0195   2
  15   2   1 356.575 27.8422   2
   2  15  -1 291.442 22.8442   3
 -17   2  -1 320.719 24.4675   2
 -17   2  -1 301.586 25.9368   5
 -17  15   1 319.931 21.9899   2
   2 -17   1 345.347 25.7461   2
  15   2   1 357.619 22.6078   3
   2  15  -1 299.119 28.4282   2
  15 -17  -1 329.994 29.3633   4
 -17  15   1 300.049 24.0273   5
   2 -17   1 318.387 24.5192   4
  -2 -15   1 342.976 26.7054   2
  17  -2   1 347.659 20.8068   4
  -2 -15   1 304.651 23.3766   4
  -2  17  -1 307.037 19.3520   5
  17 -15  -1 298.100 27.8840   4
 -15  -2  -1 313.157 25.8872   5
  -2  17  -1 298.861 24.0042   3
  17 -15  -1 277.315 19.1218   3
  -2 -15   1 328.358 20.4751   5
 -15  -2  -1 310.512 25.1557   2
  -2  17  -1 330.101 29.8928   2
 -15  -2  -1 315.136 19.3011   4
 -15  17   1 352.852 23.1815   2
 -15  17   1 340.880 22.9593   5
 -15  17   1 355.420 19.1564   3
  17  -2   1 337.983 25.9377   2
  17  -2   1 353.658 20.8785   3
  12 -17  -1 833.992 44.2240   4
 -17  12   1 807.777 41.6236   5
  12 -17  -1 780.156 39.4353   2
   5 -17   1 816.024 42.3681   2
 -17  12   1 840.303 44.4755   2
   5  12  -1 847.925 48.0470   2
 -17  12   1 768.329 39.0257   2
   5  12  -1 867.954 41.9538   3
 -17   5  -1 808.734 41.0079   2
 -17   5  -1 820.594 43.2411   5
  12   5   1 824.770 44.7630   2
  12   5   1 843.890 40.3696   3
   5 -17   1 824.055 42.3343   4
 -12  17   1 835.425 38.1614   3
  -5  17  -1 873.143 47.5728   2
  -5  17  -1 846.502 38.2249   5
  -5 -12   1 778.720 44.3807   2
 -12  -5  -1 824.424 43.3209   2
 -12  -5  -1 802.751 38.5746   4
  17  -5   1 819.024 39.4853   4
 -12  -5  -1 827.756 41.8646   5
 -12  17   1 821.138 42.5629   2
  17  -5   1 855.567 41.4909   2
  -5 -12   1 800.807 39.3109   5
  17  -5   1 841.979 39.6898   3
  -5 -12   1 835.546 38.9897   4
 -12  17   1 846.624 38.5966   5
  17 -12  -1 818.971 37.8827   3
  17 -12  -1 806.255 42.5736   4
  -5  17  -1 861.694 41.2097   3
   8   9  -1 87.2065 17.9665   2
   8 -17   1 79.3385 14.3557   2
   9   8   1 90.2022 15.3919   3
   9   8   1 118.427 21.2243   2
   8   9  -1 77.6681 13.2555   3
 -17   9   1 71.6467 11.0197   2
   9 -17  -1 79.8582 13.6086   2
 -17   9   1 107.875 17.7164   5
 -17   8  -1 93.4338 12.3975   2
 -17   9   1 83.7860 19.2459   2
   8 -17   1 89.7471 16.5125   4
 -17   8  -1 93.6312 15.8458   5
   9 -17  -1 86.0915 16.8986   4
  -9  -8  -1 88.4479 16.5833   2
  -8  17  -1 83.8573 17.2422   2
  17  -8   1 108.267 14.3995   4
  -9  17   1 87.5242 10.3728   5
  -8  -9   1 100.454 15.2903   5
  17  -8   1 99.4851 9.73237   3
  -9  17   1 102.999 13.6585   3
  -9  17   1 88.9567 18.2332   2
  17  -9  -1 76.8353 13.1125   3
  -8  17  -1 87.9652 13.2927   3
  -8  -9   1 90.2170 19.6618   2
  -9  -8  -1 83.5006 15.5547   5
  -8  17  -1 71.7939 13.3087   5
  17  -9  -1 70.9853 13.8606   4
  -8  -9   1 89.6783 10.8342   4
  -9  -8  -1 59.4346 10.3556   4
 -17   6   1 775.342 40.5667   5
 -17  11  -1 737.505 32.3279   2
  11   6  -1 775.310 44.1487   2
  11 -17   1 750.058 35.7402   2
   6 -17  -1 722.347 39.7875   4
  11 -17   1 718.495 41.2307   4
   6  11   1 724.512 42.8895   2
  11   6  -1 759.250 38.3222   3
 -17  11  -1 707.809 33.9422   2
 -17  11  -1 751.839 39.5243   5
   6 -17  -1 809.766 38.7798   2
   6  11   1 727.230 38.0024   3
 -17   6   1 712.498 41.5737   2
 -11  -6   1 737.141 42.2637   2
  -6 -11  -1 763.172 36.4235   5
  17  -6  -1 749.263 42.4812   2
  17  -6  -1 783.295 37.6884   4
  -6  17   1 733.424 41.4906   2
 -11  17  -1 719.085 36.4197   5
 -11  17  -1 719.049 34.8431   3
  17 -11   1 779.725 39.4836   4
  -6 -11  -1 739.429 37.1231   4
  17  -6  -1 727.080 36.0311   3
 -11  -6   1 739.265 32.6525   4
  -6 -11  -1 745.310 39.6177   2
 -11  -6   1 736.550 38.7270   5
 -11  17  -1 746.827 39.7295   2
  -6  17   1 709.784 36.2070   3
  -6  17   1 724.312 31.6667   5
 -17  14  -1 1221.84 57.0920   5
  14   3  -1 1269.40 62.0750   2
   3  14   1 1175.11 61.0957   2
   3 -17  -1 1160.63 56.7605   2
  14 -17   1 1218.12 58.1274   4
  14   3  -1 1244.21 56.1439   3
 -17  14  -1 1222.99 52.5251   2
  14   3  -1 1201.34 51.6576   4
 -17   3   1 1180.21 57.6964   5
   3  14   1 1169.85 55.6138   3
 -17   3   1 1177.92 60.4959   2
   3 -17  -1 1257.68 58.0800   4
  14 -17   1 1230.40 53.2402   2
 -17  14  -1 1248.76 53.4055   2
 -14  17  -1 1238.69 56.0470   5
  -3  17   1 1162.19 55.3708   3
  17 -14   1 1185.94 57.5687   4
  17  -3  -1 1183.83 54.0772   4
 -14  -3   1 1223.24 61.0283   2
  -3  17   1 1207.22 61.3106   2
  17  -3  -1 1203.52 60.0607   2
  -3 -14  -1 1186.78 57.8983   2
  17  -3  -1 1235.00 55.0898   3
  -3 -14  -1 1263.01 53.7194   5
 -14  -3   1 1234.63 58.0324   5
 -14  17  -1 1253.43 53.1062   3
  -3 -14  -1 1216.95 56.3193   4
 -14  17  -1 1198.88 56.8751   2
 -17  17  -1 430.922 24.9920   2
   0  17   1 366.624 31.3900   2
   0 -17  -1 397.904 27.0694   2
  17   0  -1 446.281 32.7470   2
   0 -17  -1 416.665 28.8092   4
 -17  17  -1 413.267 24.6058   2
  17   0  -1 450.083 24.9602   4
  17   0  -1 470.447 26.9229   3
   0  17   1 363.599 25.9600   3
 -17  17  -1 378.199 27.4317   5
 -17   0   1 377.376 32.0797   2
 -17   0   1 390.048 30.3250   5
  17 -17   1 405.748 31.1828   4
   1  17  -1 248.014 29.0051   2
  17 -18  -1 236.966 27.4475   4
   1  17  -1 216.398 22.0338   3
   1 -18   1 185.008 23.1734   4
   1 -18   1 183.656 21.0492   2
 -18   1  -1 246.754 21.9053   2
 -18  17   1 183.721 24.3756   2
 -18   1  -1 204.775 23.3034   5
 -18  17   1 172.280 19.3629   2
  17   1   1 207.286 23.7258   2
 -18  17   1 186.402 21.0642   5
  17   1   1 196.938 18.7691   3
  18  -1   1 201.426 23.7048   2
  18  -1   1 200.986 18.9256   3
 -17  18   1 191.959 24.6406   2
  -1 -17   1 187.058 21.9495   4
  18  -1   1 209.267 17.3589   4
  -1  18  -1 198.856 22.5337   3
 -17  18   1 191.168 19.8074   2
  -1  18  -1 225.860 28.6055   2
  18 -17  -1 226.621 28.0499   4
  -1 -17   1 202.995 24.2783   2
  -1 -17   1 195.840 17.3234   5
 -17  18   1 196.787 15.9969   3
 -17  -1  -1 205.771 22.7253   2
 -17  -1  -1 209.070 24.5496   5
 -17  -1  -1 211.852 15.7314   4
 -17  18   1 211.752 20.3720   5
   4  14  -1 581.677 33.0013   3
 -18   4  -1 612.006 35.7683   5
  14 -18  -1 537.568 30.1387   2
   4 -18   1 578.452 34.8746   4
 -18  14   1 626.645 37.1892   2
 -18   4  -1 584.975 33.6056   2
 -18  14   1 553.196 33.8422   5
  14   4   1 631.838 32.0233   3
  14   4   1 627.308 37.4985   2
   4  14  -1 585.759 38.5613   2
  14 -18  -1 597.535 36.5783   4
 -18  14   1 522.617 30.7658   2
   4 -18   1 576.289 34.3697   2
  18  -4   1 624.672 29.6610   3
  -4  18  -1 595.022 38.0171   2
  18 -14  -1 614.467 35.9430   4
  -4 -14   1 584.489 30.2361   5
  -4  18  -1 596.565 32.7897   3
  -4 -14   1 565.283 35.3124   2
  18 -14  -1 590.822 29.5573   3
 -14  -4  -1 562.978 35.0468   2
  -4 -14   1 632.741 32.1925   4
  18  -4   1 626.436 34.9426   2
 -14  18   1 568.823 29.1618   3
 -14  -4  -1 578.596 34.6507   5
 -14  -4  -1 587.738 29.7615   4
 -14  18   1 596.136 31.1672   5
 -14  18   1 595.024 34.2148   2
  -4  18  -1 598.068 29.7158   5
  18  -4   1 554.691 30.4951   4
  11 -18  -1 793.020 42.4459   4
   7 -18   1 741.911 41.7742   4
   7 -18   1 739.934 39.0463   2
 -18  11   1 794.745 40.9048   5
   7  11  -1 770.966 38.4173   3
 -18  11   1 703.003 46.8249   2
   7  11  -1 752.370 43.7231   2
 -18   7  -1 758.090 40.5349   5
  11   7   1 806.860 44.8438   2
  11 -18  -1 713.705 37.2663   2
 -18   7  -1 756.052 37.6982   2
  11   7   1 768.152 38.5663   3
 -18  11   1 696.789 36.3379   2
  -7  18  -1 800.910 36.6316   5
 -11  -7  -1 782.727 39.3880   5
  -7 -11   1 805.713 35.8338   4
  -7 -11   1 734.752 42.5576   2
  18  -7   1 762.045 34.2618   3
  18  -7   1 711.436 37.4963   4
 -11  18   1 715.524 40.2093   2
  18 -11  -1 750.286 40.5341   4
 -11  18   1 839.245 41.8988   5
  -7 -11   1 713.696 37.6515   5
 -11  18   1 729.301 35.8005   3
 -11  -7  -1 732.421 36.4710   4
  -7  18  -1 755.762 38.1174   3
  -7  18  -1 773.648 43.8585   2
  18  -7   1 803.923 37.9749   2
  18 -11  -1 760.818 36.0820   3
 -11  -7  -1 732.332 41.5579   2
  10 -18   1 51.4978 10.9068   2
 -18  10  -1 74.4003 11.2144   2
   8 -18  -1 62.7852 13.9182   2
 -18   8   1 54.7181 15.6444   2
 -18   8   1 56.2346 16.6945   5
   8  10   1 45.8604 13.0804   3
 -18  10  -1 70.2620 7.49583   2
  10 -18   1 55.1372 15.8639   4
   8  10   1 42.2667 16.6766   2
  10   8  -1 57.0558 13.8288   3
  10   8  -1 57.7240 17.1120   2
 -18  10  -1 70.1139 15.6055   5
   8 -18  -1 61.7112 15.6017   4
  18 -10   1 66.4246 15.0279   4
  18 -10   1 62.0381 6.60340   3
  -8  18   1 57.9042 14.9090   2
  -8 -10  -1 97.2607 13.5659   5
  18  -8  -1 72.3305 13.5517   4
  -8 -10  -1 70.4058 12.1248   4
  -8  18   1 60.9935 11.7019   3
 -10  -8   1 51.7807 12.6573   5
  18  -8  -1 70.3560 12.3814   3
  -8  18   1 48.8707 8.51662   5
 -10  18  -1 85.6076 13.2954   5
 -10  -8   1 50.5898 7.69880   4
 -10  18  -1 74.9918 16.2170   2
 -10  -8   1 52.8295 16.5673   2
  18  -8  -1 75.2356 16.2556   2
  -8 -10  -1 73.1983 14.4221   2
 -10  18  -1 62.6905 11.8006   3
  13   5  -1 89.4081 18.9834   2
   5  13   1 98.1897 22.1865   2
   5 -18  -1 97.3920 16.6700   2
 -18  13  -1 80.6255 10.3704   2
 -18   5   1 77.3422 16.3240   5
   5  13   1 88.5981 16.3516   3
  13 -18   1 83.8330 11.6706   2
 -18   5   1 74.9808 16.8579   2
   5 -18  -1 70.2093 15.5622   4
 -18  13  -1 85.3419 8.63671   2
  13   5  -1 103.023 15.2720   3
 -18  13  -1 85.9704 16.2271   5
  13 -18   1 109.709 19.2277   4
  -5 -13  -1 84.3096 13.8617   4
 -13  18  -1 80.3587 13.1805   3
  -5 -13  -1 78.7592 14.0840   5
 -13  -5   1 76.8380 8.29867   4
  -5  18   1 101.575 21.0570   2
  -5 -13  -1 89.5330 17.4421   2
  18  -5  -1 77.2774 16.4036   2
 -13  18  -1 86.5980 16.1625   5
 -13  -5   1 122.960 20.8344   2
  18  -5  -1 73.2032 12.0837   3
  -5  18   1 88.9327 13.4193   3
 -13  18  -1 83.0147 17.6996   2
  18 -13   1 95.6331 17.4126   4
 -13  -5   1 79.4342 15.5335   5
   2  16   1 149.935 18.3945   3
  16   2  -1 155.613 13.1279   4
  16   2  -1 151.641 19.1151   3
   2 -18  -1 161.813 20.0082   2
   2  16   1 124.984 25.8234   2
 -18  16  -1 169.799 19.4101   5
   2 -18  -1 156.846 21.7570   4
 -18   2   1 132.973 24.1185   5
 -18  16  -1 171.225 14.0694   2
  16   2  -1 141.053 23.9193   2
 -18  16  -1 168.288 14.5631   2
  16 -18   1 107.521 18.3511   4
 -18   2   1 125.792 23.5550   2
  -2  18   1 112.612 18.6072   3
  -2 -16  -1 181.089 20.4893   2
  -2 -16  -1 190.202 21.8586   4
 -16  18  -1 163.706 15.6574   3
  18  -2  -1 145.390 16.9986   4
  18  -2  -1 161.448 18.5406   3
 -16  -2   1 132.171 22.5172   5
 -16  -2   1 114.223 24.5505   2
  -2  18   1 122.457 23.2067   2
 -16  18  -1 161.190 18.3710   2
  18 -16   1 138.004 19.7688   4
  18  -2  -1 181.164 24.2622   2
 -16  18  -1 156.999 19.6102   5
 -19  19   1 678.408 37.5413   2
 -19  19   1 678.571 37.6492   5
  19   0   1 649.573 42.4335   2
  19 -19  -1 710.170 42.4801   4
   0 -19   1 685.789 34.9529   5
 -19   0  -1 650.034 39.9986   5
   0 -19   1 689.669 40.6856   2
  19   0   1 668.841 36.5046   3
   0  19  -1 707.560 37.5380   3
 -19  19   1 676.192 33.3799   3
   0 -19   1 724.587 40.0207   4
 -19   0  -1 729.577 40.8736   2
 -19  19   1 667.851 41.7407   2
  19   0   1 694.629 34.8122   4
   3 -19   1 384.461 26.0503   2
 -19   3  -1 330.071 28.3830   5
   3  16  -1 323.379 25.2798   3
 -19   3  -1 333.729 26.7616   2
  16 -19  -1 309.022 31.2312   4
  16   3   1 375.578 30.5023   2
  16   3   1 339.488 24.5102   3
 -19  16   1 339.885 28.4779   2
   3  16  -1 295.643 30.0590   2
 -19  16   1 376.759 26.1437   5
   3 -19   1 368.094 27.9322   4
 -19  16   1 367.753 23.6010   2
  19  -3   1 377.290 28.4224   2
  -3 -16   1 361.694 27.5694   2
  19  -3   1 376.765 22.8520   4
 -16  -3  -1 333.698 27.8743   5
  19 -16  -1 312.790 20.3274   3
  -3 -16   1 402.047 26.1077   4
 -16  19   1 363.488 24.6142   5
 -16  19   1 377.858 21.4993   3
 -16  -3  -1 303.693 27.1237   2
 -16  19   1 408.962 27.2525   2
  19 -16  -1 307.372 30.1331   4
  19  -3   1 337.276 22.0818   3
 -16  -3  -1 285.629 20.3949   4
  -3  19  -1 328.226 21.0113   5
  -3  19  -1 320.966 25.8140   3
  -3  19  -1 313.570 31.9047   2
  -3 -16   1 362.307 22.4628   5
 -19   6  -1 116.180 19.0379   5
  13 -19  -1 75.9936 13.7951   2
  13 -19  -1 86.3726 18.2416   4
  13   6   1 99.8260 14.9782   3
 -19  13   1 64.5769 15.5691   5
   6 -19   1 77.2580 16.9234   2
  13   6   1 90.4807 19.1183   2
   6 -19   1 67.6649 14.9066   4
   6  13  -1 82.6451 19.0012   2
 -19   6  -1 95.5788 15.6509   2
 -19  13   1 72.3917 13.4989   2
   6  13  -1 75.4483 14.4661   3
 -19  13   1 77.1611 17.1121   2
  19  -6   1 87.0392 13.1037   3
 -13  -6  -1 74.6717 15.3475   5
 -13  19   1 79.3761 13.5790   3
 -13  19   1 94.4386 13.0484   5
  -6 -13   1 77.3634 17.5663   2
  19  -6   1 89.0224 12.6727   4
 -13  -6  -1 70.5786 15.0231   2
 -13  19   1 81.8109 18.0372   2
  19 -13  -1 86.0428 16.9060   4
  -6  19  -1 93.9205 14.2617   5
 -13  -6  -1 76.3813 11.0620   4
  -6 -13   1 88.2355 15.6423   5
  -6  19  -1 57.1602 13.3939   3
  19 -13  -1 103.951 13.6138   3
  -6  19  -1 68.9152 18.7688   2
  19  -6   1 83.0767 16.9937   2
  -6 -13   1 83.1502 12.1999   4
  10   9   1 481.979 29.3023   3
 -19   9  -1 502.183 24.4059   2
  10 -19  -1 513.392 29.5342   2
 -19  10   1 523.783 32.9507   5
 -19  10   1 520.519 27.8272   2
  10 -19  -1 521.663 34.4110   4
   9  10  -1 507.425 30.0505   3
 -19   9  -1 554.981 28.0521   2
 -19   9  -1 540.075 33.1940   5
   9 -19   1 514.881 29.6344   2
 -19  10   1 516.535 34.4128   2
  10   9   1 487.944 34.8028   2
   9  10  -1 518.276 36.2158   2
   9 -19   1 532.553 33.8704   4
 -10  19   1 539.861 25.8396   5
 -10  -9  -1 520.660 30.7984   5
 -10  19   1 501.221 28.0956   3
  -9 -10   1 517.165 25.8134   4
 -10  -9  -1 534.946 28.3164   4
  19  -9   1 532.972 24.4442   3
  -9  19  -1 518.581 28.0918   5
  19  -9   1 512.704 31.1457   4
  -9 -10   1 498.027 29.9179   5
 -10  -9  -1 483.186 31.5343   2
  -9  19  -1 534.521 30.2395   3
 -10  19   1 503.161 33.2880   2
  19 -10  -1 549.188 27.9758   3
  -9 -10   1 526.318 34.8974   2
  19 -10  -1 539.562 32.3502   4
  -9  19  -1 526.015 35.5242   2
  12   7  -1 558.117 37.7023   2
 -19  12  -1 589.319 28.6808   2
  12 -19   1 617.211 37.6031   4
  12 -19   1 573.706 30.0673   2
   7  12   1 539.593 40.2087   2
   7 -19  -1 590.425 35.2562   4
 -19   7   1 574.901 37.0064   2
 -19  12  -1 558.413 33.5368   5
  12   7  -1 558.268 32.3780   3
   7 -19  -1 613.759 32.7783   2
 -19   7   1 577.858 36.0798   5
   7  12   1 622.181 34.6781   3
 -19  12  -1 582.227 26.4912   2
  19  -7  -1 600.951 36.9517   2
 -12  -7   1 587.850 34.4475   5
  19  -7  -1 563.197 30.7447   3
 -12  19  -1 590.115 30.4713   3
  -7 -12  -1 465.242 37.1078   5
 -12  -7   1 562.471 26.8982   4
 -12  19  -1 574.046 31.2873   5
  19  -7  -1 582.125 32.7125   4
  -7  19   1 592.598 31.1495   3
  -7  19   1 625.795 36.6740   2
  -7 -12  -1 583.414 34.7461   2
  -7 -12  -1 569.990 31.5012   4
 -12  -7   1 585.867 38.0082   2
  19 -12   1 581.566 34.8240   4
 -12  19  -1 607.616 36.1220   2
 -19   4   1 225.625 26.6130   2
 -19  15  -1 212.699 23.2402   5
  15   4  -1 223.088 25.9001   2
  15 -19   1 235.848 16.5895   2
   4 -19  -1 209.952 21.4647   2
   4  15   1 221.639 27.0952   2
   4  15   1 242.413 22.9208   3
  15   4  -1 219.452 20.7373   3
 -19  15  -1 233.342 14.8344   2
 -19   4   1 199.865 23.6009   5
 -19  15  -1 203.358 15.5862   2
   4 -19  -1 216.954 24.2032   4
  15 -19   1 232.977 25.7996   4
  19  -4  -1 239.641 25.5019   2
 -15  19  -1 272.748 23.0071   2
  -4  19   1 207.684 27.0892   2
  -4 -15  -1 208.057 21.5433   2
 -15  19  -1 234.136 21.7013   5
  -4  19   1 215.835 21.7278   3
 -15  19  -1 220.893 17.2388   3
 -15  -4   1 235.791 24.6196   5
 -15  -4   1 242.243 27.8591   2
  19 -15   1 244.682 27.9251   4
  19  -4  -1 230.525 19.5900   3
  -4 -15  -1 237.370 18.3421   5
  19  -4  -1 225.138 21.7271   4
  -4 -15  -1 246.167 23.6617   4
 -19   1   1 -7.5369 15.6208   2
 -19  18  -1 20.0935 9.91326   2
   1 -19  -1 3.95879 11.8151   2
   1 -19  -1 1.31142 13.5565   4
  18   1  -1 16.3732 12.2855   3
  18   1  -1 3.49946 15.2518   2
 -19   1   1 -10.778 15.5634   5
 -19  18  -1 26.8630 13.6522   5
  18 -19   1 9.78763 17.2953   4
   1  18   1 1.42212 13.1342   3
 -19  18  -1 -5.6290 9.29343   2
 -18  -1   1 -9.3868 15.9175   5
 -18  19  -1 4.03810 13.2946   5
 -18  19  -1 18.0889 10.6286   2
  -1  19   1 6.89090 12.4779   3
  19 -18   1 18.8378 15.5631   4
  19  -1  -1 15.4487 12.3206   3
 -18  -1   1 8.05260 14.7860   2
  -1 -18  -1 -4.2848 13.2188   4
  19  -1  -1 15.9939 16.0366   2
  -1 -18  -1 1.64922 17.6865   2
 -18  19  -1 23.7048 11.4910   2
 -20   2  -1 263.486 24.4951   2
  18 -20  -1 227.390 36.1234   4
  18   2   1 274.754 22.5327   3
   2 -20   1 232.417 24.1826   2
 -20  18   1 233.521 22.1086   2
 -20  18   1 209.929 26.4527   2
 -20   2  -1 220.841 25.6224   5
  18   2   1 229.180 27.5317   2
 -20  18   1 232.301 24.3500   5
   2 -20   1 290.907 27.1615   4
  -2  20  -1 270.479 41.0158   2
 -18  20   1 279.030 24.8346   2
 -18  -2  -1 245.087 25.4522   2
 -18  -2  -1 224.771 26.0837   5
 -18  -2  -1 216.245 17.6584   4
  20  -2   1 277.624 21.1977   4
  20 -18  -1 271.157 30.5954   4
 -18  20   1 243.259 27.9153   2
 -18  20   1 273.820 19.0655   3
  -2 -18   1 242.242 24.4943   4
  20  -2   1 208.833 26.2220   2
  -2 -18   1 248.363 20.0320   5
  -2  20  -1 231.507 24.5288   3
  20  -2   1 233.211 20.7150   3
 -18  20   1 266.604 22.8844   5
   5  15  -1 183.026 27.5748   2
 -20  15   1 223.835 23.3436   5
  15 -20  -1 228.819 25.4028   4
   5  15  -1 219.914 22.1189   3
   5 -20   1 244.035 25.3046   4
   5 -20   1 235.754 22.8047   2
  15   5   1 263.718 27.3199   2
 -20  15   1 210.457 25.7156   2
 -20  15   1 206.164 18.5243   2
 -20   5  -1 232.765 22.1458   2
 -20   5  -1 197.967 25.4177   5
  15   5   1 257.044 21.5026   3
  15 -20  -1 209.785 18.0730   2
  20  -5   1 229.635 20.2375   4
 -15  -5  -1 237.378 24.3242   5
 -15  -5  -1 199.605 23.3798   2
 -15  -5  -1 198.508 17.8233   4
 -15  20   1 245.317 20.4381   5
  20 -15  -1 212.910 17.6390   3
  20 -15  -1 236.655 27.9457   4
 -15  20   1 242.549 17.9407   3
  -5  20  -1 238.639 17.9945   5
  -5 -15   1 246.375 26.5123   2
  -5  20  -1 240.159 29.4224   2
  -5 -15   1 252.212 22.1380   4
  -5  20  -1 250.904 23.4728   3
 -15  20   1 234.304 22.4440   2
  20  -5   1 237.683 23.5114   2
  -5 -15   1 236.317 20.2029   5
  20  -5   1 239.166 18.2924   3
   8 -20   1 250.239 22.1760   2
 -20  12   1 279.742 19.8068   2
   8  12  -1 268.793 30.0885   2
 -20   8  -1 276.281 26.0939   5
 -20  12   1 311.034 27.9965   2
  12 -20  -1 259.187 20.0229   2
   8 -20   1 282.155 27.8178   4
 -20  12   1 279.363 24.9675   5
  12   8   1 277.663 28.2506   2
  12 -20  -1 272.298 29.0681   4
 -20   8  -1 257.028 20.7302   2
   8  12  -1 262.073 24.2017   3
  12   8   1 275.959 23.4130   3
  20  -8   1 248.502 24.3239   3
 -12  -8  -1 254.959 23.4653   5
 -12  -8  -1 262.026 25.2816   2
  -8  20  -1 262.607 29.2585   2
  -8  20  -1 296.467 23.8175   3
  20 -12  -1 276.692 19.9109   3
  20  -8   1 267.251 23.4930   4
  20 -12  -1 262.845 27.1282   4
  -8 -12   1 267.841 27.2905   2
 -12  20   1 272.942 20.2243   3
 -12  20   1 289.853 18.6488   5
 -12  -8  -1 269.648 20.3109   4
  -8  20  -1 272.710 20.1517   5
  -8 -12   1 280.434 22.4640   5
 -12  20   1 287.323 26.0312   2
 -20  11  -1 290.951 16.6555   2
   9  11   1 355.409 25.0815   3
  11   9  -1 318.257 25.2711   3
 -20   9   1 326.956 27.8559   5
  11 -20   1 324.398 29.8080   4
  11 -20   1 305.059 21.8082   2
   9  11   1 326.043 30.1924   2
 -20   9   1 349.647 29.0622   2
 -20  11  -1 335.512 20.0149   2
   9 -20  -1 330.952 28.5529   4
   9 -20  -1 288.980 22.8640   2
 -20  11  -1 327.245 26.2582   5
  11   9  -1 289.412 30.4311   2
  -9 -11  -1 315.493 25.8314   2
  -9 -11  -1 336.002 23.8978   5
 -11  20  -1 308.846 22.1278   5
  -9  20   1 313.705 28.1035   2
  -9  20   1 321.514 22.4098   3
 -11  20  -1 302.871 24.1462   3
 -11  -9   1 332.150 18.4775   4
  20  -9  -1 329.725 26.5186   4
  -9 -11  -1 334.188 22.3100   4
 -11  20  -1 344.963 29.5922   2
 -11  -9   1 309.658 25.0650   5
 -11  -9   1 313.105 28.2675   2
  20  -9  -1 340.188 22.0169   3
  20 -11   1 325.483 27.0767   4
   6  14   1 279.142 25.1997   3
 -20   6   1 310.207 29.7096   2
   6  14   1 267.319 30.3127   2
   6 -20  -1 345.663 23.7719   2
   6 -20  -1 327.072 28.0653   4
 -20  14  -1 300.384 26.0135   5
  14   6  -1 343.690 24.3234   3
  14 -20   1 328.898 31.3090   4
 -20   6   1 282.203 29.0239   5
 -20  14  -1 340.744 18.9815   2
 -20  14  -1 367.140 17.3597   2
  14   6  -1 327.214 30.1111   2
  14 -20   1 314.796 21.0371   2
 -14  20  -1 337.165 27.7506   2
  -6 -14  -1 380.545 28.0709   2
  20 -14   1 316.187 29.4110   4
 -14  -6   1 284.578 26.6872   5
 -14  20  -1 304.190 23.8333   5
  -6 -14  -1 416.709 26.8726   5
  20  -6  -1 379.999 25.7817   4
 -14  20  -1 352.373 21.8576   3
 -14  -6   1 303.577 29.5861   2
  -6  20   1 272.097 22.5000   3
  -6  20   1 293.484 28.3616   2
  -6 -14  -1 307.047 25.1415   4
  20  -6  -1 310.660 28.6131   2
  20  -6  -1 359.529 23.5405   3
 -20   3   1 105.102 23.6857   2
   3 -20  -1 102.480 16.5037   4
 -20  17  -1 127.040 20.3663   5
  17   3  -1 105.829 21.5024   2
   3 -20  -1 67.3241 14.2817   2
  17   3  -1 123.515 17.1201   3
 -17  -3   1 110.756 21.2775   2
  20 -17   1 73.8802 17.8024   4
 -17  20  -1 118.158 20.9999   5
  -3  20   1 84.2518 16.9441   3
  20  -3  -1 89.4662 18.6871   2
 -17  -3   1 116.211 20.0542   5
 -17  20  -1 127.499 19.9719   2
  -3 -17  -1 100.719 16.0004   4
  20  -3  -1 81.8245 13.7831   3
  20 -20   1 39.3967 16.9090   4
   0 -20  -1 4.99234 23.1371   4
 -20   0   1 59.2273 18.8544   2
  20   0  -1 24.3522 14.0243   3
 -20   0   1 23.1441 17.6286   5
   0  20   1 55.7114 16.1455   3
 -20  20  -1 26.3464 14.9026   5
  20   0  -1 22.6982 18.3644   2
   1 -21   1 105.014 18.3166   4
  20   1   1 98.0266 13.6792   4
   1  20  -1 108.465 18.3050   3
 -21  20   1 111.346 13.1816   3
  20 -21  -1 113.399 21.6155   4
 -21  20   1 91.0211 20.3737   2
 -21  20   1 82.7906 17.2733   5
 -21  20   1 109.538 19.7048   2
 -21   1  -1 120.054 22.3852   2
 -21   1  -1 94.4544 18.8637   5
  20   1   1 89.4548 21.6340   2
  20   1   1 120.103 17.3562   3
   1 -21   1 105.332 16.2511   5
  21  -1   1 110.841 18.6285   4
  -1 -20   1 99.7982 16.7374   5
 -20  -1  -1 95.9557 18.8022   5
  21  -1   1 114.782 19.4817   3
 -20  21   1 92.7012 15.8788   3
 -20  21   1 96.6624 21.5586   2
 -20  21   1 102.896 21.2866   2
  21 -20  -1 107.808 22.2006   4
  -1  21  -1 90.0943 17.2414   3
  21  -1   1 83.4152 20.7382   2
 -20  21   1 119.072 20.3996   5
 -20  -1  -1 133.132 22.7482   2
  -1 -20   1 106.126 17.8478   4
   4 -21   1 444.259 31.1010   2
  17 -21  -1 445.979 32.7470   4
 -21  17   1 410.682 27.7286   2
 -21   4  -1 427.890 29.8865   2
 -21   4  -1 405.984 32.6954   5
  17   4   1 437.288 35.3271   2
 -21  17   1 449.967 30.0676   5
  17   4   1 443.792 29.2314   3
   4 -21   1 506.768 32.1746   4
   4  17  -1 406.819 29.1967   3
 -21  17   1 429.009 34.0784   2
 -17  21   1 433.117 24.8235   3
  21  -4   1 469.220 28.2199   4
  21 -17  -1 383.798 24.0854   3
  21 -17  -1 471.812 36.1479   4
  -4 -17   1 469.056 27.5656   5
 -17  -4  -1 411.247 31.9689   5
  -4  21  -1 438.413 25.0974   5
 -17  -4  -1 427.039 31.8013   2
  21  -4   1 425.935 33.0188   2
  -4  21  -1 366.792 35.7501   2
  -4 -17   1 493.458 29.8408   4
 -17  -4  -1 401.236 24.3139   4
  21  -4   1 455.827 27.1360   3
  -4  21  -1 391.517 29.0568   3
 -17  21   1 440.907 27.9650   5
 -17  21   1 487.868 30.7283   2
  14   7   1 657.961 42.1644   2
   7 -21   1 658.878 40.1685   4
  14   7   1 700.378 36.1620   3
   7  14  -1 690.298 37.0806   3
 -21  14   1 704.773 39.3831   5
 -21  14   1 591.934 34.4688   2
   7 -21   1 622.307 36.7574   2
  14 -21  -1 606.677 34.4351   2
 -21   7  -1 643.504 38.8781   5
 -21  14   1 662.599 41.2728   2
  14 -21  -1 638.682 42.1391   4
  21 -14  -1 670.437 41.1770   4
  -7  21  -1 672.661 37.3207   3
 -14  -7  -1 628.137 39.4800   2
  21  -7   1 705.867 37.9863   2
  -7  21  -1 630.898 43.5606   2
 -14  21   1 703.360 34.2024   5
  21  -7   1 682.506 36.8436   4
  -7  21  -1 701.430 33.9917   5
 -14  -7  -1 664.258 33.4630   4
 -14  21   1 678.141 34.3313   3
  21 -14  -1 638.920 33.2737   3
 -14  -7  -1 620.576 38.6009   5
  -7 -14   1 656.777 35.9802   5
  -7 -14   1 778.654 50.9559   2
  -7 -14   1 719.395 34.9611   4
 -14  21   1 666.174 39.8643   2
  10  11  -1 531.465 33.0969   3
 -21  10  -1 522.832 25.5754   2
 -21  10  -1 473.901 32.3559   5
  10 -21   1 549.929 31.1652   2
  10 -21   1 566.383 37.1915   4
 -21  11   1 539.745 37.1076   2
  10  11  -1 450.194 42.1094   2
  11 -21  -1 481.539 29.3613   2
  11  10   1 558.635 31.0940   3
 -21  10  -1 504.354 28.9714   2
 -21  11   1 543.947 29.1467   2
 -21  11   1 556.057 34.5454   5
  11  10   1 508.476 37.0980   2
  11 -21  -1 496.692 34.7087   4
 -10 -11   1 518.235 35.6418   2
  21 -10   1 570.733 34.4659   4
  21 -11  -1 530.228 28.6741   3
 -11  21   1 554.900 30.2634   3
 -10 -11   1 577.097 27.4579   4
 -10  21  -1 522.055 31.7083   3
 -10  21  -1 518.093 36.9100   2
 -11 -10  -1 520.739 29.7454   4
 -10 -11   1 575.136 32.7253   5
 -11 -10  -1 520.864 33.0245   5
  21 -11  -1 496.466 34.2918   4
 -11 -10  -1 491.246 33.7423   2
 -11  21   1 562.886 36.5262   2
 -10  21  -1 511.938 29.5361   5
   8 -21  -1 53.1702 13.1918   2
 -21  13  -1 82.2335 11.7444   2
   8  13   1 86.3724 15.3601   3
   8  13   1 48.5988 18.1711   2
 -21   8   1 62.0367 17.4199   2
   8 -21  -1 58.9802 17.2242   4
  13   8  -1 51.5094 19.0644   2
  13   8  -1 70.0033 15.9448   3
 -21  13  -1 48.6954 8.23176   2
 -21   8   1 85.8493 18.8213   5
 -21  13  -1 45.7294 15.4986   5
  13 -21   1 64.3643 13.6060   2
  13 -21   1 79.7176 20.3850   4
  21 -13   1 86.0212 16.7047   4
  -8 -13  -1 36.4894 11.3816   4
  -8 -13  -1 54.8003 15.7993   2
  -8 -13  -1 79.6914 14.2740   5
 -13  21  -1 61.7919 13.5326   3
 -13  -8   1 66.3885 15.9103   5
  -8  21   1 71.9913 13.0644   3
  21  -8  -1 63.1837 15.5850   4
  21  -8  -1 53.2519 16.4411   2
 -13  -8   1 75.6665 18.9804   2
  21  -8  -1 60.6948 12.8664   3
 -13  21  -1 64.4361 16.9460   2
  -8  21   1 68.6265 17.4594   2
 -13  21  -1 52.8283 13.3689   5
  16 -21   1 23.2023 8.65548   2
   5  16   1 7.24552 14.5888   3
 -21   5   1 39.1112 17.6749   2
   5 -21  -1 4.24948 11.1877   2
   5 -21  -1 17.6813 14.6466   4
  16 -21   1 38.6191 18.7979   4
 -21   5   1 7.84502 17.4272   5
  16   5  -1 11.9503 17.6644   2
 -21  16  -1 28.6354 15.1347   5
  16   5  -1 14.9438 13.8140   3
  -5 -16  -1 27.0051 13.3213   4
  -5  21   1 8.63369 13.4869   3
  21  -5  -1 31.0096 12.2827   3
  21  -5  -1 14.2613 15.5339   2
 -16  -5   1 19.6237 17.0796   5
  21  -5  -1 3.70919 13.8404   4
  21 -16   1 18.4738 17.6672   4
 -16  21  -1 20.1415 16.6921   2
 -16  -5   1 19.0281 16.6522   2
 -16  21  -1 5.09760 13.6244   5
  19 -21   1 23.9018 17.8732   4
   2  19   1 -0.1638 14.7282   3
 -21   2   1 16.9700 16.6928   2
   2 -21  -1 11.2882 16.2408   4
 -21   2   1 -0.7164 15.2014   5
  19   2  -1 12.1652 13.6355   3
 -19  21  -1 -1.0362 14.8790   5
  21  -2  -1 4.60498 12.6643   3
  -2 -19  -1 -3.0553 14.6464   4
  21  -2  -1 -11.884 17.1897   2
 -19  -2   1 23.0510 16.8591   5
 -19  -2   1 19.4637 18.3211   2
  21 -19   1 25.7250 17.0642   4
  -2  21   1 10.3293 14.4613   3
 -22  22   1 209.108 25.5310   5
  22   0   1 219.176 22.7245   4
   0  22  -1 221.361 25.8764   3
 -22   0  -1 240.118 28.4307   5
   0 -22   1 218.350 28.8488   4
 -22  22   1 230.754 20.1529   3
  22 -22  -1 225.614 32.0983   4
  22   0   1 210.745 23.7834   3
   3 -22   1 261.039 19.7624   5
  19 -22  -1 266.373 31.6947   4
   3 -22   1 293.862 30.0168   4
  19   3   1 228.855 31.3452   2
 -22   3  -1 332.335 39.0006   2
 -22  19   1 216.573 30.5856   2
   3  19  -1 198.025 25.5685   3
  19   3   1 233.547 24.1518   3
 -22  19   1 264.658 26.7382   5
 -22  19   1 239.022 23.2007   2
 -22   3  -1 235.315 27.7550   5
 -19  22   1 253.435 24.9681   5
 -19  -3  -1 233.351 26.4009   2
 -19  22   1 250.650 25.1271   2
  -3  22  -1 218.573 26.1269   3
 -19  -3  -1 230.685 27.6728   5
 -19  22   1 233.464 30.3792   2
  -3 -19   1 241.634 22.0751   5
 -19  -3  -1 209.196 18.6477   4
  22 -19  -1 233.058 32.9622   4
 -19  22   1 234.455 20.0759   3
  22  -3   1 256.361 30.1655   2
  22  -3   1 252.886 22.8016   4
  -3 -19   1 289.126 27.2999   4
 -22  16   1 194.858 27.4776   2
  16   6   1 193.272 27.6845   2
  16   6   1 237.597 22.3103   3
 -22   6  -1 169.238 25.4318   5
 -22  16   1 180.369 19.0755   2
   6 -22   1 213.007 22.3597   2
 -22   6  -1 231.642 22.9119   2
   6 -22   1 206.780 26.9747   4
  16 -22  -1 190.253 18.0526   2
 -22  16   1 218.157 24.2341   5
   6  16  -1 193.930 21.1879   3
  16 -22  -1 184.790 28.2855   4
  -6  22  -1 222.326 23.4565   3
 -16  -6  -1 227.139 18.6300   4
  -6  22  -1 181.794 29.2110   2
  -6 -16   1 185.669 21.1581   5
  -6 -16   1 232.405 22.8859   4
 -16  22   1 193.920 18.9459   3
 -16  22   1 210.291 24.8305   2
  22  -6   1 203.926 29.7526   2
 -16  -6  -1 231.600 25.1984   5
 -16  22   1 206.803 22.5787   5
  22 -16  -1 231.855 18.1874   3
  -6  22  -1 215.770 18.2138   5
  22  -6   1 216.513 23.1049   4
 -16  -6  -1 201.862 25.0911   2
  22 -16  -1 247.677 29.9575   4
  13   9   1 77.3846 20.0296   2
  13   9   1 89.3199 16.1180   3
 -22  13   1 103.563 19.3627   5
   9 -22   1 82.9771 18.0314   4
  13 -22  -1 88.3126 15.5840   2
 -22   9  -1 93.2429 18.8020   5
 -22  13   1 105.112 15.1404   2
  13 -22  -1 60.9641 16.9014   4
 -22  13   1 110.828 23.9561   2
   9 -22   1 84.9011 18.2362   2
   9  13  -1 100.820 16.7917   3
  -9 -13   1 102.842 18.7624   4
 -13  -9  -1 113.653 14.2792   4
 -13  -9  -1 104.398 20.8174   2
 -13  22   1 101.818 19.9675   2
  -9 -13   1 112.173 17.2103   5
  22 -13  -1 126.120 16.4354   3
 -13  -9  -1 82.6723 17.0180   5
  22 -13  -1 90.8992 18.8125   4
  -9  22  -1 103.279 17.8569   3
  -9  22  -1 121.217 23.2879   2
 -13  22   1 105.530 15.4138   3
  22  -9   1 123.135 18.4156   4
  -9  22  -1 96.1776 16.6168   5
 -22  12  -1 223.563 25.6816   5
  10  12   1 265.716 25.3288   3
  10 -22  -1 212.772 27.1101   4
  12 -22   1 253.549 21.0206   2
  10 -22  -1 264.915 22.3284   2
 -22  10   1 305.723 20.1594   2
  12  10  -1 231.406 23.6150   3
 -22  10   1 280.760 29.4026   2
 -10 -12  -1 304.037 24.5269   5
 -10  22   1 255.102 22.0631   3
 -10  22   1 236.383 28.0557   2
 -12  22  -1 254.045 21.8732   5
 -10 -12  -1 286.589 22.8188   4
 -12 -10   1 227.871 25.0927   5
 -12  22  -1 241.973 29.7907   2
 -10 -12  -1 274.117 25.9021   2
 -12  22  -1 265.193 24.7910   3
  22 -12   1 288.474 28.3143   4
  22 -10  -1 277.892 28.2547   4
  22 -10  -1 245.515 21.0494   3
   7 -22  -1 144.204 21.7400   4
 -22  15  -1 129.354 23.1182   5
   7  15   1 150.650 22.8696   3
  15 -22   1 170.587 16.6502   2
 -22   7   1 160.319 27.4019   2
 -22   7   1 159.212 25.3260   5
  15 -22   1 176.126 29.5896   4
  15   7  -1 142.055 24.5193   3
  -7 -15  -1 129.508 20.5340   4
 -15  22  -1 151.004 24.8061   2
 -15  22  -1 141.250 20.1101   5
 -15  22  -1 145.440 20.0911   3
  22  -7  -1 143.514 26.0674   2
  22  -7  -1 137.454 19.1736   4
  22  -7  -1 136.297 16.8307   3
 -15  -7   1 178.995 24.3166   5
   4  18   1 55.7621 16.5208   3
  18 -22   1 72.7590 20.5923   4
  18   4  -1 45.4349 15.9480   3
 -22   4   1 42.5331 17.0284   5
 -22  18  -1 54.4552 16.3154   5
   4 -22  -1 24.6324 15.1239   4
 -22   4   1 46.8250 19.7535   2
  -4 -18  -1 44.1499 15.1279   4
  22  -4  -1 48.0501 14.5197   3
  22  -4  -1 53.2243 19.7242   2
 -18  -4   1 79.7796 19.9149   5
  -4  22   1 43.8328 15.1190   3
 -18  22  -1 44.9723 15.8049   5
  22 -18   1 79.2510 20.1264   4
   1 -22  -1 77.1712 19.7399   4
   1  21   1 79.3386 18.0456   3
  21   1  -1 37.8726 14.7911   3
 -22  21  -1 56.1260 17.2633   5
 -22   1   1 55.4512 17.9203   5
  21 -22   1 65.0963 19.4230   4
  22  -1  -1 69.3930 16.1232   3
  22 -21   1 52.8875 18.6106   4
 -21  -1   1 65.2646 20.0622   5
 -21  22  -1 87.0496 19.0667   5
  -1  22   1 53.8856 18.0407   3
  -1 -21  -1 52.7570 17.0005   4
   2  21  -1 72.8949 18.4443   3
  21 -23  -1 97.8433 22.8908   4
  21   2   1 90.7132 14.2427   4
 -23  21   1 85.5709 20.0963   5
  21   2   1 60.0972 22.9636   2
 -23   2  -1 100.508 21.2761   5
   2 -23   1 97.3029 21.1611   4
  21   2   1 62.1553 16.6007   3
 -21  23   1 95.9999 19.1113   5
 -21  -2  -1 107.152 25.3195   2
  23 -21  -1 113.072 22.6406   4
  -2 -21   1 112.584 19.7198   4
  -2  23  -1 63.9065 17.4492   3
  23  -2   1 83.8518 16.0364   4
  -2 -21   1 74.6312 16.1966   5
 -21  23   1 107.879 14.8227   3
 -21  -2  -1 86.3495 19.5980   5
   5 -23   1 83.5093 19.9653   4
 -23  18   1 67.8365 19.7442   5
 -23   5  -1 48.8411 18.8385   5
  18 -23  -1 63.2004 20.3858   4
  18   5   1 96.9210 17.2512   3
 -23  18   1 28.8120 31.6264   2
   5  18  -1 45.2248 14.6472   3
  -5 -18   1 68.2813 16.0311   4
 -18  -5  -1 43.8338 21.6079   5
 -18  -5  -1 70.7675 18.8147   2
 -18  23   1 86.2393 17.7680   5
  -5 -18   1 100.704 16.4127   5
 -18  23   1 105.342 14.8158   3
  -5  23  -1 40.9404 16.3374   3
  23  -5   1 94.5795 16.3859   4
  23 -18  -1 64.5120 20.7232   4
 -18  -5  -1 43.9510 10.4278   4
  15 -23  -1 134.992 17.0591   2
 -23  15   1 133.187 24.6121   5
   8 -23   1 98.6367 19.3390   4
   8 -23   1 106.012 18.9154   2
  15   8   1 128.060 19.9245   3
  15 -23  -1 143.251 22.4134   4
 -23  15   1 121.664 17.5687   2
 -23  15   1 150.742 27.0391   2
   8  15  -1 95.2901 17.0958   3
 -23   8  -1 116.965 21.3326   5
  23 -15  -1 108.810 16.7781   3
 -15  -8  -1 195.687 37.1573   2
 -15  -8  -1 106.528 16.8203   4
 -15  23   1 127.733 19.3048   3
 -15  -8  -1 165.580 23.9370   5
  -8  23  -1 162.652 23.7219   3
  -8  23  -1 171.086 28.9870   2
 -15  23   1 116.391 24.5229   2
  23  -8   1 144.309 19.1331   4
  23 -15  -1 109.261 21.4478   4
  -8 -15   1 154.101 19.4497   4
  -8 -15   1 156.289 21.3854   5
  -8  23  -1 148.700 18.1080   5
 -23  12   1 275.195 27.6265   5
 -23  12   1 289.611 21.8980   2
  12 -23  -1 315.228 23.9496   2
  12 -23  -1 324.935 30.6106   4
 -23  12   1 301.528 31.1983   2
  12  11   1 287.418 26.1155   3
  11  12  -1 310.728 27.0664   3
 -23  11  -1 300.878 27.5880   5
  11 -23   1 289.428 23.7363   2
  11 -23   1 291.820 31.0290   4
 -12  23   1 310.780 23.5669   3
 -11  23  -1 337.001 26.4501   3
  23 -11   1 345.899 28.7106   4
 -11  23  -1 325.444 32.9008   2
 -11  23  -1 339.277 24.0766   5
 -11 -12   1 310.943 27.8853   5
  23 -12  -1 338.526 23.0204   3
 -12  23   1 290.294 29.7179   2
 -12 -11  -1 348.206 23.6899   4
 -12 -11  -1 353.212 27.7690   5
  23 -12  -1 329.140 30.7386   4
   9  14   1 87.9516 17.5538   3
  14   9  -1 89.8810 17.3851   3
  14 -23   1 84.3493 19.3233   4
 -23   9   1 57.7385 17.7606   5
 -23   9   1 129.628 27.5071   2
 -23  14  -1 53.0965 16.5997   5
  14 -23   1 82.4425 15.5883   2
   9 -23  -1 54.4041 18.6532   4
  23  -9  -1 73.1661 14.2815   3
  -9 -14  -1 96.4406 14.7996   4
  23  -9  -1 100.015 18.3217   4
  -9  23   1 78.0143 17.5101   3
 -14  23  -1 86.9640 20.5128   2
 -14  23  -1 75.4164 15.7727   5
  -9 -14  -1 119.471 20.1681   5
 -14  -9   1 61.7984 17.5076   5
  23 -14   1 92.2059 20.2296   4
 -14  23  -1 76.3117 15.8676   3
 -23  17  -1 5.44880 15.3592   5
   6 -23  -1 11.0989 15.9664   4
 -23   6   1 8.32858 17.3829   2
  17 -23   1 13.7046 19.4992   4
  17   6  -1 10.7356 15.3348   3
   6  17   1 22.7753 15.5414   3
 -23   6   1 -14.123 15.8528   5
  23  -6  -1 20.7714 13.4319   3
  23 -17   1 14.2309 16.9445   4
 -17  23  -1 1.89905 14.1980   5
  -6  23   1 5.60734 14.6733   3
  -6 -17  -1 5.60548 13.1353   4
  23  -6  -1 1.09198 17.2961   2
 -17  -6   1 2.22392 17.3161   5
   3 -23  -1 159.439 27.0405   4
  20 -23   1 174.947 29.5804   4
   3  20   1 180.742 26.2049   3
 -23  20  -1 167.291 23.9583   5
 -23   3   1 173.171 27.1032   5
  20   3  -1 187.895 23.0930   3
  -3  23   1 150.959 22.6560   3
  23 -20   1 182.555 24.9342   4
 -20  23  -1 167.000 24.4382   5
  23  -3  -1 159.926 28.8120   3
 -20  -3   1 175.441 27.5517   5
  -3 -20  -1 190.806 26.5423   4
 -23   0   1 220.160 29.1206   5
  23 -23   1 245.556 33.2705   4
   0  23   1 242.161 27.5307   3
  23   0  -1 309.594 27.2407   3
 -23  23  -1 286.375 29.0046   5
   0 -23  -1 323.437 31.3389   4
  23   1   1 18.6808 25.1465   4
  23   1   1 9.71035 16.0448   3
 -24  23   1 31.8075 17.6181   5
   1  23  -1 10.4162 16.1321   3
   1 -24   1 23.0157 18.2354   4
  23 -24  -1 -14.797 20.7178   4
 -24   1  -1 28.8452 18.0729   5
  -1  24  -1 11.4774 16.8803   3
  -1 -23   1 -5.9165 18.9041   4
  24 -23  -1 -9.6513 21.6133   4
 -23  24   1 9.68193 18.8330   5
  24  -1   1 15.3292 15.0145   4
 -23  -1  -1 -3.6288 17.3258   5
  20 -24  -1 12.7451 17.4404   4
 -24  20   1 47.7662 18.9921   5
 -24   4  -1 45.6502 20.0303   5
  20   4   1 57.6030 16.6165   3
   4 -24   1 50.3973 18.6467   4
   4  20  -1 14.9200 14.7086   3
  -4  24  -1 36.2037 17.3065   3
 -20  -4  -1 48.8012 19.0972   5
  24 -20  -1 26.6180 20.5010   4
 -20  24   1 13.2564 13.3144   3
  -4 -20   1 19.1016 13.9410   5
 -20  24   1 29.2003 17.6245   5
  -4 -20   1 26.3025 16.4811   4
  24  -4   1 77.6665 24.3229   4
   7  17  -1 314.162 26.2572   3
   7 -24   1 323.848 31.8708   4
  17   7   1 333.380 28.0634   3
 -24  17   1 316.693 28.4693   5
 -24   7  -1 317.696 29.4189   5
  17 -24  -1 260.020 22.7133   2
  17 -24  -1 286.776 32.2004   4
  24  -7   1 356.698 28.8195   4
  -7  24  -1 335.819 22.9063   5
  -7 -17   1 323.483 26.5242   5
 -17  -7  -1 282.118 22.1021   4
 -17  -7  -1 352.661 41.6638   5
  24 -17  -1 304.321 35.3715   4
 -17  24   1 331.211 31.0960   2
  -7 -17   1 368.931 28.0843   4
  -7  24  -1 301.444 27.5488   3
 -17  24   1 334.998 24.9947   3
  10 -24   1 351.764 27.7365   2
  14  10   1 369.112 28.1764   3
 -24  14   1 358.650 34.6370   2
  14 -24  -1 331.815 25.1916   2
  10  14  -1 349.497 28.0748   3
 -24  14   1 403.819 29.1302   2
 -24  14   1 370.265 31.6286   5
 -24  10  -1 369.738 29.0357   5
  14 -24  -1 359.702 32.4569   4
  10 -24   1 379.702 33.9179   4
 -14 -10  -1 397.869 25.9332   4
 -14  24   1 399.184 26.2846   3
 -10  24  -1 354.679 38.1426   2
 -10  24  -1 382.696 25.5515   5
 -10 -14   1 390.161 30.2300   5
 -10  24  -1 403.807 30.4325   3
 -14 -10  -1 406.599 31.5190   5
  24 -14  -1 403.733 33.6774   4
  13  11  -1 165.021 24.1814   3
  11  13   1 170.934 23.5443   3
 -24  11   1 189.233 29.3544   2
  13 -24   1 139.691 18.6269   2
  13 -24   1 147.141 22.5125   4
 -24  11   1 171.615 18.1419   2
 -24  11   1 144.090 25.2793   5
 -24  13  -1 147.055 24.2749   5
  11 -24  -1 177.036 26.1806   4
 -11  24   1 135.230 21.6107   3
 -13  24  -1 200.748 31.2736   2
  24 -11  -1 174.617 19.9451   3
  24 -11  -1 206.250 32.4391   4
 -13  24  -1 169.273 24.2293   3
 -11 -13  -1 167.047 23.2160   5
 -13  24  -1 175.740 20.3686   5
 -11 -13  -1 167.537 20.7151   4
  24 -13   1 140.076 20.6143   4
 -24  16  -1 22.2882 16.4841   5
 -24   8   1 27.3229 18.6537   5
  16   8  -1 19.4265 15.8947   3
   8 -24  -1 24.4769 18.1019   4
   8  16   1 2.66317 14.0694   3
  16 -24   1 32.3163 18.3598   4
 -24   8   1 18.0379 18.7034   2
  24  -8  -1 -2.4964 18.8139   2
  24 -16   1 31.7991 17.8920   4
 -16  24  -1 38.6369 15.6346   5
 -16  -8   1 9.25568 15.8566   5
  24  -8  -1 31.8983 14.2338   3
  -8  24   1 -1.6885 15.0129   3
  -8 -16  -1 31.0010 14.0233   4
   5 -24  -1 54.6929 18.5273   4
   5  19   1 47.0994 17.5059   3
 -24   5   1 13.5268 18.3401   5
  19   5  -1 42.8978 15.4105   3
  19 -24   1 33.4008 20.0665   4
 -24   5   1 36.2653 21.1522   2
 -24  19  -1 35.3062 15.4658   5
 -19  24  -1 61.5244 25.2350   5
  -5  24   1 49.4614 15.0399   3
  24  -5  -1 63.0773 15.2315   3
  24 -19   1 60.7864 19.2116   4
 -19  -5   1 77.5840 20.4068   5
  -5 -19  -1 52.7251 15.8359   4
  22 -24   1 237.290 33.8277   4
 -24   2   1 241.758 30.0468   5
  22   2  -1 275.113 27.6304   3
   2 -24  -1 271.524 31.7187   4
 -24  22  -1 259.537 26.7987   5
   2  22   1 233.832 28.3000   3
 -22  24  -1 282.747 28.0629   5
  24 -22   1 241.093 33.1695   4
  -2 -22  -1 279.623 30.4390   4
  -2  24   1 235.731 29.0592   3
  24  -2  -1 293.938 25.9005   3
 -22  -2   1 218.291 28.4615   5
 -25  25   1 43.4418 21.0055   5
  25 -25  -1 31.1451 20.7728   4
 -25   0  -1 35.7405 21.5116   5
   0 -25   1 36.2501 22.1933   4
   0  25  -1 14.0227 18.6968   3
 -25   3  -1 51.0427 20.4641   5
  22   3   1 33.7822 17.1275   3
   3  22  -1 12.5795 15.0454   3
 -25  22   1 48.8846 19.4632   5
   3 -25   1 78.1965 21.5579   4
  22 -25  -1 23.6514 19.0831   4
 -22  -3  -1 38.1003 18.8282   5
  25 -22  -1 38.8981 23.6777   4
 -22  25   1 41.4437 31.1095   5
  -3  25  -1 39.2022 18.2719   3
  25  -3   1 8.83527 15.6513   4
  19   6   1 31.2114 16.7338   3
 -25   6  -1 12.8507 16.3886   5
 -25  19   1 15.1445 16.3436   5
  19 -25  -1 -1.3186 18.5706   4
   6  19  -1 22.0289 16.0724   3
   6 -25   1 29.6267 19.2511   4
  25  -6   1 16.9313 16.8386   4
 -19  25   1 15.4934 16.4004   3
 -19  -6  -1 42.9124 18.8387   5
  -6  25  -1 8.33135 16.5327   3
 -19  -6  -1 37.0782 10.8934   4
  -6 -19   1 40.0411 16.0020   5
  25 -19  -1 34.5809 20.8635   4
   9  16  -1 31.9233 14.6622   3
   9 -25   1 22.2083 17.9407   4
  16 -25  -1 26.2064 18.8362   4
  16   9   1 11.6455 15.1570   3
 -25  16   1 30.8678 17.3958   5
 -25   9  -1 17.5027 15.9984   5
  -9 -16   1 36.0904 15.6246   5
 -16  25   1 14.5581 13.6886   3
  25 -16  -1 47.7229 21.1887   4
 -16  -9  -1 21.4300 11.7122   4
  -9  25  -1 20.7175 14.8145   5
  25  -9   1 -2.0561 16.4708   4
  -9  25  -1 33.8007 17.1136   3
 -16  -9  -1 21.7874 16.9756   5
 -25  12  -1 39.9483 16.0411   5
  13  12   1 35.5417 16.3556   3
  12 -25   1 63.4807 20.2019   4
  12  13  -1 51.2085 17.3978   3
 -25  13   1 18.2888 17.7960   5
  13 -25  -1 24.2669 15.8671   4
 -12  25  -1 57.0486 16.3855   5
 -12 -13   1 34.9538 17.8093   5
 -13 -12  -1 58.8188 13.9632   4
  25 -12   1 40.2996 19.8857   4
 -12  25  -1 56.1096 17.9582   3
 -13 -12  -1 69.1813 18.2849   5
 -12  25  -1 77.0255 25.0428   2
  25 -13  -1 45.6248 20.8593   4
 -13  25   1 47.4098 15.9541   3
 -25  15  -1 77.2266 18.3871   5
  15  10  -1 85.5319 16.9753   3
  15 -25   1 74.3123 19.9771   4
 -25  10   1 50.7325 17.5233   5
  10 -25  -1 58.4373 18.3797   4
  10  15   1 86.7896 18.1614   3
  25 -15   1 98.6558 21.8046   4
  25 -10  -1 101.217 16.5344   3
 -15 -10   1 105.718 20.4768   5
 -10 -15  -1 78.4055 15.2734   4
 -15  25  -1 107.694 18.5044   3
 -15  25  -1 87.6470 17.2467   5
 -10  25   1 90.5395 18.2198   3
  25 -10  -1 115.860 21.9950   4
   7 -25  -1 77.9229 19.4519   4
 -25  18  -1 46.3840 16.8465   5
  18   7  -1 79.6200 18.2425   3
  18 -25   1 91.6295 22.3225   4
 -25   7   1 90.2876 21.0011   5
   7  18   1 79.2396 17.8561   3
 -18  25  -1 68.4183 33.2208   5
  -7 -18  -1 64.2682 15.7671   4
  -7  25   1 67.2693 17.7315   3
  25 -18   1 37.2317 18.7189   4
  25  -7  -1 75.0839 16.2282   3
 -18  -7   1 42.1413 18.6899   5
  25  -7  -1 59.7814 39.5335   2
   4 -25  -1 307.164 32.5184   4
  21   4  -1 280.668 27.5738   3
  21 -25   1 245.837 34.8532   4
 -25  21  -1 266.228 27.9221   5
   4  21   1 271.168 25.6314   3
 -25   4   1 239.207 29.2550   5
 -21  -4   1 246.420 30.2293   5
  -4 -21  -1 312.845 30.3723   4
 -21  25  -1 301.022 28.1003   5
  25  -4  -1 275.146 27.1026   3
  25 -21   1 249.397 31.5472   4
  -4  25   1 258.428 29.2584   3
  24 -25   1 62.1422 22.3593   4
  24   1  -1 48.1218 18.7118   3
 -25   1   1 38.9306 20.7545   5
   1 -25  -1 63.0718 21.0955   4
 -25  24  -1 77.1945 20.1398   5
   1  24   1 52.0599 18.1162   3
  25 -24   1 22.4246 20.0317   4
 -24  -1   1 78.8337 22.1047   5
  25  -1  -1 60.0386 17.6764   3
  -1 -24  -1 47.8763 19.4222   4
  -1  25   1 38.9115 18.6644   3
 -24  25  -1 50.6163 19.1728   5
  24 -26  -1 33.2056 20.3845   4
 -26  24   1 44.2223 19.8270   5
   2 -26   1 82.4588 23.1373   4
 -26   2  -1 39.7328 19.5047   5
  24   2   1 90.3311 19.9301   3
   2  24  -1 58.2272 18.7391   3
  -2 -24   1 37.9851 21.0844   4
  26  -2   1 28.1449 19.2974   4
 -24  -2  -1 29.8418 19.8582   5
  26 -24  -1 36.9340 22.3796   4
  -2  26  -1 20.0056 18.4911   3
 -26  21   1 19.5712 17.4177   5
 -26   5  -1 34.9970 18.3472   5
   5 -26   1 38.7215 21.3423   4
   5  21  -1 29.2135 16.8512   3
  21   5   1 43.2141 18.5113   3
  21 -26  -1 56.4452 21.3958   4
  -5  26  -1 43.9424 18.9232   3
 -21  26   1 61.4181 17.4080   3
 -21  -5  -1 41.0020 19.5466   5
  26  -5   1 20.4192 17.8506   4
  26 -21  -1 55.0019 22.7188   4
   8 -26   1 41.4155 18.5365   4
  18   8   1 98.6491 18.9170   3
   8  18  -1 57.7984 16.1974   3
 -26   8  -1 54.6088 19.2315   5
 -26  18   1 93.5008 20.1178   5
  18 -26  -1 49.4129 20.0052   4
  -8  26  -1 68.7664 18.7658   3
 -18  26   1 78.6732 15.6192   3
 -18  -8  -1 87.1998 21.0768   5
 -18  -8  -1 53.3746 12.1757   4
  26 -18  -1 64.2380 23.0162   4
  26  -8   1 94.4488 20.1144   4
  11  15  -1 177.175 23.1765   3
 -26  11  -1 188.211 25.6469   5
  15  11   1 209.282 25.0030   3
  11 -26   1 121.191 21.3322   4
 -26  15   1 146.237 26.1121   5
  15 -26  -1 187.823 28.9185   4
 -15  26   1 187.334 23.8563   3
 -11  26  -1 216.606 27.1898   3
 -15 -11  -1 200.292 27.4530   5
  26 -15  -1 220.459 28.6818   4
  26 -11   1 157.291 23.8346   4
 -11 -15   1 143.442 22.6014   5
 -15 -11  -1 187.218 20.1403   4
  14  12  -1 261.164 27.1214   3
 -26  14  -1 250.278 28.1264   5
 -26  12   1 254.304 29.4628   5
  12 -26  -1 280.248 31.1473   4
  12  14   1 245.903 28.0110   3
  14 -26   1 228.389 30.5170   4
  26 -12  -1 313.658 35.8716   4
 -14  26  -1 318.622 25.8859   5
 -12  26   1 227.006 25.6629   3
 -14  26  -1 313.303 29.0406   3
  26 -14   1 261.866 31.3084   4
 -14 -12   1 268.260 28.6020   5
   9  17   1 72.0033 16.5572   3
  17 -26   1 79.5804 21.7559   4
 -26  17  -1 98.8624 20.2948   5
 -26   9   1 99.5204 21.2936   5
  17   9  -1 88.1514 19.5267   3
   9 -26  -1 99.7739 21.3103   4
  26  -9  -1 89.2036 18.2630   3
 -17  26  -1 128.766 21.1959   5
  26 -17   1 105.462 22.3958   4
 -17  -9   1 85.8415 21.8022   5
  -9  26   1 76.5059 17.8231   3
  -9 -17  -1 62.7892 15.5117   4
  20 -26   1 91.0305 23.7015   4
   6  20   1 61.8264 16.8464   3
 -26   6   1 91.7498 21.0088   5
 -26  20  -1 67.5796 17.4803   5
   6 -26  -1 67.3948 19.4513   4
  20   6  -1 88.6243 19.0823   3
 -20  -6   1 69.1081 21.9442   5
  26  -6  -1 85.9015 18.4883   3
 -20  26  -1 111.663 20.2484   5
  -6  26   1 48.4366 17.8071   3
  -6 -20  -1 62.8753 17.0687   4
  26 -20   1 56.3638 20.5056   4
  23 -26   1 200.911 32.3017   4
   3 -26  -1 198.165 31.6524   4
   3  23   1 165.831 25.2921   3
  23   3  -1 227.790 27.0869   3
 -26   3   1 103.187 21.2856   5
 -26  23  -1 176.821 25.9060   5
  26 -23   1 113.533 24.9782   4
  -3  26   1 117.141 21.2229   3
 -23  26  -1 119.803 21.8027   5
 -23  -3   1 146.535 24.5846   5
  26  -3  -1 168.491 25.0683   3
  -3 -23  -1 193.540 29.7285   4
   0  26   1 165.839 27.3708   3
 -26  26  -1 171.663 29.4710   5
   0 -26  -1 231.212 33.8457   4
  26 -26   1 229.727 35.4213   4
 -26   0   1 209.587 30.1402   5
  26   0  -1 213.242 28.8476   3
   1  26  -1 5.36164 16.7166   3
 -27  26   1 38.8027 22.7189   5
 -27   1  -1 3.00587 18.3092   5
  26 -27  -1 -3.2497 22.0977   4
   1 -27   1 32.0190 23.7969   4
  27 -26  -1 15.1296 21.6371   4
  -1  27  -1 10.8358 19.9727   3
 -26  -1  -1 26.2035 21.3272   5
  -1 -26   1 25.0775 22.9183   4
 -27   4  -1 16.4516 17.6221   5
  23   4   1 31.5329 19.2094   3
   4 -27   1 -3.8967 21.5021   4
 -27  23   1 26.5555 19.2296   5
   4  23  -1 32.8384 18.1584   3
  23 -27  -1 8.99415 20.9165   4
  27  -4   1 -9.3204 18.4782   4
  -4  27  -1 38.8852 20.0941   3
 -23  -4  -1 7.86308 18.2237   5
  27 -23  -1 -4.0795 24.1680   4
  20   7   1 43.0897 17.6594   3
  20 -27  -1 22.6759 17.7384   4
   7  20  -1 32.8067 16.7807   3
 -27   7  -1 10.7172 16.3348   5
   7 -27   1 14.0553 20.7314   4
 -27  20   1 30.8892 17.6350   5
  27  -7   1 25.8276 19.4788   4
 -20  27   1 48.5401 16.5157   3
 -20  -7  -1 38.1167 12.6844   4
  -7  27  -1 39.5105 19.7657   3
  -7 -20   1 28.5793 18.2753   5
  27 -20  -1 24.6974 23.3527   4
 -20  -7  -1 32.1779 19.3584   5
 -27  17   1 71.0588 19.1817   5
 -27  10  -1 60.3242 17.5400   5
  10  17  -1 79.2934 17.7624   3
  17 -27  -1 63.8032 20.7533   4
  17  10   1 124.622 20.9589   3
  10 -27   1 99.2436 23.1566   4
  27 -17  -1 133.054 25.5513   4
 -17 -10  -1 73.6228 20.1776   5
 -17 -10  -1 98.5427 15.8994   4
  27 -10   1 73.4965 20.7595   4
 -10 -17   1 56.5273 19.4464   5
 -10  27  -1 80.6617 19.7596   3
 -17  27   1 83.7224 17.9042   3
 -27  14   1 112.970 22.4297   5
  13  14  -1 38.1264 17.4269   3
  13 -27   1 54.9094 20.0695   4
  14  13   1 98.4623 19.2352   3
  14 -27  -1 53.2952 17.5749   4
 -27  13  -1 79.0206 19.0890   5
  27 -13   1 82.3957 22.1037   4
 -14 -13  -1 84.8118 16.0192   4
 -14  27   1 73.4925 17.8918   3
  27 -14  -1 117.709 26.0637   4
 -13  27  -1 98.3576 20.7457   3
 -13 -14   1 74.0444 19.8222   5
 -14 -13  -1 112.870 21.2647   5
  16 -27   1 42.9708 19.2217   4
  11 -27  -1 34.2126 18.5081   4
 -27  11   1 26.7639 17.5250   5
 -27  16  -1 55.7705 19.3261   5
  11  16   1 49.8329 18.5381   3
  16  11  -1 62.1803 18.9001   3
 -11 -16  -1 67.5341 16.6932   4
 -16 -11   1 45.5523 20.6754   5
  27 -16   1 46.6626 20.4664   4
 -11  27   1 24.7762 16.8479   3
 -16  27  -1 66.8488 17.7798   5
 -27  19  -1 12.4549 15.4065   5
   8  19   1 7.38497 15.6120   3
   8 -27  -1 1.36901 17.6454   4
  19   8  -1 13.5717 17.3140   3
 -27   8   1 19.2849 19.2099   5
  19 -27   1 34.5599 20.2129   4
 -19  -8   1 24.3954 20.1282   5
  27 -19   1 19.5327 20.7662   4
  -8  27   1 15.0033 16.9796   3
  27  -8  -1 2.01798 16.8377   3
 -19  27  -1 18.2795 18.1569   5
  -8 -19  -1 23.7471 15.7553   4
 -27  22  -1 108.941 20.9991   5
  22 -27   1 93.7201 22.8122   4
 -27   5   1 86.5871 20.9972   5
   5 -27  -1 129.035 23.0615   4
   5  22   1 89.9527 18.8007   3
  22   5  -1 100.377 20.1731   3
  27 -22   1 85.0057 23.5469   4
  27  -5  -1 114.133 20.4650   3
  -5 -22  -1 112.109 21.2276   4
 -22  27  -1 112.559 21.6893   5
  -5  27   1 117.030 22.3723   3
 -22  -5   1 73.5320 20.5041   5
 -27   2   1 84.4627 20.3036   5
   2 -27  -1 97.7136 22.5656   4
  25   2  -1 158.295 26.3397   3
  25 -27   1 79.4784 23.6099   4
 -27  25  -1 87.7534 20.5369   5
   2  25   1 100.625 19.8591   3
 -25  27  -1 122.637 23.3266   5
  -2 -25  -1 99.6470 22.1713   4
  27 -25   1 82.5251 24.0429   4
 -25  -2   1 56.0735 20.4899   5
  -2  27   1 91.9914 21.4293   3
  27  -2  -1 64.3030 19.7080   3
   0 -28   1 77.8948 31.0779   4
 -28   0  -1 23.1734 19.5804   5
   0  28  -1 42.2090 19.6918   3
  28 -28  -1 75.1396 26.3133   4
   3  25  -1 10.6005 17.6917   3
   3 -28   1 -8.1392 21.8432   4
  25   3   1 50.6879 20.3942   3
 -28   3  -1 43.6264 21.1743   5
  25 -28  -1 53.8456 23.2271   4
 -28  25   1 53.8766 22.2645   5
 -25  -3  -1 42.8266 22.6562   5
  28 -25  -1 48.0015 24.0653   4
  -3  28  -1 47.3326 21.1892   3
   6 -28   1 -6.2654 21.5857   4
  22   6   1 14.9798 19.9320   3
   6  22  -1 22.0837 17.5214   3
  22 -28  -1 3.72787 19.3034   4
 -28  22   1 17.9812 19.1814   5
 -28   6  -1 -6.7396 16.9579   5
 -22  -6  -1 33.2727 19.5487   5
  28  -6   1 6.72977 21.1767   4
  -6  28  -1 35.1885 20.3687   3
  28 -22  -1 1.67203 21.2831   4
 -28   9  -1 18.5353 19.3753   5
 -28  19   1 15.3620 18.5459   5
   9  19  -1 14.4443 17.1528   3
   9 -28   1 20.7243 19.4924   4
  19   9   1 8.63516 18.3275   3
  19 -28  -1 20.7146 18.8297   4
  -9  28  -1 44.3978 21.3154   3
 -19  28   1 10.5519 17.3715   3
  -9 -19   1 13.5231 19.4561   5
 -19  -9  -1 32.5946 19.9392   5
  28 -19  -1 4.48502 22.4151   4
  28  -9   1 -2.0920 20.1052   4
  12  16  -1 25.2983 15.8436   3
 -28  16   1 4.68631 18.0379   5
  16  12   1 9.63427 16.8040   3
  16 -28  -1 -9.3432 16.9391   4
 -28  12  -1 20.5016 17.3962   5
  12 -28   1 33.0430 21.3734   4
  28 -16  -1 17.9854 23.5167   4
 -16  28   1 33.6850 18.0060   3
 -16 -12  -1 31.9787 19.4996   5
 -16 -12  -1 -14.822 12.9945   4
 -12  28  -1 2.29976 18.1535   3
  28 -12   1 -5.8716 19.7274   4
 -12 -16   1 -7.7385 17.3126   5
  15  13  -1 48.0759 18.4867   3
 -28  15  -1 31.5094 17.5727   5
  13 -28  -1 47.6912 20.5314   4
  15 -28   1 41.7125 19.7343   4
 -28  13   1 33.7895 21.1820   5
  13  15   1 32.7351 16.7920   3
 -15 -13   1 31.3129 18.9700   5
 -13 -15  -1 51.7086 15.0470   4
 -15  28  -1 21.1849 19.2132   3
  28 -15   1 15.7255 20.2427   4
  28 -13  -1 49.5416 25.2341   4
 -13  28   1 33.7674 18.9185   3
 -28  10   1 99.1388 21.7073   5
  18 -28   1 60.0177 22.4602   4
  10  18   1 63.8391 18.0254   3
  18  10  -1 51.0407 17.9221   3
 -28  18  -1 60.6113 17.9164   5
  10 -28  -1 45.6803 18.5846   4
 -18 -10   1 66.5046 21.3447   5
  28 -18   1 40.0594 21.5647   4
 -10 -18  -1 44.7632 17.1948   4
 -10  28   1 65.3766 18.9515   3
 -18  28  -1 81.0340 20.3778   5
  21   7  -1 204.686 26.9529   3
 -28  21  -1 170.375 25.9118   5
  21 -28   1 113.695 24.5230   4
 -28   7   1 182.885 27.7735   5
   7 -28  -1 228.204 31.0610   4
   7  21   1 178.212 24.2070   3
  28 -21   1 218.833 34.2866   4
  -7 -21  -1 232.380 30.3814   4
  -7  28   1 203.409 29.2934   3
 -21  -7   1 186.523 30.3517   5
 -21  28  -1 207.124 28.7588   5
 -28   4   1 49.2707 19.6588   5
  24 -28   1 88.3919 24.3695   4
   4 -28  -1 68.0656 22.6180   4
   4  24   1 47.7599 17.2016   3
  24   4  -1 93.2564 19.8106   3
 -28  24  -1 90.1744 20.8682   5
  28 -24   1 97.0723 24.9424   4
  -4  28   1 58.1643 19.8643   3
  28  -4  -1 82.2850 21.0113   3
  -4 -24  -1 82.4860 21.4550   4
 -24  28  -1 39.3194 20.5490   5
 -24  -4   1 92.2988 24.1289   5
 -28   1   1 30.4630 19.8317   5
  27   1  -1 41.1146 20.1115   3
  27 -28   1 30.5246 22.9629   4
   1 -28  -1 43.0921 21.1105   4
   1  27   1 20.6727 17.9483   3
 -28  27  -1 49.5368 21.3937   5
  -1  28   1 33.8670 17.8658   3
  -1 -27  -1 34.1135 21.2952   4
  28 -27   1 21.5371 24.1531   4
 -27  28  -1 35.9120 20.3156   5
 -27  -1   1 38.1434 22.4946   5
  28  -1  -1 52.9999 20.7504   3
   2  27  -1 29.5447 21.4438   3
  27 -29  -1 16.9702 22.9332   4
   2 -29   1 25.4457 25.2389   4
 -29   2  -1 1.58658 20.2168   5
  29 -27  -1 45.4505 23.5977   4
 -27  -2  -1 15.3173 20.6598   5
  -2  29  -1 -21.304 20.1225   3
   5 -29   1 46.8972 23.3487   4
  24 -29  -1 34.6100 20.1757   4
  24   5   1 54.6718 20.2885   3
 -29   5  -1 11.3306 19.8180   5
 -29  24   1 47.4448 21.4263   5
   5  24  -1 6.39825 16.9859   3
 -24  -5  -1 50.7210 23.4269   5
  -5  29  -1 11.9031 20.5817   3
  29  -5   1 11.3696 24.1577   4
  29 -24  -1 9.41680 24.4686   4
 -29   8  -1 22.5196 19.0362   5
   8 -29   1 -0.0956 22.4719   4
 -29  21   1 11.0736 17.8024   5
   8  21  -1 9.44494 16.3454   3
  21   8   1 19.4936 19.3297   3
  21 -29  -1 8.96806 19.4549   4
 -21  29   1 31.0812 19.6854   3
  -8  29  -1 22.2605 20.0930   3
  29  -8   1 6.42903 22.3593   4
 -21  -8  -1 38.0420 21.4293   5
  29 -21  -1 -15.773 22.5716   4
 -29  11  -1 41.3438 17.0850   5
 -29  18   1 52.0170 20.2814   5
  18  11   1 40.0198 18.5251   3
  18 -29  -1 59.7967 21.0955   4
  11 -29   1 44.0598 21.7936   4
  11  18  -1 55.6418 17.5671   3
  29 -18  -1 61.0678 26.4170   4
 -11 -18   1 19.4697 19.4055   5
 -11  29  -1 57.1705 21.7367   3
  29 -11   1 36.9002 23.5199   4
 -18  29   1 75.9062 20.1482   3
 -18 -11  -1 49.7684 21.1045   5
 -29  14  -1 106.948 22.1749   5
 -29  15   1 68.1434 20.1542   5
  14  15  -1 70.7708 18.1693   3
  15  14   1 84.7065 19.6755   3
  14 -29   1 73.4261 21.8931   4
  15 -29  -1 62.4250 19.7613   4
  29 -15  -1 106.758 27.4172   4
 -15 -14  -1 75.7219 16.0665   4
 -14 -15   1 75.6276 22.5040   5
 -15  29   1 89.9754 20.0539   3
  29 -14   1 101.976 23.8469   4
 -14  29  -1 91.0165 21.6911   3
 -29  17  -1 85.9213 19.0470   5
  17  12  -1 160.301 24.3601   3
 -29  12   1 154.167 27.6807   5
  12  17   1 153.092 26.1449   3
  17 -29   1 91.3422 21.6555   4
  12 -29  -1 110.674 20.9590   4
 -12  29   1 112.291 19.7918   3
  29 -17   1 139.681 26.0738   4
 -12 -17  -1 141.009 20.3391   4
 -17 -12   1 181.636 29.2985   5
   9  20   1 46.5727 17.2551   3
   9 -29  -1 82.9840 22.4597   4
 -29  20  -1 84.5188 20.4687   5
  20 -29   1 50.5766 21.0114   4
 -29   9   1 61.3647 20.6024   5
  20   9  -1 39.5010 18.2085   3
  29 -20   1 97.2824 26.2460   4
  -9  29   1 22.0203 19.4841   3
  -9 -20  -1 56.0374 19.2567   4
 -20  -9   1 72.0555 22.1271   5
   6  23   1 24.3430 17.8756   3
  23   6  -1 14.9990 19.1082   3
  23 -29   1 17.1223 20.7099   4
 -29   6   1 18.0693 20.2749   5
   6 -29  -1 7.30373 19.8266   4
 -29  23  -1 21.9035 18.4764   5
 -23  -6   1 37.0220 21.7122   5
  -6 -23  -1 28.4505 19.5219   4
  29 -23   1 12.2406 23.1454   4
 -23  29  -1 4.23674 20.2455   5
  -6  29   1 27.8539 20.4223   3
   3 -29  -1 173.573 27.0740   4
   3  26   1 104.476 20.6754   3
  26 -29   1 136.692 24.8273   4
 -29   3   1 157.131 28.5159   5
  26   3  -1 182.131 25.0054   3
 -29  26  -1 182.680 27.6301   5
  29  -3  -1 180.878 30.6999   3
 -26  -3   1 95.2134 22.3240   5
  -3 -26  -1 180.589 31.1459   4
  -3  29   1 142.964 24.3025   3
  29 -26   1 85.0370 24.7628   4
 -26  29  -1 101.787 24.2890   5
   4 -30   1 42.9110 25.6987   4
 -30   4  -1 26.7989 19.0075   5
  26 -30  -1 47.2346 22.2956   4
 -30  26   1 68.1086 24.2809   5
   4  26  -1 57.5885 20.3360   3
  26   4   1 68.1943 26.2719   3
 -26  -4  -1 57.3726 22.1092   5
  -4  30  -1 101.855 24.9021   3
  30 -26  -1 47.5901 26.6259   4
 -30  23   1 91.6628 23.0709   5
   7 -30   1 97.0938 26.3745   4
   7  23  -1 32.6228 17.5331   3
  23 -30  -1 67.5006 21.6104   4
  23   7   1 75.3574 22.1990   3
 -30   7  -1 57.9655 21.5163   5
  -7  30  -1 85.2572 23.8194   3
  30  -7   1 18.5428 26.5815   4
  30 -23  -1 83.4328 28.8880   4
 -23  -7  -1 73.6626 22.0826   5
  20  10   1 61.6265 20.7350   3
  10 -30   1 46.3765 24.1506   4
  20 -30  -1 8.53321 17.5137   4
 -30  20   1 36.8513 19.9760   5
 -30  10  -1 41.5819 19.8910   5
  10  20  -1 63.3192 19.3332   3
  30 -10   1 -10.799 24.6083   4
  30 -20  -1 23.6457 24.7326   4
 -10  30  -1 68.6874 23.1734   3
 -20 -10  -1 55.3391 21.8614   5
 -20  30   1 43.1599 20.9838   3
  13 -30   1 41.7608 21.2643   4
 -30  13  -1 38.0963 19.1719   5
  17 -30  -1 42.9877 19.9261   4
 -30  17   1 26.9155 18.1058   5
  13  17  -1 23.7831 16.8628   3
  17  13   1 50.4190 20.2825   3
 -17  30   1 59.5882 20.9238   3
 -13 -17   1 29.3118 21.2074   5
  30 -13   1 53.8659 25.2127   4
 -13  30  -1 57.9217 22.9772   3
  30 -17  -1 73.3870 27.3333   4
 -30  16  -1 78.0870 20.7216   5
  14  16   1 88.3782 19.5378   3
  16  14  -1 76.2378 20.0752   3
 -30  14   1 84.6086 21.8321   5
  16 -30   1 82.2033 24.1838   4
  14 -30  -1 52.3200 19.9326   4
  30 -16   1 63.9975 24.0463   4
 -14  30   1 92.9386 21.4028   3
 -14 -16  -1 111.262 28.7742   4
 -16 -14   1 103.903 23.9674   5
  11 -30  -1 29.4674 20.8051   4
 -30  11   1 43.4818 20.3067   5
  11  19   1 28.0518 17.2177   3
 -30  19  -1 42.4472 19.5789   5
  19 -30   1 61.8352 22.7829   4
  19  11  -1 29.9605 18.7448   3
 -11 -19  -1 20.4109 17.2650   4
 -19 -11   1 42.2274 21.3452   5
  30 -19   1 47.3863 24.2504   4
 -11  30   1 57.9455 21.3530   3
 -30   8   1 24.6091 18.0702   5
   8 -30  -1 56.8168 22.6741   4
  22   8  -1 58.1715 19.3900   3
   8  22   1 46.5132 17.9835   3
 -30  22  -1 52.2582 18.1141   5
  22 -30   1 51.5575 21.5747   4
  30 -22   1 42.5677 22.9183   4
  -8 -22  -1 11.3037 19.6996   4
  -8  30   1 57.9335 22.5068   3
 -22  -8   1 54.3785 21.7160   5
 -30   5   1 31.8924 19.3746   5
  25 -30   1 18.9660 23.8637   4
   5 -30  -1 49.9184 22.1746   4
  25   5  -1 39.7045 20.1900   3
   5  25   1 50.7982 18.1709   3
 -30  25  -1 51.0528 20.9036   5
 -25  30  -1 16.4954 28.4838   5
  -5  30   1 26.1572 20.2307   3
 -25  -5   1 22.1579 22.3337   5
  30 -25   1 24.1590 23.2456   4
  -5 -25  -1 51.3882 21.7651   4
  25 -31  -1 40.9223 23.2095   4
   6  25  -1 27.9676 19.3449   3
  25   6   1 52.3926 22.3048   3
 -31  25   1 45.5471 21.9923   5
   6 -31   1 12.6477 24.2876   4
 -31   6  -1 20.9867 19.0384   5
 -25  -6  -1 76.2293 24.9201   5
  -6  31  -1 31.7891 23.6066   3
  31 -25  -1 -5.9843 26.6458   4
   9  22  -1 20.2323 18.8761   3
  22 -31  -1 -7.4730 19.9061   4
  22   9   1 -0.6848 20.7803   3
   9 -31   1 23.3079 24.0755   4
 -31   9  -1 14.7136 20.0231   5
 -31  22   1 40.0415 19.9346   5
  31 -22  -1 -10.469 26.5142   4
  31  -9   1 -46.194 26.2226   4
  -9  31  -1 17.3448 23.0305   3
 -22  -9  -1 44.3495 23.4337   5
 -31  19   1 18.0357 18.1924   5
  12  19  -1 3.61197 17.6668   3
  19 -31  -1 3.73090 18.3960   4
 -31  12  -1 8.19820 17.6589   5
  12 -31   1 10.5544 21.2286   4
  19  12   1 -20.213 19.1535   3
 -19 -12  -1 76.6793 23.8543   5
 -19  31   1 7.17444 21.5337   3
  31 -12   1 8.64725 25.5372   4
  31 -19  -1 -22.551 26.4788   4
 -12  31  -1 45.7179 23.6743   3
 -31  15  -1 22.9646 19.6509   5
  15  16  -1 22.9756 17.2879   3
  16 -31  -1 20.3406 20.1214   4
  15 -31   1 42.3584 23.6873   4
 -31  16   1 31.7970 18.7956   5
  16  15   1 30.1507 18.7000   3
  31 -15   1 -15.790 23.4557   4
 -16  31   1 -4.1465 20.3840   3
 -15 -16   1 25.9772 22.3088   5
  31 -16  -1 -30.546 27.4161   4
  13 -31  -1 42.3702 23.1185   4
 -31  13   1 37.7064 18.9713   5
  18  13  -1 40.9459 19.8161   3
  18 -31   1 24.5060 21.3847   4
  13  18   1 42.9197 19.7810   3
 -31  18  -1 26.8995 18.1453   5
 -13  31   1 40.1184 21.0308   3
  31 -18   1 27.8797 25.1644   4
 -13 -18  -1 17.0223 19.5643   4
 -18 -13   1 30.7478 22.5534   5
  21 -31   1 70.2577 22.2597   4
  21  10  -1 77.9787 21.3071   3
  10  21   1 70.4028 19.3158   3
 -31  21  -1 74.2748 19.3784   5
 -31  10   1 84.6101 21.9665   5
  10 -31  -1 89.4603 21.7745   4
 -21 -10   1 124.360 26.1310   5
 -10 -21  -1 60.3170 21.4706   4
 -10  31   1 60.1404 24.0968   3
  31 -21   1 44.8159 23.4955   4
  24 -31   1 37.4944 23.6211   4
   7 -31  -1 2.94403 22.3705   4
 -31   7   1 34.1367 21.2320   5
   7  24   1 19.6938 19.0530   3
  24   7  -1 25.1334 19.8648   3
 -31  24  -1 37.6040 19.3586   5
 -24  -7   1 54.9368 24.0964   5
  -7  31   1 19.5131 21.9318   3
  -7 -24  -1 51.0457 21.2348   4
  31 -24   1 2.93219 24.4218   4
  21  11   1 41.9127 20.5624   3
  11 -32   1 44.1984 25.9502   4
  21 -32  -1 22.1807 20.4454   4
 -32  21   1 36.5328 20.1533   5
 -32  11  -1 13.8858 18.2413   5
  11  21  -1 21.9272 17.6598   3
 -11  32  -1 80.1959 25.8856   3
  32 -11   1 -6.2454 27.6176   4
  32 -21  -1 57.8938 28.3159   4
 -21 -11  -1 79.2991 25.7524   5
 -32  14  -1 17.6364 18.9264   5
  14  18  -1 18.5105 17.3214   3
  18  14   1 8.40470 18.7224   3
  18 -32  -1 28.1340 20.3928   4
  14 -32   1 39.2987 26.3904   4
 -32  18   1 24.4871 19.8371   5
  32 -18  -1 84.1912 31.8232   4
 -18  32   1 25.0544 21.6778   3
 -14  32  -1 20.6982 24.4445   3
 -14 -18   1 14.6975 22.8576   5
  32 -14   1 10.9141 24.8327   4
 -32  17  -1 45.0435 20.4210   5
  15  17   1 57.9068 19.5059   3
 -32  15   1 41.0857 19.5098   5
  17  15  -1 43.3685 20.2747   3
  15 -32  -1 43.4097 20.4792   4
  17 -32   1 60.4376 24.6433   4
  32 -17   1 29.9437 24.7657   4
 -17 -15   1 41.7109 24.5101   5
 -15  32   1 44.1226 22.8043   3
  20 -32   1 13.6153 22.9694   4
  12  20   1 18.8716 18.3615   3
  12 -32  -1 -23.066 18.8960   4
 -32  12   1 2.28409 19.5675   5
  20  12  -1 44.8009 20.5299   3
 -32  20  -1 39.4599 16.9524   5
  32 -20   1 13.7422 23.5450   4
 -20 -12   1 12.2481 20.8772   5
 -12  32   1 -1.5599 21.5279   3
  -1   0   2 181.505 17.6290   2
   1   0  -2 132.071 11.0935   5
   1  -1   2 163.322 15.0569   2
   1   0  -2 128.774 12.3611   3
   0  -1  -2 136.400 11.3928   3
   0   1   2 184.451 16.6822   2
   1   0  -2 131.084 10.3163   4
  -1   1  -2 142.848 10.8328   4
   1   0  -2 128.426 16.8280   2
   0  -1  -2 117.934 10.9064   5
  -1   1  -2 144.397 10.7699   3
  -1   1  -2 129.376 12.4291   5
   0  -1  -2 122.272 11.4316   4
   0   1   2 159.606 10.9556   2
  -2   0  -2 88.3260 8.60007   3
   0   2  -2 74.2597 10.5226   3
   0   2  -2 79.9373 10.8565   5
   2   0   2 99.5252 8.84929   2
   2  -2  -2 90.5087 10.6440   4
  -2   0  -2 73.3464 10.7180   5
   0  -2   2 90.7857 14.7128   2
   0   2  -2 74.6623 14.9370   2
   0   2  -2 89.0586 8.30303   4
  -2   2   2 126.302 17.6010   2
   2  -2  -2 85.5199 10.2843   3
   2  -2  -2 94.5378 9.21279   5
  -2   2   2 96.8871 10.1174   2
  -2   0  -2 91.3891 10.9534   4
   1  -3  -2 402.526 21.6548   4
  -3   2  -2 404.060 18.6547   3
   2   1  -2 413.314 25.4805   2
   2  -3   2 455.738 22.4070   2
  -3   2  -2 410.195 21.4821   5
   1  -3  -2 380.384 20.7467   2
   1   2   2 387.064 20.4468   2
   2   1  -2 394.101 20.2038   5
  -3   2  -2 381.820 19.9363   4
   1  -3  -2 415.539 20.0776   3
   1  -3  -2 395.144 18.6358   5
  -3   1   2 439.784 26.6776   2
   2   1  -2 413.123 21.0624   3
   2   1  -2 393.906 18.2512   4
  -2  -1   2 444.162 25.8553   2
  -2   3  -2 400.109 19.3394   4
   3  -1  -2 418.592 19.3702   5
   3  -2   2 461.387 22.1103   2
   3  -1  -2 372.362 19.0407   4
  -2   3  -2 412.373 22.3712   2
  -1  -2  -2 419.728 19.6215   3
  -1  -2  -2 406.649 19.6141   5
  -2   3  -2 415.272 19.5049   3
   3  -1  -2 400.588 24.5909   2
  -1  -2  -2 373.985 20.4804   2
   3  -2   2 386.995 18.9374   2
  -1  -2  -2 403.773 21.3856   4
   3  -1  -2 412.772 20.6381   3
  -2   3  -2 396.602 21.2176   5
  -1   3   2 378.194 21.1146   2
  -4   1  -2 231.373 15.4494   5
  -4   1  -2 203.297 12.4485   2
   1  -4   2 235.993 13.0897   4
  -4   1  -2 243.385 12.1192   3
   3  -4  -2 242.482 15.3319   3
  -4   1  -2 229.582 14.7292   4
   1   3  -2 242.611 14.7471   5
   1   3  -2 234.933 20.5789   2
   3   1   2 237.094 14.2863   2
  -4   3   2 213.379 13.5420   5
  -4   3   2 240.285 15.6323   2
   1  -4   2 247.236 18.4340   2
  -4   3   2 296.882 22.0462   2
   1   3  -2 241.950 15.4135   3
   3  -4  -2 223.842 16.4661   4
  -1   4  -2 241.673 14.3139   3
  -1  -3   2 265.072 12.1651   4
  -3  -1  -2 250.003 14.8278   5
   4  -1   2 231.517 13.1883   2
  -3  -1  -2 238.197 15.8471   4
  -1  -3   2 296.980 19.6301   2
   4  -3  -2 228.994 16.0349   3
  -3  -1  -2 209.797 13.5458   2
  -1   4  -2 227.607 18.5479   2
  -1   4  -2 244.488 15.8917   5
   4  -3  -2 224.692 15.2863   4
  -3   4   2 243.654 15.7808   2
  -3  -1  -2 256.608 12.8423   3
   0  -4  -2 2739.50 114.969   5
   4  -4   2 2963.20 116.819   2
  -4   0   2 3128.13 120.438   2
  -4   4  -2 2841.79 114.966   3
  -4   4  -2 2881.15 116.842   5
   0  -4  -2 2877.24 115.646   3
  -4   4  -2 2824.59 116.385   2
   0   4   2 2673.42 117.101   2
   0  -4  -2 2557.76 116.571   2
   4   0  -2 2862.75 119.887   2
   4   0  -2 2884.29 116.689   3
   4   0  -2 2694.98 114.661   4
   0  -4  -2 2854.13 117.077   4
   5   0   2 150.899 12.0265   2
   0   5  -2 178.757 13.7242   5
  -5   5   2 147.723 11.3429   5
   0  -5   2 151.803 18.2074   2
   5   0   2 132.910 9.24898   3
   0   5  -2 176.539 12.7796   3
  -5   0  -2 198.595 11.3417   2
   5  -5  -2 195.898 14.7853   4
  -5   5   2 166.338 13.3147   2
   0  -5   2 139.538 11.1546   4
   0   5  -2 163.541 18.4612   2
  -5   0  -2 168.928 13.4065   5
  -5   5   2 174.855 18.2956   2
   5  -5  -2 176.737 13.4261   3
  -5   0  -2 176.679 14.0943   4
   3  -5   2 346.425 20.8776   2
  -5   3  -2 337.147 20.6463   5
   2  -5  -2 368.095 19.7928   2
  -5   3  -2 339.378 18.7263   4
   2  -5  -2 349.839 21.7819   4
   2  -5  -2 376.513 16.5497   5
   2  -5  -2 353.266 20.4619   3
  -5   3  -2 358.453 16.4639   3
   2   3   2 439.976 20.8489   2
   3  -5   2 382.429 18.8459   4
   3   2  -2 347.633 20.5849   3
   3   2  -2 328.468 25.3672   2
  -5   2   2 398.147 25.3412   2
   3   2  -2 344.865 20.3758   5
  -3  -2   2 403.173 26.2854   2
  -2   5   2 422.797 20.9712   2
  -2  -3  -2 352.652 18.3677   5
  -3   5  -2 345.301 17.9191   3
   5  -2  -2 346.421 24.1813   2
   5  -3   2 411.693 19.4261   2
  -3   5  -2 329.721 20.9964   2
   5  -2  -2 341.994 18.2626   4
  -2  -3  -2 389.726 19.8914   2
   5  -3   2 432.783 17.2229   2
   4   2   2 135.244 12.8803   2
  -6   2  -2 94.0166 12.0168   4
   2  -6   2 112.133 14.8763   2
  -6   4   2 116.772 11.0365   2
  -6   4   2 132.780 11.4908   5
   4  -6  -2 112.343 12.4458   2
   2  -6   2 103.765 10.6269   4
   4  -6  -2 101.020 14.2135   4
  -6   2  -2 106.366 7.70567   2
   4  -6  -2 93.9586 11.7628   3
  -6   2  -2 102.880 13.3792   5
   4   2   2 114.024 9.07189   3
   2   4  -2 95.1057 16.5435   2
   2   4  -2 114.563 11.8571   5
  -6   4   2 126.057 19.3446   2
   6  -4  -2 108.298 12.4819   4
   6  -2   2 124.325 6.68136   3
  -2  -4   2 82.6406 8.10823   4
  -4  -2  -2 73.3115 10.9240   5
   6  -4  -2 92.6040 10.9773   3
  -4   6   2 100.152 8.44997   5
  -2  -4   2 116.085 16.9453   2
  -2   6  -2 88.1965 10.8675   3
  -4  -2  -2 107.680 10.6717   2
  -2   6  -2 94.0005 12.9832   5
  -4   6   2 128.468 12.1859   2
   6  -2   2 110.096 9.08424   2
  -4  -2  -2 86.7345 11.7153   4
  -2   6  -2 99.7687 16.0105   2
   1  -6  -2 1939.91 78.3215   5
  -6   1   2 2027.24 85.4586   2
   5   1  -2 1962.71 81.0947   3
   1  -6  -2 2033.35 80.0663   3
  -6   5  -2 2030.42 81.6851   5
   5   1  -2 1997.72 84.7889   2
  -6   5  -2 1920.66 78.3472   3
  -6   1   2 1878.03 80.7596   5
   1   5   2 1829.90 81.8172   2
   1  -6  -2 1861.76 81.4683   2
   1  -6  -2 2029.45 82.0854   4
   1   5   2 1803.01 80.2075   3
   5  -6   2 1914.73 80.6357   2
   6  -5   2 1942.20 79.6144   2
  -5  -1   2 2011.44 85.1762   2
   6  -1  -2 1947.51 84.5233   2
   6  -5   2 1798.15 78.5628   2
  -1  -5  -2 1933.88 81.7340   4
   6  -1  -2 1883.10 78.7503   4
  -1  -5  -2 1919.82 78.9109   5
   6  -5   2 1937.91 80.3276   4
  -1   6   2 1885.30 82.1308   2
  -5   6  -2 1947.85 81.2776   5
   6  -1  -2 1925.79 80.9340   3
  -1  -5  -2 1871.93 81.5114   2
  -5   6  -2 1937.66 80.5484   2
  -5   6  -2 1972.68 79.0080   3
  -5  -1   2 1896.80 80.6206   5
   6   1   2 393.991 17.5115   3
   1  -7   2 382.986 19.3551   4
  -7   6   2 399.330 19.0214   5
  -7   6   2 396.005 20.1285   2
   1   6  -2 315.138 19.7457   5
  -7   1  -2 364.693 17.4586   2
  -7   1  -2 325.470 20.7383   5
  -7   1  -2 306.299 19.5481   4
   6   1   2 395.687 20.5711   2
   1   6  -2 311.888 23.9225   2
   1   6  -2 296.517 19.9807   3
   1  -7   2 360.385 23.9104   2
  -7   6   2 360.490 25.7283   2
   6  -7  -2 308.681 19.2935   3
  -1   7  -2 302.147 19.2314   3
  -1   7  -2 305.611 23.6157   2
  -6  -1  -2 318.683 19.8621   5
  -1  -6   2 364.141 17.8743   4
  -1   7  -2 294.920 19.1227   5
   7  -6  -2 323.062 20.5034   4
   7  -1   2 419.292 16.7564   3
  -6  -1  -2 364.184 18.9293   2
  -6  -1  -2 284.289 19.6865   4
   7  -1   2 418.708 19.4068   2
  -1  -6   2 360.113 24.9915   2
  -6   7   2 421.995 18.3512   5
   7  -6  -2 294.948 19.2641   3
   3  -7  -2 2949.85 122.962   3
   3   4   2 3120.83 122.925   3
   3  -7  -2 2963.45 124.481   2
  -7   4  -2 2876.59 124.268   5
  -7   3   2 3159.98 127.806   2
  -7   4  -2 2899.88 122.941   4
  -7   3   2 3241.04 127.760   5
   4   3  -2 2879.48 127.103   2
   3   4   2 3101.93 125.414   2
   4   3  -2 2883.29 123.796   3
   4  -7   2 3092.75 124.740   2
   4   3  -2 3045.06 123.350   5
   4  -7   2 3058.58 123.588   4
   3  -7  -2 2968.23 124.791   4
  -3  -4  -2 2842.67 124.010   4
  -3  -4  -2 2980.64 124.315   2
  -4   7  -2 2999.99 124.906   2
   7  -3  -2 2846.64 123.637   3
   7  -3  -2 3000.47 122.820   4
  -4   7  -2 2929.35 124.030   5
   7  -3  -2 2991.44 127.140   2
  -3   7   2 3130.52 121.685   5
  -4  -3   2 3103.06 127.838   2
  -3  -4  -2 2895.65 122.685   5
   7  -4   2 3112.60 122.255   2
  -4   7  -2 2970.16 122.651   3
   7  -4   2 3009.58 121.172   3
   7  -4   2 2974.83 121.787   2
  -3   7   2 2997.58 125.017   2
  -7   0   2 9600.00 391.979   5
   7   0  -2 9734.11 392.123   3
   0  -7  -2 9330.79 392.860   2
   7   0  -2 9854.07 395.737   2
   0   7   2 9935.56 393.970   2
  -7   7  -2 9526.18 389.581   3
   7  -7   2 9473.39 391.708   4
   0  -7  -2 9469.69 392.441   4
   0   7   2 9806.35 391.226   3
  -7   7  -2 9999.99 392.724   5
   0   8  -2 1127.62 50.1662   5
  -8   8   2 1142.57 54.7110   2
   0  -8   2 1142.96 54.8035   2
   8  -8  -2 1100.75 51.3583   4
   8   0   2 1154.26 48.6565   3
   0  -8   2 1119.40 49.6303   4
  -8   0  -2 1208.05 49.7382   2
   0   8  -2 1095.84 50.4329   3
  -8   0  -2 1124.34 51.2404   5
   8   0   2 1148.51 51.4031   2
   8  -8  -2 1263.79 51.9878   3
  -8   8   2 1128.91 49.7522   5
  -8   8   2 1178.65 51.1175   2
   0   8  -2 1117.11 54.8341   2
  -8   3  -2 1063.78 47.5647   4
   3  -8   2 1147.56 51.0009   2
  -8   5   2 1091.21 48.4384   2
  -8   5   2 1186.54 54.0442   2
  -8   3  -2 1092.37 49.2576   5
   5  -8  -2 1085.79 47.8200   3
   3   5  -2 1063.36 53.5058   2
   3  -8   2 1146.26 48.4652   4
   3   5  -2 1079.32 48.9870   3
   3   5  -2 1075.40 47.6986   5
   5   3   2 1171.54 47.3464   3
   5   3   2 1175.94 50.4652   2
  -8   3  -2 1037.72 45.7005   2
   5  -8  -2 1082.31 50.1129   4
  -5  -3  -2 1098.98 47.9568   5
   8  -3   2 1160.23 45.5778   3
  -5   8   2 1147.65 46.4486   5
   8  -5  -2 1038.24 48.2044   3
  -3   8  -2 1073.05 50.5656   2
  -3   8  -2 1065.39 47.4026   3
  -5   8   2 1179.19 49.8251   2
   8  -3   2 1151.97 46.9493   2
  -3  -5   2 1167.23 46.0724   4
  -3  -5   2 1150.64 53.8687   2
   8  -5  -2 1028.40 47.8030   4
  -5  -3  -2 1046.38 48.4101   4
  -5  -3  -2 1051.25 48.5905   2
  -3   8  -2 1032.61 48.2463   5
   2   6   2 1612.52 65.9875   3
  -8   2   2 1571.64 67.3862   5
  -8   6  -2 1587.10 67.9047   5
   6   2  -2 1536.69 67.4523   3
   6   2  -2 1619.20 72.1710   2
   2  -8  -2 1483.85 67.9508   4
   2  -8  -2 1572.40 68.1411   2
   2   6   2 1635.78 69.0801   2
   6  -8   2 1546.55 66.6389   2
   6  -8   2 1615.00 67.1971   4
  -6  -2   2 1535.46 66.8606   5
  -6  -2   2 1689.80 71.9382   2
  -2   8   2 1604.70 68.5486   2
  -2  -6  -2 1536.07 67.8362   2
   8  -2  -2 1576.49 67.4060   3
   8  -6   2 1594.07 66.8500   4
  -2  -6  -2 1567.96 64.8338   5
   8  -2  -2 1516.06 64.9006   4
  -6   8  -2 1523.46 67.4520   5
  -6   8  -2 1506.50 64.8254   3
   8  -2  -2 1581.24 71.6973   2
  -2   8   2 1593.17 65.7632   3
  -2  -6  -2 1536.30 67.9005   4
  -6   8  -2 1555.47 66.8408   2
   2   7  -2 756.797 35.9780   3
   7  -9  -2 783.594 36.0602   2
   7   2   2 795.060 34.6348   3
  -9   7   2 796.006 36.5174   2
   2  -9   2 757.424 35.8898   4
   2  -9   2 786.790 39.3962   2
  -9   2  -2 772.926 33.6557   2
   7   2   2 780.098 37.9525   2
  -9   2  -2 723.930 34.8852   4
   7  -9  -2 763.245 37.6681   4
  -9   7   2 825.680 41.4889   2
   7  -9  -2 761.161 36.5065   3
  -9   2  -2 781.048 37.3200   5
   2   7  -2 744.216 40.2628   2
   9  -2   2 794.477 33.3739   3
  -2   9  -2 726.232 35.3854   3
  -2   9  -2 757.044 39.6079   2
  -7  -2  -2 800.028 36.1713   2
   9  -7  -2 780.236 40.6927   3
   9  -2   2 758.534 35.3815   2
  -2  -7   2 787.239 41.5575   2
  -2   9  -2 840.911 39.0641   5
   9  -7  -2 751.682 36.5356   4
  -7  -2  -2 750.237 36.3759   4
  -2  -7   2 773.780 34.2686   4
  -7   9   2 812.056 37.2550   2
  -7   9   2 767.551 34.4138   5
   4  -9  -2 1974.86 82.8923   4
  -9   5  -2 2113.59 85.0991   5
   4  -9  -2 1850.85 81.8558   2
  -9   4   2 1941.86 85.5583   2
   5   4  -2 2007.60 86.1772   2
   5  -9   2 1898.72 81.5264   4
  -9   4   2 1919.21 81.8984   5
   5  -9   2 1847.16 82.1797   2
   4  -9  -2 1814.88 84.6604   3
   4   5   2 1820.80 80.3794   3
   4   5   2 1813.10 83.4794   2
  -5   9  -2 2071.54 82.1278   5
   9  -4  -2 1911.87 80.3045   4
   9  -4  -2 1998.40 81.4917   3
   9  -4  -2 2067.04 85.6903   2
  -4  -5  -2 1830.96 81.9830   2
  -5   9  -2 1967.07 82.7528   2
  -5  -4   2 1938.22 85.9117   2
  -4   9   2 1803.43 78.1945   5
  -5   9  -2 1952.57 79.9995   3
  -4  -5  -2 2017.46 80.2800   5
  -4   9   2 1858.48 82.8609   2
   8   1  -2 2645.74 113.549   3
   8   1  -2 2724.47 117.927   2
   8  -9   2 2750.21 113.865   4
  -9   8  -2 2656.10 113.973   5
   1  -9  -2 2788.56 114.792   4
   1  -9  -2 2693.84 114.284   2
   1   8   2 2770.48 112.595   3
  -9   1   2 2828.48 114.274   5
   8  -9   2 2674.37 111.400   2
  -9   1   2 2783.47 118.127   2
   1   8   2 2821.16 115.906   2
   9  -1  -2 2687.80 117.342   2
   9  -8   2 2699.72 113.318   4
  -8   9  -2 2678.91 110.592   3
   9  -1  -2 2531.81 110.362   4
  -8   9  -2 2718.87 111.847   2
   9  -1  -2 2713.06 113.437   3
  -1   9   2 2695.17 112.385   3
  -8  -1   2 2776.88 113.682   5
  -1  -8  -2 2541.43 110.218   5
  -8   9  -2 2761.47 114.142   5
  -1  -8  -2 2754.16 114.442   4
  -1   9   2 2816.77 115.954   2
  -1  -8  -2 2784.44 114.768   2
  -8  -1   2 2826.49 118.371   2
   9   1   2 63.1208 11.8456   2
 -10   1  -2 75.9884 9.51430   2
   1 -10   2 66.6983 13.6452   2
   1   9  -2 77.1940 12.7951   3
   9   1   2 60.0770 10.1076   3
 -10   9   2 67.8936 15.4058   2
 -10   9   2 67.2000 11.1700   5
 -10   1  -2 77.3744 10.0879   4
 -10   9   2 66.4851 11.1618   2
   1 -10   2 58.9093 9.82747   4
   1   9  -2 60.8228 11.3293   5
 -10   1  -2 79.2707 12.9530   5
   9 -10  -2 78.5686 10.6714   3
   1   9  -2 64.8453 15.0993   2
  10  -9  -2 70.5058 11.6533   4
  10  -1   2 52.2156 12.5284   2
  -1  -9   2 72.8904 9.37314   4
  -1  -9   2 54.4692 14.0752   2
  -1  10  -2 92.2655 11.5534   5
  -9  10   2 60.4978 9.33506   5
  -9  -1  -2 84.0811 11.0862   2
  -1  10  -2 86.4544 16.0813   2
  -9  10   2 69.4617 16.6774   2
  10  -1   2 54.9036 8.96009   3
  -9  -1  -2 79.5412 11.8897   5
  -1  10  -2 81.4695 11.5260   3
  -9  -1  -2 65.0986 9.90339   4
  10  -9  -2 60.6353 9.45420   3
   4   6  -2 1404.50 68.5017   2
 -10   6   2 1567.52 68.8952   2
   4 -10   2 1469.08 64.4157   4
   6 -10  -2 1474.38 64.7782   2
   6   4   2 1489.21 62.8776   3
   6 -10  -2 1493.58 62.9284   3
   6   4   2 1513.65 66.1791   2
 -10   6   2 1539.22 64.1897   2
 -10   6   2 1515.45 64.7058   5
 -10   4  -2 1460.48 65.1756   5
 -10   4  -2 1452.56 62.9328   4
   4 -10   2 1540.37 66.4082   2
   4   6  -2 1357.08 64.0163   3
 -10   4  -2 1421.07 60.6215   2
   6 -10  -2 1400.89 65.3777   4
  -6  -4  -2 1492.27 63.4919   5
  -4  10  -2 1440.59 64.0526   5
  -6  10   2 1586.06 61.6307   5
  -4  10  -2 1409.68 66.5730   2
  10  -4   2 1514.25 60.6504   3
  -4  -6   2 1494.34 61.0184   4
  -6  -4  -2 1439.07 64.1806   4
  10  -6  -2 1487.15 63.9630   3
  -4  10  -2 1454.73 63.0766   3
  -6  10   2 1562.01 65.4828   2
  -4  -6   2 1607.54 70.0222   2
  10  -6  -2 1443.38 63.6207   4
  -6  -4  -2 1460.20 64.6640   2
  10  -4   2 1497.40 61.7365   2
   7 -10   2 4790.17 225.907   4
   3 -10  -2 5666.21 225.534   4
   3 -10  -2 5368.13 225.563   2
   3   7   2 5347.50 224.023   3
 -10   7  -2 5637.84 225.576   5
   7   3  -2 5474.66 224.694   3
   7 -10   2 5429.15 224.226   2
 -10   3   2 5832.46 229.084   2
   3   7   2 5400.89 227.080   2
 -10   3   2 5339.24 224.956   5
  -7  10  -2 5672.66 222.842   3
  -7  10  -2 5474.03 224.757   5
  -7  -3   2 5360.71 224.554   5
  10  -7   2 5363.08 224.191   4
  10  -3  -2 5491.07 222.880   4
  -3  -7  -2 5726.81 222.823   5
  10  -3  -2 5597.94 228.337   2
  -3  10   2 5315.43 223.447   3
  -7  10  -2 5724.16 225.057   2
  -3  -7  -2 5567.29 225.008   4
  -7  -3   2 5698.26 229.024   2
  -3  -7  -2 5547.35 225.977   2
  10  -3  -2 5500.60 224.427   3
  10   0  -2 6607.86 271.598   3
   0 -10  -2 6137.59 278.366   2
   0 -10  -2 6794.68 272.442   4
 -10   0   2 6754.42 272.119   5
  10 -10   2 6743.15 271.893   4
   0  10   2 6772.01 270.816   3
  10   0  -2 6688.50 275.823   2
 -10  10  -2 6661.69 272.234   5
   0  10   2 6726.16 274.261   2
 -11  11   2 486.113 26.7884   5
 -11   0  -2 550.958 28.7188   5
  11 -11  -2 542.075 26.3490   3
   0  11  -2 563.615 27.3889   3
  11   0   2 478.167 24.9267   3
   0 -11   2 415.216 27.6910   4
   0 -11   2 498.367 31.6355   2
  11   0   2 470.590 28.9261   2
  11 -11  -2 535.834 29.8531   4
   0  11  -2 576.371 26.4818   5
 -11  11   2 507.694 34.4523   2
 -11  11   2 466.610 27.5018   2
 -11   0  -2 532.122 26.2668   2
 -11   0  -2 537.587 26.6530   4
   0  11  -2 560.298 33.6177   2
   3   8  -2 759.375 32.5676   5
 -11   3  -2 731.704 32.4827   4
   3   8  -2 714.362 34.8332   3
 -11   8   2 672.302 34.4700   5
 -11   3  -2 718.698 35.6348   5
   8   3   2 675.240 36.8979   2
 -11   8   2 623.554 37.5389   2
   8 -11  -2 774.311 36.4367   4
   8   3   2 664.611 32.8157   3
   3 -11   2 685.481 34.7855   4
   8 -11  -2 771.650 32.5577   3
   3 -11   2 688.728 37.2494   2
 -11   3  -2 740.494 31.0652   2
   3   8  -2 711.748 39.3573   2
   8 -11  -2 753.251 34.0915   2
  -3  11  -2 727.958 33.6594   3
  -3  -8   2 687.193 39.8263   2
  -3  11  -2 686.879 33.6269   5
  11  -8  -2 736.426 33.7676   3
  -8  -3  -2 723.663 34.4887   2
  -3  11  -2 720.196 38.5041   2
  -8  -3  -2 728.334 34.1736   4
  11  -3   2 656.475 32.5696   2
  -3  -8   2 652.570 31.2798   4
  11  -3   2 670.016 30.6273   3
  -8  11   2 663.681 34.6560   2
  11  -8  -2 729.477 34.6502   4
  -8  -3  -2 755.045 34.1385   5
  -8  11   2 657.035 31.8343   5
 -11   5   2 990.982 49.5006   2
   6   5  -2 1013.45 45.9691   3
   6 -11   2 1001.15 45.9752   2
 -11   5   2 995.751 46.5154   5
 -11   6  -2 972.338 46.6664   5
   6   5  -2 1013.10 50.9297   2
   5 -11  -2 1055.34 46.4319   2
   5   6   2 978.985 44.2556   3
   5 -11  -2 1041.75 48.0899   4
   5   6   2 1015.05 47.8350   2
   6 -11   2 943.211 47.9823   4
  -6  11  -2 973.355 47.1747   2
  -5  -6  -2 1004.91 46.2312   4
  11  -5  -2 1013.41 44.3954   4
  -6  -5   2 984.198 45.2995   5
  -6  11  -2 977.615 45.4403   5
  -6  11  -2 938.746 43.6586   3
  -5  -6  -2 1017.77 46.6823   2
  11  -5  -2 1032.46 45.4693   3
  -5  -6  -2 1021.63 44.1462   5
  11  -5  -2 973.216 50.6899   2
  -5  11   2 1043.00 47.1030   2
  11  -6   2 1035.06 45.2531   4
  -6  -5   2 1037.78 51.5370   2
  -5  11   2 1006.91 43.7586   3
   9 -11   2 1291.76 59.0946   4
   2 -11  -2 1362.49 58.9926   2
   9   2  -2 1340.74 58.0641   3
   9 -11   2 1303.64 55.7037   2
   2   9   2 1281.69 57.0087   3
 -11   2   2 1342.61 58.6839   5
   9   2  -2 1361.85 62.9045   2
   2 -11  -2 1316.84 59.9459   4
 -11   9  -2 1384.27 59.3438   5
   2   9   2 1243.30 60.6031   2
 -11   2   2 1241.76 65.2653   2
  11  -2  -2 1334.13 55.0412   4
  -2  11   2 1228.67 56.6647   3
  -9  11  -2 1352.25 54.9022   3
  -9  11  -2 1383.49 56.8482   2
  11  -2  -2 1390.83 63.1369   2
  -9  -2   2 1359.68 63.1433   2
  -2  -9  -2 1352.90 59.4867   4
  -9  11  -2 1295.31 58.7930   5
  -9  -2   2 1305.79 58.5921   5
  -2  11   2 1264.24 60.1540   2
  11  -9   2 1318.12 58.4971   4
  -2  -9  -2 1197.97 65.4772   2
  -2  -9  -2 1341.03 54.4812   5
  11  -2  -2 1362.12 58.2620   3
  10 -12  -2 845.324 41.4264   4
  10   2   2 746.136 41.6512   2
 -12   2  -2 890.781 37.2427   2
  10   2   2 789.588 37.9451   3
  10 -12  -2 865.163 38.5990   2
   2  10  -2 862.578 44.5329   2
   2 -12   2 768.376 38.9933   4
 -12  10   2 809.618 39.7159   5
 -12  10   2 842.402 39.3333   2
   2  10  -2 854.910 37.6734   5
 -12   2  -2 890.388 40.1066   5
   2 -12   2 766.735 41.8057   2
 -12   2  -2 885.945 37.7751   4
   2  10  -2 843.251 39.8399   3
  10 -12  -2 865.964 37.7333   3
  12 -10  -2 838.542 38.1966   3
 -10  12   2 772.937 39.2791   2
 -10  -2  -2 862.517 39.3636   2
 -10  -2  -2 829.934 38.3631   4
  12 -10  -2 857.766 40.2189   4
 -10  -2  -2 836.535 39.6068   5
  -2 -10   2 761.475 44.2140   2
  12  -2   2 778.658 36.2241   3
  12  -2   2 739.453 38.6875   2
  -2  12  -2 880.010 38.2374   5
 -10  12   2 738.515 37.4659   5
  -2  12  -2 833.776 38.9808   3
  -2 -10   2 737.752 37.1021   4
  -2  12  -2 866.738 44.5184   2
   7 -12  -2 619.131 29.5477   2
   7   5   2 602.318 28.6925   3
 -12   5  -2 560.973 31.2730   5
 -12   7   2 587.024 30.7203   5
   7   5   2 594.663 33.6315   2
   5 -12   2 589.839 30.7124   4
   5   7  -2 547.244 29.6296   3
   5   7  -2 581.078 34.7323   2
 -12   7   2 557.306 28.2428   2
 -12   5  -2 590.719 23.8931   2
 -12   7   2 558.677 33.8435   2
   5 -12   2 574.612 30.7668   2
   7 -12  -2 553.935 32.0629   4
  -7  12   2 573.132 30.6376   2
  -5  -7   2 594.362 29.1725   5
  12  -5   2 556.392 24.9235   2
  12  -7  -2 568.311 28.6761   3
  -5  -7   2 591.733 25.2171   4
  -7  -5  -2 592.680 30.0963   2
  -7  -5  -2 561.158 29.6581   4
  -5  12  -2 530.136 28.0514   3
  -5  12  -2 538.164 28.9087   5
  -5  -7   2 585.217 35.4532   2
  -7  12   2 568.160 25.2474   5
  12  -5   2 574.807 28.2692   4
  -5  12  -2 553.498 32.8123   2
   8 -12   2 267.102 16.8303   2
 -12   4   2 253.868 21.3426   5
   8   4  -2 276.095 19.6131   3
   8   4  -2 274.867 24.7848   2
   4   8   2 262.177 21.3419   2
   8 -12   2 262.123 21.9539   4
   4 -12  -2 291.521 23.1634   4
 -12   8  -2 245.661 20.7218   5
   4   8   2 267.843 17.2590   3
   4 -12  -2 330.918 19.4588   2
  -4  -8  -2 292.684 15.6764   5
  -4  12   2 271.580 20.9922   2
  -4  -8  -2 264.981 19.8001   4
  12  -8   2 274.315 18.7779   4
  -4  -8  -2 219.817 21.2223   2
  12  -4  -2 300.343 24.3288   2
  -8  12  -2 255.542 19.6192   5
  -4  12   2 262.972 16.7283   3
  12  -4  -2 279.017 19.6264   3
  -8  -4   2 250.490 25.5878   2
  -8  12  -2 281.414 15.6789   3
  -8  -4   2 287.181 19.7850   5
  12  -4  -2 291.314 16.3914   4
  -8  12  -2 291.768 19.6482   2
  11   1  -2 481.282 33.7651   2
  11 -12   2 545.229 22.4573   2
   1 -12  -2 556.077 28.8742   2
  11 -12   2 550.676 29.7897   4
   1  11   2 520.298 27.3347   3
 -12   1   2 496.348 32.7874   2
   1  11   2 506.399 31.7350   2
  11   1  -2 503.638 28.5524   3
 -12  11  -2 479.517 28.9854   5
   1 -12  -2 494.350 30.5776   4
 -12   1   2 506.775 29.5401   5
  -1 -11  -2 504.660 29.8419   4
  12  -1  -2 476.989 27.4051   3
  -1  12   2 513.068 26.3204   3
 -11  12  -2 504.117 22.2394   3
 -11  12  -2 514.272 23.7707   2
  12 -11   2 514.426 29.7667   4
  -1  12   2 522.295 30.8480   2
  -1 -11  -2 550.544 29.5841   2
 -11  -1   2 524.709 29.1716   5
 -11  12  -2 495.177 29.0146   5
  12  -1  -2 510.141 32.6455   2
 -11  -1   2 507.276 32.7034   2
  12   1   2 278.066 16.8790   3
 -13  12   2 258.342 18.7876   2
 -13   1  -2 211.972 16.7386   4
  12   1   2 271.291 21.6026   2
 -13  12   2 279.458 23.8892   2
   1 -13   2 310.174 24.4581   2
 -13   1  -2 228.297 20.5813   5
   1  12  -2 221.564 20.0011   3
  12 -13  -2 200.656 21.8509   4
   1  12  -2 234.490 25.5428   2
   1 -13   2 286.622 19.6767   4
  12 -13  -2 234.100 16.2704   3
   1  12  -2 229.976 16.8727   5
 -13   1  -2 214.546 16.4618   2
  -1 -12   2 265.078 18.0548   4
  -1  13  -2 248.351 17.3036   5
  -1  13  -2 255.125 20.2361   3
  13 -12  -2 211.718 21.6409   4
  -1 -12   2 268.552 24.3398   2
 -12  -1  -2 232.741 20.5535   5
 -12  13   2 266.745 18.2956   2
  -1  13  -2 244.808 25.5820   2
 -12  -1  -2 215.349 17.8677   2
 -12  13   2 274.908 24.3037   2
 -12  -1  -2 256.273 18.1645   4
  13 -12  -2 223.831 17.2287   3
 -12  13   2 290.532 18.6978   5
  13  -1   2 273.108 20.3758   2
 -13   4  -2 91.5223 7.90038   2
 -13   4  -2 108.480 17.8905   5
   4 -13   2 74.3044 12.6176   4
   4 -13   2 88.0262 15.9411   2
   9 -13  -2 87.4487 12.9446   2
   9 -13  -2 101.687 15.6750   4
   4   9  -2 114.526 16.9945   3
   9   4   2 88.1597 18.0044   2
 -13   9   2 75.5413 11.7067   2
   9   4   2 89.6634 13.4206   3
 -13   9   2 71.7176 12.6489   5
 -13   9   2 90.2445 17.0965   2
   4   9  -2 115.666 21.8781   2
   9 -13  -2 102.087 12.0956   3
  -9  -4  -2 101.952 14.1304   2
  13  -4   2 86.8262 10.7007   2
  -4  13  -2 117.757 18.9471   2
  13  -4   2 79.5500 8.10333   3
  -9  13   2 75.8702 14.7699   2
  -4  -9   2 90.2131 20.9266   2
  13  -9  -2 89.9951 12.7467   3
  -4  -9   2 77.7908 10.2225   4
  13  -9  -2 102.666 15.7468   4
  -9  -4  -2 114.047 14.5939   5
  -4  13  -2 106.650 13.7188   5
  -9  -4  -2 101.130 15.0001   4
  -4  13  -2 118.309 13.7069   3
  -9  13   2 91.7563 9.87324   5
   7   6  -2 178.040 17.8318   3
   6   7   2 215.899 22.0731   2
   7 -13   2 193.867 19.4979   4
 -13   7  -2 183.810 19.6258   5
   6 -13  -2 186.652 21.6926   4
 -13   6   2 214.333 19.7301   5
   6 -13  -2 204.567 16.1599   2
   7   6  -2 180.219 22.5972   2
   7 -13   2 203.005 16.4681   2
   6   7   2 203.384 16.8487   3
 -13   6   2 212.003 21.5551   2
  -7  13  -2 168.264 18.7408   2
  -6  -7  -2 194.554 14.8353   5
  -6  13   2 212.032 19.7819   2
  13  -6  -2 194.777 16.3118   4
  -6  -7  -2 173.217 18.5569   4
  -6  13   2 207.865 15.5554   3
  13  -6  -2 192.110 17.3819   3
  -7  13  -2 184.366 17.4859   5
  -7  -6   2 211.194 22.6419   2
  -7  -6   2 197.939 17.0777   5
  13  -7   2 199.372 17.5241   4
  13  -6  -2 187.368 21.9154   2
  10   3  -2 606.520 36.6128   2
   3 -13  -2 596.725 30.1894   2
 -13   3   2 575.065 32.6393   5
   3  10   2 571.011 29.3062   3
  10 -13   2 553.710 32.7969   4
   3  10   2 580.682 33.9347   2
  10   3  -2 612.856 31.2187   3
  10 -13   2 558.181 26.5699   2
 -13   3   2 548.438 35.7630   2
 -13  10  -2 566.920 31.0075   5
   3 -13  -2 546.996 31.5723   4
  13 -10   2 578.793 31.4353   4
 -10  13  -2 578.350 29.1652   2
 -10  13  -2 550.248 26.0934   3
  -3 -10  -2 603.169 25.8204   5
  13  -3  -2 601.025 27.0211   4
 -10  -3   2 575.487 31.4371   5
  -3 -10  -2 630.496 31.4075   2
 -10  13  -2 565.182 30.6838   5
  13  -3  -2 544.703 29.3997   3
  -3 -10  -2 532.712 30.6437   4
  -3  13   2 576.697 32.2541   2
  13  -3  -2 562.361 34.2320   2
  -3  13   2 552.077 28.2147   3
 -10  -3   2 536.435 35.1047   2
   0  13   2 1091.46 53.3690   2
 -13   0   2 1116.62 51.4094   5
   0 -13  -2 1037.41 50.4488   2
  13   0  -2 1075.38 49.7994   3
 -13   0   2 1105.80 55.1711   2
 -13  13  -2 1064.29 50.5053   5
  13   0  -2 1034.50 54.9150   2
   0 -13  -2 1047.74 50.7453   4
  13 -13   2 1082.00 50.6124   4
   0  13   2 1061.68 48.5602   3
  14   0   2 1519.84 63.8108   3
 -14  14   2 1530.92 70.3711   2
   0  14  -2 1414.95 65.6866   3
   0 -14   2 1467.46 65.3884   4
  14   0   2 1496.28 68.0859   2
   0  14  -2 1470.53 63.6142   5
 -14   0  -2 1405.47 63.5439   4
   0 -14   2 1493.53 70.1508   2
  14 -14  -2 1478.10 67.6391   4
 -14   0  -2 1378.01 66.2203   2
 -14   0  -2 1405.62 66.1996   5
  14 -14  -2 1467.86 63.7139   3
 -14  14   2 1515.04 66.1878   2
   0  14  -2 1456.06 71.6317   2
 -14  14   2 1532.72 65.2992   5
 -14  11   2 924.987 45.4852   2
 -14   3  -2 993.404 43.4311   2
 -14  11   2 954.914 46.5447   5
  11 -14  -2 946.523 47.7344   4
  11 -14  -2 1043.97 45.5491   2
  11 -14  -2 1016.20 43.8711   3
   3  11  -2 1045.58 46.9838   3
 -14  11   2 932.610 50.0167   2
 -14   3  -2 1035.60 43.9950   4
  11   3   2 967.918 44.8111   3
 -14   3  -2 1008.42 47.3653   5
   3  11  -2 1031.81 52.6043   2
  11   3   2 950.017 49.5060   2
   3 -14   2 922.455 46.4970   4
   3 -14   2 897.849 47.8987   2
  14  -3   2 911.489 42.3463   3
  -3  14  -2 1025.31 45.5110   3
  -3 -11   2 923.815 43.5999   4
  -3 -11   2 955.986 50.0353   2
 -11  14   2 911.352 43.6272   5
  14  -3   2 906.487 45.3005   2
  -3  14  -2 1032.13 44.6803   5
 -11  -3  -2 1066.57 46.8756   5
  14 -11  -2 1017.29 44.7064   3
 -11  -3  -2 1010.39 46.6651   2
 -11  14   2 932.631 46.3917   2
 -11  -3  -2 1008.35 45.0546   4
  -3  14  -2 1017.31 50.6645   2
  14 -11  -2 1023.10 47.1144   4
   8 -14  -2 291.622 24.3796   4
 -14   8   2 319.267 25.2311   2
 -14   8   2 304.837 23.8946   5
   8   6   2 298.148 20.4794   3
   6   8  -2 320.565 22.6876   3
   8 -14  -2 322.284 19.8847   2
 -14   8   2 303.174 19.4132   2
   6   8  -2 356.417 27.0099   2
 -14   6  -2 321.143 23.8452   5
   8   6   2 307.370 25.4555   2
   6 -14   2 307.112 23.1593   4
   6 -14   2 318.166 21.2869   2
  -8  -6  -2 316.371 20.2073   5
  -6  -8   2 298.719 27.5204   2
  -8  -6  -2 302.103 21.6830   2
  -8  14   2 300.522 15.1515   5
  -8  14   2 293.164 17.8834   3
  -6  -8   2 341.678 15.5781   4
  -8  14   2 310.256 21.8817   2
  -8  -6  -2 290.688 20.5012   4
  -6  14  -2 326.529 20.2828   5
  -6  14  -2 287.575 24.4838   2
  -6  -8   2 283.853 21.9109   5
  14  -8  -2 302.081 21.4879   4
  -6  14  -2 306.384 19.4227   3
  14  -8  -2 314.924 20.5282   3
  14  -6   2 312.031 19.7992   4
 -14   5   2 57.0233 15.5704   2
   9   5  -2 58.1861 17.0335   2
 -14   5   2 88.7414 15.3457   5
   5   9   2 63.9152 15.1801   2
   5 -14  -2 48.1958 13.8564   4
   9   5  -2 50.4995 12.5676   3
   5   9   2 51.2005 10.7438   3
   9 -14   2 78.3328 14.6144   4
 -14   9  -2 56.3272 12.6772   5
   5 -14  -2 54.5119 10.9442   2
   9 -14   2 67.3982 11.6398   2
  14  -5  -2 58.5569 9.78085   4
  -5  -9  -2 59.3257 12.4024   2
  -9  -5   2 69.9445 12.3693   5
  -5  14   2 85.8570 11.4827   3
  -5  14   2 80.8896 14.6498   2
  14  -9   2 74.4338 12.5921   4
  14  -5  -2 66.6304 16.5923   2
  -5  -9  -2 47.3796 11.3391   4
  -5  -9  -2 73.7729 10.6758   5
  -9  14  -2 61.4709 11.6754   2
  -9  -5   2 71.9154 16.9182   2
  14  -5  -2 63.5307 12.3892   3
  -9  14  -2 71.3546 13.1775   5
  -9  14  -2 60.3157 8.36807   3
  12   2  -2 155.263 18.1286   3
   2 -14  -2 178.775 21.6999   4
 -14  12  -2 159.434 17.7509   5
 -14   2   2 199.047 24.5682   2
 -14   2   2 181.530 19.5252   5
  12 -14   2 189.323 10.5332   2
  12 -14   2 217.904 22.5205   4
   2  12   2 179.239 20.2534   2
  12   2  -2 144.209 22.8743   2
   2 -14  -2 164.189 16.6384   2
   2  12   2 193.634 17.1656   3
 -12  -2   2 176.114 17.9211   5
 -12  14  -2 166.725 11.0630   3
  -2 -12  -2 143.955 16.3377   2
  -2 -12  -2 169.209 18.8222   4
 -12  14  -2 162.704 13.4594   2
  14  -2  -2 147.598 21.0037   2
  14  -2  -2 146.321 16.5319   3
  14 -12   2 214.050 22.4534   4
 -12  -2   2 217.832 23.1591   2
  -2  14   2 186.289 15.7680   3
  -2  14   2 191.922 20.2717   2
  14  -2  -2 152.718 12.1927   4
 -12  14  -2 133.565 18.9836   5
 -15   2  -2 719.637 33.8738   2
   2  13  -2 674.116 35.3365   3
 -15  13   2 654.217 40.0677   2
  13   2   2 647.683 33.7687   3
   2  13  -2 694.462 41.0154   2
 -15  13   2 655.371 35.1072   2
 -15   2  -2 726.084 33.1135   4
   2 -15   2 628.750 35.7101   4
  13 -15  -2 713.729 38.6794   4
 -15  13   2 700.560 35.9817   5
   2 -15   2 670.310 37.4571   2
  13 -15  -2 702.981 32.9250   3
 -15   2  -2 671.448 36.2294   5
  -2 -13   2 661.417 39.3313   2
  -2  15  -2 748.187 33.9226   5
  15 -13  -2 723.814 37.4207   4
 -13  -2  -2 736.080 34.2163   4
  -2  15  -2 695.105 35.2621   3
 -13  15   2 664.263 35.4227   2
 -13  -2  -2 666.795 35.7151   2
  15  -2   2 642.489 32.1426   3
 -13  -2  -2 702.453 36.7256   5
 -13  15   2 640.935 33.7313   5
  -2 -13   2 647.491 33.2650   4
  15  -2   2 693.636 36.1793   2
  15 -13  -2 707.866 33.3851   3
  -2  15  -2 741.040 41.5793   2
 -15  10   2 659.477 34.8238   5
 -15   5  -2 670.291 28.2845   2
   5 -15   2 630.778 34.8671   4
  10 -15  -2 643.614 36.2016   4
 -15  10   2 616.890 31.6512   2
  10   5   2 680.034 33.1254   3
   5 -15   2 654.944 35.0380   2
  10 -15  -2 687.721 33.0686   2
   5  10  -2 622.002 39.6267   2
   5  10  -2 666.206 34.3841   3
 -15  10   2 609.602 38.1536   2
  10   5   2 633.817 37.5869   2
 -15   5  -2 606.773 34.0043   5
 -10  -5  -2 616.333 32.2787   4
  15  -5   2 619.944 29.9938   2
  15 -10  -2 592.143 31.4592   3
 -10  -5  -2 602.826 33.5561   2
  -5  15  -2 613.831 31.8715   5
  -5 -10   2 641.814 29.5152   4
  -5  15  -2 595.664 32.1416   3
  15 -10  -2 616.707 33.8901   4
  15  -5   2 614.753 31.5104   4
  -5  15  -2 635.645 37.7267   2
  -5 -10   2 601.031 31.6875   5
 -10  15   2 636.908 29.4608   5
 -10  -5  -2 622.181 32.7942   5
  15  -5   2 628.038 27.8673   3
 -10  15   2 618.155 29.8303   3
 -10  15   2 635.119 33.5698   2
  -5 -10   2 636.480 37.9975   2
   7   8   2 201.773 18.4501   3
   7 -15  -2 229.587 17.8693   2
   7   8   2 230.706 23.6190   2
   8 -15   2 221.758 16.9259   2
 -15   7   2 217.111 22.1608   5
   8   7  -2 217.653 24.3592   2
   8 -15   2 207.297 22.5317   4
   7 -15  -2 218.870 23.5677   4
 -15   8  -2 193.089 19.3777   5
   8   7  -2 212.803 19.2736   3
 -15   7   2 185.327 23.7333   2
  -7  15   2 211.515 16.4657   3
  -7  -8  -2 208.732 16.2066   5
  -7  -8  -2 181.888 18.3179   4
  15  -7  -2 192.129 18.3840   3
  -8  15  -2 178.463 21.1852   2
  -8  15  -2 199.933 16.2082   3
  -8  -7   2 215.549 26.1140   2
  -7  15   2 213.240 21.1265   2
  -8  -7   2 198.388 18.0632   5
  15  -7  -2 193.845 17.9150   4
  -7  -8  -2 217.026 18.8497   2
  15  -8   2 187.517 18.0878   4
  -8  15  -2 210.561 18.1433   5
   4  11   2 270.265 19.8979   3
 -15   4   2 301.801 24.5113   5
  11 -15   2 295.029 25.0928   4
  11 -15   2 297.396 16.7089   2
 -15  11  -2 248.713 21.0853   5
  11   4  -2 252.625 21.8109   3
  11   4  -2 262.063 27.2861   2
   4 -15  -2 271.634 24.1509   4
   4  11   2 318.522 25.3894   2
   4 -15  -2 247.877 19.4477   2
 -15   4   2 317.327 27.6383   2
  15  -4  -2 247.453 20.8192   3
 -11  15  -2 272.473 19.7655   2
 -11  -4   2 323.114 28.1211   2
  -4 -11  -2 256.279 20.4538   2
  15  -4  -2 278.972 25.9092   2
  15 -11   2 316.655 23.5506   4
 -11  15  -2 264.690 15.9443   3
  15  -4  -2 263.045 17.4059   4
 -11  15  -2 252.804 20.9216   5
  -4 -11  -2 267.236 22.2825   4
  -4  15   2 291.317 24.1009   2
 -11  -4   2 291.039 21.7242   5
  -4 -11  -2 297.078 15.8621   5
  -4  15   2 271.989 19.3946   3
  14 -15   2 151.242 23.4087   4
   1  14   2 98.8315 14.3117   3
  14   1  -2 128.179 16.8827   3
  14   1  -2 114.770 21.5205   2
 -15   1   2 104.971 22.8434   2
 -15   1   2 146.011 21.1597   5
   1  14   2 126.442 21.4037   2
 -15  14  -2 110.229 16.9792   5
   1 -15  -2 149.296 22.2096   4
   1 -15  -2 128.135 16.0318   2
 -14  -1   2 109.480 20.3823   5
  -1  15   2 108.544 16.7215   3
 -14  -1   2 145.506 23.8951   2
  15  -1  -2 132.157 17.7478   3
  15 -14   2 142.939 19.1150   4
  15  -1  -2 150.474 21.6513   2
 -14  15  -2 124.112 9.40511   2
  -1 -14  -2 151.093 18.0125   2
 -14  15  -2 145.924 18.8129   5
  -1 -14  -2 127.697 20.0893   4
  -1  15   2 102.354 21.1169   2
  15   1   2 494.906 31.8800   2
 -16   1  -2 435.881 27.5045   2
   1 -16   2 500.282 32.3951   2
  15   1   2 479.920 26.7378   3
 -16   1  -2 505.275 26.6221   4
   1  15  -2 481.903 29.1533   3
 -16  15   2 492.239 33.6810   2
  15 -16  -2 520.221 26.5103   3
   1  15  -2 473.221 34.5399   2
 -16  15   2 503.278 28.8707   2
   1 -16   2 517.018 30.0865   4
 -16   1  -2 485.785 31.2841   5
  15 -16  -2 506.519 33.5928   4
 -16  15   2 502.915 29.9663   5
 -15  16   2 520.157 33.1342   2
 -15  -1  -2 498.672 30.7660   5
 -15  16   2 546.022 28.8453   5
  16 -15  -2 493.083 32.4996   4
  16  -1   2 513.546 31.6001   2
  -1 -15   2 521.838 33.9498   2
  -1  16  -2 462.559 29.1089   3
  16 -15  -2 480.681 26.8655   3
  -1  16  -2 494.518 26.2751   5
 -15  -1  -2 467.751 26.7508   4
  -1 -15   2 527.872 28.2399   4
 -15  -1  -2 457.004 29.0873   2
 -15  16   2 552.598 30.2260   2
  -1  16  -2 519.649 34.6142   2
 -16  12   2 555.648 29.3366   2
 -16  12   2 579.731 31.7319   5
   4 -16   2 559.340 31.5342   4
  12 -16  -2 500.730 33.7741   4
   4 -16   2 559.645 32.8153   2
 -16  12   2 563.360 35.3903   2
 -16   4  -2 464.671 25.8240   2
  12   4   2 571.034 34.0208   2
  12   4   2 563.711 28.8575   3
   4  12  -2 512.746 36.7210   2
  12 -16  -2 510.235 28.5776   2
   4  12  -2 530.150 31.3073   3
 -16   4  -2 501.750 31.7930   5
  -4 -12   2 547.302 34.5476   2
  16  -4   2 554.473 27.9528   4
  16 -12  -2 487.245 27.7117   3
  -4 -12   2 539.598 28.3491   5
  16  -4   2 593.937 29.2693   2
 -12  -4  -2 466.249 28.4009   4
  16  -4   2 554.387 25.5027   3
  -4  16  -2 532.749 35.8534   2
  16 -12  -2 514.112 32.3797   4
  -4  16  -2 516.674 28.3847   5
 -12  16   2 570.482 31.2237   2
 -12  -4  -2 502.176 30.3146   2
 -12  -4  -2 501.554 30.3852   5
  -4  16  -2 512.336 29.7593   3
   9   7   2 474.486 27.1279   3
 -16   9   2 430.886 29.4105   5
   7 -16   2 437.089 29.3418   4
   9 -16  -2 455.926 30.8783   4
 -16   7  -2 473.014 29.8421   5
 -16   9   2 482.011 25.7757   2
   7   9  -2 464.879 28.3399   3
   7   9  -2 449.834 33.2974   2
   9   7   2 467.493 33.0781   2
 -16   9   2 432.851 31.5894   2
   7 -16   2 441.746 27.0779   2
   9 -16  -2 474.495 26.0394   2
  16  -7   2 442.714 26.1978   4
  -9  16   2 451.447 28.9255   2
  -7  16  -2 435.460 25.4934   3
  -9  -7  -2 460.485 26.6368   4
  -9  16   2 431.763 24.3762   3
  -9  -7  -2 444.371 27.6228   2
  -7  16  -2 446.366 25.7485   5
  -7  -9   2 434.130 20.7415   4
  16  -9  -2 430.225 25.5410   3
  16  -9  -2 446.016 27.6211   4
  -9  16   2 434.882 21.5504   5
  -7  -9   2 460.623 33.1667   2
  -7  16  -2 407.527 33.8811   2
  -7  -9   2 461.411 26.2015   5
   6 -16  -2 343.148 27.0123   4
 -16   6   2 308.499 28.0637   2
  10   6  -2 317.032 27.9028   2
 -16  10  -2 299.909 23.4230   5
 -16   6   2 298.640 25.5623   5
   6  10   2 304.234 22.5383   3
   6  10   2 290.897 25.9690   2
  10 -16   2 288.792 26.0540   4
   6 -16  -2 331.278 22.2539   2
  10 -16   2 291.817 19.3774   2
  10   6  -2 316.544 22.6462   3
  -6  16   2 302.522 20.1675   3
 -10  -6   2 302.475 23.3522   5
  16  -6  -2 267.652 20.7441   4
 -10  16  -2 319.542 22.0994   5
  -6  16   2 296.386 23.3319   2
 -10  16  -2 315.438 19.2661   3
 -10  16  -2 318.727 23.9457   2
  -6 -10  -2 303.066 21.8521   2
 -10  -6   2 324.274 30.0337   2
  -6 -10  -2 336.303 19.1382   5
  -6 -10  -2 344.128 23.1159   4
  16  -6  -2 298.526 21.1814   3
  16 -10   2 294.848 23.5997   4
  16  -6  -2 309.324 25.6617   2
   3 -16  -2 113.602 17.8364   4
 -16   3   2 127.939 18.3843   5
 -16   3   2 107.996 21.8077   2
  13   3  -2 80.9416 13.6681   3
  13 -16   2 100.584 17.3531   4
  13   3  -2 85.7411 20.0804   2
   3 -16  -2 99.5959 15.1016   2
   3  13   2 101.675 22.1707   2
   3  13   2 120.736 15.2894   3
 -16  13  -2 92.9495 15.5764   5
  13 -16   2 100.606 9.51591   2
  -3  16   2 104.221 16.3812   3
 -13  -3   2 117.323 23.7819   2
  -3 -13  -2 108.265 18.6807   4
 -13  16  -2 87.5629 13.6351   2
  16  -3  -2 94.4913 15.6061   3
 -13  16  -2 114.721 10.5868   3
  -3 -13  -2 97.6531 17.1347   2
  16  -3  -2 74.0381 17.1058   2
 -13  -3   2 100.296 15.9379   5
  16 -13   2 125.276 17.7731   4
  -3  16   2 109.254 20.5361   2
 -13  16  -2 88.0275 14.8621   5
 -16  16  -2 610.578 33.0663   5
   0 -16  -2 627.766 34.1814   2
  16 -16   2 585.893 37.0308   4
  16   0  -2 627.070 33.4528   3
 -16   0   2 574.118 35.8012   5
   0 -16  -2 617.616 35.0694   4
   0  16   2 557.081 32.1905   3
   0  16   2 553.268 37.8747   2
 -16   0   2 546.771 38.8862   2
  16   0  -2 586.351 39.2360   2
  17   0   2 1071.77 47.5738   3
  17 -17  -2 1001.86 52.9850   4
 -17  17   2 1044.74 49.5204   5
  17 -17  -2 1015.21 46.2626   3
 -17  17   2 1047.29 50.0535   2
 -17   0  -2 1038.85 51.0292   5
 -17   0  -2 866.462 49.3725   2
   0 -17   2 1000.85 53.1509   2
  17   0   2 1065.79 52.9191   2
   0 -17   2 1068.91 49.4158   4
 -17   0  -2 1042.52 46.6279   4
 -17  17   2 985.723 53.6936   2
   0  17  -2 978.228 49.5864   3
   0  17  -2 974.947 55.1422   2
  14   3   2 831.447 40.4572   3
 -17  14   2 826.808 42.2569   5
   3 -17   2 812.120 44.3646   2
 -17   3  -2 820.832 43.4570   5
 -17  14   2 852.928 41.6956   2
 -17   3  -2 829.514 39.7648   2
 -17  14   2 821.832 46.5758   2
  14   3   2 796.312 45.3148   2
  14 -17  -2 820.215 44.8453   4
   3  14  -2 886.736 43.0796   3
   3 -17   2 808.400 42.4677   4
   3  14  -2 843.873 49.0330   2
 -14  -3  -2 807.550 42.8574   5
 -14  17   2 854.702 42.9304   2
 -14  -3  -2 861.099 40.1015   4
  -3 -14   2 823.790 46.4095   2
  -3  17  -2 806.491 41.3218   3
  17 -14  -2 866.055 44.4026   4
  17  -3   2 824.583 38.3339   3
  -3 -14   2 813.834 39.9386   5
  17 -14  -2 837.948 39.4009   3
  -3  17  -2 851.276 39.8871   5
 -14  -3  -2 838.949 42.6071   2
  17  -3   2 823.082 42.5245   2
 -14  17   2 795.407 39.9437   5
  -3  17  -2 848.778 47.5268   2
  -3 -14   2 813.427 40.2992   4
  11   6   2 280.342 26.9380   2
 -17   6  -2 263.495 13.9125   2
 -17   6  -2 265.540 23.7020   5
  11 -17  -2 287.795 26.0845   4
   6  11  -2 291.030 29.2557   2
 -17  11   2 255.004 19.5039   2
 -17  11   2 248.185 25.4630   2
   6 -17   2 267.722 24.8487   4
 -17  11   2 273.674 23.8156   5
   6 -17   2 258.000 21.6816   2
  11 -17  -2 265.209 18.9444   2
   6  11  -2 273.409 23.6536   3
  11   6   2 270.184 21.6709   3
 -11  17   2 279.832 23.0556   2
  17 -11  -2 253.173 19.7620   3
  -6  17  -2 279.638 19.7381   5
  17  -6   2 258.343 16.5213   2
  -6 -11   2 254.120 26.6024   2
 -11  17   2 232.229 16.0253   5
  -6  17  -2 256.783 27.1967   2
  17  -6   2 271.960 19.9340   4
  -6 -11   2 259.114 19.9107   5
  -6 -11   2 264.902 16.9103   4
  17 -11  -2 238.441 24.0399   4
 -11  17   2 249.864 18.3206   3
  -6  17  -2 281.796 21.6565   3
 -11  -6  -2 252.910 20.5211   4
 -11  -6  -2 266.554 21.7710   2
 -11  -6  -2 250.236 21.2272   5
   9   8  -2 45.4732 14.2467   3
   8 -17  -2 24.5579 13.5922   4
 -17   9  -2 33.8677 14.5327   5
 -17   8   2 38.9403 17.2391   2
   8   9   2 58.2757 16.8431   2
   9 -17   2 37.6431 14.9802   4
   9 -17   2 35.9223 10.2843   2
 -17   8   2 23.9465 13.9491   5
   8   9   2 52.0132 13.3182   3
   9   8  -2 51.8600 18.2454   2
   8 -17  -2 37.7922 10.2898   2
  -9  -8   2 35.5159 11.4091   5
  -8  -9  -2 38.7030 12.2613   2
  -8  17   2 35.5249 13.2185   2
  -8  -9  -2 48.6882 10.7713   5
  -8  17   2 26.7459 10.3686   3
  -9  17  -2 38.7969 13.8658   2
  17  -8  -2 34.5152 13.5513   4
  -9  -8   2 23.0973 15.3364   2
  -8  -9  -2 25.3913 9.99849   4
  17  -8  -2 55.4698 12.2539   3
  17  -9   2 43.5737 12.4151   4
  -9  17  -2 44.6048 12.3902   5
  -9  17  -2 38.8545 10.5176   3
 -17  12  -2 12.3119 12.2071   5
   5  12   2 41.8737 12.6545   3
  12 -17   2 64.3282 15.0956   4
   5  12   2 58.4943 16.3761   2
  12 -17   2 51.0903 10.4042   2
 -17   5   2 50.1290 16.9813   2
 -17   5   2 53.9177 16.0305   5
  12   5  -2 44.6810 17.6738   2
   5 -17  -2 21.9877 10.3767   2
   5 -17  -2 27.0037 12.8726   4
  12   5  -2 40.1100 13.8950   3
  17 -12   2 62.7081 14.9827   4
  17  -5  -2 21.6204 15.0375   2
  -5  17   2 52.0951 12.0413   3
 -12  -5   2 56.1960 17.3242   2
  -5 -12  -2 44.0527 8.53883   5
 -12  17  -2 29.6198 11.7020   2
 -12  17  -2 31.6280 13.0573   5
  17  -5  -2 29.0542 10.1850   4
  -5  17   2 55.5474 15.3734   2
  -5 -12  -2 31.6657 11.8862   2
  -5 -12  -2 26.3872 12.2067   4
  17  -5  -2 29.0866 12.2901   3
 -12  -5   2 54.1094 13.8956   5
 -17   2   2 70.6370 18.2085   2
  15   2  -2 85.2584 15.3895   3
   2 -17  -2 53.2167 14.7748   4
   2  15   2 73.3768 18.4185   2
   2 -17  -2 59.5217 13.6178   2
  15 -17   2 86.9759 18.5133   4
  15   2  -2 69.4634 19.6052   2
   2  15   2 78.9017 14.3448   3
 -17  15  -2 84.3179 16.0116   5
 -17   2   2 73.4277 16.9301   5
 -15  17  -2 92.6720 16.6627   5
  17  -2  -2 70.2703 13.4964   3
  17 -15   2 83.9297 16.3511   4
  -2 -15  -2 71.6786 15.0534   4
 -15  -2   2 73.0904 17.6406   5
 -15  -2   2 82.5154 18.9914   2
  17  -2  -2 47.8843 16.6280   2
 -15  17  -2 70.5056 11.7639   2
  -2  17   2 78.5066 17.6099   2
  -2  17   2 89.6023 13.9285   3
  -2 -15  -2 67.8315 15.0592   2
 -18   2  -2 328.606 22.4936   2
 -18  16   2 288.139 23.1710   2
 -18  16   2 324.114 26.2380   5
  16 -18  -2 370.629 30.6639   4
  16   2   2 329.161 22.9490   3
   2 -18   2 311.538 40.9091   2
   2 -18   2 339.328 26.6385   4
   2  16  -2 326.796 24.4741   3
 -18   2  -2 328.820 27.0333   5
  16   2   2 297.543 27.4266   2
 -18  16   2 265.909 28.8256   2
   2  16  -2 315.024 30.3065   2
  18 -16  -2 372.597 28.7591   4
  -2 -16   2 296.370 24.8274   4
  18 -16  -2 338.165 21.5782   3
  18  -2   2 301.428 26.3273   2
  -2  18  -2 351.451 29.6118   2
 -16  18   2 264.630 28.0930   2
 -16  -2  -2 362.169 26.8917   5
 -16  18   2 329.979 25.1276   2
 -16  -2  -2 372.116 22.2216   4
  -2 -16   2 287.345 21.9773   5
  -2 -16   2 336.808 28.7159   2
 -16  18   2 329.176 23.7284   5
  18  -2   2 334.148 21.5455   3
  -2  18  -2 354.970 24.6274   3
 -16  -2  -2 342.003 25.0740   2
  -2  18  -2 368.070 21.2773   5
  13 -18  -2 393.150 29.8249   4
 -18   5  -2 359.208 27.9311   5
 -18  13   2 406.469 28.5016   5
 -18   5  -2 375.538 20.9862   2
  13   5   2 401.797 31.0816   2
   5  13  -2 367.178 31.4418   2
   5 -18   2 404.484 29.1150   4
 -18  13   2 394.683 31.7499   2
   5 -18   2 394.969 27.5341   2
 -18  13   2 408.846 24.8049   2
   5  13  -2 384.058 26.2207   3
  13   5   2 407.320 25.5642   3
  13 -18  -2 382.735 23.8271   2
  18 -13  -2 362.770 23.4456   3
 -13  -5  -2 356.072 26.3228   2
 -13  -5  -2 386.367 24.3464   4
  18  -5   2 403.698 25.1604   4
  18 -13  -2 341.875 29.7661   4
 -13  -5  -2 380.001 27.1767   5
  -5 -13   2 402.178 31.6753   2
 -13  18   2 377.154 22.4596   5
  18  -5   2 412.318 24.8992   2
  -5 -13   2 434.425 23.5529   4
  -5  18  -2 438.192 26.7973   3
 -13  18   2 387.452 22.6181   3
  -5  18  -2 410.263 33.0479   2
  -5  18  -2 386.973 24.4471   5
 -13  18   2 392.980 27.2273   2
  -5 -13   2 379.261 24.5015   5
   8 -18   2 200.560 24.0598   4
 -18  10   2 192.476 17.1314   2
  10 -18  -2 189.870 16.8231   2
   8 -18   2 212.563 20.1339   2
 -18   8  -2 223.807 23.9482   5
   8  10  -2 193.886 26.5818   2
 -18  10   2 184.649 22.8310   5
 -18  10   2 195.319 25.5348   2
  10 -18  -2 188.451 24.4477   4
  10   8   2 210.316 25.6209   2
  10   8   2 223.346 21.0021   3
   8  10  -2 170.689 21.8718   3
  18 -10  -2 200.087 18.5081   3
 -10  18   2 221.980 22.3879   2
  -8 -10   2 186.320 18.7843   5
  18  -8   2 193.671 19.3800   4
  -8  18  -2 182.419 18.9053   5
 -10  18   2 208.047 17.7224   3
  -8  18  -2 204.309 19.9566   3
 -10  -8  -2 187.015 19.6992   2
 -10  -8  -2 205.222 19.3010   5
  -8  18  -2 190.533 24.9080   2
  -8 -10   2 206.367 24.0773   2
  18 -10  -2 183.142 20.9719   4
 -10  -8  -2 166.231 18.9989   4
 -18   7   2 275.162 25.6582   5
  11   7  -2 276.617 29.8545   2
  11 -18   2 285.184 26.9776   4
   7 -18  -2 261.379 21.2257   2
   7 -18  -2 252.555 26.4761   4
 -18   7   2 287.115 28.0754   2
   7  11   2 265.035 22.0337   3
  11   7  -2 246.915 24.0852   3
 -18  11  -2 272.319 24.9246   5
   7  11   2 296.965 27.7334   2
  11 -18   2 265.486 19.1152   2
  -7  18   2 271.580 23.9263   2
 -11  18  -2 284.346 20.0391   3
  18 -11   2 291.271 24.5670   4
 -11  18  -2 255.852 24.3004   2
  -7 -11  -2 291.060 19.2950   5
 -11  -7   2 250.743 22.0811   5
  18  -7  -2 265.593 21.3719   3
 -11  18  -2 243.369 22.3757   5
  18  -7  -2 267.192 26.6828   2
  -7  18   2 256.678 19.0305   3
 -11  -7   2 266.469 26.8535   2
  -7 -11  -2 266.106 22.9059   2
  18  -7  -2 256.993 21.4884   4
  -7 -11  -2 258.944 22.2717   4
 -18   4   2 155.051 24.3160   2
  14 -18   2 139.296 23.9743   4
   4 -18  -2 128.480 17.7564   2
 -18  14  -2 128.429 18.8327   5
   4  14   2 137.447 20.7747   3
  14   4  -2 136.062 18.4017   3
  14 -18   2 148.848 12.2192   2
 -18   4   2 156.439 22.1010   5
   4 -18  -2 141.243 23.3044   4
  14   4  -2 124.220 23.3193   2
   4  14   2 167.028 25.3350   2
  -4  18   2 132.785 18.3630   3
 -14  -4   2 135.525 22.1619   5
 -14  -4   2 135.336 23.8919   2
  18 -14   2 176.439 23.8563   4
 -14  18  -2 131.687 19.3978   5
  18  -4  -2 134.968 24.0919   2
 -14  18  -2 165.624 17.8739   2
  -4 -14  -2 127.679 21.0385   4
  -4  18   2 156.676 24.0779   2
  18  -4  -2 132.872 19.1652   3
  -4 -14  -2 136.233 19.3756   2
   1 -18  -2 161.208 18.6894   2
  17   1  -2 170.399 19.4645   3
  17   1  -2 158.661 24.8543   2
   1 -18  -2 193.558 24.9571   4
 -18   1   2 138.005 26.5895   2
   1  17   2 169.239 21.3198   3
  17 -18   2 183.871 26.7393   4
 -18   1   2 161.848 24.2582   5
 -18  17  -2 180.718 21.8520   5
  18 -17   2 178.094 27.2543   4
 -17  -1   2 168.828 24.5911   5
 -17  -1   2 157.969 27.2713   2
 -17  18  -2 190.819 21.7576   5
  18  -1  -2 154.382 25.8995   2
  -1 -17  -2 164.271 19.2124   2
  18  -1  -2 181.078 20.3774   3
  -1  18   2 163.312 20.3967   3
  -1 -17  -2 158.155 23.4227   4
 -19  18   2 402.957 27.2402   2
  18   1   2 373.323 31.8016   2
 -19  18   2 354.414 32.3173   2
  18 -19  -2 345.927 32.6071   4
 -19   1  -2 324.067 25.7522   2
   1  18  -2 304.026 32.5395   3
  18   1   2 414.159 26.2146   3
   1 -19   2 406.048 28.8843   4
   1 -19   2 413.281 30.8767   2
 -19   1  -2 346.757 29.4672   5
 -19  18   2 372.043 27.3704   5
  -1 -18   2 413.519 29.2226   4
  19 -18  -2 387.636 33.4291   4
  -1 -18   2 426.793 25.0743   5
 -18  19   2 354.563 32.0497   2
  -1  19  -2 363.328 41.7061   2
 -18  -1  -2 340.682 23.1923   4
 -18  19   2 397.140 27.4310   5
  19  -1   2 399.308 31.4009   2
 -18  -1  -2 334.865 26.8917   2
 -18  -1  -2 378.236 29.3611   5
  -1  19  -2 333.284 28.0784   3
  19  -1   2 426.434 25.5430   3
 -18  19   2 430.908 28.2925   2
  19 -18  -2 357.730 23.0159   3
  15 -19  -2 258.681 28.1488   4
   4 -19   2 283.085 26.4308   4
   4  15  -2 262.299 25.6652   3
   4  15  -2 214.014 30.6050   2
   4 -19   2 275.798 24.7209   2
  15   4   2 300.181 22.9362   3
 -19   4  -2 219.972 24.8893   5
  15   4   2 287.489 27.9704   2
 -19  15   2 277.048 28.6472   2
 -19  15   2 312.708 25.2956   5
 -19   4  -2 248.658 18.7394   2
 -19  15   2 314.017 22.2604   2
  19  -4   2 295.325 22.0878   4
  -4 -15   2 270.271 20.8613   5
 -15  -4  -2 224.948 20.6854   4
 -15  19   2 284.620 19.3031   3
  19  -4   2 282.520 23.2142   2
  19 -15  -2 277.048 27.3608   4
 -15  -4  -2 246.317 24.4228   5
 -15  -4  -2 244.641 23.0419   2
  -4  19  -2 248.340 20.2831   5
  -4  19  -2 226.441 29.9009   2
 -15  19   2 283.584 22.5080   5
  -4 -15   2 277.191 28.0390   2
  -4  19  -2 234.234 23.4436   3
 -15  19   2 270.669 23.3040   2
  -4 -15   2 299.702 21.9282   4
  19 -15  -2 257.293 19.9931   3
 -19   7  -2 410.720 28.8127   5
 -19  12   2 332.669 30.7205   2
   7  12  -2 379.007 26.2308   3
 -19  12   2 325.758 27.8790   5
  12 -19  -2 361.934 27.9663   4
   7  12  -2 360.245 31.5973   2
 -19  12   2 351.809 23.8602   2
  12   7   2 362.840 25.2155   3
 -19   7  -2 376.207 17.6515   2
   7 -19   2 385.097 29.9591   4
  12 -19  -2 345.533 23.1651   2
   7 -19   2 368.110 26.1660   2
  12   7   2 380.405 30.5733   2
 -12  -7  -2 381.527 24.6563   4
  19  -7   2 373.809 25.5271   4
  -7  19  -2 387.748 24.9733   5
  19 -12  -2 367.404 29.3604   4
  -7 -12   2 372.319 29.9282   2
  -7  19  -2 373.609 31.8640   2
  -7 -12   2 372.842 24.8736   5
 -12  19   2 362.298 22.9006   3
  19 -12  -2 359.654 24.2850   3
  -7  19  -2 391.193 26.6064   3
 -12  19   2 373.066 28.2472   2
 -12  -7  -2 348.364 26.3323   2
 -12  -7  -2 343.751 26.1509   5
 -19   9   2 374.492 28.6784   5
  10 -19   2 347.076 26.2054   2
   9  10   2 327.984 29.2858   2
   9  10   2 326.368 24.9821   3
 -19   9   2 353.369 22.1445   2
 -19  10  -2 349.443 27.0400   5
  10   9  -2 386.979 27.0408   3
   9 -19  -2 365.798 23.1688   2
 -19   9   2 343.234 30.6838   2
  10 -19   2 333.209 29.5512   4
  10   9  -2 330.012 32.9557   2
   9 -19  -2 335.643 28.9918   4
 -10  19  -2 348.940 24.6235   5
 -10  -9   2 348.368 29.7538   2
  19  -9  -2 347.567 23.9011   3
  -9 -10  -2 313.878 25.0063   4
  19  -9  -2 355.609 25.1459   4
  -9  19   2 334.001 26.5155   2
  -9 -10  -2 383.266 26.2360   2
 -10  19  -2 320.068 23.4273   3
  19 -10   2 366.376 26.0831   4
  -9  19   2 361.431 22.0083   3
 -10  19  -2 345.498 29.0676   2
  -9 -10  -2 332.328 23.2816   5
 -10  -9   2 371.847 25.7774   5
 -19   6   2 120.784 24.4026   2
  13 -19   2 87.5516 17.5490   2
 -19   6   2 103.637 18.4691   5
   6 -19  -2 82.5264 16.9585   2
   6  13   2 110.228 24.7999   2
  13   6  -2 134.852 18.6559   3
   6 -19  -2 108.847 17.9815   4
  13 -19   2 121.469 20.1463   4
 -19  13  -2 115.976 20.3424   5
  13   6  -2 120.761 23.8505   2
   6  13   2 113.104 16.3636   3
 -13  19  -2 121.242 20.2187   2
 -13  19  -2 126.100 15.3891   3
 -13  19  -2 130.326 18.5314   5
  19  -6  -2 137.325 18.0030   3
  19 -13   2 95.8485 17.5740   4
  -6 -13  -2 89.6123 16.5363   2
  -6  19   2 88.9464 13.8809   3
  -6  19   2 108.655 20.6323   2
 -13  -6   2 112.576 19.8104   5
  19  -6  -2 115.756 22.9966   2
 -13  -6   2 115.794 21.3636   2
  -6 -13  -2 116.206 19.9933   4
   3 -19  -2 227.097 25.6677   4
 -19   3   2 223.371 26.7711   2
   3 -19  -2 271.142 28.7569   2
  16   3  -2 232.854 23.5012   3
  16 -19   2 248.381 28.6024   4
 -19   3   2 260.409 35.6746   5
   3  16   2 237.697 22.0393   3
 -19  16  -2 202.562 22.9573   5
  16   3  -2 218.195 29.7011   2
  -3 -16  -2 218.050 24.8017   4
  19  -3  -2 240.045 22.1281   3
  19 -16   2 265.297 38.3264   4
  -3  19   2 209.380 27.7039   3
 -16  -3   2 271.462 30.9178   2
  -3 -16  -2 239.123 26.1522   2
  19  -3  -2 223.705 27.9686   2
 -16  19  -2 245.001 19.5476   2
 -16  19  -2 212.645 22.7504   5
 -16  -3   2 253.500 25.6669   5
   0  19   2 293.757 25.8836   3
 -19   0   2 262.720 28.4906   5
   0 -19  -2 345.471 28.8922   4
 -19  19  -2 342.511 26.8701   5
  19 -19   2 339.011 31.5206   4
  20   0   2 281.493 33.8669   2
 -20  20   2 232.909 31.1251   2
  20 -20  -2 224.404 30.0044   4
   0 -20   2 255.437 28.3107   4
 -20   0  -2 195.988 26.4462   5
   0 -20   2 238.467 21.4539   5
 -20  20   2 302.781 25.9206   5
   0  20  -2 203.974 25.6481   3
 -20  20   2 265.045 25.3745   2
   3 -20   2 244.675 25.0795   2
  17   3   2 231.052 21.6343   3
 -20  17   2 203.706 29.0516   2
   3  17  -2 257.687 24.9833   3
 -20  17   2 212.884 21.6632   2
 -20   3  -2 238.579 20.7262   2
  17   3   2 267.335 28.4586   2
 -20  17   2 246.115 25.4469   5
   3 -20   2 248.364 26.8574   4
 -17  20   2 239.816 28.6974   2
  20  -3   2 224.642 20.9983   4
  -3  20  -2 259.812 30.7439   2
 -17  20   2 223.652 23.5348   2
  -3  20  -2 272.052 19.6152   5
 -17  -3  -2 261.262 25.5639   5
 -17  -3  -2 239.771 19.6954   4
  20  -3   2 238.070 26.2465   2
 -17  20   2 267.424 23.3002   5
  -3 -17   2 237.803 20.5487   5
  20 -17  -2 252.483 19.7967   3
  -3  20  -2 236.707 23.8910   3
 -17  20   2 226.801 18.8512   3
 -17  -3  -2 257.529 23.7715   2
  -3 -17   2 267.788 24.1985   4
  20 -17  -2 238.321 28.9639   4
   6 -20   2 176.956 25.8437   4
 -20  14   2 186.492 26.8547   2
   6 -20   2 178.696 21.2400   2
   6  14  -2 232.317 23.8474   3
 -20  14   2 192.985 19.2724   2
  14 -20  -2 214.025 25.6607   4
  14   6   2 200.794 20.7859   3
 -20   6  -2 202.221 24.2826   5
  14   6   2 186.102 26.3693   2
 -20  14   2 193.382 24.7214   5
  14 -20  -2 210.720 18.1246   2
 -20   6  -2 202.731 14.4854   2
  20  -6   2 194.311 19.3183   2
  20 -14  -2 227.750 25.8033   4
  -6  20  -2 225.866 19.5026   5
 -14  -6  -2 197.866 22.8576   5
 -14  20   2 192.535 17.9226   3
  -6  20  -2 204.413 23.0235   3
 -14  -6  -2 208.977 19.2072   4
 -14  -6  -2 198.258 21.8274   2
  -6 -14   2 176.179 19.4496   5
  20 -14  -2 217.335 18.7715   3
 -14  20   2 187.030 23.1928   2
  20  -6   2 177.911 20.1034   4
  -6  20  -2 222.586 28.9025   2
  -6 -14   2 241.879 38.7537   2
   9 -20   2 110.160 20.5250   4
  11 -20  -2 123.380 19.4269   4
  11   9   2 99.4359 16.8062   3
   9 -20   2 98.5703 17.2258   2
 -20  11   2 123.341 19.9066   5
  11   9   2 113.736 22.1175   2
 -20   9  -2 92.4003 17.4605   5
 -20  11   2 106.762 22.1182   2
   9  11  -2 124.165 17.2866   3
  11 -20  -2 131.565 16.9271   2
 -20  11   2 102.239 15.1686   2
 -11  -9  -2 115.999 17.4766   2
  -9  20  -2 142.947 24.1969   2
 -11  20   2 90.8129 20.6796   2
  20  -9   2 91.1060 15.1074   4
  -9 -11   2 88.1717 19.6156   2
 -11  -9  -2 135.211 19.2176   5
  20 -11  -2 107.817 17.1513   3
 -11  -9  -2 109.815 17.8772   4
 -11  20   2 109.654 16.2587   3
  20 -11  -2 130.367 21.7809   4
  -9 -11   2 87.5501 15.3500   5
  -9  20  -2 112.756 17.6537   5
  -9  20  -2 122.996 16.6144   3
 -20  12  -2 93.3950 17.6142   5
  12 -20   2 92.2923 14.8468   2
   8 -20  -2 76.7060 17.4912   4
   8  12   2 70.6434 16.3283   3
   8 -20  -2 97.9781 16.8048   2
   8  12   2 130.769 24.2380   2
  12 -20   2 115.184 20.6207   4
 -20   8   2 115.046 20.6379   5
  12   8  -2 107.915 17.5016   3
 -20   8   2 113.462 21.9605   2
  20  -8  -2 114.645 18.8291   3
  -8  20   2 64.9400 16.4184   2
 -12  20  -2 102.279 18.2494   5
  20  -8  -2 91.8383 16.1414   4
  -8 -12  -2 89.4153 17.9944   2
  -8 -12  -2 111.498 15.9819   5
  20 -12   2 122.544 17.9007   4
  -8 -12  -2 69.9181 13.1696   4
 -12  20  -2 135.364 17.5836   3
 -12  -8   2 60.9607 14.4494   5
  -8  20   2 73.7130 13.2448   3
 -12  -8   2 103.407 23.0703   2
 -12  20  -2 103.512 21.9972   2
   5 -20  -2 10.2142 20.7364   4
 -20   5   2 28.2742 20.4206   5
 -20   5   2 67.2414 18.9699   2
  15   5  -2 32.0150 17.2730   3
  15 -20   2 33.3346 8.00648   2
 -15  20  -2 41.6963 14.1450   2
  -5 -15  -2 23.4144 12.7256   4
 -15  -5   2 30.0267 16.8747   5
  20  -5  -2 43.3211 17.4887   2
 -15  -5   2 45.4902 27.3185   2
  20  -5  -2 36.6918 13.5033   3
 -15  20  -2 39.7389 14.0838   5
 -20  18  -2 19.4924 15.4082   5
  18 -20   2 22.7899 16.8500   4
 -20   2   2 6.50507 18.2876   2
 -20   2   2 0.76907 16.6740   5
   2  18   2 6.78795 13.4204   3
   2 -20  -2 26.0682 15.9125   4
  18   2  -2 -2.2032 12.5666   3
  20 -18   2 53.7489 19.0292   4
  -2  20   2 8.97242 12.8005   3
  -2 -18  -2 21.7411 15.7495   4
 -18  -2   2 17.6535 15.1800   5
  20  -2  -2 16.9305 13.8171   3
 -21  19   2 47.4941 20.7258   2
  19 -21  -2 53.3211 18.6276   4
 -21  19   2 51.5942 16.1446   5
  19   2   2 74.5099 15.5640   3
   2 -21   2 84.2618 17.8690   4
   2  19  -2 75.8702 17.6356   3
 -21  19   2 58.3193 14.9440   2
 -21   2  -2 87.5431 19.6315   5
  19   2   2 65.5953 20.3550   2
 -19  -2  -2 57.5907 17.8583   4
  21 -19  -2 55.0363 19.4919   4
 -19  21   2 103.813 22.2345   2
 -19  21   2 88.6743 17.4606   5
 -19  21   2 49.6536 11.7334   3
 -19  -2  -2 71.9682 19.1805   5
  -2  21  -2 64.7751 16.1996   3
 -19  -2  -2 97.2997 17.7614   2
  21 -19  -2 72.2589 12.7496   3
  -2 -19   2 85.7223 14.8081   5
  -2 -19   2 90.2838 16.4588   4
  16 -21  -2 202.065 28.5897   4
  16   5   2 241.867 22.5816   3
 -21  16   2 215.385 20.9860   2
 -21  16   2 231.554 28.8027   2
 -21   5  -2 200.087 24.8308   5
  16   5   2 187.871 27.9391   2
   5  16  -2 196.597 24.7867   3
 -21  16   2 217.554 26.1147   5
   5 -21   2 237.749 23.5065   2
   5 -21   2 251.867 26.6779   4
  -5  21  -2 228.602 24.0871   3
  -5  21  -2 241.009 20.2209   5
 -16  21   2 203.653 24.5365   2
 -16  -5  -2 247.124 25.4820   5
  -5  21  -2 225.513 31.2774   2
 -16  -5  -2 195.438 20.0764   4
 -16  21   2 222.641 18.7495   3
  21 -16  -2 196.502 19.8182   3
  -5 -16   2 240.905 21.0243   5
  21  -5   2 220.998 22.2625   4
  21 -16  -2 227.124 29.1971   4
  13   8   2 30.5027 16.8039   2
   8 -21   2 23.4724 12.6009   2
   8 -21   2 8.96836 15.1594   4
 -21  13   2 15.5652 16.7663   5
  13 -21  -2 8.39453 10.3869   2
   8  13  -2 18.7224 15.1802   3
  13   8   2 21.3130 13.1930   3
  13 -21  -2 5.58487 14.4207   4
 -21  13   2 12.4286 10.2706   2
 -21   8  -2 12.3444 14.5588   5
 -21  13   2 7.30240 17.0281   2
  -8  21  -2 14.5093 17.8259   2
 -13  -8  -2 0.67715 10.2141   4
  21  -8   2 17.0178 13.8658   4
 -13  21   2 41.0562 12.0379   3
  -8  21  -2 16.2457 14.4587   3
  -8  21  -2 13.4282 11.6772   5
 -13  -8  -2 -7.3459 11.1987   2
  21 -13  -2 -2.4090 10.7205   3
  -8 -13   2 21.3403 12.7550   5
  21 -13  -2 0.18871 15.6376   4
 -13  21   2 21.6971 14.3559   2
 -13  -8  -2 8.77401 13.7620   5
  10 -21  -2 240.919 28.2046   4
  11  10  -2 268.327 24.7310   3
  10  11   2 245.598 23.2969   3
 -21  11  -2 249.608 25.1574   5
  10 -21  -2 232.157 19.8508   2
  10  11   2 222.359 28.6139   2
 -21  10   2 222.462 19.5416   2
  11 -21   2 206.996 20.7336   2
 -21  10   2 230.387 26.6440   5
  11 -21   2 264.849 29.8828   4
 -21  10   2 209.897 28.8201   2
  21 -10  -2 238.028 21.1072   3
 -10 -11  -2 266.930 21.9129   5
 -11  21  -2 267.958 28.3461   2
 -10 -11  -2 275.671 22.5900   4
 -11 -10   2 249.781 23.7561   5
 -11  21  -2 251.719 22.6114   3
  21 -11   2 220.450 24.1460   4
  21 -10  -2 277.843 25.4435   4
 -10 -11  -2 229.733 23.2215   2
 -11  21  -2 294.570 21.7660   5
 -10  21   2 230.235 21.0170   3
  14 -21   2 304.434 20.8972   2
   7  14   2 277.396 27.4085   3
  14   7  -2 336.729 25.1051   3
 -21   7   2 324.270 29.8679   5
 -21   7   2 266.623 30.7414   2
 -21  14  -2 356.528 26.9718   5
  14 -21   2 294.946 31.0669   4
   7 -21  -2 303.156 28.8308   4
  21  -7  -2 273.291 30.1463   2
  -7  21   2 299.440 22.3985   3
  -7 -14  -2 317.717 25.7574   4
 -14  21  -2 341.526 29.4769   2
  21 -14   2 333.910 28.9399   4
  21  -7  -2 314.337 24.3139   3
 -14  21  -2 353.712 25.8361   5
  17   4  -2 223.830 21.9423   3
 -21   4   2 214.250 28.4890   2
 -21  17  -2 221.568 24.2302   5
   4 -21  -2 249.489 27.4122   4
   4  17   2 202.354 23.5400   3
 -21   4   2 184.739 24.7934   5
  17 -21   2 195.287 29.1520   4
  21  -4  -2 231.902 22.7341   3
  -4 -17  -2 222.349 24.9521   4
 -17  21  -2 197.594 26.9762   5
  -4  21   2 218.905 22.5090   3
  21 -17   2 210.992 29.2011   4
 -17  -4   2 200.135 26.4762   5
  20 -21   2 160.868 23.5929   4
  20   1  -2 153.955 23.0039   3
 -21  20  -2 159.027 23.1567   5
 -21   1   2 144.144 23.8218   5
   1  20   2 134.280 20.4202   3
   1 -21  -2 169.692 25.7905   4
  21 -20   2 192.079 28.9991   4
  -1 -20  -2 132.072 20.4831   4
  21  -1  -2 190.081 22.7229   3
 -20  21  -2 165.429 23.6521   5
  -1  21   2 140.498 23.6084   3
 -20  -1   2 152.010 23.0651   5
   1 -22   2 -4.7915 11.9493   5
 -22   1  -2 6.17185 17.6156   5
  21 -22  -2 21.5367 20.0564   4
 -22  21   2 9.92762 16.6139   5
   1  21  -2 0.42182 15.2071   3
   1 -22   2 10.7490 17.7573   4
  -1 -21   2 -0.3257 15.5419   4
  22 -21  -2 -7.8779 18.7514   4
  -1 -21   2 20.9190 12.7007   5
 -21  22   2 2.22736 12.0229   3
  22  -1   2 11.3697 11.9476   4
 -21  -1  -2 -0.1791 15.1445   5
  -1  22  -2 -10.844 16.1747   3
 -21  22   2 37.6609 17.1597   5
 -22  18   2 28.1399 20.8931   2
   4  18  -2 16.6391 15.9691   3
 -22  18   2 32.5013 13.4956   2
  18   4   2 29.0258 19.2366   2
  18 -22  -2 18.2339 18.2333   4
 -22  18   2 34.5536 16.5030   5
 -22   4  -2 30.6100 17.1295   5
   4 -22   2 20.2370 16.4721   4
  18   4   2 39.2915 14.7051   3
  22  -4   2 29.8184 13.1839   4
  -4  22  -2 30.4806 15.5773   3
  -4 -18   2 28.7811 13.0375   5
  22 -18  -2 32.2950 11.4966   3
  -4  22  -2 40.1761 12.5557   5
 -18  -4  -2 14.5253 13.8261   2
 -18  -4  -2 53.4383 17.6829   5
 -18  22   2 11.4614 12.6367   3
 -22  15   2 126.538 18.7924   2
 -22  15   2 113.749 26.7601   2
   7 -22   2 115.989 19.3451   4
 -22  15   2 136.581 24.6704   5
   7 -22   2 140.896 21.5141   2
  15 -22  -2 95.3551 18.0531   4
  15   7   2 166.237 22.1948   3
  15   7   2 144.418 27.7828   2
   7  15  -2 90.7097 17.3438   3
 -22   7  -2 131.382 23.8584   5
  15 -22  -2 130.507 16.8617   2
  22 -15  -2 138.248 18.4155   3
  22 -15  -2 114.472 21.5999   4
 -15  -7  -2 124.795 18.1564   4
  -7  22  -2 153.885 20.0955   3
  22  -7   2 151.748 21.2264   4
  -7  22  -2 123.277 18.8927   5
  -7 -15   2 128.735 20.1561   5
 -15  -7  -2 115.408 19.3795   5
  -7  22  -2 116.892 25.3810   2
 -15  -7  -2 92.3208 19.8652   2
 -15  22   2 154.386 17.8497   3
  10  12  -2 160.619 22.9725   3
 -22  12   2 121.470 23.1764   5
  12  10   2 157.999 22.0991   3
 -22  10  -2 162.365 24.1819   5
 -22  12   2 140.578 28.0343   2
  10 -22   2 159.776 34.0881   4
  10 -22   2 175.739 20.5791   2
 -22  12   2 185.798 18.2802   2
  12 -22  -2 169.061 26.1992   4
 -10  22  -2 149.251 22.9098   3
 -10  22  -2 166.498 29.2436   2
 -12 -10  -2 161.246 21.4467   5
 -10 -12   2 165.968 21.4618   5
  22 -12  -2 161.707 19.4226   3
  22 -10   2 172.075 24.0284   4
  22 -12  -2 152.400 20.8364   4
 -12 -10  -2 186.918 20.5115   4
 -12 -10  -2 130.289 20.9117   2
 -10  22  -2 170.129 20.3539   5
   9  13   2 93.8213 17.7529   3
 -22  13  -2 114.697 20.0191   5
  13   9  -2 98.9953 17.1145   3
 -22   9   2 133.492 27.3043   2
  13 -22   2 95.6502 21.2266   4
 -22   9   2 118.402 21.7094   5
  13 -22   2 116.050 16.7516   2
   9 -22  -2 101.751 20.3666   4
  22  -9  -2 114.025 16.3962   3
 -13  22  -2 123.646 25.9850   2
 -13  22  -2 110.437 19.2761   5
  -9  22   2 95.1686 15.8199   3
  22 -13   2 116.494 18.9587   4
  -9 -13  -2 102.565 16.2599   4
 -13  -9   2 85.7182 17.5629   5
   6  16   2 71.9985 17.5709   3
  16 -22   2 90.8544 20.9049   4
 -22   6   2 26.9199 19.2112   2
 -22  16  -2 65.8981 17.8300   5
   6 -22  -2 36.2969 15.4291   4
 -22   6   2 64.9515 20.0977   5
  16   6  -2 39.3020 16.0210   3
  22  -6  -2 81.6894 15.4099   3
  -6  22   2 64.7274 15.1992   3
 -16  22  -2 65.2907 18.3559   5
 -16  -6   2 77.6670 18.7745   5
  -6 -16  -2 41.8823 13.9907   4
  22 -16   2 63.1945 17.3000   4
   3 -22  -2 162.241 26.6451   4
   3  19   2 190.335 22.9898   3
  19   3  -2 178.362 24.1858   3
 -22  19  -2 176.259 22.9843   5
  19 -22   2 215.812 28.5538   4
 -22   3   2 224.154 27.3128   5
  -3 -19  -2 210.957 26.8642   4
  -3  22   2 193.919 21.9522   3
  22  -3  -2 170.372 23.0946   3
  22 -19   2 225.690 29.0262   4
 -19  22  -2 175.453 24.2002   5
 -19  -3   2 197.703 24.3182   5
 -22  22  -2 359.712 30.5779   5
  22   0  -2 372.130 29.4951   3
 -22   0   2 369.162 32.3840   5
  22 -22   2 396.492 35.5236   4
   0  22   2 382.400 29.3140   3
   0 -22  -2 384.612 32.9223   4
 -23  23   2 75.5354 15.1847   3
   0  23  -2 91.4424 19.8074   3
 -23  23   2 140.894 23.9806   5
   0 -23   2 111.350 21.1261   4
   0 -23   2 89.6032 16.7024   5
  23   0   2 136.741 21.7458   4
 -23   0  -2 124.772 22.5332   5
  23 -23  -2 118.962 25.2902   4
   3  20  -2 16.5117 15.3324   3
  20 -23  -2 16.9578 19.1894   4
   3 -23   2 2.88274 18.8468   4
 -23   3  -2 26.0355 16.8637   5
  20   3   2 49.4767 16.5016   3
  23 -20  -2 33.8096 19.9635   4
 -20  -3  -2 23.3519 15.7352   5
  -3 -20   2 13.3254 14.2579   5
  -3  23  -2 20.9188 16.7061   3
 -20  23   2 8.42718 12.0604   3
  23  -3   2 14.7663 13.5828   4
 -20  -3  -2 28.4692 11.0917   4
 -23   6  -2 0.52118 16.3386   5
 -23  17   2 11.6168 20.1693   2
  17 -23  -2 -2.0280 15.8407   4
  17   6   2 19.4983 14.9544   3
 -23  17   2 5.17522 18.0296   5
 -23  17   2 -9.4848 11.4416   2
   6  17  -2 18.1108 15.0551   3
  23 -17  -2 -8.0143 18.4690   4
 -17  -6  -2 5.22475 12.7607   2
 -17  -6  -2 7.76583 11.3521   4
  -6  23  -2 6.81471 11.9332   5
  23 -17  -2 12.6028 11.7473   3
  23  -6   2 2.06513 13.3559   4
 -17  -6  -2 6.71665 16.3483   5
  -6  23  -2 11.3344 16.9800   3
 -17  23   2 20.3417 12.6622   3
 -23  14   2 111.772 18.1063   2
 -23  14   2 173.101 30.9338   2
  14 -23  -2 143.144 24.5472   4
 -23   9  -2 131.496 23.8239   5
   9 -23   2 103.860 20.0930   4
   9  14  -2 122.660 19.1297   3
   9 -23   2 153.099 21.1492   2
  14   9   2 146.066 24.5976   3
 -23  14   2 188.875 25.6614   5
 -14  -9  -2 171.947 24.1180   5
  23  -9   2 153.436 23.8856   4
  -9  23  -2 174.346 19.9144   5
  -9  23  -2 151.920 24.2136   3
  -9 -14   2 121.865 21.6237   5
 -14  -9  -2 155.723 24.6725   4
 -14  23   2 132.065 18.7400   3
  23 -14  -2 179.455 24.4821   4
  23 -14  -2 128.662 18.1371   3
  -9  23  -2 150.641 32.0324   2
 -23  11   2 258.397 32.9235   2
 -23  12  -2 255.661 26.3151   5
  11  12   2 238.568 25.0523   3
  12 -23   2 234.040 22.7050   2
 -23  11   2 213.291 21.0713   2
  12  11  -2 302.463 26.9468   3
  12 -23   2 259.072 32.2496   4
 -23  11   2 253.119 28.2768   5
  11 -23  -2 247.994 26.7045   4
  23 -12   2 259.858 28.6270   4
 -12  23  -2 290.499 32.3932   2
 -12 -11   2 228.692 24.8341   5
 -12  23  -2 258.363 25.1125   3
 -11  23   2 210.184 20.4549   3
  23 -11  -2 252.185 21.8737   3
 -12  23  -2 263.960 24.0658   5
 -23  15  -2 140.949 22.3279   5
  15   8  -2 113.290 18.5442   3
   8 -23  -2 90.9857 17.9355   4
 -23   8   2 101.374 20.3912   5
 -23   8   2 67.4083 20.5161   2
  15 -23   2 136.918 23.0632   4
   8  15   2 127.380 19.2897   3
  23 -15   2 125.768 20.1815   4
 -15  23  -2 127.121 26.4990   5
  -8  23   2 118.421 19.6886   3
  23  -8  -2 146.817 21.2555   3
  -8 -15  -2 132.846 22.0333   4
 -15  -8   2 97.9717 19.1589   5
 -23  18  -2 68.5210 17.5261   5
   5  18   2 29.3706 16.9274   3
  18 -23   2 59.3330 20.8592   4
 -23   5   2 34.0875 17.6316   5
  18   5  -2 48.1112 15.2767   3
   5 -23  -2 67.0642 18.2166   4
  23 -18   2 69.2535 21.1620   4
  -5 -18  -2 31.1398 14.5727   4
  -5  23   2 50.3686 15.1920   3
 -18  -5   2 40.6292 17.0551   5
  23  -5  -2 49.9125 15.0938   3
 -18  23  -2 55.4021 15.9609   5
   2 -23  -2 102.853 20.5979   4
   2  21   2 93.1799 18.2114   3
  21 -23   2 91.8962 21.5114   4
 -23   2   2 79.9836 19.9085   5
  21   2  -2 101.087 18.1429   3
 -23  21  -2 133.380 20.9082   5
  -2 -21  -2 94.2610 19.4800   4
  23 -21   2 114.010 20.6393   4
 -21  23  -2 114.658 20.6040   5
 -21  -2   2 80.8455 19.8437   5
  -2  23   2 46.9208 15.5969   3
  23  -2  -2 87.5532 17.1333   3
  22 -24  -2 185.894 26.4777   4
   2  22  -2 159.678 25.2693   3
 -24  22   2 114.948 22.2133   5
 -24   2  -2 146.513 27.2003   5
   2 -24   2 117.234 21.4666   5
   2 -24   2 128.647 24.0068   4
 -24  22   2 145.049 19.9351   3
 -22  -2  -2 197.197 27.2269   5
 -22  24   2 158.076 21.3465   3
  24  -2   2 121.312 17.7127   4
  -2  24  -2 159.378 25.9324   3
  -2 -22   2 136.026 22.3772   5
  24 -22  -2 155.217 25.1212   4
 -24   5  -2 29.7416 16.1618   5
  19   5   2 19.7803 16.9913   3
  19 -24  -2 8.62671 16.8802   4
 -24  19   2 36.3700 17.3135   5
   5 -24   2 21.9006 18.6282   4
   5  19  -2 37.8808 15.8445   3
  24 -19  -2 1.99498 19.4879   4
 -19  -5  -2 7.04463 16.4797   5
  24  -5   2 8.78300 14.5152   4
 -19  24   2 -3.9627 12.6744   3
  -5  24  -2 25.7689 13.8850   5
  -5 -19   2 22.3282 13.9863   5
 -19  -5  -2 22.2836 11.1549   4
  -5  24  -2 10.5963 15.6346   3
  16 -24  -2 8.22659 18.2233   4
 -24  16   2 0.60200 21.7369   2
 -24  16   2 8.95212 12.6719   2
   8 -24   2 23.2891 18.2351   4
 -24   8  -2 -13.070 16.0695   5
   8  16  -2 19.6313 16.0245   3
 -24  16   2 19.6957 17.9457   5
  16   8   2 6.01611 15.1164   3
  -8  24  -2 1.55199 13.0336   5
  -8  24  -2 -3.6737 23.6820   3
 -16  -8  -2 -4.8394 15.9744   5
 -16  24   2 13.8536 11.7507   3
  24 -16  -2 -1.4062 19.5708   4
  -8 -16   2 4.49179 14.0432   5
  24 -16  -2 3.67018 12.5203   3
  24  -8   2 8.42796 15.7792   4
 -16  -8  -2 3.23703 11.7680   4
 -24  13   2 81.8572 20.3884   5
 -24  11  -2 100.491 20.2359   5
 -24  13   2 87.4148 24.1079   2
 -24  13   2 52.8419 13.8897   2
  11 -24   2 54.6958 14.0344   2
  11 -24   2 85.6789 20.1931   4
  13 -24  -2 66.1833 17.9714   4
  11  13  -2 105.298 19.0979   3
  13  11   2 117.122 19.2134   3
 -11 -13   2 97.3836 17.7333   5
 -13 -11  -2 119.518 21.9669   5
  24 -13  -2 100.615 20.8925   4
 -11  24  -2 119.810 32.9210   2
  24 -13  -2 100.596 16.6390   3
  24 -11   2 95.6850 17.3326   4
 -11  24  -2 116.763 20.8524   5
 -13  24   2 62.4051 14.0826   3
 -13 -11  -2 83.0542 14.6983   4
 -11  24  -2 101.717 19.4615   3
  14  10  -2 332.670 28.0230   3
  14 -24   2 258.673 33.1754   4
 -24  14  -2 249.905 26.9193   5
  10  14   2 321.689 27.2607   3
  10 -24  -2 283.063 30.1489   4
 -24  10   2 270.577 29.2503   5
  24 -10  -2 274.228 25.3565   3
 -10  24   2 297.555 24.3977   3
  24 -14   2 305.037 28.8077   4
 -10 -14  -2 312.663 26.0666   4
 -14 -10   2 270.522 28.0684   5
 -24   7   2 169.853 27.8743   5
 -24  17  -2 152.536 24.4806   5
  17 -24   2 224.965 31.7131   4
  17   7  -2 151.851 23.8898   3
   7 -24  -2 167.534 27.0112   4
   7  17   2 166.295 25.4893   3
  -7 -17  -2 140.239 23.5055   4
 -17  24  -2 161.955 23.3158   5
  -7  24   2 166.910 20.6979   3
 -17  -7   2 154.920 25.8895   5
  24  -7  -2 141.346 22.0281   3
  24 -17   2 197.131 29.4769   4
   4 -24  -2 113.691 20.2479   4
  20 -24   2 109.486 21.3225   4
   4  20   2 102.027 19.1841   3
 -24   4   2 121.544 21.5492   5
  20   4  -2 150.804 24.7281   3
 -24  20  -2 86.9381 17.8020   5
  -4  24   2 104.105 18.0543   3
 -20  -4   2 91.3654 19.9044   5
  -4 -20  -2 88.1398 19.4078   4
 -20  24  -2 116.037 20.3204   5
  24  -4  -2 115.140 18.7324   3
  24 -20   2 119.675 22.1064   4
 -24  23  -2 15.1143 16.9890   5
   1  23   2 14.9561 17.5864   3
   1 -24  -2 33.2512 17.2960   4
  23   1  -2 21.2520 16.0218   3
  23 -24   2 37.4489 20.2459   4
 -24   1   2 14.1948 18.4536   5
  24 -23   2 18.9212 18.6103   4
 -23  -1   2 5.42814 17.4248   5
  -1 -23  -2 30.1210 17.3805   4
  24  -1  -2 24.4027 16.9939   3
  -1  24   2 15.7954 16.0274   3
 -23  24  -2 18.1226 17.2525   5
 -25   1  -2 31.3763 19.8922   5
   1  24  -2 8.53174 17.2501   3
 -25  24   2 32.4264 15.2104   3
  24   1   2 37.9004 16.0547   4
   1 -25   2 45.1179 28.1729   4
  24 -25  -2 25.9558 22.6101   4
  25  -1   2 37.1654 16.2279   4
 -24  25   2 37.7131 15.4730   3
 -24  -1  -2 10.6068 18.4332   5
  -1 -24   2 6.06054 15.5665   5
  25 -24  -2 37.2354 22.3227   4
  -1  25  -2 -7.0619 18.1200   3
   4 -25   2 62.7571 22.6961   4
  21   4   2 35.8292 16.8290   3
   4  21  -2 68.4974 18.3975   3
 -25  21   2 43.5583 20.0073   5
 -25   4  -2 79.3970 20.1042   5
  21 -25  -2 50.1040 21.5925   4
  -4 -21   2 50.7535 16.5110   5
  25 -21  -2 47.5937 23.0508   4
  -4  25  -2 85.1464 20.4575   3
 -21  -4  -2 64.3145 13.2797   4
 -21  -4  -2 56.0536 20.0844   5
  25  -4   2 43.9077 16.6549   4
 -21  25   2 66.0644 15.2557   3
  18   7   2 89.6555 18.0835   3
   7 -25   2 110.031 21.1194   4
  18 -25  -2 62.3287 21.0728   4
   7  18  -2 73.6182 18.6466   3
 -25  18   2 61.0143 19.0205   5
 -25   7  -2 76.6209 19.1253   5
 -18  25   2 69.0165 14.0751   3
  -7 -18   2 94.7794 18.1286   5
 -18  -7  -2 93.5323 20.8179   5
 -18  -7  -2 59.5095 13.0538   4
  25  -7   2 59.7922 17.0489   4
  -7  25  -2 102.751 19.6975   3
  -7  25  -2 81.3548 19.3939   5
  25 -18  -2 65.7507 22.3527   4
  25 -18  -2 66.3122 14.7777   3
 -25  10  -2 58.9763 18.0701   5
 -25  15   2 73.8934 19.4558   5
  10 -25   2 67.3553 19.3481   4
  15 -25  -2 86.8468 20.2805   4
  10  15  -2 62.8414 16.2734   3
  15  10   2 94.3002 19.4920   3
  25 -15  -2 42.6847 22.0506   4
  25 -10   2 42.6023 17.0497   4
 -15  25   2 88.6336 16.1520   3
 -10  25  -2 81.0658 19.4584   3
 -10 -15   2 60.1432 16.9823   5
 -15 -10  -2 93.6278 19.7484   5
 -15 -10  -2 62.4769 13.3964   4
  13 -25   2 169.254 25.3888   4
  12  13   2 169.836 24.7258   3
 -25  12   2 152.024 23.5660   5
  12 -25  -2 94.7328 18.4780   4
 -25  13  -2 147.702 24.4242   5
  13  12  -2 167.860 22.1264   3
  25 -12  -2 154.436 24.1157   3
 -12 -13  -2 146.064 21.7632   4
 -13 -12   2 147.865 24.8525   5
 -13  25  -2 171.055 23.8153   5
 -12  25   2 176.655 21.7117   3
  25 -13   2 183.456 23.5031   4
 -25  16  -2 33.3724 15.8234   5
   9  16   2 44.9126 17.7458   3
   9 -25  -2 27.1721 17.9271   4
  16   9  -2 27.8815 15.9050   3
 -25   9   2 32.7162 17.7300   5
  16 -25   2 37.0716 21.0000   4
  25 -16   2 38.1983 19.7364   4
 -16  25  -2 52.4862 17.4357   5
  -9 -16  -2 33.8499 15.5551   4
  25  -9  -2 51.7016 15.7845   3
 -16  -9   2 40.9752 18.7494   5
  -9  25   2 17.3429 15.4426   3
   6  19   2 47.8330 17.5831   3
 -25   6   2 32.9985 18.6202   5
 -25  19  -2 34.3674 15.9376   5
  19 -25   2 58.5134 22.3303   4
  19   6  -2 42.1763 15.8605   3
   6 -25  -2 46.3112 19.1965   4
  25 -19   2 62.7486 21.7573   4
 -19  25  -2 26.1820 17.4423   5
  -6  25   2 31.5987 15.9381   3
  -6 -19  -2 40.8457 17.1788   4
  25  -6  -2 45.8514 16.8782   3
 -19  -6   2 31.1267 18.7278   5
   3 -25  -2 91.2450 20.9426   4
  22 -25   2 108.607 23.9866   4
 -25   3   2 83.1870 20.6520   5
  22   3  -2 64.4732 17.6013   3
   3  22   2 70.3971 18.5729   3
 -25  22  -2 80.8497 19.8629   5
  -3 -22  -2 69.8815 19.2392   4
  25  -3  -2 70.2456 17.7542   3
  25 -22   2 74.0197 21.6946   4
  -3  25   2 61.7389 16.7812   3
 -22  25  -2 76.3476 19.4164   5
 -22  -3   2 62.0066 19.1853   5
 -25  25  -2 64.6455 20.5191   5
  25 -25   2 12.0180 19.3146   4
  25   0  -2 19.6665 17.1547   3
   0  25   2 -3.6540 17.4358   3
 -25   0   2 32.0756 19.1890   5
   0 -25  -2 16.9752 20.2006   4
  26   0   2 181.846 29.3677   4
 -26   0  -2 159.026 29.3410   5
  26 -26  -2 128.862 25.4887   4
   0  26  -2 157.623 25.2741   3
 -26  23   2 204.496 31.4596   5
 -26   3  -2 266.098 29.5075   5
  23 -26  -2 256.451 34.9870   4
  23   3   2 227.596 25.5745   4
   3  23  -2 263.566 29.3491   3
 -26  23   2 203.575 23.1170   3
   3 -26   2 297.730 38.7290   4
  26 -23  -2 231.119 35.8701   4
  26  -3   2 237.699 28.0222   4
 -23  26   2 203.834 24.3052   3
 -23  -3  -2 302.644 31.8526   5
  -3  26  -2 249.743 29.9834   3
  -3 -23   2 198.067 27.3809   5
  20 -26  -2 36.2974 19.9069   4
   6  20  -2 63.4225 18.3398   3
 -26   6  -2 88.7489 21.1318   5
   6 -26   2 80.3517 22.5956   4
  20   6   2 67.8113 18.7305   3
 -26  20   2 65.7735 19.8661   5
 -20  26   2 55.7871 15.6496   3
  26 -20  -2 59.3295 22.8948   4
  26  -6   2 35.4616 17.1467   4
  -6 -20   2 65.3845 17.4552   5
 -20  -6  -2 69.2353 18.9813   5
  26 -20  -2 48.0437 14.3726   3
 -20  -6  -2 53.4538 13.0702   4
  -6  26  -2 32.9236 18.5918   3
  17 -26  -2 86.8783 19.2575   4
 -26  17   2 163.091 27.1757   5
 -26   9  -2 150.786 26.0292   5
  17   9   2 154.316 25.1061   3
   9  17  -2 118.315 19.5878   3
   9 -26   2 92.2348 21.3906   4
 -17  -9  -2 155.811 27.2605   5
  26  -9   2 154.204 22.2633   4
  26 -17  -2 130.227 26.2334   4
  26 -17  -2 103.594 17.0313   3
 -17  -9  -2 154.509 22.2431   4
  -9  26  -2 159.216 26.9582   3
  -9 -17   2 103.819 19.0730   5
 -17  26   2 155.370 21.5810   3
  -9  26  -2 158.041 22.1452   5
  14  12   2 212.404 26.6744   3
 -26  12  -2 190.953 25.9344   5
 -26  14   2 212.985 28.2484   5
  12  14  -2 193.434 26.2816   3
  12 -26   2 257.705 33.4686   4
  14 -26  -2 144.136 22.4136   4
 -14  26   2 183.531 23.4066   3
 -12  26  -2 196.326 27.6919   3
 -12 -14   2 185.227 26.5280   5
 -12  26  -2 245.857 24.0770   5
  26 -12   2 175.223 29.5066   4
 -14 -12  -2 203.477 23.0193   4
  26 -14  -2 239.532 41.0625   4
  26 -14  -2 192.454 24.3229   3
 -26  15  -2 143.583 22.2508   5
  15  11  -2 201.299 26.0157   3
 -26  11   2 185.227 28.3891   5
  11 -26  -2 114.313 19.7997   4
  15 -26   2 195.550 26.3536   4
  11  15   2 179.182 25.4700   3
 -15 -11   2 168.511 26.8704   5
 -15  26  -2 173.282 24.0008   5
 -11 -15  -2 165.296 23.5819   4
  26 -11  -2 206.937 23.8176   3
  26 -15   2 188.817 29.1551   4
 -11  26   2 149.643 23.2786   3
 -26  18  -2 0.05298 15.1460   5
  18   8  -2 4.99747 15.5446   3
 -26   8   2 11.6703 17.1268   5
   8  18   2 11.6941 17.5416   3
   8 -26  -2 1.93981 16.8713   4
  18 -26   2 16.8968 20.2594   4
 -18  26  -2 10.1715 16.5721   5
  26 -18   2 5.64066 20.0259   4
  26  -8  -2 18.4870 17.1062   3
 -18  -8   2 -3.4970 16.9507   5
  -8 -18  -2 3.81572 15.1259   4
  -8  26   2 4.36244 15.7234   3
  21   5  -2 135.081 21.7653   3
 -26   5   2 149.742 24.2875   5
   5 -26  -2 107.917 20.5572   4
  21 -26   2 122.383 24.1635   4
   5  21   2 167.145 27.0823   3
 -26  21  -2 143.243 24.5394   5
  -5  26   2 136.137 22.2389   3
 -21  -5   2 134.652 23.4893   5
  26 -21   2 173.403 25.3379   4
  26  -5  -2 150.839 25.4453   3
  -5 -21  -2 101.931 19.2014   4
 -21  26  -2 112.522 19.8526   5
 -26  24  -2 1.35438 17.9395   5
  24 -26   2 27.2615 22.5441   4
  24   2  -2 25.0400 17.0512   3
   2  24   2 -10.703 15.8701   3
   2 -26  -2 9.74066 18.3670   4
 -26   2   2 6.73281 18.1697   5
 -24  26  -2 15.0541 19.0324   5
  26 -24   2 13.1592 20.9398   4
  26  -2  -2 15.4548 17.6592   3
  -2  26   2 -13.941 17.9936   3
  -2 -24  -2 5.24111 19.2683   4
 -24  -2   2 12.8026 19.2023   5
   2  25  -2 39.3496 18.8319   3
  25   2   2 45.4922 18.2129   4
  25 -27  -2 134.304 26.9190   4
   2 -27   2 72.6659 26.6667   4
 -27   2  -2 60.7168 20.0603   5
 -25  27   2 92.3411 20.1775   3
  27 -25  -2 95.6140 26.1696   4
  27  -2   2 66.6629 18.2886   4
  -2  27  -2 91.4247 22.4161   3
 -25  -2  -2 92.5231 21.0887   5
 -27  22   2 60.5415 21.9002   5
  22   5   2 53.4464 19.6871   3
   5 -27   2 22.3383 23.2339   4
 -27   5  -2 49.2595 21.1738   5
  22 -27  -2 48.3479 22.6923   4
   5  22  -2 52.3928 19.8056   3
 -22  -5  -2 50.1842 20.5865   5
  27  -5   2 50.7070 18.8528   4
  -5 -22   2 40.0992 18.8588   5
  -5  27  -2 101.676 23.2431   3
 -22  27   2 65.1600 16.9479   3
  27 -22  -2 49.0362 24.6088   4
  19   8   2 24.8160 17.6897   3
   8 -27   2 8.86152 21.3804   4
  19 -27  -2 -1.6217 17.4858   4
 -27   8  -2 22.5515 19.5401   5
   8  19  -2 -3.4504 15.8565   3
 -27  19   2 31.0444 20.5186   5
  27 -19  -2 -5.2298 22.2469   4
  -8 -19   2 -4.4705 15.8939   5
 -19  27   2 39.3038 16.3548   3
  -8  27  -2 11.2545 18.7538   3
  -8  27  -2 11.4441 15.0785   5
 -19  -8  -2 -3.0712 17.7558   5
  27  -8   2 -7.6777 16.1612   4
 -19  -8  -2 0.12322 11.7767   4
  16 -27  -2 43.6085 19.4247   4
  16  11   2 61.3096 18.5779   3
  11 -27   2 17.8195 20.6536   4
  11  16  -2 45.5046 17.8058   3
 -27  16   2 25.6766 19.6694   5
 -27  11  -2 36.8915 19.3892   5
 -11  27  -2 47.5254 19.4699   3
 -11 -16   2 6.46828 17.1162   5
 -16  27   2 46.2109 16.9199   3
  27 -16  -2 25.0494 23.5042   4
  27 -16  -2 48.1696 15.9812   3
 -11  27  -2 40.5313 17.2431   5
 -16 -11  -2 41.7912 14.0239   4
  27 -11   2 22.1711 19.4289   4
 -27  14  -2 40.8176 18.0125   5
  13  14   2 69.8266 19.0857   3
  14 -27   2 53.7443 22.9332   4
  13 -27  -2 24.4498 17.0728   4
 -27  13   2 42.7024 20.3895   5
  14  13  -2 34.5371 18.3188   3
  27 -13  -2 46.2211 16.3905   3
 -14  27  -2 26.4787 17.4145   5
 -13 -14  -2 25.1448 15.4098   4
  27 -14   2 22.1554 20.2599   4
 -14 -13   2 26.8334 18.5385   5
 -13  27   2 53.2071 17.4034   3
  10  17   2 41.3099 16.6700   3
  17  10  -2 51.8771 18.2915   3
 -27  17  -2 43.4410 16.2827   5
 -27  10   2 80.0597 22.4747   5
  10 -27  -2 70.1634 17.8963   4
  17 -27   2 83.9821 22.7328   4
  27 -10  -2 62.1894 18.0169   3
 -10  27   2 91.0519 18.7350   3
 -17  27  -2 54.1243 17.8950   5
 -10 -17  -2 43.4652 16.6854   4
 -17 -10   2 51.1910 20.7271   5
  27 -17   2 49.5021 20.3886   4
   7  20   2 48.1290 17.6381   3
 -27  20  -2 83.9142 19.5894   5
  20   7  -2 66.5290 19.1471   3
  20 -27   2 28.5094 21.0391   4
 -27   7   2 73.7363 21.8094   5
   7 -27  -2 52.4701 18.6097   4
 -20  27  -2 58.5374 19.8299   5
 -20  -7   2 51.1866 20.5781   5
  27  -7  -2 59.4343 19.2349   3
  -7 -20  -2 65.9594 19.0453   4
  -7  27   2 54.8271 19.5505   3
  27 -20   2 51.5289 21.0338   4
  23   4  -2 7.88344 18.1982   3
 -27  23  -2 1.86161 18.1803   5
  23 -27   2 16.0950 22.1884   4
   4 -27  -2 -16.422 19.4600   4
   4  23   2 31.8073 19.2861   3
 -27   4   2 17.6726 19.9597   5
  27 -23   2 -10.911 21.1774   4
  -4  27   2 9.70654 17.4513   3
 -23  27  -2 4.10538 16.6000   5
  27  -4  -2 -10.172 16.3343   3
  -4 -23  -2 -14.144 16.6916   4
 -23  -4   2 27.0214 18.9962   5
 -27  26  -2 10.3847 19.3148   5
  26   1  -2 -6.8485 17.4284   3
   1 -27  -2 16.9255 21.4369   4
   1  26   2 10.5407 19.2483   3
 -27   1   2 -10.255 20.6105   5
  26 -27   2 20.1288 22.4191   4
  27 -26   2 28.5341 22.7956   4
 -26  -1   2 22.1093 21.0893   5
  27  -1  -2 7.05303 17.8942   3
  -1 -26  -2 -3.1761 19.8778   4
 -26  27  -2 8.01734 18.4791   5
  -1  27   2 6.98367 18.6618   3
   1  27  -2 12.4407 21.2055   3
 -28   1  -2 16.3244 19.5892   5
  27 -28  -2 6.91046 21.6746   4
  27   1   2 42.3063 20.7695   4
 -27  -1  -2 6.78103 18.7039   5
  28  -1   2 14.4438 20.8473   4
  -1  28  -2 16.0885 21.1881   3
  28 -27  -2 19.8137 25.2538   4
  24 -28  -2 84.8484 24.8466   4
  24   4   2 156.109 25.7605   4
   4  24  -2 108.759 23.2869   3
   4 -28   2 132.136 28.4512   4
 -28   4  -2 130.634 24.6232   5
 -28  24   2 142.668 26.5746   5
  28 -24  -2 129.412 28.1598   4
 -24  28   2 157.463 25.3183   3
 -24  -4  -2 141.542 25.6746   5
  -4  28  -2 137.326 23.9731   3
  28  -4   2 82.0615 21.0817   4
  21   7   2 136.460 23.1512   3
  21 -28  -2 131.710 24.0704   4
 -28  21   2 128.960 23.9812   5
 -28   7  -2 85.4981 21.0259   5
   7  21  -2 149.576 22.6305   3
   7 -28   2 136.792 28.2199   4
 -21  -7  -2 160.866 22.1804   4
 -21  -7  -2 141.244 24.5959   5
  28 -21  -2 80.5349 26.4089   4
 -21  28   2 104.745 19.3400   3
  -7 -21   2 94.9694 21.1830   5
  28  -7   2 86.1191 20.9067   4
  -7  28  -2 89.2384 22.0799   3
 -28  18   2 88.4772 23.2452   5
  18 -28  -2 75.7082 21.5687   4
  10 -28   2 99.2251 24.5531   4
  10  18  -2 106.333 20.2025   3
 -28  10  -2 79.2227 21.2268   5
  18  10   2 105.502 21.0978   3
 -18 -10  -2 89.1393 21.9509   5
  28 -18  -2 125.180 27.6284   4
 -18 -10  -2 79.8441 16.5857   4
 -10  28  -2 92.8800 22.4062   3
  28 -10   2 79.2657 21.6865   4
 -18  28   2 85.1150 18.5985   3
 -10 -18   2 68.7362 20.1796   5
  15  13   2 15.3394 17.3308   3
  13 -28   2 1.69661 19.8170   4
  13  15  -2 22.6941 17.0432   3
  15 -28  -2 26.7409 18.9596   4
 -28  15   2 52.0989 21.4314   5
 -28  13  -2 35.6336 16.9900   5
 -13  28  -2 27.2371 17.3758   5
  28 -15  -2 35.5000 21.2302   3
 -15 -13  -2 25.9627 14.5361   4
  28 -13   2 18.6627 19.5382   4
 -15  28   2 33.1312 16.5824   3
 -13 -15   2 48.7486 20.7695   5
  16  12  -2 104.826 19.9668   3
  16 -28   2 54.1924 23.8459   4
  12  16   2 59.3677 17.4705   3
  12 -28  -2 35.7651 17.9968   4
 -28  16  -2 48.1226 16.4989   5
 -28  12   2 61.1826 19.4198   5
 -16 -12   2 56.4134 20.6587   5
  28 -12  -2 85.3201 18.0111   3
 -12  28   2 97.5476 20.1204   3
 -12 -16  -2 74.0417 18.1929   4
  28 -16   2 28.6072 21.3114   4
 -16  28  -2 89.1806 20.3242   5
   9  19   2 49.6286 16.9094   3
   9 -28  -2 41.0851 20.1418   4
  19 -28   2 35.6979 23.4560   4
  19   9  -2 17.3181 15.8334   3
 -28  19  -2 12.6769 16.2174   5
 -28   9   2 51.3275 21.6359   5
  -9 -19  -2 51.7801 18.3791   4
  -9  28   2 46.3106 18.9119   3
  28 -19   2 33.8258 20.4615   4
 -19  -9   2 43.4818 21.7117   5
 -19  28  -2 28.1564 18.4419   5
  28  -9  -2 48.2493 18.7514   3
  22   6  -2 47.5042 18.8227   3
  22 -28   2 81.4898 24.7695   4
   6  22   2 63.4420 18.3348   3
 -28   6   2 19.2113 18.0779   5
 -28  22  -2 56.5867 19.8829   5
   6 -28  -2 67.4657 22.4548   4
 -22  28  -2 34.2814 20.2552   5
  28 -22   2 73.8158 23.2904   4
  -6  28   2 59.7436 18.5485   3
 -22  -6   2 79.0259 22.6641   5
  -6 -22  -2 44.4866 19.8717   4
  28  -6  -2 61.9320 19.3854   3
 -28  25  -2 14.7995 18.1108   5
  25 -28   2 25.5974 22.2186   4
  25   3  -2 31.6931 18.2669   3
   3 -28  -2 19.7048 20.2114   4
 -28   3   2 18.1984 20.2836   5
   3  25   2 10.1042 17.9224   3
 -25  28  -2 14.7118 18.2322   5
  -3  28   2 22.9465 20.5994   3
  -3 -25  -2 30.1163 20.2017   4
  28 -25   2 25.5585 22.0750   4
  28  -3  -2 45.6421 20.4188   3
 -25  -3   2 -14.274 19.1947   5
 -29   3  -2 57.2899 20.9315   5
  26 -29  -2 88.8590 25.3963   4
  26   3   2 51.9820 24.6141   4
   3  26  -2 78.0031 20.8868   3
 -26  -3  -2 91.8882 23.1492   5
  29  -3   2 76.0539 23.0341   4
  29 -26  -2 119.882 28.3079   4
  -3  29  -2 91.9436 23.7425   3
   6  23  -2 130.198 22.7121   3
 -29   6  -2 78.8467 21.3710   5
  23   6   2 77.3400 23.0301   3
   6 -29   2 66.7450 26.2400   4
  23 -29  -2 101.784 23.9378   4
 -29  23   2 85.6794 23.6281   5
  -6  29  -2 81.2721 23.6931   3
 -23  -6  -2 83.5494 21.8781   5
  29  -6   2 77.3196 22.6386   4
  29 -23  -2 98.1660 28.4559   4
  -6 -23   2 104.202 36.3248   5
 -23  29   2 82.4919 20.5812   3
  20   9   2 111.935 23.1569   3
  20 -29  -2 54.9970 19.7455   4
 -29   9  -2 41.9061 18.9972   5
   9 -29   2 42.2582 23.7789   4
 -29  20   2 40.6180 19.8532   5
   9  20  -2 48.1851 18.1653   3
  29  -9   2 63.5533 21.7463   4
 -20  -9  -2 82.8545 23.2042   5
  29 -20  -2 60.8028 27.0628   4
  -9 -20   2 40.7205 21.6638   5
  -9  29  -2 84.8279 23.7727   3
 -20  -9  -2 68.1305 15.0669   4
 -20  29   2 84.6772 19.7212   3
 -29  12  -2 55.3786 17.7928   5
  12  17  -2 107.282 19.9249   3
  12 -29   2 158.752 27.2556   4
 -29  17   2 108.619 25.4754   5
  17  12   2 121.359 22.4311   3
  17 -29  -2 165.219 25.0621   4
 -17 -12  -2 115.182 18.7449   4
  29 -12   2 128.205 24.3337   4
 -17  29   2 147.973 25.2423   3
 -12  29  -2 126.916 24.2774   3
 -12 -17   2 84.1539 22.3400   5
 -29  15  -2 140.310 22.7200   5
  14  15   2 111.974 21.4500   3
  14 -29  -2 150.278 24.2076   4
 -29  14   2 107.782 23.1392   5
  15  14  -2 152.515 23.9005   3
  15 -29   2 93.7052 23.3166   4
 -14 -15  -2 106.024 18.5463   4
  29 -15   2 65.1927 22.5591   4
 -15 -14   2 93.9111 23.1838   5
 -14  29   2 89.7247 18.8517   3
  11 -29  -2 68.7379 20.2256   4
  18  11  -2 45.9281 17.5903   3
  18 -29   2 35.2478 22.5119   4
 -29  18  -2 22.2290 16.4565   5
 -29  11   2 36.3109 19.6425   5
  11  18   2 56.2568 18.6822   3
  29 -18   2 64.0003 22.2893   4
 -18  29  -2 54.7275 20.3946   5
 -11 -18  -2 56.5371 17.8333   4
 -18 -11   2 56.8286 21.9902   5
  29 -11  -2 72.0342 19.3516   3
 -11  29   2 33.1677 19.3200   3
  21   8  -2 46.0657 19.7287   3
 -29   8   2 30.3995 18.7912   5
 -29  21  -2 53.3345 17.6692   5
   8 -29  -2 30.7293 18.9317   4
  21 -29   2 66.5683 24.7194   4
   8  21   2 44.7169 18.7370   3
 -21  29  -2 64.8032 20.1992   5
 -21  -8   2 78.7372 23.5382   5
  29 -21   2 51.3306 20.8509   4
  29  -8  -2 70.6996 20.0793   3
  -8  29   2 66.0739 18.0202   3
  -8 -21  -2 36.3963 19.6096   4
   5 -29  -2 9.60677 19.5584   4
   5  24   2 20.3065 16.5466   3
  24 -29   2 6.52799 21.5138   4
 -29  24  -2 15.3742 18.7054   5
 -29   5   2 27.4556 18.7119   5
  24   5  -2 1.97747 17.9560   3
 -24  29  -2 17.6084 19.4924   5
  -5  29   2 19.0278 19.8818   3
 -24  -5   2 19.8192 21.5292   5
  29  -5  -2 -4.2525 18.6862   3
  29 -24   2 16.2931 23.0423   4
  -5 -24  -2 24.2370 21.0996   4
   5  25  -2 13.7771 21.4356   3
 -30   5  -2 31.8399 22.3838   5
  25 -30  -2 3.81466 22.5486   4
   5 -30   2 23.0411 26.5395   4
  30  -5   2 -43.331 21.9163   4
  30 -25  -2 1.91444 26.2618   4
 -25  -5  -2 17.2897 21.1238   5
  -5  30  -2 -9.7718 22.0379   3
   8 -30   2 37.2847 26.6907   4
   8  22  -2 12.2351 19.1714   3
 -30  22   2 9.84466 20.8384   5
  22   8   2 14.3436 20.0879   3
  22 -30  -2 8.62526 21.8491   4
 -30   8  -2 14.6128 19.3462   5
 -22  30   2 27.9467 19.1284   3
 -22  -8  -2 41.1976 22.1666   5
  -8 -22   2 33.7359 22.1874   5
  -8  30  -2 29.4813 22.8228   3
  30  -8   2 8.92925 22.9268   4
  30 -22  -2 24.6977 26.5675   4
 -22  -8  -2 15.2966 15.8972   4
  11  19  -2 58.7213 18.5586   3
  11 -30   2 78.7134 25.7978   4
  19  11   2 54.7313 21.7811   3
  19 -30  -2 75.0737 23.4243   4
 -30  11  -2 65.4725 20.3787   5
 -30  19   2 91.2789 22.2836   5
 -11 -19   2 95.1066 24.3220   5
 -19 -11  -2 52.1873 16.1621   4
 -19  30   2 76.4031 19.9635   3
  30 -11   2 52.8265 21.7089   4
  30 -19  -2 54.9861 27.7269   4
 -11  30  -2 59.3707 23.7592   3
 -30  16   2 112.736 23.8298   5
  16 -30  -2 51.5501 18.9403   4
 -30  14  -2 60.4757 20.9289   5
  14  16  -2 102.696 21.3915   3
  14 -30   2 57.7960 22.6273   4
  16  14   2 96.2149 19.7719   3
 -14 -16   2 60.1249 21.1267   5
  30 -14   2 68.7513 24.0367   4
 -16  30   2 87.5631 20.3526   3
 -16 -14  -2 56.2131 16.0470   4
 -30  17  -2 18.1470 17.9979   5
 -30  13   2 -4.8644 19.0442   5
  17 -30   2 -10.341 20.6106   4
  13 -30  -2 19.4766 20.0376   4
  13  17   2 21.8367 18.5157   3
  17  13  -2 1.42510 16.7073   3
 -17 -13   2 -6.6844 18.7376   5
  30 -17   2 33.4586 22.3687   4
 -13 -17  -2 13.1479 17.5840   4
 -13  30   2 3.86037 19.3741   3
 -30  20  -2 15.4294 16.3711   5
  20  10  -2 -3.3669 16.4836   3
  10 -30  -2 9.29513 20.3073   4
  10  20   2 17.3756 18.6173   3
  20 -30   2 -2.2819 22.0032   4
 -30  10   2 -2.9881 17.9515   5
 -10  30   2 -14.747 17.3208   3
 -10 -20  -2 10.1924 19.1063   4
  30 -20   2 -22.232 21.0241   4
 -20  30  -2 50.2001 20.8340   5
 -20 -10   2 -4.4155 21.1882   5
  30 -10  -2 29.6646 19.9491   3
   7 -30  -2 40.1841 22.0690   4
 -30   7   2 52.6966 22.3475   5
 -30  23  -2 32.0452 20.7132   5
  23 -30   2 19.0147 21.5645   4
   7  23   2 38.6855 18.0988   3
  23   7  -2 20.2218 18.5767   3
  30 -23   2 35.5029 21.3459   4
 -23  30  -2 22.5621 21.4014   5
  -7 -23  -2 27.9373 19.7342   4
  30  -7  -2 37.2694 22.0542   3
  -7  30   2 54.7364 22.6938   3
 -23  -7   2 54.1711 21.6791   5
  21  10   2 36.5657 22.0617   3
  10  21  -2 47.0684 20.4607   3
 -31  10  -2 30.6680 18.8484   5
 -31  21   2 50.9077 20.8955   5
  21 -31  -2 31.4394 20.4174   4
  10 -31   2 45.8705 25.1367   4
 -10  31  -2 32.5285 25.5865   3
  31 -21  -2 16.6561 29.5890   4
  31 -10   2 -5.2605 23.1897   4
 -10 -21   2 19.1783 23.2381   5
 -21  31   2 54.5375 20.8177   3
 -21 -10  -2 35.0229 16.7964   4
  13 -31   2 60.2440 25.7443   4
 -31  18   2 17.3832 19.9048   5
  13  18  -2 14.9192 19.2112   3
  18 -31  -2 7.20443 18.6605   4
 -31  13  -2 18.5841 18.9757   5
  18  13   2 40.6307 20.6172   3
 -18 -13  -2 20.1227 17.2493   4
 -18  31   2 65.8203 20.5068   3
 -13 -18   2 -5.8167 21.3360   5
  31 -13   2 -28.288 22.1096   4
 -31  15   2 19.1974 19.8781   5
  16  15  -2 14.5988 18.5514   3
  15 -31  -2 -12.108 17.2182   4
  15  16   2 -3.2194 17.4227   3
  16 -31   2 15.6274 23.4826   4
 -31  16  -2 -6.4162 15.5602   5
 -15 -16  -2 -6.5075 17.0220   4
 -16 -15   2 -16.428 20.2493   5
 -15  31   2 14.2171 19.8032   3
  31 -16   2 -4.2842 21.4046   4
  12  19   2 14.0701 18.7449   3
  19  12  -2 22.2561 17.7953   3
  19 -31   2 39.8017 25.2626   4
 -31  12   2 19.2431 18.7744   5
  12 -31  -2 27.5542 20.5924   4
 -31  19  -2 9.02805 17.1884   5
 -12 -19  -2 18.4541 19.5467   4
 -19 -12   2 34.8536 22.2368   5
  31 -19   2 8.07498 22.8769   4
 -12  31   2 14.2495 19.9387   3
   9  22   2 46.4285 18.1577   3
  22 -31   2 2.15776 22.7865   4
 -31  22  -2 8.73951 16.3783   5
  22   9  -2 25.2368 20.0192   3
 -31   9   2 17.9550 20.3858   5
   9 -31  -2 -2.0806 19.7261   4
  -9 -22  -2 25.8934 20.5206   4
 -22  -9   2 5.09862 20.3531   5
  -9  31   2 16.6772 21.0758   3
  31 -22   2 27.3438 24.2255   4
  31  -9  -2 10.8406 27.7039   3
  15  17  -2 53.3538 19.9523   3
  15 -32   2 19.3262 23.5552   4
 -32  17   2 37.6893 20.9503   5
  17  15   2 55.0166 20.3804   3
  17 -32  -2 22.2369 19.0364   4
 -32  15  -2 21.7642 16.8873   5
  32 -15   2 67.8044 25.4707   4
 -17  32   2 65.7443 21.9478   3
 -17 -15  -2 23.1791 19.1106   4
 -15 -17   2 16.6928 22.2743   5
 -32  14   2 38.3448 22.9110   5
  18  14  -2 70.9470 21.1786   3
  18 -32   2 43.7225 24.3603   4
  14 -32  -2 46.7666 18.6251   4
 -32  18  -2 74.5746 19.1005   5
  14  18   2 30.3475 20.8482   3
 -18 -14   2 39.4296 24.2861   5
  32 -18   2 24.2070 22.3541   4
 -14  32   2 34.1709 20.7149   3
 -14 -18  -2 63.8655 19.6182   4
   0   0  -3 1455.63 61.6134   5
   0   0  -3 1447.17 61.5977   4
   1  -2  -3 402.584 20.4792   4
  -2   1   3 331.478 20.4556   2
   1  -2  -3 402.891 20.5247   3
   1   1  -3 405.269 18.8240   4
  -2   1  -3 389.313 19.8885   4
   1   1  -3 389.954 20.2715   3
   1   1  -3 404.928 20.5104   5
   1   1  -3 414.895 24.3802   2
  -2   1  -3 393.149 21.1473   5
   1  -2  -3 393.375 19.4757   5
   1   1   3 332.457 19.9173   2
   1  -2   3 300.385 23.9535   2
  -2   1  -3 400.285 19.3633   3
  -1  -1  -3 385.686 20.8399   4
  -1  -1  -3 410.201 20.4239   5
   2  -1  -3 412.154 19.7364   4
  -1  -1   3 306.607 25.9915   2
   2  -1  -3 400.116 20.9388   3
  -1   2   3 306.934 24.0425   2
  -1  -1  -3 413.092 19.6689   3
   2  -1   3 323.145 23.3943   2
  -1   2  -3 434.899 21.3928   5
  -1   2  -3 406.222 19.3934   4
   2  -1  -3 387.262 19.8043   5
  -1   2   3 360.586 20.8864   2
  -1   2  -3 383.816 20.9490   3
   2  -1   3 332.264 19.2431   2
  -3   3   3 1528.18 75.0894   2
  -3   0  -3 1927.11 73.8245   3
   0   3  -3 1825.47 78.0368   2
   3  -3  -3 1812.34 73.6647   5
  -3   0  -3 1814.81 74.7625   4
   3  -3  -3 1820.56 74.8178   3
  -3   0  -3 1833.22 75.0484   5
   0   3  -3 1851.02 73.3398   4
   0   3  -3 1763.69 74.9153   5
   0   3  -3 1881.26 74.7920   3
   0  -3   3 1704.87 78.3133   2
  -3   3   3 1698.31 78.9564   2
   3   0   3 1849.43 77.3577   2
   3  -3  -3 1699.49 74.8103   4
   3   0   3 1569.96 74.4459   2
   3   0  -3 2207.66 94.4815   2
   0  -3  -3 2275.54 90.2867   3
  -3   0   3 2051.29 95.6287   2
   3  -3   3 2114.83 90.2319   2
   3   0  -3 2240.79 90.8997   3
   0   3   3 2021.49 91.4572   2
   0  -3  -3 2143.07 91.1948   4
  -3   3  -3 2258.71 90.0357   4
   3   0  -3 2158.50 89.4472   4
  -3   3  -3 2216.44 89.7183   3
   3  -3   3 2066.91 92.8755   2
   0  -3  -3 2117.24 89.7336   5
  -3   3  -3 2252.76 91.5167   5
   3   0  -3 2281.92 90.4156   5
  -4   2   3 946.420 45.1479   2
   2   2  -3 842.059 44.0685   2
   2  -4  -3 855.253 38.2371   5
  -4   2  -3 841.362 40.3224   5
   2   2   3 952.480 40.2430   2
  -4   2   3 957.307 40.5364   2
   2  -4  -3 844.818 39.0785   3
  -4   2  -3 868.083 39.2803   4
   2  -4   3 920.030 42.8621   2
   2   2  -3 891.249 40.3362   3
   2   2  -3 888.781 37.6417   4
   2   2  -3 875.097 39.7904   5
   2  -4  -3 825.664 40.2761   4
  -4   2  -3 882.041 38.0290   3
  -2  -2  -3 871.504 39.3070   5
  -2  -2  -3 900.191 39.4876   2
  -2   4  -3 810.117 38.7461   3
   4  -2  -3 883.110 38.6582   5
   4  -2   3 912.375 39.0292   2
  -2   4   3 917.578 40.7514   2
  -2   4  -3 882.919 42.6079   2
  -2  -2  -3 881.517 38.5637   3
   4  -2  -3 831.641 38.7274   4
  -2  -2  -3 835.124 39.9921   4
  -2   4   3 943.405 44.9408   2
   4  -2   3 951.352 42.0700   2
  -2  -2   3 838.841 49.8569   2
  -5   1  -3 357.557 20.7264   5
   4   1   3 283.731 18.8052   2
   1  -5   3 327.856 23.7777   2
   1  -5   3 288.492 17.6311   4
   1   4  -3 377.083 20.2918   5
  -5   1  -3 385.621 16.8628   3
  -5   4   3 336.338 20.5389   2
  -5   1  -3 346.420 19.9456   4
   1   4  -3 373.127 20.0669   3
   4  -5  -3 375.911 19.4040   3
   4  -5  -3 364.885 21.3076   4
  -5   4   3 331.804 26.9582   2
   1   4  -3 381.566 24.8537   2
  -5   4   3 277.229 18.1646   5
   5  -4  -3 343.868 19.6657   4
  -4   5   3 307.666 20.2990   2
  -4  -1  -3 360.224 18.5757   2
  -1  -4   3 307.257 24.7364   2
  -4  -1  -3 324.443 19.7120   4
  -1  -4   3 336.830 16.9585   4
  -1   5  -3 384.424 24.1088   2
  -4  -1  -3 386.030 20.2060   5
  -4   5   3 349.286 26.2572   2
   5  -1   3 336.674 21.5627   2
  -1   5  -3 379.912 20.6087   5
  -4  -1  -3 305.501 18.1956   3
  -1   5  -3 365.188 19.3160   3
   5  -1   3 296.718 18.1824   2
   5  -4  -3 363.629 20.6469   3
   1  -5  -3 376.562 20.0670   2
  -5   1   3 312.596 27.3539   2
  -5   4  -3 349.848 17.4173   3
   4  -5   3 319.007 21.6705   2
   4   1  -3 360.933 25.3067   2
   1   4   3 305.250 21.0766   2
   1  -5  -3 365.135 17.6552   5
   4   1  -3 355.074 16.5992   4
   1  -5  -3 353.285 23.5426   4
   1  -5  -3 375.733 24.7263   3
  -5   4  -3 379.866 19.3897   4
  -5   4  -3 365.495 21.5317   5
   4   1  -3 365.480 20.9017   3
   4   1  -3 378.665 18.9503   5
   5  -1  -3 348.643 17.6055   4
  -1  -4  -3 373.748 18.7089   3
  -1  -4  -3 359.145 18.2931   5
  -4   5  -3 350.622 20.8231   5
   5  -4   3 302.432 20.8811   2
  -1  -4  -3 354.534 21.9981   4
  -4   5  -3 360.722 18.1363   3
   5  -1  -3 382.548 25.2419   2
   5  -1  -3 357.267 20.4732   3
  -1  -4  -3 376.633 22.8659   2
  -4   5  -3 372.848 21.7353   2
  -4  -1   3 312.993 26.9887   2
  -6   6   3 586.646 27.6460   5
  -6   6   3 557.557 33.8563   2
   6  -6  -3 612.442 29.3926   3
   6  -6  -3 573.331 29.2533   4
   0  -6   3 537.769 27.0455   4
   0   6  -3 613.277 33.5557   2
   0   6  -3 604.365 29.0932   5
  -6   0  -3 610.581 27.4539   2
   6   0   3 569.015 25.8798   3
  -6   6   3 586.596 29.7784   2
   6   0   3 555.006 28.2732   2
  -6   0  -3 567.670 29.3518   5
  -6   0  -3 594.280 29.3371   4
   0   6  -3 593.593 28.7975   3
  -6   3   3 1066.32 46.8750   5
   3   3   3 1023.94 47.8564   2
   3  -6   3 1012.59 49.3880   2
   3  -6  -3 1054.73 48.2548   4
   3   3  -3 1101.14 46.8882   5
   3   3  -3 1099.52 51.5903   2
  -6   3  -3 1114.44 44.6819   3
   3  -6   3 984.072 46.0402   4
   3   3  -3 1078.44 47.2722   3
  -6   3  -3 1094.65 48.5724   5
  -6   3  -3 1043.76 46.2047   4
   3  -6  -3 1063.55 46.5757   3
  -6   3   3 1080.14 53.1653   2
  -3   6  -3 1060.84 46.1123   3
   6  -3   3 1006.05 45.5008   2
  -3  -3  -3 1079.50 46.2784   5
  -3  -3   3 1054.34 51.7388   2
  -3   6  -3 1080.09 49.4385   2
  -3  -3  -3 1074.80 47.1726   2
  -3  -3  -3 1091.86 47.9903   4
  -3   6  -3 1126.95 48.1240   5
   6  -3  -3 1117.26 47.9171   3
  -3  -3   3 1039.90 44.3916   4
   6  -3  -3 1040.32 45.9553   4
  -3   6   3 965.155 47.9348   2
   6  -3   3 1085.45 47.9693   2
   0  -6  -3 154.855 16.7148   4
   6  -6   3 112.255 13.1575   2
  -6   6  -3 146.476 9.53171   3
   0  -6  -3 176.421 12.3247   3
   6   0  -3 139.766 14.7750   3
  -6   6  -3 160.947 16.3791   5
   0   6   3 114.503 14.8573   2
   0  -6  -3 134.483 9.43253   5
  -6   0   3 103.301 18.7387   2
  -6   0   3 104.032 13.8390   5
   6   0  -3 145.928 8.50391   4
   6  -6   3 109.588 9.17512   2
   6  -6   3 103.851 12.9153   4
   6   0  -3 159.528 19.5096   2
   0  -6  -3 160.956 13.2438   2
  -7   5   3 631.535 45.8353   2
  -7   2  -3 761.635 35.9325   5
   2  -7   3 734.641 37.8609   2
  -7   2  -3 717.833 34.3898   4
  -7   5   3 752.591 34.1122   5
   2  -7   3 737.610 33.8624   4
   2   5  -3 730.531 35.2395   3
   5   2   3 731.273 32.5705   3
   5  -7  -3 714.846 36.0355   4
  -7   5   3 754.005 35.7954   2
   5   2   3 792.958 35.8123   2
   5  -7  -3 715.835 34.1865   3
   2   5  -3 757.595 40.2599   2
   2   5  -3 709.841 34.1970   5
  -5  -2  -3 754.393 34.2006   2
  -5   7   3 709.124 40.3325   2
   7  -5  -3 752.166 35.3742   3
   7  -2   3 741.500 33.4606   2
  -2  -5   3 765.194 32.4580   4
  -2   7  -3 733.246 38.0019   2
  -2  -5   3 756.529 40.6337   2
  -5  -2  -3 694.176 34.7676   4
   7  -2   3 756.208 31.4536   3
  -5  -2  -3 747.118 34.8076   5
   7  -2   3 775.257 35.4224   2
   7  -5  -3 678.392 34.2613   4
  -2   7  -3 709.239 35.5331   5
  -5   7   3 760.857 35.9376   2
  -2   7  -3 730.199 34.0327   3
  -5   7   3 749.516 32.7803   5
  -7   5  -3 345.164 16.1869   3
  -7   5  -3 350.589 22.2169   5
   5   2  -3 350.649 27.2360   2
  -7   2   3 363.124 20.6333   5
  -7   2   3 284.775 28.7735   2
   2   5   3 373.146 21.9377   2
   2   5   3 372.106 18.4574   3
   2  -7  -3 337.597 18.5727   3
   2  -7  -3 333.778 20.1918   2
   5  -7   3 341.595 21.0514   2
   5   2  -3 346.667 21.9759   3
   2  -7  -3 322.557 21.8804   4
   5  -7   3 371.261 21.0370   4
  -2  -5  -3 336.625 22.4494   4
  -5  -2   3 376.089 27.9906   2
   7  -5   3 376.002 19.7691   2
  -2  -5  -3 326.077 17.9280   5
  -5   7  -3 328.940 22.1148   5
   7  -5   3 362.217 17.0305   2
  -5   7  -3 342.880 21.0545   2
   7  -2  -3 343.241 25.4037   2
  -5   7  -3 329.557 18.0643   3
  -2   7   3 369.069 21.6924   2
   7  -2  -3 317.973 20.8186   3
   7  -2  -3 330.163 17.1167   4
  -2  -5  -3 353.166 20.3032   2
   1  -8   3 252.227 21.7498   2
   7   1   3 215.692 16.3982   2
  -8   7   3 207.542 23.5903   2
  -8   1  -3 236.797 17.5205   4
   1   7  -3 228.482 17.6493   5
   1  -8   3 197.127 16.7433   4
   1   7  -3 200.058 22.3921   2
  -8   1  -3 214.520 13.1628   2
   7  -8  -3 223.729 27.4124   4
   7   1   3 224.180 13.0145   3
  -8   7   3 197.124 16.3606   2
   7  -8  -3 218.422 16.0150   3
  -8   7   3 217.615 15.1400   5
  -8   1  -3 240.232 17.7605   5
   1   7  -3 239.230 17.3970   3
   8  -1   3 198.551 15.0188   2
  -1   8  -3 211.830 16.1304   3
   8  -1   3 199.099 12.0829   3
   8  -7  -3 217.189 16.7666   3
  -1  -7   3 182.561 14.7050   4
  -1  -7   3 225.809 23.1908   2
   8  -7  -3 230.256 18.3339   4
  -7  -1  -3 241.066 17.2087   5
  -7   8   3 220.302 21.7490   2
  -1   8  -3 230.691 21.1911   2
  -7   8   3 214.918 14.1347   5
  -1   8  -3 224.860 17.0786   5
  -7  -1  -3 221.472 14.2143   2
  -7   8   3 216.253 16.7618   2
  -7  -1  -3 228.533 18.2904   4
   4  -8  -3 456.578 23.5202   3
   4  -8  -3 422.860 26.4294   4
   4   4  -3 446.104 24.4770   3
  -8   4   3 468.777 30.1037   2
   4  -8  -3 427.776 24.4572   2
   4  -8   3 447.911 26.2891   2
  -8   4  -3 472.872 25.9343   5
   4   4  -3 449.174 23.4278   5
   4   4   3 448.229 21.6791   3
  -8   4   3 476.721 24.4260   5
   4  -8   3 430.802 24.0123   4
   4   4   3 453.291 25.5632   2
   4   4  -3 429.776 29.1227   2
  -8   4  -3 432.197 23.0897   4
  -4   8  -3 439.323 26.3161   2
  -4   8  -3 435.960 22.4886   3
  -4  -4   3 438.104 20.0436   4
   8  -4   3 442.483 19.4137   3
   8  -4   3 460.987 23.0165   2
   8  -4   3 427.059 21.0528   2
  -4  -4  -3 424.390 23.4519   2
  -4   8   3 441.443 25.4381   2
   8  -4  -3 424.801 22.3487   4
  -4   8   3 458.756 20.7667   5
  -4  -4  -3 450.784 22.6640   5
  -4  -4  -3 456.532 25.9641   4
  -4  -4   3 465.530 29.8050   2
  -4   8  -3 446.732 25.4284   5
   8  -4  -3 414.882 24.3683   3
   1   7   3 140.305 11.9634   3
  -8   7  -3 114.354 16.5222   5
   1  -8  -3 106.742 7.39095   5
   7  -8   3 127.198 14.3138   4
   7  -8   3 104.267 12.0901   2
   7   1  -3 118.025 22.0363   2
   1  -8  -3 106.701 12.7794   2
   7   1  -3 109.938 16.7994   3
  -8   1   3 128.106 20.3418   2
   1   7   3 131.973 15.9898   2
   1  -8  -3 81.2543 13.2551   4
  -8   1   3 135.860 14.9336   5
  -8   7  -3 109.014 7.42927   3
   8  -1  -3 113.233 18.7918   2
  -1  -7  -3 110.158 14.6207   4
  -1  -7  -3 119.777 8.82593   5
   8  -1  -3 104.939 7.69175   4
  -1  -7  -3 113.701 13.6626   2
   8  -1  -3 117.502 15.1882   3
  -1   8   3 138.530 16.0216   2
  -7   8  -3 110.025 8.87033   3
   8  -7   3 135.988 14.4046   4
   8  -7   3 128.173 7.99013   2
  -7  -1   3 144.335 22.4684   2
   8  -7   3 149.739 11.0713   2
  -7  -1   3 135.213 14.0204   5
  -7   8  -3 100.255 11.9134   2
  -7   8  -3 105.808 14.6973   5
  -9   0  -3 823.311 36.0010   2
  -9   9   3 794.292 38.9195   2
  -9   0  -3 827.488 38.3079   5
   0  -9   3 767.694 42.4425   2
  -9   9   3 785.116 36.8704   5
   9   0   3 768.689 37.8443   2
   9  -9  -3 788.417 38.5035   4
   0   9  -3 723.859 37.1302   3
   0   9  -3 813.224 37.7975   5
   9  -9  -3 810.121 37.4824   3
   0  -9   3 745.051 36.4165   4
  -9   0  -3 826.402 37.9609   4
  -9   9   3 808.574 43.8192   2
   0   9  -3 845.792 43.0496   2
   9   0   3 750.897 35.1203   3
   3   6  -3 50.1792 15.0114   2
  -9   6   3 43.9917 9.49552   2
   6   3   3 40.1600 7.15972   3
   3   6  -3 48.1255 11.0923   3
   3   6  -3 56.2253 9.93858   5
   6  -9  -3 47.3259 12.6762   4
  -9   6   3 59.7387 16.6529   2
   3  -9   3 39.3375 12.0985   2
   6  -9  -3 43.1614 9.85128   3
   3  -9   3 44.8485 9.87839   4
   6   3   3 36.0570 9.79073   2
  -9   3  -3 53.3077 9.56938   4
  -9   3  -3 53.9121 10.8106   5
  -6  -3  -3 35.7683 9.70055   4
  -6   9   3 43.3438 10.4339   2
  -3   9  -3 33.8352 11.8092   2
  -6  -3  -3 52.4646 9.41664   5
   9  -6  -3 59.0215 10.9475   4
   9  -3   3 38.1959 7.26561   2
  -3   9  -3 43.4397 8.40947   3
   9  -6  -3 41.2038 10.9101   3
  -6   9   3 31.4198 6.44467   5
   9  -3   3 57.2113 10.8886   2
   9  -3   3 36.9076 5.16411   3
  -3  -6   3 48.9043 6.62918   4
  -3   9  -3 41.6857 11.6941   5
   6  -9   3 134.882 14.9272   2
  -9   6  -3 142.149 16.0838   5
   6  -9   3 143.963 15.8757   4
  -9   3   3 145.604 15.2784   5
   3  -9  -3 164.407 18.9428   4
   6   3  -3 150.003 17.0143   3
  -9   3   3 158.880 20.7188   2
   3  -9  -3 151.543 13.9869   2
   3   6   3 151.116 12.7930   3
   6   3  -3 124.126 20.1713   2
   3  -9  -3 163.834 13.6943   3
   3   6   3 150.095 17.3734   2
   9  -3  -3 142.105 17.0426   3
  -3  -6  -3 149.511 14.2971   2
   9  -6   3 148.029 10.3286   2
   9  -6   3 147.210 8.94211   2
  -3  -6  -3 135.309 11.5124   5
  -3   9   3 134.423 8.83720   5
   9  -3  -3 143.106 11.2210   4
   9  -3  -3 153.473 21.7562   2
  -6   9  -3 163.846 15.9001   5
  -6  -3   3 163.677 22.9082   2
   9  -6   3 138.024 7.41530   3
  -3   9   3 158.454 16.7409   2
  -6  -3   3 127.389 14.5907   5
   9  -6   3 137.572 14.1502   4
  -6   9  -3 142.346 11.3131   3
  -6   9  -3 154.997 15.0535   2
  -3  -6  -3 146.256 17.5114   4
   9  -9   3 136.894 15.8068   4
   9   0  -3 152.081 22.8045   2
   0  -9  -3 166.786 15.4306   2
   9  -9   3 125.614 10.3468   2
   0  -9  -3 151.889 17.5962   4
   0   9   3 118.944 17.2336   2
  -9   9  -3 161.694 18.2762   5
  -9   0   3 136.197 15.7319   5
   9  -9   3 134.937 8.30871   2
  -9   0   3 129.737 20.8950   2
   0   9   3 137.223 13.6227   3
   9   0  -3 163.936 17.7357   3
  -9   9  -3 154.627 8.28559   3
 -10   8   3 223.478 17.9361   2
   8 -10  -3 197.391 17.5137   3
   2 -10   3 235.634 18.2516   4
   2   8  -3 211.466 23.4899   2
 -10   8   3 215.558 22.6277   2
 -10   8   3 239.894 17.2923   5
   8   2   3 235.065 14.9401   3
   8   2   3 263.138 19.3861   2
 -10   2  -3 221.386 12.9605   2
   2   8  -3 218.167 18.4926   3
   8 -10  -3 205.971 20.3394   4
   2   8  -3 192.551 15.7715   5
   2 -10   3 241.459 22.5004   2
 -10   2  -3 200.055 17.2854   4
 -10   2  -3 231.353 19.3024   5
  -2  10  -3 220.971 16.7941   3
  -2  -8   3 216.012 22.6111   2
  -8  10   3 233.690 24.2204   2
  10  -8  -3 226.641 18.9991   3
  10  -8  -3 229.660 18.9647   4
  -2  -8   3 230.949 14.8053   4
  -8  -2  -3 217.965 15.6512   2
  -2  10  -3 208.291 18.2441   5
  10  -2   3 243.196 16.4400   2
  -2  10  -3 235.120 22.1667   2
  -8  -2  -3 199.035 18.6152   4
  -8  10   3 242.916 15.6894   5
  -8  10   3 241.825 18.8576   2
  10  -2   3 247.334 13.1792   3
   5 -10  -3 811.199 36.4070   3
   5 -10   3 847.962 40.0125   2
   5 -10  -3 734.558 39.3510   4
 -10   5   3 824.779 44.6555   2
 -10   5  -3 764.003 38.7691   5
 -10   5   3 785.237 37.5368   5
   5   5  -3 757.065 38.3187   3
   5   5   3 812.735 35.7180   3
   5   5  -3 777.053 43.8443   2
   5   5   3 792.646 40.2805   2
   5 -10   3 794.896 38.0384   4
   5 -10  -3 774.891 37.6088   2
  10  -5   3 737.644 33.9381   2
  -5  10  -3 794.858 38.5648   5
  10  -5   3 816.287 34.5736   2
  10  -5  -3 751.251 37.4241   3
  -5  10   3 859.193 39.6936   2
  -5  10  -3 777.050 39.7257   2
  10  -5  -3 777.665 36.1151   4
  -5  10  -3 672.381 36.3520   3
  -5  10   3 803.284 34.0215   5
  -5  -5  -3 807.210 38.9001   4
  -5  -5   3 861.998 44.3593   2
  10  -5   3 768.640 32.8151   3
  -5  -5  -3 770.930 35.8673   5
  -5  -5  -3 785.427 37.5309   2
   2   8   3 401.717 22.7776   3
 -10   2   3 446.275 32.0445   2
   2 -10  -3 455.243 24.7905   2
 -10   2   3 404.054 24.7482   5
   8 -10   3 415.040 22.8200   2
   8   2  -3 431.957 30.1436   2
   8 -10   3 434.472 25.1563   4
   8   2  -3 439.396 25.2592   3
 -10   8  -3 448.454 25.9369   5
   2   8   3 413.547 26.7909   2
   2 -10  -3 459.993 27.5758   4
  10  -2  -3 401.947 24.8096   3
  -2  10   3 423.541 22.5660   3
  -2  -8  -3 419.306 19.9115   5
  -8  10  -3 441.735 20.4130   3
  -8  -2   3 409.372 24.8578   5
  10  -2  -3 419.559 29.3164   2
  -2  -8  -3 423.965 26.6982   4
  -2  10   3 435.992 25.8343   2
  -8  10  -3 438.628 22.8645   2
  -8  10  -3 439.244 26.0466   5
  10  -8   3 413.597 24.2868   4
  10  -2  -3 402.842 19.0576   4
  -2  -8  -3 433.119 24.8020   2
  -8  -2   3 440.520 31.5869   2
 -11  10   3 855.718 41.3251   2
   1  10  -3 841.032 40.7899   3
   1 -11   3 865.624 45.3604   2
 -11   1  -3 866.615 41.3749   5
   1  10  -3 828.078 45.2955   2
  10 -11  -3 850.470 42.2791   4
  10 -11  -3 854.991 39.8779   3
  10   1   3 808.540 42.0471   2
 -11   1  -3 838.939 39.5810   4
 -11  10   3 786.859 45.8895   2
 -11   1  -3 805.242 37.7918   2
  10   1   3 826.706 38.2296   3
   1 -11   3 854.131 40.2300   4
   1  10  -3 842.597 39.6509   5
 -11  10   3 812.608 40.0816   5
  -1  11  -3 875.073 40.1736   5
  -1 -10   3 831.783 38.8563   4
  -1  11  -3 833.056 45.5012   2
  11  -1   3 843.122 37.5289   3
  -1 -10   3 892.084 46.7733   2
 -10  -1  -3 828.888 39.9364   4
 -10  -1  -3 868.102 40.6831   5
  11  -1   3 851.200 40.8657   2
  -1  11  -3 884.434 40.6232   3
  11 -10  -3 830.900 39.8660   3
 -10  11   3 867.599 46.2670   2
  11 -10  -3 840.734 41.7236   4
 -10  11   3 868.751 41.6948   2
 -10  -1  -3 857.889 39.1549   2
 -10  11   3 865.960 39.6393   5
 -11   7   3 1694.70 72.3573   5
   7 -11  -3 1618.53 72.0095   2
 -11   7   3 1642.60 72.4059   2
 -11   7   3 1670.64 77.7481   2
   4 -11   3 1633.80 72.1032   4
   7   4   3 1696.87 70.7441   3
 -11   4  -3 1637.01 72.8427   5
   7   4   3 1641.67 74.3306   2
   4   7  -3 1684.41 72.3301   3
   7 -11  -3 1588.17 73.1748   4
 -11   4  -3 1664.17 70.7128   4
   4   7  -3 1676.83 71.0559   5
   7 -11  -3 1653.53 70.5665   3
   4 -11   3 1822.98 80.1333   2
   4   7  -3 1683.98 77.3099   2
  -7  -4  -3 1652.12 72.0819   2
  -4  11  -3 1678.46 75.1339   2
  -4  -7   3 1642.53 68.4992   4
  11  -4   3 1582.25 69.8060   2
  -4  11  -3 1632.10 71.7921   5
  -4  -7   3 1646.74 77.3501   2
  11  -7  -3 1643.90 71.5264   4
  -7  11   3 1600.27 69.4598   5
  -7  -4  -3 1638.60 72.1237   4
  11  -4   3 1724.00 70.0489   2
  11  -7  -3 1697.32 71.9311   3
  -7  11   3 1666.27 73.4325   2
  11  -4   3 1613.55 68.2505   3
  -4  11  -3 1646.28 70.8779   3
  -7  -4  -3 1674.24 71.3158   5
   4   7   3 1781.10 76.6540   3
 -11   7  -3 1838.10 78.9078   5
   4 -11  -3 1774.94 78.6443   2
   7   4  -3 1860.22 78.7368   3
   7   4  -3 1896.85 84.1998   2
 -11   4   3 1780.56 78.3911   5
 -11   4   3 1762.60 82.9785   2
   4   7   3 1789.11 80.4686   2
   7 -11   3 1794.22 78.7166   2
   4 -11  -3 1808.27 79.6367   4
   7 -11   3 1778.16 78.5508   4
  -4  -7  -3 1839.80 75.8852   5
  -4  -7  -3 1890.08 79.2698   4
  11  -4  -3 1856.25 83.1842   2
  -7  11  -3 1885.49 78.7587   5
  -4  -7  -3 1768.11 78.6708   2
  11  -4  -3 1818.67 78.2242   3
  -7  -4   3 1749.50 77.9705   5
  -4  11   3 1842.83 79.6867   2
  11  -7   3 1694.13 76.9894   4
  11  -4  -3 1764.58 75.6242   4
  -7  11  -3 1779.19 75.7282   3
  -7  11  -3 1865.43 79.1261   2
  -7  -4   3 1834.10 83.5929   2
   1  10   3 174.080 18.9932   2
  10 -11   3 165.016 10.6397   2
 -11   1   3 163.176 17.4144   5
 -11  10  -3 193.519 20.4202   5
   1 -11  -3 190.879 19.6028   4
 -11   1   3 215.926 22.9910   2
   1  10   3 172.433 15.1379   3
  10 -11   3 171.356 19.8372   4
  10   1  -3 202.400 19.6098   3
   1 -11  -3 162.638 16.9189   2
  10   1  -3 204.115 24.7171   2
  -1  11   3 180.157 15.6490   3
  11  -1  -3 179.041 24.5496   2
  11 -10   3 172.268 18.3181   4
 -10  -1   3 201.734 23.2379   2
 -10  11  -3 181.418 18.5885   5
  -1 -10  -3 160.378 16.5418   2
  11  -1  -3 210.347 19.6494   3
 -10  -1   3 184.883 18.6417   5
 -10  11  -3 180.326 9.49850   3
  -1 -10  -3 171.277 20.4548   4
  -1  11   3 172.794 20.2486   2
  12   0   3 1477.94 62.7982   3
 -12   0  -3 1487.92 63.1957   2
 -12   0  -3 1459.79 63.7116   4
   0  12  -3 1568.55 65.3374   3
 -12   0  -3 1481.27 65.3095   5
  12   0   3 1373.03 66.0740   2
 -12  12   3 1445.42 65.6987   2
 -12  12   3 1423.39 64.3694   5
   0 -12   3 1385.37 63.7175   4
  12 -12  -3 1463.57 63.5599   3
   0  12  -3 1496.50 63.8893   5
 -12  12   3 1354.39 68.7041   2
   0 -12   3 1390.34 69.1553   2
  12 -12  -3 1404.60 65.8818   4
   0  12  -3 1537.84 71.0716   2
 -12   9   3 754.953 43.5780   2
 -12   3  -3 809.969 34.0608   2
   9   3   3 783.604 40.7407   2
 -12   3  -3 736.781 39.0040   5
   9   3   3 771.428 36.2621   3
 -12   9   3 795.803 38.6688   5
   9 -12  -3 755.938 36.2720   3
   3   9  -3 777.091 38.9282   3
   3 -12   3 768.543 41.8468   2
   3   9  -3 799.137 44.8078   2
 -12   3  -3 816.651 36.7454   4
   9 -12  -3 770.672 40.1077   4
   3 -12   3 777.053 38.2745   4
 -12   9   3 824.329 38.3583   2
   3   9  -3 788.866 36.8732   5
  12  -3   3 758.831 36.5948   2
  12  -3   3 758.827 34.0135   3
  -9  -3  -3 744.941 37.5195   5
  12  -9  -3 757.224 37.9705   3
  -9  12   3 774.953 35.7474   5
  -9  -3  -3 807.854 37.1975   2
  -3  12  -3 748.586 37.8210   5
  12  -9  -3 762.248 38.4738   4
  -3  -9   3 779.264 43.6784   2
  -3  12  -3 810.525 37.6960   3
  -9  12   3 750.196 38.5722   2
  -3  -9   3 778.408 34.9317   4
  -3  12  -3 785.285 43.0021   2
  -9  -3  -3 762.554 38.1038   4
 -12   6   3 598.362 32.8932   5
   6   6   3 576.440 34.2662   2
   6 -12   3 578.768 33.1395   2
   6   6  -3 669.777 39.0364   2
 -12   6   3 632.775 31.2826   2
   6 -12  -3 675.504 32.2301   2
 -12   6   3 549.889 36.9138   2
   6 -12   3 612.036 33.0106   4
   6 -12  -3 615.096 29.7101   3
   6   6   3 574.708 30.4280   3
   6   6  -3 649.168 32.9013   3
 -12   6  -3 633.559 33.5085   5
   6 -12  -3 616.217 34.7813   4
  -6  -6  -3 699.466 32.0704   2
  -6  -6   3 603.125 31.5027   5
  12  -6  -3 626.840 32.4233   3
  -6  -6   3 586.421 37.2281   2
  -6  12   3 588.820 32.9337   2
  -6  12   3 600.932 26.5456   5
  12  -6   3 624.450 30.7459   4
  -6  12  -3 640.451 34.1170   2
  -6  12  -3 609.043 29.5779   3
  -6  -6  -3 615.572 33.1506   4
  -6  12  -3 634.051 32.5640   5
  12  -6  -3 641.530 30.6651   4
   9 -12   3 530.625 31.6920   4
 -12   3   3 522.586 30.2337   5
   9 -12   3 506.648 27.0085   2
   9   3  -3 564.976 36.2491   2
   3 -12  -3 556.866 32.4770   4
   3 -12  -3 560.891 29.2042   2
   3   9   3 533.722 32.7243   2
 -12   3   3 540.783 35.4336   2
   3   9   3 551.312 28.0923   3
   9   3  -3 542.234 30.8405   3
 -12   9  -3 579.262 31.3553   5
  -9  -3   3 516.416 29.7722   5
  12  -9   3 530.727 28.9509   4
  12  -3  -3 527.462 24.5848   4
  -3  -9  -3 570.869 31.5464   4
  -9  12  -3 545.026 25.1646   3
  -3  12   3 522.019 27.6678   3
  -9  -3   3 534.741 36.6627   2
  -9  12  -3 559.775 30.8576   5
  12  -3  -3 560.419 35.9880   2
  -3  -9  -3 587.792 29.6372   2
  -3  12   3 557.971 32.1855   2
  -9  12  -3 561.732 28.1663   2
  -3  -9  -3 545.226 24.6690   5
  12  -3  -3 581.375 30.5703   3
  12   0  -3 276.125 27.8050   2
  12 -12   3 307.433 22.3583   4
 -12  12  -3 294.475 22.0948   5
   0  12   3 268.310 18.5696   3
 -12   0   3 293.643 21.4750   5
   0 -12  -3 276.433 20.4993   2
   0 -12  -3 289.330 23.3888   4
   0  12   3 306.251 23.2377   2
  12   0  -3 251.651 22.2652   3
 -12   0   3 343.946 29.5543   2
 -13  11   3 62.3932 17.9830   2
  11   2   3 71.3998 16.8279   2
 -13   2  -3 60.4260 8.49055   2
  11 -13  -3 63.0998 14.6972   4
   2 -13   3 70.0419 15.8315   2
   2  11  -3 47.9171 12.6611   3
 -13   2  -3 51.1944 9.96972   4
   2  11  -3 58.1292 16.8770   2
   2  11  -3 46.5160 10.4374   5
   2 -13   3 68.0707 12.1248   4
  11 -13  -3 56.2060 10.8403   3
 -13  11   3 63.6148 12.1851   2
 -13  11   3 72.1628 13.1137   5
 -13   2  -3 75.2006 14.3291   5
  11   2   3 61.6749 10.0808   3
  13 -11  -3 56.1863 12.2878   3
  -2  13  -3 61.2805 12.8038   3
  -2  13  -3 61.4238 12.4736   5
  -2 -11   3 51.0815 9.63389   4
 -11  -2  -3 52.4051 11.1942   2
 -11  -2  -3 71.9691 13.5739   5
  13  -2   3 63.5377 9.87097   3
 -11  13   3 46.6833 16.7487   2
 -11  -2  -3 72.8142 12.7365   4
  -2  13  -3 62.6398 17.1693   2
  -2 -11   3 63.2409 17.1296   2
  13 -11  -3 71.3409 14.1600   4
 -11  13   3 71.5077 11.0282   5
  13  -2   3 59.2111 13.4122   2
 -11  13   3 60.0923 11.8609   2
   5 -13   3 460.955 28.7291   2
 -13   8   3 473.766 28.2267   5
   8 -13  -3 447.180 25.3531   2
   5   8  -3 431.086 26.2608   3
   8 -13  -3 439.847 29.2126   4
   5 -13   3 472.616 27.5969   4
 -13   8   3 452.702 31.9956   2
   5   8  -3 432.271 32.4415   2
 -13   8   3 419.070 25.2235   2
   8 -13  -3 445.838 24.4728   3
 -13   5  -3 470.337 28.1669   5
   8   5   3 481.949 29.5411   2
   8   5   3 463.245 24.8062   3
  -5  13  -3 459.085 25.8641   5
  13  -8  -3 454.368 26.4051   3
  13  -5   3 439.533 20.3729   2
  -8  13   3 469.530 21.7080   5
  -8  -5  -3 445.444 26.8528   4
  -5  13  -3 436.090 30.1832   2
  13  -8  -3 438.432 26.0871   4
  -5  13  -3 466.634 25.1823   3
  13  -5   3 470.184 20.4292   2
  -8  -5  -3 453.848 25.0837   5
  -8  -5  -3 401.732 25.3013   2
  -8  13   3 479.727 28.0231   2
  -5  -8   3 481.537 33.4371   2
   8   5  -3 478.959 33.3001   2
 -13   5   3 409.021 32.5462   2
   5   8   3 452.035 25.0522   3
   8   5  -3 488.326 27.8076   3
   8 -13   3 453.587 28.9022   4
 -13   8  -3 409.167 26.6152   5
   5   8   3 444.376 29.8412   2
 -13   5   3 448.599 27.8551   5
   5 -13  -3 443.785 29.5085   4
   5 -13  -3 457.830 25.6505   2
   8 -13   3 451.635 25.3541   2
  -8  -5   3 428.340 33.3987   2
  -5  -8  -3 412.327 27.8545   4
  -5  13   3 443.972 23.9518   3
  -5  -8  -3 439.083 22.5443   5
  -8  13  -3 437.142 26.3087   2
  13  -5  -3 445.075 22.9379   4
  -8  -5   3 445.920 26.3527   5
  -5  13   3 450.388 28.2373   2
  -5  -8  -3 448.053 25.9933   2
  -8  13  -3 471.708 22.6667   3
  -8  13  -3 464.177 27.0919   5
  13  -8   3 423.532 25.7105   4
  13  -5  -3 426.338 26.9497   3
  13  -5  -3 433.660 31.9376   2
 -13   2   3 56.2380 13.8605   5
  11 -13   3 35.0440 13.0571   4
  11   2  -3 33.6780 13.2309   3
   2 -13  -3 33.5956 10.4166   2
   2  11   3 39.0408 13.4531   2
 -13   2   3 62.2429 17.8183   2
   2  11   3 37.5064 10.4463   3
   2 -13  -3 13.9795 12.5121   4
  11   2  -3 27.1411 16.9515   2
 -13  11  -3 39.3569 14.0784   5
  11 -13   3 50.5042 6.92552   2
 -11  13  -3 57.5662 14.4388   5
  13  -2  -3 38.1382 12.9900   3
  -2 -11  -3 46.1379 13.7021   4
 -11  -2   3 50.7036 12.8910   5
  -2  13   3 47.2341 12.7016   2
 -11  -2   3 50.2177 16.6269   2
 -11  13  -3 42.6865 7.02510   2
  -2 -11  -3 47.7622 11.3279   2
  13 -11   3 61.8431 13.4103   4
  -2  13   3 49.2524 9.94587   3
  13  -2  -3 30.2854 15.3591   2
   1 -14   3 322.155 27.1479   2
  13   1   3 326.723 20.8199   3
   1  13  -3 308.078 27.9636   2
 -14  13   3 305.170 27.5698   2
 -14   1  -3 286.688 20.4689   4
  13 -14  -3 312.487 21.1728   3
   1  13  -3 328.407 23.6292   3
 -14  13   3 315.400 23.0356   5
 -14  13   3 315.851 22.7457   2
 -14   1  -3 304.006 23.7915   5
  13   1   3 293.211 25.4925   2
   1 -14   3 315.532 23.0761   4
  13 -14  -3 324.031 26.8124   4
   1  13  -3 306.216 19.5953   5
 -14   1  -3 336.658 18.7756   2
 -13  -1  -3 309.803 19.7958   2
  14  -1   3 285.394 23.1941   2
  -1  14  -3 347.861 23.5681   3
 -13  14   3 306.872 21.6873   2
  14 -13  -3 321.726 21.5426   3
  14 -13  -3 292.312 25.4321   4
  -1 -13   3 317.648 27.5508   2
 -13  -1  -3 313.811 24.0835   5
  14  -1   3 280.014 19.0844   3
 -13  -1  -3 314.288 21.4870   4
 -13  14   3 314.182 28.8629   2
 -13  14   3 320.397 23.5066   5
  -1  14  -3 312.195 28.8033   2
  -1  14  -3 328.666 21.2201   5
  -1 -13   3 277.500 20.8113   4
  10   4   3 1143.91 57.0992   2
  10 -14  -3 1165.81 55.7181   4
   4  10  -3 1096.97 53.9637   3
   4 -14   3 1224.44 57.5018   2
 -14   4  -3 1059.36 53.8600   5
   4  10  -3 1110.12 59.6566   2
 -14  10   3 1187.03 54.4002   5
 -14  10   3 1190.79 59.9268   2
  10   4   3 1172.24 52.4560   3
   4 -14   3 1155.40 54.2220   4
 -14  10   3 1247.89 54.1605   2
  10 -14  -3 1171.12 51.3528   3
 -14   4  -3 1152.44 48.6880   2
 -14   4  -3 1198.12 51.8768   4
  14 -10  -3 1121.19 53.0004   3
 -10  -4  -3 1151.26 53.1478   5
  -4 -10   3 1188.22 59.3074   2
 -10  -4  -3 1160.77 53.4057   2
  -4  14  -3 1139.00 52.9556   5
  14 -10  -3 1153.74 54.2218   4
  -4  14  -3 1131.09 52.6633   3
  -4 -10   3 1144.06 49.6043   4
 -10  14   3 1191.27 50.6179   5
  14  -4   3 1151.11 48.8485   3
  -4  14  -3 1112.48 57.7809   2
 -10  14   3 1195.83 54.8877   2
 -10  -4  -3 1107.51 52.9926   4
  14  -4   3 1175.99 51.0216   2
   7 -14  -3 2137.92 86.8934   2
 -14   7  -3 1909.75 86.4758   5
   7   7  -3 1973.91 85.8633   3
 -14   7   3 1920.61 90.5492   2
   7   7   3 2006.74 89.5489   2
   7   7  -3 1988.32 91.6796   2
   7   7   3 1950.34 84.8178   3
   7 -14  -3 2011.34 87.6089   4
 -14   7   3 1857.64 85.3673   2
   7 -14   3 1901.60 86.9978   4
 -14   7   3 1966.33 86.9722   5
  14  -7  -3 1962.38 85.5634   3
  -7  14  -3 2000.89 88.6968   2
  -7  14  -3 2104.52 86.1757   5
  -7  -7  -3 2045.04 86.3037   4
  -7  -7   3 1931.77 85.5292   5
  -7  -7   3 1950.97 92.1440   2
  -7  14  -3 2035.25 84.3997   3
  -7  -7  -3 2010.65 86.6542   2
  14  -7  -3 2019.69 84.8240   4
  -7  14   3 2008.22 83.9032   3
  14  -7   3 1940.97 85.1468   4
  -7  14   3 2024.93 87.7850   2
  -7  -7  -3 2020.26 84.5385   5
 -14   4   3 536.419 37.3729   2
   4  10   3 560.440 34.9245   2
  10 -14   3 622.542 29.3793   2
 -14  10  -3 593.971 33.5948   5
  10 -14   3 624.889 34.9788   4
   4 -14  -3 684.501 32.3810   2
   4 -14  -3 623.187 35.5362   4
   4  10   3 558.827 30.3759   3
  10   4  -3 617.485 38.2493   2
 -14   4   3 572.793 33.0886   5
  10   4  -3 637.946 33.5904   3
 -10  -4   3 580.321 31.7923   5
  14  -4  -3 592.944 31.7810   3
  14 -10   3 556.626 31.2084   4
  -4 -10  -3 655.424 32.3274   2
  -4  14   3 561.050 29.7607   3
  -4  14   3 594.218 34.5355   2
  14  -4  -3 589.301 37.0724   2
 -10  14  -3 604.414 27.7897   3
 -10  14  -3 602.990 32.1407   5
 -10  -4   3 532.117 37.4481   2
 -10  14  -3 642.500 31.4925   2
  -4 -10  -3 607.637 32.6625   4
 -14   1   3 67.6658 14.1112   5
   1 -14  -3 64.2088 15.0206   4
   1  13   3 73.5451 17.4465   2
  13 -14   3 85.8472 15.4096   4
   1  13   3 66.3595 11.7111   3
   1 -14  -3 82.2168 14.5097   2
  13   1  -3 101.930 19.5597   2
 -14  13  -3 94.0360 16.4109   5
  13   1  -3 91.9161 14.7569   3
 -14   1   3 89.0247 19.0400   2
  14 -13   3 91.8324 15.6287   4
  14  -1  -3 92.1890 21.0548   2
 -13  -1   3 81.2399 14.1330   5
 -13  14  -3 67.0362 14.5206   5
  14  -1  -3 72.6189 13.9941   3
 -13  -1   3 89.9896 20.1047   2
  -1 -13  -3 64.3281 14.3901   4
  -1  14   3 84.1395 18.1052   2
  -1  14   3 92.5691 15.1197   3
  -1 -13  -3 78.3055 14.3072   2
  15 -15  -3 339.575 28.9226   4
  15 -15  -3 349.092 21.5873   3
   0 -15   3 317.446 23.7252   4
   0 -15   3 316.613 29.0092   2
   0  15  -3 352.930 21.7391   5
 -15  15   3 341.449 24.5805   5
   0  15  -3 367.656 25.5010   3
 -15   0  -3 340.725 22.3843   4
 -15  15   3 338.745 23.2037   2
  15   0   3 312.486 21.3404   3
  15   0   3 285.430 25.7630   2
   0  15  -3 345.948 30.8324   2
 -15   0  -3 379.334 21.4479   2
 -15   0  -3 311.475 25.3726   5
 -15  15   3 271.181 27.6397   2
   3 -15   3 357.950 28.2120   2
  12 -15  -3 353.467 21.3162   3
 -15   3  -3 397.689 18.8322   2
   3  12  -3 395.512 26.8210   3
  12   3   3 384.881 23.8216   3
  12 -15  -3 388.338 29.0324   4
 -15  12   3 375.521 24.2214   2
  12   3   3 361.288 28.0387   2
   3  12  -3 376.703 32.1431   2
   3 -15   3 355.143 26.1111   4
 -15  12   3 309.127 30.4854   2
 -15   3  -3 350.251 26.2025   5
 -15  12   3 342.008 26.1170   5
 -15   3  -3 354.370 21.7963   4
  -3 -12   3 363.339 20.8224   4
  -3 -12   3 361.247 30.2645   2
 -12  15   3 365.520 22.7202   5
  15 -12  -3 372.691 26.4705   4
  -3  15  -3 378.419 29.8173   2
 -12  15   3 331.845 24.1773   2
 -12  -3  -3 371.111 25.3243   5
  15 -12  -3 372.280 23.4528   3
 -12  15   3 329.222 28.3902   2
  -3  15  -3 355.634 24.1040   3
 -12  -3  -3 373.289 23.7649   4
  -3  15  -3 349.244 23.2690   5
  15  -3   3 330.286 19.1413   3
 -12  -3  -3 398.439 23.3668   2
  15  -3   3 326.263 22.5682   2
   6   9  -3 332.872 29.9484   2
   9   6   3 280.936 20.9140   3
   6   9  -3 331.311 24.1534   3
   6 -15   3 268.391 22.9198   2
 -15   9   3 255.669 19.6990   2
   6 -15   3 273.201 24.9200   4
   9 -15  -3 308.935 20.2512   2
   9 -15  -3 297.714 25.8376   4
 -15   6  -3 316.551 24.2434   5
   9   6   3 278.741 25.8722   2
 -15   9   3 277.840 28.2200   2
 -15   9   3 281.972 23.5763   5
  -6  15  -3 310.619 26.3221   2
  -6  -9   3 283.990 27.3421   2
  -6  -9   3 260.468 20.9021   5
  -6  15  -3 311.375 20.2530   3
  15  -9  -3 340.298 22.8569   4
  -9  15   3 265.372 21.7339   2
  15  -6   3 272.453 19.6511   4
  -9  -6  -3 311.343 22.6335   4
  -9  -6  -3 284.469 21.1874   2
  -9  -6  -3 318.993 20.2315   5
  15  -9  -3 300.508 20.6621   3
  -6  15  -3 313.192 22.4360   5
   9   6  -3 228.171 21.6739   3
   6 -15  -3 211.803 24.0572   4
 -15   6   3 247.551 27.3875   2
   9 -15   3 219.338 24.8548   4
   6 -15  -3 232.542 19.4381   2
   6   9   3 233.526 19.1800   3
 -15   6   3 226.151 22.7665   5
   9   6  -3 228.800 27.0091   2
 -15   9  -3 228.186 21.6337   5
   6   9   3 233.068 23.9223   2
   9 -15   3 230.373 18.6170   2
  15  -6  -3 240.664 19.9093   3
  -6  -9  -3 227.729 21.0418   4
  15  -9   3 221.683 20.7708   4
  -9  -6   3 211.529 19.6583   5
  -9  -6   3 219.007 28.0753   2
  -9  15  -3 241.686 16.3373   3
  15  -6  -3 224.627 16.9623   4
  -6  15   3 219.547 18.1810   3
  -6  -9  -3 267.649 16.1358   5
  -9  15  -3 219.168 20.8129   5
  -6  -9  -3 236.570 19.7627   2
  -9  15  -3 211.187 20.3467   2
  15  -6  -3 225.311 24.9275   2
  -6  15   3 217.696 22.1211   2
   3  12   3 262.451 19.7754   3
 -15   3   3 265.787 23.5404   5
   3  12   3 264.901 24.1266   2
  12   3  -3 224.656 26.2263   2
   3 -15  -3 251.033 19.6798   2
 -15  12  -3 266.183 22.8840   5
  12 -15   3 261.382 14.0939   2
  12   3  -3 199.195 21.0398   3
   3 -15  -3 249.748 25.4706   4
  12 -15   3 285.534 25.8363   4
 -15   3   3 257.650 28.5395   2
  -3 -12  -3 251.152 19.4351   2
  -3  15   3 269.748 18.5118   3
 -12  15  -3 237.450 21.7210   5
  -3 -12  -3 238.145 24.0745   4
  -3  15   3 250.942 22.5009   2
  15  -3  -3 192.345 25.9168   2
  15 -12   3 247.427 22.2763   4
 -12  15  -3 237.588 15.9864   2
  15  -3  -3 215.196 21.9542   3
 -12  -3   3 260.791 26.8607   2
 -12  -3   3 244.226 21.5066   5
   0 -15  -3 188.689 19.6277   2
 -15  15  -3 194.079 21.9797   5
   0  15   3 143.916 21.8485   2
 -15   0   3 142.079 22.0237   5
   0 -15  -3 209.907 24.1734   4
  15 -15   3 166.844 24.4225   4
  15   0  -3 140.905 26.1190   2
  15   0  -3 172.622 20.9321   3
   0  15   3 141.449 18.5162   3
 -15   0   3 153.037 25.5711   2
  14   2   3 125.558 16.9379   3
 -16   2  -3 134.554 20.2341   5
 -16  14   3 89.3949 19.8304   2
 -16  14   3 121.657 18.1169   2
 -16   2  -3 115.967 15.6498   4
 -16   2  -3 142.332 12.6569   2
   2  14  -3 150.967 21.0616   3
   2  14  -3 125.631 26.4748   2
   2 -16   3 135.379 20.7509   4
  14 -16  -3 129.766 15.9122   3
  14 -16  -3 138.640 23.9203   4
 -16  14   3 138.421 19.9126   5
   2 -16   3 152.847 22.3627   2
   2  14  -3 129.399 16.1126   5
  14   2   3 140.682 21.0594   2
  -2  16  -3 119.987 19.1934   3
 -14  -2  -3 143.668 16.0765   2
 -14  16   3 103.510 24.3407   2
 -14  16   3 146.617 19.6381   2
  16 -14  -3 128.355 22.1833   4
 -14  -2  -3 111.447 19.6486   5
  -2 -14   3 131.244 21.5208   2
  16  -2   3 145.824 14.3362   3
  16  -2   3 107.695 18.2644   2
  -2  16  -3 142.594 24.5150   2
  -2  16  -3 117.123 16.2800   5
 -14  -2  -3 110.969 16.9655   4
  -2 -14   3 136.459 16.6131   4
  16 -14  -3 125.832 17.2763   3
  11   5   3 310.967 26.4482   2
 -16  11   3 295.767 27.5287   2
   5  11  -3 233.189 29.2280   2
   5 -16   3 306.065 23.9246   2
 -16  11   3 301.007 21.4647   2
  11 -16  -3 265.031 26.8906   4
 -16   5  -3 231.305 23.2555   5
  11 -16  -3 238.319 19.1423   2
   5 -16   3 320.741 25.0205   4
  11   5   3 308.639 21.0995   3
 -16  11   3 275.613 23.8639   5
   5  11  -3 267.389 24.3443   3
  -5 -11   3 265.483 26.5122   2
 -11  -5  -3 255.497 20.8843   2
 -11  16   3 318.777 22.8514   2
  -5  16  -3 268.604 21.2069   5
  -5  16  -3 254.101 26.5954   2
 -11  -5  -3 234.908 21.9996   5
  16 -11  -3 240.103 21.3755   3
  16  -5   3 296.297 15.2555   2
  -5  16  -3 275.864 21.4890   3
  16 -11  -3 226.228 22.9978   4
  16  -5   3 296.851 20.3249   4
 -11  -5  -3 250.161 21.4938   4
  -5 -11   3 286.030 21.1714   5
   8   8   3 390.188 30.5980   2
   8 -16   3 434.484 26.4549   2
   8   8  -3 410.338 27.2329   3
 -16   8  -3 365.422 27.6959   5
 -16   8   3 394.803 28.1764   5
   8 -16  -3 439.480 25.8130   2
 -16   8   3 415.177 24.5207   2
   8   8  -3 386.861 31.4387   2
   8 -16   3 439.169 29.2909   4
 -16   8   3 381.403 30.7539   2
   8 -16  -3 395.838 27.8882   4
   8   8   3 381.829 25.3780   3
  -8  -8  -3 390.195 23.3480   5
  -8  -8   3 397.610 30.5925   2
  -8  -8  -3 415.753 26.8983   4
  -8  -8  -3 434.909 26.2913   2
  -8  16   3 400.258 27.3366   2
  16  -8  -3 414.153 25.4308   4
  -8  16   3 415.690 23.6367   3
  -8  16  -3 386.768 25.7606   5
  16  -8  -3 387.459 25.8112   3
  -8  16  -3 411.292 23.6666   3
  16  -8   3 381.858 25.5286   4
  -8  -8   3 410.250 25.9908   5
  -8  16  -3 418.097 29.2592   2
  11 -16   3 143.216 14.2527   2
  11   5  -3 152.370 18.9891   3
 -16  11  -3 132.684 18.5240   5
  11 -16   3 166.415 23.9164   4
 -16   5   3 107.180 24.0924   2
  11   5  -3 149.022 23.8853   2
   5  11   3 152.508 22.2070   2
   5 -16  -3 166.850 16.3504   2
   5  11   3 135.005 17.5450   3
   5 -16  -3 141.612 23.8728   4
 -16   5   3 126.178 21.7803   5
 -11  16  -3 165.348 20.3956   5
  16  -5  -3 153.154 22.4504   2
 -11  16  -3 144.302 17.0361   2
  16 -11   3 139.657 20.6087   4
  -5 -11  -3 163.716 18.0424   2
 -11  -5   3 154.355 24.4629   2
 -11  -5   3 117.582 17.4760   5
  16  -5  -3 130.310 17.4915   3
  -5 -11  -3 150.607 20.4428   4
  -5  16   3 141.350 16.4195   3
  -5  16   3 118.958 18.8953   2
  14 -16   3 178.824 25.0068   4
  14   2  -3 169.891 27.3099   2
  14   2  -3 178.822 21.3269   3
 -16  14  -3 133.886 19.2804   5
 -16   2   3 142.588 25.7825   2
 -16   2   3 154.881 22.9975   5
   2  14   3 143.063 18.4287   3
   2 -16  -3 156.518 21.5537   4
   2  14   3 145.338 23.1923   2
   2 -16  -3 168.949 18.8362   2
 -14  -2   3 123.623 23.7006   2
  16  -2  -3 157.808 21.1442   3
  16  -2  -3 171.172 26.7860   2
 -14  -2   3 129.719 21.4489   5
  -2 -14  -3 160.761 18.2596   2
  -2 -14  -3 153.477 21.9869   4
  16 -14   3 171.831 24.5437   4
 -14  16  -3 145.065 20.1843   5
  -2  16   3 161.039 18.5041   3
  -2  16   3 141.394 23.0271   2
   1  16  -3 10.4021 14.6129   3
 -17   1  -3 22.8702 10.6930   4
   1  16  -3 22.2068 18.1190   2
 -17  16   3 3.77467 10.9678   2
  16 -17  -3 15.4667 15.1970   4
   1  16  -3 7.04804 10.2304   5
 -17  16   3 2.55568 15.9684   2
   1 -17   3 21.3563 14.0635   2
 -17  16   3 22.6436 13.9190   5
  16   1   3 46.8432 12.4950   3
   1 -17   3 11.6561 12.9889   4
  16   1   3 20.1084 14.8104   2
  16 -17  -3 13.8878 10.7826   3
 -17   1  -3 8.95155 14.0090   5
 -17   1  -3 8.77619 8.25398   2
  -1 -16   3 16.3378 11.4919   4
 -16  17   3 7.14807 12.4934   2
  -1  17  -3 13.9001 13.5843   3
  -1 -16   3 15.6494 15.4541   2
 -16  -1  -3 15.5525 10.6751   4
 -16  17   3 6.51150 16.2851   2
 -16  -1  -3 8.80607 9.61292   2
  -1  17  -3 9.34085 16.3057   2
  17  -1   3 19.0846 13.5600   2
  -1  17  -3 6.12245 10.8060   5
 -16  17   3 38.5636 14.1190   5
 -16  -1  -3 32.9664 15.2817   5
  17 -16  -3 -1.9623 11.0954   3
  17 -16  -3 1.11345 14.5383   4
   4  13  -3 365.186 26.4661   3
  13   4   3 381.210 31.1384   2
 -17  13   3 365.881 25.5247   2
   4  13  -3 355.836 32.1161   2
 -17  13   3 382.577 27.2786   5
 -17  13   3 348.573 32.5071   2
  13 -17  -3 397.427 30.4412   4
 -17   4  -3 404.475 18.9911   2
  13 -17  -3 393.626 22.1907   3
   4 -17   3 384.241 29.3534   4
  13   4   3 393.225 25.8516   3
 -17   4  -3 447.283 28.9378   5
   4 -17   3 374.262 28.0959   2
  -4 -13   3 361.908 31.2798   2
  17  -4   3 358.465 23.2711   2
 -13  -4  -3 364.010 24.5696   2
  -4 -13   3 343.852 23.8290   5
  17 -13  -3 391.075 29.2994   4
  -4  17  -3 387.028 31.7251   2
 -13  -4  -3 398.935 27.1025   5
  -4  17  -3 388.567 24.7282   5
  -4  17  -3 379.922 25.9254   3
 -13  -4  -3 385.432 24.9696   4
 -13  17   3 337.256 30.2361   2
 -13  17   3 350.787 26.0472   2
  17 -13  -3 394.300 24.5671   3
  10   7   3 665.196 33.2614   3
 -17  10   3 618.167 40.2239   2
  10   7   3 641.386 39.0603   2
 -17   7  -3 628.344 35.6491   5
  10 -17  -3 576.961 32.8419   2
   7  10  -3 626.367 41.7642   2
 -17  10   3 611.861 36.5701   5
  10 -17  -3 588.279 36.8419   4
   7 -17   3 606.467 36.7428   4
 -17  10   3 611.513 33.7650   2
   7 -17   3 616.322 35.3225   2
   7  10  -3 614.854 35.1712   3
 -10  17   3 615.737 31.2066   3
  -7  17  -3 640.304 33.8282   5
  -7 -10   3 596.783 40.1749   2
  17  -7   3 587.698 32.9394   4
 -10  -7  -3 651.008 33.4788   5
  -7  17  -3 642.259 38.4653   2
  -7 -10   3 593.658 32.4954   5
 -10  -7  -3 550.802 33.3528   2
  -7  17  -3 648.887 32.8765   3
 -10  -7  -3 640.039 34.0750   4
  17 -10  -3 627.338 34.3253   4
  17 -10  -3 577.743 32.9573   3
 -10  17   3 600.586 35.8719   2
   7 -17  -3 559.039 31.0480   2
  10   7  -3 525.093 30.7509   3
  10   7  -3 487.484 35.8673   2
   7  10   3 517.635 30.3822   3
   7  10   3 519.486 36.1613   2
  10 -17   3 565.246 34.7254   4
 -17   7   3 570.540 34.1613   5
 -17  10  -3 515.320 32.5737   5
 -17   7   3 535.336 38.3873   2
   7 -17  -3 559.804 34.9560   4
  -7  17   3 525.723 33.3141   2
  17  -7  -3 512.829 30.0699   3
 -10  17  -3 565.366 28.1882   3
  -7 -10  -3 547.544 31.9708   4
 -10  -7   3 531.935 31.4598   5
 -10  17  -3 557.979 33.2254   2
  -7  17   3 520.833 28.3068   3
 -10  17  -3 548.853 31.4400   5
  17 -10   3 489.194 29.6712   4
  -7 -10  -3 519.686 31.2205   2
   4 -17  -3 377.231 29.3978   4
   4  13   3 381.571 31.3706   2
 -17   4   3 339.163 32.3498   2
 -17  13  -3 338.499 25.5295   5
   4  13   3 361.304 25.0744   3
  13   4  -3 335.697 32.8558   2
  13   4  -3 375.979 27.2489   3
  13 -17   3 368.042 18.9082   2
 -17   4   3 382.035 29.4102   5
   4 -17  -3 378.658 25.4853   2
  13 -17   3 425.186 30.5567   4
 -13  17  -3 344.676 21.8636   2
  -4  17   3 369.609 23.7886   3
  17 -13   3 377.050 29.3563   4
  -4 -13  -3 355.481 25.3918   2
  -4 -13  -3 405.105 27.9566   4
 -13  17  -3 358.604 26.3312   5
 -13  -4   3 370.920 26.6267   5
  17  -4  -3 355.486 26.1197   3
 -13  -4   3 338.343 33.2977   2
  -4  17   3 327.401 28.8285   2
  17  -4  -3 360.092 32.3708   2
   1 -17  -3 14.0582 15.2531   4
 -17  16  -3 9.87025 22.0589   5
 -17   1   3 12.0860 15.4465   5
  16 -17   3 45.2666 23.0867   4
 -17   1   3 28.6774 25.0002   2
   1  16   3 6.08956 13.3269   3
  17  -1  -3 42.3737 14.9848   3
 -16  -1   3 18.1518 16.4740   5
  -1  17   3 20.3391 12.3181   3
  -1 -16  -3 18.7254 15.2802   4
  17 -16   3 23.8461 16.1246   4
 -18   0  -3 139.198 23.8671   5
   0 -18   3 188.292 23.9831   4
 -18   0  -3 137.036 18.0106   4
 -18  18   3 193.989 23.8878   5
  18 -18  -3 151.458 26.3139   4
  18 -18  -3 131.123 20.4913   3
  15 -18  -3 26.8416 16.6042   4
 -18  15   3 33.3113 14.7000   5
   3 -18   3 34.1096 14.4859   4
 -18   3  -3 28.7509 15.8279   5
   3 -18   3 29.8927 14.3337   2
 -18  15   3 17.1352 18.0508   2
  15   3   3 53.9329 16.0792   2
   3  15  -3 12.0468 13.5445   3
  15   3   3 39.9252 12.3724   3
  15 -18  -3 4.72465 10.3827   3
 -18  15   3 7.08977 11.1953   2
  18 -15  -3 15.6149 11.6472   3
  -3  18  -3 14.7231 17.1257   2
  -3  18  -3 17.9867 13.4740   3
 -15  -3  -3 9.07330 10.2606   2
 -15  18   3 6.94651 16.9076   2
  18  -3   3 46.6635 13.5987   2
 -15  -3  -3 24.4652 11.1304   4
  -3 -15   3 5.38916 11.7728   5
  18 -15  -3 10.4896 15.3485   4
  -3 -15   3 22.8156 15.7198   2
  -3  18  -3 29.6451 12.7701   5
 -15  -3  -3 23.2902 13.6748   5
 -18  12   3 16.0260 11.1187   2
   6  12  -3 38.6035 20.2916   2
   6  12  -3 31.7001 14.2614   3
 -18  12   3 17.0709 17.4146   2
   6 -18   3 18.4491 14.0314   4
  12   6   3 39.5426 15.8732   2
  12 -18  -3 20.5775 15.0327   4
 -18   6  -3 29.5430 14.2795   5
 -18  12   3 5.68791 14.0674   5
  12   6   3 46.5628 13.2889   3
   6 -18   3 18.0144 12.0432   2
  12 -18  -3 38.0260 10.4676   2
 -12  -6  -3 40.2590 11.7496   4
 -12  18   3 20.6779 10.7776   3
  -6  18  -3 37.4513 17.2506   2
  -6 -12   3 22.9212 12.8970   5
 -12  18   3 5.33309 13.0546   2
  18 -12  -3 46.0196 14.9530   4
  18 -12  -3 38.9948 13.2222   3
  -6 -12   3 27.3334 17.6417   2
 -12  -6  -3 41.8662 12.4712   2
 -12  -6  -3 38.8444 13.1209   5
  -6  18  -3 17.3445 12.7162   3
  18  -6   3 29.4846 12.6804   4
  -6  18  -3 29.9142 13.1134   5
   9   9   3 30.3990 16.5320   2
 -18   9   3 36.0773 17.0229   2
 -18   9   3 27.3292 10.5140   2
   9   9   3 22.4146 13.1658   3
 -18   9  -3 22.2501 15.6754   5
 -18   9   3 30.8566 16.5326   5
   9 -18   3 17.5623 15.4944   4
   9 -18  -3 2.68861 10.0654   2
   9   9  -3 8.31989 12.8452   3
   9 -18  -3 13.3685 13.7972   4
   9   9  -3 16.4259 22.7225   2
  -9  -9  -3 14.3306 11.6040   4
  -9  18   3 17.9854 13.5714   2
  -9  -9  -3 -2.3741 10.0085   2
  18  -9   3 18.7836 12.0751   4
  -9  18   3 21.7994 10.3052   3
  18  -9  -3 6.63190 11.4672   3
  18  -9  -3 4.57730 13.5071   4
  -9  -9  -3 12.9765 12.0727   5
  -9  18  -3 15.2079 10.0860   3
  -9  -9   3 29.6377 13.2599   5
  -9  -9   3 12.1024 15.6560   2
  -9  18  -3 18.3142 13.7755   2
  -9  18  -3 14.6339 12.0776   5
  12   6  -3 86.3070 15.7155   3
   6 -18  -3 89.9856 15.2228   2
  12 -18   3 142.174 24.4837   4
  12 -18   3 106.581 13.3939   2
 -18   6   3 138.738 20.0125   5
   6 -18  -3 71.2908 16.3508   4
 -18  12  -3 99.0981 17.5016   5
   6  12   3 115.523 17.4186   3
   6  12   3 112.347 22.2171   2
 -18   6   3 122.339 22.7586   2
 -12  -6   3 115.935 23.1634   2
 -12  -6   3 109.970 19.2368   5
  18 -12   3 134.581 17.9626   4
  -6 -12  -3 107.048 16.6674   4
 -12  18  -3 117.028 18.8796   2
  18  -6  -3 110.822 16.4915   3
  -6  18   3 97.8716 16.5512   3
 -12  18  -3 92.3049 17.2859   5
  -6 -12  -3 88.0607 17.3703   2
  18  -6  -3 68.0543 19.7346   2
  15   3  -3 74.1242 15.0690   3
   3 -18  -3 90.6520 18.1326   4
 -18   3   3 57.4931 18.4792   5
   3  15   3 67.8524 19.9130   3
 -18   3   3 37.3753 18.2439   2
 -18  15  -3 98.2516 18.1450   5
  18  -3  -3 52.6313 14.0459   3
 -15  -3   3 52.9493 15.5698   5
 -15  18  -3 110.186 26.6469   5
  18 -15   3 66.7696 17.4729   4
  -3 -15  -3 64.3826 16.2742   4
  -3  18   3 40.2832 12.4691   3
  18 -18   3 430.034 33.0029   4
 -18  18  -3 347.680 27.8359   5
   0  18   3 404.771 26.8657   3
 -18   0   3 371.597 30.4028   5
   0 -18  -3 349.940 30.6528   4
  18   0  -3 363.844 27.6581   3
   2  17  -3 132.730 22.7169   3
  17   2   3 119.367 16.3744   3
   2 -19   3 132.483 23.7936   2
 -19   2  -3 102.580 18.6628   5
   2 -19   3 113.291 18.6196   4
  17 -19  -3 104.468 16.4560   3
 -19  17   3 145.913 23.0794   5
  17   2   3 111.308 25.7745   2
  17 -19  -3 88.5275 21.6902   4
  19 -17  -3 92.2073 19.1426   4
  19 -17  -3 76.1102 22.0533   3
  -2  19  -3 103.870 17.7882   3
 -17  -2  -3 98.3872 17.1043   4
 -17  -2  -3 120.652 22.3735   5
 -17  -2  -3 111.473 17.7541   2
   5  14  -3 311.224 26.8121   3
 -19  14   3 324.678 25.4132   2
 -19  14   3 355.537 34.3480   2
  14   5   3 361.556 25.2719   3
  14   5   3 382.242 31.0728   2
   5 -19   3 367.156 28.0575   2
 -19  14   3 341.922 27.9337   5
   5 -19   3 382.101 29.3163   4
  14 -19  -3 294.743 44.2108   4
 -14  -5  -3 359.568 27.0847   5
  -5  19  -3 341.514 26.4021   3
 -14  -5  -3 259.670 24.3322   2
  19 -14  -3 380.864 30.8119   4
 -14  19   3 287.455 29.0874   3
  19  -5   3 308.993 24.3279   4
  -5  19  -3 346.872 24.3542   5
  19 -14  -3 316.026 23.5478   3
  -5  19  -3 316.948 32.0962   2
  -5 -14   3 357.916 24.9407   5
  11   8   3 154.516 21.3299   3
 -19  11   3 145.136 25.5152   2
   8 -19   3 126.485 19.5976   2
 -19  11   3 140.116 16.9735   2
   8  11  -3 115.022 18.5892   3
  11 -19  -3 143.871 20.9028   2
  11   8   3 128.527 25.3054   2
 -19  11   3 128.244 23.7929   5
   8 -19   3 140.114 24.4691   4
  19 -11  -3 127.202 18.3997   3
 -11  -8  -3 139.813 19.3299   5
 -11  -8  -3 113.534 20.1949   4
 -11  19   3 107.854 18.3882   3
  19 -11  -3 120.546 18.0918   4
  -8  19  -3 130.238 18.7480   3
  -8 -11   3 132.748 19.0823   5
 -11  -8  -3 118.495 18.2693   2
  -8  19  -3 133.951 19.0529   5
  -8  19  -3 135.340 24.0635   2
  11 -19   3 82.5604 17.9060   4
 -19  11  -3 94.4782 17.4058   5
 -19   8   3 73.5999 20.4130   2
 -19   8   3 85.6135 13.8985   2
   8  11   3 72.0734 15.2322   3
   8  11   3 79.8412 19.9688   2
  11 -19   3 96.5284 16.0690   2
 -19   8   3 108.711 20.3413   5
   8 -19  -3 70.7233 17.7099   4
  11   8  -3 106.859 16.8980   3
  -8 -11  -3 61.0029 13.9576   4
 -11  19  -3 88.8243 15.7554   5
  19 -11   3 92.1320 16.1531   4
  -8  19   3 86.6282 15.3495   3
  -8 -11  -3 75.7155 15.3317   2
  19  -8  -3 72.7363 14.5741   3
 -11  19  -3 74.2565 17.0195   2
   5 -19  -3 219.151 26.7044   4
   5  14   3 153.347 24.7344   3
 -19  14  -3 201.753 21.4416   5
  14   5  -3 236.464 23.8740   3
  14 -19   3 133.813 24.6110   4
 -19   5   3 190.976 25.3568   5
  19  -5  -3 218.259 26.7238   3
  19 -14   3 173.154 25.4904   4
 -14  -5   3 179.736 23.2961   5
  -5  19   3 158.901 19.7404   3
  -5 -14  -3 237.870 23.8809   4
   2  17   3 204.272 22.3268   3
   2 -19  -3 235.492 26.2791   4
 -19  17  -3 233.068 22.8017   5
  17   2  -3 197.044 21.8105   3
  17 -19   3 183.045 29.1473   4
 -19   2   3 194.738 26.7675   5
  -2 -17  -3 206.277 24.7388   4
 -17  -2   3 225.806 26.0054   5
  19  -2  -3 193.219 23.9893   3
  19 -17   3 263.879 28.5055   4
 -17  19  -3 246.540 24.0685   5
  -2  19   3 178.760 20.7408   3
   1 -20   3 95.9248 19.0997   4
 -20   1  -3 98.8784 19.9596   5
  19 -20  -3 53.9729 17.8813   4
   1  19  -3 48.1776 17.4905   3
 -20  19   3 98.1329 18.9671   5
 -19  -1  -3 64.1570 19.1566   5
  -1  20  -3 72.8944 18.6138   3
  -1  20  -3 70.0098 14.5076   5
  20 -19  -3 83.0593 21.4347   4
 -19  -1  -3 81.5224 14.1907   4
  20 -19  -3 72.8679 14.0875   3
  -1 -19   3 66.5301 14.4792   5
  16 -20  -3 200.069 29.8720   4
  16   4   3 238.220 28.2885   2
  16   4   3 242.393 22.9775   3
   4 -20   3 200.417 26.4076   4
   4  16  -3 224.727 25.2771   3
 -20  16   3 248.854 27.3504   5
   4 -20   3 221.949 25.5037   2
 -20   4  -3 210.069 25.5113   5
  -4  20  -3 222.132 31.9274   2
  20 -16  -3 194.526 23.3107   3
 -16  20   3 217.663 19.3397   3
  20 -16  -3 289.661 30.3057   4
  -4  20  -3 220.784 25.3969   3
 -16  -4  -3 262.251 21.7030   4
 -16  -4  -3 205.303 22.0356   2
 -16  -4  -3 215.850 25.9215   5
  20  -4   3 241.610 21.4086   4
  -4 -16   3 199.074 21.8265   5
  13   7   3 347.946 26.6567   3
  13   7   3 358.190 32.7985   2
 -20  13   3 280.728 32.6774   2
  13 -20  -3 326.471 31.0393   4
   7 -20   3 328.180 31.2250   4
 -20  13   3 315.313 29.1243   5
   7  13  -3 346.014 26.6076   3
 -20   7  -3 314.664 27.8412   5
   7 -20   3 333.117 27.3858   2
 -13  20   3 325.512 23.0817   3
 -13  -7  -3 329.897 25.4545   2
  20  -7   3 352.599 25.2665   4
 -13  -7  -3 369.078 26.2321   5
  -7  20  -3 341.225 24.7214   5
  20 -13  -3 318.887 24.1098   3
  20 -13  -3 327.676 29.9185   4
  -7  20  -3 336.905 33.4680   2
 -13  -7  -3 353.990 25.6866   4
  -7  20  -3 310.585 26.6637   3
  -7 -13   3 349.176 25.2557   5
  10  10   3 53.4394 14.8460   3
 -20  10   3 28.7942 17.8622   5
 -20  10  -3 13.2282 13.9733   5
  10 -20   3 40.8869 12.6968   2
  10 -20  -3 14.1365 13.8644   4
  10  10   3 40.3328 17.4032   2
  10  10  -3 16.6759 15.0973   3
 -20  10   3 19.7214 18.7263   2
  10 -20   3 49.7627 18.7803   4
 -10  20   3 32.0122 12.1511   3
 -10 -10  -3 16.4041 13.3974   4
 -10  20  -3 5.03266 11.4746   3
  20 -10  -3 13.3281 12.5062   3
 -10  20  -3 13.9190 15.2238   2
 -10  20  -3 9.20725 13.4574   5
 -10 -10  -3 4.71860 11.4857   2
 -10 -10   3 35.0309 14.9427   5
  20 -10   3 30.9002 14.1174   4
   7  13   3 131.102 21.3958   3
 -20   7   3 166.797 23.1157   5
   7 -20  -3 136.071 20.1758   4
  13   7  -3 132.648 19.9745   3
 -20  13  -3 161.748 21.8869   5
  13 -20   3 161.326 27.9855   4
  20 -13   3 141.958 25.1960   4
 -13  20  -3 140.380 22.1593   5
 -13  -7   3 144.310 21.0424   5
  -7  20   3 145.454 18.7280   3
  -7 -13  -3 142.302 21.2193   4
  16   4  -3 41.6764 14.6698   3
  16 -20   3 36.1638 18.5761   4
 -20  16  -3 82.5057 17.9768   5
 -20   4   3 49.4933 17.2120   5
   4  16   3 58.2082 15.4781   3
   4 -20  -3 63.6023 18.3153   4
  20  -4  -3 57.6772 15.9465   3
  -4 -16  -3 60.7785 15.5501   4
 -16  20  -3 65.2298 15.8754   5
  20 -16   3 56.5270 17.3481   4
  -4  20   3 44.5306 13.9188   3
 -16  -4   3 39.8974 16.8424   5
  19   1  -3 55.7623 15.5040   3
   1 -20  -3 43.6338 15.9857   4
 -20  19  -3 71.3726 18.6846   5
 -20   1   3 71.2056 18.0406   5
  19 -20   3 89.8315 20.7102   4
   1  19   3 63.7686 15.1020   3
  20  -1  -3 74.0313 16.0679   3
  -1 -19  -3 38.6449 15.2083   4
  -1  20   3 80.3803 15.8236   3
 -19  -1   3 75.2814 19.4753   5
  20 -19   3 50.7263 20.0311   4
 -19  20  -3 97.5688 19.0866   5
  21 -21  -3 195.859 31.1498   4
 -21   0  -3 218.545 28.3205   5
   0  21  -3 232.552 27.2609   3
   0 -21   3 201.830 21.6995   5
 -21   3  -3 153.071 24.5741   5
  18 -21  -3 85.9781 21.2028   4
 -21  18   3 191.349 27.0517   5
   3  18  -3 151.322 23.4593   3
   3 -21   3 164.540 28.0270   4
  -3  21  -3 133.038 21.0391   3
 -18  -3  -3 133.976 18.9189   4
  -3 -18   3 140.169 20.4191   5
  21 -18  -3 137.460 25.2205   4
  -3  21  -3 136.875 19.1398   5
  21 -18  -3 134.076 18.7332   3
  21  -3   3 139.973 19.7942   4
 -18  21   3 169.339 18.0536   3
   6 -21   3 62.9613 18.8522   4
 -21  15   3 58.9762 18.2555   5
 -21   6  -3 64.3815 17.3249   5
   6  15  -3 52.2729 16.8240   3
  15   6   3 76.2360 20.2157   2
  15 -21  -3 45.6001 17.6129   4
   6 -21   3 51.9257 15.2795   2
  15   6   3 60.2940 15.1229   3
  21 -15  -3 57.6891 18.9602   4
  -6  21  -3 81.6043 15.9842   5
 -15  21   3 57.1840 12.9551   3
  21 -15  -3 40.3749 13.2334   3
  -6  21  -3 52.9616 21.1111   2
  -6  21  -3 55.7885 16.1895   3
  21  -6   3 73.9443 14.4536   4
 -15  -6  -3 67.2519 15.3045   2
 -15  -6  -3 64.5429 17.4194   5
 -15  -6  -3 54.0760 14.4644   4
  -6 -15   3 81.9454 16.2199   5
  12   9   3 36.9661 15.8604   3
 -21   9  -3 66.6192 15.8422   5
   9 -21   3 47.6004 14.5882   2
   9  12  -3 48.0747 15.1860   3
  12 -21  -3 61.6407 17.9505   4
  12   9   3 84.0566 25.1937   2
   9 -21   3 76.2035 19.8810   4
  -9  21  -3 79.3170 18.1602   5
 -12  21   3 47.9237 13.5765   3
  -9  21  -3 64.5313 20.4405   2
  -9 -12   3 52.3834 14.8958   5
 -12  -9  -3 35.7862 12.9133   4
  21  -9   3 58.2716 14.5815   4
  -9  21  -3 95.1853 16.2888   3
  21 -12  -3 30.8144 17.8000   3
 -12  -9  -3 38.4922 13.6981   2
 -21  12  -3 3.57082 14.0384   5
   9  12   3 -5.7843 14.8224   3
  12   9  -3 -9.6536 13.1009   3
  12 -21   3 -7.3771 17.9754   4
   9 -21  -3 5.75759 15.9426   4
 -21   9   3 7.40204 16.9232   5
 -12  -9   3 11.5941 14.6751   5
  -9 -12  -3 4.45429 12.3356   4
  21  -9  -3 -7.1941 13.8483   3
 -12  21  -3 26.2561 13.8843   5
  -9  21   3 -11.977 10.9208   3
  21 -12   3 -0.8341 15.2101   4
   6 -21  -3 82.6759 18.0530   4
  15   6  -3 89.2687 17.0137   3
   6  15   3 82.2332 16.2671   3
 -21  15  -3 119.854 22.0565   5
  15 -21   3 98.1298 22.2864   4
 -21   6   3 117.042 21.4507   5
 -15  -6   3 79.8162 17.0148   5
  21  -6  -3 87.5071 16.2660   3
  -6 -15  -3 143.527 22.4435   4
 -15  21  -3 121.587 21.5651   5
  -6  21   3 78.4968 14.4289   3
  21 -15   3 105.224 19.8289   4
 -21   3   3 290.522 29.6480   5
  18   3  -3 335.931 26.2245   3
   3  18   3 296.385 27.5708   3
 -21  18  -3 308.902 26.0489   5
   3 -21  -3 367.066 30.8300   4
  18 -21   3 339.738 32.1153   4
  21 -18   3 338.586 32.2373   4
  -3 -18  -3 329.232 29.1388   4
 -18  21  -3 321.137 26.5178   5
 -18  -3   3 293.374 28.5388   5
  -3  21   3 319.239 24.2345   3
  21  -3  -3 343.412 27.5152   3
 -21  21  -3 521.566 33.5262   5
   0 -21  -3 480.175 35.0386   4
 -21   0   3 493.380 35.4942   5
  21 -21   3 464.372 37.6066   4
  21   0  -3 487.911 32.6211   3
   0  21   3 493.786 32.8262   3
  20 -22  -3 31.2566 19.4569   4
 -22  20   3 58.0973 18.5886   5
   2  20  -3 31.0100 17.9092   3
 -22   2  -3 16.9353 17.2753   5
  22 -20  -3 41.8215 13.6557   3
  -2  22  -3 40.5724 17.6615   3
 -20  -2  -3 24.9963 18.5088   5
 -20  -2  -3 17.0209 11.7444   4
  -2 -20   3 47.0695 15.7516   5
  22  -2   3 37.2565 14.1081   4
 -20  22   3 41.9621 13.1937   3
  22 -20  -3 24.2035 19.0773   4
  17   5   3 164.775 24.2355   3
 -22  17   3 151.670 24.5519   5
  17 -22  -3 101.941 21.4102   4
   5  17  -3 94.2206 18.8129   3
  17   5   3 153.821 39.2884   2
 -22   5  -3 78.5723 18.2050   5
   5 -22   3 102.146 20.9670   4
  -5  22  -3 108.762 17.7510   5
 -17  -5  -3 112.503 16.1316   4
  -5 -17   3 136.052 20.9971   5
 -17  -5  -3 91.9781 19.5662   5
  22 -17  -3 134.737 23.3145   4
  22 -17  -3 98.5359 16.0335   3
 -17  22   3 140.144 18.7904   3
  -5  22  -3 97.4724 18.8973   3
  22  -5   3 114.065 16.1142   4
   8  14  -3 84.2880 18.0608   3
  14   8   3 113.990 18.2445   3
 -22  14   3 153.481 26.1326   5
  14 -22  -3 79.4340 19.9890   4
   8 -22   3 105.054 22.1101   2
 -22   8  -3 67.9579 17.1466   5
  -8  22  -3 37.7955 22.2074   2
  22 -14  -3 85.8136 20.6019   4
  22  -8   3 126.347 20.9782   4
 -14  -8  -3 95.2713 17.4438   5
  22 -14  -3 83.9074 15.2047   3
 -14  -8  -3 86.3626 15.4313   4
  -8 -14   3 103.194 17.3673   5
 -14  22   3 112.071 17.7504   3
  -8  22  -3 117.936 17.8779   5
  -8  22  -3 61.7954 16.7895   3
 -14  -8  -3 63.9364 17.9408   2
  11  11   3 118.167 19.2087   3
  11  11  -3 135.739 19.3964   3
  11 -22   3 131.820 22.7629   4
  11 -22  -3 62.8835 16.6186   4
 -22  11   3 144.543 22.6763   5
 -22  11  -3 99.9532 18.1830   5
 -11  22   3 116.439 15.7540   3
 -11  22  -3 117.931 20.4261   5
 -11 -11  -3 126.124 17.0953   4
  22 -11  -3 99.8636 16.1823   3
 -11 -11   3 118.931 21.0616   5
  22 -11   3 131.108 23.0527   4
   8 -22  -3 117.048 19.1077   4
  14   8  -3 157.968 22.5866   3
 -22  14  -3 179.574 23.3596   5
  14 -22   3 126.946 21.6386   4
 -22   8   3 166.522 26.7842   5
   8  14   3 132.699 19.4058   3
  -8 -14  -3 112.798 17.0681   4
 -14  22  -3 175.749 22.2691   5
  -8  22   3 149.319 19.8469   3
  22 -14   3 134.092 20.3973   4
  22  -8  -3 158.962 21.8275   3
 -14  -8   3 128.075 19.4746   5
   5 -22  -3 330.280 29.8080   4
 -22   5   3 274.090 30.8257   5
 -22  17  -3 307.626 27.7162   5
  17 -22   3 293.118 33.5776   4
  17   5  -3 353.354 28.1425   3
   5  17   3 299.092 26.8616   3
  22  -5  -3 306.833 26.4674   3
 -17  22  -3 351.054 27.2145   5
 -17  -5   3 286.540 28.9093   5
  22 -17   3 283.721 30.0819   4
  -5 -17  -3 329.088 28.0132   4
  -5  22   3 291.302 24.5526   3
  20   2  -3 204.951 23.1953   3
 -22   2   3 209.275 28.9559   5
  20 -22   3 200.530 30.5424   4
 -22  20  -3 241.059 26.5778   5
   2  20   3 242.479 26.2783   3
   2 -22  -3 217.781 28.5859   4
 -20  22  -3 227.966 25.4714   5
  22 -20   3 262.170 31.3386   4
  -2 -20  -3 193.257 26.8145   4
  -2  22   3 209.411 24.3993   3
  22  -2  -3 233.437 25.3903   3
 -20  -2   3 198.228 27.9232   5
 -23   1  -3 108.990 21.9824   5
  22 -23  -3 58.7553 23.6753   4
   1  22  -3 80.8755 18.4944   3
   1 -23   3 68.2517 15.4522   5
  -1  23  -3 62.3584 19.1375   3
 -22  -1  -3 63.7095 19.6709   5
 -22  23   3 71.4921 15.9974   3
  -1 -22   3 76.0647 17.8406   5
  23 -22  -3 68.7938 20.9946   4
  23  -1   3 63.0091 14.5045   4
  19 -23  -3 144.599 24.4474   4
 -23  19   3 196.685 28.7663   5
   4  19  -3 117.171 19.5778   3
 -23   4  -3 142.717 25.7457   5
   4 -23   3 107.028 39.4366   4
  23 -19  -3 125.609 19.2489   3
  -4  23  -3 146.067 22.1251   3
  23  -4   3 140.620 22.3599   4
 -19  23   3 137.824 19.5108   3
  -4 -19   3 94.9795 17.7985   5
 -19  -4  -3 89.5288 20.1928   5
 -19  -4  -3 136.220 19.6840   4
  -4  23  -3 146.640 20.2046   5
  23 -19  -3 120.714 23.6663   4
 -23  16   3 161.712 26.5754   5
  16 -23  -3 91.6640 20.0960   4
   7  16  -3 121.290 21.0134   3
 -23   7  -3 145.681 25.1381   5
  16   7   3 164.453 24.9889   3
   7 -23   3 180.804 29.9779   4
 -16  -7  -3 148.193 18.3959   4
 -16  -7  -3 138.024 21.5753   5
  23  -7   3 140.891 22.5476   4
  -7 -16   3 145.249 21.8466   5
  -7  23  -3 145.644 29.6655   3
  23 -16  -3 147.486 20.5721   3
 -16  23   3 184.577 20.6276   3
  23 -16  -3 151.003 25.3928   4
  -7  23  -3 137.140 19.6865   5
  13  10   3 42.8019 17.5237   3
  13 -23  -3 36.3110 16.7678   4
 -23  10  -3 26.0444 15.0611   5
  10 -23   3 41.8933 18.4940   4
 -23  13   3 53.6228 20.1339   5
  10  13  -3 31.4083 16.3660   3
 -10  23  -3 43.6394 15.7235   5
 -13 -10  -3 28.3217 14.7296   4
  23 -13  -3 28.5825 14.0315   3
  23 -10   3 46.9145 16.4291   4
 -13  23   3 44.4570 14.3799   3
 -10 -13   3 29.2126 15.1298   5
  13  10  -3 70.0619 16.0199   3
 -23  13  -3 60.8401 16.5089   5
  10 -23  -3 72.5144 19.8553   4
  10  13   3 110.879 19.3408   3
 -23  10   3 64.5908 18.7091   5
  13 -23   3 106.140 23.2804   4
 -13 -10   3 65.5715 17.1027   5
  23 -13   3 99.8255 19.4384   4
 -10 -13  -3 69.5008 15.3945   4
 -13  23  -3 117.716 18.8641   5
 -10  23   3 58.7251 13.5380   3
  23 -10  -3 48.8423 14.9377   3
   7  16   3 238.723 27.1142   3
  16   7  -3 266.571 26.6313   3
 -23   7   3 177.247 27.6568   5
   7 -23  -3 280.390 29.1952   4
  16 -23   3 176.535 31.5970   4
 -23  16  -3 241.299 23.6497   5
 -16  -7   3 227.323 26.4696   5
  23  -7  -3 218.677 25.7047   3
 -16  23  -3 249.588 24.8355   5
  -7 -16  -3 273.104 25.6594   4
  23 -16   3 279.121 28.8886   4
  -7  23   3 214.268 21.2170   3
 -23   4   3 197.121 28.4195   5
   4  19   3 217.554 24.7901   3
  19   4  -3 246.060 26.3405   3
   4 -23  -3 216.798 28.1622   4
  19 -23   3 171.625 24.5950   4
 -23  19  -3 197.965 25.3964   5
  23 -19   3 209.423 30.6289   4
 -19  -4   3 170.241 26.5348   5
  -4 -19  -3 184.787 26.0290   4
  -4  23   3 181.326 22.8433   3
 -19  23  -3 192.968 24.5317   5
  23  -4  -3 205.562 24.7770   3
 -23   1   3 61.0062 19.1723   5
  22 -23   3 60.4367 20.2190   4
  22   1  -3 81.6152 18.1765   3
   1 -23  -3 49.2303 17.7733   4
 -23  22  -3 60.2375 18.6629   5
   1  22   3 63.7240 16.2174   3
  -1 -22  -3 28.2099 15.7069   4
  23  -1  -3 73.3601 17.7892   3
 -22  -1   3 51.8090 20.5657   5
  -1  23   3 85.9377 18.9758   3
 -22  23  -3 98.8321 20.0104   5
  23 -22   3 52.6672 20.6378   4
  24 -24  -3 223.541 34.5664   4
   0  24  -3 252.169 29.2375   3
 -24  24   3 199.746 23.7644   3
 -24   0  -3 260.766 31.5466   5
   0 -24   3 206.247 24.8222   5
  24   0   3 234.713 25.0279   4
 -24  21   3 258.522 30.1045   5
   3 -24   3 219.132 36.1762   4
  21 -24  -3 118.617 23.3828   4
   3  21  -3 148.761 22.8480   3
 -24   3  -3 181.021 27.2934   5
  -3  24  -3 169.942 28.1147   3
 -21  -3  -3 150.597 21.0973   4
 -21  -3  -3 149.431 27.6967   5
  24 -21  -3 109.531 24.0651   4
 -21  24   3 170.779 21.0650   3
  24  -3   3 192.988 24.3923   4
  -3 -21   3 166.811 22.9124   5
  24 -21  -3 141.459 20.4990   3
   6  18  -3 66.0421 19.4111   3
  18 -24  -3 19.4411 19.6672   4
  18   6   3 69.0543 17.7200   3
 -24   6  -3 54.5586 19.5156   5
 -24  18   3 76.8621 22.6580   5
   6 -24   3 31.5942 20.5881   4
  24 -18  -3 55.1059 15.1015   3
 -18  -6  -3 39.9597 13.0503   4
  24  -6   3 35.0407 15.9136   4
  -6  24  -3 41.9170 14.2528   5
  -6 -18   3 39.6526 15.7667   5
 -18  -6  -3 44.7111 18.4217   5
  -6  24  -3 41.0067 17.7762   3
  24 -18  -3 44.0392 22.3994   4
 -18  24   3 56.0172 15.2929   3
  15 -24  -3 22.6122 17.0829   4
   9  15  -3 25.8545 16.0619   3
 -24   9  -3 15.3997 17.0149   5
  15   9   3 16.1503 16.5443   3
 -24  15   3 22.4335 19.6895   5
   9 -24   3 29.2955 19.9529   4
  -9  24  -3 3.22462 16.9404   3
  24 -15  -3 -22.759 12.5763   3
  -9 -15   3 4.91353 15.7593   5
  24  -9   3 21.2959 16.2398   4
 -15  24   3 25.4816 12.8973   3
  -9  24  -3 5.53602 14.8848   5
 -15  -9  -3 24.4915 12.8083   4
  12  12  -3 156.018 23.1442   3
  12  12   3 160.946 22.8076   3
 -24  12  -3 160.513 24.4893   5
  12 -24   3 184.140 26.9270   4
  12 -24  -3 171.039 26.9429   4
 -24  12   3 160.148 27.9957   5
 -12  24  -3 141.858 22.6140   5
 -12  24   3 136.095 19.0848   3
 -12 -12   3 155.819 23.5643   5
  24 -12   3 101.865 17.9371   4
 -12 -12  -3 169.607 23.3954   4
  24 -12  -3 175.096 22.6298   3
   9 -24  -3 41.0487 17.2259   4
 -24  15  -3 37.2728 17.4816   5
  15 -24   3 26.3529 19.8621   4
   9  15   3 47.8689 19.1957   3
  15   9  -3 39.7092 15.2722   3
 -24   9   3 41.9781 18.6888   5
 -15  24  -3 43.1600 17.2098   5
  24  -9  -3 35.8358 15.2508   3
  -9 -15  -3 45.5044 16.5962   4
  24 -15   3 36.0855 16.0677   4
 -15  -9   3 39.2804 18.6004   5
  -9  24   3 39.9378 18.2009   3
  18 -24   3 142.136 23.7078   4
  18   6  -3 193.706 25.8549   3
 -24   6   3 178.530 29.1661   5
 -24  18  -3 183.883 25.5603   5
   6  18   3 214.088 24.7206   3
   6 -24  -3 184.801 28.1609   4
  24  -6  -3 158.083 24.6202   3
  24 -18   3 229.041 30.1529   4
 -18  24  -3 200.452 24.0177   5
  -6 -18  -3 196.715 26.8850   4
  -6  24   3 207.453 23.3442   3
 -18  -6   3 199.723 26.8736   5
  21   3  -3 234.075 26.5320   3
   3 -24  -3 225.588 29.6748   4
   3  21   3 244.507 26.1438   3
 -24  21  -3 230.253 27.3669   5
 -24   3   3 232.809 29.1969   5
  21 -24   3 224.647 33.4892   4
  24 -21   3 233.339 31.4931   4
 -21  -3   3 192.553 28.0043   5
  24  -3  -3 222.013 26.2117   3
 -21  24  -3 212.453 25.6611   5
  -3 -21  -3 239.976 28.2929   4
  -3  24   3 215.910 25.6210   3
   0 -24  -3 61.1979 19.5495   4
 -24  24  -3 97.7634 20.7766   5
  24 -24   3 85.4994 23.3793   4
 -24   0   3 64.7865 21.8532   5
  24   0  -3 105.710 21.3535   3
   0  24   3 85.0630 18.5728   3
 -25   2  -3 39.9729 20.3893   5
  23 -25  -3 13.5454 21.6336   4
   2  23  -3 17.2870 18.6130   3
   2 -25   3 8.67413 15.6022   5
  -2  25  -3 8.58702 18.8922   3
  -2 -23   3 23.8364 16.9638   5
 -23  -2  -3 56.4066 21.2198   5
 -23  25   3 -0.9466 15.1457   3
  25 -23  -3 27.0634 22.5217   4
  25  -2   3 20.4448 15.4816   4
   5  20  -3 56.4320 18.7823   3
 -25  20   3 74.7288 22.6942   5
  20 -25  -3 34.4201 21.0614   4
 -25   5  -3 53.1244 19.0849   5
   5 -25   3 56.4238 21.9996   4
  -5 -20   3 52.6452 15.8405   5
 -20  -5  -3 100.499 22.7413   5
 -20  25   3 70.2513 16.1875   3
  25 -20  -3 52.0189 14.5934   3
  -5  25  -3 111.153 22.6521   3
  25  -5   3 75.8018 18.0474   4
  -5  25  -3 62.5479 16.0039   5
  25 -20  -3 66.0931 23.9749   4
 -20  -5  -3 50.4992 14.3929   4
   8 -25   3 172.099 26.2650   4
 -25  17   3 168.849 29.6008   5
  17 -25  -3 124.072 22.3464   4
 -25   8  -3 117.873 21.1396   5
  17   8   3 132.664 21.2121   3
   8  17  -3 140.403 22.3649   3
  -8  25  -3 176.255 28.1093   3
 -17  -8  -3 145.884 21.6488   4
  25 -17  -3 99.8842 26.0504   4
 -17  25   3 169.945 20.6935   3
 -17  -8  -3 138.621 26.7537   5
  -8  25  -3 114.411 21.6718   5
  25  -8   3 155.152 23.9412   4
  -8 -17   3 138.667 24.5157   5
  25 -17  -3 138.587 21.5385   3
  14  11   3 68.1790 19.1690   3
 -25  14   3 64.0725 20.3139   5
 -25  11  -3 69.6440 19.3156   5
  11  14  -3 48.5128 16.4338   3
  11 -25   3 59.2420 21.9931   4
  14 -25  -3 65.0454 19.7200   4
 -14  25   3 49.6117 14.6080   3
 -11  25  -3 50.7678 16.7197   5
  25 -11   3 52.1510 17.0537   4
 -14 -11  -3 93.6252 17.5185   4
  25 -14  -3 58.7055 17.0696   3
 -11 -14   3 35.9180 15.5092   5
  14  11  -3 243.322 26.2565   3
  14 -25   3 232.479 34.4318   4
 -25  11   3 212.162 29.0247   5
 -25  14  -3 236.648 26.5746   5
  11 -25  -3 238.326 29.0259   4
  11  14   3 266.830 28.3995   3
 -11  25   3 216.317 24.0474   3
  25 -14   3 233.210 29.7714   4
 -14  25  -3 256.602 26.0163   5
 -14 -11   3 206.758 26.5231   5
 -11 -14  -3 247.580 25.4632   4
  25 -11  -3 247.092 25.0068   3
  17   8  -3 90.5882 19.1616   3
 -25  17  -3 53.4257 17.0777   5
 -25   8   3 50.0381 18.7793   5
   8 -25  -3 31.6477 16.9451   4
   8  17   3 69.2011 19.9227   3
  17 -25   3 53.7988 22.8058   4
  25 -17   3 86.2265 21.0983   4
  -8 -17  -3 75.8226 17.9674   4
 -17  -8   3 50.3999 19.0566   5
  -8  25   3 58.3437 15.8053   3
 -17  25  -3 60.8093 17.8206   5
  25  -8  -3 88.1394 18.3531   3
   5  20   3 26.2110 18.1111   3
  20   5  -3 74.8802 19.3735   3
 -25   5   3 72.1466 22.6731   5
  20 -25   3 44.2179 22.0922   4
 -25  20  -3 63.4758 19.1381   5
   5 -25  -3 49.3092 19.4127   4
  -5  25   3 43.8274 17.4624   3
  25  -5  -3 54.4355 16.3039   3
 -20  -5   3 68.8152 21.5361   5
 -20  25  -3 72.5798 19.7359   5
  -5 -20  -3 34.9977 16.3719   4
  25 -20   3 66.9829 22.5887   4
  23 -25   3 14.2770 19.5974   4
 -25  23  -3 41.8045 18.9409   5
   2  23   3 14.8790 16.7584   3
   2 -25  -3 18.4126 18.0929   4
  23   2  -3 8.86116 17.0128   3
 -25   2   3 25.3153 18.2497   5
  25  -2  -3 22.3506 18.5385   3
 -23  25  -3 20.9282 17.7776   5
  -2  25   3 26.9532 17.5149   3
  25 -23   3 3.85330 18.1720   4
 -23  -2   3 10.5080 20.1153   5
  -2 -23  -3 24.4920 17.3577   4
   1 -26   3 35.7156 17.5330   5
   1  25  -3 11.9781 20.3293   3
 -26   1  -3 25.9448 19.8546   5
  25   1   3 25.8900 15.6218   4
  25 -26  -3 30.8697 23.9005   4
 -26  25   3 33.6743 16.8978   3
  -1  26  -3 30.1002 20.8225   3
 -25  -1  -3 24.6974 21.2315   5
  26 -25  -3 11.8576 24.0448   4
  26  -1   3 32.2438 17.6305   4
 -25  26   3 14.2863 15.7731   3
  -1 -25   3 1.89842 15.9140   5
   4  22  -3 153.911 24.2113   3
 -26   4  -3 144.747 24.1575   5
  22 -26  -3 158.457 27.4585   4
 -22  26   3 180.948 22.5673   3
 -22  -4  -3 113.326 23.1066   5
 -22  -4  -3 134.277 21.0240   4
  -4 -22   3 145.001 24.3714   5
  26  -4   3 172.729 26.0381   4
  26 -22  -3 151.284 28.3653   4
  -4  26  -3 168.734 26.1596   3
   7  19  -3 240.967 28.8892   3
 -26  19   3 245.554 30.5835   5
 -26   7  -3 215.842 29.3437   5
  19   7   3 219.270 29.7385   3
  19 -26  -3 215.135 31.7858   4
   7 -26   3 263.518 37.9549   4
  26  -7   3 251.180 26.6228   4
  26 -19  -3 202.026 22.8021   3
 -19  -7  -3 187.582 23.2283   4
 -19  26   3 223.719 23.8694   3
  -7  26  -3 184.400 23.7078   5
 -19  -7  -3 247.110 31.4768   5
  26 -19  -3 192.486 30.6896   4
  -7  26  -3 198.376 27.0769   3
  -7 -19   3 175.900 26.4653   5
  10 -26   3 133.221 23.6989   4
  10  16  -3 78.8345 18.8754   3
  16  10   3 143.776 22.3038   3
 -26  10  -3 87.0313 19.3976   5
  16 -26  -3 47.4865 18.2458   4
 -10 -16   3 128.497 21.0591   5
  26 -16  -3 95.7851 18.2070   3
 -16  26   3 122.972 20.6118   3
  26 -10   3 95.9520 18.7212   4
 -16 -10  -3 81.4023 16.5213   4
 -10  26  -3 135.958 22.2983   5
  13  13  -3 15.7527 16.7810   3
 -26  13   3 -6.7837 18.6256   5
 -26  13  -3 5.00301 16.8684   5
  13 -26   3 15.7674 19.9244   4
  13  13   3 17.4675 17.3432   3
  13 -26  -3 8.07579 15.3286   4
 -13 -13   3 13.6732 17.0747   5
 -13 -13  -3 -10.938 15.2617   4
  26 -13   3 15.4423 18.1975   4
 -13  26   3 -7.8219 14.7038   3
  26 -13  -3 3.42141 16.9444   3
 -13  26  -3 1.53264 16.2928   5
  16 -26   3 302.805 36.3997   4
 -26  16  -3 224.524 26.2039   5
  10  16   3 324.088 29.9366   3
  16  10  -3 199.020 26.4818   3
  10 -26  -3 247.178 30.8801   4
 -26  10   3 253.559 30.8809   5
 -16 -10   3 276.221 29.6505   5
 -16  26  -3 267.180 26.6234   5
 -10 -16  -3 247.698 28.2368   4
  26 -16   3 302.676 31.5854   4
  26 -10  -3 218.679 26.4638   3
 -10  26   3 288.511 25.4268   3
 -26   7   3 285.597 31.4145   5
  19 -26   3 287.839 36.0642   4
   7  19   3 301.706 29.7298   3
   7 -26  -3 261.519 30.8395   4
  19   7  -3 314.553 29.3285   3
 -26  19  -3 302.254 29.2419   5
  26  -7  -3 294.557 28.3510   3
 -19  26  -3 285.182 28.0754   5
  26 -19   3 283.841 33.5630   4
 -19  -7   3 291.045 30.5388   5
  -7  26   3 281.960 26.5283   3
  -7 -19  -3 272.656 29.1436   4
 -26  22  -3 116.030 21.8036   5
   4  22   3 123.498 21.6671   3
  22   4  -3 169.221 22.6168   3
 -26   4   3 140.518 24.4965   5
   4 -26  -3 133.698 23.2729   4
  22 -26   3 89.0139 22.9479   4
  -4  26   3 170.359 22.9464   3
 -22  26  -3 144.460 23.5381   5
  -4 -22  -3 113.734 20.4531   4
 -22  -4   3 163.374 25.7414   5
  26  -4  -3 101.865 20.2569   3
  26 -22   3 148.399 24.2350   4
 -26   1   3 14.5391 21.2425   5
 -26  25  -3 17.2090 18.4964   5
   1  25   3 5.61783 19.4651   3
  25 -26   3 18.0846 21.6695   4
   1 -26  -3 11.6796 18.3463   4
  25   1  -3 13.6620 17.8437   3
 -25  -1   3 20.5600 20.8301   5
  -1 -25  -3 15.3465 19.7112   4
 -25  26  -3 23.3963 18.1435   5
  26  -1  -3 22.6086 17.2648   3
  -1  26   3 21.3706 17.6649   3
  26 -25   3 23.2846 19.2380   4
  24 -27  -3 72.3372 24.9155   4
   3  24  -3 35.7374 22.1021   3
  24   3   3 55.4793 16.9275   4
   3 -27   3 70.4118 19.6451   5
 -27  24   3 20.3348 16.7764   3
 -27   3  -3 36.1021 20.2790   5
  -3  27  -3 62.0918 22.8681   3
 -24  -3  -3 34.4258 21.2357   5
  27 -24  -3 38.6398 25.2547   4
  -3 -24   3 69.2097 20.2368   5
  27  -3   3 70.8577 19.3993   4
 -24  27   3 65.6769 18.9385   3
  21 -27  -3 24.0916 20.4628   4
 -27  21   3 59.8160 21.9079   5
   6  21  -3 10.3900 18.3179   3
 -27   6  -3 24.1101 19.1136   5
   6 -27   3 61.8384 24.6739   4
  27 -21  -3 23.4110 25.2802   4
 -21  -6  -3 21.6998 14.8112   4
  -6  27  -3 29.3444 20.8070   3
  27  -6   3 4.48114 17.1160   4
 -21  27   3 18.6493 15.7714   3
 -21  -6  -3 49.5266 21.9659   5
  27 -21  -3 14.8228 14.9060   3
  -6 -21   3 16.3354 18.4108   5
  18 -27  -3 12.4824 18.6774   4
 -27  18   3 20.1972 20.8599   5
   9  18  -3 19.8861 18.7163   3
  18   9   3 9.95556 18.0411   3
   9 -27   3 15.2342 23.3052   4
 -27   9  -3 4.32526 17.5884   5
 -18  -9  -3 22.0325 14.9152   4
  -9  27  -3 18.8834 15.7804   5
  -9  27  -3 13.9892 20.7578   3
 -18  27   3 23.0154 15.3412   3
  27  -9   3 16.6393 18.2714   4
  -9 -18   3 26.1897 17.7867   5
  27 -18  -3 7.86927 14.9635   3
  15 -27  -3 70.4139 19.5167   4
 -27  12  -3 70.3557 18.6410   5
  15  12   3 69.3363 18.8698   3
  12  15  -3 52.0564 17.1651   3
  12 -27   3 44.5939 21.6829   4
 -27  15   3 85.4439 23.4431   5
 -15 -12  -3 60.5220 16.2988   4
  27 -15  -3 58.5181 16.0378   3
 -12 -15   3 66.6833 19.3658   5
  27 -12   3 55.0447 19.6509   4
 -15  27   3 43.0755 15.7633   3
 -12  27  -3 70.8170 18.4097   5
 -27  15  -3 57.9434 16.9368   5
  12  15   3 102.650 20.7080   3
  15  12  -3 86.0901 17.8942   3
 -27  12   3 120.974 23.9583   5
  15 -27   3 108.569 24.0604   4
  12 -27  -3 93.7958 22.4089   4
 -12 -15  -3 98.8001 18.3509   4
 -12  27   3 105.785 19.0395   3
  27 -12  -3 112.669 20.1145   3
 -15 -12   3 137.523 23.2596   5
 -15  27  -3 107.405 20.4216   5
  27 -15   3 130.405 22.9777   4
   9  18   3 109.088 22.0564   3
 -27  18  -3 110.041 21.2308   5
   9 -27  -3 101.115 21.7618   4
 -27   9   3 73.6670 20.4930   5
  18 -27   3 138.566 27.7075   4
  18   9  -3 60.3960 17.7759   3
  -9 -18  -3 79.7254 18.5693   4
 -18  27  -3 69.5216 18.9789   5
 -18  -9   3 108.860 23.2335   5
  27  -9  -3 56.5007 18.0574   3
  27 -18   3 69.8502 19.7931   4
  -9  27   3 123.291 19.7837   3
   6 -27  -3 47.7346 18.9361   4
 -27   6   3 79.6490 22.5904   5
  21   6  -3 80.7866 19.9867   3
 -27  21  -3 98.5668 21.5462   5
  21 -27   3 75.7478 24.7946   4
   6  21   3 60.6087 19.3028   3
  27  -6  -3 87.5678 20.8074   3
 -21  27  -3 64.5097 19.2437   5
 -21  -6   3 54.1482 19.3495   5
  27 -21   3 65.6775 21.4531   4
  -6 -21  -3 62.0726 17.8255   4
  -6  27   3 62.8915 17.8674   3
  24 -27   3 46.5074 21.9573   4
   3  24   3 13.4988 17.5427   3
   3 -27  -3 36.6677 20.4432   4
 -27  24  -3 41.8278 18.7517   5
  24   3  -3 24.7131 18.4005   3
 -27   3   3 7.94072 18.2520   5
  27 -24   3 14.1236 21.1523   4
  -3 -24  -3 24.5010 18.1409   4
 -24  -3   3 33.6660 21.7498   5
 -24  27  -3 49.9923 19.5781   5
  -3  27   3 26.8954 17.9516   3
  27  -3  -3 18.9838 17.8185   3
   5 -28   3 38.6719 17.7728   5
 -28   5  -3 31.0786 20.3391   5
   5  23  -3 -9.3189 19.7325   3
  23 -28  -3 -5.3859 22.3157   4
  -5  28  -3 27.3117 21.5196   3
 -23  -5  -3 44.8193 22.6727   5
  -5 -23   3 24.5440 19.9974   5
 -23  28   3 11.2271 16.5603   3
  28  -5   3 22.3276 17.7935   4
  28 -23  -3 57.0627 26.3989   4
 -28  20   3 109.432 24.5436   5
 -28   8  -3 63.2902 21.5934   5
  20   8   3 71.4957 21.8225   3
   8 -28   3 54.6940 25.4019   4
   8  20  -3 58.9703 19.2120   3
  20 -28  -3 37.1944 19.7462   4
  -8  28  -3 49.1949 17.6288   5
 -20  -8  -3 89.8716 17.3110   4
  28 -20  -3 41.1949 15.3060   3
 -20  28   3 63.6672 17.1135   3
  28  -8   3 83.0067 20.8640   4
  -8 -20   3 48.0390 19.6370   5
  28 -20  -3 22.2599 27.0744   4
  -8  28  -3 59.4642 23.1526   3
 -28  11  -3 62.9127 19.5932   5
  17 -28  -3 38.0745 18.4004   4
  11  17  -3 52.8469 18.3194   3
  11 -28   3 55.4461 23.5897   4
  17  11   3 40.9622 19.6575   3
 -28  17   3 85.3430 22.6817   5
  28 -11   3 61.8098 19.8943   4
 -11  28  -3 40.8783 17.5063   5
 -17  28   3 54.6039 17.7285   3
 -11 -17   3 63.9525 20.2048   5
 -17 -11  -3 42.2582 16.0598   4
  28 -17  -3 3.11018 15.9116   3
  14 -28  -3 65.7546 19.1053   4
  14  14   3 79.2118 19.3479   3
 -28  14  -3 89.6449 20.7498   5
  14 -28   3 97.0267 26.8866   4
  14  14  -3 84.8419 19.6734   3
 -28  14   3 108.232 23.9613   5
 -14  28  -3 78.9790 19.7379   5
  28 -14  -3 62.3488 18.8663   3
 -14  28   3 72.3554 17.3164   3
 -14 -14   3 65.5024 19.7681   5
  28 -14   3 102.563 22.8499   4
 -14 -14  -3 68.4305 17.3686   4
 -28  17  -3 161.364 25.1192   5
  11 -28  -3 136.727 22.6543   4
  17 -28   3 197.584 30.8550   4
 -28  11   3 215.010 29.9584   5
  11  17   3 226.112 27.6073   3
  17  11  -3 160.707 25.7278   3
 -11  28   3 222.750 25.8025   3
 -17  28  -3 185.291 25.5393   5
  28 -17   3 187.894 26.2894   4
  28 -11  -3 174.286 26.3170   3
 -11 -17  -3 150.976 26.8820   4
 -17 -11   3 198.307 29.3448   5
  20 -28   3 33.9663 24.4757   4
   8 -28  -3 33.7116 19.4887   4
   8  20   3 18.2663 17.8350   3
 -28  20  -3 11.5178 17.3364   5
 -28   8   3 50.9615 21.9581   5
  20   8  -3 41.9284 17.1636   3
  -8 -20  -3 31.7808 19.6008   4
  28 -20   3 40.5416 21.3227   4
 -20  -8   3 35.3171 20.6699   5
 -20  28  -3 30.1016 19.3636   5
  28  -8  -3 37.2096 18.5829   3
  -8  28   3 5.57299 17.6851   3
  23   5  -3 9.67904 17.7366   3
 -28  23  -3 19.9642 20.2507   5
   5 -28  -3 20.1572 18.8692   4
  23 -28   3 48.0380 22.9212   4
 -28   5   3 24.6543 21.1864   5
   5  23   3 4.64725 18.8000   3
  28  -5  -3 17.9466 19.6314   3
 -23  28  -3 -5.1507 18.0381   5
  28 -23   3 3.01349 20.1144   4
 -23  -5   3 2.43749 19.2881   5
  -5  28   3 2.09515 17.0372   3
  -5 -23  -3 11.4057 18.4217   4
 -29  22   3 113.013 25.9042   5
   7 -29   3 149.769 32.3314   4
   7  22  -3 142.485 25.5048   3
 -29   7  -3 109.952 25.1841   5
  22 -29  -3 116.260 26.6587   4
  -7 -22   3 100.720 23.2933   5
 -22  -7  -3 138.250 27.5991   5
  29 -22  -3 88.0831 30.2315   4
  -7  29  -3 54.2546 24.0393   3
  29  -7   3 92.0136 21.2561   4
 -22  29   3 137.551 21.3795   3
  29 -22  -3 76.7588 17.7670   3
 -22  -7  -3 140.041 22.7461   4
  19  10   3 92.1594 22.7409   3
  10 -29   3 72.4059 27.1725   4
  10  19  -3 72.3430 19.3734   3
 -29  19   3 82.1814 23.5897   5
  19 -29  -3 89.1994 21.3394   4
 -29  10  -3 121.276 22.6382   5
 -10  29  -3 87.6040 18.8477   5
 -19  29   3 83.0472 18.5522   3
  29 -19  -3 88.6441 18.1327   3
 -19 -10  -3 67.5157 17.4031   4
 -10 -19   3 113.303 22.1988   5
  29 -10   3 101.901 22.5330   4
  16 -29  -3 38.2803 19.8009   4
  13  16  -3 13.8858 16.1792   3
 -29  13  -3 26.0927 18.5877   5
 -29  16   3 45.3175 20.3217   5
  13 -29   3 25.9062 23.9836   4
  16  13   3 68.1476 22.2100   3
  29 -16  -3 35.0290 17.8814   3
 -13  29  -3 29.6456 19.2625   5
 -16 -13  -3 48.2283 16.6299   4
 -16  29   3 52.8978 18.8621   3
  29 -13   3 39.1397 20.3331   4
 -13 -16   3 31.7769 21.2420   5
  13  16   3 67.8020 20.9741   3
  13 -29  -3 50.4394 20.5109   4
 -29  16  -3 42.6653 17.2759   5
  16  13  -3 40.1708 16.5499   3
  16 -29   3 34.8109 25.8215   4
 -29  13   3 22.3140 21.0537   5
 -13  29   3 23.3422 17.4144   3
 -13 -16  -3 48.9019 19.3601   4
  29 -16   3 15.3394 22.0141   4
 -16 -13   3 21.9671 18.9300   5
 -16  29  -3 44.6185 20.0587   5
  29 -13  -3 42.2525 18.9774   3
 -29  19  -3 89.5873 20.2010   5
  19  10  -3 168.232 27.4497   3
  10  19   3 171.152 27.4029   3
 -29  10   3 176.674 29.7383   5
  10 -29  -3 117.346 21.4355   4
  19 -29   3 159.628 29.3707   4
  29 -10  -3 164.142 26.0272   3
 -19  29  -3 183.514 26.3464   5
 -10 -19  -3 109.775 20.4621   4
 -19 -10   3 171.984 27.3611   5
  29 -19   3 187.209 32.6712   4
 -10  29   3 152.915 26.2384   3
  22 -29   3 88.9921 25.3839   4
 -29   7   3 57.8416 20.0066   5
  22   7  -3 65.4554 18.8114   3
   7  22   3 67.8856 20.9321   3
 -29  22  -3 55.7900 18.6480   5
   7 -29  -3 73.9201 21.4360   4
  -7 -22  -3 84.5800 21.5465   4
  -7  29   3 73.7910 21.1633   3
  29 -22   3 63.2065 21.3352   4
 -22  -7   3 122.373 26.2161   5
 -22  29  -3 77.9293 20.2203   5
  29  -7  -3 62.9503 19.4075   3
   9  21  -3 47.7710 20.9287   3
  21 -30  -3 56.9532 23.7007   4
   9 -30   3 39.5668 27.0437   4
 -30  21   3 59.9616 23.0681   5
 -30   9  -3 8.85278 17.7077   5
  21   9   3 32.4625 23.2901   3
  30 -21  -3 14.1823 17.7002   3
 -21  -9  -3 60.4145 17.7950   4
  30  -9   3 27.4650 21.9357   4
  -9 -21   3 16.6644 20.2105   5
 -21  30   3 62.6638 19.9923   3
  -9  30  -3 44.3212 29.4417   3
 -30  18   3 26.6942 22.4170   5
  12 -30   3 11.5341 24.6937   4
  12  18  -3 10.5369 17.3107   3
 -30  12  -3 29.1880 19.6259   5
  18 -30  -3 22.3926 19.8465   4
  18  12   3 58.0793 22.3203   3
 -12  30  -3 -11.592 17.7926   5
  30 -12   3 28.6627 23.0427   4
 -12 -18   3 30.6318 22.3855   5
 -18 -12  -3 46.4315 17.9383   4
  30 -18  -3 1.16524 17.6317   3
 -18  30   3 25.3886 18.7432   3
 -30  15   3 45.9579 21.5909   5
  15 -30  -3 9.96993 17.8877   4
  15  15   3 7.04974 21.5257   3
 -30  15  -3 4.71869 17.9756   5
  15 -30   3 10.5853 22.6468   4
  15  15  -3 24.2685 18.7083   3
 -15 -15  -3 23.2630 17.5648   4
  30 -15   3 34.3788 21.5378   4
  30 -15  -3 14.1561 18.5388   3
 -15 -15   3 15.6022 21.7017   5
 -15  30   3 12.8620 17.9283   3
 -15  30  -3 20.8443 19.6107   5
  12 -30  -3 196.708 31.8722   4
  18 -30   3 205.319 34.0912   4
 -30  18  -3 189.293 26.3000   5
  18  12  -3 202.205 28.1114   3
  12  18   3 184.752 29.2348   3
 -30  12   3 188.182 31.5409   5
  30 -12  -3 233.302 28.2392   3
 -12 -18  -3 221.299 29.5137   4
 -18 -12   3 196.089 31.7068   5
 -12  30   3 161.143 27.7049   3
  30 -18   3 201.194 28.9881   4
 -18  30  -3 220.812 28.0843   5
   9 -30  -3 -0.4423 18.4120   4
   9  21   3 24.5236 18.1019   3
 -30   9   3 37.5695 20.2295   5
  21 -30   3 22.7016 25.9997   4
  21   9  -3 38.8747 19.8011   3
 -30  21  -3 50.4726 20.5817   5
 -21  30  -3 5.40998 18.2808   5
  -9  30   3 14.3452 19.0930   3
  -9 -21  -3 7.42691 20.6182   4
  30 -21   3 31.6488 22.8912   4
  30  -9  -3 -3.0448 18.3803   3
 -21  -9   3 36.9815 23.1050   5
 -31  14  -3 27.9836 20.0053   5
 -31  17   3 73.9936 25.1977   5
  14  17  -3 29.1386 18.9839   3
  14 -31   3 58.3419 27.9437   4
  17  14   3 26.1356 20.3201   3
  17 -31  -3 26.5271 19.4657   4
 -17  31   3 31.8586 18.8533   3
 -14 -17   3 34.2880 22.8937   5
  31 -14   3 26.1345 22.9047   4
 -17 -14  -3 51.5945 19.4751   4
  31 -17  -3 23.4342 20.1407   3
  14 -31  -3 59.1719 21.7772   4
  17  14  -3 44.5450 18.1875   3
 -31  17  -3 62.1331 18.3887   5
  17 -31   3 93.8692 26.3752   4
  14  17   3 55.7165 20.4931   3
 -31  14   3 94.8039 22.7873   5
 -14 -17  -3 74.3210 20.7962   4
 -14  31   3 39.2501 18.1404   3
 -17 -14   3 67.5791 23.8905   5
  31 -17   3 70.3826 24.6236   4
  31 -14  -3 63.9034 21.2289   3
   0   1  -4 143.476 13.3758   4
   0   1  -4 164.273 14.3290   3
   1  -1  -4 157.176 15.0043   3
   1   0   4 167.098 13.3025   2
  -1   0  -4 151.903 14.5081   5
   0   1  -4 172.958 14.9325   5
  -1   1   4 153.424 23.4020   2
  -1   0  -4 157.590 14.5179   4
   0  -1   4 156.511 20.7004   2
   1  -1  -4 149.764 14.3262   5
  -1   0  -4 160.956 13.7125   3
  -1   1   4 184.615 14.8700   2
   1   0   4 160.981 19.3284   2
   0   2   4 825.877 38.0953   2
   0   2   4 811.511 42.6408   2
   2  -2   4 770.356 41.2327   2
   2   0  -4 757.881 37.2072   3
   2  -2   4 831.982 37.0374   2
  -2   2  -4 794.705 36.1820   4
  -2   0   4 819.257 37.6954   2
   0  -2  -4 744.813 37.0797   4
  -2   2  -4 787.781 37.8095   5
  -2   0   4 769.856 42.6182   2
   0  -2  -4 808.802 36.5686   3
   2   0  -4 784.983 36.8899   5
   2   0  -4 790.898 35.8539   4
   1   2  -4 150.696 15.6532   5
   2  -3  -4 153.668 14.6866   3
   2   1   4 170.748 18.5253   2
  -3   2   4 175.205 22.5755   2
   1   2  -4 155.361 15.4645   3
   1  -3   4 140.963 19.2411   2
   2  -3  -4 144.616 14.2821   5
   1   2  -4 133.328 12.1194   4
  -3   1  -4 159.407 15.6147   5
  -3   1  -4 144.637 12.3821   3
  -3   1  -4 153.753 14.2880   4
  -3   2   4 168.269 15.0904   2
   2  -3  -4 136.590 14.6537   4
   2   1   4 153.051 13.5814   2
   1  -3   4 148.717 12.1138   2
  -2  -1  -4 149.517 14.6162   5
  -1   3  -4 179.924 14.3142   3
  -2   3   4 182.297 20.6636   2
   3  -1   4 185.947 18.4012   2
   3  -1   4 166.159 13.1085   2
   3  -2  -4 150.915 13.8051   4
  -1  -2   4 173.997 21.7349   2
  -1   3  -4 142.957 12.6375   4
   3  -2  -4 142.163 14.7018   3
   3  -2  -4 142.145 12.6481   5
  -1   3  -4 150.806 16.1832   5
  -2   3   4 171.968 14.7197   2
  -2  -1  -4 152.297 12.9513   3
  -2  -1  -4 148.383 15.5512   4
  -4   0  -4 1711.09 74.9858   4
   0   4  -4 1668.86 79.0473   2
   4  -4  -4 1655.35 74.9698   4
   4   0   4 1887.32 75.7134   2
  -4   0  -4 1672.26 75.5090   5
  -4   4   4 1891.91 76.5511   2
   4   0   4 1984.00 79.2032   2
   0   4  -4 1699.58 75.4275   5
   4  -4  -4 1558.44 76.0170   5
   0  -4   4 1845.31 80.6685   2
  -4   0  -4 1775.70 73.7902   3
   4  -4  -4 1734.58 75.2666   3
  -4   4   4 1866.84 81.1231   2
   0   4  -4 1634.66 74.7168   3
   1   3   4 618.128 31.5195   2
  -4   1   4 653.727 37.8692   2
   3   1  -4 631.435 30.6342   5
   1  -4  -4 624.813 30.4727   3
   3  -4   4 689.913 40.8379   2
  -4   1   4 621.812 31.3227   2
   1  -4  -4 592.985 31.6653   4
   3   1  -4 639.462 31.5493   3
   1  -4  -4 632.799 29.8090   5
  -4   3  -4 636.303 30.1708   4
  -4   3  -4 624.539 32.2180   5
  -4   3  -4 606.051 29.2557   3
   3  -4   4 632.026 30.1898   2
   3   1  -4 631.064 36.2027   2
  -3   4  -4 606.452 32.2584   5
  -1  -3  -4 637.761 30.0486   3
   4  -3   4 652.723 34.9144   2
  -3  -1   4 658.426 38.3206   2
  -1   4   4 669.070 37.5653   2
  -3   4  -4 616.282 29.7336   3
  -1  -3  -4 647.572 32.0324   4
  -1   4   4 577.865 31.3373   2
  -1  -3  -4 618.191 29.9676   5
   4  -1  -4 632.537 30.0814   5
  -3   4  -4 635.950 29.7265   4
   4  -1  -4 598.152 29.2997   4
   4  -1  -4 622.673 32.2388   3
   4  -3   4 599.125 29.7040   2
   3  -5  -4 702.649 30.7293   5
   2  -5   4 619.453 36.1810   2
   3  -5  -4 650.289 33.2234   4
  -5   2  -4 669.020 32.3155   4
   3   2   4 650.602 36.2620   2
  -5   3   4 689.919 33.2431   2
  -5   2  -4 699.685 33.9269   5
   2   3  -4 627.175 32.3526   5
  -5   3   4 647.787 38.6059   2
   3  -5  -4 643.762 32.0087   3
   2   3  -4 656.536 33.0059   3
  -5   2  -4 716.738 30.4894   3
   2   3  -4 639.235 38.1269   2
  -2  -3   4 629.290 37.9864   2
  -3  -2  -4 665.737 30.7047   3
   5  -2   4 714.419 31.9336   2
   5  -3  -4 666.085 31.4532   4
  -3   5   4 683.528 33.7911   2
  -2   5  -4 674.481 36.7035   2
  -3   5   4 652.575 37.9754   2
  -2   5  -4 660.136 31.9563   3
   5  -3  -4 672.046 32.6828   3
   5  -2   4 671.002 35.5294   2
  -3  -2  -4 629.607 33.1123   4
  -2   5  -4 643.785 32.6491   5
   0  -5  -4 710.207 34.6845   4
   5  -5   4 680.113 31.9474   2
  -5   0   4 649.466 39.3511   2
   0  -5  -4 667.872 31.5529   5
  -5   5  -4 695.173 35.1454   5
  -5   5  -4 706.834 31.6165   3
   5   0  -4 648.357 30.4598   4
   5   0  -4 672.979 38.6839   2
   0   5   4 676.406 34.8594   2
   0  -5  -4 689.420 32.3022   3
   5   0  -4 690.745 34.1097   3
   5  -5   4 706.073 36.4366   2
   5   0  -4 712.024 32.8849   5
   5  -6  -4 865.528 41.0674   4
  -6   5   4 903.347 41.7433   2
  -6   5   4 848.973 46.3483   2
   1   5  -4 832.471 40.2563   5
   1   5  -4 796.432 44.9342   2
   5   1   4 879.018 40.8512   2
   5   1   4 926.648 44.4263   2
   1   5  -4 831.900 40.6294   3
   1  -6   4 871.459 38.7935   4
  -6   1  -4 823.417 40.9089   5
  -6   1  -4 864.586 37.8042   3
  -6   1  -4 847.970 40.2633   4
   5  -6  -4 837.487 40.2374   3
  -6   5   4 856.660 39.6442   5
   1  -6   4 913.714 45.5477   2
   6  -5  -4 820.670 40.8827   3
  -1  -5   4 895.285 38.3254   4
  -1   6  -4 796.462 40.0024   5
  -1  -5   4 876.489 46.0077   2
  -5   6   4 922.412 39.1082   5
  -5   6   4 862.988 46.4835   2
   6  -1   4 847.279 39.8909   2
   6  -1   4 950.828 43.4688   2
  -5   6   4 885.957 41.9620   2
  -1   6  -4 846.412 44.5402   2
  -1   6  -4 840.174 40.0555   3
  -5  -1  -4 824.716 40.6194   4
  -5  -1  -4 836.347 40.6457   5
   2  -6  -4 193.181 16.3587   3
  -6   2   4 201.611 16.1540   2
   2  -6  -4 212.393 13.0492   5
   4   2  -4 216.516 18.3902   3
  -6   4  -4 187.033 15.6923   4
   2   4   4 225.214 17.3589   2
   2  -6  -4 211.598 19.1570   4
   4   2  -4 216.396 24.0925   2
  -6   4  -4 173.492 19.0287   5
  -6   2   4 205.591 23.8123   2
   4  -6   4 177.997 15.1501   4
   4   2  -4 203.224 12.1502   4
   4   2  -4 202.369 15.9899   5
  -6   2   4 219.478 15.6611   5
   4  -6   4 193.331 19.0580   2
  -2  -4  -4 166.725 17.6753   4
   6  -2  -4 190.128 18.7058   3
  -2  -4  -4 187.097 14.3300   3
  -4  -2   4 218.294 25.2374   2
   6  -2  -4 169.887 14.6415   4
   6  -4   4 207.468 19.0903   2
  -2   6   4 228.364 17.4566   2
  -4   6  -4 195.379 14.6679   3
  -2   6   4 185.705 22.8976   2
   6  -4   4 214.711 13.9945   2
  -4   6  -4 193.391 18.6052   5
  -2  -4  -4 201.208 14.9862   5
   0   7  -4 3334.90 145.853   5
   0   7  -4 3451.72 146.035   3
  -7   0  -4 3361.27 145.624   4
   7  -7  -4 3321.32 146.153   4
   0  -7   4 3639.56 145.069   4
   7   0   4 3583.07 147.108   2
  -7   7   4 3692.97 147.050   5
  -7   7   4 3671.87 147.826   2
   7   0   4 3619.70 144.130   3
  -7   0  -4 3529.91 146.526   5
   7  -7  -4 3346.38 145.598   3
  -7   7   4 3639.08 152.116   2
   0  -7   4 3577.03 151.353   2
   0   7  -4 3453.50 150.679   2
  -7   3  -4 1727.90 74.7445   4
  -7   3  -4 1748.92 76.3684   5
  -7   4   4 1738.72 76.4479   2
   4  -7  -4 1672.74 76.0858   4
   4  -7  -4 1758.35 75.2587   3
   3  -7   4 1762.40 74.6124   4
   3   4  -4 1703.67 74.9335   5
   3   4  -4 1771.58 76.0996   3
   4   3   4 1826.02 76.8126   2
   3   4  -4 1763.73 81.0445   2
   3  -7   4 1814.65 79.5608   2
  -7   4   4 1801.57 81.6941   2
  -7   4   4 1760.02 75.2459   5
  -4   7   4 1860.56 81.2020   2
  -4  -3  -4 1735.65 76.1284   4
   7  -3   4 1871.24 77.8645   2
  -4   7   4 1786.36 77.2792   2
  -3   7  -4 1768.64 79.1498   2
   7  -4  -4 1662.12 75.3522   3
  -3  -4   4 1795.03 81.6696   2
   7  -3   4 1713.35 74.8559   2
  -3   7  -4 1732.70 76.2721   5
  -3  -4   4 1759.24 73.1023   4
   7  -4  -4 1706.12 74.5191   4
  -4   7   4 1836.23 73.9811   5
  -4  -3  -4 1621.21 75.1100   2
  -3   7  -4 1594.98 74.7691   3
  -4  -3  -4 1819.96 76.6140   5
  -7   6  -4 128.427 17.9648   5
  -7   1   4 114.398 21.3382   2
   6   1  -4 120.037 9.38194   4
   6  -7   4 152.003 16.6249   2
   1  -7  -4 143.408 13.9341   2
   6  -7   4 107.821 14.5911   4
   1  -7  -4 109.920 18.0436   4
   6  -7   4 147.261 11.3655   2
   6   1  -4 141.491 17.6066   3
  -7   1   4 145.089 15.2843   5
   1  -7  -4 140.438 13.7843   3
   6   1  -4 134.167 22.8371   2
  -7   6  -4 129.461 10.4515   3
   1   6   4 142.530 16.3882   2
   1  -7  -4 133.719 10.3188   5
  -6   7  -4 132.178 17.9952   5
   7  -1  -4 119.847 17.6120   3
   7  -6   4 132.887 10.9512   2
  -1  -6  -4 107.767 17.0694   4
  -1   7   4 129.927 16.1659   2
  -6   7  -4 98.4572 15.9462   3
   7  -6   4 144.457 15.9362   2
  -1  -6  -4 128.222 12.8319   2
   7  -1  -4 124.037 10.1466   4
   7  -1  -4 124.771 22.0223   2
  -1  -6  -4 105.614 15.7742   5
  -6  -1   4 124.910 21.6860   2
   2   6  -4 686.363 34.2855   5
  -8   2  -4 709.606 34.0648   4
   6  -8  -4 686.517 34.3522   3
  -8   2  -4 705.562 35.5362   5
   6  -8  -4 738.386 36.1997   4
  -8   6   4 710.021 34.0350   5
   2   6  -4 765.968 35.8191   3
   6   2   4 690.732 31.7771   3
   6   2   4 655.725 38.6736   2
   2  -8   4 691.183 38.7272   2
   2  -8   4 675.624 34.0101   4
   2   6  -4 748.465 41.5695   2
  -8   6   4 663.262 41.9059   2
  -8   6   4 699.626 35.9598   2
  -6   8   4 699.438 36.1417   2
   8  -6  -4 722.510 35.5329   3
  -2   8  -4 700.947 39.3990   2
  -2   8  -4 693.530 35.4841   5
  -2   8  -4 727.938 34.3959   3
  -6  -2  -4 707.521 34.2277   5
  -6   8   4 691.706 41.5330   2
  -2  -6   4 642.635 40.2872   2
  -2  -6   4 681.496 32.3680   4
  -6  -2  -4 725.605 33.3048   2
   8  -2   4 643.240 33.4367   2
   8  -2   4 691.147 30.9040   3
  -6   8   4 679.907 32.5250   5
  -6  -2  -4 709.452 35.5189   4
   8  -2   4 714.394 36.1840   2
   5   3  -4 233.050 17.0584   5
   3   5   4 212.361 18.3321   2
   5   3  -4 234.535 25.5151   2
  -8   3   4 227.211 17.7421   5
   3  -8  -4 182.157 20.2425   4
   3   5   4 227.572 15.0349   3
  -8   3   4 214.078 16.3141   2
  -8   3   4 213.830 26.9106   2
  -8   5  -4 204.941 16.6153   4
   5  -8   4 206.186 18.9817   2
   5  -8   4 218.868 17.6700   4
   3  -8  -4 205.294 15.5340   3
  -8   5  -4 211.303 12.2989   3
   5   3  -4 213.971 20.0993   3
  -8   5  -4 228.229 19.9562   5
  -5  -3   4 212.481 23.4890   2
   8  -5   4 218.964 14.1254   2
  -5   8  -4 196.913 15.0650   3
  -3  -5  -4 219.812 15.3867   5
  -3   8   4 204.121 17.8020   2
   8  -3  -4 188.739 18.3158   3
  -5  -3   4 209.837 12.5255   4
  -5   8  -4 199.671 19.5344   2
   8  -3  -4 214.730 14.0180   4
  -3  -5  -4 209.299 15.4838   2
  -3  -5  -4 197.195 19.5857   4
  -5   8  -4 216.732 19.6708   5
   8  -5   4 206.864 17.5639   2
   0  -8  -4 25.0553 9.01274   2
  -8   8  -4 32.1333 6.05672   3
   0   8   4 27.8455 10.8837   2
   8  -8   4 16.0387 9.09916   4
   0  -8  -4 29.6607 6.53220   5
   8   0  -4 33.9595 16.3349   2
   0  -8  -4 17.7375 12.0610   4
  -8   0   4 40.6981 17.6328   2
  -8   8  -4 29.8879 13.4840   5
   8   0  -4 19.4171 11.7526   3
   8  -8   4 30.5581 6.18740   2
   8  -8   4 27.3017 9.41338   2
  -8   0   4 29.4854 11.3032   5
   1  -9   4 1090.64 47.9487   4
  -9   1  -4 1061.94 49.3005   5
  -9   8   4 1060.59 47.6293   5
   1   8  -4 1009.24 48.5087   3
   8  -9  -4 1053.16 49.7512   4
   8  -9  -4 946.521 47.4573   3
   8   1   4 1081.56 49.4284   2
  -9   8   4 1069.25 49.6433   2
  -9   1  -4 1012.61 47.9746   4
   8   1   4 1106.10 45.8772   3
   1   8  -4 963.773 47.9299   5
   1  -9   4 1095.13 53.7567   2
  -9   8   4 1059.20 55.3134   2
   1   8  -4 998.741 53.1859   2
  -8   9   4 1084.59 49.7795   2
   9  -8  -4 1008.88 48.2614   3
  -8  -1  -4 1054.65 47.0401   2
  -1   9  -4 1036.36 48.1667   3
  -1   9  -4 1051.39 53.5269   2
  -8  -1  -4 1053.93 48.4484   4
  -8   9   4 1033.23 54.6619   2
  -1   9  -4 1011.52 48.4793   5
  -8  -1  -4 1045.46 48.8329   5
   9  -1   4 1016.35 48.2688   2
  -1  -8   4 1140.69 55.3269   2
   9  -1   4 1037.49 45.2025   3
  -8   9   4 1071.96 47.1147   5
   9  -8  -4 1051.41 49.2144   4
  -9   5   4 567.867 30.0468   2
  -9   5   4 605.388 36.7482   2
   5   4   4 505.077 26.6920   3
   5   4   4 527.976 32.8468   2
   4  -9   4 586.192 33.3902   2
  -9   4  -4 574.852 31.0785   5
   4   5  -4 550.897 30.9021   3
  -9   5   4 560.473 29.5555   5
   4  -9   4 553.612 29.4331   4
  -9   4  -4 536.568 28.1330   4
   5  -9  -4 564.770 31.6958   4
   5  -9  -4 506.014 27.8508   3
   4   5  -4 579.534 36.8252   2
   4   5  -4 566.961 28.7551   5
  -5  -4  -4 560.292 30.8020   4
  -5   9   4 580.956 36.5042   2
   9  -5  -4 584.382 27.9895   4
  -4   9  -4 553.161 31.0191   5
  -4  -5   4 589.407 36.7451   2
  -5   9   4 567.013 26.7179   5
   9  -4   4 523.404 27.2097   2
  -4   9  -4 554.526 28.6514   3
  -4   9  -4 560.910 33.3481   2
  -5  -4  -4 499.639 28.1987   5
  -5  -4  -4 517.312 28.4583   2
  -4  -5   4 509.949 26.0256   4
   9  -4   4 555.291 24.8643   3
   9  -5  -4 590.042 30.7106   3
  -5   9   4 534.379 29.9808   2
   9  -4   4 600.643 29.9845   2
   7   2  -4 52.3321 17.6518   2
  -9   2   4 57.9019 17.5920   2
  -9   7  -4 48.4518 7.15185   3
   7  -9   4 58.9211 11.9190   2
  -9   2   4 65.0644 12.0227   5
   2  -9  -4 60.5155 14.2618   4
   2   7   4 66.7738 9.60382   3
  -9   7  -4 65.2259 14.4238   5
   7   2  -4 57.2343 13.8039   3
   2   7   4 58.8008 12.8205   2
   2  -9  -4 42.6987 9.59268   3
   7  -9   4 74.7314 11.9566   4
   2  -9  -4 73.0264 11.8976   2
  -2  -7  -4 55.6607 13.1229   2
  -2  -7  -4 54.9036 9.64744   5
  -7  -2   4 64.8861 16.8817   2
   9  -2  -4 57.0687 8.36222   4
  -7   9  -4 72.5232 9.22308   3
   9  -7   4 78.0967 11.3564   4
  -2   9   4 59.2821 12.0780   2
  -7  -2   4 67.1479 12.9822   5
   9  -7   4 55.2191 11.8904   2
  -7   9  -4 69.4563 14.1426   5
   9  -7   4 56.3783 8.37077   2
   9  -2  -4 41.8376 16.1036   2
   9  -2  -4 52.8439 12.6724   3
  -2  -7  -4 59.5657 13.1591   4
   0  10  -4 3774.75 154.896   5
  10   0   4 3719.12 156.655   2
 -10  10   4 3672.81 161.156   2
 -10  10   4 3720.99 156.575   2
 -10  10   4 3864.85 154.993   5
  10   0   4 3735.96 153.001   3
  10 -10  -4 3584.11 154.279   3
 -10   0  -4 3728.56 154.499   4
   0  10  -4 3732.15 155.215   3
 -10   0  -4 3691.50 155.680   5
  10 -10  -4 3662.08 155.529   4
   0 -10   4 3632.15 154.092   4
 -10   0  -4 3759.52 154.096   2
   0  10  -4 3800.34 160.832   2
   3   7  -4 2547.14 105.660   3
 -10   7   4 2438.67 106.127   2
 -10   3  -4 2573.31 104.259   4
 -10   3  -4 2602.85 106.442   5
   7 -10  -4 2508.11 106.330   4
   3   7  -4 2493.05 110.656   2
   7 -10  -4 2456.04 104.233   3
   3 -10   4 2502.00 105.136   4
   7   3   4 2427.63 103.278   3
 -10   7   4 2372.89 104.949   5
   7   3   4 2495.47 107.072   2
 -10   7   4 2383.46 110.789   2
   3   7  -4 2470.96 104.470   5
  -7  10   4 2440.75 104.411   5
  -3  -7   4 2386.10 102.858   4
  -7  10   4 2581.59 111.240   2
  -3  10  -4 2657.32 110.015   2
  10  -3   4 2417.50 102.059   3
  -7  -3  -4 2580.57 105.495   4
  -3  -7   4 2425.01 110.698   2
  -3  10  -4 2572.48 104.633   3
  10  -3   4 2540.43 106.160   2
  10  -7  -4 2412.84 104.804   3
  10  -3   4 2429.75 104.726   2
  10  -7  -4 2506.99 104.939   4
  -7  -3  -4 2349.85 107.946   2
  -7  10   4 2219.88 105.838   2
  -7  -3  -4 2650.60 105.207   5
  -3  10  -4 2473.25 105.501   5
   6   4  -4 280.422 21.1697   3
   4   6   4 318.985 22.9349   2
   4 -10  -4 273.445 18.0104   3
 -10   4   4 253.233 18.6604   2
   4 -10  -4 263.115 23.0662   4
   6 -10   4 295.910 21.4626   4
   4   6   4 270.141 17.7266   3
 -10   4   4 293.313 28.7954   2
 -10   6  -4 255.085 22.3891   5
   4 -10  -4 291.418 19.4157   2
   6   4  -4 249.298 26.0227   2
 -10   4   4 313.178 21.0727   5
   6 -10   4 263.829 21.8466   2
  -6  10  -4 291.566 22.1966   2
  -4  -6  -4 293.474 19.3530   2
  10  -4  -4 276.789 20.8438   3
  10  -6   4 287.512 17.9612   2
  -4  -6  -4 232.899 21.7933   4
  10  -6   4 288.220 13.5539   3
  -6  10  -4 254.270 17.8987   3
  10  -6   4 284.157 15.8784   2
  10  -4  -4 267.560 16.6904   4
  -6  10  -4 255.444 21.5585   5
  -6  -4   4 259.699 26.2753   2
  -4  10   4 298.188 15.6647   5
  -4  -6  -4 250.140 17.5257   5
  -4  10   4 277.739 21.0943   2
   1   9   4 35.5482 9.31328   3
   1 -10  -4 29.5805 10.0178   2
   9 -10   4 23.7710 8.98978   2
   1   9   4 40.9917 12.2639   2
 -10   1   4 42.0531 18.0536   2
   1 -10  -4 50.9985 13.5981   4
   9 -10   4 30.8337 6.20908   2
   9 -10   4 40.2909 11.3516   4
   9   1  -4 22.3169 16.6024   2
 -10   1   4 33.2237 11.6332   5
 -10   9  -4 37.9912 12.7269   5
   9   1  -4 30.4397 13.3602   3
  10  -9   4 33.1990 11.3561   4
  10  -1  -4 50.4586 13.7440   3
  -9  -1   4 26.6092 11.6866   5
  10  -1  -4 56.2772 17.9466   2
  10  -9   4 28.2619 7.63297   2
  -9  10  -4 32.0079 6.43862   3
  -1  -9  -4 37.6005 10.3914   2
  10  -9   4 28.9062 6.65615   2
  -9  10  -4 60.1730 14.8385   5
  -1  10   4 40.1843 12.0113   2
  -9  -1   4 39.5233 17.6811   2
  -1  10   4 40.2337 9.08115   3
  -1  -9  -4 26.9372 11.6603   4
   9 -11  -4 1261.63 57.5620   3
   2   9  -4 1312.56 57.5691   5
 -11   2  -4 1313.44 59.3779   5
   2 -11   4 1231.15 58.2137   4
   2   9  -4 1262.49 64.4772   2
   9   2   4 1256.08 60.3055   2
   9 -11  -4 1250.30 59.4986   4
 -11   9   4 1313.69 58.7170   5
   2   9  -4 1306.94 58.9335   3
   2 -11   4 1311.37 63.2425   2
   9   2   4 1334.80 56.4999   3
 -11   9   4 1241.53 58.8755   2
 -11   2  -4 1306.76 57.5636   4
 -11   9   4 1287.89 64.9845   2
  11  -9  -4 1219.44 57.6193   3
  -9  11   4 1275.76 57.2238   5
  -2  11  -4 1292.14 58.4142   5
  -2  11  -4 1325.13 58.1072   3
  -9  -2  -4 1281.73 58.2302   4
  -9  11   4 1276.99 59.7917   2
  -9  -2  -4 1356.31 57.8366   2
  11  -9  -4 1265.64 58.8104   4
  -9  11   4 1240.42 63.8205   2
  -9  -2  -4 1341.90 59.0802   5
  11  -2   4 1293.79 58.2491   2
  -2  -9   4 1283.76 56.6526   4
  -2  -9   4 1285.97 64.9196   2
  11  -2   4 1320.10 59.3321   2
  -2  11  -4 1289.70 63.4898   2
 -11   6   4 514.119 36.7786   2
   6 -11  -4 541.972 32.9786   4
 -11   6   4 579.629 30.6618   2
 -11   6   4 584.523 30.3523   5
   5   6  -4 538.943 31.5087   3
   6 -11  -4 534.742 28.5868   3
   5 -11   4 562.919 33.7594   2
   5   6  -4 523.994 36.9672   2
 -11   5  -4 542.981 31.9707   5
   6   5   4 555.059 27.8298   3
   5 -11   4 596.717 31.9308   4
 -11   5  -4 559.120 28.8378   4
   6   5   4 574.965 31.9395   2
  11  -5   4 564.773 24.8418   3
  -5  11  -4 521.019 28.2717   3
  -5  -6   4 549.721 36.5053   2
  11  -6  -4 517.018 30.9422   3
  -6  -5  -4 587.832 29.5017   2
  -5  11  -4 530.975 33.3300   2
  -6  -5  -4 612.578 32.6116   5
  -5  11  -4 527.688 31.2458   5
  11  -5   4 556.493 27.0105   2
  -6  11   4 567.607 32.2724   2
  11  -6  -4 531.586 28.5804   4
  11  -5   4 563.820 28.0077   2
  -6  11   4 544.188 26.5703   5
  -6  -5  -4 512.088 30.1347   4
   8 -11   4 59.6191 11.8716   2
   8 -11   4 78.9940 13.9263   4
 -11   8  -4 49.4577 13.9238   5
   3   8   4 52.1428 13.4110   2
   3 -11  -4 56.9377 14.6926   4
   8   3  -4 55.2100 13.1062   3
   3 -11  -4 59.1827 13.8442   2
 -11   3   4 43.5560 12.3269   5
   8   3  -4 49.9320 17.0107   2
   3   8   4 56.5853 10.3394   3
 -11   3   4 59.6679 18.5368   2
  11  -3  -4 53.6525 14.1370   3
  -3  -8  -4 46.4163 12.1538   4
  -8  11  -4 64.4144 10.2202   3
  -3  -8  -4 60.5664 10.3460   5
  -8  -3   4 57.5502 13.2050   5
  -8  11  -4 42.5370 11.1329   2
  11  -8   4 66.8148 12.4908   4
  -3  -8  -4 42.3392 10.0616   2
  11  -3  -4 63.6207 18.2492   2
  11  -8   4 60.2120 6.21200   2
  -3  11   4 71.0671 13.7102   2
  -8  11  -4 75.4448 15.1384   5
  -8  -3   4 62.4625 17.5308   2
 -11  11  -4 414.608 27.7485   5
  11 -11   4 456.037 27.1456   4
   0  11   4 411.708 24.1903   3
  11   0  -4 429.974 27.9233   3
  11   0  -4 428.817 33.4370   2
   0 -11  -4 426.171 25.8018   2
   0  11   4 404.672 29.0246   2
   0 -11  -4 441.646 29.2354   4
 -11   0   4 414.294 27.0636   5
  11 -11   4 392.729 18.7429   2
  11 -11   4 427.574 19.8189   2
 -11   0   4 405.519 33.9675   2
 -12  11   4 295.311 21.5232   2
   1 -12   4 291.705 22.6813   4
   1 -12   4 312.067 28.4384   2
  11   1   4 308.227 33.2949   2
  11 -12  -4 273.909 26.0490   4
 -12  11   4 283.003 22.5218   5
 -12   1  -4 259.002 20.6838   4
  11 -12  -4 233.964 21.0186   3
 -12  11   4 257.543 28.8285   2
  11   1   4 319.411 19.0099   3
 -12   1  -4 263.198 22.7001   5
 -12   1  -4 283.249 16.4553   2
   1  11  -4 237.345 20.4826   5
   1  11  -4 240.251 28.1583   2
   1  11  -4 267.622 22.3576   3
 -11  -1  -4 254.739 21.9822   4
 -11  12   4 296.179 22.8129   2
 -11  -1  -4 277.323 18.5273   2
  12 -11  -4 273.060 25.0790   4
  -1  12  -4 271.861 21.9772   3
 -11  12   4 296.156 21.3407   5
  -1 -11   4 295.379 20.8389   4
  -1  12  -4 280.194 21.6208   5
  -1 -11   4 316.268 27.7912   2
  12 -11  -4 240.753 21.3562   3
 -11  12   4 236.376 26.1031   2
 -11  -1  -4 251.458 22.5628   5
  12  -1   4 322.103 18.6889   3
  12  -1   4 323.703 23.1455   2
  -1  12  -4 261.986 27.9563   2
 -12   4  -4 213.403 21.7285   5
 -12   8   4 259.355 19.1826   2
   4   8  -4 195.250 18.4831   5
   8 -12  -4 204.446 18.4924   3
 -12   8   4 255.413 20.7738   5
   4 -12   4 264.381 25.2104   2
 -12   8   4 251.588 28.7925   2
   4 -12   4 250.070 22.5633   4
   8   4   4 257.459 21.9180   2
   4   8  -4 218.320 21.1066   3
 -12   4  -4 199.854 18.4966   4
   8   4   4 243.347 17.8160   3
   4   8  -4 221.736 26.6637   2
   8 -12  -4 184.802 23.2589   4
  -4  12  -4 217.085 20.8890   5
  -8  12   4 237.421 26.6871   2
  -8  -4  -4 225.542 19.5050   5
  12  -4   4 271.718 17.9770   2
  -8  -4  -4 219.179 17.5372   2
  -8  12   4 241.889 21.5223   2
  -8  -4  -4 194.285 19.6892   4
  -4  12  -4 221.010 19.4394   3
  -4  -8   4 271.933 27.5982   2
  -8  12   4 258.512 16.9032   5
  12  -4   4 287.837 17.5535   2
  -4  12  -4 225.097 24.5185   2
  12  -8  -4 213.922 19.3399   4
  12  -8  -4 212.797 19.6838   3
   5 -12  -4 165.516 22.9525   4
   7   5  -4 164.445 26.3437   2
   5   7   4 239.452 16.5765   3
   5 -12  -4 176.842 17.0192   2
 -12   5   4 213.641 17.5760   2
   7 -12   4 237.801 23.3066   2
 -12   5   4 214.063 27.4317   2
 -12   7  -4 180.584 21.1556   5
   7   5  -4 159.111 20.6038   3
   5   7   4 213.342 20.6708   2
 -12   5   4 222.442 19.2871   5
   7 -12   4 238.344 21.6865   4
  12  -7   4 215.879 18.3873   4
  -7  12  -4 156.679 19.7677   5
  -7  12  -4 167.212 15.6431   3
  12  -5  -4 174.766 14.5158   4
  -7  -5   4 219.187 26.9399   2
  -7  12  -4 158.419 19.9345   2
  12  -5  -4 152.500 20.2784   3
  -5  -7  -4 148.182 18.9865   4
  -5  -7  -4 163.064 15.2494   5
  -5  -7  -4 168.266 16.2013   2
  -7  -5   4 232.061 19.1507   5
  10   2  -4 61.7390 18.6802   2
   2  10   4 86.7989 17.5743   2
  10 -12   4 83.4446 14.7350   4
   2 -12  -4 60.0645 14.8327   4
   2  10   4 104.022 14.2176   3
  10 -12   4 96.5260 8.98953   2
  10 -12   4 100.255 12.5219   2
  10   2  -4 58.5464 14.2027   3
 -12   2   4 106.748 16.4459   5
   2 -12  -4 66.1964 14.8477   2
 -12  10  -4 67.4606 15.7633   5
 -12   2   4 118.232 24.8047   2
  -2  12   4 102.475 14.4671   3
  12 -10   4 99.3615 16.0922   4
  -2  12   4 89.8175 17.1199   2
 -10  -2   4 97.4967 22.3946   2
 -10  -2   4 78.7679 13.8788   5
  12  -2  -4 86.4081 19.9852   2
 -10  12  -4 85.5908 15.9820   5
  12  -2  -4 83.9826 15.5627   3
  -2 -10  -4 69.1167 14.4920   2
  -2 -10  -4 57.7366 13.4084   4
   0  13  -4 11.4977 11.7632   5
 -13   0  -4 3.10798 10.0453   4
 -13  13   4 9.55084 11.9166   2
 -13   0  -4 19.7006 7.82417   2
 -13  13   4 38.9486 13.0341   5
   0 -13   4 28.8346 15.5565   2
   0  13  -4 9.71792 11.3260   3
  13   0   4 28.2131 9.47298   3
   0  13  -4 2.63168 15.3596   2
  13   0   4 21.1225 12.6883   2
  13 -13  -4 -8.5399 13.6794   4
  13 -13  -4 16.5914 12.2582   3
 -13   0  -4 9.58875 12.9302   5
 -13  13   4 24.0093 18.0480   2
   3 -13   4 767.082 39.1146   4
 -13  10   4 744.521 45.1741   2
   3  10  -4 719.989 44.9574   2
   3  10  -4 685.197 35.2773   5
  10   3   4 769.652 35.8700   3
   3  10  -4 690.763 38.4938   3
  10 -13  -4 674.373 39.9385   4
 -13   3  -4 710.907 38.6549   5
 -13  10   4 799.032 38.9070   5
  10   3   4 755.836 40.6688   2
   3 -13   4 741.497 42.8678   2
 -13   3  -4 702.190 35.7580   4
 -13  10   4 747.208 37.5627   2
  10 -13  -4 730.709 36.1945   3
  13  -3   4 735.700 36.6401   2
 -10  -3  -4 730.362 35.9519   2
 -10  -3  -4 712.593 37.5190   5
  -3  13  -4 711.512 37.3041   5
  -3 -10   4 711.562 42.7952   2
  13 -10  -4 691.748 36.4041   3
 -10  13   4 699.726 42.6378   2
 -10  13   4 742.148 39.1296   2
  -3  13  -4 691.608 43.0664   2
  -3  13  -4 687.477 37.1083   3
 -10  -3  -4 706.511 36.5877   4
 -10  13   4 778.223 35.9515   5
  13  -3   4 753.131 36.7968   2
  13 -10  -4 701.787 38.7468   4
 -13   7   4 313.191 21.2928   2
   7 -13  -4 305.017 20.5979   3
   6 -13   4 322.855 25.1236   2
   7 -13  -4 276.882 26.1357   4
 -13   6  -4 307.611 23.3940   5
 -13   7   4 328.040 31.3811   2
   7   6   4 324.785 25.3420   2
 -13   7   4 330.108 24.0083   5
   6   7  -4 286.919 30.0053   2
   7   6   4 341.195 21.0078   3
   6 -13   4 334.431 25.5684   4
   6   7  -4 287.366 24.2695   3
  -6  -7   4 314.458 21.8664   5
  -7  -6  -4 296.371 20.7047   2
  -6  -7   4 330.992 30.3407   2
  -6  13  -4 283.731 20.3888   3
  13  -7  -4 292.241 20.8217   4
  -6  13  -4 298.287 23.5276   5
  -7  -6  -4 253.687 24.8156   5
  -7  13   4 306.068 24.2447   2
  -7  -6  -4 273.126 22.2133   4
  13  -7  -4 309.601 22.2478   3
   9   4  -4 114.723 18.0425   3
   9 -13   4 140.196 16.2858   2
 -13   9  -4 120.830 19.9086   5
   4 -13  -4 111.115 17.7758   4
   4   9   4 119.353 14.8233   3
 -13   4   4 105.271 18.3738   5
   9 -13   4 121.744 17.2784   4
   4   9   4 126.481 18.3206   2
   4 -13  -4 105.455 15.7843   2
 -13   4   4 123.559 26.3202   2
   9   4  -4 102.982 22.3934   2
  -4  -9  -4 92.2073 14.9732   2
  -9  13  -4 125.920 16.8320   2
  13  -4  -4 166.213 21.0121   3
  -9  13  -4 116.491 17.8116   5
  -9  -4   4 143.215 25.4006   2
  -4  13   4 99.7756 17.4095   2
  -9  -4   4 118.069 16.8432   5
  -4  13   4 156.920 14.0066   3
  -4  -9  -4 119.462 20.0687   4
  13  -9   4 139.466 18.4491   4
  12 -13   4 140.352 22.4666   4
   1 -13  -4 154.605 20.1834   4
   1  12   4 143.897 17.0381   3
   1  12   4 175.106 21.9411   2
 -13  12  -4 183.205 21.5771   5
   1 -13  -4 161.924 16.9206   2
 -13   1   4 191.069 28.1083   2
  12   1  -4 164.149 21.9894   3
  12   1  -4 143.477 27.6036   2
 -13   1   4 169.307 20.8742   5
 -12  -1   4 158.274 25.2604   2
  -1 -12  -4 165.883 17.8100   2
  13  -1  -4 132.094 24.5770   2
  13  -1  -4 147.325 19.4550   3
 -12  -1   4 155.939 18.8348   5
  -1  13   4 140.524 16.9401   3
 -12  13  -4 160.524 21.1603   5
  13 -12   4 172.443 21.5397   4
  -1  13   4 142.170 19.7736   2
  -1 -12  -4 186.949 22.8975   4
 -14  12   4 58.4170 18.6090   2
 -14  12   4 59.1913 15.1641   5
   2  12  -4 83.9234 14.1332   5
  12 -14  -4 94.7159 18.2102   4
 -14   2  -4 103.181 16.8073   5
  12   2   4 55.2097 12.4495   3
   2  12  -4 100.593 16.2720   3
  12   2   4 59.2763 15.7139   2
   2  12  -4 77.7175 20.2120   2
   2 -14   4 48.8844 16.3154   2
  12 -14  -4 97.9798 16.5286   3
   2 -14   4 48.5454 14.0901   4
 -14   2  -4 106.622 13.4456   4
 -14  12   4 39.8335 13.5542   2
 -12  -2  -4 72.7949 12.6304   2
  14 -12  -4 97.8446 17.2500   4
  -2 -12   4 38.7365 17.5039   2
 -12  14   4 40.7886 17.4323   2
  -2  14  -4 92.9284 19.9333   2
  14  -2   4 57.9384 13.5286   2
 -12  -2  -4 102.922 17.9872   4
  -2  14  -4 105.692 16.1954   5
 -12  -2  -4 77.3435 14.6197   5
  -2  14  -4 75.8949 13.9587   3
  14 -12  -4 96.8353 14.4968   3
 -12  14   4 82.4874 15.4128   5
   9 -14  -4 314.095 27.5889   4
 -14   9   4 340.089 32.6543   2
   9 -14  -4 324.461 20.6731   3
   5 -14   4 351.730 27.0633   2
 -14   5  -4 327.391 25.3679   5
   5   9  -4 366.579 26.0176   3
   9   5   4 359.048 26.8569   2
   5 -14   4 286.133 26.4919   4
   5   9  -4 312.546 31.3265   2
 -14   9   4 331.864 25.1627   5
   9   5   4 312.877 21.6964   3
  -9  -5  -4 277.445 21.3190   2
  14  -5   4 332.296 17.6322   2
  -5  -9   4 317.868 29.0847   2
  -9  14   4 324.679 29.3842   2
  -9  -5  -4 292.670 22.8954   4
  14  -5   4 329.675 19.1937   2
  -9  -5  -4 334.883 23.0609   5
  14  -9  -4 322.732 24.0096   4
  -5  14  -4 334.319 24.3295   5
  -5  14  -4 329.294 28.6642   2
  -9  14   4 288.665 23.8240   2
  -5  14  -4 313.310 22.3438   3
  14  -9  -4 279.414 23.5296   3
   6   8   4 9.68581 10.4132   3
   8 -14   4 6.34082 10.9594   2
 -14   8  -4 0.80822 12.7436   5
   6 -14  -4 -28.222 13.5255   4
   8 -14   4 2.54204 13.4807   4
 -14   6   4 1.02820 9.07650   2
 -14   6   4 5.36862 13.2065   5
   8   6  -4 -1.2893 15.8976   2
 -14   6   4 24.6166 17.6695   2
   6 -14  -4 1.50571 8.98729   2
   6   8   4 13.1065 12.8260   2
   8   6  -4 -11.613 12.0760   3
  -6  14   4 -4.6386 9.30185   3
  14  -6  -4 -4.7449 12.9604   3
  -8  14  -4 2.34551 11.6861   2
  -6  14   4 3.92808 12.4625   2
  -8  -6   4 3.43208 12.1286   5
  -6  -8  -4 6.18243 8.68577   5
  -8  14  -4 13.6005 12.3302   5
  14  -8   4 1.17587 11.2440   4
  -6  -8  -4 -0.4087 9.54422   2
  -8  -6   4 10.6427 16.6873   2
  -6  -8  -4 -4.9201 12.5704   4
  -8  14  -4 9.41572 8.50602   3
 -14   3   4 337.868 32.4337   2
   3  11   4 370.512 29.1476   2
  11 -14   4 357.341 28.3107   4
   3 -14  -4 346.541 28.0875   4
   3  11   4 340.553 23.3895   3
  11   3  -4 355.169 27.0549   3
 -14  11  -4 354.908 26.6641   5
 -14   3   4 366.682 26.6442   5
   3 -14  -4 335.754 24.1354   2
  11 -14   4 352.129 20.1338   2
  -3  14   4 351.958 22.7469   3
  14  -3  -4 330.658 30.4867   2
 -11  14  -4 379.552 26.4421   5
  14  -3  -4 357.880 25.8083   3
  -3 -11  -4 345.628 25.8528   4
  14 -11   4 345.475 25.9026   4
 -11  -3   4 358.718 25.7550   5
  -3  14   4 340.587 28.0265   2
  -3 -11  -4 334.641 23.7148   2
 -11  -3   4 338.790 32.6066   2
  14   0  -4 802.354 42.1428   3
   0 -14  -4 824.149 43.6567   4
   0  14   4 764.144 43.8619   3
  14 -14   4 883.278 44.2017   4
 -14  14  -4 780.839 41.2709   5
  14 -15  -4 18.2052 15.7717   4
   1  14  -4 35.6905 13.5917   3
   1  14  -4 18.0013 12.3127   5
  14 -15  -4 26.4381 11.5674   3
  14   1   4 27.0676 11.7933   3
   1  14  -4 25.0765 17.2922   2
   1 -15   4 0.07563 14.6457   2
 -15   1  -4 26.7368 11.8548   4
 -15  14   4 29.3561 14.6630   5
 -15   1  -4 23.1257 14.3203   5
  14   1   4 15.5276 13.8524   2
   1 -15   4 22.6247 13.6475   4
 -14  -1  -4 18.0981 12.4777   4
  -1  15  -4 28.5087 14.3884   3
  -1  15  -4 9.87804 17.2414   2
  15 -14  -4 16.3753 12.3836   3
 -14  -1  -4 28.1505 9.85641   2
  -1 -14   4 20.6259 17.4786   2
 -14  15   4 11.8900 12.7543   5
  15  -1   4 43.8906 13.5060   2
 -14  -1  -4 29.2126 13.7488   5
  15 -14  -4 2.70027 14.4317   4
  -1  15  -4 31.9849 12.7805   5
 -15  11   4 141.661 18.9120   5
  11 -15  -4 109.360 14.9910   3
   4 -15   4 98.3895 21.9144   2
  11 -15  -4 135.380 19.8085   4
   4  11  -4 91.0214 20.6114   2
   4 -15   4 121.287 17.5753   4
  11   4   4 105.380 17.4897   3
 -15   4  -4 93.4178 16.2195   5
   4  11  -4 134.046 18.0282   3
 -15   4  -4 124.794 20.4109   4
  11   4   4 113.481 22.1726   2
 -15  11   4 123.798 23.6718   2
  -4  15  -4 132.100 18.7732   5
 -11  15   4 88.3221 22.0707   2
  15 -11  -4 121.783 20.7863   4
  15  -4   4 107.592 14.0389   2
  15  -4   4 97.3075 13.7640   2
 -11  -4  -4 108.003 18.5726   5
  -4  15  -4 129.405 24.5589   2
 -11  -4  -4 123.880 14.6559   2
 -11  -4  -4 102.417 18.0061   4
  -4  15  -4 123.196 18.3196   3
  -4 -11   4 88.7930 20.1496   2
  15 -11  -4 141.048 17.1315   3
   7   8  -4 185.592 22.3024   3
 -15   8   4 185.103 19.1817   2
   8 -15  -4 175.803 23.0020   4
 -15   7  -4 169.072 21.8246   5
 -15   8   4 176.030 27.2875   2
 -15   8   4 186.882 23.2813   5
   8   7   4 211.253 18.2870   3
   8   7   4 186.180 22.8944   2
   7 -15   4 203.203 23.9157   4
   7   8  -4 170.434 27.8224   2
   8 -15  -4 174.714 17.5663   2
  -7  15  -4 180.540 17.6039   3
  15  -7   4 207.932 19.6555   4
  -8  -7  -4 162.252 17.9270   2
  -8  -7  -4 181.575 17.6201   5
  -7  15  -4 161.035 20.3607   5
  15  -8  -4 149.181 20.4417   3
  -7  -8   4 194.506 26.4094   2
  -8  -7  -4 164.795 21.3159   4
  -7  -8   4 209.976 20.6107   5
  -7  15  -4 146.837 22.5655   2
   5 -15  -4 68.7088 13.6390   2
   5  10   4 141.166 21.7283   2
   5  10   4 119.993 16.9452   3
 -15   5   4 98.3373 21.7868   2
   5 -15  -4 61.4606 15.4688   4
  10 -15   4 113.191 17.5803   4
  10 -15   4 124.352 15.7615   2
 -15   5   4 114.737 17.4844   5
  10   5  -4 103.288 17.2602   3
 -15  10  -4 77.4193 16.0503   5
 -10  15  -4 80.8025 15.2830   5
  15 -10   4 120.504 19.4627   4
  -5  15   4 117.190 14.8071   3
  -5 -10  -4 78.1307 15.4211   4
 -10  -5   4 101.290 18.0996   5
  -5 -10  -4 64.8533 15.6308   2
  15  -5  -4 75.8204 16.0258   3
 -10  -5   4 84.9380 20.8243   2
 -10  15  -4 85.6338 17.5400   2
  13   2  -4 202.436 21.3689   3
  13 -15   4 205.364 25.1789   4
 -15  13  -4 195.807 21.1278   5
   2 -15  -4 239.250 25.1281   4
   2  13   4 187.405 18.7698   3
  15  -2  -4 222.338 22.8531   3
  -2 -13  -4 177.160 19.6089   2
 -13  15  -4 186.047 21.8678   5
  -2  15   4 181.397 18.8076   3
 -13  -2   4 186.647 22.9986   5
  15 -13   4 138.008 29.4029   4
  -2 -13  -4 195.305 23.0902   4
   0  16  -4 241.991 21.0701   5
 -16   0  -4 235.100 20.9257   4
   0 -16   4 213.360 28.3756   2
   0  16  -4 256.573 24.5871   3
  16 -16  -4 249.903 21.1643   3
 -16  16   4 273.337 24.9065   5
 -16   0  -4 287.279 25.2170   5
  16 -16  -4 257.182 28.3977   4
   3  13  -4 192.165 22.1001   3
  13   3   4 190.910 25.1005   2
   3 -16   4 146.412 24.5755   4
   3 -16   4 170.759 25.7987   2
  13 -16  -4 181.471 25.4165   4
  13 -16  -4 192.455 18.5659   3
 -16   3  -4 218.905 19.0421   4
 -16  13   4 179.653 23.5763   5
  13   3   4 152.761 20.2676   3
 -16   3  -4 211.371 22.7400   5
 -13  -3  -4 202.445 17.7857   2
  -3  16  -4 208.503 27.4311   2
  16 -13  -4 213.404 25.1226   4
  -3  16  -4 220.052 20.7864   5
  16 -13  -4 199.273 20.7646   3
  -3  16  -4 185.425 21.8826   3
 -13  -3  -4 200.747 21.9779   5
  -3 -13   4 153.660 27.1344   2
 -13  -3  -4 216.965 21.5291   4
 -16  10   4 168.507 23.7387   5
  10 -16  -4 181.288 25.3907   4
   6 -16   4 189.246 23.3967   2
 -16   6  -4 185.452 22.3851   5
  10   6   4 203.790 20.2642   3
   6  10  -4 217.546 23.3905   3
  10   6   4 202.806 25.9454   2
   6 -16   4 157.074 24.5130   4
 -10  -6  -4 193.400 21.5731   4
  16  -6   4 171.384 19.6537   4
 -10  -6  -4 205.934 19.3396   2
  -6 -10   4 144.788 22.7360   5
 -10  -6  -4 240.791 20.5346   5
  -6  16  -4 210.719 25.8641   2
  -6  16  -4 235.234 20.1570   3
  16 -10  -4 199.566 22.9328   4
 -16   7   4 212.027 24.3833   5
   7   9   4 238.983 20.2407   3
   9 -16   4 240.360 26.3269   4
   7 -16  -4 203.187 25.8152   4
   7   9   4 221.949 25.3090   2
   9 -16   4 262.477 21.6865   2
  16  -9   4 194.056 21.3791   4
  -9  16  -4 213.336 23.5901   2
  -9  -7   4 198.129 20.5406   5
  -7  16   4 213.863 17.6416   3
  -7  -9  -4 158.204 23.9023   4
  -7  -9  -4 238.844 20.4331   2
   4  12   4 354.892 24.2307   3
  12 -16   4 360.799 30.6066   4
 -16  12  -4 296.393 26.8411   5
  12   4  -4 325.309 26.5061   3
 -16   4   4 317.800 33.3288   5
   4 -16  -4 348.291 29.2537   4
  -4  16   4 353.295 23.6215   3
 -12  -4   4 340.577 26.3081   5
  -4 -12  -4 314.340 24.4388   2
  16 -12   4 351.658 25.6323   4
  16  -4  -4 339.898 26.6227   3
  -4 -12  -4 352.353 27.4152   4
 -12  16  -4 338.269 26.1468   5
 -16   1   4 180.966 23.1606   5
  15 -16   4 247.374 26.9717   4
 -16  15  -4 200.163 23.6386   5
   1  15   4 221.718 20.4500   3
  15   1  -4 175.730 21.9434   3
   1 -16  -4 217.956 24.8619   4
  -1  16   4 230.784 20.9251   3
 -15  16  -4 202.381 23.2069   5
  16 -15   4 248.147 27.7052   4
  16  -1  -4 198.128 21.6716   3
 -15  -1   4 197.765 23.8128   5
  -1 -15  -4 224.466 25.2460   4
 -17  15   4 103.313 18.5616   5
   2  15  -4 123.395 19.2160   3
  15 -17  -4 152.356 21.5191   4
 -17   2  -4 103.342 16.6518   4
   2 -17   4 114.823 24.8180   2
   2 -17   4 98.8322 17.7046   4
  15   2   4 143.143 33.6134   2
  15 -17  -4 119.663 16.7050   3
   2  15  -4 120.585 16.0816   5
  -2  17  -4 109.601 17.7191   5
  -2  17  -4 139.123 19.5153   3
  -2  17  -4 130.052 24.6338   2
  17 -15  -4 127.097 19.9941   4
 -15  -2  -4 144.694 17.1306   4
 -15  -2  -4 119.543 22.0731   5
  17 -15  -4 113.018 19.4140   3
 -17  12   4 47.7134 17.0405   5
   5 -17   4 46.8319 15.7760   2
   5 -17   4 50.3630 15.9817   4
  12   5   4 65.4637 17.7615   2
  12   5   4 42.0122 13.1717   3
  12 -17  -4 47.0934 16.7500   4
   5  12  -4 53.4235 14.5106   3
  17 -12  -4 66.4820 14.3115   3
 -12  -5  -4 63.9207 14.8612   2
  17  -5   4 44.0121 11.4948   4
  -5  17  -4 66.1315 14.7660   3
  -5 -12   4 56.8073 14.6993   5
  -5  17  -4 56.5128 13.8807   5
  17 -12  -4 43.2721 15.4560   4
 -12  -5  -4 102.858 15.8799   5
 -12  -5  -4 57.6146 14.0322   4
  -5  17  -4 68.8961 18.7781   2
 -17   8  -4 79.2211 16.5116   5
   9   8   4 52.6353 13.4219   3
   9   8   4 65.4381 17.9030   2
   9 -17  -4 79.9594 26.8294   4
   8   9  -4 60.3690 14.9831   3
 -17   9   4 76.1577 19.1702   5
   8 -17   4 62.2573 17.4867   4
   8 -17   4 92.3340 19.6505   2
  17  -9  -4 49.2098 14.4354   3
  -9  17   4 78.5244 12.8412   3
  -8  17  -4 84.4274 16.7811   5
  -8  -9   4 59.2889 14.4229   5
  17  -8   4 51.9227 12.9143   4
  -8  17  -4 129.785 17.9453   3
  -9  -8  -4 78.3252 15.5697   4
  -9  -8  -4 84.0223 16.3768   2
  -8  17  -4 95.4137 19.1760   2
   6  11   4 189.821 36.1303   2
  11 -17   4 174.311 26.9088   4
   6 -17  -4 166.511 24.9287   4
 -17  11  -4 145.724 22.3864   5
 -17   6   4 158.525 31.8500   5
   6  11   4 167.497 19.7140   3
  11   6  -4 145.354 22.3616   3
  17 -11   4 160.841 21.8030   4
 -11  17  -4 174.545 21.6346   5
  17  -6  -4 140.000 21.3114   3
  -6 -11  -4 159.276 20.3853   4
  -6  17   4 147.175 18.4289   3
  -6 -11  -4 140.640 18.1933   2
 -11  -6   4 146.299 21.2260   5
  14 -17   4 641.686 39.9498   4
   3 -17  -4 630.095 38.6879   4
   3  14   4 686.648 34.9696   3
 -17   3   4 632.731 38.3734   5
 -17  14  -4 598.483 35.7416   5
  14   3  -4 612.978 35.3956   3
  17  -3  -4 647.680 36.3514   3
  -3  17   4 602.984 32.8715   3
 -14  -3   4 619.870 36.1930   5
 -14  17  -4 620.360 37.0414   5
  17 -14   4 664.453 38.8716   4
  -3 -14  -4 639.869 37.5814   4
 -17   0   4 522.623 35.9154   5
   0  17   4 556.158 32.7870   3
  17 -17   4 579.218 38.0966   4
 -17  17  -4 574.966 34.4748   5
  17   0  -4 533.882 32.9729   3
   0 -17  -4 600.079 36.3606   4
  17 -18  -4 100.968 15.9530   3
 -18   1  -4 126.245 23.2417   5
 -18   1  -4 129.185 17.8497   4
   1  17  -4 102.578 17.1373   5
   1  17  -4 89.6905 17.0097   3
  17 -18  -4 100.213 20.5664   4
  -1  18  -4 141.242 23.4953   3
  18 -17  -4 130.880 16.6196   3
 -17  -1  -4 102.512 17.8519   4
  18 -17  -4 88.8969 20.5961   4
  -1  18  -4 111.130 18.0660   5
 -18   4  -4 296.533 26.6902   5
  14   4   4 313.361 31.1969   2
  14   4   4 336.417 25.2002   3
 -18  14   4 319.084 28.0992   5
  14 -18  -4 306.300 29.5940   4
  14 -18  -4 313.721 21.9750   3
   4 -18   4 257.966 29.3347   4
   4  14  -4 299.606 26.5245   3
   4 -18   4 280.825 28.4191   2
  -4  18  -4 254.224 22.6921   5
  18 -14  -4 318.731 29.2716   4
  18 -14  -4 295.018 23.8613   3
  -4 -14   4 268.612 22.6297   5
 -14  -4  -4 286.731 24.0271   4
  -4  18  -4 268.124 32.0362   2
 -14  -4  -4 298.844 30.5545   5
 -14  -4  -4 281.046 22.7452   2
  -4  18  -4 281.930 25.2421   3
  11 -18  -4 226.813 27.6505   4
   7 -18   4 187.178 24.1977   2
  11   7   4 176.154 28.1904   2
 -18  11   4 160.940 25.0520   5
   7  11  -4 193.458 24.0724   3
   7 -18   4 156.477 27.0761   4
  11   7   4 125.078 21.4613   3
 -18   7  -4 207.813 23.7415   5
  18  -7   4 133.842 20.9134   4
 -11  -7  -4 231.789 20.6097   2
  18 -11  -4 226.387 20.6720   3
  -7  18  -4 221.911 21.5333   5
  -7  18  -4 197.640 20.5933   3
 -11  -7  -4 226.018 22.5484   4
  -7  18  -4 196.920 27.4707   2
 -11  18   4 152.479 17.6853   3
 -11  -7  -4 264.499 23.3983   5
  -7 -11   4 152.546 20.8381   5
   8  10   4 268.267 33.7403   2
 -18  10  -4 211.947 24.1913   5
  10 -18   4 221.784 29.0334   4
   8  10   4 223.100 22.4362   3
  10   8  -4 199.292 23.9384   3
   8 -18  -4 236.952 26.7125   4
  -8 -10  -4 177.000 20.7136   2
  18  -8  -4 199.216 22.1712   3
 -10  -8   4 207.088 22.2315   5
 -10  18  -4 213.582 21.9203   5
  18 -10   4 223.762 22.1562   4
  -8 -10  -4 206.877 23.3362   4
  -8  18   4 192.071 19.0945   3
 -18  13  -4 113.336 19.0376   5
   5  13   4 123.352 19.8376   3
  13 -18   4 124.214 21.7315   4
  13   5  -4 114.182 18.0300   3
   5 -18  -4 74.8111 17.0167   4
 -18   5   4 107.739 20.1151   5
  -5 -13  -4 119.630 20.4303   4
 -13  18  -4 108.083 20.1628   5
 -13  -5   4 104.734 18.8480   5
  -5  18   4 110.904 17.9011   3
  18  -5  -4 99.3358 17.0659   3
  18 -13   4 87.4607 17.8398   4
  16   2  -4 106.280 17.9798   3
  16 -18   4 122.636 21.2210   4
 -18   2   4 96.3371 18.6839   5
 -18  16  -4 144.277 21.9777   5
   2  16   4 130.573 17.8948   3
   2 -18  -4 115.308 19.1058   4
  -2  18   4 83.0293 14.3393   3
 -16  -2   4 129.580 21.5417   5
  18  -2  -4 127.832 21.9741   3
  -2 -16  -4 140.723 23.7475   4
  18 -16   4 141.122 21.2971   4
 -16  18  -4 142.022 22.2609   5
 -19   0  -4 242.190 21.4617   4
   0  19  -4 232.516 26.5867   3
  19 -19  -4 232.473 21.7071   3
  19 -19  -4 206.427 29.9357   4
 -19   0  -4 228.312 26.7144   5
   3  16  -4 415.599 30.4291   3
 -19   3  -4 395.330 31.5908   5
   3 -19   4 434.124 35.5310   4
 -19  16   4 442.807 33.1778   5
  16 -19  -4 406.588 26.2808   3
  16 -19  -4 360.293 33.7639   4
  19 -16  -4 409.130 34.9528   4
  19 -16  -4 426.253 27.8214   3
  -3  19  -4 413.890 27.0381   5
 -16  -3  -4 441.145 31.9589   5
 -16  -3  -4 429.472 27.5289   4
  -3 -16   4 405.522 27.2224   5
  13   6   4 204.465 24.6853   3
 -19  13   4 228.904 26.9316   5
  13   6   4 245.368 31.3060   2
   6  13  -4 164.518 21.6226   3
   6 -19   4 183.492 27.9137   4
   6 -19   4 236.797 26.6638   2
  13 -19  -4 175.878 28.6059   4
 -19   6  -4 204.994 24.0350   5
  -6  19  -4 201.615 30.6293   2
  19  -6   4 176.909 20.5123   4
  -6  19  -4 215.665 23.9718   3
 -13  -6  -4 174.301 21.6126   4
 -13  -6  -4 163.925 21.0275   2
  19 -13  -4 173.289 20.9030   3
  -6 -13   4 208.870 22.0729   5
 -13  -6  -4 215.374 22.7451   5
  -6  19  -4 195.839 21.3975   5
 -13  19   4 200.106 18.8258   3
  10   9   4 318.329 26.0748   3
   9  10  -4 327.198 25.7211   3
 -19  10   4 302.621 31.5496   5
 -19   9  -4 305.440 26.7922   5
   9 -19   4 328.685 32.0675   4
  10 -19  -4 283.847 30.3179   4
  -9 -10   4 274.665 24.2596   5
 -10  19   4 277.608 20.8999   3
 -10  -9  -4 299.080 24.5851   2
  19  -9   4 258.365 24.7326   4
  19 -10  -4 292.818 25.1045   3
 -10  -9  -4 319.148 26.4830   4
  -9  19  -4 270.578 24.1013   5
   7  12   4 403.738 28.3065   3
  12 -19   4 466.600 34.7699   4
 -19   7   4 399.909 32.7248   5
  12   7  -4 388.132 30.2028   3
   7 -19  -4 378.427 31.2615   4
 -19  12  -4 397.131 29.8964   5
  -7  19   4 396.629 26.1408   3
  19 -12   4 418.425 30.2010   4
 -12  -7   4 430.445 29.5014   5
  -7 -12  -4 397.256 29.9142   4
 -12  19  -4 451.773 29.2845   5
  19  -7  -4 412.214 27.7249   3
   4  15   4 205.778 22.1380   3
  15   4  -4 191.605 23.8809   3
 -19   4   4 158.830 26.1113   5
   4 -19  -4 176.147 26.3678   4
 -19  15  -4 205.309 24.7572   5
  15 -19   4 218.530 29.9968   4
  19  -4  -4 162.341 22.9301   3
  19 -15   4 155.773 26.1076   4
  -4  19   4 195.074 20.7410   3
  -4 -15  -4 184.091 25.2252   4
 -15  19  -4 195.480 22.8932   5
 -15  -4   4 167.253 23.5860   5
  18 -19   4 77.8814 21.3131   4
 -19   1   4 53.0966 19.6083   5
  18   1  -4 43.6661 17.5746   3
 -19  18  -4 38.7029 16.1678   5
   1  18   4 65.5322 15.5163   3
   1 -19  -4 49.6800 15.2163   4
  -1 -18  -4 35.4571 16.8220   4
  19  -1  -4 63.1606 17.1447   3
 -18  -1   4 76.6466 19.3493   5
 -18  19  -4 85.9844 19.0102   5
  -1  19   4 58.9090 14.6023   3
  19 -18   4 79.6995 20.3376   4
  18 -20  -4 107.667 15.9951   3
  18 -20  -4 121.085 23.2390   4
 -20   2  -4 111.589 20.5868   5
   2  18  -4 119.633 21.1313   3
  -2  20  -4 109.477 21.0934   3
 -18  -2  -4 123.093 16.8000   4
  -2  20  -4 89.0490 15.4136   5
  -2 -18   4 125.433 19.5103   5
 -18  -2  -4 133.977 21.8807   5
  20 -18  -4 71.4821 21.0538   4
  20 -18  -4 97.8798 16.9424   3
   5 -20   4 202.191 27.5137   2
   5 -20   4 145.132 21.7220   4
 -20  15   4 180.617 27.7834   5
 -20   5  -4 166.176 24.1638   5
  15 -20  -4 201.419 28.5688   4
  15   5   4 139.136 24.0932   3
   5  15  -4 159.400 21.7508   3
  20 -15  -4 203.431 29.2895   4
  -5  20  -4 165.908 20.5384   5
  20 -15  -4 135.815 20.8982   3
  20  -5   4 148.873 20.7539   4
 -15  -5  -4 156.652 25.0295   5
  -5  20  -4 182.511 25.0482   3
  -5  20  -4 249.169 40.2981   2
 -15  -5  -4 167.495 21.5788   4
  -5 -15   4 142.209 21.4665   5
   8 -20   4 20.0123 17.5536   4
  12 -20  -4 44.5659 17.7231   4
 -20  12   4 7.68733 17.4747   5
  12   8   4 4.77831 14.5993   3
   8  12  -4 34.0772 16.0714   3
 -20   8  -4 48.1383 17.0524   5
  -8  20  -4 28.5399 13.5892   5
  20 -12  -4 50.6321 15.7161   3
 -12  20   4 21.0468 11.5444   3
  -8 -12   4 20.9929 14.6957   5
 -12  -8  -4 34.0203 13.8625   4
  20  -8   4 17.9211 12.3524   4
 -12  -8  -4 34.7131 13.4642   2
 -20   9   4 123.220 21.8010   5
 -20  11  -4 109.643 18.8837   5
   9  11   4 145.315 20.0865   3
  11   9  -4 139.061 22.7642   3
  11 -20   4 187.197 30.1442   4
   9 -20  -4 102.960 18.6667   4
  20 -11   4 131.635 21.9909   4
  -9 -11  -4 141.230 21.8001   4
 -11  20  -4 125.309 20.7804   5
 -11  -9   4 126.040 21.5489   5
  -9  20   4 123.746 17.1191   3
  20  -9  -4 136.599 20.8673   3
  14 -20   4 152.821 23.9714   4
   6 -20  -4 84.2958 17.3457   4
 -20  14  -4 141.076 21.4177   5
 -20   6   4 105.083 20.1460   5
   6  14   4 137.193 19.3207   3
  14   6  -4 133.029 19.6739   3
  -6  20   4 124.947 18.4795   3
  20 -14   4 170.718 25.7251   4
 -14  -6   4 138.035 21.6796   5
  -6 -14  -4 107.326 17.8453   4
 -14  20  -4 101.151 17.4309   5
  20  -6  -4 108.489 18.1480   3
 -20   3   4 163.148 26.7843   5
   3  17   4 148.737 21.9694   3
   3 -20  -4 123.130 20.3938   4
  17   3  -4 96.5673 17.9312   3
 -20  17  -4 164.110 23.8474   5
  17 -20   4 187.667 31.8094   4
  -3  20   4 145.871 21.3191   3
 -17  20  -4 129.630 23.2987   5
 -17  -3   4 156.740 24.8467   5
  20  -3  -4 169.653 23.5137   3
  20 -17   4 174.446 22.5801   4
  -3 -17  -4 144.586 20.0900   4
   0  20   4 57.1325 15.8762   3
  20   0  -4 56.2190 15.9338   3
 -20   0   4 81.7440 19.4202   5
 -20  20  -4 55.6691 16.7164   5
  20 -20   4 62.4702 19.3742   4
   0 -20  -4 62.0613 16.5447   4
   1  20  -4 22.0369 19.0260   3
  20 -21  -4 1.94283 20.3415   4
 -21   1  -4 23.5545 18.1224   5
 -20  -1  -4 28.8321 18.6255   5
  21 -20  -4 41.1410 21.8726   4
  -1 -20   4 35.2116 13.5484   5
  21 -20  -4 17.4993 13.1138   3
  -1  21  -4 10.4761 17.3540   3
 -20  -1  -4 11.5612 12.4131   4
   4  17  -4 343.077 30.0588   3
  17 -21  -4 336.480 32.6413   4
 -21   4  -4 328.251 30.2154   5
 -21  17   4 360.202 33.5844   5
  -4 -17   4 322.328 27.4685   5
  21  -4   4 357.187 26.0539   4
  21 -17  -4 354.765 26.0083   3
  -4  21  -4 354.226 31.0350   3
  21 -17  -4 351.882 40.7044   4
  -4  21  -4 344.998 25.3870   5
 -17  -4  -4 331.325 31.5389   5
 -17  -4  -4 335.658 25.9768   4
 -21   7  -4 387.535 30.7093   5
  14 -21  -4 363.043 33.7357   4
 -21  14   4 438.217 34.9279   5
   7 -21   4 412.580 57.1116   4
   7  14  -4 398.669 30.1846   3
  14   7   4 413.675 31.6324   3
  21  -7   4 383.227 27.8637   4
  -7  21  -4 456.447 31.2851   3
  21 -14  -4 366.586 27.4764   3
  -7 -14   4 335.053 28.0762   5
 -14  -7  -4 386.097 28.5372   4
 -14  21   4 422.508 26.2932   3
  -7  21  -4 396.393 27.5843   5
 -21  11   4 311.043 32.1643   5
  11 -21  -4 371.517 32.6239   4
  11  10   4 344.112 29.3024   3
 -21  10  -4 324.718 26.8899   5
  10 -21   4 368.002 35.4884   4
  10  11  -4 356.636 29.3453   3
 -11 -10  -4 373.701 27.7965   4
 -10  21  -4 372.115 27.4758   5
 -10 -11   4 316.889 27.4366   5
 -11  21   4 350.758 24.8499   3
  21 -10   4 332.675 27.1393   4
  21 -11  -4 359.036 26.8973   3
 -21   8   4 104.097 22.4463   5
  13   8  -4 108.993 18.3334   3
 -21  13  -4 87.1797 17.7863   5
  13 -21   4 110.740 22.5120   4
   8 -21  -4 83.9599 18.0786   4
   8  13   4 120.732 19.1747   3
 -13  21  -4 118.597 21.2144   5
  -8  21   4 110.444 18.8543   3
  -8 -13  -4 89.4918 16.6827   4
 -13  -8   4 151.394 22.8171   5
  21 -13   4 110.008 18.1137   4
  21  -8  -4 73.9786 16.2760   3
  16   5  -4 78.8376 17.1553   3
  16 -21   4 85.9372 20.4271   4
   5 -21  -4 48.8630 17.3890   4
   5  16   4 81.0314 17.5790   3
 -21  16  -4 92.9082 20.3407   5
 -21   5   4 65.2660 18.1702   5
  -5 -16  -4 89.3903 17.8670   4
 -16  -5   4 60.0365 16.4760   5
  21 -16   4 46.8179 17.2147   4
  21  -5  -4 75.0259 16.7453   3
  -5  21   4 58.5951 13.5663   3
 -16  21  -4 105.904 20.0625   5
 -21  19  -4 121.812 19.7785   5
 -21   2   4 77.2339 18.8379   5
   2 -21  -4 94.0473 18.8038   4
   2  19   4 90.3653 17.0889   3
  19   2  -4 120.177 20.2180   3
  19 -21   4 115.091 22.0464   4
  21  -2  -4 86.9082 17.4760   3
 -19  -2   4 109.361 20.5993   5
  -2 -19  -4 99.2132 18.8143   4
  21 -19   4 93.7430 20.3606   4
 -19  21  -4 124.324 20.3733   5
  -2  21   4 118.886 20.3391   3
  22 -22  -4 57.8791 22.5962   4
 -22   0  -4 60.6271 20.9932   5
   0  22  -4 60.9483 20.1111   3
   0 -22   4 91.3930 18.0862   5
  19 -22  -4 167.639 26.5070   4
   3  19  -4 158.300 23.5893   3
 -22   3  -4 158.830 24.4513   5
 -19  -3  -4 136.729 20.9095   4
 -19  22   4 147.973 18.7525   3
 -19  -3  -4 88.5263 21.0014   5
  -3  22  -4 158.431 26.4271   3
  -3 -19   4 153.874 23.5226   5
  22 -19  -4 135.629 24.9005   4
  -3  22  -4 146.597 20.4257   5
  22 -19  -4 125.912 20.2494   3
  22  -3   4 165.136 21.5643   4
   6  16  -4 181.991 25.1146   3
 -22   6  -4 213.921 26.6191   5
 -22  16   4 221.850 30.6693   5
   6 -22   4 193.434 27.3459   4
  16 -22  -4 195.941 30.7702   4
  -6  22  -4 171.118 22.0901   5
  22  -6   4 213.149 22.8466   4
 -16  22   4 214.312 20.1579   3
 -16  -6  -4 210.614 22.8754   4
  -6 -16   4 203.697 23.8994   5
  22 -16  -4 199.785 39.0274   4
  -6  22  -4 163.429 26.3119   3
  22 -16  -4 181.061 22.4324   3
   9  13  -4 219.460 27.2731   3
 -22   9  -4 191.303 25.2921   5
  13   9   4 321.343 28.1130   3
   9 -22   4 218.251 33.6524   4
 -22  13   4 271.010 29.8585   5
  13 -22  -4 235.892 30.3680   4
 -13  22   4 242.013 21.5688   3
 -13  -9  -4 202.408 24.4848   4
  22  -9   4 238.530 24.9303   4
  -9 -13   4 240.942 24.8619   5
  -9  22  -4 214.897 22.6019   5
  22 -13  -4 200.935 23.1497   3
  12  10  -4 496.798 33.5924   3
  10  12   4 528.066 33.9792   3
 -22  12  -4 506.842 34.4107   5
 -22  10   4 492.902 36.6831   5
  10 -22  -4 510.371 36.6325   4
  12 -22   4 464.024 40.3208   4
 -10  22   4 488.236 29.6025   3
  22 -12   4 468.976 33.7902   4
 -12 -10   4 433.378 32.7745   5
 -10 -12  -4 498.092 32.5797   4
  22 -10  -4 475.212 31.7142   3
 -12  22  -4 492.187 32.1607   5
 -22  15  -4 210.472 26.3287   5
 -22   7   4 246.241 30.3682   5
  15   7  -4 208.245 25.8173   3
  15 -22   4 263.684 35.3065   4
   7  15   4 256.550 26.3657   3
   7 -22  -4 225.465 28.9314   4
 -15  22  -4 216.365 25.2547   5
  -7 -15  -4 242.117 26.8767   4
 -15  -7   4 227.234 26.0289   5
  22 -15   4 268.470 28.8321   4
  22  -7  -4 273.787 25.8850   3
  -7  22   4 249.237 23.1564   3
  18   4  -4 52.9106 16.5741   3
  18 -22   4 100.404 23.0767   4
   4 -22  -4 87.4723 20.0143   4
 -22  18  -4 93.8573 19.4556   5
   4  18   4 42.2645 17.4616   3
 -22   4   4 53.5140 18.3133   5
 -18  22  -4 82.6689 19.2804   5
  22  -4  -4 56.4179 16.3473   3
  -4 -18  -4 88.1393 19.4298   4
  -4  22   4 71.4413 15.8715   3
 -18  -4   4 61.0010 19.5562   5
  22 -18   4 59.4388 20.5285   4
 -22   1   4 6.28157 18.1605   5
  21   1  -4 -3.0183 15.0812   3
   1 -22  -4 2.39365 15.5536   4
   1  21   4 -19.164 14.4977   3
 -22  21  -4 21.8567 16.4343   5
  21 -22   4 10.4765 20.5947   4
 -21  22  -4 1.70274 17.0379   5
 -21  -1   4 15.4329 17.7953   5
  -1 -21  -4 17.3887 17.6325   4
  22 -21   4 8.08905 20.8375   4
  -1  22   4 0.51904 14.3804   3
  22  -1  -4 27.2511 16.9726   3
  21 -23  -4 76.6471 23.1129   4
   2  21  -4 68.7671 20.2430   3
 -23   2  -4 45.6102 19.8748   5
 -21  -2  -4 105.161 17.3335   4
  -2  23  -4 102.056 22.7350   3
 -21  -2  -4 108.559 23.7885   5
  23 -21  -4 79.3856 16.2691   3
  23 -21  -4 98.1973 25.4541   4
  -2 -21   4 84.4221 19.2179   5
 -21  23   4 116.434 17.6720   3
  23  -2   4 133.095 22.4181   4
   5  18  -4 153.717 22.6165   3
 -23   5  -4 164.099 26.6381   5
   5 -23   4 204.696 36.2362   4
 -23  18   4 225.821 31.1946   5
  18 -23  -4 114.623 21.9520   4
  23 -18  -4 177.311 21.8596   3
  -5  23  -4 161.624 21.1124   5
 -18  23   4 159.940 20.0889   3
 -18  -5  -4 175.899 29.1803   5
  23 -18  -4 160.515 26.3506   4
  -5 -18   4 206.283 23.9887   5
 -18  -5  -4 175.141 22.3814   4
  23  -5   4 172.260 23.0145   4
  -5  23  -4 137.531 22.6913   3
  15 -23  -4 62.6836 19.9839   4
  15   8   4 67.6135 18.3454   3
   8 -23   4 47.5066 20.6134   4
 -23   8  -4 78.2535 19.5452   5
   8  15  -4 84.6011 18.4689   3
 -23  15   4 57.6266 21.0248   5
 -15  23   4 70.0901 15.1889   3
  23  -8   4 58.1708 16.4820   4
  -8 -15   4 32.6592 15.2650   5
  -8  23  -4 78.0781 17.6476   5
 -15  -8  -4 40.5590 15.0800   4
  23 -15  -4 44.3681 15.0470   3
  12  11   4 80.5423 21.0113   3
 -23  12   4 53.6323 21.4893   5
  11 -23   4 134.858 24.5181   4
  12 -23  -4 69.2681 20.5377   4
  11  12  -4 58.1990 16.6450   3
 -23  11  -4 80.5133 19.3383   5
 -11  23  -4 63.7762 16.1956   5
 -12  23   4 78.4111 14.9451   3
 -11 -12   4 59.3053 16.3229   5
  23 -12  -4 50.1318 16.5191   3
 -12 -11  -4 83.2793 17.0055   4
  23 -11   4 57.1148 15.7450   4
   9 -23  -4 225.848 29.5359   4
  14   9  -4 225.209 26.6786   3
 -23   9   4 213.626 29.8112   5
 -23  14  -4 227.686 26.5333   5
  14 -23   4 260.084 34.2057   4
   9  14   4 235.777 26.7606   3
 -14  23  -4 203.010 24.8644   5
  -9  23   4 230.523 22.0257   3
  -9 -14  -4 220.620 25.1009   4
  23 -14   4 216.429 27.6020   4
  23  -9  -4 208.607 24.0169   3
 -14  -9   4 242.853 25.7982   5
  17 -23   4 22.7075 22.7344   4
 -23  17  -4 7.06190 16.8460   5
 -23   6   4 44.9937 21.4842   5
   6  17   4 23.3964 16.1385   3
  17   6  -4 46.0265 16.9473   3
   6 -23  -4 31.8261 18.4099   4
  23  -6  -4 31.5475 17.1649   3
  23 -17   4 40.3857 18.4987   4
 -17  23  -4 49.6367 17.3767   5
 -17  -6   4 37.8787 18.4013   5
  -6  23   4 27.5333 14.5192   3
  -6 -17  -4 50.4345 17.5663   4
  20 -23   4 -4.5424 21.2760   4
   3  20   4 -6.0891 16.8066   3
 -23   3   4 19.5759 19.6481   5
  20   3  -4 -7.9157 16.1437   3
   3 -23  -4 4.05178 15.4896   4
 -23  20  -4 1.11190 15.6347   5
 -20  23  -4 6.69945 16.4127   5
  -3  23   4 -12.053 12.8693   3
 -20  -3   4 6.72194 16.2530   5
  -3 -20  -4 -4.6262 14.7095   4
  23  -3  -4 15.5957 16.4817   3
  23 -20   4 16.0576 18.6512   4
  23   0  -4 28.5664 16.8036   3
 -23   0   4 36.5194 20.0337   5
  23 -23   4 34.2396 20.6989   4
   0 -23  -4 28.1444 18.6121   4
   0  23   4 28.4171 17.8730   3
 -23  23  -4 36.5740 18.5475   5
 -24   1  -4 0.62475 19.3732   5
  23 -24  -4 3.35057 23.0965   4
   1  23  -4 -36.058 19.9988   3
   1 -24   4 23.4110 16.6838   5
  24 -23  -4 2.07556 23.5619   4
 -23  -1  -4 -6.7605 20.2689   5
 -23  24   4 11.8275 15.4597   3
  -1 -23   4 12.2178 17.7312   5
  24  -1   4 9.81773 15.5212   4
  -1  24  -4 29.8637 20.5882   3
   4  20  -4 44.1479 19.1685   3
 -24   4  -4 90.2495 21.6301   5
  20 -24  -4 53.6881 20.1810   4
  24 -20  -4 69.7282 25.1340   4
 -20  24   4 52.8182 15.9911   3
 -20  -4  -4 52.3634 14.9733   4
 -20  -4  -4 52.9810 22.0279   5
  -4  24  -4 79.4464 22.5360   3
  24  -4   4 56.3685 15.4612   4
  -4 -20   4 71.6438 18.3822   5
  -4  24  -4 54.6585 14.5527   5
  24 -20  -4 66.0391 15.2048   3
  17 -24  -4 161.990 25.3396   4
   7 -24   4 215.687 34.2345   4
 -24  17   4 227.773 32.7540   5
   7  17  -4 177.225 25.9272   3
 -24   7  -4 156.676 26.5718   5
  -7  24  -4 169.585 29.2401   3
  -7  24  -4 174.271 21.6821   5
 -17  -7  -4 219.809 24.5203   4
 -17  24   4 200.548 21.6911   3
  -7 -17   4 179.893 24.0426   5
  24 -17  -4 131.157 22.1042   3
  24  -7   4 150.189 24.8484   4
 -24  10  -4 276.092 27.6769   5
  10  14  -4 289.173 28.6785   3
  14 -24  -4 287.715 32.5503   4
  14  10   4 325.537 31.6470   3
 -24  14   4 304.395 32.4947   5
  10 -24   4 324.324 38.3755   4
  24 -14  -4 260.963 24.8536   3
 -10  24  -4 269.818 25.9107   5
 -14 -10  -4 275.798 26.9863   4
 -10 -14   4 283.936 27.4599   5
  24 -10   4 311.826 27.2144   4
 -14  24   4 297.865 24.3082   3
  11 -24  -4 66.5029 20.4421   4
 -24  11   4 49.5583 19.5970   5
  13 -24   4 55.5022 23.5169   4
  13  11  -4 50.2386 16.5649   3
  11  13   4 55.6383 19.2091   3
 -24  13  -4 69.9131 20.2085   5
  24 -13   4 67.0829 19.1213   4
 -13 -11   4 47.0711 17.3988   5
 -13  24  -4 59.4566 16.9363   5
  24 -11  -4 46.0940 16.0145   3
 -11 -13  -4 68.3798 18.6816   4
 -11  24   4 45.4626 14.6472   3
   8  16   4 39.0913 18.4039   3
 -24   8   4 11.4484 18.2464   5
 -24  16  -4 37.8797 19.1621   5
  16   8  -4 8.70876 16.3940   3
  16 -24   4 10.4912 22.3173   4
   8 -24  -4 15.7761 15.9391   4
  -8 -16  -4 30.0743 16.0950   4
  -8  24   4 19.7461 14.0276   3
  24 -16   4 26.3686 19.2057   4
  24  -8  -4 0.31499 15.5417   3
 -16  24  -4 8.59975 15.3735   5
 -16  -8   4 17.5266 16.3645   5
   5  19   4 41.4632 16.9919   3
   5 -24  -4 10.8808 16.4201   4
  19 -24   4 36.3613 21.7965   4
  19   5  -4 36.2365 17.4094   3
 -24   5   4 35.4747 21.0534   5
 -24  19  -4 18.2283 16.7649   5
 -19  24  -4 11.1114 15.8609   5
  24 -19   4 21.1328 19.5428   4
 -19  -5   4 -8.7224 16.2684   5
  -5 -19  -4 5.95027 14.9150   4
  -5  24   4 8.34307 13.1760   3
  24  -5  -4 10.9031 17.6830   3
  22   2  -4 10.8238 17.6447   3
   2 -24  -4 10.7294 17.7734   4
 -24   2   4 -0.7335 17.6750   5
  22 -24   4 -17.083 21.6743   4
   2  22   4 0.61581 15.4951   3
 -24  22  -4 -1.1453 17.7843   5
  -2 -22  -4 1.12975 15.8272   4
  -2  24   4 12.3993 15.5906   3
  24 -22   4 25.0624 21.2173   4
  24  -2  -4 22.1160 17.5813   3
 -22  -2   4 -2.8146 16.9417   5
 -22  24  -4 0.17125 15.9525   5
   0  25  -4 35.9707 23.8693   3
   0 -25   4 58.6711 19.6551   5
 -25  25   4 45.2707 17.6186   3
  25 -25  -4 64.2536 27.0310   4
  25   0   4 85.8758 18.4869   4
 -25   0  -4 50.6517 22.4481   5
  22 -25  -4 71.1700 23.2739   4
   3  22  -4 39.3990 21.5978   3
 -25   3  -4 30.7013 21.3471   5
 -22  25   4 23.0973 14.8962   3
 -22  -3  -4 43.0112 16.5260   4
  -3  25  -4 22.6431 22.2213   3
  -3 -22   4 42.5279 17.6733   5
 -22  -3  -4 16.7416 21.0230   5
  25  -3   4 29.9851 15.4705   4
  25 -22  -4 26.1845 14.6728   3
  25 -22  -4 4.21123 24.4122   4
  19 -25  -4 34.6300 21.3097   4
 -25   6  -4 49.2115 19.8978   5
   6  19  -4 25.1252 18.3850   3
  25 -19  -4 56.8986 16.3227   3
 -19  25   4 65.0331 16.3221   3
  -6  25  -4 50.3586 17.0733   5
  25  -6   4 40.5925 15.6752   4
 -19  -6  -4 56.6245 16.7036   4
  -6 -19   4 65.0312 17.9709   5
  -6  25  -4 28.8593 21.6169   3
  16 -25  -4 25.2343 19.5825   4
 -25  16   4 74.2659 23.6693   5
   9  16  -4 39.5349 16.8730   3
 -25   9  -4 36.5656 17.4941   5
   9 -25   4 56.0412 24.0698   4
  16   9   4 61.0440 21.1107   3
  -9  25  -4 18.5908 15.1232   5
  -9 -16   4 44.8451 16.8186   5
  25  -9   4 54.2679 17.0128   4
 -16  25   4 40.8544 14.8883   3
 -16  -9  -4 47.2133 17.4175   4
  25 -16  -4 -0.6598 14.9302   3
  12  13  -4 29.3618 17.1119   3
 -25  12  -4 48.6750 18.8641   5
  13  12   4 60.2483 19.8322   3
  13 -25  -4 47.1877 21.2005   4
  12 -25   4 53.0396 25.2200   4
 -25  13   4 46.9336 22.1566   5
  25 -12   4 42.7505 18.2726   4
 -13  25   4 28.9500 14.3222   3
  25 -13  -4 27.9858 15.9145   3
 -13 -12  -4 32.7209 15.1708   4
 -12  25  -4 28.6902 15.2644   5
 -12 -13   4 47.9004 18.3876   5
 -25  10   4 108.330 21.6397   5
  15 -25   4 95.4596 25.3028   4
 -25  15  -4 114.650 22.1958   5
  10  15   4 126.322 21.9649   3
  10 -25  -4 103.027 21.4111   4
  15  10  -4 78.1281 19.2401   3
  25 -10  -4 110.840 19.6507   3
 -10 -15  -4 78.6543 17.3188   4
 -15 -10   4 110.885 19.7532   5
  25 -15   4 106.361 20.6233   4
 -15  25  -4 116.686 21.1544   5
 -10  25   4 70.8900 15.2654   3
   7  18   4 13.1268 17.6278   3
  18 -25   4 16.7526 23.2550   4
  18   7  -4 21.2557 16.0231   3
 -25   7   4 45.3301 20.9101   5
 -25  18  -4 30.7192 19.5095   5
   7 -25  -4 4.89659 17.7142   4
  25 -18   4 28.4001 19.0262   4
 -18  -7   4 6.90479 18.2441   5
  25  -7  -4 21.1123 16.3735   3
 -18  25  -4 31.8379 16.6959   5
  -7 -18  -4 46.0018 17.4553   4
  -7  25   4 44.7288 15.8301   3
 -25   4   4 11.1937 20.1054   5
   4  21   4 12.2516 15.8256   3
 -25  21  -4 12.3193 18.5839   5
   4 -25  -4 21.2822 18.9336   4
  21 -25   4 8.55128 22.0363   4
  21   4  -4 18.0445 17.6886   3
 -21  25  -4 25.7723 18.2876   5
 -21  -4   4 0.12373 18.1289   5
  25 -21   4 10.8902 19.2501   4
  -4  25   4 19.1770 15.7492   3
  -4 -21  -4 38.6058 18.2655   4
  25  -4  -4 -1.7634 17.1130   3
  24 -25   4 9.92082 21.1543   4
 -25   1   4 8.59246 21.0033   5
   1 -25  -4 3.70383 16.9126   4
 -25  24  -4 17.4472 16.7685   5
   1  24   4 17.8437 17.0949   3
  24   1  -4 24.9804 17.6417   3
  25 -24   4 6.95342 21.9904   4
  -1  25   4 -6.0376 17.5981   3
  -1 -24  -4 -4.2805 16.9249   4
 -24  -1   4 17.3643 20.2681   5
  25  -1  -4 26.5535 18.4265   3
 -24  25  -4 4.42374 16.4757   5
   2  24  -4 50.3845 22.6198   3
 -26   2  -4 42.3506 23.2951   5
  24 -26  -4 28.7613 24.4045   4
  24   2   4 33.7063 15.2755   4
   2 -26   4 74.2325 18.2241   5
  26  -2   4 29.5293 15.7090   4
 -24  26   4 19.2640 15.4577   3
  -2 -24   4 40.0041 18.6163   5
 -24  -2  -4 37.8489 23.0263   5
  -2  26  -4 28.9171 22.8574   3
  26 -24  -4 16.2166 25.7373   4
 -26   5  -4 90.1636 21.8571   5
   5  21  -4 92.1800 23.2038   3
  21 -26  -4 84.4952 22.9855   4
  26 -21  -4 89.7646 28.0858   4
 -21  -5  -4 113.108 26.8244   5
  26 -21  -4 76.6750 17.2223   3
  -5  26  -4 103.338 19.0714   5
 -21  -5  -4 67.0033 15.9113   4
  -5  26  -4 82.4636 24.1316   3
 -21  26   4 78.8437 17.6837   3
  -5 -21   4 64.2460 17.5314   5
  26  -5   4 56.4755 16.8274   4
 -26  18   4 66.6626 24.5020   5
   8 -26   4 76.0848 26.5336   4
 -26   8  -4 30.0648 17.9257   5
   8  18  -4 22.9207 19.0864   3
  18   8   4 60.2979 38.0013   3
  18 -26  -4 21.4115 18.9523   4
 -18  -8  -4 34.1982 16.0753   4
 -18  26   4 25.7722 15.2800   3
  26  -8   4 14.9082 14.8535   4
  -8  26  -4 32.5271 15.5200   5
  -8 -18   4 16.1905 17.0826   5
  26 -18  -4 22.8447 15.7610   3
 -26  11  -4 118.953 20.9787   5
  15 -26  -4 79.7804 19.9559   4
  11 -26   4 119.059 26.7456   4
  15  11   4 92.9847 20.9078   3
  11  15  -4 126.577 21.1779   3
 -26  15   4 143.490 26.5264   5
 -11  26  -4 75.4980 17.3649   5
  26 -15  -4 73.0827 16.6884   3
 -15  26   4 113.073 17.8941   3
 -15 -11  -4 130.295 22.4021   4
  26 -11   4 113.484 21.0680   4
 -11 -15   4 86.2046 18.6868   5
 -26  12   4 50.0961 21.3027   5
  14  12  -4 76.4281 19.2040   3
  12  14   4 80.6044 20.6666   3
 -26  14  -4 94.5081 22.1287   5
  12 -26  -4 60.1947 21.0427   4
  14 -26   4 69.2017 26.0874   4
  26 -12  -4 81.3003 19.6655   3
  26 -14   4 54.0795 20.2323   4
 -12 -14  -4 117.397 20.9290   4
 -14 -12   4 39.3410 18.0594   5
 -12  26   4 48.0274 15.0315   3
 -14  26  -4 91.1275 20.3397   5
   9 -26  -4 41.8788 17.8785   4
   9  17   4 63.8837 19.9667   3
 -26   9   4 96.5194 22.2205   5
 -26  17  -4 82.0013 21.5361   5
  17 -26   4 70.5371 26.7740   4
  17   9  -4 89.3393 20.0560   3
  26  -9  -4 92.1574 20.6227   3
 -17  -9   4 58.6376 18.8385   5
 -17  26  -4 118.763 21.4763   5
  -9  26   4 63.9828 15.3913   3
  -9 -17  -4 42.4895 16.5464   4
  26 -17   4 58.0168 19.0794   4
  20 -26   4 0.67540 22.0619   4
   6  20   4 -19.668 16.9302   3
  20   6  -4 24.7846 18.1886   3
 -26  20  -4 20.2444 17.2785   5
 -26   6   4 19.2139 21.4725   5
   6 -26  -4 38.1955 18.4366   4
  26  -6  -4 31.8148 18.3764   3
  26 -20   4 22.9757 19.0325   4
 -20  26  -4 30.9320 18.7523   5
  -6 -20  -4 5.42204 18.5229   4
  -6  26   4 27.8038 16.1596   3
 -20  -6   4 28.5607 20.3028   5
 -26   3   4 37.8361 19.0839   5
   3  23   4 53.4897 18.6921   3
  23 -26   4 34.4604 23.3912   4
  23   3  -4 56.2075 18.5530   3
   3 -26  -4 28.1417 17.9964   4
 -26  23  -4 58.1504 18.3901   5
  26 -23   4 32.7617 20.7889   4
 -23  -3   4 44.0120 21.4457   5
  26  -3  -4 74.2267 20.1947   3
 -23  26  -4 68.2218 20.4650   5
  -3 -23  -4 69.4017 21.1897   4
  -3  26   4 46.9037 18.8478   3
   4 -27   4 48.2651 17.2546   5
   4  23  -4 24.3134 21.2379   3
 -27   4  -4 31.3553 20.4006   5
  23 -27  -4 28.1104 23.2544   4
  -4  27  -4 38.6419 23.4330   3
  27 -23  -4 49.1651 27.9963   4
  -4 -23   4 54.0598 18.5995   5
  27  -4   4 45.9398 19.0211   4
 -23  27   4 47.5007 18.7976   3
 -23  -4  -4 54.8872 24.9986   5
 -27   7  -4 25.1597 20.4122   5
  20 -27  -4 29.4216 20.6500   4
   7  20  -4 47.1460 20.1011   3
  27 -20  -4 47.6458 16.5312   3
  -7 -20   4 15.5356 16.5025   5
  27  -7   4 11.7121 16.0886   4
  -7  27  -4 12.8015 37.9511   3
 -20  -7  -4 18.8194 15.0723   4
 -20  27   4 31.0893 17.0625   3
  -7  27  -4 17.2659 16.5160   5
 -27  10  -4 42.0458 19.1932   5
  10 -27   4 82.1268 27.1586   4
  17 -27  -4 52.3021 21.2492   4
  10  17  -4 71.8497 20.4523   3
  17  10   4 77.0829 22.7960   3
 -27  17   4 88.5434 24.9174   5
 -17  27   4 45.8847 15.7444   3
  27 -17  -4 49.9721 17.0678   3
  27 -10   4 20.6062 16.8116   4
 -10 -17   4 58.4318 18.8621   5
 -10  27  -4 35.5121 16.1920   5
 -17 -10  -4 58.0392 17.0559   4
  13  14  -4 61.9141 19.3528   3
 -27  14   4 19.5434 22.3378   5
 -27  13  -4 3.27485 17.3455   5
  13 -27   4 32.1978 23.7344   4
  14  13   4 -10.482 18.0234   3
  14 -27  -4 3.06417 17.6375   4
 -14 -13  -4 28.3869 16.0956   4
  27 -14  -4 65.8190 18.5267   3
 -13 -14   4 15.3232 17.7724   5
 -13  27  -4 28.1945 16.5254   5
  27 -13   4 14.4273 19.6827   4
 -14  27   4 37.9572 16.7032   3
  16 -27   4 -7.6542 23.9661   4
  11 -27  -4 1.24977 16.8789   4
 -27  16  -4 8.56953 19.3919   5
 -27  11   4 4.87986 19.1937   5
  11  16   4 22.9127 19.4465   3
  16  11  -4 34.0206 18.7103   3
 -11 -16  -4 24.2542 17.8406   4
 -16  27  -4 22.3535 16.2107   5
 -16 -11   4 -14.749 17.2564   5
  27 -11  -4 17.8178 17.1583   3
 -11  27   4 19.2764 14.8888   3
  27 -16   4 16.8959 18.7725   4
 -27   8   4 18.4835 20.1664   5
  19 -27   4 -20.772 24.4262   4
   8  19   4 24.6469 21.0688   3
  19   8  -4 30.2632 16.7598   3
   8 -27  -4 10.0540 19.0709   4
 -27  19  -4 21.6643 20.3660   5
 -19  -8   4 27.5297 18.8625   5
 -19  27  -4 26.7844 18.2229   5
  -8 -19  -4 12.5537 18.6820   4
  27 -19   4 14.9496 20.0769   4
  -8  27   4 13.4948 15.1431   3
  27  -8  -4 13.4786 17.2628   3
  22   5  -4 4.37523 17.2229   3
   5 -27  -4 -5.0566 18.8645   4
 -27  22  -4 0.16017 18.8014   5
 -27   5   4 -9.7686 20.2015   5
   5  22   4 0.22832 18.7205   3
  22 -27   4 7.39611 22.8505   4
  -5  27   4 21.7571 17.3932   3
 -22  27  -4 7.27636 18.3280   5
  27 -22   4 2.20111 20.2248   4
  27  -5  -4 14.7915 17.8737   3
  -5 -22  -4 10.9894 18.7555   4
 -22  -5   4 12.7197 20.4280   5
  19 -28  -4 -17.976 20.2818   4
   9 -28   4 1.32094 27.7768   4
 -28  19   4 10.4217 24.3387   5
   9  19  -4 1.14752 19.7433   3
 -28   9  -4 2.04497 19.2801   5
  28 -19  -4 20.2660 16.2596   3
 -19  -9  -4 9.54066 15.8045   4
 -19  28   4 6.40864 16.1376   3
  28  -9   4 0.50733 18.4946   4
  -9  28  -4 -15.069 15.0259   5
  -9 -19   4 16.8566 17.8707   5
  16  12   4 19.7620 19.7170   3
  12 -28   4 -6.0419 25.8356   4
 -28  12  -4 24.0185 17.5349   5
 -28  16   4 13.1681 22.2443   5
  12  16  -4 27.9936 19.3699   3
  16 -28  -4 39.4179 22.1012   4
 -12  28  -4 24.7998 17.8635   5
  28 -16  -4 24.1131 17.9607   3
 -12 -16   4 23.3905 19.1444   5
 -16 -12  -4 38.1288 18.5959   4
 -16  28   4 17.9793 15.7921   3
  28 -12   4 10.3662 18.5165   4
  15 -28   4 -9.8046 24.3521   4
 -28  15  -4 12.6273 18.5161   5
  15  13  -4 0.96659 16.8715   3
  13  15   4 -14.944 18.7154   3
  13 -28  -4 14.0708 18.5031   4
 -28  13   4 11.3484 20.0165   5
  28 -15   4 -9.4027 19.9330   4
 -13  28   4 2.51983 16.6341   3
 -15 -13   4 12.5098 19.5901   5
 -13 -15  -4 5.88769 17.7043   4
  28 -13  -4 -10.081 16.0306   3
 -15  28  -4 0.61724 15.7223   5
  10 -28  -4 20.0043 19.0673   4
 -28  18  -4 40.2968 20.4670   5
 -28  10   4 26.0606 21.1148   5
  18  10  -4 33.4374 17.4963   3
  10  18   4 24.7042 19.8421   3
  18 -28   4 41.1891 27.5577   4
 -10  28   4 4.03980 15.2577   3
 -18 -10   4 3.09602 18.3977   5
  28 -10  -4 23.3982 17.9805   3
 -18  28  -4 7.45483 16.9242   5
  28 -18   4 11.0266 19.5887   4
 -10 -18  -4 15.2097 20.4380   4
 -28  21  -4 38.0682 18.5034   5
  21   7  -4 71.3152 19.8315   3
  21 -28   4 7.93781 24.1856   4
   7 -28  -4 50.4749 18.7980   4
 -28   7   4 35.8720 22.3045   5
   7  21   4 14.2790 19.2096   3
  -7  28   4 39.7838 16.9282   3
 -21  -7   4 40.9232 20.5796   5
  28 -21   4 23.6546 22.5505   4
  28  -7  -4 70.5175 20.3512   3
  -7 -21  -4 63.7411 19.7163   4
 -21  28  -4 63.0723 19.2844   5
  11  18  -4 -2.2382 18.8661   3
  18  11   4 30.1935 22.7164   3
 -29  11  -4 4.26397 17.3041   5
 -29  18   4 52.8167 24.3066   5
  11 -29   4 -32.669 27.3550   4
  18 -29  -4 12.2448 21.5028   4
 -11  29  -4 17.3148 16.7365   5
 -18 -11  -4 21.1777 17.2830   4
  29 -18  -4 9.70069 17.5413   3
 -11 -18   4 17.6724 19.9623   5
 -18  29   4 9.76285 16.6950   3
  29 -11   4 15.8682 20.3111   4
 -29  15   4 68.2022 24.4595   5
  14 -29   4 39.2632 26.4753   4
  15 -29  -4 48.3209 21.8343   4
 -29  14  -4 73.2581 21.8904   5
  15  14   4 43.3223 20.5070   3
  14  15  -4 50.9493 20.0235   3
 -14  29  -4 54.9365 19.3629   5
 -14 -15   4 22.3769 19.4641   5
  29 -14   4 5.82276 19.2537   4
  29 -15  -4 25.3934 16.7426   3
 -15  29   4 37.1730 17.8302   3
 -15 -14  -4 30.0218 17.0536   4
  12  17   4 12.4475 18.4704   3
 -29  12   4 9.92404 19.6065   5
  17  12  -4 12.9658 17.0327   3
  12 -29  -4 26.0088 20.6403   4
 -29  17  -4 19.6472 18.6059   5
  17 -29   4 24.1180 26.8091   4
 -17  29  -4 27.9632 18.0785   5
  29 -12  -4 13.5118 17.3916   3
 -12  29   4 5.03158 15.9147   3
  29 -17   4 16.8285 21.7058   4
 -17 -12   4 11.4095 20.2368   5
 -12 -17  -4 18.0356 19.2223   4
   0  -1  -5 184.762 16.1323   3
   1   0  -5 162.425 17.2636   3
   1   0  -5 162.394 15.4862   4
  -1   1  -5 170.305 15.9355   3
   0   1   5 201.237 16.5451   2
   1  -1   5 162.313 14.8080   2
  -1   1  -5 176.591 15.9206   4
  -1   0   5 161.055 25.0239   2
   1  -1   5 147.263 22.7098   2
   0  -1  -5 181.685 16.5500   4
  -1   0   5 164.505 15.9056   2
  -1   1  -5 175.956 16.3916   5
   0  -1  -5 163.693 16.6175   5
   0   1   5 143.935 22.3923   2
   1   0  -5 178.647 16.5107   5
   0   2  -5 432.170 25.3969   3
  -2   0  -5 444.418 25.6670   4
   2   0   5 424.164 31.4498   2
   2  -2  -5 455.198 25.9410   3
   0  -2   5 461.129 25.5258   2
   0   2  -5 433.668 26.1346   5
   0  -2   5 431.296 31.9479   2
   2  -2  -5 430.405 25.2925   4
  -2   2   5 499.529 26.5653   2
   2   0   5 443.865 25.3607   2
   2  -2  -5 441.134 24.5679   5
  -2   0  -5 432.042 26.2471   5
  -2   2   5 443.870 33.8113   2
  -2   0  -5 454.523 24.4466   3
   0   2  -5 468.668 24.0628   4
   2   1  -5 120.807 14.7361   5
   1   2   5 89.3818 20.7327   2
   1  -3  -5 143.951 15.1238   5
  -3   2  -5 135.081 14.3141   3
   1  -3  -5 156.645 17.2033   4
   2   1  -5 140.167 13.4873   4
   2   1  -5 119.274 16.6911   3
   1   2   5 119.256 14.6219   2
  -3   1   5 119.846 24.4739   2
   2  -3   5 127.568 13.9089   2
  -3   2  -5 135.595 14.8064   4
   2  -3   5 103.232 21.1208   2
  -3   1   5 112.775 13.8603   2
   1  -3  -5 145.362 15.7095   3
  -3   2  -5 123.740 16.3219   5
   3  -2   5 124.868 20.8361   2
  -2   3  -5 154.200 15.2630   3
   3  -1  -5 136.607 15.9563   3
   3  -2   5 98.4771 13.0934   2
  -1  -2  -5 146.371 15.2255   5
  -1   3   5 100.960 23.3642   2
   3  -1  -5 142.360 13.9260   4
  -2  -1   5 123.617 14.5185   2
   3  -1  -5 134.022 14.6997   5
  -1  -2  -5 130.017 16.7840   4
  -1  -2  -5 121.331 14.5052   3
  -1   3   5 109.506 15.2582   2
  -2   3  -5 164.941 14.7449   4
  -2  -1   5 139.662 24.2902   2
  -2   3  -5 134.803 16.7415   5
   1   3  -5 578.894 30.6422   3
   3  -4  -5 584.565 28.5395   5
  -4   1  -5 565.157 29.5236   4
   3  -4  -5 590.417 30.2032   4
   3  -4  -5 555.626 29.7903   3
   1  -4   5 555.870 36.2740   2
  -4   3   5 547.737 38.3778   2
   3   1   5 537.296 35.0559   2
  -4   1  -5 598.064 31.2756   5
   3   1   5 580.289 30.1789   2
  -4   1  -5 593.461 28.4578   3
   1  -4   5 579.935 29.5081   2
  -4   3   5 548.534 30.4119   2
   1   3  -5 536.784 29.6961   5
   4  -3  -5 570.567 28.9201   5
  -3   4   5 603.410 31.5542   2
  -3  -1  -5 560.563 30.2316   4
   4  -1   5 576.506 29.4755   2
  -1  -3   5 538.012 37.4466   2
  -1   4  -5 557.611 29.8702   3
   4  -3  -5 557.201 30.6438   3
  -3   4   5 547.371 37.4438   2
  -1   4  -5 536.952 30.6962   5
  -3  -1  -5 562.873 28.3147   3
   4  -1   5 574.461 35.3740   2
  -3  -1  -5 578.529 30.3994   5
  -1  -3   5 508.607 29.0159   2
   4  -3  -5 563.883 29.7177   4
   4   0  -5 1772.26 76.2062   5
   0  -4  -5 1871.31 76.2533   3
  -4   4  -5 1725.33 77.7167   5
   4  -4   5 1709.66 82.0171   2
   4   0  -5 1714.48 77.7919   4
   4   0  -5 1784.26 77.0453   3
  -4   4  -5 1787.19 75.7261   3
  -4   0   5 1648.59 82.8403   2
   0  -4  -5 1879.45 76.3726   5
   0  -4  -5 1791.57 77.2476   4
   0   4   5 1762.28 82.8287   2
  -4   4  -5 1842.92 75.6292   4
   0   4   5 1717.33 78.1032   2
   0  -5   5 907.057 50.8607   2
   5  -5  -5 944.343 45.0034   4
  -5   0  -5 945.371 44.9800   4
   0   5  -5 927.741 45.1386   3
  -5   5   5 928.919 52.3410   2
   5   0   5 946.074 45.4322   2
   0   5  -5 988.859 45.7717   5
  -5   0  -5 1008.56 42.9732   3
   0  -5   5 982.904 43.3272   4
  -5   5   5 934.214 43.6090   5
  -5   0  -5 982.345 45.4085   5
  -5   5   5 911.450 46.0282   2
   5   0   5 994.073 50.2966   2
   5  -5  -5 906.494 44.6660   3
   3   2  -5 826.168 36.2675   4
  -5   3  -5 788.116 37.3711   4
  -5   3  -5 802.180 39.6930   5
   2  -5  -5 788.478 39.5578   4
  -5   2   5 814.452 47.2959   2
   3  -5   5 799.578 38.2977   2
   2   3   5 784.201 43.6651   2
   2  -5  -5 777.186 37.8940   3
  -5   3  -5 805.335 36.6827   3
   3   2  -5 755.411 37.6300   5
   3  -5   5 761.931 43.6354   2
   2   3   5 835.826 39.9751   2
   2  -5  -5 791.758 36.7714   5
   3   2  -5 757.339 39.0208   3
  -5   2   5 819.405 40.0084   2
  -3   5  -5 763.054 39.6795   5
   5  -3   5 846.304 44.9181   2
  -2   5   5 744.865 44.4651   2
   5  -2  -5 786.760 39.3254   3
   5  -3   5 789.250 38.2611   2
  -2  -3  -5 776.958 39.1777   4
   5  -2  -5 763.003 36.9290   4
  -2  -3  -5 794.769 36.8501   3
  -3  -2   5 782.448 46.7992   2
  -3   5  -5 770.549 37.6875   3
  -2  -3  -5 798.598 38.1570   5
  -2   5   5 764.292 39.5821   2
   2   4  -5 171.234 24.9749   2
  -6   2  -5 189.213 14.3264   3
  -6   4   5 172.906 24.7125   2
   2   4  -5 208.040 17.9383   5
   2  -6   5 159.592 15.7860   4
   4   2   5 185.300 22.8804   2
   4  -6  -5 185.979 17.8182   3
  -6   2  -5 208.546 17.6014   4
  -6   4   5 178.552 17.9674   2
   4   2   5 178.190 17.3408   2
  -6   4   5 164.034 16.7488   5
   2   4  -5 224.183 20.1152   3
   2  -6   5 157.657 22.6712   2
   4  -6  -5 203.467 19.6964   4
  -6   2  -5 206.767 20.0452   5
  -2  -4   5 150.991 23.6895   2
  -4  -2  -5 201.893 19.0226   4
  -2   6  -5 206.215 17.7984   3
  -4   6   5 151.595 18.2193   2
  -4  -2  -5 182.071 18.2600   5
  -4  -2  -5 204.853 15.4860   3
   6  -4  -5 195.143 19.5839   3
   6  -2   5 167.308 16.4059   2
   6  -2   5 199.770 22.7000   2
   6  -4  -5 216.454 17.3660   4
  -2   6  -5 184.821 18.6415   5
  -4   6   5 189.985 26.8092   2
   1  -6  -5 533.308 30.4771   4
   5   1  -5 522.317 30.1736   3
  -6   1   5 514.637 28.5374   2
  -6   5  -5 544.958 26.2815   3
   5  -6   5 506.917 32.5775   2
  -6   1   5 493.167 37.3839   2
   1  -6  -5 519.675 26.8227   3
   1  -6  -5 542.638 26.0738   5
   5   1  -5 538.031 25.4284   4
   1   5   5 488.549 34.6036   2
   5  -6   5 498.177 27.5893   4
   5  -6   5 523.893 27.5381   2
   1   5   5 529.113 30.4609   2
  -6   5  -5 556.084 30.7163   5
  -1   6   5 521.185 36.3103   2
  -1  -5  -5 530.839 27.2311   3
   6  -5   5 489.154 28.3885   2
  -1  -5  -5 495.975 29.6699   4
   6  -5   5 508.938 33.0349   2
  -1  -5  -5 520.923 27.0487   5
   6  -1  -5 514.269 29.0332   3
  -5  -1   5 484.565 37.7371   2
  -1   6   5 504.059 29.4897   2
   6  -1  -5 543.417 25.9676   4
  -5   6  -5 512.958 30.5465   5
  -5   6  -5 529.604 27.1233   3
  -7   6   5 131.723 16.1551   5
   1  -7   5 120.114 15.9248   4
  -7   1  -5 161.394 18.5149   5
  -7   6   5 155.324 23.9492   2
   1   6  -5 168.569 18.3152   3
   6   1   5 101.039 13.0073   3
   6   1   5 126.119 16.2473   2
   6  -7  -5 170.160 19.7969   4
   6  -7  -5 151.268 16.5104   3
   1   6  -5 174.627 24.6413   2
   1   6  -5 151.101 17.7423   5
  -7   6   5 129.826 16.0590   2
  -7   1  -5 157.970 17.0084   4
   1  -7   5 138.894 24.0373   2
   6   1   5 188.703 22.4062   2
   7  -6  -5 153.753 17.6999   3
  -1   7  -5 160.446 17.4895   3
  -1  -6   5 157.450 24.0148   2
  -6   7   5 140.019 25.5917   2
  -6  -1  -5 178.482 17.7853   4
  -1  -6   5 190.195 16.2795   4
  -1   7  -5 144.305 23.4242   2
  -6   7   5 129.140 15.3449   5
   7  -1   5 124.912 15.5430   2
   7  -6  -5 171.528 17.6314   4
  -1   7  -5 160.110 18.0818   5
  -6  -1  -5 141.995 18.3644   5
   7  -1   5 144.051 24.6745   2
  -6   7   5 121.237 17.4491   2
  -7   4  -5 1703.17 72.3636   5
   4  -7   5 1644.29 70.8017   2
   3   4   5 1613.06 72.8489   2
  -7   3   5 1578.11 72.2667   2
  -7   3   5 1552.80 78.6912   2
  -7   4  -5 1664.56 69.9869   4
  -7   3   5 1626.97 71.1881   5
   4  -7   5 1506.17 75.3161   2
   4   3  -5 1647.60 71.8522   3
   3  -7  -5 1588.89 69.8494   3
   4   3  -5 1591.66 77.3340   2
   3  -7  -5 1634.79 71.8098   4
   4   3  -5 1612.18 70.3049   5
   4  -7   5 1528.71 70.0423   4
  -7   4  -5 1671.17 68.7435   3
   3   4   5 1646.57 76.6478   2
  -3   7   5 1479.00 71.9460   2
  -4  -3   5 1649.70 78.4332   2
   7  -3  -5 1686.68 70.3892   4
   7  -4   5 1510.93 70.5620   2
   7  -4   5 1572.81 74.4101   2
  -3  -4  -5 1644.17 70.2571   5
  -4   7  -5 1621.61 71.7116   5
   7  -3  -5 1636.29 71.5091   3
  -4  -3   5 1678.32 68.5518   4
  -4   7  -5 1673.40 70.1064   3
   7  -7   5 1961.80 85.7578   4
   0  -7  -5 2015.05 85.1591   3
   0   7   5 1929.41 88.7200   2
   0  -7  -5 2011.10 87.6900   4
   7  -7   5 2002.81 89.9242   2
   7   0  -5 2048.50 87.3675   3
   7  -7   5 1998.61 85.9623   2
  -7   0   5 1991.86 86.7551   5
   0   7   5 1948.10 92.6210   2
  -7   7  -5 2000.84 87.5832   5
  -7   0   5 1896.96 93.4822   2
   0  -7  -5 2155.39 85.8841   5
  -7   7  -5 2080.17 88.9053   3
   8  -8  -5 147.694 18.5650   3
  -8   0  -5 157.174 19.9069   5
  -8   0  -5 153.321 17.6152   4
   0   8  -5 130.668 19.4781   3
   8  -8  -5 153.395 19.6773   4
  -8   8   5 147.590 16.4669   5
   0  -8   5 157.849 24.5300   2
   0   8  -5 158.043 24.2995   2
   8   0   5 103.940 12.7979   3
   0  -8   5 131.456 14.9342   4
   8   0   5 119.438 17.3008   2
  -8   8   5 142.929 18.5098   2
   8   0   5 122.941 20.7796   2
  -8   8   5 117.953 26.3623   2
   0   8  -5 136.464 17.7403   5
   5   3   5 334.303 19.8882   3
   5   3   5 323.430 23.5611   2
   3  -8   5 333.040 22.4300   4
   3  -8   5 320.519 28.4275   2
   5  -8  -5 351.479 22.7568   3
  -8   5   5 329.684 23.8857   2
  -8   5   5 311.139 22.7101   5
   3   5  -5 360.162 24.5591   3
   5  -8  -5 398.307 25.6166   4
   3   5  -5 343.533 31.1690   2
  -8   3  -5 328.014 24.5538   5
  -8   5   5 322.307 32.5900   2
  -8   3  -5 343.494 21.9043   4
   3   5  -5 342.730 22.3074   5
   5   3   5 331.568 27.8730   2
  -5   8   5 281.619 29.4439   2
   8  -3   5 326.071 27.2136   2
  -5  -3  -5 367.488 24.7332   4
   8  -5  -5 355.155 22.5977   4
  -3  -5   5 340.412 31.2052   2
  -5  -3  -5 369.826 22.9604   5
  -3   8  -5 363.479 24.1889   5
  -5   8   5 372.314 21.1730   5
   8  -5  -5 338.897 23.3929   3
  -3  -5   5 364.087 20.8290   4
   8  -3   5 319.900 21.5791   2
  -5   8   5 319.448 23.7872   2
  -3   8  -5 345.649 23.3137   3
  -8   2   5 445.077 26.2767   2
  -8   2   5 416.347 26.0399   5
   6   2  -5 471.500 26.8620   3
   2   6   5 410.885 32.0202   2
   2   6   5 401.570 26.9833   2
  -8   6  -5 457.119 28.4564   5
   6   2  -5 415.918 32.2162   2
   6  -8   5 387.902 29.5831   2
  -8   6  -5 451.351 22.0793   3
   6  -8   5 405.131 25.1011   4
  -8   2   5 402.321 35.0042   2
   2  -8  -5 420.284 24.6027   3
   2  -8  -5 442.078 28.0708   4
  -2  -6  -5 411.616 23.0417   5
  -2  -6  -5 445.075 28.3552   4
  -6   8  -5 447.148 28.2567   5
   8  -2  -5 442.440 27.8188   3
  -2   8   5 410.318 27.8824   2
   8  -6   5 400.573 23.4179   2
  -6  -2   5 404.554 34.2015   2
   8  -6   5 457.661 31.6628   2
  -2   8   5 389.641 33.0389   2
  -6   8  -5 442.655 23.6349   3
   2  -9   5 170.054 20.5880   4
   2   7  -5 223.175 20.9176   3
  -9   7   5 192.233 18.5621   5
   2  -9   5 157.202 25.4038   2
   7   2   5 170.766 23.5439   2
   7  -9  -5 227.002 18.2348   3
   7   2   5 184.827 15.1428   3
   7   2   5 215.428 20.1235   2
  -9   2  -5 213.547 20.7656   5
   7  -9  -5 238.378 22.0282   4
  -9   7   5 143.078 25.3277   2
   2   7  -5 238.976 18.4644   5
  -9   2  -5 226.921 18.7759   4
   2   7  -5 232.041 26.5046   2
   9  -2   5 160.000 13.4020   3
   9  -7  -5 219.634 20.5404   3
   9  -2   5 189.958 22.5852   2
  -2   9  -5 214.473 19.3378   3
   9  -7  -5 224.618 20.3204   4
  -2   9  -5 228.155 26.0460   2
  -7   9   5 150.564 18.3960   2
  -2  -7   5 147.832 24.8619   2
  -2  -7   5 124.932 19.2215   4
  -7  -2  -5 210.791 20.0223   4
  -2   9  -5 232.057 20.7037   5
  -7   9   5 132.827 26.9847   2
   9  -2   5 172.721 18.2671   2
  -7   9   5 174.784 17.0400   5
  -7  -2  -5 213.025 19.6208   5
  -9   5  -5 366.838 26.3697   5
   5   4  -5 359.906 30.5201   2
   5   4  -5 403.934 25.6509   3
   4  -9  -5 390.025 22.4953   3
   4  -9  -5 356.007 26.1739   4
   5  -9   5 355.911 23.8688   4
   5  -9   5 279.914 27.9205   2
   4   5   5 322.717 20.8479   3
  -9   4   5 343.210 31.1729   2
   4   5   5 376.279 25.7450   2
  -9   4   5 366.077 24.0062   5
  -9   4   5 319.924 22.9391   2
   9  -5   5 326.341 25.3570   2
  -4  -5  -5 368.121 22.5065   5
  -4  -5  -5 346.277 25.9216   4
   9  -4  -5 393.577 22.3143   4
  -4   9   5 322.582 31.4182   2
   9  -5   5 326.146 21.0897   2
  -5   9  -5 375.008 22.2148   3
  -5   9  -5 360.213 25.4040   5
  -5  -4   5 317.006 32.0889   2
  -4   9   5 366.545 21.0553   5
  -4   9   5 328.832 25.2476   2
   9  -4  -5 373.129 24.1380   3
   1   8   5 332.997 20.2910   3
   8   1  -5 285.979 23.2580   3
  -9   1   5 301.363 22.8966   5
   8   1  -5 251.211 28.6005   2
   8  -9   5 325.145 28.7447   2
   1   8   5 310.139 24.6403   2
   8  -9   5 299.367 19.2328   2
   1  -9  -5 317.532 25.0910   4
  -9   8  -5 317.736 23.9082   5
  -9   1   5 278.432 30.2703   2
   8  -9   5 335.050 23.3679   4
  -1   9   5 321.686 24.6582   2
   9  -8   5 296.738 22.5861   4
  -8  -1   5 274.246 31.5329   2
  -8  -1   5 337.528 23.7829   5
  -1  -8  -5 361.828 26.0565   4
   9  -8   5 293.761 23.4299   2
  -1  -8  -5 356.487 20.0273   5
   9  -8   5 303.494 18.8669   2
  -8   9  -5 318.355 23.7410   5
   9  -1  -5 306.675 24.9102   3
   9 -10  -5 50.4207 13.9126   4
 -10   1  -5 33.8815 14.6157   4
   1   9  -5 32.4250 18.7448   2
   1   9  -5 38.3717 17.6163   5
   9   1   5 53.9885 13.3535   2
   9   1   5 44.5888 15.2364   2
   1   9  -5 39.6679 14.6316   3
   9   1   5 88.0317 13.0461   3
 -10   9   5 53.0093 12.4762   5
   1 -10   5 44.2879 17.6007   2
   1 -10   5 43.5231 13.8277   4
 -10   1  -5 47.8807 14.3593   5
  -1  10  -5 31.3974 13.7686   3
  10  -1   5 54.3142 9.52870   3
  10  -9  -5 47.2191 13.8132   4
  -1  -9   5 57.5300 18.8076   2
  10  -1   5 51.7186 15.2411   2
  -9  -1  -5 37.5857 13.1919   5
  -1  10  -5 50.5167 18.1289   2
  10  -1   5 46.6005 15.3733   2
  10  -9  -5 45.3662 17.7031   3
  -9  10   5 52.8704 12.5981   5
  -1  10  -5 38.7693 18.7585   5
   4   6  -5 374.002 25.6642   3
   4 -10   5 272.343 27.8260   2
   4   6  -5 341.769 31.3820   2
   4   6  -5 348.317 21.0195   5
   6 -10  -5 362.686 22.6077   3
 -10   6   5 297.186 22.6425   5
   6   4   5 301.544 24.1513   2
 -10   4  -5 348.725 21.8157   4
 -10   4  -5 344.832 25.2060   5
   6   4   5 264.293 19.3097   3
 -10   6   5 236.010 32.0287   2
   4 -10   5 263.174 24.7706   4
   6 -10  -5 370.881 26.7138   4
  -6  10   5 278.673 30.9531   2
  -6  -4  -5 336.758 24.7759   4
  -6  10   5 255.841 25.5823   5
  -4  -6   5 269.996 30.8565   2
  10  -4   5 263.096 24.5783   2
  10  -4   5 276.394 21.0016   2
  -4  10  -5 386.445 22.4738   3
  -4  10  -5 323.597 24.2113   5
  10  -6  -5 367.759 24.9501   3
  -6  -4  -5 371.718 22.9078   5
  -4  10  -5 340.239 28.5493   2
  10  -6  -5 366.143 21.6504   4
   7 -10   5 623.192 38.8678   2
 -10   3   5 582.377 44.2152   2
   7 -10   5 648.006 33.4605   2
   3 -10  -5 764.473 38.1689   4
   7 -10   5 690.477 35.7215   4
   3   7   5 664.616 37.8330   2
 -10   7  -5 716.713 37.8428   5
   3 -10  -5 743.241 33.7943   3
   3   7   5 674.740 33.2470   3
 -10   3   5 671.991 35.5164   5
   7   3  -5 738.637 36.9597   3
   7   3  -5 650.875 42.2014   2
  -3  10   5 643.378 37.6142   2
  -7  10  -5 708.373 36.1175   5
  -7  -3   5 584.700 43.8005   2
  -3  -7  -5 788.258 37.6408   4
  -3  10   5 566.808 40.4186   2
  10  -3  -5 722.793 36.6617   3
  10  -7   5 628.601 34.2382   4
  10  -7   5 643.224 32.4043   2
  -7  -3   5 658.039 35.4637   5
  10  -7   5 634.725 35.9728   2
   0 -10  -5 311.326 26.1257   4
 -10   0   5 263.734 23.1529   5
   0  10   5 257.885 19.7294   3
  10 -10   5 267.216 19.6119   2
   0  10   5 254.878 24.6002   2
  10 -10   5 282.374 22.8920   4
  10   0  -5 301.595 25.6426   3
 -10  10  -5 269.142 25.4778   5
  11 -11  -5 517.430 32.1963   3
 -11   0  -5 634.392 33.6916   4
  11   0   5 678.874 37.1089   2
  11   0   5 675.072 44.1228   2
 -11  11   5 687.678 35.4069   5
   0  11  -5 576.636 41.7318   2
  11 -11  -5 623.832 37.1169   4
   0  11  -5 563.581 32.8293   5
   0  11  -5 610.761 35.2600   3
 -11   0  -5 656.269 35.4613   5
   3   8  -5 64.0883 12.9858   5
   3 -11   5 58.2697 14.4745   4
   8   3   5 105.455 18.3001   2
   3   8  -5 60.8137 14.9675   3
   3 -11   5 106.278 23.3509   2
   8   3   5 99.8683 14.1166   3
 -11   3  -5 77.4975 16.0007   5
 -11   8   5 99.5200 17.5483   5
   3   8  -5 57.1629 19.7183   2
   8 -11  -5 48.5961 12.4007   3
   8 -11  -5 68.2805 15.8951   4
  -3  -8   5 77.5799 21.0169   2
  11  -8  -5 40.3157 13.8459   3
  -8  -3  -5 63.2365 14.6314   5
  -3  11  -5 62.2003 17.6066   2
  -3  11  -5 48.6444 13.7317   5
  -8  -3  -5 71.0833 17.9879   4
  -3  11  -5 68.5910 14.2475   3
  -8  11   5 79.4449 12.5579   5
  11  -3   5 68.2737 15.5966   2
  11  -3   5 120.697 20.1778   2
  11  -8  -5 76.7949 13.2829   4
   5   6   5 36.5792 13.1049   2
   6 -11   5 23.4297 13.8203   2
 -11   5   5 21.3048 12.8417   5
   6   5  -5 50.3811 15.3916   3
   6   5  -5 34.6729 19.0307   2
 -11   6  -5 35.6556 13.9489   5
   5   6   5 22.0392 9.59383   3
   5 -11  -5 39.2693 14.3749   4
   5 -11  -5 27.7374 11.5661   3
   6 -11   5 8.43319 13.7552   4
  -6  -5   5 16.8489 16.6646   2
  11  -6   5 23.0917 10.5717   2
  -5  -6  -5 29.0927 9.19715   2
  -6  11  -5 49.3526 11.4897   3
  -5  11   5 20.6709 17.0725   2
  -5  -6  -5 37.9060 11.3564   5
  -6  11  -5 47.7656 21.9318   5
  -5  -6  -5 47.0034 19.1691   4
  11  -6   5 23.3247 8.34009   2
   9 -11   5 2.18533 11.1092   2
   2   9   5 1.36125 9.76291   3
   9   2  -5 -3.0179 15.0214   3
   2 -11  -5 35.9577 14.7635   4
   9 -11   5 10.2341 13.0483   4
   2   9   5 -4.0227 12.2091   2
   9 -11   5 9.30920 7.50030   2
 -11   2   5 0.99104 12.8597   5
  11  -9   5 1.58757 11.7294   4
  11  -2  -5 10.0156 14.1119   3
  -9  11  -5 14.5459 13.4824   5
  -2  -9  -5 15.6705 20.2760   4
  -2  -9  -5 3.96244 9.09507   2
  -2  11   5 10.6063 11.0494   3
  10 -12  -5 151.287 17.6367   3
   2  10  -5 139.418 17.3073   5
   2 -12   5 193.364 24.2439   4
   2 -12   5 208.377 25.8366   2
  10 -12  -5 156.626 24.2678   4
 -12   2  -5 153.538 18.2258   4
   2  10  -5 137.984 21.0775   3
 -12   2  -5 173.751 21.7967   5
   2  10  -5 173.031 28.7409   2
  12 -10  -5 139.507 19.2151   3
  12 -10  -5 142.444 21.4746   4
  -2  12  -5 148.635 18.2425   5
 -10  12   5 262.279 29.5766   5
 -10  -2  -5 159.584 19.9773   4
  -2  12  -5 177.055 20.8244   3
 -10  -2  -5 161.316 20.3744   5
  -2  12  -5 116.322 26.5856   2
   7   5   5 234.581 18.3173   3
   5 -12   5 234.062 25.0769   4
   5   7  -5 205.890 21.7736   3
   7   5   5 256.750 23.4457   2
 -12   7   5 242.793 21.8756   5
 -12   5  -5 202.970 22.7779   5
   5 -12   5 269.639 27.0270   2
   7 -12  -5 194.103 18.9807   3
   7 -12  -5 204.784 25.0362   4
  -7  -5  -5 213.487 17.6979   2
  -5  12  -5 196.528 19.3983   3
  -7  -5  -5 221.785 20.0303   5
  12  -7  -5 153.724 21.6245   3
  -5  12  -5 217.152 21.6807   5
  -7  -5  -5 204.020 21.6802   4
  -5  -7   5 185.328 29.1070   2
  -5  12  -5 186.014 26.1905   2
   8   4  -5 350.438 29.7326   3
   8 -12   5 473.376 24.8021   2
 -12   4   5 492.005 29.7584   5
   4 -12  -5 437.118 30.3313   4
   8 -12   5 437.339 31.0591   2
   4   8   5 456.074 25.6349   3
   8 -12   5 480.098 31.5542   4
  -8  12  -5 416.830 27.9964   5
  -8  -4   5 490.494 29.2201   5
  12  -4  -5 416.144 28.5696   3
  -4  -8  -5 435.842 29.8566   4
   1  11   5 78.3014 17.0305   3
 -12   1   5 52.0790 14.5976   5
   1 -12  -5 47.4198 14.5590   4
 -12  11  -5 62.8458 16.3223   5
  11   1  -5 58.4504 15.5158   3
  11 -12   5 113.232 17.9883   4
  12 -11   5 71.5812 15.3055   4
  12  -1  -5 42.3619 14.5540   3
  -1  12   5 71.4782 12.4211   3
  -1 -11  -5 48.9205 14.0353   4
 -11  -1   5 99.7288 16.3479   5
 -11  12  -5 89.0154 17.6397   5
 -13  12   5 137.131 23.0580   5
   1 -13   5 145.371 26.6229   2
 -13   1  -5 123.988 22.2692   5
   1  12  -5 142.091 21.6260   3
  12 -13  -5 140.168 24.7709   4
 -13   1  -5 120.067 17.9185   4
  12 -13  -5 128.738 18.7536   3
   1  12  -5 125.828 16.0355   5
  13 -12  -5 123.876 16.8094   3
  13 -12  -5 153.227 26.1628   4
 -12  -1  -5 121.098 21.9543   5
  -1  13  -5 133.635 18.5200   5
 -12  -1  -5 122.500 17.4908   4
  -1  13  -5 124.046 20.3164   3
  -1 -12   5 120.081 25.5486   2
  -1  13  -5 175.061 28.5943   2
 -13   9   5 22.5210 14.2772   5
   9 -13  -5 6.41012 14.3955   4
   4   9  -5 1.34744 10.6708   5
   9   4   5 28.4885 14.1666   2
   9 -13  -5 -0.2491 10.0526   3
 -13   4  -5 6.53289 10.4975   4
 -13   4  -5 18.7540 14.2812   5
   4 -13   5 -13.660 14.6862   4
   4   9  -5 -0.4659 14.3276   3
   4 -13   5 21.0722 15.4887   2
   9   4   5 20.0811 11.0840   3
  -4  13  -5 8.49693 13.7001   5
  -4  13  -5 10.0045 12.8759   3
  -9  -4  -5 -7.9494 11.4100   5
  -4  -9   5 10.9177 19.6602   2
  -9  -4  -5 4.32615 12.4586   4
  -4  13  -5 14.4835 17.3628   2
  -9  -4  -5 -0.8750 8.12174   2
  13  -9  -5 -1.0783 12.6840   3
 -13   7  -5 376.362 28.2049   5
   6 -13  -5 394.980 29.7759   4
   7 -13   5 369.891 30.9125   4
   6   7   5 369.547 24.5275   3
   7   6  -5 368.384 28.8499   3
   7 -13   5 420.600 31.6340   2
 -13   6   5 433.351 27.8341   5
  -7  13  -5 390.801 31.2059   2
  13  -6  -5 362.407 26.8311   3
  -6  -7  -5 401.482 28.1235   4
  -7  -6   5 376.335 25.1586   5
  13  -7   5 392.779 25.4752   4
  -6  -7  -5 390.345 25.4514   2
  -7  13  -5 344.298 26.7289   5
  10   3  -5 287.824 25.2075   3
  10 -13   5 250.149 27.2803   4
   3 -13  -5 255.031 26.2764   4
 -13   3   5 259.118 25.6291   5
   3  10   5 271.500 20.8938   3
 -13  10  -5 244.380 24.9247   5
  13 -10   5 270.194 23.3270   4
  -3 -10  -5 243.212 24.7113   4
  -3  13   5 274.127 20.5994   3
  -3 -10  -5 315.577 25.8257   2
  13  -3  -5 233.097 24.1638   3
 -10  13  -5 236.702 23.9233   5
 -10  -3   5 240.058 23.2247   5
   0 -13  -5 215.918 24.3227   4
 -13  13  -5 194.510 23.5089   5
  13 -13   5 212.219 25.8806   4
   0  13   5 213.095 18.1690   3
  13   0  -5 222.562 23.4576   3
 -13   0   5 236.356 23.6744   5
 -14   0  -5 720.689 36.8356   4
 -14   0  -5 703.769 41.1160   5
   0  14  -5 725.690 36.9063   5
  14 -14  -5 685.054 36.4210   3
  14 -14  -5 724.068 43.1566   4
 -14   3  -5 191.042 19.2914   4
  11 -14  -5 212.987 18.1827   3
   3 -14   5 214.758 28.5764   2
   3  11  -5 198.733 23.5197   3
   3  11  -5 193.141 19.2355   5
 -14  11   5 241.167 25.8988   5
  11 -14  -5 236.620 27.6672   4
   3 -14   5 230.482 27.3719   4
  -3  14  -5 181.631 30.2203   2
  -3  14  -5 206.019 23.3221   3
 -11  -3  -5 166.990 17.1276   2
  14 -11  -5 165.713 20.4534   3
  14 -11  -5 220.037 24.7243   4
  -3  14  -5 174.349 20.7891   5
 -11  -3  -5 204.987 23.0439   5
 -11  -3  -5 201.437 22.2727   4
   8 -14  -5 22.2878 10.6953   3
 -14   8   5 21.4736 14.7603   5
   8   6   5 20.0175 11.8022   3
   8   6   5 18.9499 14.9296   2
   6   8  -5 8.62693 14.7521   3
   6 -14   5 26.8047 15.2218   2
 -14   6  -5 16.3594 14.5846   5
   6 -14   5 17.3994 16.1202   4
  -6  14  -5 13.3376 16.0175   2
  -8  -6  -5 24.2835 16.6892   5
  -6  14  -5 31.9863 12.9830   3
  14  -8  -5 13.7715 14.7866   3
  -8  -6  -5 12.2907 11.9410   4
  -6  14  -5 16.5896 14.9373   5
  -8  -6  -5 13.1169 10.1551   2
  14  -6   5 12.4031 11.7120   4
  -6  -8   5 -0.1472 11.5515   5
 -14   9  -5 71.9986 16.6084   5
   9   5  -5 65.6739 16.4436   3
   5   9   5 68.4932 13.0074   3
   5 -14  -5 54.4182 15.6008   4
   9 -14   5 45.0308 16.2669   4
  14  -9   5 39.8003 12.6122   4
  -9  -5   5 56.4047 15.4483   5
  -5  -9  -5 64.9867 14.3044   4
  -5  -9  -5 74.5105 16.0991   2
  -5  14   5 59.2947 11.6449   3
  -9  14  -5 101.949 17.8607   5
  14  -5  -5 71.4837 16.0692   3
 -14  12  -5 226.452 22.3605   5
 -14   2   5 215.089 23.5605   5
   2 -14  -5 257.636 26.3251   4
   2  12   5 230.261 20.4625   3
  12 -14   5 210.643 27.6356   4
  12   2  -5 245.241 24.7574   3
 -12  14  -5 208.823 23.2747   5
 -12  -2   5 197.923 22.6407   5
  -2  14   5 223.714 18.8225   3
  14 -12   5 235.970 25.0077   4
  14  -2  -5 210.836 22.5105   3
  -2 -12  -5 238.436 24.7226   4
 -15   2  -5 117.971 19.6209   5
 -15   2  -5 113.544 18.4124   4
   2  13  -5 112.219 18.6971   3
   2 -15   5 85.7289 21.2669   2
   2  13  -5 72.9260 13.9229   5
 -15  13   5 66.7390 18.8426   5
  13 -15  -5 132.432 27.5780   4
  13 -15  -5 104.507 15.5419   3
  15 -13  -5 111.193 16.6689   3
  -2  15  -5 73.3799 15.0163   5
 -13  -2  -5 114.576 16.7616   4
  -2  15  -5 80.2882 23.3990   2
  -2  15  -5 109.458 19.0885   3
  15 -13  -5 132.963 21.1798   4
 -13  -2  -5 137.048 22.5160   5
 -15  10   5 53.7972 17.4963   5
  10   5   5 38.1359 13.7300   3
  10   5   5 75.5254 19.0068   2
  10 -15  -5 67.0091 18.5190   4
  10 -15  -5 41.5442 11.9662   3
   5 -15   5 41.7615 17.7455   4
 -15   5  -5 56.6006 17.3188   5
   5 -15   5 61.5498 17.5859   2
   5  10  -5 32.0208 16.6198   3
  -5  15  -5 54.2926 15.4747   5
 -10  -5  -5 45.1299 14.4853   5
 -10  -5  -5 51.6207 14.5174   4
  -5  15  -5 52.9895 14.9746   3
 -10  -5  -5 49.8904 11.6632   2
  -5  15  -5 36.6226 19.5024   2
  15 -10  -5 29.1992 13.7093   3
 -15   8  -5 231.843 24.3240   5
   8 -15   5 210.321 27.0035   4
 -15   7   5 212.893 31.2184   5
   7   8   5 211.114 21.1778   3
   7   8   5 231.929 27.8873   2
   7 -15  -5 215.970 26.0690   4
   8   7  -5 219.947 22.3614   3
  15  -7  -5 189.797 22.4135   3
  -7  -8  -5 179.879 23.5380   4
  -7  15   5 230.229 18.6457   3
  -8  15  -5 217.436 22.9786   5
  -8  -7   5 200.406 21.9072   5
  15  -8   5 222.106 22.2267   4
  -7  -8  -5 219.293 21.8654   2
  11   4  -5 57.1425 15.9012   3
   4  11   5 82.8276 14.8713   3
   4 -15  -5 63.0905 16.0341   4
 -15   4   5 68.2176 18.1100   5
 -15  11  -5 94.0862 17.1507   5
  11 -15   5 100.925 19.6701   4
 -11  15  -5 71.0602 15.9212   5
  -4  15   5 73.7189 13.4248   3
  -4 -11  -5 93.5047 17.1333   4
 -11  -4   5 89.8817 17.1229   5
  15 -11   5 73.8170 15.6226   4
  15  -4  -5 127.405 21.2926   3
   1  14   5 87.4284 14.3413   3
 -15  14  -5 73.0993 16.5723   5
  14   1  -5 75.6063 15.9487   3
 -15   1   5 75.9026 17.9043   5
  14 -15   5 102.482 20.7490   4
   1 -15  -5 85.2669 17.8922   4
  15  -1  -5 69.7342 16.9461   3
 -14  15  -5 88.9380 18.5861   5
 -14  -1   5 73.4157 17.0123   5
  -1 -14  -5 47.5749 15.7378   4
  15 -14   5 76.7531 17.5878   4
  -1  15   5 59.8314 13.1052   3
 -16   1  -5 189.331 19.0282   4
  15 -16  -5 209.919 28.2890   4
  15 -16  -5 176.246 20.2475   3
   1  15  -5 202.482 25.2740   3
 -16   1  -5 196.763 25.4817   5
   1  15  -5 192.277 20.3238   5
  16 -15  -5 216.260 29.2987   4
 -15  -1  -5 172.671 21.1481   4
  16 -15  -5 171.611 19.6891   3
  -1  16  -5 196.435 20.2138   5
  -1  16  -5 194.116 26.7740   3
 -15  -1  -5 179.874 28.2715   5
   4  12  -5 203.311 24.6386   3
   4 -16   5 240.390 29.9288   4
   4 -16   5 248.708 30.0428   2
  12 -16  -5 192.940 29.2219   4
 -16   4  -5 185.142 25.7915   5
  12 -16  -5 199.139 18.8019   3
 -16  12   5 220.028 27.0832   5
  -4  16  -5 212.973 24.4265   3
  -4  16  -5 266.702 32.9263   2
  16 -12  -5 211.056 22.0782   3
 -12  -4  -5 197.051 23.0923   4
  -4  16  -5 209.997 21.8560   5
 -12  -4  -5 229.742 24.2050   5
 -16   9   5 117.256 22.8338   5
   7   9  -5 103.671 17.7237   3
   9   7   5 135.558 20.1141   3
 -16   7  -5 128.232 22.4950   5
   9 -16  -5 94.0490 18.8002   4
   7 -16   5 118.654 20.7127   4
  16  -9  -5 119.326 17.8501   3
  16  -7   5 100.664 14.6022   4
  -7  -9   5 128.505 20.0825   5
  -7  16  -5 101.220 16.9552   5
  -9  -7  -5 134.768 21.5095   4
 -16  10  -5 40.3405 15.8048   5
  10 -16   5 55.1227 19.9394   4
  10   6  -5 51.7204 15.7269   3
   6  10   5 49.9033 13.7191   3
   6 -16  -5 48.7153 16.0821   4
 -16   6   5 45.2293 16.7237   5
  16  -6  -5 41.7057 15.6094   3
 -10  16  -5 31.5344 14.7238   5
  -6  16   5 53.0191 12.7403   3
  -6 -10  -5 47.1854 15.3740   4
  16 -10   5 36.6644 12.8951   4
 -10  -6   5 51.0546 15.8521   5
 -16  13  -5 20.1120 15.7014   5
  13   3  -5 25.6537 16.3046   3
 -16   3   5 9.17739 14.3867   5
   3 -16  -5 13.5710 14.3804   4
  13 -16   5 8.00371 17.9279   4
   3  13   5 12.6404 12.1682   3
  16  -3  -5 32.5081 16.5174   3
  16 -13   5 6.15869 15.2839   4
 -13  -3   5 20.6161 15.3290   5
  -3 -13  -5 37.5607 15.1938   4
  -3  16   5 18.2428 12.0166   3
 -13  16  -5 12.2019 14.6465   5
  16 -16   5 333.744 31.9574   4
  16   0  -5 312.103 27.8974   3
   0 -16  -5 326.484 29.0873   4
   0  16   5 374.352 25.8865   3
 -16  16  -5 314.899 28.3108   5
 -16   0   5 340.855 29.1479   5
   0  17  -5 514.944 30.7775   5
   0  17  -5 548.994 36.5494   3
 -17   0  -5 498.710 30.3673   4
  17 -17  -5 491.069 30.5804   3
 -17   0  -5 504.708 36.0157   5
  17 -17  -5 538.438 39.6599   4
   3  14  -5 381.644 31.4503   3
  14 -17  -5 397.890 32.4643   4
  14 -17  -5 392.339 26.1584   3
 -17  14   5 413.437 33.2370   5
 -17   3  -5 377.115 30.9867   5
  17 -14  -5 347.383 25.7815   3
 -14  -3  -5 392.491 27.7744   4
 -14  -3  -5 376.966 30.8651   5
  17 -14  -5 415.961 33.3970   4
  -3  17  -5 368.082 26.5638   5
  11   6   5 77.9862 21.9552   2
   6  11  -5 87.1311 18.8020   3
 -17   6  -5 56.7677 18.1764   5
  11   6   5 107.319 17.1620   3
 -17  11   5 59.9698 22.0163   5
   6 -17   5 77.6929 20.9556   4
  11 -17  -5 89.6945 20.6431   4
  17  -6   5 76.8733 14.3083   4
  -6  17  -5 52.1950 14.4910   5
  17 -11  -5 66.2784 15.9594   3
  -6 -11   5 80.1930 16.5577   5
 -11  -6  -5 102.610 16.7659   4
   9 -17   5 8.49441 20.6444   4
   9   8  -5 15.0007 15.5965   3
 -17   8   5 43.0667 18.3990   5
 -17   9  -5 21.7375 16.1070   5
   8   9   5 27.4777 13.5454   3
   8 -17  -5 30.2050 16.6095   4
  17  -8  -5 9.06623 14.0396   3
  17  -9   5 40.0166 13.3561   4
  -9  -8   5 52.9043 16.0865   5
  -8  17   5 44.2700 12.6390   3
  -8  -9  -5 38.3787 14.3419   4
  -9  17  -5 42.1113 15.2163   5
 -17  12  -5 250.052 25.6889   5
   5 -17  -5 251.866 26.2146   4
   5  12   5 269.689 22.7819   3
 -17   5   5 226.715 27.1075   5
  12 -17   5 246.402 30.2970   4
  12   5  -5 240.304 26.2653   3
 -12  -5   5 228.543 24.4794   5
  -5 -12  -5 273.979 25.9218   4
  17  -5  -5 262.069 25.5553   3
  17 -12   5 222.327 24.2705   4
  -5  17   5 263.822 21.9203   3
 -12  17  -5 265.033 23.1627   5
 -17   2   5 79.8701 19.2936   5
  15 -17   5 71.5691 20.7952   4
  15   2  -5 46.9851 15.6458   3
 -17  15  -5 53.0597 16.7613   5
   2  15   5 72.8352 16.0069   3
   2 -17  -5 92.3469 18.8995   4
 -15  -2   5 74.4983 17.4460   5
  -2  17   5 51.7521 14.1589   3
 -15  17  -5 76.5579 17.8992   5
  -2 -15  -5 82.0199 17.5995   4
  17  -2  -5 47.7205 15.6097   3
  17 -15   5 91.2996 19.8254   4
 -18   2  -5 67.9811 14.1426   4
   2  16  -5 83.8595 19.6523   3
 -18   2  -5 100.225 19.9850   5
  16 -18  -5 65.7846 15.6668   3
  16 -18  -5 63.8191 20.9399   4
  -2  18  -5 111.318 20.1693   3
  18 -16  -5 97.3579 17.1886   3
 -16  -2  -5 101.120 20.2600   5
  18 -16  -5 97.6409 21.5800   4
  -2  18  -5 86.8785 16.2709   5
 -16  -2  -5 69.2410 15.5549   4
  13 -18  -5 64.8654 19.8201   4
 -18   5  -5 106.577 21.7511   5
   5 -18   5 121.199 23.3204   4
   5  13  -5 123.359 20.9155   3
 -18  13   5 82.5540 27.8714   5
  -5 -13   5 144.192 19.8258   5
  -5  18  -5 138.233 20.8464   3
  18 -13  -5 129.861 20.7259   3
  18  -5   5 99.0489 15.1963   4
  -5  18  -5 132.992 19.3429   5
 -13  -5  -5 139.374 18.1729   4
   8  10  -5 247.589 26.2282   3
   8 -18   5 187.681 35.9738   4
  10   8   5 235.839 24.6624   3
  10 -18  -5 258.148 30.0588   4
 -18  10   5 207.938 29.1121   5
 -18   8  -5 232.610 26.2703   5
 -10  -8  -5 208.722 23.6394   4
  18 -10  -5 215.929 23.9840   3
  -8 -10   5 222.064 23.3337   5
 -10  18   5 235.327 20.3340   3
  18  -8   5 264.405 22.9965   4
  -8  18  -5 252.185 23.2888   5
 -18   7   5 401.330 33.2675   5
   7  11   5 414.573 29.1588   3
   7 -18  -5 426.668 34.0227   4
 -18  11  -5 424.031 31.0056   5
  11   7  -5 431.014 31.7887   3
  11 -18   5 448.826 38.1854   4
 -11  -7   5 397.111 29.5602   5
  -7 -11  -5 418.180 30.4271   4
  18 -11   5 432.691 30.1072   4
  -7  18   5 436.092 26.9923   3
  18  -7  -5 427.059 30.0582   3
 -11  18  -5 437.464 28.7329   5
  14 -18   5 369.153 34.1071   4
 -18  14  -5 357.665 27.5545   5
   4  14   5 307.993 25.3211   3
 -18   4   5 305.341 30.5023   5
   4 -18  -5 304.564 30.1508   4
  14   4  -5 358.815 28.8401   3
  18 -14   5 317.570 29.0274   4
 -14  -4   5 304.041 27.5302   5
  -4  18   5 333.069 24.2859   3
  -4 -14  -5 321.483 28.3635   4
 -14  18  -5 324.138 27.8566   5
  18  -4  -5 318.684 26.0377   3
  17   1  -5 204.753 25.1671   3
 -18   1   5 186.919 26.6236   5
   1  17   5 187.584 22.3385   3
   1 -18  -5 232.812 25.7049   4
 -18  17  -5 186.762 24.8787   5
  17 -18   5 179.328 30.5125   4
  -1  18   5 191.566 22.3260   3
 -17  -1   5 194.331 25.3425   5
  18 -17   5 200.655 28.9252   4
  -1 -17  -5 225.768 27.2395   4
 -17  18  -5 210.254 24.8221   5
  18  -1  -5 166.476 21.9615   3
   1  18  -5 61.6962 18.5290   3
  18 -19  -5 47.9271 15.1006   3
 -19   1  -5 61.9813 19.5661   5
 -19   1  -5 46.5211 15.1560   4
  18 -19  -5 62.0817 21.6132   4
  -1  19  -5 31.4300 18.2756   3
  19 -18  -5 30.8088 13.9529   3
  -1  19  -5 42.7096 13.8775   5
  19 -18  -5 42.0272 22.2936   4
 -18  -1  -5 55.8435 18.4493   5
 -18  -1  -5 42.4386 13.6787   4
 -19   4  -5 154.847 25.9524   5
  15 -19  -5 184.808 29.8818   4
   4  15  -5 153.117 25.7380   3
  -4 -15   5 124.906 20.3524   5
  -4  19  -5 143.725 20.2261   5
  -4  19  -5 124.092 22.1487   3
 -15  -4  -5 118.036 20.7057   4
  19 -15  -5 141.839 21.6618   3
  19  -4   5 135.414 19.9860   4
  12 -19  -5 363.307 34.4645   4
   7  12  -5 381.203 31.2936   3
   7 -19   5 315.372 42.7814   4
 -19   7  -5 377.390 31.4374   5
 -19  12   5 403.040 35.4591   5
  12   7   5 402.263 31.3514   3
  -7 -12   5 389.714 27.9389   5
 -12  19   5 402.711 25.8404   3
  19 -12  -5 390.733 28.0576   3
  19  -7   5 392.497 28.2387   4
 -12  -7  -5 376.086 27.9787   4
  -7  19  -5 403.464 27.9773   5
   9 -19  -5 318.555 31.4206   4
 -19   9   5 234.610 31.0307   5
   9  10   5 295.257 26.8079   3
  10   9  -5 333.765 27.8610   3
 -19  10  -5 308.120 27.9477   5
  10 -19   5 259.028 35.0396   4
  19  -9  -5 299.169 24.7199   3
  19 -10   5 306.768 26.0249   4
 -10  19  -5 279.840 25.3169   5
  -9 -10  -5 295.457 26.7628   4
  -9  19   5 285.004 21.4775   3
 -10  -9   5 265.198 24.7544   5
  13   6  -5 48.5834 17.0947   3
 -19  13  -5 59.6855 17.6775   5
   6 -19  -5 44.7295 17.6422   4
 -19   6   5 45.0346 18.9329   5
  13 -19   5 49.5468 22.4400   4
   6  13   5 41.0737 14.9863   3
  19 -13   5 49.6830 17.7484   4
  19  -6  -5 18.2917 14.6047   3
  -6 -13  -5 34.4498 14.8560   4
 -13  -6   5 46.9006 15.8543   5
 -13  19  -5 48.0616 16.5134   5
  -6  19   5 45.8908 12.7768   3
  16   3  -5 258.323 26.9792   3
 -19   3   5 244.529 29.4983   5
  16 -19   5 293.330 33.6270   4
   3  16   5 270.723 24.5947   3
 -19  16  -5 265.178 26.4173   5
   3 -19  -5 254.903 28.1274   4
 -16  19  -5 253.606 25.9237   5
  -3  19   5 254.462 22.0974   3
 -16  -3   5 248.174 26.1045   5
  -3 -16  -5 255.816 26.6365   4
  19 -16   5 249.846 30.6070   4
  19  -3  -5 246.351 26.9369   3
   0  19   5 459.626 29.8770   3
 -19  19  -5 396.935 30.5085   5
  19   0  -5 481.936 32.3140   3
   0 -19  -5 454.195 33.6917   4
 -19   0   5 424.849 33.3299   5
  19 -19   5 456.896 37.0466   4
  20 -20  -5 90.7385 25.7163   4
  20 -20  -5 82.3909 15.7596   3
 -20   0  -5 131.257 20.1905   4
   0  20  -5 66.2443 21.1049   3
 -20   0  -5 70.5234 20.2540   5
   3  17  -5 110.500 21.8658   3
 -20   3  -5 150.566 25.4464   5
  17 -20  -5 113.066 23.3588   4
  20  -3   5 142.725 19.9863   4
 -17  -3  -5 131.496 22.3773   5
  -3  20  -5 124.368 22.5143   3
  -3 -17   5 139.447 21.2939   5
 -17  -3  -5 114.709 19.7991   4
  20 -17  -5 138.031 20.4741   3
  -3  20  -5 108.766 18.8721   5
 -20  14   5 92.2761 22.5968   5
 -20   6  -5 93.5355 20.3379   5
  14 -20  -5 56.8089 19.4247   4
   6 -20   5 35.0935 26.8414   4
   6  14  -5 93.4730 20.6155   3
 -14  -6  -5 84.8204 16.4147   4
  -6  20  -5 72.2575 16.1079   5
  20  -6   5 59.3985 14.4493   4
  -6 -14   5 111.157 18.6404   5
 -14  20   5 86.0043 14.5381   3
  20 -14  -5 74.2269 16.4550   3
   9  11  -5 47.4318 18.6779   3
 -20   9  -5 38.5811 18.7945   5
 -20  11   5 14.3442 19.2597   5
  11   9   5 35.4122 17.5406   3
  11 -20  -5 15.2518 17.5715   4
   9 -20   5 29.9183 21.6737   4
  -9 -11   5 23.9605 15.4708   5
 -11  20   5 27.1641 12.8142   3
  20  -9   5 29.1109 14.5196   4
  20 -11  -5 38.4581 16.7227   3
  -9  20  -5 29.3458 15.8910   5
 -11  -9  -5 19.0561 14.5647   4
   8  12   5 121.451 19.5577   3
  12 -20   5 78.4862 23.6138   4
   8 -20  -5 52.0256 18.7147   4
 -20  12  -5 61.3747 17.7415   5
 -20   8   5 36.9296 19.3479   5
  12   8  -5 29.3989 16.2836   3
 -12  -8   5 83.1357 18.7699   5
  20 -12   5 70.0066 17.6264   4
  -8  20   5 73.5538 15.5424   3
  -8 -12  -5 45.5420 15.0444   4
 -12  20  -5 49.6641 17.4185   5
  20  -8  -5 43.6340 15.7901   3
  15   5  -5 147.334 21.4155   3
 -20   5   5 125.425 22.5265   5
   5  15   5 167.034 23.1404   3
 -20  15  -5 155.722 24.1645   5
  15 -20   5 157.377 26.2212   4
   5 -20  -5 83.0600 17.2672   4
  20 -15   5 134.752 21.4282   4
 -15  -5   5 107.429 18.6230   5
 -15  20  -5 146.004 22.7279   5
  -5  20   5 139.322 19.3703   3
  -5 -15  -5 150.991 24.5024   4
  20  -5  -5 144.809 20.4006   3
 -20   2   5 73.2584 19.0293   5
  18 -20   5 80.4076 24.1282   4
   2 -20  -5 84.6637 19.0537   4
 -20  18  -5 54.0095 17.7256   5
   2  18   5 40.5272 15.1420   3
  18   2  -5 41.2091 17.3139   3
  20  -2  -5 34.1707 16.0159   3
  -2 -18  -5 71.9263 16.4079   4
 -18  20  -5 69.6276 19.3734   5
  20 -18   5 70.1285 21.5821   4
  -2  20   5 89.5581 17.6429   3
 -18  -2   5 81.9540 21.0052   5
  19 -21  -5 47.2491 22.5052   4
   2  19  -5 40.6355 20.0791   3
 -21   2  -5 45.1511 20.2447   5
 -19  -2  -5 24.0058 19.4703   5
  21 -19  -5 19.7075 14.7922   3
 -19  -2  -5 24.8060 13.9260   4
  -2  21  -5 7.02864 20.3194   3
  21 -19  -5 44.5845 24.3703   4
  -2  21  -5 18.8569 15.2851   5
  21  -2   5 24.3214 12.4789   4
  -2 -19   5 25.0960 14.5824   5
 -21   5  -5 7.81980 17.3150   5
   5  16  -5 18.4294 17.6253   3
  16 -21  -5 24.7863 20.7242   4
  21 -16  -5 -5.0764 14.8123   3
 -16  -5  -5 3.89309 14.5669   4
 -16  21   5 24.2689 13.4230   3
  -5 -16   5 -4.0277 14.0505   5
  -5  21  -5 -5.6435 18.6475   3
  21  -5   5 12.0279 14.2073   4
  -5  21  -5 -1.1628 14.4972   5
   8  13  -5 140.210 22.4566   3
  13 -21  -5 78.6105 20.2705   4
 -21  13   5 129.577 26.0031   5
  13   8   5 143.493 22.4027   3
 -21   8  -5 98.0423 20.4312   5
   8 -21   5 108.517 25.9272   4
  -8  21  -5 132.724 21.1518   5
  21 -13  -5 94.0202 17.2946   3
  21  -8   5 125.341 21.9986   4
  -8 -13   5 119.789 19.2569   5
 -13  -8  -5 93.6822 16.5139   4
 -13  21   5 143.485 17.8683   3
  11  10  -5 315.385 28.8853   3
 -21  10   5 340.441 33.7055   5
 -21  11  -5 296.144 29.3058   5
  11 -21   5 354.577 40.1606   4
  10 -21  -5 282.600 32.0627   4
  10  11   5 353.254 29.7480   3
  21 -10  -5 259.692 26.9348   3
 -11 -10   5 294.693 26.8216   5
 -10 -11  -5 319.829 27.4399   4
 -10  21   5 328.850 24.4709   3
 -11  21  -5 338.098 27.5658   5
  21 -11   5 320.871 27.2953   4
   7  14   5 371.160 29.7530   3
 -21  14  -5 331.628 28.9582   5
  14   7  -5 335.336 29.2437   3
   7 -21  -5 331.622 31.9308   4
  14 -21   5 324.600 36.6266   4
 -21   7   5 343.861 32.2296   5
  -7  21   5 314.097 23.6102   3
  21  -7  -5 292.131 27.5378   3
 -14  -7   5 299.714 26.3843   5
  -7 -14  -5 311.487 28.4115   4
  21 -14   5 301.965 29.9667   4
 -14  21  -5 316.097 28.1247   5
 -21   4   5 251.780 30.6522   5
 -21  17  -5 219.366 26.0290   5
  17   4  -5 267.698 27.4931   3
  17 -21   5 272.333 36.1896   4
   4 -21  -5 232.143 28.6521   4
   4  17   5 275.086 26.1479   3
 -17  -4   5 224.621 27.0648   5
  21  -4  -5 243.791 26.4481   3
  -4  21   5 251.957 24.1624   3
  21 -17   5 297.041 31.2574   4
  -4 -17  -5 207.971 27.6422   4
 -17  21  -5 266.326 26.5227   5
  20   1  -5 94.9277 19.4486   3
  20 -21   5 123.218 24.8749   4
 -21  20  -5 92.5864 19.6354   5
   1  20   5 128.120 19.1355   3
   1 -21  -5 89.6247 20.4741   4
 -21   1   5 136.575 24.0214   5
 -20  -1   5 79.6534 19.5531   5
  -1 -20  -5 108.879 20.5709   4
 -20  21  -5 73.0225 18.0010   5
  21  -1  -5 98.3032 19.4555   3
  21 -20   5 85.5029 22.0479   4
  -1  21   5 79.9453 15.9623   3
 -22   1  -5 46.0726 21.2301   5
  21 -22  -5 -4.7124 22.7010   4
   1  21  -5 22.7523 21.9724   3
 -21  -1  -5 25.2167 21.1686   5
  -1 -21   5 0.52099 16.5774   5
  -1  22  -5 -3.8061 21.4883   3
  22 -21  -5 15.7096 13.8574   3
  22  -1   5 21.3428 14.3676   4
  22 -21  -5 27.8724 25.2607   4
  18 -22  -5 22.1802 21.3712   4
 -22   4  -5 23.7532 18.3517   5
   4  18  -5 36.7965 19.9884   3
  -4  22  -5 14.3629 13.8957   5
 -18  -4  -5 31.6748 15.0220   4
 -18  22   5 37.3367 15.0463   3
  -4  22  -5 44.4927 21.5345   3
  -4 -18   5 42.9373 15.9077   5
  22 -18  -5 29.8431 14.9159   3
  22  -4   5 33.2325 13.8103   4
  15 -22  -5 170.658 26.1811   4
 -22   7  -5 167.351 24.7258   5
   7  15  -5 160.872 26.2602   3
 -22  15   5 211.419 31.6227   5
 -15  22   5 148.873 20.6494   3
  -7 -15   5 138.158 23.0906   5
 -15  -7  -5 166.484 22.2752   4
  -7  22  -5 108.883 18.2403   5
  22  -7   5 156.540 23.2428   4
  22 -15  -5 163.290 22.9502   3
  12 -22  -5 229.282 31.1495   4
  10 -22   5 206.057 35.1328   4
  10  12  -5 223.253 27.8518   3
 -22  12   5 257.306 32.2019   5
 -22  10  -5 199.681 27.7498   5
  12  10   5 261.129 30.6483   3
 -10 -12   5 205.489 24.4156   5
 -12 -10  -5 228.260 26.0557   4
  22 -10   5 249.770 25.8914   4
 -10  22  -5 241.355 23.7670   5
 -12  22   5 249.335 22.8455   3
  22 -12  -5 243.533 24.7691   3
 -22  13  -5 131.864 24.0099   5
 -22   9   5 147.571 26.0961   5
  13   9  -5 100.598 19.9422   3
   9 -22  -5 88.7217 19.3724   4
   9  13   5 148.797 21.9986   3
  13 -22   5 129.380 27.5078   4
  22 -13   5 110.699 20.1641   4
 -13  -9   5 145.735 22.1628   5
  -9  22   5 125.575 20.1972   3
  22  -9  -5 116.107 18.1720   3
  -9 -13  -5 150.688 24.6010   4
 -13  22  -5 121.365 19.8897   5
  16 -22   5 68.6460 23.6949   4
   6 -22  -5 62.9376 17.5522   4
  16   6  -5 129.139 20.7563   3
 -22   6   5 94.5999 23.1146   5
 -22  16  -5 107.834 20.8101   5
   6  16   5 101.216 19.6373   3
  -6 -16  -5 84.3767 17.7079   4
 -16  22  -5 92.8925 20.2899   5
  -6  22   5 90.2741 17.0841   3
 -16  -6   5 91.6878 19.8140   5
  22 -16   5 85.5715 21.3036   4
  22  -6  -5 101.168 19.1526   3
   3  19   5 149.535 24.6104   3
   3 -22  -5 140.120 21.7667   4
  19 -22   5 97.1219 23.5424   4
 -22  19  -5 126.127 23.4922   5
 -22   3   5 126.429 23.1079   5
  19   3  -5 125.713 20.2465   3
 -19  22  -5 129.303 23.6179   5
  -3  22   5 147.934 21.7115   3
  -3 -19  -5 96.0924 18.1984   4
  22 -19   5 115.478 23.6504   4
 -19  -3   5 153.527 22.8932   5
  22  -3  -5 162.438 24.4453   3
 -22   0   5 71.7775 21.7522   5
 -22  22  -5 45.1169 19.4101   5
   0  22   5 93.5212 18.9744   3
  22 -22   5 95.2548 25.6460   4
  22   0  -5 99.2586 19.8811   3
   0 -22  -5 76.4774 20.8988   4
   0  23  -5 162.812 27.6768   3
  23 -23  -5 196.435 31.8177   4
   0 -23   5 216.322 25.1682   5
 -23   3  -5 35.6270 20.5248   5
  20 -23  -5 5.56659 22.7989   4
   3  20  -5 -0.7654 19.3748   3
  23  -3   5 14.1118 13.8876   4
  -3  23  -5 20.8215 21.9442   3
  23 -20  -5 29.0009 31.9342   4
 -20  23   5 1.67653 13.9578   3
  -3  23  -5 3.66679 15.1092   5
  -3 -20   5 8.69432 16.6634   5
 -20  -3  -5 1.72961 20.7087   5
 -20  -3  -5 10.0610 14.7502   4
  23 -20  -5 -1.2426 14.4556   3
 -23   6  -5 29.3433 19.3195   5
  17 -23  -5 28.2377 20.4330   4
   6  17  -5 73.1316 21.2208   3
 -17  23   5 34.3470 15.0949   3
  -6  23  -5 22.5944 15.8291   5
 -17  -6  -5 27.7320 15.8518   4
  23  -6   5 24.4660 13.7473   4
  23 -17  -5 24.7521 15.1554   3
  -6 -17   5 16.5785 15.8801   5
   9 -23   5 60.9415 26.6654   4
 -23   9  -5 57.6505 20.4272   5
 -23  14   5 78.8777 23.0390   5
  14   9   5 81.7813 22.4472   3
   9  14  -5 67.1111 19.2461   3
  14 -23  -5 86.6419 23.1440   4
 -14  -9  -5 45.8464 15.6027   4
  -9 -14   5 94.2412 19.3560   5
  23  -9   5 81.1099 17.0431   4
  23 -14  -5 78.0539 17.7571   3
 -14  23   5 66.9739 15.9362   3
  -9  23  -5 35.8873 15.8310   5
  11 -23  -5 63.4657 20.2219   4
  11  12   5 71.1616 19.5458   3
  12  11  -5 40.6749 18.3189   3
  12 -23   5 23.5512 24.6580   4
 -23  12  -5 55.0025 18.8204   5
 -23  11   5 56.8772 22.1824   5
 -11 -12  -5 65.7185 17.0141   4
 -11  23   5 76.8893 16.1609   3
 -12 -11   5 56.6460 18.6157   5
 -12  23  -5 43.9652 15.5839   5
  23 -12   5 41.6392 16.1504   4
  23 -11  -5 71.4831 18.0881   3
 -23  15  -5 74.4822 20.2088   5
  15 -23   5 67.7362 25.4909   4
   8  15   5 72.7332 20.0687   3
  15   8  -5 39.1736 16.7354   3
   8 -23  -5 53.8882 19.9757   4
 -23   8   5 53.7267 20.8927   5
 -15  -8   5 49.0923 16.3844   5
  23  -8  -5 71.8861 17.8821   3
  23 -15   5 70.8279 19.1945   4
  -8  23   5 42.4619 13.9760   3
  -8 -15  -5 43.9165 16.1364   4
 -15  23  -5 73.4405 19.3464   5
   5  18   5 118.183 20.7009   3
   5 -23  -5 80.7004 18.1204   4
 -23  18  -5 130.639 21.7860   5
  18   5  -5 130.048 21.4141   3
  18 -23   5 124.565 26.9140   4
 -23   5   5 148.078 25.1699   5
 -18  -5   5 73.8440 19.4719   5
  23 -18   5 89.1237 20.6538   4
  -5 -18  -5 107.298 20.5272   4
  -5  23   5 70.3001 16.2071   3
 -18  23  -5 92.5193 19.9353   5
  23  -5  -5 68.6730 17.9952   3
  21 -23   5 59.7901 23.6889   4
 -23  21  -5 43.0266 17.7490   5
   2  21   5 39.0083 17.3098   3
  21   2  -5 53.4955 19.3267   3
 -23   2   5 28.6779 19.4575   5
   2 -23  -5 55.9480 19.5099   4
 -21  23  -5 49.2864 17.8557   5
  23 -21   5 56.3718 23.8218   4
  23  -2  -5 61.8665 17.8308   3
  -2 -21  -5 56.7039 18.6466   4
  -2  23   5 35.7986 15.4263   3
 -21  -2   5 43.0791 18.2884   5
   2  22  -5 76.0235 24.7186   3
  22 -24  -5 14.3434 24.2549   4
 -24   2  -5 52.0013 22.0994   5
  -2  24  -5 85.4009 25.8287   3
 -22  -2  -5 55.1402 24.3556   5
  24 -22  -5 49.5216 15.2351   3
  -2 -22   5 43.3162 18.0237   5
  24 -22  -5 99.8480 29.6736   4
 -22  24   5 87.8784 18.2384   3
  24  -2   5 69.1630 18.1152   4
  19 -24  -5 23.6058 21.3950   4
   5  19  -5 48.7177 22.1809   3
 -24   5  -5 13.0826 20.0700   5
  -5  24  -5 2.42394 14.3800   5
  24  -5   5 23.0268 14.4431   4
 -19  24   5 11.5954 15.6875   3
  24 -19  -5 15.3868 15.7853   3
 -19  -5  -5 31.3885 16.0907   4
  -5 -19   5 17.2020 16.0840   5
 -24   8  -5 21.5821 17.9549   5
   8  16  -5 58.0805 20.6575   3
  16 -24  -5 8.15094 19.8162   4
 -24  16   5 81.3830 24.6580   5
  -8  24  -5 6.07766 16.3072   5
 -16  24   5 29.3194 15.0222   3
  24  -8   5 21.9837 14.1366   4
  -8 -16   5 2.33398 15.1208   5
  24 -16  -5 -1.7896 14.9845   3
 -16  -8  -5 12.8482 15.7286   4
  13 -24  -5 58.3213 19.6045   4
  11 -24   5 107.107 27.7590   4
  11  13  -5 106.142 22.1019   3
  13  11   5 82.9880 21.9530   3
 -24  13   5 74.1645 22.0557   5
 -24  11  -5 87.4236 22.4065   5
 -13 -11  -5 115.851 18.8430   4
 -13  24   5 104.070 16.9257   3
  24 -11   5 70.9307 17.2706   4
  24 -13  -5 89.4997 19.0141   3
 -11  24  -5 77.1055 17.8454   5
 -11 -13   5 114.704 21.0628   5
 -24  14  -5 155.125 23.3343   5
  14  10  -5 108.665 19.8213   3
  10  14   5 117.502 21.2120   3
 -24  10   5 87.5928 22.5686   5
  10 -24  -5 120.110 23.3730   4
  14 -24   5 129.898 28.2661   4
  24 -10  -5 92.5627 18.8418   3
 -14 -10   5 131.429 24.2033   5
 -10  24   5 133.001 20.7269   3
  24 -14   5 97.1915 20.1337   4
 -10 -14  -5 98.2637 18.5471   4
 -14  24  -5 147.016 23.5654   5
   7  17   5 147.820 22.0609   3
  17   7  -5 98.9045 18.7990   3
 -24  17  -5 81.9303 19.4573   5
  17 -24   5 143.593 28.6624   4
   7 -24  -5 115.558 22.3601   4
 -24   7   5 96.9028 23.8842   5
 -17  -7   5 103.793 19.9068   5
 -17  24  -5 141.695 22.2159   5
  -7  24   5 68.2144 16.2501   3
  24 -17   5 94.8876 20.7496   4
  24  -7  -5 118.897 19.8624   3
  -7 -17  -5 96.7147 18.0304   4
   4 -24  -5 49.9065 17.2327   4
  20   4  -5 74.3012 19.3932   3
   4  20   5 44.7496 18.3529   3
  20 -24   5 63.9181 26.4834   4
 -24   4   5 60.5760 22.9898   5
 -24  20  -5 63.0637 19.8897   5
  24  -4  -5 74.3946 19.4354   3
  24 -20   5 56.2065 22.6246   4
 -20  24  -5 50.2957 18.9680   5
  -4 -20  -5 31.4079 17.3353   4
 -20  -4   5 15.3361 17.3916   5
  -4  24   5 36.8381 15.0872   3
 -25   4  -5 40.7542 20.2926   5
  21 -25  -5 67.8364 24.5361   4
   4  21  -5 60.6077 22.4949   3
  25 -21  -5 22.7052 14.9932   3
 -21  -4  -5 61.8143 16.8659   4
  -4 -21   5 51.1204 19.4317   5
 -21  25   5 20.0685 15.1797   3
  25  -4   5 21.1171 14.9951   4
  -4  25  -5 67.2825 25.8589   3
   7  18  -5 51.3388 22.0783   3
  18 -25  -5 37.6596 21.1992   4
 -25   7  -5 15.2202 19.4837   5
  25  -7   5 37.1632 17.1390   4
 -18  25   5 43.3907 16.1522   3
  25 -18  -5 22.4352 17.1393   3
 -18  -7  -5 44.2756 17.3178   4
  -7  25  -5 13.3391 13.9980   5
  -7 -18   5 22.8877 16.1690   5
  10  15  -5 46.8207 19.3471   3
 -25  10  -5 2.08741 18.3056   5
 -25  15   5 67.4858 24.2244   5
  15  10   5 17.4436 20.8380   3
  10 -25   5 18.4938 25.6178   4
  15 -25  -5 21.0555 21.7957   4
 -10  25  -5 42.6304 18.3123   5
 -15  25   5 42.5702 15.4506   3
 -10 -15   5 31.5280 16.7062   5
  25 -10   5 26.5641 15.5935   4
  25 -15  -5 35.2516 16.4587   3
 -15 -10  -5 35.0314 18.0085   4
 -25  12   5 70.6706 23.6477   5
 -25  13  -5 23.1080 20.3485   5
  12  13   5 74.5115 22.8103   3
  13 -25   5 23.7864 26.8961   4
  13  12  -5 38.3176 17.9503   3
  12 -25  -5 37.4044 21.5787   4
 -12 -13  -5 37.0360 17.5985   4
  25 -13   5 31.1292 17.2029   4
 -12  25   5 35.0549 14.7559   3
  25 -12  -5 12.9285 16.7645   3
 -13 -12   5 39.3544 18.5008   5
 -13  25  -5 56.1435 17.4728   5
  16   9  -5 15.8848 17.9476   3
   9  16   5 -25.076 18.2526   3
   9 -25  -5 17.8151 18.7355   4
 -25   9   5 2.22111 21.8774   5
 -25  16  -5 19.0965 17.2963   5
  16 -25   5 16.7717 25.8485   4
  -9  25   5 18.3516 14.3044   3
 -16  -9   5 9.86969 16.9244   5
  -9 -16  -5 4.35771 16.7198   4
 -16  25  -5 13.0555 18.0943   5
  25 -16   5 -8.6265 20.1355   4
  25  -9  -5 -0.6655 16.4979   3
   6  19   5 43.7087 18.5118   3
  19   6  -5 48.3197 18.0710   3
  19 -25   5 24.4501 25.4109   4
 -25  19  -5 35.5591 18.4227   5
   6 -25  -5 70.2792 20.5231   4
 -25   6   5 37.2995 22.7824   5
  -6 -19  -5 70.4577 20.6533   4
 -19  -6   5 57.5474 21.1791   5
  -6  25   5 62.6893 17.3589   3
  25 -19   5 65.8637 22.5159   4
 -19  25  -5 47.4193 18.3403   5
  25  -6  -5 28.7126 16.4219   3
  17 -26  -5 102.652 24.1599   4
 -26  17   5 206.712 50.2589   5
 -26   9  -5 39.6233 19.8991   5
   9  17  -5 95.4167 22.5159   3
 -17  -9  -5 102.014 20.4513   4
  -9  26  -5 64.2477 16.3271   5
  26 -17  -5 123.169 20.3474   3
  -9 -17   5 92.3700 20.5259   5
 -17  26   5 64.3324 16.1107   3
  26  -9   5 85.2044 19.5888   4
  14  12   5 141.811 25.5292   3
  14 -26  -5 71.3696 20.3736   4
  12  14  -5 90.9703 22.0880   3
 -26  12  -5 101.947 22.8512   5
 -26  14   5 93.5287 24.3192   5
  12 -26   5 69.3366 28.6373   4
 -14 -12  -5 80.1717 18.4431   4
  26 -14  -5 136.109 22.9869   3
 -14  26   5 91.7591 16.9332   3
 -12  26  -5 75.8821 17.4233   5
 -12 -14   5 55.1711 17.9127   5
  26 -12   5 51.4591 18.3164   4
  15  11  -5 31.9551 18.2909   3
 -26  15  -5 18.3015 18.7381   5
  15 -26   5 3.49385 25.5213   4
 -26  11   5 43.5502 23.1391   5
  11 -26  -5 31.9110 20.4704   4
  11  15   5 47.0836 22.4404   3
 -15 -11   5 13.9204 18.0493   5
 -11 -15  -5 45.5250 18.9490   4
 -15  26  -5 33.6292 18.6711   5
  26 -15   5 -5.3346 18.4480   4
  26 -11  -5 12.4828 17.6264   3
 -11  26   5 -0.6744 14.4894   3
   8  18   5 62.4423 21.6331   3
  18 -26   5 6.19106 25.5325   4
   8 -26  -5 19.6285 18.3117   4
  18   8  -5 38.7556 18.3909   3
 -26  18  -5 27.9602 19.0241   5
 -26   8   5 13.8392 20.1241   5
 -18  26  -5 25.6574 18.6833   5
  -8 -18  -5 -6.1030 16.6154   4
  26  -8  -5 2.01414 15.7978   3
  26 -18   5 -7.8366 20.8565   4
  -8  26   5 24.3659 15.0105   3
 -18  -8   5 10.9374 17.9919   5
 -27  13   5 55.9021 24.0986   5
  14  13  -5 42.7335 19.0822   3
  13 -27  -5 40.8449 21.8093   4
  13  14   5 -4.4782 20.4092   3
 -27  14  -5 38.3558 22.0019   5
  14 -27   5 23.9107 29.5263   4
  27 -14   5 36.2091 18.5692   4
 -13 -14  -5 81.5820 19.6529   4
 -13  27   5 45.9965 15.9590   3
  27 -13  -5 71.5322 19.2021   3
 -14 -13   5 15.7352 17.7156   5
   0   0  -6 2276.82 94.6119   3
   0   0  -6 2300.41 94.2059   4
   0   0   6 2040.12 102.041   2
   0   0  -6 2196.18 94.9977   5
   0   0   6 2202.65 96.6625   2
  -2   1  -6 420.668 24.8188   3
  -2   1   6 356.982 34.9908   2
   1  -2  -6 398.858 24.9220   3
   1   1  -6 378.686 24.7911   5
   1   1   6 357.771 33.9948   2
   1  -2   6 413.638 25.6510   2
   1   1  -6 412.698 26.2297   3
   1   1   6 366.450 25.6825   2
  -2   1  -6 465.132 25.2885   4
   1  -2   6 405.935 34.0248   2
   1  -2  -6 420.822 24.9715   5
   1  -2  -6 428.847 26.1430   4
   1   1  -6 391.155 24.0719   4
  -2   1   6 394.750 26.1678   2
  -2   1  -6 407.135 26.5014   5
   2  -1  -6 415.630 25.9876   3
   2  -1  -6 410.961 24.9538   4
   2  -1   6 372.687 33.5384   2
   2  -1  -6 401.045 24.8981   5
  -1  -1   6 393.441 25.9160   2
  -1   2   6 416.653 34.5075   2
  -1  -1  -6 401.958 25.5468   5
  -1  -1  -6 421.412 25.9332   4
  -1   2  -6 405.824 24.6008   4
  -1  -1   6 414.713 35.5523   2
  -1   2  -6 436.318 27.3198   5
  -1  -1  -6 379.002 25.0679   3
  -1   2  -6 437.232 25.5801   3
   2  -1   6 371.008 25.5596   2
  -1   2   6 404.129 26.6311   2
   0   3  -6 799.803 41.8238   5
   3  -3  -6 807.656 40.2014   5
  -3   0  -6 799.465 40.8253   4
   3  -3  -6 838.228 41.4675   3
   0  -3   6 925.070 42.8304   2
   0  -3   6 921.597 51.2095   2
  -3   0  -6 764.820 40.9563   5
   3   0   6 837.660 49.1792   2
   3  -3  -6 823.673 41.2022   4
   0   3  -6 799.404 41.5171   3
  -3   0  -6 825.298 40.1874   3
  -3   3   6 859.005 51.5435   2
   0  -3  -6 1312.81 61.0992   3
   0  -3  -6 1378.67 61.4184   5
   3  -3   6 1410.88 63.2835   2
   3   0  -6 1316.87 61.0743   5
   3   0  -6 1377.35 60.3161   4
   3  -3   6 1325.80 69.0736   2
   3   0  -6 1361.15 62.4782   3
  -3   3  -6 1391.76 62.4012   5
   0  -3  -6 1417.73 62.2947   4
  -3   3  -6 1358.38 60.6516   4
   0   3   6 1267.73 69.5218   2
  -3   3  -6 1459.57 61.4455   3
   2  -4   6 226.527 29.1856   2
   2   2   6 202.513 27.3589   2
   2  -4  -6 206.817 21.8578   4
   2   2  -6 228.253 21.9343   3
   2  -4  -6 207.189 18.7739   5
   2   2   6 238.887 21.1335   2
  -4   2  -6 231.411 19.2522   3
   2   2  -6 231.588 19.5323   5
  -4   2  -6 234.964 21.3690   5
   2  -4  -6 244.023 19.8745   3
   2  -4   6 242.361 19.3459   2
  -4   2  -6 242.139 19.9691   4
  -2  -2  -6 254.130 21.7384   4
  -2  -2  -6 222.653 18.7778   3
  -2  -2   6 291.151 32.3477   2
  -2   4  -6 247.526 20.4623   3
   4  -2   6 228.280 19.5000   2
   4  -2   6 250.530 29.0220   2
   4  -2  -6 207.748 24.8818   3
  -2  -2   6 209.466 19.9935   2
  -2   4   6 230.249 30.7155   2
   4  -2  -6 245.812 19.8794   4
  -2  -2  -6 224.538 20.6750   5
  -5   1  -6 71.6739 15.5639   5
  -5   1  -6 46.6320 12.1041   4
   1  -5   6 54.1562 18.9962   2
  -5   4   6 83.0787 14.0281   5
   1  -5   6 81.7862 11.9033   4
   4   1   6 66.3010 14.0949   2
   1   4  -6 44.9055 12.7310   5
   4  -5  -6 58.0996 14.1808   4
   4   1   6 82.5618 20.2987   2
  -5   1  -6 72.9356 11.7135   3
   1   4  -6 59.7761 14.5586   3
   1  -5   6 76.6690 15.6841   2
   4  -5  -6 51.4943 12.9874   3
   5  -1   6 82.7613 16.2827   2
  -4  -1  -6 40.0758 11.2817   3
  -1   5  -6 68.0387 14.9492   5
  -1  -4   6 80.0887 20.2522   2
  -1   5  -6 56.1158 13.9654   3
  -4  -1  -6 62.8692 14.2425   4
   5  -1   6 87.9051 21.0404   2
   5  -4  -6 50.4745 12.7295   4
   5  -4  -6 75.5977 14.5488   3
  -1  -4   6 70.4807 14.2851   2
  -4  -1  -6 86.0884 15.5351   5
  -1  -4   6 98.4078 14.8681   4
   4   1  -6 197.572 20.9527   5
   1   4   6 164.534 20.3397   2
  -5   4  -6 177.734 29.1986   5
   4  -5   6 164.872 26.2159   2
   1  -5  -6 161.803 16.5367   5
   1   4   6 151.368 26.3691   2
   1  -5  -6 147.485 20.5926   4
   4  -5   6 195.438 18.2988   2
   1  -5  -6 160.399 17.9745   3
  -5   4  -6 186.856 17.4906   3
   5  -4   6 181.079 18.2568   2
  -1  -4  -6 172.045 20.6431   4
  -1  -4  -6 175.785 18.2614   5
  -1   5   6 147.890 28.3363   2
  -1  -4  -6 165.475 17.3472   3
  -4   5  -6 186.591 20.3367   5
  -4   5  -6 165.961 17.9958   3
   5  -1  -6 181.745 19.5764   3
   5  -4   6 179.584 27.5196   2
  -6   6   6 40.9397 11.9124   5
  -6   0  -6 27.9840 12.1739   4
   6  -6  -6 27.4681 12.0222   3
   6   0   6 27.2763 11.8468   2
   0  -6   6 48.8487 19.4039   2
   6  -6  -6 21.4651 12.9767   4
   0  -6   6 54.5943 11.9056   4
   0   6  -6 24.2201 12.7708   5
  -6   0  -6 26.1489 14.1859   5
   6   0   6 71.2867 19.5745   2
   0   6  -6 23.9308 13.2705   3
   0  -6   6 51.2955 11.9258   2
  -6   3   6 374.688 24.4234   5
   3  -6   6 418.258 24.6943   2
  -6   3  -6 309.420 25.7275   5
   3   3  -6 331.085 25.3617   3
  -6   3  -6 302.953 21.3074   3
   3   3  -6 305.954 23.1652   5
   3   3   6 388.129 26.4656   2
   3   3   6 356.139 32.7219   2
   3  -6  -6 309.095 23.3865   3
   3  -6   6 332.131 32.2009   2
   3  -6   6 352.054 23.4473   4
  -6   3  -6 326.335 23.6554   4
   3  -6  -6 325.810 25.9257   4
  -3  -3  -6 314.449 23.9379   5
  -3  -3  -6 305.105 37.3755   4
   6  -3  -6 337.877 25.4868   3
  -3   6  -6 302.134 24.8311   5
  -3   6  -6 350.141 24.4322   3
  -3  -3  -6 303.610 21.6409   3
   6  -3   6 396.347 33.4350   2
  -3  -3   6 359.541 34.3643   2
   6  -3   6 375.525 24.9053   2
   0  -6  -6 507.219 32.9269   3
   0  -6  -6 499.939 27.3445   5
  -6   0   6 497.812 29.4801   5
   6   0  -6 500.829 30.9728   3
   6  -6   6 498.842 29.5058   2
  -6   6  -6 483.063 30.4728   5
   6  -6   6 495.382 37.5159   2
   6  -6   6 497.935 28.5148   4
   2  -7   6 34.6220 10.8379   2
   2   5  -6 40.3285 13.9312   3
   2  -7   6 31.1736 17.5077   2
   5  -7  -6 14.9794 11.3571   3
  -7   5   6 34.4557 12.4902   5
   2  -7   6 38.8044 11.8227   4
   5   2   6 46.4520 10.7359   3
   5   2   6 52.0532 18.4804   2
  -7   2  -6 24.7136 11.1688   4
   5  -7  -6 31.5582 13.6092   4
   5   2   6 59.3314 14.0604   2
   2   5  -6 12.1462 11.5685   5
  -7   2  -6 28.7437 15.8329   5
  -5  -2  -6 18.4135 12.9771   4
  -2  -5   6 16.2195 18.8602   2
  -2   7  -6 29.3381 14.2574   5
   7  -2   6 59.7736 19.8411   2
  -2   7  -6 33.7693 13.4290   3
  -5  -2  -6 16.8905 13.0358   5
   7  -2   6 23.2532 12.0114   2
   7  -5  -6 41.8238 12.3337   4
  -5   7   6 63.3744 13.0230   5
   7  -5  -6 20.7179 12.7343   3
  -7   5  -6 126.210 19.8907   5
   2  -7  -6 125.266 17.9195   4
   2   5   6 97.1669 19.6410   2
  -7   2   6 114.542 18.9851   5
   2   5   6 81.8278 21.2349   2
   5  -7   6 105.129 17.2617   4
   5  -7   6 118.880 16.3596   2
   2  -7  -6 91.2226 15.6067   3
   5  -7   6 107.773 25.1090   2
   5   2  -6 113.223 16.5162   3
  -2  -5  -6 79.2858 15.2553   4
   7  -2  -6 101.328 16.2273   3
  -5   7  -6 103.884 16.5260   5
  -5   7  -6 104.276 17.0736   3
  -2  -5  -6 91.8519 17.1891   5
   1   7  -6 39.5522 14.5267   3
   1  -8   6 24.0805 18.4149   2
   7   1   6 26.9083 9.97698   3
   7  -8  -6 37.3760 14.4126   4
  -8   1  -6 64.3499 12.3857   4
   7   1   6 41.0744 14.2742   2
  -8   7   6 29.6074 12.7324   5
  -8   1  -6 44.3107 15.2405   5
   7   1   6 41.3670 20.0519   2
   1  -8   6 13.7260 14.0060   4
   7  -8  -6 55.7103 14.3029   3
   1   7  -6 48.9583 13.5338   5
  -7   8   6 36.3627 12.7210   5
  -7  -1  -6 66.8181 16.4436   5
  -1  -7   6 25.0476 18.8202   2
   8  -7  -6 46.7916 13.4650   3
  -7  -1  -6 53.3534 12.7942   4
  -1   8  -6 60.3905 14.8699   3
  -1   8  -6 57.9586 15.3380   5
   8  -7  -6 59.4058 14.4026   4
   4  -8  -6 34.7159 14.5801   4
   4  -8   6 30.6176 17.3354   2
   4   4   6 31.3013 13.3002   2
   4  -8   6 46.9089 12.8019   4
   4   4  -6 50.3636 15.5322   3
   4   4   6 49.5394 10.8998   3
  -8   4  -6 46.0576 12.5389   4
   4   4  -6 63.0038 13.8754   5
  -8   4   6 58.2911 14.8544   5
   4   4   6 41.5641 17.5738   2
  -8   4  -6 47.6662 15.3080   5
   4  -8  -6 56.1602 13.2427   3
   4  -8   6 50.8695 12.7727   2
  -4   8  -6 55.5255 15.2190   5
   8  -4  -6 61.2746 15.4666   3
  -4   8   6 61.5258 13.3791   5
  -4   8  -6 58.1335 13.6323   3
  -4  -4  -6 86.1985 14.9073   4
  -4  -4  -6 58.8069 13.3204   5
   7  -8   6 24.9588 11.8323   4
   7   1  -6 50.6837 15.3786   3
  -8   7  -6 29.8077 15.9354   5
   1  -8  -6 27.7112 14.7937   4
  -8   1   6 2.10096 12.1089   5
   8  -1  -6 51.9515 14.8542   3
  -7  -1   6 30.6553 14.5236   5
   8  -7   6 15.0628 12.3682   4
  -1  -7  -6 39.1457 14.7935   4
  -7   8  -6 24.7638 14.7781   5
  -9   9   6 91.4713 16.4556   5
   0   9  -6 99.8512 17.0127   3
  -9   0  -6 89.5086 14.9108   4
  -9   0  -6 119.503 19.2927   5
   9  -9  -6 94.2583 16.8428   4
   0  -9   6 83.4156 23.5733   2
   9  -9  -6 100.634 16.5161   3
   0   9  -6 92.8974 16.0517   5
   6   3   6 70.0560 16.3684   2
  -9   3  -6 68.9265 16.3134   5
   6   3   6 81.7457 12.2523   3
   6  -9  -6 75.0046 16.6289   4
   3  -9   6 72.8591 15.3717   2
   6   3   6 71.3842 19.3745   2
   3   6  -6 78.2112 14.7570   5
   3  -9   6 30.0464 15.0870   4
  -9   6   6 57.7470 14.6683   5
   3   6  -6 95.7340 18.1297   3
   3  -9   6 61.9321 21.1513   2
  -9   3  -6 83.0285 13.2682   4
   6  -9  -6 82.7940 14.6992   3
  -6  -3  -6 55.9766 13.7553   4
   9  -6  -6 69.7673 15.1375   3
  -3   9  -6 77.0447 15.5058   3
  -3   9  -6 60.1903 14.3793   5
  -6  -3  -6 91.4935 16.1879   5
   6  -9   6 -7.2102 11.8477   4
   3  -9  -6 -0.0927 10.5152   3
   3  -9  -6 -0.1315 14.0376   4
   6   3  -6 1.45459 13.2255   3
  -9   3   6 -5.3826 12.0303   5
   3   6   6 2.42191 11.1941   3
  -9   6  -6 21.8582 14.9064   5
   3   6   6 -24.891 15.1272   2
   9  -6   6 -6.3054 10.1662   4
  -6   9  -6 3.06812 14.8107   5
   9  -3  -6 -0.9131 14.3578   3
  -6  -3   6 10.0282 12.2646   5
  -3  -6  -6 13.6870 13.2994   4
   9  -9   6 28.2372 13.0024   4
  -9   9  -6 32.3183 15.6840   5
  -9   0   6 24.7185 13.6242   5
   0  -9  -6 33.8336 14.8251   4
   0   9   6 30.8745 11.3251   3
   9   0  -6 14.6102 14.3089   3
   8 -10  -6 124.767 18.3751   4
   2 -10   6 120.391 27.7121   2
   2   8  -6 104.538 16.2024   5
   8 -10  -6 81.4401 14.3296   3
   8   2   6 138.442 20.6330   3
 -10   2  -6 84.1974 13.7917   4
 -10   2  -6 111.545 19.8083   5
 -10   8   6 85.9576 16.4502   5
   2   8  -6 80.7017 17.3358   3
  -2  10  -6 123.006 18.2338   5
  -8  -2  -6 110.056 16.1230   4
  -2  10  -6 98.5848 17.2188   3
  -8  -2  -6 100.352 17.7724   5
  10  -8  -6 69.0944 14.3447   3
   5 -10   6 104.521 17.3330   4
   5 -10  -6 154.033 17.9308   3
 -10   5   6 137.369 26.6586   5
   5   5   6 124.015 16.6150   3
   5   5   6 138.521 23.1262   2
 -10   5  -6 142.204 21.6952   5
   5 -10  -6 137.603 18.6623   4
   5   5   6 124.975 27.9495   2
   5   5  -6 135.544 22.0339   3
  -5  10  -6 136.893 20.0278   5
  -5  -5  -6 123.290 20.7535   4
  10  -5  -6 121.940 17.5607   3
 -10   8  -6 12.0041 14.2912   5
   2 -10  -6 26.6847 16.0182   4
   8 -10   6 14.4438 13.3314   4
   8   2  -6 27.8705 14.8429   3
   2   8   6 1.06094 10.1397   3
 -10   2   6 8.07457 13.4429   5
  -2  -8  -6 20.8544 14.0880   4
  -8  10  -6 34.6823 17.0122   5
  -8  -2   6 12.8519 12.8541   5
  10  -8   6 4.58135 11.2175   4
  10  -2  -6 18.2591 14.6938   3
 -11  10   6 87.1049 17.2359   5
  10 -11  -6 154.135 26.0472   4
  10 -11  -6 93.5988 15.0839   3
   1  10  -6 123.162 17.2469   5
 -11   1  -6 112.664 19.0309   5
 -11   1  -6 120.242 16.1338   4
   1  10  -6 75.5520 17.2188   3
 -10  -1  -6 90.3095 14.7524   4
  11 -10  -6 119.248 18.0020   4
  -1  11  -6 96.1584 17.7861   5
 -10  -1  -6 107.193 19.7430   5
  11 -10  -6 100.404 15.7893   3
   7   4   6 588.432 43.1346   2
   4   7  -6 585.348 35.2668   3
   7   4   6 613.270 31.7926   3
   7 -11  -6 529.845 30.6064   3
   4 -11   6 545.918 38.0786   4
   7 -11  -6 606.253 37.5535   4
 -11   7   6 579.712 35.6418   5
 -11   4  -6 606.300 35.8724   5
   7   4   6 547.123 37.5760   2
  -7  -4  -6 613.135 34.2873   4
  11  -7  -6 565.592 32.9216   3
  -7  -4  -6 584.923 34.1202   5
  -4  11  -6 619.944 34.3300   3
  -4  11  -6 591.849 33.7519   5
   7   4  -6 442.709 31.4794   3
 -11   4   6 423.400 30.1566   5
   7 -11   6 485.726 33.9404   4
   4 -11  -6 483.604 32.1627   4
 -11   7  -6 436.593 30.7173   5
  11  -4  -6 451.901 30.5562   3
  -7  -4   6 433.623 28.9410   5
  -7  11  -6 456.509 29.7680   5
  11  -7   6 409.555 28.1387   4
  -4  -7  -6 477.656 30.7139   4
  10 -11   6 102.099 17.0878   4
 -11   1   6 161.960 21.7309   5
   1  10   6 126.669 17.3525   3
   1 -11  -6 143.554 24.3374   4
  10   1  -6 182.213 21.1520   3
 -11  10  -6 117.220 21.8370   5
 -10  -1   6 148.617 21.2985   5
 -10  11  -6 156.179 20.6551   5
  -1 -10  -6 175.377 20.9305   4
  -1  11   6 142.050 17.9440   3
  11 -10   6 134.408 21.0841   4
  11  -1  -6 139.454 22.5561   3
   0  12  -6 71.2476 14.7949   5
  12 -12  -6 66.5252 18.8447   4
 -12   0  -6 50.5844 18.4702   5
 -12   0  -6 69.6515 14.4446   4
   0  12  -6 86.2089 17.7345   3
  12 -12  -6 69.3262 15.8120   3
 -12   3  -6 209.245 20.1408   4
   9 -12  -6 199.375 20.2017   3
   3   9  -6 189.930 24.3899   3
 -12   3  -6 222.876 25.4169   5
   9 -12  -6 274.632 28.0344   4
 -12   9   6 194.405 24.2047   5
   3   9  -6 187.744 18.3123   5
  12  -9  -6 195.132 21.6815   3
  -3  12  -6 179.283 21.4327   5
  -9  -3  -6 219.397 23.4251   5
  -3  12  -6 215.545 25.0215   3
  -9  -3  -6 180.522 21.6505   4
   6   6   6 273.625 34.5133   3
 -12   6  -6 282.161 26.4013   5
   6 -12   6 251.961 30.8102   4
   6 -12  -6 258.767 20.4017   3
   6 -12  -6 265.934 28.4040   4
   6   6  -6 294.150 26.1998   3
 -12   6   6 309.880 26.7435   5
  12  -6  -6 290.834 23.9164   3
  -6  12  -6 297.468 24.3046   5
  -6  -6  -6 285.271 25.5448   4
  -6  -6   6 289.929 23.7742   5
  12  -6   6 270.598 23.2264   4
   9 -12   6 432.897 32.2447   4
 -12   3   6 449.404 29.4158   5
   9   3  -6 366.133 30.0421   3
 -12   9  -6 345.872 29.2715   5
   3 -12  -6 361.249 30.9895   4
   3   9   6 423.804 26.0744   3
  -3  12   6 398.688 24.9145   3
  -9  12  -6 389.641 29.6295   5
  -3  -9  -6 360.694 29.8031   4
  12  -3  -6 390.086 28.6601   3
  -9  -3   6 446.458 28.9783   5
  12  -9   6 418.169 28.4639   4
  12   0  -6 794.482 44.7740   3
   0 -12  -6 915.793 46.4437   4
 -12   0   6 847.147 45.1526   5
 -12  12  -6 827.789 44.0530   5
  12 -12   6 866.899 46.2810   4
 -13   2  -6 138.239 19.0590   4
 -13  11   6 163.185 36.5131   5
 -13   2  -6 134.140 21.6145   5
   2  11  -6 124.863 17.9497   5
   2  11  -6 109.956 19.0590   3
  11 -13  -6 158.987 27.1030   4
  11 -13  -6 88.3417 15.2488   3
  -2  13  -6 118.708 19.8993   5
 -11  -2  -6 120.742 17.2828   4
 -11  -2  -6 142.786 23.8774   5
  -2  13  -6 150.767 23.7845   3
  13 -11  -6 122.669 17.8468   3
   8 -13  -6 211.355 27.6112   4
   8   5   6 221.942 21.6029   3
 -13   8   6 174.549 25.4690   5
   5   8  -6 183.387 23.6614   3
   8 -13  -6 190.199 19.7740   3
   5 -13   6 144.871 23.0159   4
 -13   5  -6 185.706 25.6763   5
  -5  13  -6 173.213 20.0145   5
  13  -8  -6 173.549 22.3244   3
  -8  -5  -6 172.220 21.9449   4
   8 -13   6 79.8347 21.0585   4
 -13   5   6 59.1647 17.0071   5
   5 -13  -6 67.8668 18.0657   4
 -13   8  -6 56.6438 16.9065   5
   8   5  -6 73.4698 17.0134   3
   5   8   6 22.3840 12.2892   3
  -8  13  -6 50.3776 16.1222   5
  13  -5  -6 66.7540 17.6814   3
  -8  -5   6 41.6399 14.7005   5
  13  -8   6 50.9098 13.8817   4
  -5  -8  -6 63.1593 17.0805   4
 -13   2   6 258.799 26.2142   5
  11 -13   6 279.694 29.7906   4
   2  11   6 261.453 21.6269   3
 -13  11  -6 233.031 25.0686   5
  11   2  -6 241.227 26.0296   3
   2 -13  -6 238.805 27.4724   4
  13 -11   6 271.482 25.1512   4
  -2  13   6 261.270 21.0464   3
 -11  -2   6 256.611 24.3381   5
 -11  13  -6 249.181 25.7695   5
  -2 -11  -6 239.298 25.8702   4
  13  -2  -6 236.151 24.9542   3
   1  13  -6 23.2861 17.3231   3
 -14   1  -6 57.4199 17.3612   5
   1  13  -6 24.8168 13.8379   5
  13 -14  -6 21.0890 14.1242   3
 -14   1  -6 26.3626 12.7911   4
  13 -14  -6 44.8687 18.7286   4
  -1  14  -6 26.5016 17.3924   3
 -13  -1  -6 6.15315 17.8171   5
  14 -13  -6 12.5431 13.9839   3
  -1  14  -6 29.8272 13.3526   5
 -13  -1  -6 -4.5965 10.9612   4
  10 -14  -6 526.972 36.6297   4
 -14  10   6 488.145 40.4985   5
  10 -14  -6 488.089 29.6223   3
 -14   4  -6 517.240 34.8678   5
   4  10  -6 497.085 33.8542   3
  14 -10  -6 504.995 31.3377   3
  -4  14  -6 474.133 31.3707   5
 -10  -4  -6 501.088 31.8647   4
   7 -14  -6 787.922 45.3350   4
   7   7  -6 797.133 43.1988   3
 -14   7  -6 765.280 44.2707   5
   7   7   6 842.842 41.9757   3
 -14   7   6 823.454 44.5371   5
   7 -14   6 786.825 48.5615   4
  -7  14  -6 796.715 41.9420   5
  -7  -7   6 818.302 42.5279   5
  14  -7  -6 719.966 41.8820   3
   4  10   6 682.643 35.5308   3
 -14  10  -6 638.315 38.4323   5
   4 -14  -6 675.201 40.6198   4
  10   4  -6 628.961 37.5709   3
 -14   4   6 639.824 38.7054   5
  10 -14   6 635.910 42.8706   4
  14  -4  -6 526.155 36.3181   3
  14 -10   6 698.699 37.4552   4
 -10  14  -6 626.774 37.8506   5
 -10  -4   6 634.055 36.8741   5
  -4 -10  -6 649.396 38.3147   4
  -4  14   6 668.718 34.3060   3
 -14  13  -6 128.467 23.3311   5
   1 -14  -6 113.048 19.1181   4
 -14   1   6 134.264 23.1093   5
  13   1  -6 137.620 23.6200   3
  13 -14   6 72.9127 19.0341   4
   1  13   6 116.746 19.4687   3
  -1  14   6 114.015 15.9313   3
  -1 -13  -6 86.0362 17.3048   4
 -13  -1   6 130.994 22.3625   5
  14 -13   6 149.077 21.7547   4
  14  -1  -6 144.986 21.1954   3
 -13  14  -6 124.060 22.8197   5
   0  15  -6 121.356 19.1979   5
   0  15  -6 134.569 22.2686   3
  15 -15  -6 141.577 20.5696   3
 -15   0  -6 180.519 25.1386   5
 -15   0  -6 133.347 20.2891   4
  15 -15  -6 190.169 30.7123   4
 -15   3  -6 47.6856 17.9589   5
  12 -15  -6 76.4925 19.6640   4
  12 -15  -6 80.3763 15.4534   3
   3  12  -6 96.9352 19.8279   3
  15 -12  -6 82.0376 16.6798   3
  -3  15  -6 72.7407 16.6036   5
  -3  15  -6 83.2579 19.3320   3
 -12  -3  -6 55.8880 13.8310   4
 -15   6  -6 261.129 27.0005   5
   9 -15  -6 235.315 30.1607   4
   9   6   6 274.873 25.5531   3
   6 -15   6 339.039 45.3702   4
   6   9  -6 273.223 27.3737   3
 -15   9   6 294.632 30.3331   5
  15  -9  -6 241.125 22.3847   3
  -6  -9   6 266.133 23.8273   5
  -6  15  -6 218.878 22.0901   5
  15  -6   6 264.244 23.3660   4
  -9  -6  -6 238.514 24.3625   4
 -15   6   6 376.556 30.4648   5
 -15   9  -6 314.889 29.5095   5
   6   9   6 384.298 27.1317   3
   9 -15   6 413.954 36.1531   4
   9   6  -6 292.151 28.5717   3
   6 -15  -6 356.225 31.2048   4
  -6  15   6 352.070 23.2912   3
  -6  -9  -6 310.441 27.4868   4
  15  -9   6 368.933 27.1941   4
  -9  15  -6 284.428 26.2307   5
  15  -6  -6 288.695 25.6959   3
  -9  -6   6 340.365 26.7664   5
   3 -15  -6 313.429 29.5323   4
  12 -15   6 266.861 34.7339   4
   3  12   6 325.028 25.1333   3
 -15   3   6 276.256 28.5399   5
 -15  12  -6 291.945 28.2076   5
  12   3  -6 322.050 27.8407   3
  15 -12   6 346.684 29.2950   4
 -12  15  -6 324.895 28.0904   5
 -12  -3   6 296.742 26.2691   5
  15  -3  -6 335.877 27.4906   3
  -3 -12  -6 341.618 28.8333   4
  -3  15   6 316.944 23.8454   3
  15 -15   6 200.171 29.5477   4
 -15   0   6 205.160 25.1334   5
  15   0  -6 145.056 20.9480   3
   0  15   6 206.752 21.6813   3
   0 -15  -6 170.976 26.1073   4
  14 -16  -6 131.582 19.9000   3
   2  14  -6 178.330 27.5057   3
  14 -16  -6 144.598 23.4036   4
 -16   2  -6 158.684 21.0281   4
 -16   2  -6 174.747 25.0729   5
 -14  -2  -6 179.789 21.2975   4
  -2  16  -6 172.716 28.0277   3
  -2  16  -6 146.308 19.1859   5
 -14  -2  -6 213.917 27.2401   5
  16 -14  -6 164.934 22.3228   3
  11 -16  -6 284.637 23.2244   3
  11 -16  -6 343.359 33.3117   4
 -16   5  -6 334.183 29.3682   5
   5  11  -6 316.555 29.0895   3
 -16  11   6 351.231 34.2822   5
 -11  -5  -6 306.812 26.3827   4
  16 -11  -6 293.150 24.1291   3
  16  -5   6 290.214 24.5985   4
  -5  16  -6 315.471 26.1514   5
  -5 -11   6 327.193 26.0221   5
   8 -16  -6 128.393 19.9977   4
 -16   8   6 108.089 22.2018   5
 -16   8  -6 146.680 24.3007   5
   8   8  -6 138.736 20.2558   3
   8   8   6 146.782 22.6968   3
   8 -16   6 113.865 24.3148   4
  -8  16   6 112.197 18.3252   3
  -8  -8  -6 130.660 22.4332   4
  16  -8  -6 145.505 22.7406   3
  -8  16  -6 160.223 21.4157   5
  -8  -8   6 127.086 19.1046   5
  16  -8   6 73.4828 14.6459   4
  11   5  -6 209.675 23.7137   3
  11 -16   6 210.952 31.8711   4
 -16  11  -6 237.859 26.0632   5
 -16   5   6 206.228 27.4175   5
   5  11   6 250.039 24.0820   3
   5 -16  -6 251.275 29.7783   4
 -11  16  -6 225.390 24.3563   5
 -11  -5   6 219.940 23.6571   5
  16  -5  -6 220.416 22.7341   3
  -5  16   6 195.467 20.5574   3
  16 -11   6 223.458 24.1337   4
  -5 -11  -6 229.478 25.7085   4
   2 -16  -6 27.3998 16.9990   4
  14 -16   6 55.8086 20.8128   4
 -16  14  -6 26.9946 17.4833   5
  14   2  -6 19.8849 16.0505   3
   2  14   6 38.5747 15.5315   3
 -16   2   6 45.0262 18.8263   5
 -14  16  -6 46.5813 16.7995   5
  -2  16   6 46.7637 14.4582   3
  16  -2  -6 3.96652 15.0030   3
  16 -14   6 53.8949 19.8994   4
  -2 -14  -6 27.3629 15.5323   4
 -14  -2   6 35.5467 17.0155   5
 -17   1  -6 -0.0061 12.5628   4
  16 -17  -6 11.8827 21.0340   4
   1  16  -6 13.6855 19.1322   3
  16 -17  -6 -0.5322 12.6757   3
 -17   1  -6 18.9282 18.5768   5
  17 -16  -6 -0.0753 14.6492   3
 -16  -1  -6 7.27016 19.2731   5
  -1  17  -6 39.6078 20.9098   3
  -1  17  -6 -9.3879 12.4691   5
 -16  -1  -6 7.53029 13.3025   4
 -17   4  -6 139.055 24.4161   5
  13 -17  -6 120.683 19.1448   3
  13 -17  -6 165.994 24.1030   4
   4  13  -6 139.314 22.5905   3
  17 -13  -6 128.019 18.0946   3
 -13  -4  -6 124.978 21.0386   4
  -4  17  -6 129.826 20.9154   5
  -4 -13   6 112.325 19.7186   5
  10   7   6 501.867 32.7920   3
   7  10  -6 406.879 32.6599   3
 -17   7  -6 432.290 32.4709   5
   7 -17   6 381.015 41.7574   4
  10 -17  -6 491.338 37.1810   4
 -17  10   6 447.008 38.0540   5
  17  -7   6 463.386 30.5197   4
  17 -10  -6 439.673 30.4675   3
 -10  -7  -6 410.648 30.6383   4
  -7  17  -6 436.627 30.0240   5
   7  10   6 622.396 36.1706   3
  10 -17   6 669.925 45.2761   4
 -17   7   6 662.677 42.2560   5
 -17  10  -6 610.078 38.5780   5
   7 -17  -6 643.709 40.2315   4
  10   7  -6 657.194 38.4751   3
  -7 -10  -6 615.146 37.1087   4
  -7  17   6 579.195 33.4652   3
  17 -10   6 635.842 36.7317   4
 -10  17  -6 594.593 36.5255   5
  17  -7  -6 561.069 36.4483   3
 -10  -7   6 573.507 35.4691   5
 -17   4   6 59.7733 18.7235   5
  13   4  -6 80.4689 17.6544   3
  13 -17   6 31.2008 21.0294   4
   4  13   6 70.8322 16.5197   3
   4 -17  -6 68.7166 18.4410   4
 -17  13  -6 113.145 21.4751   5
  17  -4  -6 99.0983 18.8837   3
  -4  17   6 80.8671 15.1763   3
 -13  17  -6 93.8378 20.1805   5
  -4 -13  -6 51.1248 15.9292   4
 -13  -4   6 85.4689 19.2867   5
  17 -13   6 86.4529 19.5370   4
 -17   1   6 9.89125 17.1469   5
 -17  16  -6 31.5413 17.5336   5
  16   1  -6 -1.0703 15.2396   3
   1 -17  -6 17.8308 16.6180   4
  16 -17   6 -0.0833 20.5597   4
   1  16   6 -14.682 13.8297   3
 -16  -1   6 -2.9042 17.1493   5
  17 -16   6 8.85779 20.3325   4
  -1  17   6 2.97154 14.6096   3
  -1 -16  -6 -9.5986 16.1370   4
  17  -1  -6 5.48909 14.9025   3
 -16  17  -6 -12.952 15.6656   5
  18 -18  -6 150.192 21.4599   3
   0  18  -6 209.207 31.0200   3
 -18   0  -6 186.437 29.5994   5
  18 -18  -6 205.483 29.7104   4
 -18   0  -6 173.716 22.3779   4
   3  15  -6 121.435 22.9792   3
  15 -18  -6 42.1901 21.9103   4
 -18   3  -6 68.5083 20.7753   5
  15 -18  -6 53.1173 14.6129   3
 -15  -3  -6 84.9560 16.1564   4
  -3 -15   6 93.4976 17.5590   5
  -3  18  -6 94.0342 16.5695   5
  -3  18  -6 85.7026 22.7824   3
  18 -15  -6 79.8463 16.4226   3
  12 -18  -6 5.55990 18.7414   4
   6  12  -6 42.0434 20.2389   3
 -18  12   6 23.6013 22.7886   5
 -18   6  -6 49.6107 19.4229   5
 -12  -6  -6 24.6777 14.8163   4
  18  -6   6 13.4289 13.9983   4
  -6  18  -6 5.27834 14.4255   5
  18 -12  -6 34.6986 16.3908   3
  -6 -12   6 20.9370 14.7906   5
   9 -18  -6 177.223 29.8460   4
   9   9  -6 201.471 25.9016   3
 -18   9  -6 206.669 26.0139   5
   9 -18   6 163.028 27.6921   4
   9   9   6 245.725 26.7649   3
 -18   9   6 189.005 31.8736   5
  -9  18   6 199.478 20.9875   3
  -9  18  -6 174.176 22.5122   5
  -9  -9   6 220.147 24.3691   5
  -9  -9  -6 197.319 24.1422   4
  18  -9  -6 202.856 24.9431   3
  18  -9   6 210.362 23.6877   4
 -18   6   6 15.9702 18.9579   5
 -18  12  -6 19.2421 16.9933   5
   6 -18  -6 66.7633 19.2774   4
  12 -18   6 -1.2773 22.7321   4
   6  12   6 22.1836 14.8977   3
  12   6  -6 17.3900 16.9248   3
  18  -6  -6 12.8684 14.8346   3
  18 -12   6 14.3752 16.5991   4
 -12  -6   6 20.9547 16.9931   5
  -6 -12  -6 52.7711 18.0591   4
  -6  18   6 52.3344 14.4716   3
 -12  18  -6 53.2540 16.5439   5
 -18  15  -6 11.0678 17.9403   5
  15 -18   6 -20.881 20.3748   4
   3  15   6 9.61254 15.6835   3
   3 -18  -6 -22.580 15.9468   4
 -18   3   6 12.8670 19.1731   5
  15   3  -6 4.01168 14.8394   3
 -15  -3   6 22.1022 14.6145   5
  18  -3  -6 0.68078 15.8298   3
  18 -15   6 23.1518 20.2852   4
  -3 -15  -6 6.45646 15.5094   4
 -15  18  -6 3.20061 15.9302   5
  -3  18   6 12.8855 12.1914   3
   0 -18  -6 34.7602 16.4706   4
 -18  18  -6 56.0197 18.8803   5
 -18   0   6 46.3913 18.0849   5
  18   0  -6 53.8303 18.3594   3
   0  18   6 24.8823 14.9617   3
  18 -18   6 21.1003 21.7168   4
 -19   2  -6 137.473 24.0567   5
  17 -19  -6 136.051 19.5826   3
   2  17  -6 126.066 24.4686   3
  17 -19  -6 141.596 26.9750   4
  -2 -17   6 139.181 21.3723   5
  -2  19  -6 189.404 27.6715   3
 -17  -2  -6 234.080 47.8083   5
  19 -17  -6 121.466 20.9544   3
 -17  -2  -6 148.034 21.3393   4
  -2  19  -6 142.206 20.7455   5
  14 -19  -6 135.925 24.0751   4
 -19   5  -6 156.974 27.8323   5
   5  14  -6 172.609 27.4946   3
  19  -5   6 187.493 22.6765   4
  -5 -14   6 152.959 23.5793   5
  19 -14  -6 175.041 23.2475   3
 -14  -5  -6 180.806 22.4238   4
  -5  19  -6 168.484 21.1418   5
  11   8   6 87.3088 21.3620   3
   8 -19   6 68.4893 27.8645   4
  11 -19  -6 64.6830 19.7956   4
 -19  11   6 88.1374 23.7219   5
 -19   8  -6 112.765 21.9255   5
   8  11  -6 70.8987 20.5133   3
 -11  -8  -6 120.292 18.6452   4
  -8  19  -6 64.7851 16.0868   5
  -8 -11   6 94.8320 18.8185   5
  19  -8   6 100.052 17.4252   4
  19 -11  -6 102.799 18.8956   3
 -11  19   6 102.456 15.3057   3
  11 -19   6 185.041 29.4693   4
 -19   8   6 105.039 23.5707   5
 -19  11  -6 116.665 20.6959   5
  11   8  -6 164.200 24.9888   3
   8  11   6 142.430 24.2542   3
   8 -19  -6 110.828 20.0275   4
  19 -11   6 125.240 18.8806   4
  -8  19   6 134.022 19.2376   3
  19  -8  -6 106.846 19.0253   3
 -11  -8   6 144.500 22.4645   5
 -11  19  -6 130.510 22.1777   5
  -8 -11  -6 91.4114 16.8959   4
  14 -19   6 20.3092 22.9083   4
 -19  14  -6 46.7658 18.5855   5
   5  14   6 46.8315 15.7393   3
  14   5  -6 36.9095 17.7345   3
   5 -19  -6 45.4918 18.6949   4
 -19   5   6 41.1936 21.9735   5
  19 -14   6 44.1537 18.0803   4
  -5  19   6 12.0821 12.8070   3
 -14  -5   6 32.3796 15.6143   5
 -14  19  -6 51.6522 19.3933   5
  19  -5  -6 54.5771 16.5504   3
  -5 -14  -6 33.0876 15.3635   4
   2 -19  -6 14.0838 16.2575   4
   2  17   6 13.9111 14.5775   3
  17   2  -6 15.3925 17.0420   3
  17 -19   6 -4.8249 21.3656   4
 -19   2   6 1.22264 17.5917   5
 -19  17  -6 -2.3112 18.3883   5
  -2 -17  -6 20.0191 15.9491   4
  19  -2  -6 13.8491 16.9534   3
  19 -17   6 6.96276 20.0489   4
  -2  19   6 3.13743 14.9229   3
 -17  19  -6 15.2133 17.4136   5
 -17  -2   6 -2.0468 17.2035   5
   1  19  -6 22.1394 22.0937   3
  19 -20  -6 19.7292 24.9617   4
  19 -20  -6 15.7496 14.5014   3
 -20   1  -6 13.4490 22.0609   5
  -1  20  -6 9.91048 22.9264   3
 -19  -1  -6 33.1546 14.4448   4
  20 -19  -6 19.2936 14.6078   3
 -19  -1  -6 61.8688 23.8044   5
  -1 -19   6 19.0148 15.9934   5
 -20   4  -6 68.7445 21.5916   5
   4  16  -6 70.5893 22.0509   3
  16 -20  -6 57.2409 23.7096   4
  20  -4   6 74.6363 14.6753   4
  -4  20  -6 72.2211 15.4907   5
 -16  -4  -6 63.6580 14.2270   4
  -4 -16   6 57.9389 16.8498   5
  20 -16  -6 112.176 19.1853   3
 -20   7  -6 80.3342 19.9573   5
  13 -20  -6 117.872 23.8665   4
   7  13  -6 113.404 21.4791   3
 -20  13   6 126.179 29.3461   5
  -7  20  -6 93.4296 17.7825   5
  -7 -13   6 150.469 21.4064   5
 -13  -7  -6 64.4593 15.2384   4
  20  -7   6 98.6397 17.0359   4
 -13  20   6 99.6927 15.6709   3
  20 -13  -6 142.100 20.3633   3
 -20  10   6 269.634 34.5686   5
  10  10  -6 273.182 28.9760   3
  10  10   6 296.423 30.5999   3
 -20  10  -6 254.748 28.7086   5
  10 -20   6 273.056 43.3810   4
  10 -20  -6 283.968 30.8926   4
  20 -10  -6 254.614 26.6584   3
 -10  20  -6 228.463 24.1113   5
 -10 -10   6 290.873 26.3138   5
  20 -10   6 284.789 26.2013   4
 -10 -10  -6 247.688 26.1662   4
 -10  20   6 281.771 23.0466   3
   7  13   6 9.82168 16.5046   3
 -20  13  -6 41.1651 18.9074   5
  13 -20   6 11.8149 24.4193   4
 -20   7   6 -10.259 20.8535   5
   7 -20  -6 28.3724 17.2490   4
  13   7  -6 20.8449 16.3090   3
  -7  20   6 14.0190 12.9773   3
 -13  -7   6 22.7166 16.3957   5
 -13  20  -6 3.32458 15.7323   5
  -7 -13  -6 20.7316 17.0690   4
  20 -13   6 23.9994 16.5666   4
  20  -7  -6 1.13645 17.9564   3
  16   4  -6 27.8497 16.9146   3
  16 -20   6 22.9437 25.0200   4
 -20   4   6 -8.2549 17.6295   5
   4  16   6 29.9531 15.9838   3
 -20  16  -6 38.9376 18.1716   5
   4 -20  -6 21.0684 19.0645   4
  -4 -16  -6 13.5992 15.1077   4
 -16  20  -6 36.1578 19.0656   5
  20  -4  -6 14.4350 15.5479   3
  -4  20   6 29.7133 15.2827   3
  20 -16   6 22.5175 21.7398   4
 -16  -4   6 9.80344 17.2925   5
  19   1  -6 27.2359 16.9974   3
  19 -20   6 25.8223 24.9964   4
   1  19   6 21.1095 16.5525   3
 -20  19  -6 6.96367 16.9440   5
   1 -20  -6 42.5728 19.0198   4
 -20   1   6 39.7070 21.5370   5
  20  -1  -6 41.8216 16.7089   3
  -1  20   6 26.5113 15.1405   3
  20 -19   6 55.6058 24.7354   4
 -19  20  -6 31.1376 18.8528   5
 -19  -1   6 10.5534 17.8103   5
  -1 -19  -6 23.3774 17.9418   4
  18 -21  -6 105.210 27.3614   4
 -21   3  -6 110.387 23.5688   5
   3  18  -6 117.394 24.1014   3
  -3  21  -6 109.571 17.6971   5
  21 -18  -6 134.712 19.2611   3
  -3 -18   6 89.9539 18.3716   5
  21  -3   6 88.1634 17.1618   4
 -18  -3  -6 103.950 17.2915   4
 -21   6  -6 0.09915 19.1394   5
  15 -21  -6 -12.016 20.2761   4
   6  15  -6 -1.8581 20.1236   3
  21 -15  -6 -1.0864 16.4863   3
  -6 -15   6 3.35900 15.1218   5
  21  -6   6 0.30261 13.7950   4
 -15  -6  -6 17.0372 14.4156   4
 -15  21   6 4.14529 13.0829   3
  -6  21  -6 8.55965 14.3708   5
  12   9   6 61.5502 20.2008   3
  12 -21  -6 20.7761 18.7902   4
   9 -21   6 17.7655 27.7667   4
 -21   9  -6 48.0993 19.9639   5
   9  12  -6 26.6411 19.5406   3
 -21  12   6 28.5446 23.0045   5
  -9 -12   6 29.9444 16.9027   5
 -12  -9  -6 12.8072 15.4851   4
  -9  21  -6 25.6948 15.2559   5
 -12  21   6 16.9716 13.6472   3
  21  -9   6 33.8139 16.1518   4
  21 -12  -6 17.6073 16.8076   3
  12 -21   6 -34.280 26.4017   4
 -21  12  -6 -6.9722 18.0335   5
   9  12   6 31.3426 20.4162   3
 -21   9   6 -8.1813 19.7096   5
  12   9  -6 -4.7081 17.8531   3
   9 -21  -6 7.18733 18.4095   4
 -12  -9   6 -9.8744 14.9488   5
  21 -12   6 9.17352 15.7172   4
  -9  21   6 12.6106 13.1275   3
  21  -9  -6 -13.901 15.7987   3
  -9 -12  -6 -11.502 14.5344   4
 -12  21  -6 3.55051 15.8644   5
  15 -21   6 10.6745 24.3904   4
   6 -21  -6 3.82149 16.7060   4
   6  15   6 0.00040 16.8009   3
 -21   6   6 0.47764 21.8444   5
  15   6  -6 9.40816 16.6940   3
 -21  15  -6 4.83317 18.2492   5
  21 -15   6 20.4028 19.8494   4
  -6 -15  -6 11.9429 16.5873   4
 -15  -6   6 -2.5149 16.3724   5
  21  -6  -6 -1.2405 15.5778   3
  -6  21   6 14.3918 14.3143   3
 -15  21  -6 1.65101 16.8890   5
   3 -21  -6 61.6884 19.0425   4
   3  18   6 54.7458 18.6227   3
  18   3  -6 40.6246 16.8440   3
 -21  18  -6 84.4407 20.4294   5
  18 -21   6 8.11109 25.9297   4
 -21   3   6 50.1434 22.2384   5
 -18  21  -6 78.2669 19.7614   5
 -18  -3   6 34.8799 17.9868   5
  21  -3  -6 31.7083 16.4965   3
  -3  21   6 33.3942 16.0113   3
  -3 -18  -6 59.2847 18.5097   4
  21 -18   6 9.03884 21.0377   4
 -22   5  -6 104.152 24.5191   5
   5  17  -6 117.132 24.6430   3
  17 -22  -6 131.128 27.1976   4
  -5  22  -6 111.616 20.7392   5
  22  -5   6 85.0173 17.1926   4
  -5 -17   6 93.2143 18.7325   5
  22 -17  -6 147.622 20.4094   3
 -17  -5  -6 122.869 21.4252   4
 -17  22   6 80.3489 15.1676   3
   8  14  -6 36.7506 20.9044   3
 -22   8  -6 53.4670 19.5888   5
  14 -22  -6 35.1681 21.9087   4
  -8  22  -6 33.3230 16.5966   5
  -8 -14   6 28.3944 15.9967   5
 -14  -8  -6 38.4580 15.0903   4
 -14  22   6 33.4959 13.7374   3
  22  -8   6 33.0924 16.1308   4
  22 -14  -6 44.6655 17.7100   3
  11 -22   6 47.3973 29.4901   4
 -22  11   6 34.3637 25.1042   5
  11  11  -6 50.0497 20.8666   3
 -22  11  -6 38.7235 18.2205   5
  11 -22  -6 47.9181 20.5317   4
  11  11   6 68.8342 22.2328   3
  22 -11   6 41.7165 17.0354   4
 -11  22   6 56.2231 15.2004   3
 -11  22  -6 52.1309 16.6820   5
  22 -11  -6 31.1808 16.6853   3
 -11 -11   6 55.2572 18.1055   5
 -11 -11  -6 65.6964 17.6299   4
  14 -22   6 2.63282 26.7280   4
 -22  14  -6 62.1797 20.6432   5
   8 -22  -6 13.3797 18.1741   4
  14   8  -6 -0.6104 16.9485   3
 -22   8   6 20.3475 22.2867   5
   8  14   6 34.3410 20.2649   3
  -8  22   6 18.1581 13.5519   3
 -14  22  -6 -2.3081 15.9855   5
 -14  -8   6 17.6241 15.2068   5
  22 -14   6 26.6629 19.9053   4
  22  -8  -6 13.4797 16.9130   3
  -8 -14  -6 12.0809 16.9661   4
  17 -22   6 16.5476 25.5469   4
   5  17   6 26.8680 17.9638   3
 -22  17  -6 7.69837 18.2131   5
 -22   5   6 26.3400 22.3395   5
  17   5  -6 39.2609 18.2463   3
   5 -22  -6 31.3643 19.5445   4
  -5  22   6 2.68171 14.1695   3
 -17  -5   6 23.4210 17.0502   5
  22  -5  -6 43.4062 18.2563   3
 -17  22  -6 37.7972 17.2681   5
  -5 -17  -6 21.0999 17.9521   4
  22 -17   6 3.91702 21.4175   4
 -23   7  -6 159.003 25.0769   5
  16 -23  -6 77.4893 23.1663   4
   7  16  -6 147.118 24.5804   3
 -16  -7  -6 150.090 22.9513   4
  23 -16  -6 168.558 23.5867   3
 -16  23   6 103.252 17.4852   3
  -7 -16   6 131.190 24.3606   5
  -7  23  -6 150.513 21.4373   5
  13 -23  -6 4.07012 19.6185   4
 -23  13   6 76.5377 26.9359   5
 -23  10  -6 20.8811 20.7244   5
  10  13  -6 9.26047 19.4211   3
  23 -13  -6 -4.9167 15.3388   3
 -13 -10  -6 -8.1303 16.0442   4
  23 -10   6 1.38594 15.7253   4
 -10 -13   6 21.7943 16.5288   5
 -13  23   6 10.6453 13.8321   3
 -10  23  -6 3.51184 15.2192   5
 -23  13  -6 57.4303 19.4297   5
  13  10  -6 40.2062 19.0588   3
  13 -23   6 36.1889 28.0222   4
  10 -23  -6 5.58705 18.3248   4
 -23  10   6 10.0539 23.8614   5
  10  13   6 26.3600 20.3692   3
  23 -13   6 7.40075 16.9401   4
 -10 -13  -6 27.4828 16.5628   4
  23 -10  -6 -10.071 17.4259   3
 -10  23   6 19.4270 14.5510   3
 -13 -10   6 23.3876 17.5226   5
 -13  23  -6 12.3195 14.7216   5
   7  16   6 47.6928 21.0722   3
 -23   7   6 29.2611 20.5541   5
   7 -23  -6 16.8543 17.9613   4
  16   7  -6 28.7806 18.9091   3
  16 -23   6 -15.233 26.5007   4
 -23  16  -6 34.2530 18.8032   5
  23  -7  -6 11.5751 16.0879   3
 -16  -7   6 32.4891 17.3591   5
 -16  23  -6 26.0437 17.9180   5
  -7 -16  -6 41.9110 18.7037   4
  -7  23   6 25.6325 15.3642   3
  23 -16   6 42.5328 21.9450   4
  -1   0  -7 77.5663 15.5274   5
   0   1  -7 60.9811 13.4186   4
   1  -1  -7 96.2782 19.2897   4
   0   1  -7 63.0495 13.9068   3
   1  -1  -7 71.7281 14.6365   3
  -1   0  -7 66.1734 14.2922   4
   1  -1  -7 58.0475 13.8852   5
   0   1  -7 71.7498 14.5006   5
  -1   0  -7 49.9788 14.0164   3
   2   0  -7 227.228 21.4881   5
   2   0  -7 230.051 22.4158   3
   0  -2  -7 233.581 21.8128   5
   0  -2  -7 215.619 21.9034   3
  -2   2  -7 246.855 23.6238   5
   0  -2  -7 281.651 23.1358   4
  -2   2  -7 254.697 22.9092   3
  -3   1  -7 -2.8860 12.5499   3
   2  -3  -7 12.3377 12.9320   3
   2  -3  -7 6.05338 12.5742   4
  -3   1  -7 23.2752 12.1876   4
  -3   1  -7 2.03493 14.8502   5
   1   2  -7 3.34886 12.5667   3
   1   2  -7 -11.342 12.1066   5
  -1   3  -7 -0.1323 12.4469   3
  -2  -1  -7 -1.2557 11.6300   4
   3  -2  -7 -0.5967 11.9928   4
  -2  -1  -7 1.06598 13.9797   5
  -2  -1  -7 4.67555 11.6743   3
  -1   3  -7 16.0923 13.1548   5
   3  -2  -7 15.2407 12.9658   3
  -4   4   7 234.755 23.5189   5
   4  -4  -7 283.766 24.0657   3
   4  -4  -7 280.156 26.7435   4
  -4   0  -7 255.572 24.3097   3
  -4   0  -7 291.809 23.5139   4
   0   4  -7 270.787 22.6515   5
   0   4  -7 278.007 24.9844   3
  -4   0  -7 299.253 25.1130   5
  -4   3  -7 143.980 19.8549   3
   1  -4  -7 178.303 22.8671   4
   3  -4   7 153.788 19.3103   4
   1  -4  -7 155.896 19.3762   3
   1  -4  -7 138.398 19.5205   5
   3   1  -7 186.828 23.0274   3
  -4   3  -7 131.158 22.5679   5
  -1  -3  -7 135.329 19.5377   3
   4  -1  -7 157.760 21.0265   3
  -1  -3  -7 147.477 20.3676   4
  -3   4  -7 180.617 22.3650   5
   2   3  -7 183.833 23.3149   3
   3  -5  -7 218.289 23.6148   4
  -5   3   7 237.431 22.4458   5
  -5   2  -7 239.432 24.4718   5
   3  -5  -7 234.534 21.8983   3
  -5   2  -7 224.304 20.6583   4
   2  -5   7 227.512 23.6648   4
   2   3  -7 211.602 21.1543   5
  -2   5  -7 198.570 22.4198   5
   5  -3  -7 222.914 22.9276   3
  -3  -2  -7 221.924 20.5144   3
  -3   5   7 253.390 24.5022   5
  -2   5  -7 202.106 23.1896   3
  -3  -2  -7 243.693 23.0747   4
  -3  -2  -7 250.867 24.2220   5
   5   0  -7 160.307 22.6706   3
   0  -5  -7 167.785 22.7430   4
  -5   0   7 201.999 21.2504   5
  -5   5  -7 171.330 22.2985   5
   5  -5   7 158.791 20.6066   4
   0  -5  -7 129.802 19.3918   3
  -6   1  -7 107.977 18.4767   5
  -6   1  -7 105.276 18.2811   4
  -6   5   7 63.1501 15.4311   5
   1   5  -7 73.4711 16.1962   5
   1   5  -7 95.0430 18.5089   3
   5  -6  -7 55.1607 14.1486   3
   5  -6  -7 105.745 17.4840   4
  -5  -1  -7 91.4112 18.0858   5
  -1   6  -7 84.4501 17.5582   3
  -5  -1  -7 86.7793 15.0682   4
  -1   6  -7 79.9167 15.6303   5
   6  -5  -7 103.801 16.6279   3
   2  -6  -7 -16.639 11.1826   3
  -6   4  -7 16.8668 14.6996   5
   4   2  -7 32.7716 16.2745   3
   2  -6  -7 10.4260 14.2429   4
   4  -6   7 13.5458 11.4220   4
  -6   2   7 -15.273 13.2379   5
  -2  -4  -7 10.1012 14.4849   4
   6  -2  -7 9.05050 14.5913   3
  -4   6  -7 9.71320 15.1960   5
  -7   0  -7 1023.84 48.1758   4
   0   7  -7 951.484 48.0426   5
  -7   0  -7 1016.44 50.8400   5
   0   7  -7 1002.64 50.2820   3
   7  -7  -7 1039.54 52.1944   4
  -7   7   7 899.995 49.9805   5
   7  -7  -7 1007.75 48.5869   3
  -7   3  -7 570.220 34.8355   5
   4  -7  -7 580.903 31.9163   3
   4   3   7 532.752 31.8270   3
   3   4  -7 592.306 35.7395   3
  -7   4   7 549.025 34.5229   5
   4  -7  -7 593.314 35.9415   4
  -3   7  -7 550.053 33.7761   5
  -3   7  -7 546.265 37.1695   3
  -4  -3  -7 578.977 33.5162   4
   7  -4  -7 552.689 33.5302   3
   6   1  -7 99.2222 19.2671   3
  -7   1   7 95.2376 17.9033   5
   1  -7  -7 105.383 18.2381   4
  -7   6  -7 76.0357 17.6876   5
   6  -7   7 99.4944 15.8254   4
  -6   7  -7 91.0652 17.1663   5
   7  -1  -7 103.840 18.5865   3
  -6  -1   7 84.8324 17.7424   5
   7  -6   7 74.8872 15.3445   4
  -1  -6  -7 75.3553 15.9525   4
  -8   6   7 400.709 29.0411   5
   6  -8  -7 379.558 26.9660   3
  -8   2  -7 376.273 26.2830   4
   2   6  -7 375.957 29.5271   3
   6   2   7 416.204 26.3623   3
  -8   2  -7 365.379 30.0391   5
   6  -8  -7 392.834 30.3244   4
  -2   8  -7 387.370 27.4393   5
  -6  -2  -7 380.668 29.3135   5
   8  -6  -7 391.859 27.9561   3
  -6  -2  -7 402.382 27.9746   4
  -2   8  -7 427.340 31.2443   3
   3   5   7 152.235 18.2358   3
   3  -8  -7 118.268 19.1111   3
   5   3  -7 169.122 21.2524   3
   3  -8  -7 176.451 21.6773   4
   5  -8   7 168.288 23.6625   4
  -8   3   7 172.805 22.2989   5
  -8   5  -7 166.674 23.4045   5
   8  -5   7 130.785 20.2893   4
   8  -3  -7 162.258 23.0371   3
  -5  -3   7 140.824 19.8662   5
  -5   8  -7 130.417 21.2566   5
  -3  -5  -7 151.189 23.1885   4
   0   8   7 120.878 18.1401   3
   8  -8   7 72.7260 15.3931   4
   8   0  -7 124.997 19.4155   3
   0  -8  -7 79.5717 17.1009   4
  -8   0   7 117.141 19.5336   5
  -8   8  -7 96.6039 18.5692   5
  -9   1  -7 171.977 24.6131   5
   1   8  -7 135.217 20.2160   3
  -9   1  -7 140.870 20.2775   4
  -9   8   7 154.089 30.5131   5
   8  -9  -7 167.383 25.2488   4
   1   8  -7 141.537 20.0214   5
   8  -9  -7 138.765 20.6055   3
  -8  -1  -7 193.678 25.3462   5
  -1   9  -7 122.180 19.6913   5
  -8  -1  -7 148.612 20.6028   4
  -1   9  -7 185.329 24.8837   3
   9  -8  -7 168.411 22.1922   3
   4  -9   7 103.135 21.8659   4
  -9   4  -7 137.153 21.6520   5
  -9   5   7 97.5077 17.7472   5
   4   5  -7 100.487 18.6561   3
   5  -9  -7 122.455 16.9384   3
   5   4   7 98.9966 15.1608   3
   5  -9  -7 149.469 20.5334   4
  -5  -4  -7 88.3086 16.2412   4
  -4   9  -7 163.568 21.1796   5
   9  -5  -7 132.019 18.7845   3
   2  -9  -7 212.686 24.7326   4
  -9   2   7 136.912 22.1387   5
  -9   7  -7 179.783 23.1042   5
   7   2  -7 148.130 24.0631   3
   2   7   7 145.468 19.9985   3
   7  -9   7 137.421 24.0013   4
   9  -7   7 139.886 21.9046   4
  -2  -7  -7 198.966 24.9051   4
  -7   9  -7 178.253 21.6591   5
  -7  -2   7 166.082 22.5530   5
   9  -2  -7 179.377 23.8652   3
   0  10  -7 516.837 36.0751   3
  10 -10  -7 511.922 31.3617   3
   0  10  -7 504.625 31.4868   5
 -10   0  -7 547.961 31.5478   4
 -10   0  -7 465.221 35.3735   5
 -10   3  -7 604.050 37.9908   5
   7 -10  -7 584.443 34.0977   3
   3   7  -7 626.221 38.6499   3
 -10   7   7 617.404 39.2319   5
   7 -10  -7 653.803 39.3754   4
  -7  -3  -7 612.997 35.9816   4
  -3  10  -7 767.875 55.9065   3
  -3  10  -7 622.463 36.1589   5
  10  -7  -7 627.248 36.3335   3
 -10   4   7 198.489 24.7437   5
   4   6   7 174.346 21.2048   3
   4 -10  -7 245.050 27.6532   4
   6   4  -7 216.319 25.7159   3
   6 -10   7 172.840 29.0795   4
 -10   6  -7 207.556 25.5981   5
  -6  -4   7 234.828 23.2333   5
  -6  10  -7 210.804 23.5827   5
  10  -4  -7 223.899 24.0384   3
  -4  -6  -7 249.436 24.9538   4
  10  -6   7 213.531 23.1318   4
   9 -10   7 17.1755 16.6242   4
 -10   1   7 27.7066 15.4450   5
   9   1  -7 23.9824 16.7145   3
 -10   9  -7 19.0332 16.2250   5
   1   9   7 -3.4023 11.6412   3
   1 -10  -7 12.2156 16.3886   4
  -9  10  -7 16.8207 16.9987   5
  10  -1  -7 7.27245 17.1907   3
  -1  -9  -7 8.54517 15.8292   4
  10  -9   7 19.8722 13.2391   4
  -1  10   7 14.8349 11.8621   3
  -9  -1   7 8.48000 15.4134   5
   9 -11  -7 263.346 29.5222   4
   2   9  -7 281.349 27.3550   3
 -11   2  -7 197.000 22.4098   4
   9 -11  -7 215.928 21.6612   3
 -11   2  -7 230.908 26.4246   5
   2   9  -7 206.328 22.3130   5
  -2  11  -7 214.410 27.0912   3
  11  -9  -7 231.784 22.5646   3
  -9  -2  -7 261.399 31.5323   5
  -2  11  -7 239.022 23.5328   5
  -9  -2  -7 229.382 23.1252   4
   6   5   7 140.251 20.3680   3
 -11   6   7 143.783 25.0105   5
 -11   5  -7 145.540 24.9672   5
   5   6  -7 147.384 24.6053   3
   5 -11   7 84.4153 32.6318   4
   6 -11  -7 119.324 19.1887   3
   6 -11  -7 164.663 26.7359   4
  11  -6  -7 127.283 21.3851   3
  -6  -5  -7 98.4544 17.3745   4
  -5  11  -7 144.890 22.3040   5
  11  -5   7 122.782 20.5401   4
  -5  -6   7 106.035 19.8546   5
   8 -11   7 225.419 32.0718   4
   3   8   7 268.048 22.9761   3
 -11   3   7 282.454 26.8167   5
   8   3  -7 275.525 26.5851   3
 -11   8  -7 215.490 26.1610   5
   3 -11  -7 254.433 28.3979   4
  -8  11  -7 238.775 24.2207   5
  11  -8   7 248.054 25.4203   4
  11  -3  -7 238.219 26.8883   3
  -3  11   7 266.675 22.4635   3
  -3  -8  -7 247.621 26.1482   4
  -8  -3   7 248.797 25.2681   5
 -11   0   7 476.348 32.8273   5
 -11  11  -7 438.327 32.3856   5
  11   0  -7 428.788 32.1261   3
  11 -11   7 480.851 36.2096   4
   0 -11  -7 508.031 34.3643   4
   0  11   7 485.169 29.5894   3
   1  11  -7 75.4521 16.5552   5
 -12   1  -7 48.7484 13.5052   4
 -12   1  -7 49.9787 19.3213   5
  11 -12  -7 26.7803 13.8492   3
  11 -12  -7 21.5618 19.2433   4
   1  11  -7 70.6868 19.7455   3
 -11  -1  -7 62.0648 20.7702   5
  -1  12  -7 36.5465 19.1307   3
  12 -11  -7 45.9309 15.4640   3
 -11  -1  -7 59.4372 14.1722   4
  -1  12  -7 64.8893 16.6704   5
   4   8  -7 154.025 25.0936   3
 -12   4  -7 197.650 26.9787   5
   8 -12  -7 222.260 27.7159   4
   8 -12  -7 183.292 21.2495   3
 -12   8   7 261.367 30.2511   5
  12  -8  -7 178.925 23.8561   3
  -8  -4  -7 211.591 23.6009   4
  -4  12  -7 189.067 22.7035   5
   5 -12  -7 302.940 29.5194   4
   7   5  -7 303.252 28.9980   3
   7 -12   7 208.882 35.5476   4
 -12   7  -7 306.901 29.7825   5
   5   7   7 329.404 26.4489   3
 -12   5   7 313.323 29.4383   5
  -5  -7  -7 329.016 27.0611   4
  -7  12  -7 329.965 26.8264   5
  12  -5  -7 325.739 27.9306   3
  -7  -5   7 315.678 27.0523   5
  10   2  -7 306.447 27.9894   3
 -12   2   7 311.014 27.7479   5
 -12  10  -7 292.050 28.2800   5
   2 -12  -7 305.353 28.9204   4
  10 -12   7 282.759 34.2471   4
  12  -2  -7 293.369 28.3834   3
 -10  12  -7 257.436 26.7464   5
 -10  -2   7 284.412 25.9186   5
  12 -10   7 294.324 28.2697   4
  -2 -10  -7 301.822 28.5337   4
 -13   0  -7 148.367 21.3914   4
  13 -13  -7 141.861 21.8442   3
   0  13  -7 158.851 20.6331   5
 -13   0  -7 170.920 25.0848   5
   0  13  -7 179.301 25.2189   3
  10 -13  -7 192.929 30.9791   4
  10 -13  -7 199.127 21.1793   3
 -13   3  -7 163.173 27.0784   5
   3  10  -7 168.500 26.7602   3
 -10  -3  -7 231.681 22.6949   4
  -3  13  -7 201.639 21.5870   5
  13 -10  -7 202.454 23.9902   3
   7   6   7 169.058 24.0454   3
 -13   6  -7 95.8360 19.5159   5
   7 -13  -7 126.062 21.2754   4
   6   7  -7 133.915 20.2995   3
 -13   7   7 117.809 21.6921   5
  13  -6   7 79.0142 15.4671   4
  -7  -6  -7 150.262 19.9787   4
  13  -7  -7 126.575 18.3179   3
  -6  13  -7 106.410 19.9237   5
  -6  -7   7 85.9184 16.7757   5
   4 -13  -7 42.3867 17.9758   4
   4   9   7 8.74079 13.6561   3
 -13   9  -7 51.6082 19.7858   5
   9   4  -7 17.5671 16.9259   3
 -13   4   7 34.4323 17.9639   5
   9 -13   7 24.4602 22.5085   4
  -9  13  -7 13.3183 15.0382   5
  -4  -9  -7 12.6748 14.8482   4
  13  -9   7 19.6491 14.0070   4
  -4  13   7 18.3931 12.1597   3
  13  -4  -7 50.3727 18.8145   3
  -9  -4   7 2.07786 15.4930   5
  12   1  -7 79.7181 17.7148   3
   1  12   7 55.3782 14.9420   3
 -13  12  -7 67.7848 18.3578   5
 -13   1   7 80.9364 19.5858   5
   1 -13  -7 97.9002 19.8304   4
  12 -13   7 53.8793 21.3062   4
  13 -12   7 96.5912 21.2191   4
 -12  -1   7 106.764 19.5699   5
 -12  13  -7 99.7688 20.4246   5
  13  -1  -7 99.6142 18.2755   3
  -1  13   7 68.0582 14.5272   3
  -1 -12  -7 100.181 19.6687   4
  12 -14  -7 66.1731 16.4451   3
   2  12  -7 95.9488 22.7119   3
 -14   2  -7 79.7458 21.5778   5
  12 -14  -7 94.7645 23.1750   4
  -2  14  -7 107.201 22.5203   3
  -2  14  -7 49.0295 14.7695   5
 -12  -2  -7 70.1386 15.0328   4
  14 -12  -7 68.3741 15.8941   3
 -14   5  -7 55.0005 19.6984   5
   9 -14  -7 101.119 22.3855   4
   5   9  -7 82.5612 21.3944   3
  -9  -5  -7 88.6398 17.2194   4
  -5  14  -7 75.6583 18.5118   5
  -5  -9   7 59.1166 17.3892   5
  14  -9  -7 65.4725 17.4237   3
  14  -5   7 71.8664 15.4280   4
 -14   6   7 82.2513 21.9807   5
   6 -14  -7 104.015 21.2491   4
   6   8   7 157.976 23.7974   3
   8   6  -7 110.273 21.0088   3
 -14   8  -7 101.347 21.3301   5
   8 -14   7 48.7353 24.4810   4
  -8  14  -7 80.8981 17.3465   5
  -6  14   7 60.1836 13.7593   3
  -6  -8  -7 81.0904 16.2270   4
  14  -8   7 107.075 17.6247   4
  -8  -6   7 91.3035 18.5049   5
  14  -6  -7 98.5344 18.6991   3
   3 -14  -7 338.170 32.2023   4
 -14  11  -7 322.066 29.5974   5
  11   3  -7 314.325 29.6339   3
  11 -14   7 307.526 38.7348   4
 -14   3   7 327.666 30.4620   5
   3  11   7 337.490 27.1415   3
  -3 -11  -7 345.968 29.1680   4
  14 -11   7 372.283 30.1547   4
 -11  -3   7 326.021 27.8310   5
  14  -3  -7 300.809 28.7525   3
 -11  14  -7 336.856 28.7239   5
  -3  14   7 349.056 25.1740   3
  14 -14   7 549.068 40.3662   4
   0 -14  -7 564.498 36.7518   4
 -14  14  -7 429.628 33.6660   5
   0  14   7 515.884 32.1210   3
  14   0  -7 524.715 34.7664   3
  14 -15  -7 -14.881 12.9259   3
 -15   1  -7 15.1397 21.2974   5
   1  14  -7 -0.9382 19.8787   3
  15 -14  -7 12.2752 15.5635   3
  -1  15  -7 4.97706 14.9799   5
 -14  -1  -7 0.25783 14.2841   4
  -1  15  -7 -26.080 20.9418   3
  11 -15  -7 5.03182 13.6180   3
 -15   4  -7 10.0882 19.2491   5
  11 -15  -7 29.0915 20.2661   4
   4  11  -7 -20.570 17.5713   3
  15  -4   7 -3.2733 11.9598   4
  -4  15  -7 10.5320 13.8925   5
  -4 -11   7 19.3860 15.2464   5
  15 -11  -7 10.3307 15.8686   3
 -11  -4  -7 -4.4737 13.3309   4
 -15   8   7 86.2201 24.4181   5
   8   7   7 113.501 20.3641   3
   8 -15  -7 82.1473 22.2391   4
   7   8  -7 82.0399 21.8226   3
 -15   7  -7 112.086 22.5918   5
  -8  -7  -7 76.5400 17.1926   4
  -8  15   7 104.715 15.6096   3
  -7  -8   7 121.459 19.5671   5
  15  -8  -7 73.4328 16.7216   3
  15  -7   7 103.863 17.2764   4
  -7  15  -7 75.7739 18.8699   5
 -15   5   7 172.181 27.4302   5
  10   5  -7 171.799 25.3972   3
   5 -15  -7 179.678 28.0859   4
  10 -15   7 196.951 29.7499   4
   5  10   7 180.488 25.1222   3
 -15  10  -7 111.523 21.6097   5
 -10  15  -7 152.390 22.7770   5
  15  -5  -7 174.259 23.1557   3
  -5 -10  -7 142.910 24.5763   4
 -10  -5   7 179.041 22.6844   5
  15 -10   7 159.365 24.1822   4
  -5  15   7 186.254 20.8123   3
   2  13   7 159.854 24.1372   3
  13   2  -7 223.569 26.1175   3
  13 -15   7 107.808 26.1854   4
 -15  13  -7 175.786 25.7834   5
   2 -15  -7 223.081 28.1519   4
 -15   2   7 193.104 27.4249   5
 -13  15  -7 189.058 24.1536   5
 -13  -2   7 164.051 25.2049   5
  15 -13   7 195.313 30.0984   4
  -2  15   7 160.489 20.7999   3
  -2 -13  -7 176.793 26.6140   4
  15  -2  -7 179.170 24.9363   3
 -16   0  -7 128.447 26.5361   5
   0  16  -7 63.8223 22.5961   3
 -16   0  -7 123.422 20.8372   4
  16 -16  -7 87.1448 16.3165   3
  13 -16  -7 5.28312 14.3720   3
  13 -16  -7 6.32154 20.6250   4
 -16   3  -7 7.54926 20.8445   5
   3  13  -7 -0.3024 18.9609   3
  -3 -13   7 5.86844 14.0196   5
  16 -13  -7 10.0010 14.8366   3
 -13  -3  -7 17.6149 12.3508   4
  -3  16  -7 19.4166 13.3559   5
 -16   6  -7 18.9878 19.2038   5
   6  10  -7 -29.142 17.9615   3
  10 -16  -7 -1.5594 19.1362   4
  16  -6   7 9.25198 13.0977   4
  -6 -10   7 21.9256 16.9035   5
 -10  -6  -7 9.22841 14.6293   4
  16 -10  -7 11.7113 16.7761   3
  -6  16  -7 -5.4644 15.6444   5
 -16   7   7 262.005 33.7082   5
   7 -16  -7 269.768 31.0171   4
   7   9   7 268.554 28.4010   3
 -16   9  -7 216.725 28.4685   5
   9 -16   7 250.975 34.0795   4
   9   7  -7 237.580 29.2139   3
  16  -7  -7 234.507 25.9687   3
  -9  16  -7 218.949 24.3161   5
  -7  -9  -7 268.809 25.6359   4
  -7  16   7 232.963 22.4726   3
  -9  -7   7 227.646 25.1934   5
   4  12   7 74.1683 18.6808   3
  12 -16   7 51.4475 25.2310   4
 -16   4   7 138.112 24.0730   5
 -16  12  -7 108.140 21.9552   5
  12   4  -7 72.1713 18.8071   3
   4 -16  -7 118.032 21.3046   4
  16 -12   7 108.075 21.4096   4
  -4  16   7 89.1223 15.6874   3
  -4 -12  -7 157.354 21.0811   4
 -12  -4   7 68.7597 17.0573   5
 -12  16  -7 106.963 19.4517   5
  16  -4  -7 111.573 21.5699   3
  15   1  -7 81.5992 19.5144   3
   1  15   7 84.2325 18.4891   3
 -16  15  -7 56.2420 19.1316   5
   1 -16  -7 93.1379 20.2140   4
 -16   1   7 98.2341 22.3335   5
  15 -16   7 57.8795 25.3858   4
  16  -1  -7 47.0742 17.7517   3
  16 -15   7 42.5605 23.0005   4
  -1 -15  -7 82.0973 19.5970   4
 -15  -1   7 57.6144 18.0851   5
  -1  16   7 81.5736 16.9430   3
 -15  16  -7 102.429 20.9196   5
   2  15  -7 92.1541 21.9811   3
  15 -17  -7 33.5266 15.9936   3
 -17   2  -7 29.8293 20.9815   5
  15 -17  -7 45.2305 27.2706   4
  17 -15  -7 41.3066 16.2918   3
  -2  17  -7 48.3491 16.6466   5
  -2 -15   7 25.9227 14.3480   5
 -15  -2  -7 36.1615 14.6193   4
 -17   5  -7 -1.7913 18.9950   5
  12 -17  -7 -18.830 20.1261   4
   5  12  -7 -12.819 18.8736   3
  17 -12  -7 -1.0552 15.5160   3
  -5 -12   7 8.83028 16.7709   5
 -12  -5  -7 16.0629 14.2845   4
  17  -5   7 6.28964 13.4306   4
  -5  17  -7 12.2841 12.9240   5
 -17   8  -7 19.3977 20.0022   5
   8   9  -7 45.6301 20.3851   3
   9 -17  -7 7.72628 19.5675   4
   9   8   7 26.0980 24.5013   3
 -17   9   7 56.0921 25.5059   5
  -8  17  -7 39.2628 17.7115   5
  -8  -9   7 40.0862 18.3115   5
  17  -9  -7 62.0853 17.8361   3
  17  -8   7 18.0577 15.1178   4
  -9  17   7 29.6822 13.4341   3
  -9  -8  -7 37.1352 16.5483   4
  11 -17   7 117.089 30.1882   4
   6 -17  -7 102.696 23.4546   4
  11   6  -7 88.6405 20.6484   3
 -17   6   7 107.020 24.4743   5
 -17  11  -7 86.0504 21.0878   5
   6  11   7 131.950 21.0171   3
 -11  17  -7 106.799 18.2382   5
 -11  -6   7 75.0200 18.1462   5
  17 -11   7 134.188 20.4104   4
  17  -6  -7 82.1188 20.3112   3
  -6  17   7 66.7480 14.6201   3
  -6 -11  -7 98.9736 19.5293   4
 -17   3   7 209.971 29.3127   5
  14 -17   7 218.196 30.8298   4
  14   3  -7 222.473 26.6672   3
 -17  14  -7 214.486 26.6433   5
   3 -17  -7 230.300 29.6352   4
   3  14   7 209.931 26.6595   3
 -14  17  -7 193.091 25.5761   5
  -3  17   7 227.965 24.0249   3
  17 -14   7 200.252 31.0583   4
  -3 -14  -7 242.482 27.7345   4
  17  -3  -7 197.337 25.4189   3
 -14  -3   7 223.340 27.0920   5
 -18   4  -7 41.8727 20.8191   5
  14 -18  -7 8.03026 22.9818   4
   4  14  -7 35.5342 21.2282   3
  18 -14  -7 21.7035 17.0965   3
  -4  18  -7 35.0503 15.0158   5
 -14  -4  -7 24.9321 12.6816   4
  -4 -14   7 20.8939 14.8155   5
  18  -4   7 33.1318 14.1169   4
  11 -18  -7 91.3485 23.6463   4
 -18   7  -7 91.7643 22.5484   5
   7  11  -7 111.332 22.0115   3
  18 -11  -7 65.0073 17.1444   3
 -11  -7  -7 83.7826 17.3475   4
  18  -7   7 55.6266 14.4647   4
 -11  18   7 97.6762 15.8242   3
  -7  18  -7 47.2982 15.2477   5
  -7 -11   7 105.204 20.3095   5
  10   8  -7 81.2801 21.2555   3
 -18   8   7 70.2833 26.1303   5
  10 -18   7 61.0837 30.7269   4
   8  10   7 93.6889 20.7694   3
 -18  10  -7 59.1906 21.4429   5
   8 -18  -7 81.7740 22.3878   4
 -10  18  -7 53.2144 16.0778   5
  -8  18   7 73.3614 15.7114   3
  18  -8  -7 77.2919 18.0525   3
 -10  -8   7 74.6375 18.4190   5
  18 -10   7 83.9602 19.0704   4
  -8 -10  -7 87.8898 18.3009   4
 -18  13  -7 34.4276 19.9934   5
  13   5  -7 23.6489 20.2241   3
  13 -18   7 -11.710 25.8244   4
 -18   5   7 19.9707 21.2657   5
   5  13   7 59.3273 18.4421   3
   5 -18  -7 22.3941 18.9695   4
  -5  18   7 41.7941 15.2981   3
  18  -5  -7 52.0157 19.5094   3
  -5 -13  -7 24.8803 15.5475   4
  18 -13   7 39.0095 19.0527   4
 -13  18  -7 48.5463 17.9292   5
 -13  -5   7 24.0757 18.6874   5
  13 -19  -7 22.3867 23.4320   4
   6  13  -7 47.6258 20.6634   3
  19 -13  -7 34.0167 17.5998   3
  -6 -13   7 26.9424 17.1078   5
 -13  -6  -7 30.3849 14.4653   4
 -13  19   7 41.2036 14.8874   3
  19  -6   7 21.2248 13.9977   4
 -19  10   7 114.945 28.5176   5
   9  10  -7 95.7961 21.1257   3
  10 -19  -7 115.902 24.8284   4
 -19   9  -7 134.313 23.9610   5
 -10  -9  -7 97.3871 18.3450   4
  19 -10  -7 110.747 19.8556   3
  -9  19  -7 84.7024 17.7150   5
  19  -9   7 52.8923 15.2669   4
  -9 -10   7 108.671 19.7307   5
 -10  19   7 112.064 16.7435   3
   7  12   7 145.403 22.9958   3
  12 -19   7 56.5270 30.6373   4
 -19  12  -7 138.356 24.3892   5
  12   7  -7 65.7602 21.4402   3
   7 -19  -7 101.690 21.2200   4
 -19   7   7 74.9632 23.6574   5
  19 -12   7 96.4228 20.5273   4
  -7 -12  -7 76.2814 16.9859   4
 -12  19  -7 139.684 20.4555   5
  19  -7  -7 100.175 21.2986   3
  -7  19   7 113.885 17.3703   3
 -12  -7   7 73.3510 18.6254   5
   0  -1  -8 20.1619 15.2779   4
   0  -1  -8 30.9175 14.8921   3
  -1   1  -8 11.8590 14.1906   5
   1   0  -8 15.0309 13.8128   3
  -1   1  -8 10.2661 15.1468   3
   0  -1  -8 8.36812 14.8344   5
  -2   0  -8 -9.7972 13.6654   3
   0   2  -8 15.6222 14.2730   3
   0   2  -8 16.3320 14.5994   5
  -2   0  -8 25.7152 16.2487   5
   2  -2  -8 14.3114 13.5914   3
  -2   0  -8 41.4518 15.1717   4
   2   1  -8 21.9807 14.7477   3
   2  -3   8 44.3643 15.2366   4
  -3   2  -8 -3.0399 15.0997   3
  -3   2  -8 45.7118 16.4054   5
   1  -3  -8 42.0368 14.7249   3
  -3   1   8 39.0359 16.2069   5
   1  -3  -8 32.1828 15.2073   4
  -1  -2  -8 27.4157 15.8303   5
   3  -1  -8 18.4766 15.2620   3
  -2   3  -8 29.5628 15.3370   3
  -1  -2  -8 18.7452 14.3742   3
  -2   3  -8 54.9590 16.6556   5
  -1  -2  -8 26.3661 15.0383   4
   1   3  -8 63.1012 16.7717   3
   3  -4  -8 42.3765 15.0236   3
  -4   3   8 98.0795 19.3522   5
  -4   1  -8 50.7417 17.3282   5
   3  -4  -8 73.0080 17.5104   4
   4  -3  -8 45.4550 14.7191   3
  -1   4  -8 31.0109 15.7969   3
  -1   4  -8 90.5197 18.7226   5
  -3  -1  -8 48.5196 16.2868   5
  -3  -1  -8 89.9479 16.6832   4
   4   0  -8 488.957 32.8175   3
   0  -4  -8 482.348 30.8260   3
   0  -4  -8 513.194 33.2170   4
  -4   0   8 489.663 33.4422   5
  -4   4  -8 481.891 32.5607   5
  -5   0  -8 24.0368 14.6754   4
   5  -5  -8 5.23509 14.5864   3
  -5   0  -8 15.1207 17.6310   5
   0   5  -8 19.3727 15.4402   5
   0   5  -8 47.0034 17.2808   3
   3  -5   8 100.309 20.0567   4
  -5   3  -8 116.367 20.8781   5
   3   2  -8 45.6314 15.9085   3
   2  -5  -8 89.4696 17.8914   4
   2  -5  -8 72.1592 16.3826   3
  -5   2   8 124.255 20.5395   5
   5  -2  -8 80.1725 16.2875   3
   5  -3   8 126.231 17.7498   4
  -3   5  -8 124.365 19.6069   5
  -2  -3  -8 83.8062 15.9115   4
   2   4  -8 51.2285 16.5899   3
  -6   4   8 96.9716 20.0534   5
   4   2   8 48.7138 15.1568   3
   4  -6  -8 70.9400 15.9749   3
  -6   2  -8 104.054 20.3817   5
   4  -6  -8 76.9275 18.2357   4
   6  -4  -8 57.3130 16.0399   3
  -4  -2  -8 54.1622 15.3141   4
  -2   6  -8 95.1159 17.6607   5
  -6   1   8 197.348 25.3093   5
   1   5   8 153.085 21.5946   3
   1  -6  -8 187.956 25.4764   4
  -6   5  -8 181.810 24.6246   5
   5   1  -8 171.652 24.1870   3
   5  -6   8 172.966 26.4969   4
  -5  -1   8 193.491 25.2706   5
   6  -1  -8 167.583 24.2298   3
   6  -5   8 200.360 24.7957   4
  -5   6  -8 185.576 24.1704   5
  -1  -5  -8 185.296 24.7345   4
   6  -7  -8 30.7025 14.2077   3
  -7   1  -8 12.2839 18.5444   5
   1   6  -8 55.4399 19.0623   3
  -6  -1  -8 46.2258 15.1888   4
   7  -6  -8 39.4914 14.6089   3
  -1   7  -8 40.2259 17.8482   3
  -6  -1  -8 12.9270 19.2026   5
  -1   7  -8 14.8447 14.1554   5
   3   4   8 385.195 29.0226   3
  -7   3   8 437.738 31.9326   5
   3  -7  -8 425.297 33.1978   4
  -7   4  -8 402.493 31.5181   5
   4   3  -8 377.952 30.1387   3
   3  -7  -8 376.941 27.5535   3
  -3  -4  -8 417.336 29.8379   4
   7  -3  -8 407.764 29.5842   3
  -4   7  -8 411.520 30.3091   5
   7  -4   8 405.483 29.7265   4
  -4  -3   8 383.871 29.6780   5
  -7   0   8 601.372 37.0841   5
   0  -7  -8 647.723 37.9471   4
   0   7   8 566.990 33.3846   3
   7   0  -8 579.729 35.9949   3
   7  -7   8 543.848 37.7579   4
  -7   7  -8 522.184 36.6215   5
  -8   0  -8 -1.3160 13.5266   4
   0   8  -8 -1.7095 18.7413   3
   0   8  -8 -29.857 14.6035   5
   8  -8  -8 16.2615 15.0514   3
  -8   0  -8 -4.5521 19.1023   5
  -8   5   8 -1.4809 25.0488   5
   5  -8  -8 14.0903 12.9204   3
   5  -8  -8 22.0675 17.8384   4
   3   5  -8 13.3462 17.9251   3
  -8   3  -8 17.3930 16.9825   5
   8  -5  -8 3.92534 14.0454   3
  -5  -3  -8 15.1138 13.5201   4
   8  -3   8 15.0589 13.3998   4
  -3   8  -8 30.7411 15.5609   5
   6   2  -8 64.0385 17.6601   3
   2   6   8 62.3259 16.4018   3
   2  -8  -8 56.7053 18.2744   4
  -8   2   8 55.4466 17.2397   5
   6  -8   8 70.0118 21.0977   4
  -8   6  -8 53.9179 17.5810   5
   8  -6   8 37.4918 14.6581   4
  -6   8  -8 56.6557 18.7417   5
  -6  -2   8 61.5622 18.6250   5
  -2  -6  -8 38.3152 15.3057   4
   8  -2  -8 31.4558 15.3931   3
   2   7  -8 45.3103 20.2588   3
   7  -9  -8 26.4066 15.1345   3
  -9   2  -8 34.0735 19.7254   5
   9  -7  -8 42.5511 15.4346   3
  -2   9  -8 24.2702 15.5012   5
  -7  -2  -8 68.1087 15.8667   4
  -9   4   8 200.518 27.7480   5
   4  -9  -8 187.843 27.4724   4
   5   4  -8 173.566 28.0817   3
   4   5   8 200.691 24.6573   3
  -9   5  -8 126.757 21.6573   5
  -5  -4   8 264.854 26.2939   5
   9  -4  -8 197.247 24.8051   3
  -4  -5  -8 172.021 23.1501   4
  -5   9  -8 185.308 23.6545   5
   9  -5   8 225.084 24.4666   4
   8   1  -8 178.834 25.2650   3
  -9   8  -8 142.804 25.1208   5
   1  -9  -8 157.123 24.4312   4
  -9   1   8 127.186 20.0565   5
   8  -9   8 181.243 26.2965   4
   1   8   8 144.092 21.3918   3
  -8   9  -8 120.154 20.7387   5
   9  -8   8 158.511 27.6720   4
  -1   9   8 152.390 21.6445   3
  -1  -8  -8 150.799 25.7553   4
   9  -1  -8 187.198 23.1406   3
  -8  -1   8 147.911 24.2108   5
   1   9  -8 9.70703 19.6200   3
 -10   1  -8 2.65568 18.6354   5
   9 -10  -8 15.2587 14.2623   3
  -9  -1  -8 12.5498 14.1504   4
  10  -9  -8 22.4244 15.7413   3
  -1  10  -8 3.89496 15.2485   5
   4   6  -8 113.915 21.5180   3
   6 -10  -8 94.7042 20.9073   4
 -10   4  -8 119.793 22.4770   5
   6 -10  -8 156.463 18.8463   3
  10  -4   8 138.150 22.7140   4
  10  -6  -8 129.765 19.8499   3
  -4  10  -8 97.6425 18.3891   5
  -4  -6   8 145.547 22.3758   5
   3 -10  -8 263.874 28.8304   4
   3   7   8 304.217 26.9000   3
 -10   7  -8 274.081 27.8969   5
   7   3  -8 213.922 29.0950   3
 -10   3   8 302.507 30.0510   5
  10  -3  -8 237.782 26.7945   3
  10  -7   8 315.264 29.6147   4
  -3  10   8 328.883 25.4905   3
  -7  -3   8 316.866 28.4349   5
  -3  -7  -8 283.463 27.4719   4
  -7  10  -8 250.564 27.2221   5
   0 -10  -8 433.248 31.5557   4
 -10  10  -8 392.424 31.0430   5
  10 -10   8 389.527 38.4132   4
  10   0  -8 365.202 31.5551   3
 -10   0   8 484.937 33.1270   5
 -11   3  -8 69.4237 19.5464   5
   8 -11  -8 50.5590 29.7495   4
   3   8  -8 45.7843 20.0830   3
   8 -11  -8 33.0299 13.9557   3
  -3  -8   8 76.2370 16.7450   5
  11  -8  -8 53.8252 15.8694   3
  -8  -3  -8 87.0873 17.0000   4
  -3  11  -8 46.2909 14.5913   5
  11  -3   8 28.0834 13.4765   4
 -11   6  -8 27.9976 16.9153   5
   5   6   8 37.8260 17.5241   3
   5 -11  -8 19.1989 17.6359   4
 -11   5   8 40.2048 19.9066   5
   6   5  -8 33.6956 18.6350   3
  11  -6   8 24.2537 14.3939   4
  11  -5  -8 19.4985 15.2634   3
  -5  -6  -8 46.9613 16.3801   4
  -6  11  -8 28.1562 15.6307   5
  -6  -5   8 70.7932 19.0922   5
   9 -11   8 98.1420 25.8593   4
   9   2  -8 96.1658 21.7752   3
 -11   2   8 67.2685 18.7136   5
   2   9   8 81.8646 16.8581   3
   2 -11  -8 56.9266 18.4266   4
 -11   9  -8 47.8732 16.6638   5
  -9  11  -8 113.315 20.9295   5
  11  -9   8 98.4376 20.1949   4
  11  -2  -8 63.0279 19.4607   3
  -2  11   8 120.043 17.7545   3
  -2  -9  -8 71.3416 18.3939   4
  -9  -2   8 58.7822 15.9125   5
   5   7  -8 168.142 28.5434   3
   7 -12  -8 191.370 30.1719   4
 -12   5  -8 228.773 27.8762   5
  12  -5   8 150.713 23.6071   4
  -5  12  -8 221.233 23.1507   5
  -7  -5  -8 188.720 23.2601   4
  12  -7  -8 192.556 23.1530   3
  -5  -7   8 191.931 25.3289   5
   8   4  -8 45.9241 19.6636   3
   4 -12  -8 36.9047 18.2831   4
 -12   8  -8 17.5382 17.3002   5
   4   8   8 71.8343 17.8621   3
 -12   4   8 75.9358 21.8085   5
  -4  12   8 44.2224 13.7939   3
  -8  -4   8 70.2661 18.4275   5
  -4  -8  -8 30.0916 16.6621   4
  -8  12  -8 40.4317 16.6174   5
  12  -4  -8 42.3117 16.6652   3
  12  -8   8 53.0208 17.2919   4
   0   0   0    0.00    0.00   0

 _exptl_absorpt_process_details
)
 SADABS 2016/2: Krause, L., Herbst-Irmer, R., Sheldrick G.M. & Stalke D.,
 J. Appl. Cryst. 48 (2015) 3-10
)
 _exptl_absorpt_correction_type   multi-scan
 _exptl_absorpt_correction_T_max  0.9625
 _exptl_absorpt_correction_T_min  0.8777
 _exptl_special_details
)
 The following wavelength and cell were deduced by SADABS from the
 direction cosines etc. They are given here for emergency use only:
 CELL 0.88560   25.861   25.870    6.752   89.935   90.026  119.997
)
;
_shelx_hkl_checksum              96787
_olex2_submission_special_instructions 'No special instructions were received'
loop_
_space_group_symop_id
_space_group_symop_operation_xyz
1 'x, y, z'
2 '-y, x-y, z'
3 '-x+y, -x, z'
4 '-y, -x, z'
5 '-x+y, y, z'
6 'x, x-y, z'
7 'x+2/3, y+1/3, z+1/3'
8 '-y+2/3, x-y+1/3, z+1/3'
9 '-x+y+2/3, -x+1/3, z+1/3'
10 '-y+2/3, -x+1/3, z+1/3'
11 '-x+y+2/3, y+1/3, z+1/3'
12 'x+2/3, x-y+1/3, z+1/3'
13 'x+1/3, y+2/3, z+2/3'
14 '-y+1/3, x-y+2/3, z+2/3'
15 '-x+y+1/3, -x+2/3, z+2/3'
16 '-y+1/3, -x+2/3, z+2/3'
17 '-x+y+1/3, y+2/3, z+2/3'
18 'x+1/3, x-y+2/3, z+2/3'
loop_
_atom_site_label
_atom_site_type_symbol
_atom_site_fract_x
_atom_site_fract_y
_atom_site_fract_z
_atom_site_U_iso_or_equiv
_atom_site_adp_type
_atom_site_occupancy
_atom_site_site_symmetry_order
_atom_site_calc_flag
_atom_site_refinement_flags_posn
_atom_site_refinement_flags_adp
_atom_site_refinement_flags_occupancy
_atom_site_disorder_assembly
_atom_site_disorder_group
Co1 Co 0.65838(4) 0.61838(4) 0.57436(10) 0.0284(3) Uani 1 1 d . . . . .
O1 O 0.5882(2) 0.5941(2) -0.2384(7) 0.0308(10) Uani 1 1 d . . . . .
O2 O 0.6447(2) 0.6287(2) 0.1178(6) 0.0325(10) Uani 1 1 d . . . . .
O3 O 0.6164(2) 0.5613(2) 0.3561(6) 0.0324(10) Uani 1 1 d . . . . .
C1 C 0.5512(3) 0.5438(3) -0.1424(8) 0.0260(12) Uani 1 1 d . . . . .
C2 C 0.5599(3) 0.5338(3) 0.0619(8) 0.0279(13) Uani 1 1 d . . . . .
C3 C 0.51802(19) 0.48198(19) 0.1525(12) 0.0258(17) Uani 1 2 d S T P . .
H3 H 0.525226 0.474774 0.284685 0.031 Uiso 1 2 calc RS T P . .
C4 C 0.50038(18) 0.49962(18) -0.2388(12) 0.0252(17) Uani 1 2 d S T P . .
H4 H 0.495652 0.504348 -0.375742 0.030 Uiso 1 2 calc RS T P . .
C5 C 0.6096(3) 0.5764(3) 0.1863(8) 0.0264(12) Uani 1 1 d . . . . .
O4 O 0.6799(10) 0.5552(10) 0.711(3) 0.046(5) Uani 0.2977 1 d . . . A 2
C9 C 0.3485(11) 0.4842(9) 0.150(7) 0.148(19) Uani 0.3138 1 d . U . B -1
H9 H 0.311686 0.448547 0.170987 0.178 Uiso 0.3138 1 calc R . . B -1
C10 C 0.3606(8) 0.5127(10) -0.033(6) 0.122(16) Uani 0.3138 1 d G U . B -1
H10 H 0.332069 0.496572 -0.136005 0.147 Uiso 0.3138 1 calc R . . B -1
C11 C 0.4146(9) 0.5649(9) -0.063(4) 0.082(9) Uani 0.3138 1 d G U . B -1
H11 H 0.422850 0.584368 -0.188113 0.098 Uiso 0.3138 1 calc R . . B -1
C6 C 0.4564(8) 0.5885(8) 0.088(4) 0.067(7) Uani 0.3138 1 d DG U . B -1
C7 C 0.4443(13) 0.5600(14) 0.270(4) 0.090(8) Uani 0.3138 1 d G U . B -1
H7 H 0.472866 0.576116 0.373762 0.108 Uiso 0.3138 1 calc R . . B -1
C8 C 0.3904(16) 0.5078(14) 0.301(5) 0.149(17) Uani 0.3138 1 d G U . B -1
H8 H 0.382085 0.488320 0.425874 0.179 Uiso 0.3138 1 calc R . . B -1
C12 C 0.5124(15) 0.6483(14) 0.034(7) 0.076(12) Uani 0.3138 1 d D U . B -1
H12A H 0.546234 0.653433 0.116534 0.091 Uiso 0.3138 1 calc R . . B -1
H12B H 0.522780 0.646989 -0.106084 0.091 Uiso 0.3138 1 calc R . . B -1
C13 C 0.5036(15) 0.7009(16) 0.064(7) 0.101(14) Uani 0.3138 1 d D U . B -1
H13A H 0.539228 0.737259 0.019165 0.151 Uiso 0.3138 1 calc GR . . B -1
H13B H 0.496995 0.704622 0.204809 0.151 Uiso 0.3138 1 calc GR . . B -1
H13C H 0.468961 0.695159 -0.012194 0.151 Uiso 0.3138 1 calc GR . . B -1
loop_
_atom_site_aniso_label
_atom_site_aniso_U_11
_atom_site_aniso_U_22
_atom_site_aniso_U_33
_atom_site_aniso_U_23
_atom_site_aniso_U_13
_atom_site_aniso_U_12
Co1 0.0336(5) 0.0360(5) 0.0120(3) -0.0021(3) -0.0018(3) 0.0147(4)
O1 0.038(3) 0.036(3) 0.017(2) 0.0006(18) -0.0002(18) 0.018(2)
O2 0.042(3) 0.039(3) 0.016(2) 0.0009(17) -0.0018(18) 0.020(2)
O3 0.038(3) 0.040(3) 0.015(2) -0.0001(17) -0.0053(17) 0.017(2)
C1 0.030(3) 0.036(3) 0.018(3) 0.004(2) 0.004(2) 0.021(3)
C2 0.038(3) 0.037(3) 0.015(3) -0.001(2) -0.001(2) 0.024(3)
C3 0.035(3) 0.035(3) 0.015(3) 0.0012(15) -0.0012(15) 0.024(4)
C4 0.036(4) 0.036(4) 0.014(4) 0.0012(14) -0.0012(14) 0.026(4)
C5 0.032(3) 0.037(3) 0.015(3) 0.001(2) 0.001(2) 0.020(3)
O4 0.061(13) 0.063(14) 0.037(10) -0.009(9) -0.010(9) 0.048(12)
C9 0.08(2) 0.025(18) 0.34(5) 0.01(2) 0.10(2) 0.021(17)
C10 0.035(14) 0.041(17) 0.27(4) -0.07(2) 0.02(2) 0.004(13)
C11 0.039(14) 0.051(17) 0.14(2) -0.033(14) 0.013(12) 0.010(14)
C6 0.044(12) 0.050(12) 0.111(19) 0.001(13) 0.027(11) 0.027(9)
C7 0.09(2) 0.09(3) 0.14(2) 0.04(2) 0.059(18) 0.074(14)
C8 0.09(2) 0.10(3) 0.29(5) 0.05(3) 0.11(3) 0.066(18)
C12 0.033(19) 0.066(17) 0.11(3) 0.026(19) 0.01(2) 0.012(13)
C13 0.045(18) 0.058(15) 0.19(4) 0.02(2) -0.05(2) 0.015(14)
loop_
_atom_type_symbol
_atom_type_description
_atom_type_scat_dispersion_real
_atom_type_scat_dispersion_imag
_atom_type_scat_source
C C 0.0060 0.0030
'ANOMDisVal Program in PLATON Spek, A. L. J. Appl. Crystallogr. 2003, 36, 7-13'
H H 0.0000 0.0000
'ANOMDisVal Program in PLATON Spek, A. L. J. Appl. Crystallogr. 2003, 36, 7-13'
Co Co 0.3080 1.4420
'ANOMDisVal Program in PLATON Spek, A. L. J. Appl. Crystallogr. 2003, 36, 7-13'
O O 0.0180 0.0100
'ANOMDisVal Program in PLATON Spek, A. L. J. Appl. Crystallogr. 2003, 36, 7-13'
loop_
_geom_angle_atom_site_label_1
_geom_angle_atom_site_label_2
_geom_angle_atom_site_label_3
_geom_angle
_geom_angle_site_symmetry_1
_geom_angle_site_symmetry_3
O1 Co1 O1 166.2(2) 1_556 14_655
O1 Co1 O2 83.65(18) 1_556 14_655
O1 Co1 O2 93.2(2) 1_556 9_565
O1 Co1 O2 82.0(2) 14_655 9_565
O1 Co1 O4 91.7(6) 14_655 .
O1 Co1 O4 91.6(6) 1_556 .
O2 Co1 O1 82.80(18) 14_655 14_655
O2 Co1 O2 80.89(5) 14_655 9_565
O2 Co1 O4 171.6(6) 9_565 .
O2 Co1 O4 92.9(5) 14_655 .
O3 Co1 O1 99.2(2) . 1_556
O3 Co1 O1 94.1(2) . 14_655
O3 Co1 O2 175.56(19) . 14_655
O3 Co1 O2 95.52(19) . 9_565
O3 Co1 O4 90.4(6) . .
Co1 O1 Co1 94.6(2) 1_554 9_564
C1 O1 Co1 134.0(4) . 1_554
C1 O1 Co1 120.2(4) . 9_564
Co1 O2 Co1 93.08(19) 9_564 14_654
C5 O2 Co1 128.1(4) . 9_564
C5 O2 Co1 133.5(4) . 14_654
C5 O3 Co1 124.0(4) . .
O1 C1 C2 122.6(6) . .
O1 C1 C4 119.6(5) . .
C4 C1 C2 117.8(6) . .
C1 C2 C5 124.7(6) . .
C3 C2 C1 118.9(6) . .
C3 C2 C5 116.4(5) . .
C2 C3 C2 123.5(8) . 4_665
C2 C3 H3 118.2 4_665 .
C2 C3 H3 118.2 . .
C1 C4 C1 123.0(7) . 4_665
C1 C4 H4 118.5 . .
C1 C4 H4 118.5 4_665 .
O2 C5 C2 118.6(5) . .
O3 C5 O2 121.7(6) . .
O3 C5 C2 119.8(6) . .
C10 C9 H9 120.0 . .
C10 C9 C8 120.0 . .
C8 C9 H9 120.0 . .
C9 C10 H10 120.0 . .
C11 C10 C9 120.0 . .
C11 C10 H10 120.0 . .
C10 C11 H11 120.0 . .
C10 C11 C6 120.0 . .
C6 C11 H11 120.0 . .
C11 C6 C12 114(2) . .
C7 C6 C11 120.0 . .
C7 C6 C12 126(2) . .
C6 C7 H7 120.0 . .
C8 C7 C6 120.0 . .
C8 C7 H7 120.0 . .
C9 C8 H8 120.0 . .
C7 C8 C9 120.0 . .
C7 C8 H8 120.0 . .
C6 C12 H12A 109.1 . .
C6 C12 H12B 109.1 . .
H12A C12 H12B 107.8 . .
C13 C12 C6 113(3) . .
C13 C12 H12A 109.1 . .
C13 C12 H12B 109.1 . .
C12 C13 H13A 109.5 . .
C12 C13 H13B 109.5 . .
C12 C13 H13C 109.5 . .
H13A C13 H13B 109.5 . .
H13A C13 H13C 109.5 . .
H13B C13 H13C 109.5 . .
loop_
_geom_bond_atom_site_label_1
_geom_bond_atom_site_label_2
_geom_bond_distance
_geom_bond_site_symmetry_2
Co1 O1 2.039(5) 1_556
Co1 O1 2.065(5) 14_655
Co1 O2 2.057(5) 14_655
Co1 O2 2.100(5) 9_565
Co1 O3 1.984(4) .
Co1 O4 2.18(2) .
O1 C1 1.338(8) .
O2 C5 1.282(8) .
O3 C5 1.253(7) .
C1 C2 1.444(8) .
C1 C4 1.400(7) .
C2 C3 1.377(8) .
C2 C5 1.471(9) .
C3 H3 0.9500 .
C4 H4 0.9500 .
C9 H9 0.9500 .
C9 C10 1.3900 .
C9 C8 1.3900 .
C10 H10 0.9500 .
C10 C11 1.3900 .
C11 H11 0.9500 .
C11 C6 1.3900 .
C6 C7 1.3900 .
C6 C12 1.55(2) .
C7 H7 0.9500 .
C7 C8 1.3900 .
C8 H8 0.9500 .
C12 H12A 0.9900 .
C12 H12B 0.9900 .
C12 C13 1.50(3) .
C13 H13A 0.9800 .
C13 H13B 0.9800 .
C13 H13C 0.9800 .
loop_
_geom_torsion_atom_site_label_1
_geom_torsion_atom_site_label_2
_geom_torsion_atom_site_label_3
_geom_torsion_atom_site_label_4
_geom_torsion
_geom_torsion_site_symmetry_1
_geom_torsion_site_symmetry_4
Co1 O1 C1 C2 -36.4(8) 9_564 .
Co1 O1 C1 C2 97.5(7) 1_554 .
Co1 O1 C1 C4 140.8(5) 9_564 .
Co1 O1 C1 C4 -85.3(8) 1_554 .
Co1 O2 C5 O3 -6.2(10) 14_654 .
Co1 O2 C5 O3 -153.3(5) 9_564 .
Co1 O2 C5 C2 25.8(8) 9_564 .
Co1 O2 C5 C2 172.9(4) 14_654 .
Co1 O3 C5 O2 23.6(9) . .
Co1 O3 C5 C2 -155.5(4) . .
O1 C1 C2 C3 176.6(6) . .
O1 C1 C2 C5 -0.5(10) . .
O1 C1 C4 C1 -172.8(5) . 4_665
C1 C2 C3 C2 -3.3(12) . 4_665
C1 C2 C5 O2 7.5(9) . .
C1 C2 C5 O3 -173.3(6) . .
C2 C1 C4 C1 4.6(12) . 4_665
C3 C2 C5 O2 -169.7(6) . .
C3 C2 C5 O3 9.4(9) . .
C4 C1 C2 C3 -0.6(10) . .
C4 C1 C2 C5 -177.8(6) . .
C5 C2 C3 C2 174.1(6) . 4_665
C9 C10 C11 C6 0.0 . .
C10 C9 C8 C7 0.0 . .
C10 C11 C6 C7 0.0 . .
C10 C11 C6 C12 -177(2) . .
C11 C6 C7 C8 0.0 . .
C11 C6 C12 C13 84(4) . .
C6 C7 C8 C9 0.0 . .
C7 C6 C12 C13 -93(4) . .
C8 C9 C10 C11 0.0 . .
C12 C6 C7 C8 176(2) . .
