#------------------------------------------------------------------------------
#$Date: 2018-01-17 01:36:45 +0200 (Wed, 17 Jan 2018) $
#$Revision: 205266 $
#$URL: file:///home/coder/svn-repositories/cod/cif/4/12/70/4127028.cif $
#------------------------------------------------------------------------------
#
# This file is available in the Crystallography Open Database (COD),
# http://www.crystallography.net/
#
# All data on this site have been placed in the public domain by the
# contributors.
#
data_4127028
loop_
_publ_author_name
'Zhu, Jie'
'Usov, Pavel M.'
'Xu, Wenqian'
'Celis-Salazar, Paula J'
'Lin, Shaoyang'
'Kessinger, Matthew C.'
'Landaverde-Alvarado, Carlos'
'Cai, Meng'
'May, Ann M.'
'Slebodnick, Carla'
'Zhu, Dunru'
'Senanayake, Sanjaya D.'
'Morris, Amanda J.'
_publ_section_title
;
 A New Class of Metal-Cyclam based Zirconium Metal-Organic Frameworks for
 CO2 Adsorption and Chemical Fixation.
;
_journal_name_full               'Journal of the American Chemical Society'
_journal_paper_doi               10.1021/jacs.7b10643
_journal_year                    2017
_chemical_formula_moiety         'C12 H24 Cl2 Cu N4 O4'
_chemical_formula_sum            'C12 H24 Cl2 Cu N4 O4'
_chemical_formula_weight         422.79
_space_group_crystal_system      monoclinic
_space_group_IT_number           14
_space_group_name_Hall           '-P 2yn'
_space_group_name_H-M_alt        'P 1 21/n 1'
_symmetry_space_group_name_Hall  '-P 2yn'
_symmetry_space_group_name_H-M   'P 1 21/n 1'
_atom_sites_solution_hydrogens   mixed
_atom_sites_solution_primary     direct
_audit_creation_date             2017-03-13
_audit_creation_method
;
Olex2 1.2
(compiled 2017.03.02 svn.r3394 for OlexSys, GUI svn.r5324)
;
_cell_angle_alpha                90
_cell_angle_beta                 93.913(5)
_cell_angle_gamma                90
_cell_formula_units_Z            2
_cell_length_a                   6.7984(4)
_cell_length_b                   9.7309(5)
_cell_length_c                   12.9543(7)
_cell_measurement_reflns_used    3360
_cell_measurement_temperature    100.00(10)
_cell_measurement_theta_max      31.8840
_cell_measurement_theta_min      3.7790
_cell_volume                     854.99(8)
_computing_cell_refinement
;
CrysAlisPro, Agilent Technologies,
Version 1.171.37.35 (release 13-08-2014 CrysAlis171 .NET)
(compiled Aug 13 2014,18:06:01)
;
_computing_data_collection
;
CrysAlisPro, Agilent Technologies,
Version 1.171.37.35 (release 13-08-2014 CrysAlis171 .NET)
(compiled Aug 13 2014,18:06:01)
;
_computing_data_reduction
;
CrysAlisPro, Agilent Technologies,
Version 1.171.37.35 (release 13-08-2014 CrysAlis171 .NET)
(compiled Aug 13 2014,18:06:01)
;
_computing_molecular_graphics    'Olex2 (Dolomanov et al., 2009)'
_computing_publication_material  'Olex2 (Dolomanov et al., 2009)'
_computing_structure_refinement  'ShelXL (Sheldrick, 2015)'
_computing_structure_solution    'ShelXT (Sheldrick, 2015)'
_diffrn_ambient_environment      N~2~
_diffrn_ambient_temperature      100.00(10)
_diffrn_detector                 'CCD plate'
_diffrn_detector_area_resol_mean 8.0061
_diffrn_detector_type            Eos
_diffrn_measured_fraction_theta_full 0.998
_diffrn_measured_fraction_theta_max 0.911
_diffrn_measurement_details
;
#__ type_ start__ end____ width___ exp.time_
  1 omega  -99.00   23.00   1.0000   41.0000
omega____ theta____ kappa____ phi______ frames
    -      -29.5315  -19.0000 -120.0000 122

#__ type_ start__ end____ width___ exp.time_
  2 omega -100.00   -4.00   1.0000   41.0000
omega____ theta____ kappa____ phi______ frames
    -      -29.5315  -65.0000   55.0000 96

#__ type_ start__ end____ width___ exp.time_
  3 omega  -54.00   38.00   1.0000   41.0000
omega____ theta____ kappa____ phi______ frames
    -      -29.5315   65.0000 -168.0000 92

#__ type_ start__ end____ width___ exp.time_
  4 omega -109.00  -57.00   1.0000   41.0000
omega____ theta____ kappa____ phi______ frames
    -      -29.5315 -178.0000  120.0000 52

#__ type_ start__ end____ width___ exp.time_
  5 omega -101.00  -48.00   1.0000   41.0000
omega____ theta____ kappa____ phi______ frames
    -      -29.5315 -178.0000 -120.0000 53

#__ type_ start__ end____ width___ exp.time_
  6 omega  -62.00  -32.00   1.0000   41.0000
omega____ theta____ kappa____ phi______ frames
    -      -29.5315   77.0000  -30.0000 30

#__ type_ start__ end____ width___ exp.time_
  7 omega  -25.00    7.00   1.0000   41.0000
omega____ theta____ kappa____ phi______ frames
    -      -29.5315  -83.0000    0.9133 32
;
_diffrn_measurement_device       'four-circle diffractometer'
_diffrn_measurement_device_type  'Xcalibur, Eos, Gemini ultra'
_diffrn_measurement_method       '\w scans'
_diffrn_orient_matrix_UB_11      0.0038310000
_diffrn_orient_matrix_UB_12      -0.0662897000
_diffrn_orient_matrix_UB_13      -0.0225981000
_diffrn_orient_matrix_UB_21      -0.0685369000
_diffrn_orient_matrix_UB_22      -0.0244083000
_diffrn_orient_matrix_UB_23      0.0346573000
_diffrn_orient_matrix_UB_31      -0.0788744000
_diffrn_orient_matrix_UB_32      0.0178839000
_diffrn_orient_matrix_UB_33      -0.0360902000
_diffrn_radiation_monochromator  graphite
_diffrn_radiation_probe          x-ray
_diffrn_radiation_type           MoK\a
_diffrn_radiation_wavelength     0.71073
_diffrn_reflns_av_R_equivalents  0.0449
_diffrn_reflns_av_unetI/netI     0.0477
_diffrn_reflns_Laue_measured_fraction_full 0.998
_diffrn_reflns_Laue_measured_fraction_max 0.911
_diffrn_reflns_limit_h_max       9
_diffrn_reflns_limit_h_min       -9
_diffrn_reflns_limit_k_max       14
_diffrn_reflns_limit_k_min       -12
_diffrn_reflns_limit_l_max       19
_diffrn_reflns_limit_l_min       -19
_diffrn_reflns_number            9225
_diffrn_reflns_point_group_measured_fraction_full 0.998
_diffrn_reflns_point_group_measured_fraction_max 0.911
_diffrn_reflns_theta_full        30.520
_diffrn_reflns_theta_max         32.346
_diffrn_reflns_theta_min         3.662
_diffrn_source                   'Enhance (Mo) X-ray Source'
_exptl_absorpt_coefficient_mu    1.613
_exptl_absorpt_correction_T_max  0.911
_exptl_absorpt_correction_T_min  0.771
_exptl_absorpt_correction_type   analytical
_exptl_absorpt_process_details
;
CrysAlisPro, Agilent Technologies,
Version 1.171.37.35 (release 13-08-2014 CrysAlis171 .NET)
(compiled Aug 13 2014,18:06:01)
Analytical numeric absorption correction using a multifaceted crystal
            model based on expressions derived by R.C. Clark & J.S. Reid.
(Clark, R. C. & Reid, J. S. (1995). Acta Cryst. A51, 887-897)
Empirical absorption correction using spherical harmonics,
 implemented in SCALE3 ABSPACK scaling algorithm.
;
_exptl_crystal_colour            'translucent purple'
_exptl_crystal_density_diffrn    1.642
_exptl_crystal_description       block
_exptl_crystal_F_000             438
_exptl_crystal_size_max          0.2009
_exptl_crystal_size_mid          0.1038
_exptl_crystal_size_min          0.0614
_refine_diff_density_max         0.745
_refine_diff_density_min         -0.345
_refine_diff_density_rms         0.092
_refine_ls_extinction_method     none
_refine_ls_goodness_of_fit_ref   1.085
_refine_ls_hydrogen_treatment    mixed
_refine_ls_matrix_type           full
_refine_ls_number_parameters     110
_refine_ls_number_reflns         2782
_refine_ls_number_restraints     0
_refine_ls_restrained_S_all      1.085
_refine_ls_R_factor_all          0.0551
_refine_ls_R_factor_gt           0.0405
_refine_ls_shift/su_max          0.000
_refine_ls_shift/su_mean         0.000
_refine_ls_structure_factor_coef Fsqd
_refine_ls_weighting_details
'w=1/[\s^2^(Fo^2^)+(0.0257P)^2^+0.5131P] where P=(Fo^2^+2Fc^2^)/3'
_refine_ls_weighting_scheme      calc
_refine_ls_wR_factor_gt          0.0758
_refine_ls_wR_factor_ref         0.0803
_reflns_Friedel_coverage         0.000
_reflns_number_gt                2307
_reflns_number_total             2782
_reflns_threshold_expression     'I > 2\s(I)'
_cod_data_source_file            ja7b10643_si_003.cif
_cod_data_source_block           xpc68abs
_cod_original_cell_volume        854.98(8)
_cod_database_code               4127028
_shelx_shelxl_version_number     2014/7
_chemical_oxdiff_formula         'Cu C12 N4 O4 Zr H22'
_chemical_oxdiff_usercomment     'XPC68 Jie Zhu JZ-2-P-114-1'
_shelx_space_group_comment
;
The symmetry employed for this shelxl refinement is uniquely defined
by the following loop, which should always be used as a source of
symmetry information in preference to the above space-group names.
They are only intended as comments.
;
_olex2_refinement_description
;
1. Others
 Fixed Uiso: H1A(0.016) H2(0.014) H1B(0.02) H1C(0.02) H2A(0.019) H2B(0.019)
 H3A(0.02) H3B(0.02) H4A(0.016) H4B(0.016) H5(0.019)
 Fixed X: Cu1(0.5) H1A(0.3296) H2(0.8198) H1B(0.5746) H1C(0.4115) H2A(0.5829)
 H2B(0.741) H3A(0.76) H3B(0.5271) H4A(0.5427) H4B(0.7742) H5(0.8406)
 Fixed Y: Cu1(0.5) H1A(0.4435) H2(0.5979) H1B(0.2152) H1C(0.2245) H2A(0.4387)
 H2B(0.4054) H3A(0.6423) H3B(0.6594) H4A(0.8147) H4B(0.8278) H5(0.7613)
 Fixed Z: Cu1(0.5) H1A(0.3274) H2(0.4502) H1B(0.3798) H1C(0.285) H2A(0.2235)
 H2B(0.318) H3A(0.281) H3B(0.2912) H4A(0.4334) H4B(0.4197) H5(0.5964)
;
_shelx_res_file
;
    xpc68abs.res created by SHELXL-2014/7

TITL xpc68abs_a.res in P2(1)/n
REM Old TITL XPC68Abs in P21/n #14
REM SHELXT solution in P2(1)/n
REM R1 0.284, Rweak 0.136, Alpha 0.022, Orientation as input
REM Formula found by SHELXT: C12 N6 O4 Cu
CELL 0.71073 6.798369 9.7309 12.954275 90 93.913 90
ZERR 2 0.000375 0.00049 0.000672 0 0.0049 0
LATT 1
SYMM 0.5-X,0.5+Y,0.5-Z
SFAC C H Cl Cu N O
UNIT 24 48 4 2 8 8

L.S. 10
PLAN  20
TEMP -173
BIND Cu1 Cl1
BOND $H
LIST 6
MORE -1
CONF
fmap 2
acta 61.04
REM <olex2.extras>
REM <HklSrc "%.\\XPC68Abs.hkl">
REM </olex2.extras>

WGHT    0.025700    0.513100
FVAR       0.75616
CU1   4    0.500000    0.500000    0.500000    10.50000    0.01357    0.00788 =
         0.00935   -0.00087    0.00244   -0.00160
O1    6    0.780019    1.033222    0.516992    11.00000    0.03335    0.00968 =
         0.02980   -0.00149    0.00961   -0.00399
H1    2    0.792667    1.111862    0.535959    11.00000    -1.5
O2    6    0.691608    1.008982    0.679572    11.00000    0.05072    0.01446 =
         0.01827   -0.00388   -0.00582   -0.00264
N1    5    0.456071    0.407103    0.360714    11.00000    0.01700    0.01149 =
         0.01239   -0.00034    0.00085   -0.00294
AFIX  13
H1A   2    0.329617    0.443495    0.327407    11.00000   -1.20000
AFIX   0
N2    5    0.682085    0.629378    0.431008    11.00000    0.01092    0.01066 =
         0.01246   -0.00090    0.00122    0.00051
AFIX  13
H2    2    0.819752    0.597864    0.450195    11.00000   -1.20000
AFIX   0
C1    1    0.444066    0.254038    0.357286    11.00000    0.02207    0.01202 =
         0.01650   -0.00321    0.00234   -0.00080
AFIX  23
H1B   2    0.574631    0.215212    0.379757    11.00000   -1.20000
H1C   2    0.411461    0.224515    0.285005    11.00000   -1.20000
AFIX   0
C2    1    0.617693    0.455601    0.297920    11.00000    0.02043    0.01600 =
         0.01289   -0.00246    0.00538    0.00053
AFIX  23
H2A   2    0.582941    0.438727    0.223541    11.00000   -1.20000
H2B   2    0.741046    0.405387    0.318039    11.00000   -1.20000
AFIX   0
C3    1    0.646163    0.608246    0.317375    11.00000    0.02076    0.01657 =
         0.01220    0.00108    0.00445   -0.00420
AFIX  23
H3A   2    0.759950    0.642287    0.280987    11.00000   -1.20000
H3B   2    0.527112    0.659405    0.291240    11.00000   -1.20000
AFIX   0
C4    1    0.673902    0.777890    0.457022    11.00000    0.01468    0.01064 =
         0.01555    0.00176    0.00057    0.00001
AFIX  23
H4A   2    0.542726    0.814691    0.433371    11.00000   -1.20000
H4B   2    0.774194    0.827796    0.419654    11.00000   -1.20000
AFIX   0
C5    1    0.710890    0.803855    0.573719    11.00000    0.01956    0.01042 =
         0.01837   -0.00075   -0.00010   -0.00195
AFIX  13
H5    2    0.840587    0.761311    0.596431    11.00000   -1.20000
AFIX   0
C6    1    0.725900    0.958894    0.596716    11.00000    0.01801    0.01249 =
         0.02065    0.00027   -0.00501   -0.00109
CL1   3    0.162992    0.663279    0.445984    11.00000    0.01179    0.01019 =
         0.02367    0.00021    0.00018   -0.00030
HKLF 4

REM  xpc68abs_a.res in P2(1)/n
REM R1 =  0.0405 for    2307 Fo > 4sig(Fo)  and  0.0551 for all    2782 data
REM    110 parameters refined using      0 restraints

END

WGHT      0.0257      0.5131

REM Highest difference peak  0.745,  deepest hole -0.345,  1-sigma level  0.092
Q1    1   0.2974  0.2922  0.3488  11.00000  0.05    0.75
Q2    1   0.5942  0.8133  0.5590  11.00000  0.05    0.60
Q3    1   0.7128  0.8816  0.5831  11.00000  0.05    0.56
Q4    1   0.3695  0.2374  0.3952  11.00000  0.05    0.52
Q5    1   0.5306  0.4212  0.3181  11.00000  0.05    0.49
Q6    1   0.6313  0.5273  0.3224  11.00000  0.05    0.48
Q7    1   0.1039  0.6411  0.5005  11.00000  0.05    0.45
Q8    1   0.3739  0.5132  0.4942  11.00000  0.05    0.43
Q9    1   0.3690  0.4371  0.3631  11.00000  0.05    0.42
Q10   1   0.8123  0.9826  0.6722  11.00000  0.05    0.41
Q11   1   0.4569  0.4259  0.4232  11.00000  0.05    0.39
Q12   1   0.6035  0.5654  0.4624  11.00000  0.05    0.37
Q13   1   0.4422  0.5058  0.5586  11.00000  0.05    0.35
Q14   1   0.7518  1.0040  0.5609  11.00000  0.05    0.35
Q15   1   0.2443  0.6500  0.4022  11.00000  0.05    0.33
Q16   1   0.7508  1.0044  0.4769  11.00000  0.05    0.32
Q17   1   0.7489  0.6121  0.4434  11.00000  0.05    0.31
Q18   1   0.3154  0.7076  0.3539  11.00000  0.05    0.31
Q19   1   0.6571  0.6262  0.3841  11.00000  0.05    0.31
Q20   1   0.6277  0.9771  0.6174  11.00000  0.05    0.31
;
_shelx_res_checksum              54939
_shelx_hkl_file
;
   0   0  -3    1.45    3.37
   0   0   3   -3.60    4.83
   0   0  -4  791.27   22.40
   0   0  -4  810.12   24.30
   0   0   4  733.92   24.12
   0   0   5   -0.07    5.80
   0   0  -5    1.50    4.34
   0   0  -5   -1.56    5.53
   0   0  -6 1277.26   36.88
   0   0   6 1170.54   36.73
   0   0  -6 1153.59   33.82
   0   0   7   -2.60    6.99
   0   0  -7    3.16    4.83
   0   0  -7    2.54    6.19
   0   0   8  340.47   20.54
   0   0  -8  361.49   20.90
   0   0   9   -1.42    7.15
   0   0  -9    6.29    7.44
   0   0 -10   29.16    8.31
   0   0  10   39.82    9.82
   0   0  11   -6.52    7.34
   0   0 -11   -0.15    7.05
   0   0 -12  144.64   16.67
   0   0  12  117.03   16.03
   0   0 -13   -6.43    7.93
   0   0  13    7.67    9.22
   0   0 -14  451.78   30.90
   0   0  14  411.15   31.02
   0   0 -15    7.54   11.08
   0   0  15    5.29   10.89
   0   0  16  656.63   41.58
   0   0 -16  597.13   38.64
   0   0 -17    7.55   11.68
   0   0  17   20.93   12.12
   0   0  18   95.15   20.97
   0   0 -18  121.72   20.73
   0   1  -2  102.67    5.37
   0   1  -2  111.06    7.35
   0   1   2   93.66    5.22
   0   1  -2  119.34    5.27
   0   1   2   85.98    7.15
   0  -1   2  111.33    6.46
   0   1  -2   97.05    6.26
   0   1   3  356.14   15.07
   0   1  -3  371.70   11.91
   0  -1   3  352.42   13.63
   0   1   3  332.24    9.93
   0   1  -3  294.77   13.15
   0   1  -4 2585.76   51.73
   0  -1   4 2363.88   53.80
   0   1   4 2397.37   45.88
   0   1  -4 2347.53   46.09
   0   1  -4 2456.24   53.33
   0   1   4 2439.98   56.13
   0   1  -5  849.76   24.67
   0  -1   5  900.20   27.39
   0   1   5  822.39   28.29
   0   1  -5  857.44   26.40
   0   1  -5  815.68   17.64
   0   1   5  679.43   16.56
   0   1  -6 2485.96   49.28
   0   1   6 2985.76   68.03
   0   1  -6 3115.85   63.15
   0   1  -6 2919.24   63.37
   0  -1   6 3076.89   66.71
   0  -1   7  179.55   13.90
   0  -1  -7  193.93   14.81
   0   1  -7  171.00   12.55
   0   1   7  171.07   14.70
   0   1  -7  155.90   12.20
   0   1  -8  159.01   13.24
   0  -1  -8  160.40   14.94
   0   1   8  149.22   14.79
   0   1  -8  141.57   12.58
   0  -1   8  166.23   14.70
   0  -1   9   88.28   12.14
   0  -1  -9   83.49   12.13
   0   1  -9   87.64   11.00
   0   1  -9   71.49    9.85
   0   1   9   80.45   12.17
   0  -1  10   80.41   12.56
   0   1 -10   90.22   12.40
   0   1  10   66.73   11.68
   0   1 -10   69.67   10.50
   0  -1 -10   77.86   12.56
   0   1  11   -0.45    8.10
   0   1 -11   20.85    8.77
   0   1 -11    6.77    7.29
   0  -1  11   14.58    9.41
   0  -1 -11   28.14    9.55
   0  -1 -12   11.63    8.79
   0  -1  12   12.17    7.73
   0   1 -12   16.67    9.34
   0   1  12   33.17   10.92
   0  -1 -13  247.69   22.53
   0  -1  13  214.57   22.20
   0   1  13  243.97   22.90
   0   1 -13  216.72   20.47
   0  -1 -14  193.49   21.61
   0  -1  14  189.20   22.02
   0   1 -14  161.35   18.87
   0   1  14  201.71   22.75
   0   1 -15  798.91   42.26
   0  -1 -15  782.65   43.52
   0   1  15  846.15   47.22
   0  -1  15  821.72   45.42
   0  -1  16  229.93   25.05
   0   1  16  279.53   28.28
   0  -1 -16  235.24   25.29
   0   1 -16  269.17   25.95
   0  -1 -17  189.81   24.63
   0   1  17  205.51   26.27
   0   1 -17  144.83   23.67
   0  -1  17  224.53   26.10
   0   1 -17  206.58   23.58
   0   1 -18   12.48   12.95
   0   1  18   15.72   12.74
   0  -1  18   11.26   12.30
   0  -1 -18   30.41   14.52
   0   1  19  138.97   22.65
   0  -1 -19  138.72   23.66
   0   2   0 2342.13   51.62
   0   2  -1  302.62   13.14
   0  -2   1  290.48   11.72
   0   2   1  297.87   13.05
   0   2  -2   16.95    5.06
   0   2   2   10.82    5.08
   0  -2   2   22.05    5.02
   0   2  -2    9.60    5.35
   0   2   3 1851.04   48.70
   0   2  -3 2130.07   45.07
   0  -2   3 2011.32   45.46
   0   2  -3 2054.99   41.45
   0   2  -3 1986.52   47.57
   0   2   3 1860.51   44.11
   0  -2   4 1939.40   45.90
   0   2  -4 1956.40   48.43
   0   2  -4 1980.17   42.61
   0   2  -4 1964.47   46.62
   0   2  -4 1890.85   41.73
   0   2   4 1823.24   49.55
   0   2   4 1797.73   42.08
   0   2   5 2129.26   57.94
   0   2   5 2263.38   48.56
   0   2  -5 2221.31   57.26
   0   2  -5 2219.12   55.13
   0   2  -5 2381.63   49.13
   0   2  -5 2294.11   50.65
   0  -2   5 2316.27   54.53
   0   2  -6 4115.52   79.53
   0  -2   6 4154.82   89.21
   0   2  -6 3853.41   89.06
   0   2  -6 4075.02   92.83
   0   2   6 3981.76   93.20
   0   2   6 4094.96   79.09
   0   2  -6 4167.30   84.84
   0   2   7  125.68   13.50
   0   2   7  134.33    7.16
   0   2  -7  139.98   13.98
   0   2  -7  129.06   12.25
   0  -2   7  155.13   13.09
   0   2  -7  149.75   11.57
   0   2  -7  151.77    7.79
   0   2   8 1144.58   42.37
   0   2  -8 1149.98   36.16
   0   2  -8 1093.95   25.58
   0  -2   8 1141.66   38.93
   0   2  -8 1146.75   38.43
   0   2   8 1021.64   24.48
   0  -2  -9  384.81   24.27
   0   2  -9  333.62   10.47
   0   2   9  377.71   24.73
   0  -2   9  404.64   23.11
   0   2  -9  420.54   21.49
   0   2  -9  392.39   22.02
   0   2 -10 2586.39   68.62
   0   2  10 2507.80   76.06
   0  -2 -10 2584.91   75.88
   0   2 -10 2542.14   70.52
   0  -2  10 2582.21   72.69
   0   2  11  279.16   23.31
   0   2 -11  326.32   21.38
   0  -2  11  313.74   23.18
   0  -2 -11  287.07   23.74
   0   2 -11  275.05   20.75
   0  -2  12  810.42   38.91
   0   2  12  762.66   40.87
   0   2 -12  820.11   36.33
   0   2 -12  702.01   35.56
   0  -2 -12  748.45   38.99
   0   2 -12  754.12   41.12
   0   2  13   74.12   16.39
   0  -2 -13   40.23   12.59
   0   2 -13   83.06   15.97
   0  -2  13   75.81   14.97
   0   2 -13   66.25   12.32
   0   2 -13   73.44   13.15
   0   2 -14   73.16   13.60
   0   2 -14   83.39   16.50
   0  -2 -14   87.28   16.07
   0   2  14   57.87   14.27
   0  -2  14   59.05   14.30
   0   2 -15  172.59   20.46
   0  -2 -15  144.19   20.28
   0  -2  15  151.39   20.68
   0   2 -15  135.39   21.25
   0   2  15  119.30   19.70
   0  -2 -16  122.63   19.54
   0   2  16  119.48   20.67
   0  -2  16  143.35   21.01
   0   2 -16  128.09   21.83
   0   2  17    1.89   11.19
   0  -2  17   35.95   15.78
   0   2 -17   -3.70   11.29
   0  -2 -17   17.95   12.84
   0  -2 -18   49.48   13.31
   0   2 -18   37.99   15.29
   0   2  18   66.11   18.67
   0   2  19   71.91   18.66
   0   3   0    4.19    6.73
   0   3   1  608.81   23.27
   0   3  -1  639.66   23.00
   0   3   2   74.56    9.15
   0  -3   2   70.18    7.67
   0   3  -2   77.27    9.19
   0   3  -3  857.13   27.35
   0  -3   3  805.24   25.84
   0   3   3  788.60   27.52
   0  -3   4   36.16    6.97
   0   3  -4   31.08    6.31
   0   3  -4   27.45    5.90
   0   3   4   27.93    8.51
   0   3  -4   32.04    7.16
   0   3   4   32.23    6.54
   0   3  -5  424.37   21.42
   0  -3   5  464.54   20.42
   0   3   5  419.38   17.80
   0   3   5  441.06   23.60
   0   3  -5  460.15   20.90
   0   3  -5  459.15   16.71
   0   3  -5  439.41   18.41
   0   3  -6  115.88   12.71
   0   3  -6  105.76    8.68
   0   3   6   89.36    8.71
   0   3   6   81.85   11.77
   0  -3   6  112.08   11.11
   0   3  -6  102.61    8.69
   0   3  -6  115.51   11.18
   0   3  -7 1312.73   42.78
   0   3   7 1314.93   46.81
   0   3  -7 1343.00   35.68
   0  -3   7 1375.39   42.24
   0   3  -7 1342.32   37.41
   0   3   7 1316.89   35.20
   0   3  -7 1283.91   45.28
   0   3  -8   15.62    3.96
   0   3  -8   23.98    8.77
   0   3  -8   24.96    6.42
   0   3  -8   12.88    5.65
   0   3   8    3.05    7.66
   0   3   8   12.67    4.08
   0  -3   8   16.48    7.46
   0   3  -9 2115.54   62.34
   0   3  -9 2109.65   47.84
   0  -3   9 2049.85   60.98
   0   3  -9 2160.45   56.29
   0   3   9 2049.55   67.54
   0   3  -9 2115.37   66.40
   0  -3 -10   70.22   13.59
   0   3 -10   83.10   10.83
   0   3  10   72.58   13.03
   0   3 -10   49.13   11.64
   0  -3  10   77.66   12.27
   0   3 -10   65.93   11.05
   0   3 -11  525.96   27.28
   0   3 -11  529.70   32.97
   0  -3  11  567.59   31.15
   0   3  11  585.51   35.16
   0   3 -11  605.12   31.91
   0  -3 -11  592.78   34.11
   0   3 -12   -3.34   10.27
   0  -3  12   10.56    9.75
   0   3  12  -10.34    9.39
   0   3 -12   -2.53    6.99
   0   3 -12    5.21    8.14
   0  -3 -12  -11.91    9.93
   0   3  13  443.25   33.57
   0  -3  13  384.91   27.69
   0  -3 -13  412.60   31.61
   0   3 -13  418.89   26.03
   0   3 -13  382.95   30.87
   0   3 -13  419.55   28.90
   0  -3 -14   21.49   11.45
   0   3 -14  -11.23    9.39
   0  -3  14   18.73   11.73
   0   3  14    8.63    9.51
   0   3 -14   13.24   12.70
   0   3 -15  145.52   21.09
   0  -3  15  191.49   21.86
   0  -3 -15  149.52   21.12
   0   3 -15  195.93   22.34
   0   3  15  113.30   20.62
   0   3  16   12.29   10.65
   0  -3 -16    7.68   11.90
   0  -3  16   30.07   14.01
   0   3 -16  -11.49   12.06
   0   3 -17  -36.21   14.62
   0  -3 -17    7.81   11.47
   0   3  17   24.80   13.21
   0   3 -18  119.79   22.97
   0  -3 -18  108.54   20.85
   0   3  18   86.45   20.68
   0   4   0 1464.48   43.34
   0   4  -1  910.87   32.24
   0   4   1  894.42   32.52
   0   4  -2  550.75   23.58
   0   4   2  504.21   23.72
   0   4  -3  343.61   18.89
   0  -4   3  374.82   18.40
   0   4   3  332.18   19.83
   0   4   3  367.20   19.51
   0  -4   4 1209.75   36.95
   0   4   4 1193.78   38.23
   0   4  -4 1208.42   37.41
   0   4  -5  397.15   21.46
   0   4  -5  408.93   22.90
   0   4  -5  396.39   20.02
   0   4   5  429.37   20.88
   0  -4   5  409.25   20.50
   0   4   5  426.40   24.69
   0   4  -6 2274.43   65.66
   0   4  -6 2288.88   63.15
   0   4   6 2310.77   68.17
   0   4   6 2382.32   59.36
   0   4  -6 2412.82   59.17
   0  -4   6 2369.22   61.58
   0   4  -7  367.09   23.47
   0   4   7  368.92   18.82
   0   4   7  332.01   23.60
   0  -4   7  389.96   21.36
   0   4  -7  376.88   18.50
   0   4  -7  383.52   22.76
   0   4   8 1491.60   55.83
   0   4  -8 1565.99   43.40
   0   4  -8 1510.01   51.03
   0   4   8 1518.17   42.96
   0   4  -8 1517.05   53.44
   0   4  -8 1560.50   43.37
   0  -4   8 1648.87   50.05
   0   4  -9   11.06    7.91
   0  -4   9   21.15    9.07
   0   4  -9    4.43    5.65
   0   4   9   10.05   10.15
   0   4   9    0.51    4.52
   0   4  -9   19.15    9.58
   0   4  -9    8.74    4.69
   0   4 -10 1201.13   46.86
   0   4  10 1169.39   51.84
   0   4 -10 1240.55   51.05
   0  -4  10 1169.41   45.32
   0   4 -10 1283.55   40.69
   0   4 -11   30.05    8.22
   0   4  11   37.25   10.48
   0   4 -11   39.72   12.37
   0  -4  11   59.60   12.80
   0   4 -11   35.65   10.21
   0  -4 -11   51.93   14.35
   0  -4  12  410.96   27.70
   0   4 -12  383.36   27.35
   0   4  12  415.34   31.93
   0  -4 -12  395.43   30.30
   0   4 -12  417.17   31.15
   0   4 -13  251.37   25.30
   0  -4 -13  219.88   23.95
   0  -4  13  225.28   22.31
   0   4  13  242.41   26.11
   0   4 -13  228.19   22.97
   0  -4  14   83.07   15.39
   0   4 -14   65.09   14.51
   0   4  14   83.15   17.39
   0   4 -14   97.16   18.56
   0  -4 -14   41.57   13.17
   0   4  15   -2.41   10.85
   0  -4 -15  -14.75   13.60
   0   4 -15    3.34    9.38
   0   4 -15   13.53   11.97
   0  -4  15   30.16   12.67
   0   4 -16    4.24   12.02
   0   4 -16   12.17   11.26
   0   4  16  -16.30   13.15
   0  -4 -16   12.88   10.35
   0   4  17   22.89   13.35
   0  -4 -17   31.77   14.39
   0   4 -17   85.35   21.00
   0   4  18   40.30   17.71
   0   5   0   -1.35    7.43
   0   5   1   23.22    8.54
   0   5  -1   47.32   10.51
   0   5   2 1816.73   54.88
   0   5  -2 1875.57   54.54
   0   5   2 1821.45   54.63
   0   5  -2 1766.16   53.11
   0   5   3 2447.32   65.85
   0   5   3 2363.00   66.49
   0   5  -3 2482.36   65.48
   0   5  -3 2404.21   65.45
   0   5  -4  302.69   18.89
   0   5   4  276.18   19.28
   0  -5   4  304.19   18.22
   0   5   5  430.13   23.25
   0   5  -5  442.99   23.08
   0  -5   5  487.77   23.36
   0   5   6  124.91   13.29
   0   5  -6  112.00   11.87
   0  -5   6  120.62   12.91
   0   5  -6  110.00   13.25
   0   5   6  104.19   15.44
   0   5  -7  444.80   25.97
   0   5   7  514.63   25.18
   0   5  -7  502.04   24.41
   0  -5   7  531.25   26.36
   0   5  -7  471.34   28.10
   0   5   7  464.76   29.59
   0   5  -8   58.82   11.88
   0   5  -8   31.89    9.16
   0   5   8   26.35   10.81
   0  -5   8   33.39    8.71
   0   5  -8   41.14    7.71
   0   5   8   39.35    8.43
   0  -5   9  742.12   33.63
   0   5  -9  748.36   29.31
   0   5  -9  651.53   34.49
   0   5   9  701.01   28.88
   0   5   9  622.40   37.63
   0   5  -9  722.85   38.04
   0   5  10   89.25   16.34
   0   5 -10   86.38   13.53
   0   5 -10   95.89   15.60
   0  -5  10  104.96   13.84
   0   5 -11   63.40   13.45
   0   5  11   46.35   14.15
   0   5 -11   52.00   12.94
   0  -5  11   69.05   12.93
   0   5 -12  191.01   22.26
   0   5  12  217.53   25.60
   0  -5  12  272.29   22.98
   0  -5 -12  246.40   26.06
   0   5 -12  230.37   22.04
   0   5 -13  205.45   22.35
   0   5  13  209.91   26.11
   0   5 -13  170.05   22.25
   0  -5  13  202.34   21.70
   0  -5 -13  226.46   25.43
   0   5 -14  170.02   23.01
   0   5 -14  173.26   20.85
   0  -5  14  164.87   19.82
   0  -5 -14  163.46   22.63
   0   5  14  202.54   26.62
   0  -5 -15   81.97   17.88
   0   5  15  127.60   23.08
   0   5 -15  113.80   21.19
   0   5 -15  108.13   16.87
   0   5 -16   -6.11   10.00
   0   5  16   30.99   15.45
   0  -5 -16   -9.28   10.78
   0   5 -16   -9.51   12.66
   0   5  17   82.43   19.01
   0  -5 -17  131.13   22.90
   0   5 -17  107.25   22.18
   0   6   0 2510.89   71.75
   0   6   0 2454.30   70.48
   0   6  -1  201.95   18.78
   0   6   1  211.72   18.09
   0   6   1  194.47   18.45
   0   6  -1  229.35   18.80
   0   6   2 2533.32   73.51
   0   6  -2 2642.10   72.95
   0   6   3   16.46    7.55
   0   6  -3   14.70    8.08
   0   6  -4 1816.17   57.62
   0   6   4 1922.65   59.21
   0   6  -5  129.67   14.09
   0   6   5  132.20   14.55
   0  -6   5  125.14   13.22
   0  -6   6   96.00   12.55
   0   6  -6  132.62   15.10
   0   6   6  100.27   15.57
   0   6   6   99.47   13.88
   0   6  -6   95.47   12.82
   0   6  -7  629.24   30.44
   0   6   7  512.93   34.14
   0   6  -7  562.60   31.28
   0  -6   7  644.34   31.18
   0   6   7  630.51   30.92
   0   6  -8   49.22    9.53
   0   6   8   45.19   10.56
   0   6   8   21.40   10.59
   0   6  -8   45.65   10.87
   0  -6   8   28.23    8.32
   0  -6   9    1.19    7.45
   0   6  -9   -6.41    8.79
   0   6  -9   15.35    7.62
   0   6   9    1.81   10.24
   0   6   9   -8.89    6.87
   0  -6  10  153.68   16.78
   0   6 -10  122.89   18.22
   0   6  10   90.50   16.96
   0   6 -10  141.33   17.48
   0  -6  11    9.56    9.52
   0   6  11   -2.18   11.84
   0   6 -11    3.64   11.73
   0   6 -11   16.31    9.66
   0   6 -12  225.94   22.98
   0   6  12  242.32   27.47
   0  -6 -12  230.06   25.34
   0  -6  12  259.53   22.69
   0   6 -12  199.72   24.33
   0   6 -13   17.62   12.06
   0   6 -13   16.17    8.61
   0  -6  13   16.18   10.12
   0  -6 -13    8.51    9.75
   0   6  13   11.81   11.64
   0   6 -14   63.14   16.72
   0   6 -14   90.62   17.87
   0  -6 -14   69.57   17.99
   0   6  14  100.11   19.50
   0   6 -15   23.32   13.32
   0   6 -15   30.69   13.25
   0   6  15   26.84   17.07
   0  -6 -15   21.81   14.35
   0  -6 -16  347.18   34.64
   0   6 -16  379.47   37.79
   0   6 -16  312.20   30.56
   0   6  16  400.13   39.15
   0   7   0    8.92    8.45
   0   7   1 2180.64   69.28
   0   7  -1 2242.59   69.79
   0   7  -2   97.86   14.90
   0   7   2   96.97   15.09
   0   7   3 2423.79   74.03
   0   7  -3 2451.73   73.93
   0   7  -4  127.84   16.21
   0   7   4   98.22   15.05
   0   7  -5   88.34   13.71
   0   7   5   89.61   14.92
   0   7   6   29.27   12.19
   0   7   6   -2.39    8.10
   0   7  -6    3.29    7.66
   0   7  -7    7.12    7.59
   0  -7   7   12.85   10.05
   0   7   7    4.81    8.52
   0   7  -7    4.98    9.51
   0   7   7   -2.10    9.35
   0   7  -8  507.39   28.89
   0   7   8  460.09   34.64
   0   7  -8  521.86   32.00
   0  -7   8  546.68   30.36
   0   7   8  535.84   30.13
   0   7  -9   43.93   10.60
   0  -7   9   42.10   11.70
   0   7  -9   53.77   12.91
   0   7   9   58.64   16.22
   0   7   9   48.44   11.31
   0  -7  10  117.54   16.66
   0   7  10   81.11   18.18
   0   7 -10  140.50   17.92
   0  -7  11   34.29   11.80
   0   7  11   25.84   12.88
   0   7 -11   21.59    9.93
   0  -7 -12  126.56   19.78
   0   7  12  108.12   21.07
   0   7 -12  157.48   20.53
   0  -7  12  192.80   21.78
   0   7  13  173.50   26.19
   0   7 -13  188.29   23.16
   0  -7 -13  231.60   26.77
   0   7  14   14.07   15.87
   0   7 -14   22.06   13.05
   0  -7 -14    2.41   10.50
   0   7  15  202.13   29.18
   0   7 -15  179.65   24.23
   0  -7 -15  183.75   25.37
   0   7  16   21.13   15.01
   0   7 -16    3.37   11.19
   0   8   0  610.59   35.52
   0   8  -1   59.61   13.41
   0   8   1   27.08   10.46
   0   8   2  175.13   20.00
   0   8  -2  130.46   17.08
   0   8   3  685.44   37.78
   0   8  -3  668.14   37.10
   0   8   4  225.97   22.58
   0   8  -4  208.58   20.71
   0   8   5  258.32   22.75
   0   8  -5  263.01   23.36
   0   8  -6  876.96   42.93
   0   8   6 1024.59   46.10
   0   8  -7    2.39   10.64
   0   8  -7   16.36    9.23
   0   8   7   13.53   10.29
   0   8   7   13.63   11.19
   0   8  -8  275.20   25.32
   0   8   8  350.92   26.79
   0   8  -8  360.06   26.34
   0   8   8  349.07   32.51
   0  -8   9   93.90   15.10
   0   8  -9   67.55   11.80
   0   8   9  104.85   19.59
   0   8  -9   74.74   14.87
   0   8   9   77.59   13.66
   0  -8  10  250.47   23.19
   0   8 -10  178.76   21.71
   0   8  10  171.07   23.89
   0   8 -11  114.81   18.03
   0   8  11  149.48   24.08
   0  -8  11  109.04   16.55
   0  -8 -12  266.62   28.83
   0   8 -12  297.43   28.95
   0   8  12  292.54   32.47
   0  -8 -13  209.68   25.91
   0   8 -13  242.52   27.00
   0   8  13  257.02   30.83
   0   8  14  110.44   23.49
   0   8 -14  100.96   18.27
   0  -8 -14  104.95   21.86
   0   8 -15   43.37   14.31
   0   8  15   36.46   18.70
   0   8 -16  190.01   26.14
   0   9   0   -0.86    9.39
   0   9   1   16.31   10.70
   0   9  -1   37.20   11.85
   0   9   2   70.24   15.35
   0   9  -2   84.24   16.73
   0   9   3  119.37   18.36
   0   9  -3   64.85   14.47
   0   9  -4  127.04   17.99
   0   9   4  127.07   18.75
   0   9  -5  143.39   19.28
   0   9   5  159.18   20.10
   0   9  -6   95.23   15.93
   0   9   6   69.60   14.55
   0   9  -7  999.04   49.37
   0   9  -7 1055.13   49.61
   0   9   7 1057.38   50.95
   0   9   7 1057.45   56.45
   0   9   8   57.46   17.02
   0   9  -8   46.84   13.12
   0   9   8   36.51   11.42
   0   9  -8   59.00   14.59
   0   9   9  974.01   48.09
   0   9   9  836.68   52.49
   0   9  -9  941.25   46.39
   0   9  -9  868.73   48.32
   0   9  10   33.44   13.68
   0   9 -10   43.93   14.72
   0   9  11  678.36   48.57
   0   9 -11  648.12   43.32
   0   9  12   19.03   16.04
   0   9 -12   25.78   12.44
   0  -9 -12   40.00   16.29
   0   9  13  416.47   40.89
   0   9 -13  420.40   35.67
   0  -9 -13  393.15   36.45
   0   9  14    6.48   14.92
   0   9 -14   29.24   12.91
   0  -9 -14   38.09   16.60
   0  10   0   92.53   17.47
   0  10  -1    1.85   11.53
   0  10   1   -0.30   11.80
   0  10  -2   36.05   11.38
   0  10   2   30.61   12.99
   0  10  -3   55.68   13.92
   0  10   3   66.22   15.16
   0  10   4  134.98   21.40
   0  10  -4  132.23   19.96
   0  10   5  210.30   24.26
   0  10  -5  209.86   23.69
   0  10  -6  545.15   37.33
   0  10   6  596.91   39.99
   0  10  -7  221.30   24.10
   0  10   7  240.79   28.92
   0  10  -7  233.01   25.10
   0  10   7  304.74   28.57
   0  10   8  259.19   26.75
   0  10  -8  257.85   26.75
   0  10   8  258.28   30.57
   0  10  -8  240.90   25.28
   0  10   9   56.45   17.65
   0  10  -9   54.38   13.75
   0  10  -9   60.13   15.52
   0  10   9   43.44   12.99
   0  10  10  254.61   32.84
   0  10 -10  243.13   27.27
   0  10 -11    3.81   10.20
   0  10  11  -13.56   13.68
   0  10 -12  309.35   32.02
   0  10  12  371.03   39.01
   0 -10 -12  303.24   32.49
   0  10 -13   41.44   16.35
   0  11   0    6.77   11.57
   0  11   1  646.00   43.39
   0  11  -1  554.02   40.35
   0  11   2   40.68   15.49
   0  11  -2    9.84   10.46
   0  11   3  514.21   38.98
   0  11  -3  448.06   36.42
   0  11  -4  372.94   32.79
   0  11   4  410.15   34.88
   0  11  -5  153.00   22.56
   0  11   5  120.48   20.77
   0  11   6   66.27   18.96
   0  11   6   72.91   17.13
   0  11  -6   74.66   17.78
   0  11   7  393.03   38.35
   0  11  -7  402.47   34.39
   0  11  -7  423.98   35.92
   0  11   7  474.38   36.91
   0  11  -8   42.93   15.65
   0  11   8   -0.58   13.98
   0  11   8   31.25   14.97
   0  11  -8   11.23   11.51
   0  11  -9  178.47   23.34
   0  11   9  155.40   26.24
   0  11  -9  218.96   27.21
   0  11 -10   21.08   13.93
   0  11  10   25.91   14.09
   0  11 -11   56.06   18.19
   0  11  11   20.62   15.80
   0 -11 -11   15.35   13.16
   0  12   0  381.80   35.40
   0  12  -1    1.55   10.69
   0  12   1   18.95   12.09
   0  12   2  271.05   31.06
   0  12  -2  218.25   27.63
   0  12  -3   -0.53   10.99
   0  12   3    1.87   10.60
   0  12   4   68.76   17.52
   0  12  -4   86.32   19.19
   0  12  -5   11.28   11.62
   0  12   5    7.81   10.81
   0  12  -6  210.79   27.33
   0  12   6  256.30   29.81
   0  12   6  264.88   32.32
   0  12  -7  -23.69   13.67
   0  12   7   18.69   12.07
   0  12   7   10.50   14.45
   0  12  -7  -12.14   12.29
   0  12  -8   63.09   17.02
   0  12   8   51.84   20.59
   0  12  -8   87.77   19.46
   0  12   8   44.59   15.34
   0  12   9   23.01   13.86
   0  12  -9   20.82   14.86
   0  12  -9   -6.33   13.58
   0  13   0   14.19   12.04
   0  13  -1  607.96   47.23
   0  13   1  638.19   48.12
   0  13  -2   22.09   16.36
   0  13   2   39.59   16.25
   0  13  -3  529.57   43.53
   0  13   3  499.35   42.83
   0  13  -4   14.65   14.07
   0  13   4   28.18   15.49
   0  13  -5   24.46   12.62
   0  13   5   35.02   14.31
   0  13   6  179.25   26.75
   0  13   6  159.61   27.18
   0  13  -6  105.14   21.04
   0  13  -6  142.65   23.68
   0  13  -7   59.03   17.18
   0  13   7   57.77   17.27
   0  13  -8   -9.54   11.73
   0  13   8    3.53   12.55
  -1   0  19   76.27   20.38
  -1   0  18   -0.21    9.94
   1   0 -17   29.54   13.12
  -1   0  17   33.00   14.17
  -1   0  16    3.61    9.77
   1   0 -16   49.49   14.93
  -1   0  15  397.72   32.70
   1   0 -15  453.20   31.17
  -1   0  14    3.64   10.86
   1   0 -14    5.21    9.21
   1   0 -13  385.63   26.56
  -1   0  13  379.03   29.47
   1   0 -12    4.13    8.39
  -1   0  12   -7.88    9.10
   1   0 -11  338.95   23.02
  -1   0  11  299.24   23.80
  -1   0  10    1.61    7.87
   1   0 -10    8.87    7.60
  -1   0   9 1271.62   46.18
  -1   0   8   14.24    8.05
   1   0  -8    6.38    4.35
   1   0  -7 2486.15   47.72
  -1   0   7 2436.84   65.31
   1   0  -7 2545.25   57.04
   1   0  -6    2.24    3.30
   1   0  -6    1.47    1.89
  -1   0   6   -2.07    6.40
   1   0  -5 2724.63   52.47
   1   0  -5 2716.65   55.20
  -1   0   5 2596.97   63.74
   1   0  -4    2.39    2.85
  -1   0   4   10.57    6.60
   1   0  -4    0.49    2.72
   1   0  -3  725.73   15.98
  -1   0   3  722.19   22.77
   1   0  -3  666.95   17.74
  -1   0   2   -0.20    3.40
  -1   0   2    1.74    3.97
  -1   0  -2    0.67    4.49
   1   0   2    3.53    2.84
  -1   0  -2   -0.25    3.34
  -1   0  -3 4943.59   91.08
   1   0   3 4979.88   92.64
   1   0   3 4931.81   90.42
  -1   0  -3 4750.40   97.29
  -1   0  -3 4840.25   96.76
   1   0   3 5013.93   96.59
  -1   0  -4    8.21    5.91
   1   0   4   -1.21    2.89
   1   0   4    8.69    4.79
  -1   0  -4    4.99    5.22
   1   0   4    6.40    4.57
  -1   0  -5  839.37   28.93
   1   0   5  896.78   20.53
   1   0   5  927.88   29.99
   1   0   5  848.73   26.73
  -1   0  -5  887.68   29.12
   1   0   6   -1.91    2.02
   1   0   6    5.72    5.17
  -1   0  -6   -6.40    5.61
   1   0   6    8.26    6.19
  -1   0  -7  833.38   30.88
   1   0   7  742.73   17.13
   1   0   7  825.52   29.63
   1   0   8    3.14    7.13
  -1   0  -8   10.71    6.74
  -1   0  -9  405.70   23.59
   1   0   9  381.33   22.46
   1   0  10   13.79    9.14
  -1   0 -10    2.16    7.70
   1   0  11  876.06   38.66
  -1   0 -11  933.42   40.56
  -1   0 -12   20.57   10.66
   1   0  12    3.16    7.95
  -1   0 -13  316.94   25.87
   1   0  13  358.37   26.29
   1   0  14   16.48   11.39
  -1   0 -14    3.10   10.42
   1   0  15  400.63   30.93
  -1   0 -15  408.69   31.47
  -1   0 -16   13.38   11.13
   1   0  16    2.93   10.20
  -1   0 -17   38.61   14.03
  -1   0 -18   53.85   16.70
  -1   0 -19   35.97   14.38
  -1   1  19   16.54   13.75
  -1  -1  19   49.28   16.34
  -1  -1  18   19.42   14.94
  -1   1  18  -31.23   14.03
   1   1 -18   31.95   14.73
   1  -1 -18    8.21   14.08
   1   1 -17    9.03   11.06
  -1   1  17   40.45   13.75
   1  -1 -17   64.42   16.27
  -1  -1  17   36.64   14.15
   1  -1 -16   80.98   16.02
  -1   1  16   72.89   16.76
  -1  -1  16   47.51   14.26
   1  -1 -15   14.97   10.59
  -1  -1  15   15.04   11.41
   1   1 -15   11.23    9.17
  -1   1  15   -5.18   10.34
  -1  -1  14  184.94   21.91
   1  -1 -14  211.69   21.79
  -1   1  14  217.94   24.32
   1   1 -14  219.11   20.20
   1  -1 -13  275.27   24.01
  -1   1  13  285.25   25.77
   1   1 -13  305.14   22.50
  -1  -1  13  299.77   25.47
   1  -1 -12    4.78    8.97
  -1  -1  12  -12.78    9.18
  -1   1  12   17.80    9.19
   1   1 -12   11.31    8.72
  -1  -1  11  161.60   17.82
   1   1 -11  145.07   14.16
   1   1 -11  139.18   14.59
   1  -1 -11  213.98   19.64
  -1   1  11  151.08   18.11
  -1   1  10 1270.50   49.65
  -1  -1  10 1342.95   49.61
   1   1 -10 1328.42   44.45
   1   1 -10 1332.50   42.78
   1   1  -9   43.82    8.63
  -1  -1   9   48.57   10.70
  -1   1   9   35.89    9.80
   1   1  -9   34.01    7.12
   1  -1  -8 1371.59   30.18
   1   1  -8 1555.12   41.72
  -1   1   8 1507.63   49.64
  -1  -1   8 1634.94   49.65
   1   1  -8 1699.61   45.32
   1   1  -8 1468.47   30.94
  -1   1   7   14.97    2.82
   1   1  -7   17.12    2.96
  -1  -1   7    6.92    6.68
  -1   1   7   16.83    7.23
   1   1  -7    9.22    4.08
  -1  -1   6  780.21   29.72
   1   1  -6  833.22   20.66
  -1   1   6  759.71   20.06
   1   1  -6  784.23   24.84
  -1   1   6  707.40   29.53
   1   1  -5   51.93    6.24
  -1  -1   5   45.95    8.00
   1   1  -5   58.46    5.13
  -1   1   5   53.32    5.05
  -1   1   5   28.47    7.18
   1   1  -4 2774.42   53.32
  -1  -1   4 2565.21   60.24
  -1   1   4 2542.35   53.04
   1   1  -4 2597.55   54.45
  -1   1   4 2617.24   61.19
  -1  -1   3 1433.25   36.92
  -1   1   3 1406.10   36.91
   1   1  -3 1473.77   32.57
  -1   1   3 1414.82   32.14
   1   1  -2  406.86   13.36
  -1   1   2  367.11   14.44
   1   1  -2  412.49   12.31
  -1   1   2  376.54   13.19
  -1  -1   2  381.82   14.59
  -1   1   1   82.96    6.40
   1   1  -1   84.63    6.12
  -1   1   1   73.42    5.48
  -1  -1   1   74.89    6.39
  -1  -1   0 4076.32   75.28
  -1   1   0 4351.71   74.47
  -1  -1   0 4082.12   77.95
  -1   1  -1 1433.79   31.60
  -1  -1  -1 1405.82   31.01
  -1   1  -1 1367.33   31.49
   1   1   1 1410.95   31.62
  -1   1  -1 1428.06   31.55
   1   1   1 1367.85   32.74
  -1   1  -2 3765.73   75.02
   1   1   2 3747.28   76.49
   1   1   2 3758.48   72.69
  -1   1  -2 3802.10   72.82
  -1  -1  -2 3729.58   74.89
  -1   1  -2 3849.09   75.30
  -1   1  -3    1.87    4.88
   1   1   3    2.16    2.62
  -1   1  -3    6.08    6.00
  -1  -1  -3    0.14    4.88
   1  -1   3    7.14    3.38
  -1   1  -3    5.78    3.82
   1   1   3    5.53    6.04
  -1   1  -3   -0.87    5.42
  -1  -1  -4  125.18   10.55
   1  -1   4  122.44    8.43
   1  -1   4  120.14    7.73
  -1   1  -4  108.67    9.46
  -1   1  -4  121.69    7.12
   1   1   4  136.59   11.56
   1   1   4  133.48    7.05
  -1   1  -4  117.66    9.74
   1   1   4  116.79   10.26
   1   1   5  281.60   10.37
  -1   1  -5  249.83   14.53
  -1   1  -5  238.33   14.99
  -1  -1  -5  222.56   14.81
   1   1   5  229.78   14.17
  -1   1  -5  238.93   10.04
   1  -1   5  273.15   13.71
   1   1   5  257.19   17.03
   1  -1   5  250.28   12.62
  -1   1  -6 3190.53   73.18
  -1   1  -6 3070.44   61.44
  -1   1  -6 2991.80   72.88
   1   1   6 3253.03   62.02
   1  -1   6 3311.52   72.76
   1  -1   6 3115.21   69.67
   1   1   6 3164.68   73.81
  -1  -1  -6 3100.88   74.82
   1  -1   7    9.02    4.45
  -1   1  -7    4.44    2.28
   1   1   7    1.63    6.90
  -1  -1  -7   -1.65    6.59
  -1   1  -7    5.34    6.08
   1   1   7    5.86    3.01
   1  -1   7   -0.60    5.23
  -1   1  -7    1.72    5.46
   1  -1   8  725.71   28.15
  -1   1  -8  749.14   30.07
  -1   1  -8  686.25   29.39
   1   1   8  617.18   16.06
  -1  -1  -8  748.35   31.49
   1  -1   8  618.15   14.77
   1   1   8  732.98   30.80
  -1   1  -9  192.66   16.20
   1  -1   9  197.97   15.67
   1   1   9  207.21   17.77
  -1  -1  -9  184.33   16.99
  -1   1  -9  197.76   17.08
  -1   1 -10  339.67   22.95
   1   1  10  339.77   23.46
   1  -1  10  356.85   22.11
  -1   1 -10  345.50   22.30
  -1  -1 -10  318.28   23.10
  -1   1 -11   23.57    9.04
   1  -1  11    4.81    7.62
  -1  -1 -11   20.46    9.14
   1   1  11   15.75    9.27
  -1  -1 -12 1214.82   50.71
   1  -1  12 1267.47   48.93
   1   1  12 1219.44   50.31
  -1   1 -12 1226.91   48.91
  -1   1 -13   33.68   11.72
  -1  -1 -13   28.71   11.43
   1  -1  13   29.71   11.02
   1   1  13   49.71   14.13
  -1   1 -14  735.68   40.04
   1   1  14  817.39   43.64
   1  -1  14  853.70   42.43
  -1  -1 -14  816.74   44.16
  -1  -1 -15   -6.42   10.12
   1   1  15   14.79   11.83
   1  -1  15   -2.96   10.39
  -1   1 -15   12.11   12.60
  -1   1 -16  322.74   28.41
  -1   1 -16  286.81   30.65
   1   1  16  301.71   29.47
  -1  -1 -16  283.38   28.49
   1   1  17   14.46   12.75
  -1   1 -17    4.56   13.85
  -1  -1 -17   13.56   11.78
  -1   1 -17   34.29   14.25
  -1   1 -18   64.69   18.50
  -1  -1 -18  116.65   20.87
  -1   1 -18  106.25   20.20
   1  -2 -19  139.05   22.81
  -1  -2  19  136.70   23.63
   1  -2 -18   15.18   13.73
  -1   2  18   10.52   12.67
   1   2 -18   12.00   12.71
  -1  -2  18  -13.49   14.01
  -1   2  17  158.51   24.33
   1  -2 -17  169.55   22.77
  -1  -2  17  162.39   23.40
   1   2 -17  153.41   23.92
   1   2 -16   -1.38   10.76
  -1  -2  16   22.30   13.10
   1  -2 -16   24.67   12.72
  -1   2  16    0.40   10.65
  -1   2  15  271.17   28.05
  -1  -2  15  298.10   27.93
   1   2 -15  256.05   27.05
   1  -2 -15  263.04   25.52
   1   2 -14   68.42   12.13
   1  -2 -14   76.05   15.89
  -1   2  14   52.81   15.32
   1   2 -14   41.54   12.30
  -1  -2  14   72.88   15.74
  -1  -2  13  776.18   41.52
   1   2 -13  796.69   36.78
  -1   2  13  796.44   44.04
   1   2 -13  765.43   42.77
   1   2 -13  800.07   36.35
   1  -2 -13  832.51   42.51
  -1   2  12  345.43   27.63
   1   2 -12  372.41   23.02
   1  -2 -12  377.79   27.30
   1   2 -12  348.24   23.02
  -1  -2  12  358.37   26.26
   1   2 -11 1083.97   40.70
  -1  -2  11 1160.06   47.25
   1   2 -11 1109.84   39.86
  -1   2  11 1108.41   48.59
   1   2 -10   24.84    7.86
  -1   2  10   11.90    8.81
  -1  -2  10   25.05    9.36
   1   2 -10   14.70    6.81
   1   2  -9  671.52   28.10
  -1  -2   9  709.57   32.87
  -1   2   9  689.98   18.88
   1   2  -9  721.62   27.01
  -1   2   9  674.76   34.20
   1   2  -8   10.18    3.70
   1   2  -8    9.50    5.72
  -1   2   8   19.01    8.79
  -1  -2   8    5.73    6.54
   1   2  -8    3.80    5.66
  -1   2   8    2.73    2.83
   1   2  -7  763.85   24.97
   1   2  -7  750.72   30.89
  -1   2   7  714.57   21.43
  -1  -2   7  730.84   30.35
  -1   2   7  705.01   32.08
   1   2  -7  783.14   22.64
   1   2  -7  725.42   27.10
  -1   2   6  419.14   22.76
  -1   2   6  432.05   15.85
   1   2  -6  430.17   18.99
  -1  -2   6  440.62   22.17
   1   2  -6  444.00   21.43
   1   2  -6  459.38   16.96
   1   2  -6  459.49   16.70
   1   2  -5 1016.18   28.12
   1   2  -5 1045.96   32.63
  -1  -2   5  959.01   32.70
   1   2  -5  999.12   30.23
  -1   2   5  955.00   26.93
   1   2  -5 1056.99   25.75
  -1   2   5  946.02   34.25
   1   2  -4  127.84    6.41
   1   2  -4  120.05   10.47
  -1   2   4   80.64    9.58
  -1   2   4  115.96    8.46
   1   2  -4  137.49    8.94
  -1  -2   4   99.90   10.12
  -1   2   3  815.38   27.63
   1   2  -3  910.69   25.27
  -1  -2   3  872.09   27.66
   1   2  -3  834.34   25.26
  -1   2   3  829.97   24.39
  -1  -2   2 1521.20   38.40
  -1   2   2 1432.59   36.56
   1   2  -2 1597.97   37.35
  -1   2   2 1498.71   38.48
  -1   2   1 2113.25   46.56
  -1  -2   1 1972.45   46.66
  -1   2   1 2100.01   46.13
   1   2  -1 2069.01   46.65
   1   2   0  234.47   10.48
  -1  -2   0  248.76    8.67
   1   2   0  227.19   12.00
  -1   2   0  230.07   11.96
   1   2   1 1152.23   30.59
   1   2   1 1142.85   30.67
  -1   2  -1 1168.80   30.16
  -1   2  -1 1151.06   29.41
  -1  -2  -1 1182.18   28.42
   1   2   2   25.56    5.89
   1  -2   2   27.01    3.75
  -1  -2  -2   41.83    6.97
  -1   2  -2   15.52    5.26
   1   2   2   24.86    6.88
  -1   2  -2   11.09    4.56
  -1   2  -2   30.84    5.82
   1  -2   3  683.48   18.06
  -1   2  -3  632.99   23.50
  -1  -2  -3  722.37   24.19
  -1   2  -3  622.78   20.44
   1   2   3  665.36   21.27
  -1   2  -3  630.53   22.74
   1   2   3  630.53   25.02
  -1   2  -4   37.90    6.81
  -1  -2  -4   49.34    8.56
   1   2   4   50.19    6.79
  -1   2  -4   47.46    6.09
  -1   2  -4   36.63    7.98
   1  -2   4   36.72    5.15
  -1   2  -4   45.75    6.87
   1   2   4   28.55    9.02
  -1   2  -5 2208.67   59.30
  -1  -2  -5 2365.63   59.57
   1  -2   5 2302.52   51.95
  -1   2  -5 2227.93   50.55
   1   2   5 2236.64   59.52
   1  -2   5 2494.87   52.68
  -1   2  -5 2203.47   57.41
   1   2   5 2363.13   51.89
  -1   2  -5 2293.18   55.53
  -1   2  -6  477.77   22.72
   1   2   6  479.83   17.70
   1  -2   6  508.39   19.61
  -1  -2  -6  483.80   23.96
   1   2   6  436.28   22.83
  -1   2  -6  463.73   23.85
   1  -2   6  495.13   19.57
  -1   2  -6  496.68   21.57
  -1   2  -6  450.78   16.42
  -1   2  -7  147.71   12.69
   1   2   7  143.37   14.51
   1  -2   7  165.93   11.93
  -1   2  -7  158.23   15.50
  -1   2  -7  160.50   14.39
   1  -2   7  145.26   11.65
  -1   2  -7  151.26    8.72
   1   2   7  167.40    9.73
  -1  -2  -7  139.61   14.19
  -1   2  -8  548.87   17.31
  -1  -2  -8  511.55   27.41
  -1   2  -8  508.50   26.32
  -1   2  -8  518.48   28.45
   1   2   8  520.45   27.58
   1   2   8  557.04   18.24
   1  -2   8  579.77   24.48
  -1   2  -8  558.01   25.86
  -1   2  -9  222.61   17.83
  -1   2  -9  212.06    9.33
  -1  -2  -9  251.49   20.10
   1  -2   9  242.04   16.71
  -1   2  -9  255.71   18.04
   1   2   9  218.62   18.97
  -1   2  -9  213.53   19.32
  -1   2 -10  210.64   18.39
   1  -2  10  229.24   17.64
  -1  -2 -10  208.35   20.06
  -1   2 -10  221.62   20.76
  -1   2 -10  274.50   20.47
   1   2  10  222.81   20.01
  -1   2 -11  226.21   19.10
  -1   2 -11  231.54   20.78
  -1  -2 -11  231.43   20.93
   1   2  11  225.13   21.56
   1  -2  11  249.88   19.33
  -1   2 -11  218.50   21.86
   1   2  12   -0.94    9.45
  -1   2 -12    0.21    9.84
  -1   2 -12    3.05    8.73
  -1   2 -12   17.95    9.70
   1  -2  12   12.38    9.14
  -1  -2 -12  -11.61    9.67
  -1   2 -13   14.04    9.51
   1   2  13   20.40   11.04
  -1   2 -13    9.48    8.64
  -1   2 -13   -1.73   10.08
  -1  -2 -13   24.84   11.74
   1  -2  13   20.42   11.02
  -1   2 -14   67.62   13.39
   1  -2  14   64.71   14.88
  -1  -2 -14   50.45   13.84
   1   2  14   71.76   16.82
  -1   2 -14   15.17   10.37
  -1   2 -15  280.42   29.87
  -1   2 -15  248.75   23.94
   1   2  15  220.62   25.49
  -1  -2 -15  221.11   25.45
  -1  -2 -16   -5.54    9.79
  -1   2 -16   -0.62   10.85
   1   2  16   14.37   11.73
  -1   2 -16   -2.53   11.87
  -1  -2 -17  243.52   28.20
   1   2  17  272.19   30.40
  -1   2 -17  285.25   32.70
  -1  -2 -18   90.86   19.49
  -1   2 -18   87.81   21.68
  -1   3  18  431.65   40.83
   1  -3 -18  358.65   34.24
  -1  -3  18  433.44   37.10
   1   3 -18  353.94   35.82
  -1   3  17   29.57   17.37
   1  -3 -17   19.51   12.52
  -1  -3  17   -3.94   11.51
   1   3 -17   13.10   13.58
   1   3 -16  521.51   39.96
  -1  -3  16  544.19   38.95
  -1   3  16  481.51   39.39
   1  -3 -16  457.42   35.89
  -1  -3  15    2.59   11.43
  -1   3  15    4.01   10.28
   1   3 -15   30.49   13.92
   1  -3 -15   -9.47    9.18
   1  -3 -14  560.23   37.07
  -1   3  14  647.48   42.41
   1   3 -14  605.81   33.95
  -1  -3  14  612.89   38.27
   1   3 -14  612.88   39.77
   1   3 -13   22.21   11.06
  -1  -3  13   40.51   13.08
   1  -3 -13   20.34   10.94
   1   3 -13   36.70    9.50
  -1   3  13   34.75   12.65
   1   3 -12   46.83   10.90
  -1   3  12   49.63   13.11
  -1  -3  12   43.07   11.16
   1   3 -12   45.54   13.15
   1   3 -11   -6.71    7.06
   1   3 -11    0.02    5.61
   1   3 -11    8.43    8.76
  -1   3  11    6.97    9.82
  -1  -3  11    7.84    8.74
   1   3 -10  134.22   12.00
   1   3 -10  115.84   15.17
   1   3 -10  115.80   13.39
  -1  -3  10  109.75   14.57
  -1   3  10  115.96   16.56
  -1  -3   9   13.08    9.16
   1   3  -9    8.15    6.04
   1   3  -9   10.96    5.28
   1   3  -9   12.33    7.56
  -1   3   9   24.33   10.07
  -1   3   9   17.89    4.62
  -1  -3   8    5.53    6.56
   1   3  -8   13.23    7.92
  -1   3   8   15.74    8.31
   1   3  -8    3.45    6.26
   1   3  -8   10.13    4.68
  -1   3   8    4.00    4.11
   1   3  -8    5.37    3.89
   1   3  -7   10.87    6.16
  -1  -3   7    9.59    6.02
  -1   3   7   16.02    8.77
   1   3  -7   14.10    5.15
  -1   3   7   18.13    5.34
   1   3  -7   13.93    3.76
   1   3  -7   10.13    6.07
  -1   3   6   29.20    8.61
   1   3  -6   17.57    4.58
  -1   3   6   31.88    6.05
   1   3  -6   37.92    4.75
   1   3  -6   26.94    7.27
   1   3  -6   30.64    7.72
  -1  -3   6   42.15    8.84
   1   3  -5  335.34   16.91
   1   3  -5  336.82   18.44
  -1   3   5  330.06   15.91
   1   3  -5  352.16   11.25
  -1  -3   5  349.65   19.23
  -1   3   5  313.04   19.95
  -1  -3   4 1168.39   36.39
   1   3  -4 1170.97   35.73
  -1   3   4 1101.26   38.04
   1   3  -4 1214.81   34.97
  -1   3   4 1177.88   33.74
  -1  -3   3  333.58   17.25
  -1   3   3  358.35   18.92
  -1   3   3  302.48   15.63
   1   3  -3  347.23   17.06
  -1   3   2  688.56   25.92
  -1  -3   2  767.31   26.86
  -1   3   2  707.27   25.23
   1   3  -2  777.87   26.33
   1   3  -2  825.06   19.06
   1   3  -1  271.19   11.05
   1   3  -1  249.93   14.65
  -1  -3   1  236.18   14.24
  -1   3   1  239.53   13.82
  -1   3   0 3051.33   69.45
   1   3   0 3222.65   70.53
   1   3   0 3189.09   66.36
   1   3   1   82.89    9.70
  -1   3  -1   84.43    9.00
   1   3   1   79.47    9.71
  -1   3  -2 7990.75  149.91
   1   3   2 7722.00  151.20
  -1   3  -2 7662.54  149.76
  -1   3  -3  193.60   13.28
   1  -3   3  204.82   10.59
  -1   3  -3  197.27   12.52
   1   3   3  191.15   12.99
   1   3   4 3351.97   73.55
  -1   3  -4 3142.77   74.82
   1  -3   4 3335.70   68.57
  -1   3  -4 3217.28   77.20
  -1   3  -4 3303.36   71.54
  -1   3  -5  136.78   13.38
   1   3   5  126.01   10.92
  -1   3  -5  120.33    9.39
   1  -3   5  143.67    8.83
   1   3   5  107.05   12.36
  -1   3  -5  123.44   12.09
   1  -3   5  137.22    9.82
  -1  -3  -5  144.89   13.71
   1   3   6 1985.03   50.32
  -1   3  -6 1920.10   55.27
  -1   3  -6 1910.85   48.06
   1   3   6 1924.79   58.17
   1  -3   6 2042.71   49.73
  -1   3  -6 1853.58   56.78
   1  -3   6 2126.47   47.58
  -1  -3  -6 1969.15   57.67
   1  -3   7   10.68    4.53
  -1   3  -7   20.48    5.11
   1   3   7   18.16    5.10
  -1   3  -7   24.24    7.79
  -1   3  -7   29.92    8.09
   1   3   7   14.83    8.15
  -1  -3  -7   21.38    9.29
  -1   3  -7   11.26    8.20
   1  -3   7   17.09    6.26
  -1   3  -8 1057.70   36.99
  -1   3  -8 1065.91   30.91
  -1   3  -8 1078.96   43.39
  -1  -3  -8 1020.31   41.92
   1   3   8 1117.36   33.00
   1  -3   8 1105.80   36.18
  -1   3  -8 1063.27   41.00
   1   3   8 1054.39   42.47
  -1   3  -9   31.65    8.76
   1   3   9   26.94   10.09
  -1   3  -9   26.43    4.68
  -1   3  -9   19.63    7.44
   1  -3   9   37.89    8.18
  -1  -3  -9   12.43    8.55
  -1   3  -9   19.93   10.18
  -1   3 -10  271.68   19.92
  -1  -3 -10  229.63   21.06
  -1   3 -10  252.00   22.19
  -1   3 -10  281.18   22.16
   1  -3  10  300.45   20.07
   1   3  10  294.28   24.60
  -1   3 -11  104.67   13.78
  -1   3 -11   99.91   14.62
   1  -3  11  129.31   13.96
  -1   3 -11   86.08   15.86
  -1  -3 -11   72.05   13.95
   1   3  11   84.10   13.38
   1  -3  12  181.30   17.22
  -1   3 -12  121.86   17.39
  -1   3 -12  140.37   19.23
  -1   3 -12  115.94   14.48
   1   3  12  150.86   20.03
  -1  -3 -12  144.58   18.60
   1  -3  13    3.73    7.92
   1   3  13   14.22   11.61
  -1   3 -13    7.86   10.45
  -1  -3 -13    3.01    9.96
  -1   3 -13   -2.79    8.65
  -1   3 -13   -8.36    9.87
  -1   3 -14   65.46   14.72
  -1   3 -14   52.54   16.22
   1   3  14   40.51   12.59
  -1   3 -14   66.31   13.84
  -1  -3 -14   81.50   16.05
   1   3  15   13.04   13.79
  -1   3 -15   -4.46   10.84
  -1  -3 -15    5.91   10.44
  -1   3 -16   36.85   13.72
   1   3  16   41.06   15.03
  -1  -3 -16   42.48   14.26
   1   3  17   -5.83   11.29
  -1  -3 -17   10.33   12.08
  -1   3 -17   -0.18   12.12
  -1  -3 -18   88.97   21.57
   1   3  18  103.44   21.23
   1   4 -18   35.25   16.83
  -1  -4  17  410.39   34.80
   1   4 -17  309.01   32.76
  -1   4  17  346.16   35.77
   1  -4 -17  351.05   33.45
   1   4 -16   20.43   13.97
  -1   4  16    1.21   11.83
  -1  -4  16    2.41   10.72
   1  -4 -16   21.42   12.17
  -1   4  15  298.31   31.85
  -1  -4  15  353.20   30.47
   1  -4 -15  321.39   30.54
   1   4 -15  285.95   29.25
   1   4 -14    9.19   10.15
   1  -4 -14    6.57   13.35
  -1  -4  14    5.61    9.31
  -1   4  14    8.06   10.30
   1   4 -14   -7.15   11.64
  -1  -4  13  735.42   40.75
   1   4 -13  789.08   43.98
  -1   4  13  653.11   42.64
   1   4 -13  726.10   37.62
  -1  -4  12   49.30   13.32
   1   4 -12   27.86    9.17
  -1   4  12   26.29   13.08
   1   4 -12   21.75   10.54
   1   4 -11  177.33   17.36
   1   4 -11  160.97   19.11
  -1   4  11  149.36   19.81
  -1  -4  11  178.21   18.87
  -1  -4  10  413.88   27.00
   1   4 -10  392.23   27.50
  -1   4  10  397.37   29.60
   1   4 -10  386.74   24.25
   1   4  -9   50.44    7.12
  -1   4   9   42.44    7.26
  -1  -4   9   30.31    8.63
  -1   4   9   44.40   11.68
   1   4  -9   30.73    9.08
   1   4  -9   45.10    6.97
   1   4  -9   43.15    9.50
  -1  -4   8  104.80   13.46
   1   4  -8  110.23   10.77
   1   4  -8  116.25   14.53
   1   4  -8  101.92    8.35
  -1   4   8  138.74   11.49
  -1   4   8  105.48   14.91
   1   4  -8   98.09   12.52
   1   4  -7  553.41   24.41
  -1   4   7  553.09   30.52
  -1  -4   7  552.61   27.57
   1   4  -7  567.63   26.57
   1   4  -7  551.28   28.08
  -1   4   7  582.74   24.03
   1   4  -7  557.92   18.38
  -1   4   6  139.28   12.21
  -1  -4   6  177.66   15.20
   1   4  -6  174.91   15.03
  -1   4   6  167.25   16.52
   1   4  -6  190.69   14.25
  -1   4   5  273.58   16.25
  -1   4   5  298.27   19.97
   1   4  -5  280.59   17.42
  -1  -4   5  275.12   17.88
   1   4  -4 1204.16   38.78
  -1  -4   4 1178.52   38.94
  -1   4   4 1230.77   42.11
  -1   4   4 1149.20   36.87
  -1  -4   3 1000.75   34.79
   1   4  -3 1045.08   34.88
  -1   4   3  961.71   35.69
  -1   4   3  995.75   33.75
   1   4  -2 1391.82   42.25
  -1  -4   2 1358.31   41.21
  -1   4   2 1362.75   41.27
  -1   4   1 4381.51   96.61
   1   4  -1 4512.58   98.21
  -1   4   0 2019.10   53.76
   1   4   0 2019.35   55.00
   1   4   1  373.44   20.04
  -1   4  -1  367.57   18.87
   1   4   2 1646.08   48.24
  -1   4  -2 1768.32   47.95
  -1   4  -3 1237.63   38.09
   1   4   3 1214.15   39.50
  -1   4  -3 1202.10   38.11
  -1   4  -4   73.03    9.34
  -1   4  -4   69.55    9.86
   1  -4   4   65.92    7.73
   1   4   4   63.00    9.97
   1   4   5 2215.80   58.66
  -1   4  -5 2088.29   59.87
  -1   4  -5 2141.51   56.15
   1  -4   5 2311.87   54.28
  -1   4  -5 2139.08   62.33
   1   4   6  141.86   15.84
   1   4   6  163.27   13.95
  -1   4  -6  129.19   11.01
   1  -4   6  162.12    9.26
   1  -4   6  137.39   11.42
  -1   4  -6  146.10   15.18
  -1   4  -6  159.06   14.24
  -1   4  -7  374.00   18.93
   1   4   7  359.20   25.09
  -1  -4  -7  307.35   22.93
   1  -4   7  415.89   16.61
  -1   4  -7  371.05   24.74
  -1   4  -7  349.47   22.33
   1   4   7  360.73   19.96
   1  -4   7  377.44   19.55
  -1  -4  -8  437.03   27.96
   1  -4   8  508.71   23.66
   1   4   8  480.20   29.56
  -1   4  -8  480.04   27.21
  -1   4  -8  476.85   21.20
   1   4   8  507.15   22.92
  -1   4  -8  481.94   29.39
   1  -4   9  805.35   32.17
  -1  -4  -9  725.32   37.18
  -1   4  -9  761.03   38.59
   1   4   9  817.29   28.94
  -1   4  -9  775.20   37.10
   1   4   9  797.37   39.59
  -1   4  -9  771.80   27.82
   1   4  10  256.41   23.70
  -1   4 -10  244.21   21.27
   1  -4  10  281.33   20.03
  -1   4 -10  240.22   22.76
  -1  -4 -10  254.02   22.72
  -1   4 -11  148.79   19.62
  -1   4 -11  167.46   16.28
  -1   4 -11  150.13   17.29
   1   4  11  138.25   18.46
   1  -4  11  188.24   17.34
  -1  -4 -11  139.34   17.56
  -1   4 -12    1.54    9.11
  -1   4 -12    3.83    8.22
   1   4  12   -7.83    9.81
  -1   4 -12   11.81   11.44
   1  -4  12    4.14    7.35
  -1  -4 -12   16.70   11.68
  -1  -4 -13   -0.90    9.91
  -1   4 -13   13.88   10.51
   1   4  13   16.05   12.07
  -1   4 -13   -0.76    8.92
  -1   4 -13   23.77   11.96
  -1   4 -14    2.71    8.42
  -1   4 -14   27.55   13.59
   1   4  14   15.09   13.04
  -1  -4 -14   29.30   14.67
  -1  -4 -15   57.05   17.32
  -1   4 -15   64.61   14.98
   1   4  15   84.32   18.64
  -1   4 -15   71.95   16.47
   1   4  16  235.66   28.41
  -1  -4 -16  231.96   27.87
  -1   4 -16  209.02   25.56
  -1   4 -16  198.64   28.00
  -1   4 -17    1.99   13.65
  -1  -4 -17   16.46   14.19
   1   4  17  -12.28   11.52
   1   4  18   10.16   14.55
  -1   5  17  -20.27   14.58
  -1  -5  17    1.43   11.68
   1  -5 -17    7.19   15.39
   1   5 -17   10.51   13.15
   1  -5 -16    2.43   13.19
  -1  -5  16   27.94   14.18
  -1   5  16   -6.15   10.83
   1   5 -16   -1.26   12.47
  -1   5  15  189.36   27.10
   1   5 -15  161.52   20.26
   1   5 -15  143.96   23.24
  -1  -5  15  136.54   20.00
   1  -5 -15  184.56   24.65
   1  -5 -14   46.01   14.12
   1   5 -14   38.39   12.29
  -1  -5  14   46.61   13.17
  -1   5  14   12.73   14.53
   1   5 -14   32.34   14.27
   1   5 -13   40.86   10.87
  -1  -5  13   16.39   10.64
  -1   5  13   15.68   12.18
   1   5 -13   75.90   16.58
   1   5 -12  134.57   17.22
  -1  -5  12  181.14   21.03
  -1   5  12  118.59   19.12
   1   5 -12  155.60   20.36
  -1  -5  11  385.18   28.17
   1   5 -11  407.38   30.02
  -1   5  11  335.78   29.80
   1   5 -11  380.14   27.10
  -1   5  10  710.00   40.91
   1   5 -10  712.64   35.61
  -1  -5  10  768.92   37.68
   1   5 -10  686.79   37.30
   1   5  -9  163.12   18.51
   1   5  -9  147.57   13.52
  -1   5   9  133.87   19.59
   1   5  -9  145.36   15.94
  -1  -5   9  160.96   16.99
  -1   5   9  148.99   13.47
   1   5  -8 1220.26   42.63
  -1   5   8 1301.06   42.05
  -1   5   8 1254.85   52.07
  -1  -5   8 1267.08   47.64
   1   5  -8 1219.93   45.84
   1   5  -8 1246.77   48.19
   1   5  -7    8.15    6.34
  -1   5   7    3.59    8.21
  -1   5   7   17.71    7.18
   1   5  -7   -1.71    5.84
  -1  -5   7    4.43    6.55
  -1  -5   6 1112.81   41.42
  -1   5   6 1118.60   45.68
  -1   5   6 1035.99   38.92
   1   5  -6 1124.06   40.52
  -1   5   5   -2.11    9.23
  -1   5   5   -6.69    6.20
  -1  -5   5    3.58    6.25
   1   5  -5    4.10    7.26
  -1  -5   4 2669.32   70.64
  -1   5   4 2542.73   68.89
   1   5  -4 2654.04   70.69
  -1   5   4 2768.29   74.60
  -1   5   3  228.63   16.52
  -1  -5   3  222.54   16.75
   1   5  -3  235.49   17.76
  -1   5   2  751.00   31.00
   1   5  -2  722.75   31.43
   1   5  -1   -3.10    6.79
  -1   5   1    1.88    6.41
   1   5   0    4.33    6.63
  -1   5   0    8.83    6.97
  -1   5  -1  655.35   28.73
   1   5   1  622.82   29.23
   1   5   2  739.06   32.69
  -1   5  -2  782.41   31.42
   1   5   3   17.71    7.69
  -1   5  -3   15.49    6.16
   1   5   4  471.96   25.49
  -1   5  -4  460.03   23.33
  -1   5  -4  429.88   23.87
   1  -5   5 1301.61   38.68
  -1   5  -5 1196.62   40.91
  -1   5  -5 1179.51   42.78
   1   5   5 1222.41   43.27
  -1   5  -6  195.21   17.21
   1  -5   6  219.71   14.74
  -1   5  -6  212.11   15.78
   1  -5   6  211.26   10.01
   1   5   6  186.47   16.28
   1  -5   7  278.20   17.46
  -1   5  -7  262.89   20.14
   1   5   7  248.71   18.74
   1   5   7  246.58   22.17
  -1   5  -7  239.51   16.61
  -1   5  -7  246.83   20.76
  -1   5  -8  674.19   28.06
  -1   5  -8  640.42   35.58
  -1   5  -8  588.07   32.34
   1   5   8  598.42   35.79
   1   5   8  689.69   29.77
   1   5   8  719.11   31.17
   1  -5   8  680.39   29.20
  -1  -5  -8  595.28   34.23
  -1   5  -9  176.32   18.59
   1  -5   9  200.11   16.70
  -1   5  -9  194.76   14.77
  -1  -5  -9  157.74   18.33
   1   5   9  187.60   15.30
  -1   5  -9  180.78   20.01
   1   5   9  198.87   22.29
  -1   5 -10  626.67   35.09
   1  -5  10  723.91   32.38
   1   5  10  615.07   38.40
  -1  -5 -10  639.52   37.20
  -1   5 -10  652.46   38.52
  -1   5 -11   85.60   16.25
   1   5  11  104.12   18.15
   1  -5  11  135.43   15.58
  -1   5 -11   92.24   15.05
  -1  -5 -11   62.90   15.01
  -1   5 -12  576.06   37.19
   1   5  12  555.72   38.94
  -1  -5 -12  585.90   37.92
  -1   5 -12  564.81   38.79
  -1  -5 -13    4.49    9.53
   1   5  13   23.59   12.86
  -1   5 -13   18.08   12.55
  -1   5 -13    4.89    8.80
  -1  -5 -14  409.80   33.62
  -1   5 -14  411.84   35.45
  -1   5 -14  473.57   35.03
   1   5  14  428.29   36.87
   1   5  15   13.10   13.13
  -1   5 -15    4.44   10.81
  -1   5 -15   13.91   15.12
  -1  -5 -15   13.40   10.26
  -1   5 -16  165.72   25.49
  -1  -5 -16  160.99   24.30
  -1   5 -16  148.00   21.61
   1   5  16  164.01   23.97
  -1   5 -17   80.15   18.91
   1   5  17   68.72   18.77
   1   6 -17   69.38   18.71
  -1   6  16    0.21   12.90
   1   6 -16  -15.89   12.10
   1  -6 -16   14.89   14.76
  -1  -6  16    3.34   10.82
  -1  -6  15   59.00   16.64
   1   6 -15   49.31   14.32
  -1   6  15   64.68   19.13
   1  -6 -15   30.24   14.52
   1   6 -15   21.47   12.91
   1   6 -14   -4.05    9.20
   1   6 -14    3.65   10.76
  -1  -6  14    2.61   11.08
  -1   6  14    2.15   11.31
   1   6 -13  117.49   18.35
  -1  -6  13  108.05   16.75
  -1   6  13   80.50   20.79
   1   6 -13  108.18   18.79
   1   6 -12    7.77    8.53
   1   6 -12   -5.96    9.61
  -1  -6  12    8.56    9.06
  -1   6  12    4.40   12.27
   1   6 -11  632.04   38.45
  -1   6  11  561.81   39.51
   1   6 -11  592.82   34.68
  -1  -6  11  597.62   35.66
  -1   6  10   -7.86   13.29
  -1  -6  10   14.60    9.55
   1   6 -10    9.30    9.03
   1   6  -9  599.69   29.97
  -1  -6   9  613.11   33.43
  -1   6   9  607.59   29.60
   1   6  -9  549.90   32.29
  -1   6   9  550.14   36.67
   1   6  -8  259.61   19.95
  -1   6   8  247.24   25.10
  -1   6   8  251.26   18.83
  -1  -6   8  216.66   19.55
   1   6  -8  265.62   21.01
   1   6  -8  223.92   18.22
  -1   6   7 1849.62   66.86
  -1  -6   7 1865.98   60.64
  -1   6   7 1945.74   59.03
   1   6  -7 1791.68   58.99
   1   6  -6  107.05   13.90
  -1  -6   6  118.35   14.69
  -1   6   6  106.12   17.24
  -1   6   6  106.02   13.12
  -1  -6   5 2503.08   70.28
  -1   6   5 2369.55   69.48
  -1   6   5 2521.08   75.74
   1   6  -5 2287.55   69.45
   1   6  -4  278.60   20.61
  -1   6   4  246.50   19.45
  -1  -6   4  266.72   19.87
  -1   6   3 2187.22   64.05
   1   6  -3 2051.24   64.43
  -1   6   2   28.45    9.42
   1   6  -2   20.85    8.65
  -1   6   1  518.45   28.43
   1   6  -1  572.35   30.25
   1   6   0  401.56   24.55
  -1   6   0  383.06   24.12
   1   6   1  122.36   14.72
  -1   6  -1  120.29   13.61
   1   6   2   23.25    8.91
  -1   6  -2   23.11    8.41
   1   6   3  170.64   17.21
  -1   6  -3  147.83   14.87
   1   6   4   13.14    9.36
  -1   6  -4   11.40    7.76
  -1   6  -5   36.78    8.63
   1   6   5   52.09   12.24
  -1   6  -5   75.97   12.61
  -1   6  -6  631.52   30.50
  -1   6  -6  622.90   32.61
   1   6   6  688.48   33.89
  -1   6  -7   56.60    9.93
   1   6   7   26.30   11.22
   1  -6   7   51.38    9.55
   1   6   7   42.35    9.63
  -1   6  -7   49.95   10.86
   1   6   8  179.14   16.56
   1   6   8  167.83   20.90
   1  -6   8  173.12   15.72
  -1   6  -8  165.67   18.39
  -1   6  -8  159.72   15.07
  -1  -6  -8  147.33   17.44
   1   6   9 1059.63   52.30
  -1   6  -9 1139.92   48.76
   1  -6   9 1120.67   41.96
  -1   6  -9 1107.24   41.02
   1   6   9 1080.40   41.67
  -1  -6  -9 1107.72   49.32
  -1   6 -10   38.96   11.62
   1   6  10   30.03   13.12
   1  -6  10   51.44   10.41
  -1   6 -10   56.82   14.48
  -1  -6 -10   44.92   12.96
  -1   6 -11 1299.22   55.77
  -1  -6 -11 1183.67   54.84
   1   6  11 1258.24   59.76
  -1   6 -11 1208.13   56.83
  -1   6 -12   -2.53   11.24
  -1   6 -12   20.26   11.16
  -1  -6 -12    4.26   10.73
   1   6  12   16.29   13.43
  -1   6 -13  326.88   29.95
  -1   6 -13  324.40   31.21
   1   6  13  378.94   33.83
  -1  -6 -13  314.13   29.66
  -1   6 -14   43.09   13.66
   1   6  14    4.66   11.12
  -1  -6 -14   32.54   15.16
  -1   6 -14   31.23   16.98
  -1   6 -15  377.80   36.32
  -1   6 -15  353.80   32.44
   1   6  15  393.56   37.17
  -1  -6 -15  361.76   33.47
  -1   6 -16   31.89   14.58
  -1   6 -16    6.32   11.18
   1   6  16   15.82   14.87
  -1  -6 -16    2.71   10.64
   1   6  17  189.44   28.14
  -1   6 -17  175.32   24.71
   1  -7 -15    2.50   12.25
  -1  -7  15    4.53   12.03
   1   7 -15    6.27   12.97
  -1   7  15   -8.40   12.53
  -1  -7  14   68.92   15.17
   1   7 -14   63.96   16.22
  -1   7  14   57.09   19.11
  -1  -7  13   21.73   11.68
  -1   7  13   24.68   13.76
   1   7 -13   62.28   13.97
  -1  -7  12  225.07   24.15
   1   7 -12  177.62   21.42
  -1   7  12  157.53   24.15
  -1   7  11   34.77   14.48
  -1  -7  11   76.74   15.75
   1   7 -11   50.08   11.93
  -1  -7  10  483.08   31.69
  -1   7  10  380.26   33.46
   1   7 -10  381.61   28.26
  -1   7   9  606.66   32.18
   1   7  -9  592.05   32.27
  -1   7   9  612.79   40.15
  -1  -7   9  609.85   35.47
   1   7  -9  559.20   34.23
  -1  -7   8  322.20   24.95
  -1   7   8  288.82   22.22
  -1   7   8  278.69   27.32
   1   7  -8  258.56   22.71
   1   7  -8  309.33   23.48
   1   7  -7   61.32   12.60
  -1   7   7   48.87   11.34
  -1   7   7   18.20   11.08
  -1  -7   7   41.54   11.42
   1   7  -7   42.49   10.73
   1   7  -6  440.92   27.86
  -1   7   6  435.69   27.37
  -1  -7   6  402.04   27.07
  -1   7   6  349.33   28.68
   1   7  -5 1253.67   49.95
  -1   7   5 1306.43   49.88
  -1   7   5 1248.33   53.02
  -1   7   4 1548.45   55.52
   1   7  -4 1522.59   56.40
   1   7  -3  148.86   17.31
  -1   7   3  148.72   17.59
  -1   7   2  618.91   34.02
   1   7  -2  649.80   35.02
  -1   7   1  788.54   37.66
   1   7  -1  825.56   39.30
  -1   7   0  238.53   21.41
   1   7   0  239.38   21.21
   1   7   1  637.27   34.44
  -1   7  -1  579.32   31.86
   1   7   2  846.99   39.75
  -1   7  -2  831.65   38.56
  -1   7  -3   10.89    8.87
   1   7   3   11.08    8.51
   1   7   4  171.02   18.22
  -1   7  -4  156.49   16.69
  -1   7  -5   15.09    9.36
  -1   7  -5   10.52    8.16
   1   7   5   18.67    8.47
  -1   7  -6  195.21   19.73
   1   7   6  221.30   21.40
  -1   7  -6  199.64   18.41
   1   7   7  151.13   16.59
   1   7   7  159.41   21.20
  -1   7  -7  126.20   16.32
  -1   7  -7  161.37   16.52
  -1   7  -8  551.83   30.33
  -1   7  -8  604.68   34.78
   1   7   8  576.13   39.24
   1   7   8  607.46   32.87
  -1  -7  -9   31.59   12.72
  -1   7  -9    2.60    9.81
   1   7   9   14.88   10.49
   1   7   9    8.18    8.96
   1  -7   9   10.51    7.04
  -1   7  -9   14.67    8.51
  -1   7 -10  419.81   31.09
   1   7  10  372.56   33.21
  -1  -7 -10  425.48   31.32
   1   7  11   78.45   17.34
  -1  -7 -11   61.89   15.46
  -1   7 -11   98.72   17.26
  -1   7 -12  482.93   35.44
  -1  -7 -12  450.58   35.30
   1   7  12  453.77   37.62
  -1   7 -13   35.58   14.38
   1   7  13    8.96   12.73
  -1  -7 -13   21.23   13.17
   1   7  14  184.09   27.60
  -1   7 -14  198.98   24.62
  -1  -7 -14  157.10   23.76
  -1   7 -15  207.53   25.97
  -1  -7 -15  149.95   23.17
   1   7  15  118.77   22.70
   1   7  16   66.90   20.01
  -1   7 -16   52.29   17.41
   1   8 -15  168.30   23.97
  -1   8  15  121.59   24.80
   1   8 -14   19.79   12.87
  -1   8  14   26.64   16.05
  -1  -8  14   19.20   11.82
  -1   8  13  256.44   31.63
  -1  -8  13  306.74   28.60
   1   8 -13  288.85   28.48
   1   8 -12   46.30   14.48
  -1  -8  12   20.99    9.95
  -1   8  12   25.35   13.56
   1   8 -11  377.90   31.00
  -1  -8  11  398.55   31.29
  -1   8  11  349.69   34.14
  -1  -8  10  195.42   22.12
  -1   8  10  138.63   21.83
   1   8 -10  161.80   20.63
  -1   8   9  190.23   20.68
   1   8  -9  176.72   21.07
  -1   8   9  155.88   22.66
   1   8  -9  196.23   20.31
  -1  -8   9  180.94   20.40
  -1   8   8  182.19   19.99
   1   8  -8  204.02   21.39
  -1   8   8  191.86   24.01
  -1  -8   8  195.70   20.59
   1   8  -8  196.30   21.46
  -1   8   7  413.39   28.88
  -1   8   7  348.28   30.71
   1   8  -7  370.26   27.74
   1   8  -6   22.50   10.82
  -1   8   6   14.36    9.88
   1   8  -6   20.26   10.73
  -1   8   6   -5.48   11.86
   1   8  -5   15.09    9.24
  -1   8   5   15.62   11.43
  -1   8   5   26.25   10.84
  -1   8   4   -8.52    9.06
   1   8  -4    9.55    8.74
  -1   8   3    4.23    8.29
   1   8  -3    8.47   10.57
  -1   8   2   10.85    9.94
   1   8  -2   15.69   10.14
  -1   8   1  767.21   40.13
   1   8  -1  759.65   41.13
  -1   8   0  109.74   16.36
   1   8   0  100.41   16.17
   1   8   1  989.99   46.17
  -1   8  -1  864.91   43.37
   1   8   2   17.11    9.51
  -1   8  -2    4.54    7.66
  -1   8  -3 1179.68   50.48
   1   8   3 1253.04   53.12
   1   8   4  138.24   18.79
  -1   8  -4  146.30   17.81
  -1   8  -5 1298.54   52.43
   1   8   5 1310.66   53.87
   1   8   5 1234.80   53.90
  -1   8  -5 1175.79   50.40
   1   8   6  559.96   34.15
  -1   8  -6  510.26   31.88
  -1   8  -6  547.39   33.41
   1   8   7  346.28   28.29
  -1   8  -7  386.77   27.22
  -1   8  -7  387.41   29.30
  -1   8  -8   65.28   13.55
  -1   8  -8   54.84   12.75
   1   8   8   44.57   15.86
   1   8   8   50.12   13.29
  -1  -8  -9   48.42   13.53
   1   8   9   23.80   14.39
  -1   8  -9   30.19   10.42
   1   8   9   48.02   12.92
  -1   8  -9   36.82   13.12
   1   8  10    3.25   11.97
  -1   8 -10   -3.48    8.96
  -1  -8 -10   23.88   13.70
  -1   8 -11   18.53   13.90
  -1  -8 -11   24.12   12.54
   1   8  11    2.23   12.53
  -1  -8 -12   26.62   12.61
  -1   8 -12   38.45   13.51
   1   8  12   59.26   18.02
   1   8  13   75.80   19.08
  -1   8 -13   69.89   16.74
  -1  -8 -13  100.18   19.57
   1   8  14   86.16   21.69
  -1   8 -14   75.98   18.26
  -1  -8 -14   51.28   15.26
   1   8  15  130.51   24.74
  -1   8 -15  127.24   22.05
   1   9 -15   14.56   12.70
  -1   9  14  408.17   41.19
   1   9 -14  468.92   37.83
  -1  -9  13   23.68   13.26
  -1   9  13   -4.33   15.66
   1   9 -13   43.06   14.40
  -1  -9  12  361.41   31.73
  -1   9  12  362.04   37.23
   1   9 -12  306.75   31.20
   1   9 -11   -3.09   10.42
  -1   9  11   25.54   15.30
  -1  -9  11   37.27   13.57
  -1   9  10  305.22   32.58
   1   9 -10  299.36   28.16
   1   9  -9   -1.08    9.85
  -1   9   9   -6.13   10.33
  -1   9   9    9.95   13.02
   1   9  -9   10.43   11.43
  -1   9   8   58.49   16.94
   1   9  -8   46.95   14.85
   1   9  -8   48.32   13.66
  -1   9   8   43.67   11.98
  -1   9   7   14.03   10.89
  -1   9   7   -5.90   12.14
   1   9  -7   27.43   12.63
  -1   9   6    3.41   10.79
  -1   9   6   14.17   10.93
   1   9  -6    7.47   10.00
   1   9  -5  142.16   19.49
  -1   9   5   81.78   15.25
  -1   9   5  123.44   19.00
  -1   9   4   55.04   13.66
   1   9  -4   48.02   12.80
   1   9  -4   53.40   11.79
   1   9  -3   14.24   10.70
  -1   9   3   -5.32   10.43
   1   9  -3   26.55   11.57
  -1   9   2  242.63   24.82
   1   9  -2  248.62   24.21
  -1   9   1   76.76   16.91
   1   9  -1   82.52   16.28
  -1   9   0  815.93   44.19
   1   9   0  851.97   45.30
  -1   9  -1   67.55   15.86
   1   9   1   77.91   15.46
   1   9   2 1491.21   63.82
   1   9   2 1624.41   63.63
  -1   9  -2 1486.80   61.15
  -1   9  -3   37.82   12.30
   1   9   3   46.08   12.28
   1   9   3   40.73   12.64
   1   9   4  499.87   34.68
  -1   9  -4  517.86   34.02
  -1   9  -5   86.01   16.48
  -1   9  -5   73.15   14.06
   1   9   5   64.91   15.20
  -1   9  -6  677.45   40.22
   1   9   6  754.95   41.80
  -1   9  -6  668.19   38.68
   1   9   7    1.29    9.03
  -1   9  -7   10.05    8.20
  -1   9  -7    3.69    9.41
   1   9   8  258.20   29.09
   1   9   8  277.28   25.85
  -1   9  -8  294.70   25.51
  -1  -9  -8  266.57   25.48
  -1   9  -8  310.68   27.91
   1   9   9   -7.86   12.50
  -1   9  -9    8.91   10.75
   1   9   9   16.53    9.70
  -1   9  -9   44.43   12.93
  -1  -9  -9   10.68   12.19
  -1   9 -10   51.03   15.00
   1   9  10   54.31   15.48
  -1  -9 -10   49.07   13.98
   1   9  11   22.34   14.82
  -1   9 -11   17.46   12.13
  -1  -9 -11   -0.86   11.65
  -1  -9 -12   19.24   12.50
  -1   9 -12   35.00   14.29
   1   9  12   20.66   14.29
  -1   9 -13    5.24   10.55
   1   9  13   -7.27   12.73
  -1  -9 -13   -1.76   10.91
  -1   9 -14   28.00   13.06
   1  10 -13  124.32   22.26
  -1  10  12   -8.82   14.02
   1  10 -12   16.73   13.96
   1  10 -11   68.50   16.12
  -1  10  11   86.13   21.11
  -1  10  10   43.42   16.63
   1  10 -10   97.52   19.53
   1  10  -9   -0.34    9.51
  -1  10   9    6.97   16.78
   1  10  -9   17.49   11.13
  -1  10   9   24.43   13.43
   1  10  -8   90.72   17.33
  -1  10   8   68.85   18.88
   1  10  -8   62.56   14.60
  -1  10   8   57.76   14.21
  -1  10   7   48.22   14.19
  -1  10   7   81.94   19.23
   1  10  -7   80.31   16.83
  -1  10   6    5.94   11.70
   1  10  -6   -7.70    9.37
  -1  10   6    2.70   10.54
  -1  10   5   40.75   14.70
  -1  10   5   73.49   15.21
   1  10  -5   36.39   12.55
   1  10  -4  134.25   19.79
  -1  10   4  121.59   19.48
   1  10  -3  101.96   18.17
  -1  10   3  108.00   18.58
   1  10  -2  269.96   26.49
  -1  10   2  314.10   29.43
   1  10  -1  585.88   39.39
  -1  10   1  604.25   39.93
   1  10   0  315.27   30.27
  -1  10   0  324.71   29.97
   1  10   1  629.18   40.94
  -1  10  -1  629.65   40.64
  -1  10  -2   20.79   12.13
   1  10   2   19.83   11.87
   1  10   3  814.75   47.15
  -1  10  -3  982.10   50.71
   1  10   4   10.61   10.74
  -1  10  -4   15.55   12.67
  -1  10  -5  565.77   37.04
   1  10   5  503.63   35.88
  -1  10  -5  553.64   37.56
  -1  10  -6   12.92   11.93
  -1  10  -6   37.02   13.62
   1  10   6   20.19   12.84
  -1  10  -7  247.15   25.27
  -1  10  -7  264.62   26.47
   1  10   7  252.52   26.85
  -1  10  -8  180.19   22.75
   1  10   8  176.46   25.65
  -1 -10  -8  182.02   21.90
  -1  10  -8  144.96   21.40
   1  10   8  142.07   21.79
  -1 -10  -9  117.54   18.08
   1  10   9  106.15   21.48
  -1  10  -9  167.25   23.14
  -1  10  -9  141.74   20.34
  -1  10 -10   22.15   12.88
   1  10  10   25.51   14.85
  -1 -10 -10   25.47   13.53
   1  10  11   97.97   22.23
  -1  10 -11  151.68   22.98
  -1 -10 -11  127.16   20.67
  -1 -10 -12   32.31   16.33
   1  10  12   23.03   12.94
  -1  10 -12   17.32   12.90
  -1  11  11  108.38   24.29
   1  11 -11   89.34   18.70
   1  11 -10  154.35   23.54
  -1  11  10  107.12   21.99
  -1  11   9  150.31   26.21
   1  11  -9  151.38   23.12
   1  11  -9  122.62   20.31
  -1  11   8  238.48   27.45
  -1  11   8  192.62   27.89
   1  11  -8  199.78   25.58
   1  11  -8  245.27   28.43
  -1  11   7   59.68   16.35
  -1  11   7   72.24   17.65
   1  11  -7   57.95   15.52
   1  11  -6  254.27   28.39
  -1  11   6  297.43   30.20
  -1  11   6  265.81   30.83
  -1  11   5   16.96   10.67
  -1  11   5   -4.14   11.88
   1  11  -5   11.57   10.59
  -1  11   4  361.69   33.09
   1  11  -4  304.56   30.22
   1  11  -3  159.67   23.97
  -1  11   3  190.50   24.86
  -1  11   2  403.93   35.08
   1  11  -2  386.70   34.36
  -1  11   1  481.60   38.93
   1  11  -1  475.12   37.62
   1  11   0  165.31   22.56
  -1  11   0  237.28   27.04
  -1  11  -1   28.96   12.88
   1  11   1   52.78   16.51
   1  11   2  103.92   18.76
  -1  11  -2  126.59   20.95
   1  11   3  -20.53   12.88
  -1  11  -3   11.67   10.94
  -1  11  -4   31.64   13.41
   1  11   4    9.62   11.70
  -1  11  -5  129.65   20.53
   1  11   5  138.20   22.04
  -1  11  -5  111.62   19.11
  -1  11  -6  225.60   26.88
   1  11   6  219.89   26.43
  -1  11  -6  224.25   26.21
  -1  11  -7  560.00   41.36
   1  11   7  574.69   40.35
  -1  11  -7  568.26   40.04
   1  11   7  601.44   46.28
  -1 -11  -7  521.77   35.90
  -1  11  -8  519.51   38.64
   1  11   8  433.44   42.41
  -1  11  -8  490.13   39.08
  -1 -11  -8  529.12   37.55
   1  11   8  560.45   40.07
  -1 -11  -9  176.42   23.00
   1  11   9  217.46   28.99
  -1  11  -9  212.16   25.77
  -1  11  -9  221.66   27.25
  -1  11 -10   50.58   15.05
   1  11  10   57.78   17.76
  -1 -11 -10   52.74   15.62
  -1  11 -11  -14.15   12.37
  -1 -11 -11   -9.03   10.79
  -1  12   9  261.15   33.86
   1  12  -9  264.77   30.66
   1  12  -9  246.64   28.07
  -1  12   8   42.35   19.35
   1  12  -8   20.47   13.50
   1  12  -8   10.09   11.76
  -1  12   8   20.98   16.09
  -1  12   7 1353.74   72.83
   1  12  -7 1330.03   67.17
  -1  12   7 1424.80   69.51
  -1  12   6  167.98   24.28
  -1  12   6  166.47   26.81
   1  12  -6  171.68   25.34
   1  12  -5  377.07   35.93
  -1  12   5  474.09   40.03
  -1  12   5  429.91   40.01
  -1  12   4   51.38   16.78
   1  12  -4   35.49   13.19
   1  12  -3  159.41   23.30
  -1  12   3  160.83   25.18
   1  12  -2   -5.33   12.24
  -1  12   2   22.63   14.91
  -1  12   1  282.85   31.51
   1  12  -1  243.73   29.01
   1  12   0   64.10   16.55
  -1  12   0   62.31   17.16
   1  12   1   15.68   14.13
  -1  12  -1   16.42   12.02
   1  12   2   -1.81   10.33
  -1  12  -2   -6.36   13.33
   1  12   3   31.52   14.91
  -1  12  -3    1.00   11.10
   1  12   4    8.03   13.55
  -1  12  -4   -6.68   13.92
  -1  12  -5    6.19   10.81
   1  12   5   14.73   13.21
  -1  12  -5   15.73   13.03
   1  12   6    9.67   11.48
  -1  12  -6   18.14   13.95
  -1  12  -6   -0.40   10.05
   1  12   7  117.00   21.22
  -1  12  -7  115.17   21.22
   1  12   7  140.06   24.02
  -1  12  -7  114.40   20.49
  -1  12  -8   34.96   14.60
   1  12   8   28.43   16.15
  -1  12  -8   52.63   16.45
   1  12   8   29.76   16.36
  -1 -12  -9  304.76   29.99
  -1 -12 -10    0.29   11.94
   1  13  -8  326.93   35.46
  -1  13   8  321.67   33.65
  -1  13   7   75.88   22.43
  -1  13   7   41.35   15.44
   1  13  -7   42.20   16.46
  -1  13   6  513.99   45.90
   1  13  -6  452.89   41.97
  -1  13   6  497.21   42.65
  -1  13   5    4.64   12.41
   1  13  -5   13.07   15.06
  -1  13   5    4.74   11.76
   1  13  -4  508.14   43.35
  -1  13   4  497.68   42.99
  -1  13   4  568.78   45.71
   1  13  -3  322.96   34.15
  -1  13   3  348.46   36.58
   1  13  -2  495.27   42.53
  -1  13   2  576.07   45.36
  -1  13   1  274.62   32.48
   1  13  -1  285.74   32.45
   1  13   0   25.70   16.68
  -1  13   0   39.05   17.30
   1  13   1   97.28   22.15
  -1  13  -1  110.61   22.50
   1  13   2   20.95   14.24
  -1  13  -2   48.49   17.33
   1  13   3    2.18   13.36
  -1  13  -3   -3.62   11.90
  -1  13  -4   29.01   14.91
   1  13   4   16.91   11.77
  -1  13  -4   63.00   17.84
  -1  13  -5   26.21   13.16
   1  13   5    6.81   11.54
  -1  13  -5    8.93   11.45
  -1  13  -6   49.04   17.71
   1  13   6    8.92   13.32
  -1  13  -6   -5.91   12.50
   1  13   7   94.31   20.30
  -1  13  -7   85.80   18.37
  -1  13  -8  228.44   28.32
   1  13   8  271.12   32.27
  -1  14   3   74.40   21.53
  -2   0  18   32.73   17.86
  -2   0  17    1.61   10.80
   2   0 -16  271.14   25.79
  -2   0  16  262.83   28.45
   2   0 -15    6.87   11.65
  -2   0  15  -23.69   14.11
  -2   0  14 1561.25   65.89
   2   0 -14 1594.15   59.46
   2   0 -13   -6.45    9.19
  -2   0  13    9.10    9.58
  -2   0  12  264.06   24.41
  -2   0  11    5.29    9.96
  -2   0  10  685.25   35.61
  -2   0   9   -5.59    8.64
   2   0  -9    2.98    2.56
  -2   0   8 2522.48   72.18
   2   0  -8 2647.30   56.65
   2   0  -7    0.55    2.52
  -2   0   7    1.22    6.56
   2   0  -7   -2.51    2.95
   2   0  -6   49.28    6.23
  -2   0   6   34.33    8.25
   2   0  -6   51.16    4.37
   2   0  -5    1.28    1.85
  -2   0   5    2.71    6.15
   2   0  -5    0.83    3.82
  -2   0   4  932.53   29.12
   2   0  -4  684.47   16.06
   2   0  -4  811.93   23.74
  -2   0   3    7.38    5.71
  -2   0   3    0.58    5.67
   2   0  -3    5.37    4.91
  -2   0   2 1295.67   34.09
  -2   0   2 1249.25   33.14
  -2   0   1   11.71    4.73
  -2   0   1    9.65    5.21
  -2   0   0 1487.98   37.29
  -2   0   0 1464.65   32.51
  -2   0  -1    0.49    5.09
  -2   0  -1    5.92    3.48
  -2   0  -2   67.14    8.73
  -2   0  -2   69.14    7.74
  -2   0  -3    0.84    5.70
   2   0   3    1.77    2.74
   2   0   3    1.98    2.98
  -2   0  -3   -1.54    4.58
   2   0   4 2969.95   61.51
  -2   0  -4 3060.73   69.66
   2   0   4 2971.99   69.61
   2   0   4 2976.51   63.37
   2   0   5   -2.59    3.30
   2   0   5    3.89    4.18
   2   0   5    1.65    5.22
  -2   0  -5   -2.74    6.38
  -2   0  -6 7984.04  163.66
   2   0   6 8097.79  155.07
   2   0   6 7910.11  163.33
   2   0   6 8178.46  150.81
   2   0   7    4.64    6.18
   2   0   7    5.07    5.28
   2   0   7   -1.84    3.46
  -2   0  -7   19.22    8.41
   2   0   8 3715.26   85.74
   2   0   8 3558.98   92.36
   2   0   8 3799.82   74.99
  -2   0  -8 3651.99   92.07
  -2   0  -9   -1.84    6.95
   2   0   9    2.81    5.85
   2   0   9    6.05    7.09
  -2   0 -10  193.03   18.74
   2   0  10  200.83   16.65
   2   0  11   10.40    7.66
  -2   0 -11    9.85    9.50
  -2   0 -12   45.02   11.34
   2   0  12   40.95   10.19
  -2   0 -13    3.34    8.81
   2   0  13    7.92   10.18
  -2   0 -14   44.10   13.58
  -2   0 -15    6.70    9.56
  -2   0 -16    9.47   12.35
  -2   0 -17   -5.09   11.74
  -2   0 -18  -10.00   13.06
  -2   1  18   25.61   15.15
   2   1 -18   35.31   14.72
  -2  -1  18   37.71   14.61
   2  -1 -17   35.35   14.83
  -2   1  17   50.43   18.53
  -2  -1  17   57.71   15.66
   2   1 -17   33.27   13.58
  -2   1  16   60.96   16.74
   2  -1 -16   58.01   14.13
  -2  -1  16   59.21   16.52
  -2   1  15  413.05   34.46
   2  -1 -15  449.20   32.20
  -2  -1  15  504.90   37.38
   2  -1 -14  125.89   17.87
  -2   1  14  118.79   18.96
   2   1 -14  128.36   15.99
  -2  -1  14  136.92   19.50
  -2   1  13  460.73   33.91
  -2  -1  13  518.64   34.95
   2   1 -13  482.38   28.34
  -2   1  12   20.79   10.64
  -2  -1  12   19.40   10.59
   2   1 -12   14.33    8.92
   2   1 -11 1097.32   36.50
   2   1 -11 1168.55   41.83
  -2  -1  11  992.05   45.82
  -2   1  11  975.14   46.48
  -2  -1  10  714.43   36.51
   2   1 -10  706.79   26.30
  -2   1  10  672.99   36.18
  -2  -1   9 2988.86   82.51
   2   1  -9 2933.72   67.58
   2  -1  -9 3082.67   63.19
  -2   1   9 2959.48   82.95
   2   1  -9 2941.25   63.20
   2   1  -8 1490.64   37.53
   2  -1  -8 1504.66   37.08
  -2  -1   8 1463.56   50.72
   2   1  -8 1494.11   39.10
  -2   1   8 1515.71   51.69
  -2  -1   7  702.04   31.37
   2   1  -7  712.30   23.14
  -2   1   7  789.08   24.15
  -2   1   7  702.50   31.61
   2   1  -7  715.80   22.87
   2   1  -6  327.52   13.32
   2   1  -6  326.18   14.54
  -2  -1   6  303.59   19.15
  -2   1   6  355.61   15.06
  -2   1   6  303.66   19.41
  -2  -1   5  659.41   26.99
   2   1  -5  670.34   22.32
  -2   1   5  689.67   27.50
  -2   1   5  679.87   22.83
  -2  -1   4  145.65   12.00
  -2   1   4  130.16   11.69
   2   1  -4  137.99    9.71
  -2   1   4  142.03    9.91
  -2  -1   3  429.49   19.46
  -2   1   3  437.72   18.63
  -2   1   3  495.81   18.48
   2   1  -3  433.93   17.43
  -2   1   2  101.30    8.92
   2   1  -2   77.53    4.31
  -2   1   2   82.72    8.02
   2   1  -2  102.43    8.90
  -2  -1   2   89.92    8.85
  -2   1   1  762.03   18.44
   2   1  -1  690.34   22.97
  -2   1   1  722.38   23.84
  -2   1   1  717.34   20.48
  -2  -1   1  669.30   22.33
  -2   1   0 5641.46  103.49
  -2  -1   0 5378.26  105.20
   2   1   0 5530.76  107.71
  -2   1   0 5548.24  108.12
  -2   1   0 5594.86  100.14
  -2   1  -1 9999.00  179.19
  -2   1  -1 9984.32  181.06
   2   1   1 9575.57  182.19
  -2  -1  -1 9910.60  181.73
  -2   1  -1 9787.79  183.25
  -2   1  -2 3708.63   77.87
  -2  -1  -2 3684.91   78.82
  -2   1  -2 3673.31   77.75
  -2   1  -2 3768.49   76.62
   2   1   2 3770.19   77.30
  -2   1  -3  903.07   28.47
   2   1   3  893.74   30.16
   2   1   3  898.87   26.68
  -2   1  -3  847.76   28.76
  -2  -1  -3  919.29   29.17
  -2   1  -3  862.20   27.20
  -2   1  -4  100.33   10.06
   2  -1   4  100.37    5.56
  -2   1  -4   88.50    8.12
  -2   1  -4   79.56    9.28
  -2   1  -4   90.55   10.37
   2   1   4   86.45    7.64
  -2  -1  -4   94.22   10.82
   2   1   4   81.75   10.19
  -2  -1  -5 2572.94   66.80
   2  -1   5 2807.90   55.95
   2   1   5 2655.18   58.95
  -2   1  -5 2530.36   59.56
   2   1   5 2580.43   67.78
   2  -1   5 2764.80   65.08
   2   1   5 2729.74   63.11
  -2   1  -5 2709.15   66.16
  -2   1  -5 2653.88   66.52
  -2   1  -6   -6.99    6.21
   2  -1   6   -0.21    4.07
   2   1   6    1.17    2.56
  -2   1  -6    7.71    7.31
   2   1   6   11.03    7.29
   2   1   6    7.89    6.48
  -2  -1  -6   -4.43    7.26
   2  -1   6    4.27    4.86
  -2   1  -6    5.02    3.83
  -2   1  -7 3567.37   85.40
   2   1   7 3461.38   72.60
   2   1   7 3372.97   81.61
  -2   1  -7 3414.62   85.93
  -2  -1  -7 3391.03   86.40
   2  -1   7 3647.24   72.41
   2   1   7 3401.45   87.89
   2  -1   7 3547.19   75.95
  -2   1  -7 3313.01   73.18
   2  -1   7 3660.58   84.92
  -2   1  -8   43.18    9.64
  -2  -1  -8   50.53   10.36
   2  -1   8   38.23    6.90
  -2   1  -8   45.14   10.10
   2   1   8   41.02    4.97
   2   1   8   41.44    9.51
   2   1   8   53.07   11.37
   2  -1   8   49.09    5.59
   2  -1   8   44.83    8.58
   2  -1   9  158.81   12.93
   2  -1   9  157.27   15.39
  -2   1  -9  138.34   14.91
   2   1   9  158.36   15.67
  -2  -1  -9  136.62   16.25
  -2  -1 -10  318.31   23.93
  -2   1 -10  277.02   21.67
   2  -1  10  238.77   17.28
   2   1  10  295.62   21.24
  -2   1 -11  510.17   31.08
   2  -1  11  578.32   28.92
   2   1  11  613.16   32.17
  -2  -1 -11  525.36   32.53
   2   1  12  264.22   22.39
  -2  -1 -12  245.89   23.06
   2  -1  12  266.59   20.76
  -2   1 -12  263.19   22.81
  -2  -1 -13  163.31   20.74
   2   1  13  165.24   18.90
  -2   1 -13  141.27   18.47
  -2  -1 -14   18.10   10.50
   2   1  14   39.97   12.05
  -2   1 -14   51.83   14.13
  -2  -1 -15   11.39   13.15
  -2   1 -15   24.60   12.48
  -2   1 -15   10.52   11.02
  -2   1 -16   17.96   11.87
  -2   1 -16   28.85   13.94
  -2  -1 -16   35.83   14.22
  -2   1 -17   66.43   18.51
  -2  -1 -17   58.99   17.28
  -2   1 -17   33.51   14.57
  -2   1 -18    6.09   12.36
  -2  -1 -18   33.37   14.61
   2  -2 -18  176.21   25.06
  -2   2  18  142.71   24.21
   2   2 -18  156.06   23.74
  -2  -2  18  174.20   25.20
   2  -2 -17    0.01   11.43
  -2   2  17   40.96   17.87
  -2  -2  17   93.60   20.07
   2   2 -17   75.52   17.33
  -2   2  16   29.11   16.27
   2  -2 -16   17.53   11.74
   2   2 -16    9.04   10.40
  -2  -2  16   30.61   13.43
  -2   2  15   58.77   15.86
   2   2 -15   53.51   13.32
   2  -2 -15   58.75   15.78
  -2  -2  15   82.54   16.69
  -2   2  14  194.14   24.56
  -2  -2  14  233.59   23.87
   2   2 -14  197.80   22.27
  -2   2  13  100.34   18.65
   2   2 -13   98.35   16.85
  -2  -2  13  106.15   17.67
  -2   2  12   92.47   18.05
   2   2 -12   80.42   15.08
   2   2 -12   87.54   11.25
  -2  -2  12   88.13   15.81
   2   2 -12   68.50   11.00
  -2   2  11    1.10    8.87
   2   2 -11   10.83    5.87
   2   2 -11   13.58    6.99
  -2  -2  11    9.98    8.83
   2   2 -11   -2.76    8.44
   2   2 -10   33.52    7.50
   2   2 -10   36.08    6.50
  -2  -2  10   26.82    9.97
  -2   2  10   20.30    9.61
  -2  -2   9  362.29   24.71
  -2   2   9  327.74   24.33
  -2   2   9  345.46   15.38
   2   2  -9  322.40   18.01
   2   2  -9  308.91   15.09
   2   2  -9  343.19   18.36
   2   2  -8  579.86   23.26
  -2   2   8  615.11   21.90
  -2   2   8  562.27   30.19
   2   2  -8  583.01   27.95
   2   2  -8  590.72   21.72
  -2  -2   8  515.62   28.46
   2   2  -7  109.66    8.93
  -2   2   7  132.79   10.17
  -2  -2   7  124.83   14.05
   2   2  -7  113.75   11.71
   2   2  -7  123.44    9.98
  -2   2   7  119.26   13.98
  -2  -2   6  334.21   20.50
   2   2  -6  319.79   15.44
  -2   2   6  349.18   16.31
   2   2  -6  321.88   17.25
  -2   2   6  308.35   20.07
   2   2  -5  256.79   14.11
  -2   2   5  272.81   14.53
  -2  -2   5  266.86   16.91
  -2   2   5  219.34   15.88
   2   2  -5  262.55   14.23
  -2  -2   4 2732.46   67.27
   2   2  -4 2841.29   60.85
  -2   2   4 2823.50   67.21
  -2   2   4 2715.04   63.20
   2   2  -4 2795.19   63.25
  -2  -2   3 1068.11   33.93
  -2   2   3 1058.06   32.08
  -2   2   3 1127.07   33.17
   2   2  -3 1055.79   27.58
   2   2  -3 1057.41   31.73
  -2   2   2 3215.73   60.87
  -2  -2   2 3079.55   71.06
  -2   2   2 3179.49   70.17
   2   2  -2 3082.47   69.61
  -2   2   2 3230.06   68.36
   2   2  -1  158.25   11.26
  -2  -2   1  138.68   11.02
  -2   2   1  168.34    9.49
  -2   2   1  154.99   11.58
  -2   2   1  152.54    8.17
  -2   2   0  309.59   11.00
  -2  -2   0  266.18   14.51
  -2   2   0  301.13   15.45
  -2   2   0  309.61   13.02
  -2  -2   0  280.40   12.11
   2   2   0  300.22   15.21
  -2  -2  -1 3363.30   70.84
  -2   2  -1 3410.24   71.90
  -2   2  -1 3383.30   74.40
  -2   2  -1 3452.25   63.00
   2   2   1 3392.22   74.33
  -2   2  -2  817.36   27.19
  -2  -2  -2  879.72   27.35
   2   2   2  846.95   27.64
  -2   2  -2  867.27   27.60
   2   2   2  739.98   28.14
  -2   2  -2  890.45   27.89
   2   2   3  785.25   26.47
  -2   2  -3  793.83   27.92
  -2   2  -3  799.39   26.67
  -2  -2  -3  802.27   27.84
   2   2   3  768.25   29.56
  -2   2  -3  761.69   27.47
   2   2   4  251.32   17.23
  -2  -2  -4  231.70   16.30
  -2   2  -4  249.33   15.68
  -2   2  -4  272.09   16.46
  -2   2  -4  242.21   13.81
   2  -2   4  277.51    9.09
   2   2   4  264.37   14.45
   2   2   5   60.65    8.89
   2   2   5   35.96    8.67
  -2   2  -5   31.58    7.47
  -2   2  -5   37.16    6.33
   2  -2   5   39.42    4.59
  -2  -2  -5   31.62    7.78
  -2   2  -5   28.47    7.27
  -2   2  -6   -7.45    7.57
  -2  -2  -6   -3.65    7.26
   2   2   6    1.92    7.53
   2  -2   6   18.21    6.75
  -2   2  -6    5.78    6.08
  -2   2  -6    6.84    4.50
   2   2   6    1.99    4.23
   2   2   6    4.67    7.18
  -2   2  -6    6.26    6.78
   2  -2   6    2.45    3.50
   2  -2   7  133.19   12.03
  -2   2  -7  140.33   13.77
  -2  -2  -7  130.25   14.66
  -2   2  -7  143.22   14.42
   2  -2   7  138.43   10.07
  -2   2  -7  132.93   14.45
   2   2   7  142.56   15.62
   2   2   7  138.04   14.26
   2   2   7  164.79   11.80
  -2   2  -7  128.38    9.84
  -2  -2  -8   66.07   12.36
  -2   2  -8   82.00   11.52
  -2   2  -8   83.48   11.67
   2  -2   8   85.48    8.59
   2   2   8   71.73   11.83
   2   2   8   85.49    8.34
   2  -2   8   81.78    9.98
  -2   2  -8   74.26    7.42
  -2   2  -8   68.58   12.02
  -2   2  -9  719.65   33.13
   2   2   9  706.20   33.38
  -2   2  -9  642.08   33.36
   2  -2   9  708.71   27.49
  -2   2  -9  650.97   35.02
   2  -2   9  712.63   31.46
  -2   2  -9  681.37   23.16
  -2  -2  -9  689.12   34.56
   2  -2  10  174.16   15.73
  -2   2 -10  184.87   20.01
  -2  -2 -10  174.27   18.82
   2  -2  10  214.67   15.88
  -2   2 -10  217.49   20.24
   2   2  10  215.00   19.56
  -2   2 -10  198.03   17.87
  -2   2 -11  416.17   27.79
   2  -2  11  422.20   23.39
  -2  -2 -11  369.51   28.18
  -2   2 -11  359.83   28.51
  -2   2 -11  389.48   28.13
   2   2  11  407.02   27.23
  -2   2 -12  186.78   19.69
  -2   2 -12  196.09   22.81
   2   2  12  183.49   19.99
  -2  -2 -12  202.76   21.78
  -2   2 -13  144.63   18.48
  -2  -2 -13   99.07   17.73
  -2   2 -13   78.32   15.37
   2   2  13  112.84   17.32
  -2  -2 -14  515.17   37.31
   2   2  14  579.26   36.96
  -2   2 -14  503.59   39.12
  -2   2 -14  560.64   36.17
  -2  -2 -15    2.36   13.16
   2   2  15   29.66   13.45
  -2   2 -15   16.23   11.64
  -2   2 -15   29.28   13.67
  -2   2 -16  605.01   40.69
  -2  -2 -16  523.38   39.77
  -2   2 -16  546.09   43.56
  -2  -2 -17  162.39   25.25
  -2   2 -17  137.53   21.00
  -2   2 -17  133.29   24.15
   2  -3 -18   66.01   17.18
  -2   3  18   30.78   15.11
  -2  -3  18   34.65   15.51
   2   3 -18   20.02   13.28
  -2   3  17  299.83   33.72
  -2  -3  17  318.04   32.54
   2  -3 -17  274.53   28.57
   2   3 -17  251.29   29.56
   2  -3 -16   23.29   10.77
  -2   3  16    8.79   11.34
  -2  -3  16    2.41   11.18
   2   3 -16    2.11   10.32
  -2  -3  15   63.69   15.54
  -2   3  15   68.29   18.34
   2  -3 -15   41.01   13.72
   2   3 -15   58.25   14.03
  -2   3  14   14.99   10.66
  -2  -3  14  -10.51    9.41
   2   3 -14   -3.85   10.82
  -2   3  13   20.68   11.86
  -2  -3  13    0.04    9.59
   2   3 -13    5.33    8.19
   2   3 -12   56.89   10.29
   2   3 -12   53.89   12.17
  -2   3  12   55.04   13.41
  -2  -3  12   86.59   15.61
  -2  -3  11   73.21   14.27
   2   3 -11   77.87   11.06
  -2   3  11   65.12   14.40
   2   3 -11   48.39   11.18
  -2  -3  10    9.31   10.35
   2   3 -10    0.42    5.56
   2   3 -10   16.36    8.29
  -2   3  10   20.92    9.54
   2   3  -9  309.91   15.32
  -2  -3   9  302.05   22.91
   2   3  -9  298.69   18.76
   2   3  -9  276.35   20.65
  -2   3   9  355.85   17.17
  -2   3   9  282.71   23.74
   2   3  -9  303.38   16.66
   2   3  -8   16.88    8.00
   2   3  -8   19.60    4.60
   2   3  -8   18.19    5.98
   2   3  -8   23.84    6.20
  -2   3   8   24.04    6.59
  -2  -3   8    5.46    7.12
  -2   3   8   13.76    8.53
  -2  -3   7  944.45   38.47
   2   3  -7  953.10   33.43
   2   3  -7  994.33   32.59
   2   3  -7 1003.09   36.15
  -2   3   7  972.42   32.13
  -2   3   7  982.99   40.42
   2   3  -7 1011.04   26.47
   2   3  -6   30.59    3.91
  -2   3   6   22.21    8.08
  -2   3   6   28.32    6.91
  -2  -3   6   17.87    7.61
   2   3  -6   34.91    7.92
   2   3  -6   28.66    6.45
  -2   3   5 4892.32  113.84
  -2  -3   5 5175.68  113.43
  -2   3   5 5352.77  107.88
   2   3  -5 5261.87  107.83
   2   3  -5 5159.69  107.42
   2   3  -5 5043.19   93.41
   2   3  -4  136.25   11.80
  -2  -3   4  133.47   12.96
  -2   3   4  136.54   12.88
  -2   3   4  134.10   11.39
   2   3  -3 5225.83  108.31
  -2  -3   3 5166.69  110.33
  -2   3   3 5217.81  108.55
  -2   3   3 5037.39  107.81
  -2  -3   2   19.24    7.06
   2   3  -2   16.28    6.52
  -2   3   2   17.58    6.82
  -2   3   2   15.91    5.81
  -2   3   1 4610.01   88.95
   2   3  -1 4474.69   95.78
  -2  -3   1 4268.75   95.33
  -2   3   1 4591.48   90.75
  -2   3   1 4471.03   95.96
  -2  -3   1 4317.88   83.33
  -2   3   0   19.71    6.90
  -2   3   0   28.31    5.34
   2   3   0   18.52    6.96
  -2  -3   0   18.95    4.78
  -2   3   0   19.13    5.42
   2   3   0   27.85    7.07
   2   3   1 4148.80   90.05
  -2   3  -1 4206.78   86.98
  -2  -3  -1 4022.41   84.12
  -2   3  -1 4264.21   90.53
   2   3   1 4059.97   88.92
   2   3   2  157.16   12.43
  -2  -3  -2  152.77   11.63
  -2   3  -2  159.14   12.37
  -2   3  -2  166.58   11.97
   2   3   2  154.68   12.71
  -2   3  -3   14.61    6.77
   2   3   3   15.64    5.79
  -2  -3  -3   10.85    6.02
  -2   3  -3   18.90    6.42
   2   3   3   13.77    7.31
  -2  -3  -4   18.07    7.75
   2   3   4   26.02    8.44
   2   3   4   23.86    6.43
  -2   3  -4   19.25    6.38
  -2   3  -4   32.37    6.77
  -2   3  -4   28.92    7.35
  -2   3  -5   27.16    7.99
   2  -3   5   30.17    4.54
   2   3   5   25.84    6.83
  -2   3  -5   29.65    6.63
   2   3   5   30.58    8.98
  -2  -3  -5   35.30    8.56
  -2   3  -5   20.22    6.81
  -2   3  -6   30.02    6.44
  -2   3  -6   12.50    7.10
   2   3   6   30.42   10.57
  -2   3  -6   15.13    6.94
   2   3   6   30.72    7.18
   2  -3   6   23.47    4.72
   2   3   6   18.88    8.05
  -2  -3  -6   28.53    8.77
   2  -3   7   74.96    9.59
  -2  -3  -7   51.75   10.47
   2   3   7   86.21   12.66
  -2   3  -7   78.70   11.79
   2   3   7   90.35    9.99
   2  -3   7   93.04    8.55
  -2   3  -7   87.07    9.24
  -2   3  -7   81.90   12.26
   2  -3   8   23.17    6.28
  -2   3  -8   21.12    8.25
   2   3   8   21.02    6.39
   2   3   8   14.51    9.05
  -2   3  -8   18.85    5.33
   2  -3   8   18.82    6.44
  -2  -3  -8   17.43   10.06
  -2   3  -8   -3.44    8.18
   2   3   9  156.47   12.52
   2  -3   9  162.35   12.46
  -2  -3  -9  163.01   18.10
  -2   3  -9  146.99   15.32
  -2   3  -9  144.26   16.76
  -2   3  -9  145.08   11.05
   2   3   9  150.71   17.60
  -2   3  -9  126.58   16.51
   2  -3   9  177.34   15.17
   2  -3  10    5.98    5.96
  -2  -3 -10   24.29    9.71
   2   3  10    6.01    9.21
  -2   3 -10    4.24    8.40
   2  -3  10   -7.97    7.67
  -2   3 -10   15.47    8.38
  -2   3 -10   -0.11    9.50
  -2  -3 -11 1017.14   48.54
   2   3  11 1087.41   48.50
  -2   3 -11 1076.18   50.68
  -2   3 -11 1167.63   46.75
  -2   3 -11 1083.47   48.21
  -2   3 -12    5.24    9.37
  -2  -3 -12    5.08    9.88
   2   3  12   -4.33   10.65
  -2   3 -12    8.65    8.67
  -2   3 -12   19.45   12.65
  -2   3 -13  463.06   32.23
  -2   3 -13  517.12   35.57
   2   3  13  537.00   35.76
  -2  -3 -13  465.98   34.60
  -2   3 -13  486.76   36.27
  -2  -3 -14    6.53   12.95
  -2   3 -14   19.67   11.46
   2   3  14   13.63   11.69
  -2   3 -14   14.84   12.47
  -2  -3 -15  248.34   27.71
  -2   3 -15  279.89   31.67
   2   3  15  362.39   31.39
  -2   3 -15  320.04   28.31
  -2   3 -16   68.48   17.43
  -2   3 -16   62.62   14.45
  -2  -3 -16   81.05   18.13
  -2  -3 -17  219.91   28.85
  -2   3 -17  222.05   28.52
   2   4 -18  376.45   36.64
  -2  -4  18  377.56   35.81
   2  -4 -17  -11.46   12.64
  -2  -4  17   -8.80   11.18
  -2   4  17    6.33   13.48
   2   4 -17   31.44   13.77
  -2   4  16   98.97   20.44
   2  -4 -16  146.79   22.49
  -2  -4  16  132.99   21.93
   2   4 -16  120.56   21.78
   2   4 -15   32.85   13.77
  -2  -4  15   22.21   13.12
  -2   4  15   31.86   13.48
  -2  -4  14  213.48   23.83
   2   4 -14  203.40   24.29
  -2   4  14  244.07   28.38
  -2  -4  13    2.83    9.55
  -2   4  13   22.16   12.86
   2   4 -13   16.88   11.31
   2   4 -12   60.25   14.01
   2   4 -12  110.89   14.52
  -2  -4  12   84.15   14.15
  -2   4  12  115.87   18.54
   2   4 -11   -4.83    6.37
  -2  -4  11    1.07    8.14
  -2   4  11   -2.49   10.44
   2   4 -11    0.41    8.92
   2   4 -10   13.13    8.33
  -2  -4  10   12.21    9.01
   2   4 -10   17.62    8.86
  -2   4  10   19.24   11.57
   2   4  -9   21.95    8.47
  -2  -4   9   29.36    9.44
   2   4  -9   44.63    8.01
  -2   4   9   30.91    7.11
  -2   4   9   55.36   13.63
   2   4  -9    9.83    6.14
   2   4  -8  336.96   20.67
  -2  -4   8  327.90   23.66
   2   4  -8  357.12   20.06
  -2   4   8  306.69   24.55
   2   4  -8  377.34   23.61
  -2   4   8  345.63   19.03
  -2   4   7  681.89   34.65
  -2   4   7  690.39   27.92
  -2  -4   7  720.66   33.83
   2   4  -7  697.85   29.35
   2   4  -7  706.10   31.18
   2   4  -6  623.09   27.53
  -2  -4   6  648.18   30.89
   2   4  -6  655.35   28.73
  -2   4   6  618.29   27.15
  -2   4   6  607.47   30.76
   2   4  -5  280.84   18.13
  -2  -4   5  268.89   18.92
  -2   4   5  307.21   18.46
  -2   4   5  297.87   20.87
   2   4  -4  936.53   34.21
  -2   4   4  966.50   35.94
  -2   4   4  876.37   33.55
  -2  -4   4  968.96   36.40
   2   4  -3   27.31    4.40
   2   4  -3   10.21    5.54
  -2   4   3   20.48    7.97
  -2   4   3   21.31    7.35
  -2  -4   3   40.74    9.15
   2   4  -2 3096.26   65.76
   2   4  -2 3111.85   75.49
  -2   4   2 2990.01   74.57
  -2  -4   2 3150.50   76.41
  -2   4   2 3056.62   73.04
  -2  -4   1  381.69   12.33
   2   4  -1  351.39   19.97
   2   4  -1  333.32   15.80
  -2   4   1  374.51   20.38
  -2   4   1  362.52   18.27
   2   4   0  579.10   26.15
   2   4   0  571.73   23.29
  -2  -4   0  605.97   19.49
  -2   4   0  639.63   26.84
  -2  -4  -1  236.06   12.69
   2   4   1  226.24   15.44
   2   4   1  206.70   15.24
  -2   4  -1  234.09   16.31
  -2   4  -1  226.73   14.26
   2   4   2   83.07   10.33
  -2  -4  -2   76.31    8.98
   2   4   2   67.89    9.64
  -2   4  -2   92.80   10.57
  -2   4  -2   75.20    8.83
  -2  -4  -3  440.14   21.10
   2   4   3  414.90   22.07
  -2   4  -3  457.07   22.51
   2   4   3  448.86   24.57
  -2   4  -3  469.41   22.42
   2   4   4  499.36   26.59
  -2   4  -4  519.40   25.32
  -2  -4  -4  498.16   24.25
  -2   4  -4  498.88   23.63
   2   4   4  492.01   24.28
  -2   4  -5  327.40   20.44
  -2   4  -5  336.17   19.06
   2   4   5  340.99   20.19
  -2   4  -5  366.87   22.63
  -2  -4  -5  321.21   20.79
  -2  -4  -6    5.19    7.78
  -2   4  -6    3.32    6.70
  -2   4  -6   13.61    8.78
   2   4   6   12.12    6.39
   2  -4   6    0.69    4.16
  -2   4  -6   10.91    6.09
  -2  -4  -7    4.63    7.46
   2   4   7   16.33    9.25
   2   4   7    8.62    7.02
  -2   4  -7  -10.70    8.60
   2  -4   7    6.83    5.40
  -2   4  -7    3.61    5.54
  -2   4  -7    6.06    7.03
   2  -4   7    4.43    5.52
  -2   4  -8  152.47   16.81
   2  -4   8  165.11   13.59
  -2   4  -8  146.77   12.69
   2   4   8  189.57   18.85
   2   4   8  134.85   12.99
  -2   4  -8  146.43   17.35
  -2  -4  -8  163.85   17.31
   2  -4   8  154.98   11.79
  -2  -4  -9   38.52   10.41
  -2   4  -9   39.16   12.87
   2  -4   9   37.68    6.97
  -2   4  -9   43.92   12.21
   2   4   9   31.42   10.69
   2   4   9   34.16    7.75
   2  -4   9   28.96    6.99
  -2   4  -9   41.58    7.30
  -2  -4 -10  570.40   34.39
   2   4  10  620.99   35.31
  -2   4 -10  599.81   36.39
  -2   4 -10  594.16   34.74
   2   4  11  136.08   19.63
  -2  -4 -11  149.63   19.20
  -2   4 -11  134.52   18.16
  -2   4 -11  102.62   18.34
   2   4  12  297.48   27.57
  -2  -4 -12  322.23   28.53
  -2   4 -12  321.62   29.09
  -2   4 -12  304.08   26.06
  -2  -4 -13   52.07   13.60
   2   4  13   48.63   14.96
  -2   4 -13   24.19   12.37
  -2   4 -13   33.19   13.04
  -2   4 -14  586.69   40.13
  -2   4 -14  559.08   40.58
  -2  -4 -14  491.64   37.52
   2   4  14  639.19   41.66
  -2  -4 -15    7.27   10.76
  -2   4 -15   25.92   12.56
  -2   4 -15    9.95   11.48
   2   4  15    7.62   12.84
  -2   4 -16  304.45   32.48
  -2  -4 -16  268.19   30.08
   2   4  16  289.53   31.48
  -2  -4 -17   24.93   15.50
   2   5 -17  195.57   26.21
   2  -5 -17  152.50   24.02
  -2  -5  17  172.57   24.68
  -2   5  17  191.23   28.87
  -2  -5  16  251.15   28.75
   2   5 -16  246.43   28.29
  -2   5  16  173.70   26.63
   2  -5 -16  179.39   26.00
  -2   5  15  129.88   22.61
  -2  -5  15  100.28   19.11
   2   5 -15   77.65   17.58
  -2   5  14   51.85   16.50
   2   5 -14   59.49   15.98
  -2  -5  14   40.63   13.93
  -2  -5  13  431.02   32.77
   2   5 -13  447.51   29.58
   2   5 -13  431.87   32.91
  -2   5  13  449.63   37.62
  -2  -5  12   -4.57    9.48
   2   5 -12    5.93    7.81
   2   5 -12   13.01    9.14
  -2   5  12    4.43   12.06
  -2  -5  11 1000.81   47.51
   2   5 -11 1054.12   44.38
   2   5 -11 1033.58   48.08
  -2   5  11  970.52   50.70
   2   5 -10   11.59    7.84
   2   5 -10   -1.39    7.97
  -2   5  10   21.18   10.90
  -2  -5  10   15.31    8.89
  -2   5   9  284.96   18.81
   2   5  -9  267.71   22.10
  -2   5   9  273.18   25.22
   2   5  -9  272.34   21.24
   2   5  -9  299.12   19.89
  -2  -5   9  271.96   23.33
  -2  -5   8  213.86   19.35
  -2   5   8  227.85   17.41
  -2   5   8  223.19   22.33
   2   5  -8  237.30   18.41
  -2  -5   7  216.30   19.40
  -2   5   7  242.77   17.95
   2   5  -7  191.02   16.80
  -2   5   7  224.53   21.02
   2   5  -6  272.25   19.36
  -2  -5   6  325.44   22.45
  -2   5   6  255.33   21.72
  -2   5   6  317.98   20.36
  -2   5   5 1038.79   38.86
  -2  -5   5 1122.70   42.76
  -2   5   5 1020.53   42.11
   2   5  -5 1008.42   39.45
  -2   5   4   99.96   12.24
  -2  -5   4   83.01   11.87
  -2   5   4   94.09   12.57
   2   5  -4   93.21   12.09
   2   5  -4  114.01    6.91
   2   5  -3  615.79   29.64
   2   5  -3  710.52   21.72
  -2  -5   3  644.82   30.43
  -2   5   3  616.35   29.17
  -2   5   3  605.59   29.02
  -2  -5   2    8.25    1.72
  -2   5   2    9.13    7.10
   2   5  -2    7.02    7.11
   2   5  -2   13.19    4.47
  -2   5   2   13.10    7.70
  -2   5   1 1302.42   44.19
  -2  -5   1 1298.93   30.95
   2   5  -1 1297.32   38.03
   2   5  -1 1329.64   45.00
  -2  -5   0  615.36   20.98
  -2   5   0  663.65   29.12
   2   5   0  622.56   25.78
   2   5   0  632.18   29.40
  -2  -5  -1 2302.07   54.60
  -2   5  -1 2252.60   62.74
   2   5   1 2197.61   60.27
   2   5   1 2235.97   64.06
   2   5   2  198.07   16.65
  -2   5  -2  182.96   14.52
  -2   5  -2  188.60   16.15
  -2  -5  -2  183.28   13.58
   2   5   3 1193.93   42.14
  -2   5  -3 1073.00   39.09
  -2   5  -3 1141.29   40.31
  -2  -5  -3 1099.17   37.91
  -2   5  -4  549.57   27.63
   2   5   4  521.49   27.40
  -2   5  -4  572.40   27.19
  -2  -5  -4  511.99   26.11
   2   5   5 1008.45   39.11
  -2   5  -5 1049.68   40.66
  -2   5  -5 1048.65   38.50
  -2  -5  -5  966.85   38.89
  -2  -5  -6   38.20    9.83
  -2   5  -6   27.61    8.83
   2   5   6   56.10   10.40
  -2   5  -6   25.38    6.79
   2   5   7  241.31   18.89
  -2   5  -7  211.43   19.04
   2  -5   7  259.31   15.20
  -2   5  -7  223.77   17.11
  -2  -5  -7  227.97   20.22
   2   5   8 1155.46   42.50
  -2  -5  -8 1006.53   45.75
   2  -5   8 1302.09   38.65
  -2   5  -8 1195.98   41.22
  -2   5  -8 1085.39   46.65
   2   5   8 1146.77   50.41
  -2   5  -8 1126.25   49.00
   2   5   9  275.83   19.79
  -2   5  -9  241.67   22.22
   2   5   9  227.11   23.18
  -2   5  -9  240.04   16.88
  -2   5  -9  201.77   21.60
  -2  -5  -9  216.83   21.40
  -2   5 -10  219.66   23.80
   2   5  10  177.47   22.09
  -2   5 -10  224.45   22.11
  -2  -5 -10  203.98   21.33
  -2  -5 -11  485.74   34.11
   2   5  11  535.07   36.57
  -2   5 -11  512.76   36.43
  -2   5 -11  521.91   34.19
  -2  -5 -12   67.17   15.12
  -2   5 -12   87.42   15.95
  -2   5 -12   92.42   17.97
   2   5  12   72.55   16.76
  -2  -5 -13   45.20   13.74
  -2   5 -13   87.65   16.38
   2   5  13   58.31   15.04
  -2   5 -13   64.60   16.47
   2   5  14   16.15   12.44
  -2   5 -14   -1.97    9.44
  -2   5 -14    0.92   12.56
  -2  -5 -14    3.29   11.69
   2   5  15   75.23   18.30
  -2  -5 -15   66.45   17.34
  -2   5 -15   87.04   17.73
  -2   5 -15   82.02   18.14
   2   5  16   24.64   13.81
  -2   5 -16    2.41   10.13
  -2   5 -16   21.34   17.04
  -2  -5 -16   -6.59   12.38
   2   5  17  159.01   25.84
   2   6 -17    3.95   11.56
  -2  -6  17    3.89   12.27
  -2   6  16   65.62   22.13
   2   6 -16   64.94   17.66
  -2  -6  16   67.73   18.44
  -2   6  15   32.18   14.20
  -2  -6  15   61.16   15.84
   2   6 -15   61.65   16.89
  -2  -6  14  248.33   26.79
  -2   6  14  224.35   28.46
   2   6 -14  235.64   26.57
   2   6 -13    1.46    9.00
  -2  -6  13  -12.63    9.90
  -2   6  13  -14.01   12.58
   2   6 -13   -0.93    9.93
   2   6 -12 1143.62   50.41
  -2  -6  12 1174.24   54.77
  -2   6  12 1121.21   58.67
   2   6 -11   17.61   10.16
  -2   6  11   17.89   10.76
  -2  -6  11    6.58    9.29
   2   6 -10  513.46   31.28
  -2  -6  10  559.46   34.96
  -2   6  10  602.41   39.68
   2   6  -9  164.01   17.24
  -2  -6   9  192.17   20.00
  -2   6   9  157.74   20.90
   2   6  -9  178.45   18.34
  -2   6   9  191.28   16.93
  -2   6   8  287.03   25.87
  -2  -6   8  324.27   24.40
  -2   6   8  266.19   20.63
   2   6  -8  282.36   22.03
  -2  -6   7  561.04   32.63
   2   6  -7  587.70   31.55
  -2   6   7  593.67   34.71
  -2   6   7  601.80   31.56
  -2   6   6  168.31   17.33
   2   6  -6  170.41   16.91
  -2   6   6  162.27   18.46
  -2  -6   6  141.32   16.60
  -2   6   5    1.38    7.01
   2   6  -5   -5.83    7.42
  -2   6   5    2.56    9.22
  -2  -6   5    1.50    8.90
  -2   6   4   68.23   12.42
  -2  -6   4   65.62   12.77
  -2   6   4   78.39   12.39
   2   6  -4   86.64   12.98
  -2   6   3   -0.61    7.58
   2   6  -3   -4.71    7.28
  -2   6   3   -8.62    7.39
   2   6  -2   30.77   10.39
  -2  -6   2   43.83    3.75
  -2   6   2   64.88   10.99
  -2  -6   1  360.29   13.83
   2   6  -1  353.08   23.89
  -2   6   1  290.77   21.17
  -2  -6   0   36.26    6.06
   2   6   0   49.29   11.30
  -2   6   0   40.32   10.09
   2   6   1  587.87   30.77
  -2  -6  -1  620.04   24.31
  -2   6  -1  601.84   30.32
   2   6   2 1021.62   41.90
  -2   6  -2  966.93   38.34
  -2   6  -2 1036.98   40.95
  -2  -6  -2 1064.08   35.67
  -2   6  -3   31.58    8.75
   2   6   3   22.89    8.83
  -2  -6  -3   18.29    7.50
  -2   6  -3   30.37    8.08
  -2   6  -4 2791.55   76.43
  -2   6  -4 2824.79   76.46
   2   6   4 2729.90   77.98
  -2  -6  -4 2611.75   72.83
  -2   6  -5   56.62   11.03
  -2   6  -5   73.96   11.57
   2   6   5   54.84   11.89
  -2  -6  -5   54.86   10.58
   2   6   6  651.82   33.46
  -2   6  -6  669.86   34.33
  -2   6  -6  652.06   31.55
  -2  -6  -6  596.74   32.58
  -2   6  -7   12.24    8.49
   2   6   7    3.37    7.56
  -2   6  -7    0.57    6.87
  -2  -6  -7   -4.17    7.47
   2   6   8 1001.68   42.25
  -2   6  -8  969.84   45.05
  -2   6  -8 1071.06   41.15
   2   6   8  978.11   49.41
  -2  -6  -8  902.03   43.52
   2   6   9   21.75   12.59
   2   6   9   11.62    8.72
  -2   6  -9   19.65    7.45
  -2   6  -9   28.30   10.89
  -2  -6  -9   29.59   11.62
  -2   6 -10  887.94   44.98
   2   6  10  806.08   45.99
  -2  -6 -10  801.73   43.36
  -2  -6 -11   11.88    9.90
  -2   6 -11    4.83    8.67
   2   6  11   -1.10   10.28
  -2   6 -11   -2.07   10.89
  -2  -6 -12   14.25   13.97
  -2   6 -12    4.69   11.21
  -2   6 -12   -7.65    9.01
   2   6  12    8.07   13.23
  -2  -6 -13   27.22   12.36
  -2   6 -13    0.84    9.32
  -2   6 -13    8.34   10.83
   2   6  13   18.11   13.04
  -2  -6 -14   -1.96   12.40
  -2   6 -14   17.40   11.47
   2   6  14   12.20   12.82
  -2   6 -14    7.93   14.55
  -2   6 -15   31.69   14.09
   2   6  15    9.99   11.28
  -2  -6 -15   21.30   14.62
  -2   6 -15    6.24   12.16
  -2   6 -16   66.52   18.35
   2   6  16   46.92   14.48
  -2  -7  16   51.58   16.39
  -2  -7  15  260.68   28.96
  -2   7  15  221.44   31.66
  -2  -7  14   -4.48   11.40
  -2   7  14   14.38   13.48
   2   7 -13  333.58   28.59
  -2  -7  13  285.88   28.36
  -2   7  13  293.16   33.65
  -2   7  12   42.42   16.47
  -2  -7  12   38.65   11.71
   2   7 -12    9.05    8.34
   2   7 -11  942.68   46.69
  -2   7  11  854.01   51.68
  -2  -7  11  967.57   49.18
   2   7 -10  106.83   16.18
  -2  -7  10  126.16   18.44
  -2   7  10   88.60   17.57
   2   7  -9  422.86   28.50
  -2   7   9  425.18   33.60
  -2  -7   9  457.90   31.92
  -2   7   9  482.69   29.30
   2   7  -9  391.05   27.84
  -2  -7   8   93.57   15.09
   2   7  -8  113.26   16.00
  -2   7   8   91.14   16.25
  -2   7   8   88.23   12.41
  -2  -7   7  182.05   19.82
  -2   7   7  214.20   19.73
  -2   7   7  194.82   22.54
   2   7  -7  231.90   21.84
  -2   7   6  738.27   40.56
   2   7  -6  751.02   38.09
  -2   7   6  756.36   37.48
  -2  -7   6  789.29   39.76
   2   7  -5  409.80   27.95
  -2   7   5  467.87   31.29
  -2  -7   5  376.89   27.56
  -2   7   5  437.60   28.17
  -2   7   4   21.35    9.73
  -2   7   4    4.48    8.78
   2   7  -4   32.20   10.67
  -2   7   3    5.10    8.89
   2   7  -3   11.97    8.99
  -2   7   3   29.26   10.66
   2   7  -2 1010.10   44.36
  -2   7   2  999.03   43.13
  -2  -7   1    7.64    3.59
  -2   7   1    8.40    8.35
   2   7  -1   11.02    8.65
   2   7   0    1.71    9.01
  -2   7   0    3.24    7.76
  -2  -7   0    3.30    4.60
  -2   7  -1  351.92   25.13
  -2  -7  -1  398.15   19.92
   2   7   1  342.72   25.50
   2   7   2  144.62   17.41
  -2   7  -2  139.75   16.20
  -2  -7  -2  135.47   12.94
  -2   7  -3 1006.97   42.61
   2   7   3  927.90   42.71
  -2   7  -3  898.82   39.54
  -2  -7  -3  918.02   36.53
  -2   7  -4  123.68   15.07
  -2   7  -4  102.41   13.98
  -2  -7  -4  118.76   14.03
   2   7   4  129.73   16.57
   2   7   5 1593.92   58.42
  -2   7  -5 1597.24   56.94
  -2   7  -5 1607.58   56.19
  -2  -7  -5 1466.43   53.02
  -2  -7  -6   -5.21    8.71
  -2   7  -6   25.53   10.20
  -2   7  -6    8.05    9.35
   2   7   6   19.38    9.73
   2   7   7 1509.61   56.76
  -2   7  -7 1477.05   57.17
  -2   7  -7 1507.90   54.12
  -2  -7  -7 1273.98   52.60
  -2  -7  -8   11.59    9.59
   2   7   8    7.68   11.21
   2   7   8    4.35    8.10
  -2   7  -8    1.80    7.28
  -2   7  -8   -3.04    8.32
  -2   7  -9  685.21   34.50
  -2   7  -9  624.52   37.95
  -2  -7  -9  573.23   36.62
   2   7   9  625.10   34.75
   2   7   9  570.77   40.23
  -2  -7 -10   52.06   14.32
  -2   7 -10   36.19   12.61
   2   7  10   34.34   13.18
  -2  -7 -11  204.25   23.69
  -2   7 -11  213.02   24.69
   2   7  11  191.10   26.01
  -2  -7 -12    1.66   10.38
  -2   7 -12   26.27   13.46
   2   7  12    8.51   11.89
  -2  -7 -13   13.25   11.63
   2   7  13  -21.91   14.52
  -2   7 -13   -3.08   10.55
  -2  -7 -14   17.47   14.44
  -2   7 -14    8.70   10.01
   2   7  14   32.28   16.44
  -2   7 -15    7.01   12.51
   2   7  15   15.46   17.12
  -2  -7 -15   19.72   15.66
   2   7  16   42.34   16.99
  -2  -8  15   39.55   14.49
   2   8 -14  159.00   22.92
  -2   8  14  167.81   27.74
  -2  -8  14  180.66   24.74
  -2  -8  13    7.33   12.03
   2   8 -13   22.47   12.76
  -2   8  13    6.35   12.24
  -2  -8  12  160.24   21.65
  -2   8  12  138.14   23.48
   2   8 -12  157.30   20.82
  -2   8  11  105.12   20.58
  -2  -8  11   91.58   17.71
   2   8 -11   57.63   13.53
   2   8 -10  286.42   26.52
  -2  -8  10  301.14   27.89
  -2   8  10  274.71   28.98
  -2  -8   9  163.39   21.52
  -2   8   9  143.58   21.34
  -2   8   9  171.78   19.32
   2   8  -9  165.67   19.95
   2   8  -9  150.33   19.01
   2   8  -8  632.99   37.50
  -2  -8   8  666.08   39.74
  -2   8   8  668.10   42.43
  -2   8   8  617.94   36.01
   2   8  -7  183.64   21.44
  -2   8   7  169.83   22.22
  -2   8   7  153.99   18.55
  -2  -8   7  167.57   20.18
  -2   8   6  342.95   26.15
   2   8  -6  293.25   25.78
  -2   8   6  301.74   27.76
   2   8  -5  358.63   27.79
  -2   8   5  302.85   25.90
  -2   8   5  332.18   28.02
  -2   8   4  132.97   18.25
   2   8  -4  149.11   18.78
  -2   8   4  173.82   19.71
   2   8  -3   83.33   15.49
  -2   8   3   98.08   15.91
  -2   8   3   98.12   15.86
   2   8  -2  820.59   42.51
  -2   8   2  799.77   41.30
   2   8  -1  224.32   22.16
  -2   8   1  243.42   22.73
   2   8   0  523.28   33.77
  -2   8   0  573.90   34.37
   2   8   1  142.45   19.33
  -2   8  -1  182.77   19.50
  -2  -8  -1  167.36   13.62
  -2   8  -2  561.32   33.96
   2   8   2  551.85   34.93
  -2  -8  -2  512.45   25.66
   2   8   3  512.51   33.26
  -2   8  -3  508.29   30.38
  -2   8  -3  464.23   30.51
  -2  -8  -3  497.96   26.94
   2   8   4  449.42   31.91
  -2   8  -4  435.89   29.51
  -2   8  -4  435.86   29.59
  -2  -8  -4  402.31   25.64
  -2   8  -5   51.29   12.88
  -2  -8  -5   63.83   11.69
   2   8   5   36.97   11.07
  -2   8  -5   37.29   10.42
  -2  -8  -6   96.45   14.67
  -2   8  -6  119.47   16.82
  -2   8  -6  128.92   16.75
   2   8   6  128.45   18.55
   2   8   7  205.02   22.61
  -2   8  -7  193.54   20.04
  -2   8  -7  201.89   21.62
  -2  -8  -7  167.23   19.32
  -2   8  -8  255.53   24.52
  -2   8  -8  254.10   23.43
   2   8   8  275.30   25.13
   2   8   8  244.27   28.05
  -2  -8  -8  221.43   22.60
   2   8   9  541.01   34.60
  -2   8  -9  532.02   32.46
   2   8   9  472.19   38.32
  -2   8  -9  429.79   32.92
  -2  -8  -9  471.86   33.28
  -2  -8 -10   71.70   15.57
   2   8  10   65.73   17.02
  -2   8 -10   51.15   13.43
  -2  -8 -11  127.51   18.92
  -2   8 -11  154.94   22.00
   2   8  11  182.01   25.95
  -2  -8 -12  128.89   19.90
   2   8  12  125.26   22.92
  -2   8 -12  115.77   19.48
  -2  -8 -13   31.18   13.51
  -2   8 -13   49.96   15.78
   2   8  13   33.54   14.34
  -2   8 -14  351.49   34.41
  -2  -8 -14  282.17   31.07
   2   8  14  271.82   33.12
   2   9 -14   24.18   13.76
  -2  -9  14    2.09   11.22
  -2  -9  13  -17.61   12.40
   2   9 -13   27.97   14.38
  -2   9  13   21.49   16.70
   2   9 -12   31.91   13.27
  -2  -9  12   -8.83   11.09
  -2   9  12   17.80   14.66
  -2  -9  11    7.79   12.04
   2   9 -11    4.42   10.86
  -2   9  11   19.74   15.60
   2   9 -10   11.94   10.40
  -2  -9  10    0.75    9.67
  -2   9  10    9.08   13.13
   2   9  -9  121.68   19.26
  -2   9   9   88.34   18.92
  -2   9   9  133.21   19.12
  -2   9   8   -0.66   12.11
  -2   9   8   16.85   11.07
   2   9  -8   32.09   12.82
  -2   9   7  415.80   31.50
  -2   9   7  443.93   36.36
   2   9  -7  454.49   33.80
  -2   9   6  139.52   20.90
  -2   9   6  143.33   19.63
   2   9  -6  133.80   19.28
   2   9  -5 1431.65   61.35
  -2   9   5 1407.17   59.77
  -2   9   5 1396.77   62.74
   2   9  -4   23.44   11.63
  -2   9   4   43.29   13.41
  -2   9   4   41.74   12.53
   2   9  -3 1230.01   55.92
  -2   9   3 1178.12   54.21
  -2   9   3 1196.06   54.29
  -2   9   2   34.73   12.78
   2   9  -2   20.20   11.24
   2   9  -1  932.45   48.38
  -2   9   1 1009.48   49.15
  -2   9   0   14.80   11.18
   2   9   0   17.28   11.92
  -2   9  -1  468.36   32.99
   2   9   1  441.41   32.92
  -2   9  -2  165.64   20.46
   2   9   2  166.86   21.05
  -2  -9  -3   18.40    8.41
  -2   9  -3    5.68    8.43
  -2   9  -3   11.56    9.35
   2   9   3    6.39    9.71
  -2  -9  -4   33.90   10.23
  -2   9  -4   56.35   12.87
  -2   9  -4   45.67   12.68
   2   9   4   33.61   12.76
  -2   9  -5   -3.74    8.05
  -2   9  -5  -13.83   10.27
   2   9   5   -1.31   10.31
  -2  -9  -5    2.68    8.75
  -2  -9  -6   21.57   10.45
  -2   9  -6   37.34   12.64
  -2   9  -6    8.65   10.19
   2   9   6   31.14   13.58
  -2  -9  -7   42.04   11.47
  -2   9  -7   34.63   13.01
   2   9   7   38.41   12.46
  -2   9  -7   39.86   11.79
  -2  -9  -8   -7.99    9.91
  -2   9  -8   -4.75    8.77
   2   9   8   13.54   11.40
  -2   9  -8   18.52   12.76
   2   9   8   20.65   10.32
   2   9   8   30.83   13.69
  -2  -9  -9  -14.40   12.12
  -2   9  -9   27.88   13.50
   2   9   9    2.10   11.48
  -2   9  -9   15.00   10.24
  -2  -9 -10   54.72   14.95
  -2   9 -10   57.05   16.04
   2   9  10   45.54   16.64
  -2  -9 -11   33.08   12.40
   2   9  11   48.36   16.48
  -2   9 -11   14.34   13.45
  -2  -9 -12    7.49   11.59
   2   9  12   14.24   13.03
  -2   9 -12    4.27   10.50
  -2  -9 -13  370.56   35.27
  -2   9 -13  472.35   40.11
   2   9  13  390.17   38.61
   2  10 -13    8.00   13.96
   2  10 -12    2.25   12.25
  -2  10  12   30.39   21.28
   2  10 -11  144.04   21.88
  -2  10  11  136.68   24.28
   2  10 -10   82.11   17.37
  -2  10  10   85.01   20.17
   2  10  -9  100.19   19.06
  -2  10   9   99.68   21.04
  -2  10   9   98.71   18.79
  -2  10   8  309.27   32.27
   2  10  -8  318.29   30.78
  -2  10   8  284.81   28.61
   2  10  -7  206.93   24.37
  -2  10   7  161.36   24.29
  -2  10   7  196.62   24.33
   2  10  -7  188.66   23.80
   2  10  -6  529.57   38.38
  -2  10   6  522.37   39.74
  -2  10   6  537.71   38.40
  -2  10   5   42.43   14.17
  -2  10   5   19.41    9.79
   2  10  -5   33.05   13.44
   2  10  -4  631.18   43.03
  -2  10   4  713.80   44.04
  -2  10   4  718.28   44.02
  -2  10   3   51.31   14.94
   2  10  -3   57.48   17.06
  -2  10   3   78.42   18.21
  -2  10   2 1122.05   56.26
   2  10  -2 1089.39   55.95
  -2  10   1  106.73   19.57
   2  10  -1   86.23   18.15
  -2  10   0  448.30   34.22
   2  10   0  421.25   33.98
  -2  10  -1  212.48   24.56
   2  10   1  235.07   26.07
  -2  10  -2  241.75   25.94
   2  10   2  193.44   24.15
  -2  10  -3  214.61   22.66
  -2  10  -3  187.01   23.00
   2  10   3  229.18   26.37
  -2  10  -4   83.25   16.03
  -2  10  -4   70.43   16.01
   2  10   4   80.02   17.68
  -2 -10  -5   35.28   11.14
  -2  10  -5   18.17    9.24
  -2  10  -5   26.62   11.83
   2  10   5   52.81   15.89
  -2 -10  -6   39.95   13.70
  -2  10  -6    0.46   11.54
   2  10   6    4.32   10.91
  -2  10  -6   10.87   11.80
   2  10   6    6.91   11.78
  -2 -10  -7   35.68   14.35
  -2  10  -7   43.85   12.84
   2  10   7   31.90   12.45
  -2  10  -7    7.01    9.20
  -2 -10  -8  171.22   21.60
   2  10   8  261.38   27.98
  -2  10  -8  225.06   24.83
   2  10   8  256.85   32.05
  -2  10  -8  229.86   25.34
  -2 -10  -9   -8.12   11.18
  -2  10  -9   17.54   11.48
   2  10   9   -0.54   14.19
  -2  10  -9   29.72   12.93
  -2 -10 -10  169.73   22.55
   2  10  10  142.93   25.24
  -2  10 -10  206.37   26.83
  -2  10 -11  107.75   21.57
   2  10  11   87.54   21.31
  -2 -10 -11   90.65   19.19
  -2 -10 -12  161.16   23.58
  -2  10 -12  167.69   25.71
   2  10  12  154.37   26.83
   2  11 -11  190.43   26.35
  -2  11  11  153.34   27.40
   2  11 -10  100.85   18.94
  -2  11  10   45.21   19.05
   2  11  -9   33.90   13.03
   2  11  -9    7.19   12.82
  -2  11   9  -25.93   14.99
  -2  11   9   65.53   17.64
   2  11  -8   26.18   14.72
  -2  11   8   24.21   15.16
  -2  11   8   10.63   12.99
  -2  11   7   34.19   14.58
   2  11  -7   23.26   12.17
  -2  11   7   25.99   12.85
  -2  11   6   11.31   12.22
   2  11  -6   35.48   15.72
  -2  11   6    8.10   12.67
  -2  11   5   70.44   17.27
  -2  11   5   60.62   16.27
   2  11  -5   50.99   15.45
   2  11  -5   76.29   18.65
   2  11  -4   44.54   15.57
  -2  11   4   67.63   15.98
  -2  11   4   22.94   12.88
   2  11  -4   79.66   18.56
  -2  11   3    6.68   11.73
  -2  11   3   27.83   13.83
   2  11  -3   24.78   14.56
  -2  11   2   20.30   15.53
   2  11  -2    0.95   12.18
  -2  11   1  143.30   21.96
   2  11  -1  130.73   22.69
  -2  11   0   69.30   16.85
   2  11   0   88.25   18.58
  -2  11  -1  149.92   22.65
   2  11   1  155.81   24.95
  -2  11  -2  158.77   22.59
   2  11   2  218.26   26.89
  -2  11  -3  128.36   19.19
   2  11   3  133.95   21.84
  -2  11  -3  115.35   20.12
   2  11   3   92.41   19.88
   2  11   4   86.31   18.72
  -2  11  -4   74.85   15.84
  -2  11  -4   63.66   16.46
   2  11   4   65.46   16.28
  -2  11  -5  318.62   30.40
   2  11   5  269.15   29.90
  -2  11  -5  258.23   27.84
  -2  11  -6    8.80   10.61
   2  11   6   13.64   12.23
  -2  11  -6   18.23   11.74
  -2  11  -7  379.30   34.08
   2  11   7  421.21   36.30
  -2  11  -7  387.80   33.63
  -2 -11  -8   20.84   12.91
  -2  11  -8   35.89   14.54
   2  11   8   60.20   16.28
  -2  11  -8   38.42   14.57
   2  11   8   36.63   16.65
  -2 -11  -9   90.97   18.43
  -2  11  -9  167.02   25.46
   2  11   9  106.84   23.46
  -2 -11 -10  143.00   22.16
  -2  11 -10  121.61   22.06
   2  11  10  151.77   26.39
  -2 -11 -11   70.97   16.62
   2  12  -9    3.49   10.64
   2  12  -9  -15.01   14.78
  -2  12   9   17.26   15.89
  -2  12   8  333.63   33.55
   2  12  -8  280.26   31.69
  -2  12   8  278.71   33.81
  -2  12   7   22.96   14.81
  -2  12   7   38.83   14.18
   2  12  -7   30.28   13.18
  -2  12   6   65.92   19.03
   2  12  -6   61.44   18.24
  -2  12   6   63.96   18.48
  -2  12   5   26.82   12.36
   2  12  -5   39.90   14.59
  -2  12   5   43.04   14.74
  -2  12   4   66.77   18.41
  -2  12   4   36.57   13.93
   2  12  -4   50.96   18.90
  -2  12   3   60.87   17.16
   2  12  -3   94.00   18.94
  -2  12   3   56.69   15.68
   2  12  -2  263.81   30.70
  -2  12   2  269.96   31.46
   2  12  -1   11.64   13.58
  -2  12   1   39.27   14.09
   2  12   0  336.11   33.67
  -2  12   0  415.83   37.23
   2  12   1    9.10   11.98
  -2  12  -1   29.31   15.12
  -2  12  -2  269.72   31.43
   2  12   2  223.07   28.24
  -2  12  -3   45.83   14.95
   2  12   3   14.89   12.68
  -2  12  -3   52.75   16.49
  -2  12  -4  431.38   36.59
   2  12   4  423.25   37.88
  -2  12  -4  455.80   38.61
  -2  12  -5   32.40   15.23
   2  12   5   25.45   13.75
  -2  12  -5   26.08   13.81
  -2  12  -6  265.21   29.25
   2  12   6  269.84   30.67
  -2  12  -6  260.22   29.33
  -2  12  -7   37.42   15.35
   2  12   7   -6.16   12.06
  -2  12  -7   -5.59   11.27
  -2  12  -8  337.29   33.03
   2  12   8  350.34   35.50
   2  12   8  379.78   39.66
  -2  12  -8  359.76   34.79
  -2  13   7  156.85   27.20
   2  13  -7  197.93   28.20
  -2  13   7  138.39   22.95
  -2  13   6   24.29   18.47
   2  13  -6   17.42   13.78
  -2  13   6   28.11   15.02
  -2  13   5   84.36   19.31
   2  13  -5  107.45   21.85
  -2  13   5  111.17   22.55
  -2  13   4   -8.68   12.71
   2  13  -4   10.42   13.39
  -2  13   4    4.09   11.80
  -2  13   3   17.02   13.37
   2  13  -3   32.63   15.67
  -2  13   3   22.80   14.87
   2  13  -2   43.57   16.89
  -2  13   2   36.78   14.76
  -2  13   2   45.83   17.56
   2  13  -1   55.41   18.90
  -2  13   1   45.81   17.83
   2  13   0   45.98   14.43
  -2  13   0   55.95   21.37
   2  13   1    4.60   12.30
  -2  13  -1    8.71   12.94
   2  13   2   83.03   20.16
  -2  13  -2  123.08   23.64
  -2  13  -2   56.56   16.03
  -2  13  -3   84.92   19.95
   2  13   3   86.02   21.03
  -2  13  -3   92.18   20.43
   2  13   4    7.02   13.80
  -2  13  -4   21.99   13.64
  -2  13  -4    9.09   14.30
  -2  13  -5  425.41   38.08
   2  13   5  378.32   37.63
  -2  13  -5  366.78   36.67
   2  13   6   -5.27   10.95
  -2  13  -6   40.11   15.81
   2  13   7  291.10   33.97
  -2  13  -7  262.78   31.72
  -2  14   4   71.38   20.15
  -3   0  18   19.60   15.97
  -3   0  17  192.70   26.84
  -3   0  16   -0.29   10.58
  -3   0  15  322.93   31.88
  -3   0  14    7.64   11.24
  -3   0  13   44.50   12.99
  -3   0  12    6.76    9.33
  -3   0  11  224.05   22.51
  -3   0  10    4.56    8.94
  -3   0   9 1102.95   46.01
   3   0  -9 1121.83   34.70
   3   0  -8    7.11    4.97
  -3   0   8    6.58    8.59
  -3   0   7  849.96   36.37
   3   0  -7  861.25   29.66
   3   0  -6   -5.18    4.74
  -3   0   6   -2.18    6.08
   3   0  -5   53.22    8.24
  -3   0   5   59.63   10.08
   3   0  -4   11.12    5.84
  -3   0   4    8.17    6.30
  -3   0   3 3674.07   81.78
   3   0  -3 3719.21   81.54
  -3   0   2    3.84    5.52
   3   0  -2    4.60    5.37
  -3   0   2    6.72    5.54
  -3   0   1 1304.51   34.57
  -3   0   1 1342.77   39.62
   3   0  -1 1241.78   37.96
  -3   0   0    0.61    4.16
  -3   0   0    7.46    5.90
   3   0   0    0.53    5.82
  -3   0  -1 2648.86   54.70
  -3   0  -1 2649.11   53.64
  -3   0  -1 2587.26   63.89
   3   0   1 2590.88   62.28
   3   0   2    5.52    5.33
  -3   0  -2    3.94    4.05
  -3   0  -2   -1.51    5.42
   3   0   3 3008.97   69.40
   3   0   4    1.49    3.95
  -3   0  -4    3.26    7.75
   3   0   4    1.06    2.83
  -3   0  -5  875.36   34.36
   3   0   5  852.57   29.21
   3   0   5  849.31   34.04
   3   0   5  876.74   25.20
   3   0   6    4.13    7.07
  -3   0  -6    7.14    6.85
   3   0   6    1.38    3.22
   3   0   6   -3.00    3.84
   3   0   7 1339.74   49.03
   3   0   7 1505.83   41.56
  -3   0  -7 1375.31   49.67
   3   0   7 1533.52   40.88
   3   0   8   -5.13    4.98
  -3   0  -8    2.94    8.78
   3   0   8    8.28    5.75
   3   0   8    3.79    6.18
   3   0   9    4.13    6.67
  -3   0  -9   10.18   10.60
   3   0   9    3.35    5.73
   3   0  10   -4.11    8.39
   3   0  10   -1.36    5.81
  -3   0 -10    9.02    9.64
  -3   0 -11   11.83    9.60
   3   0  11   15.71    9.88
  -3   0 -12   -3.18   10.15
  -3   0 -13  774.14   43.91
  -3   0 -14   -9.16   10.47
  -3   0 -15  265.28   27.48
  -3   0 -16   13.64   12.67
  -3   0 -16   -1.46   11.05
  -3   0 -17  124.35   22.21
  -3   0 -17  146.72   25.44
  -3  -1  18  336.24   34.57
   3   1 -18  276.30   31.60
  -3  -1  17   -1.91   11.35
  -3   1  17   36.59   15.03
   3   1 -17   40.00   16.01
   3  -1 -16  191.78   23.18
  -3   1  16  217.37   27.14
  -3  -1  16  199.44   26.64
   3   1 -16  277.63   28.59
  -3   1  15   42.61   15.46
  -3  -1  15   18.01   13.32
  -3   1  14  390.26   32.93
  -3  -1  14  373.54   32.25
  -3   1  13   38.31   11.93
  -3  -1  13   53.56   14.46
  -3   1  12  190.45   22.11
  -3  -1  12  156.17   20.85
  -3   1  11   80.50   15.09
  -3  -1  11   75.83   14.14
  -3   1  10   77.37   14.12
  -3  -1  10   87.35   14.79
   3  -1  -9    5.18    4.16
  -3   1   9   -0.41    8.35
   3   1  -9   13.57    4.00
   3   1  -9    9.22    4.99
  -3  -1   9   15.85    8.58
  -3  -1   8  598.60   31.78
  -3   1   8  647.92   32.49
   3   1  -8  605.38   24.43
   3   1  -8  651.08   20.51
   3  -1  -8  660.94   25.04
  -3  -1   7  466.16   26.62
  -3   1   7  420.54   25.27
  -3   1   7  516.90   22.43
   3   1  -7  472.86   21.18
   3   1  -7  498.46   16.61
  -3   1   6  367.63   22.24
  -3  -1   6  383.03   23.08
  -3   1   6  428.51   20.22
   3   1  -6  378.61   19.00
  -3   1   5 1012.37   36.29
  -3   1   5 1080.88   34.10
  -3  -1   5  925.35   35.66
   3   1  -5  975.40   32.79
  -3  -1   4 1040.39   35.92
  -3   1   4  924.61   34.16
  -3   1   4 1027.83   33.96
   3   1  -4 1095.14   26.37
   3   1  -4 1042.11   33.46
  -3  -1   3    0.92    6.32
   3   1  -3   -0.09    5.25
  -3   1   3    0.59    5.55
  -3   1   3    6.35    6.76
   3   1  -3    2.61    1.96
  -3   1   2 3334.87   72.94
  -3  -1   2 3313.63   75.55
  -3   1   2 3495.35   78.13
   3   1  -2 3349.75   76.66
   3   1  -1   21.91    6.69
  -3   1   1   19.12    4.58
  -3   1   1   17.20    6.84
  -3  -1   1   15.33    6.08
  -3  -1   0 2187.34   51.87
  -3   1   0 2222.15   56.66
  -3   1   0 2212.64   46.53
   3   1   0 2143.35   54.92
  -3   1  -1   -1.26    2.24
   3   1   1   -7.56    5.84
  -3   1  -1    2.25    6.37
  -3   1  -2  241.28   15.53
  -3   1  -2  240.33   12.82
   3   1   2  229.51   14.86
  -3  -1  -3  547.89   24.32
  -3   1  -3  491.24   22.74
   3   1   3  578.68   23.61
  -3   1  -3  540.86   21.93
  -3  -1  -4   49.23    9.90
  -3   1  -4   68.74    9.59
   3   1   4   57.68    8.35
  -3   1  -4   50.68    8.39
   3   1   4   53.71    9.38
  -3   1  -5  257.85   17.23
   3  -1   5  269.76    9.77
   3   1   5  272.87   19.31
  -3   1  -5  246.65   15.75
   3   1   5  337.45   16.65
  -3  -1  -5  305.39   19.69
   3   1   5  300.24   16.37
  -3   1  -6  606.70   29.45
   3   1   6  578.40   30.09
   3   1   6  602.84   24.37
  -3  -1  -6  605.57   29.56
  -3   1  -6  596.60   28.67
  -3   1  -6  555.57   24.35
   3  -1   6  630.62   28.73
   3   1   6  600.22   24.01
   3  -1   6  623.13   18.54
  -3  -1  -7   75.90   12.43
  -3   1  -7   85.28   13.23
   3   1   7   89.68   13.08
   3   1   7   71.99    8.15
   3   1   7   78.56   10.07
  -3   1  -7   76.87    9.37
  -3   1  -7   73.24   11.80
   3  -1   7   74.71   10.58
   3  -1   7   81.74    9.14
   3  -1   7   91.37    7.76
   3  -1   8  119.69   10.04
  -3  -1  -8  154.43   17.74
  -3   1  -8  113.39   14.06
   3   1   8  146.38   13.51
   3   1   8  169.86   18.30
   3  -1   8  133.19   10.77
   3  -1   8  143.73   14.92
   3   1   8  152.74   11.35
  -3   1  -9   25.03   10.03
   3   1   9   27.11    8.02
   3  -1   9   28.23    8.75
   3   1   9   22.32    9.65
  -3  -1  -9   41.94   11.93
  -3  -1 -10   62.07   13.70
  -3   1 -10   56.67   12.34
   3   1  10   38.12    8.92
   3   1  10   73.20   15.08
   3  -1  10   52.98   10.90
  -3  -1 -11    1.97    8.51
   3  -1  11   -3.97    6.36
  -3   1 -11   -5.34    9.39
  -3   1 -11   16.26   10.52
   3   1  11   10.30    8.15
  -3  -1 -12  140.30   20.37
  -3   1 -12  149.93   19.31
  -3   1 -12  131.18   19.18
  -3   1 -13   42.83   15.22
  -3  -1 -13   36.51   12.39
  -3   1 -13   52.53   16.27
  -3   1 -14   26.42   13.22
  -3  -1 -14   40.11   13.80
  -3   1 -14   51.86   15.41
  -3  -1 -15   12.57   11.17
  -3   1 -15   -5.24    9.95
  -3   1 -15    1.84   11.93
  -3   1 -16  122.54   22.37
  -3   1 -16  127.35   23.21
  -3  -1 -16  120.17   21.34
  -3  -1 -17   15.74   13.59
  -3   1 -17   22.72   14.79
  -3   1 -17    1.84   16.42
   3  -2 -17   42.81   14.24
  -3  -2  17   71.92   18.39
   3   2 -17   61.31   16.89
  -3   2  17   90.96   21.46
  -3   2  16  113.44   22.93
   3   2 -16  100.11   18.83
  -3  -2  16  116.44   21.35
   3  -2 -16  112.51   18.51
  -3   2  15   76.17   17.94
  -3  -2  15   84.42   17.16
   3   2 -15  100.48   18.68
  -3   2  14  109.48   19.28
   3   2 -14  121.27   19.04
  -3  -2  14   97.92   17.59
  -3   2  13  325.29   29.51
  -3  -2  13  297.14   27.80
   3   2 -13  261.01   23.58
  -3   2  12   31.85   11.24
  -3  -2  12   25.44   10.78
   3   2 -12   -5.48   11.02
  -3   2  11   78.46   14.86
  -3  -2  11   92.19   15.23
   3   2 -11  104.07   14.03
  -3   2  10    6.80   10.98
   3   2 -10   -1.78    7.27
  -3  -2  10   13.51    9.16
   3   2  -9  871.83   31.16
  -3  -2   9  833.40   40.34
   3   2  -9  903.43   29.61
  -3   2   9  932.69   32.15
   3   2  -9  819.35   34.79
  -3   2   9  808.70   40.09
   3   2  -8  103.17   10.43
  -3   2   8  107.48   14.98
   3   2  -8  103.60    9.11
  -3   2   8  106.25   10.97
  -3  -2   8  115.39   14.91
   3   2  -8   93.90   11.29
  -3  -2   7  657.59   32.33
   3   2  -7  714.06   24.58
  -3   2   7  682.56   33.14
  -3   2   7  750.68   28.54
   3   2  -7  680.53   26.93
   3   2  -7  676.96   27.06
  -3  -2   6  376.59   23.07
  -3   2   6  397.02   20.73
   3   2  -6  376.83   17.75
  -3   2   6  355.71   22.26
   3   2  -6  381.74   19.94
  -3  -2   5  611.75   28.29
  -3   2   5  583.91   25.15
  -3   2   5  595.67   27.29
   3   2  -5  604.00   20.94
   3   2  -5  575.99   25.02
  -3   2   4    8.50    6.70
  -3  -2   4   -0.75    5.88
   3   2  -4    1.70    5.93
   3   2  -4    7.90    3.90
  -3   2   4    3.68    5.94
  -3  -2   3 2543.85   66.12
  -3   2   3 2678.29   65.88
  -3   2   3 2720.53   63.95
   3   2  -3 2663.52   65.79
  -3  -2   2   57.50    8.70
  -3   2   2   77.47    6.05
  -3   2   2   88.93   10.44
   3   2  -2   53.46    8.66
  -3   2   2   74.27    8.25
  -3   2   1   39.89    5.63
   3   2  -1   52.87    8.88
  -3   2   1   64.23    6.42
  -3  -2   1   37.39    8.04
  -3   2   1   45.41    6.97
  -3   2   0   17.74    6.36
  -3   2   0   21.70    3.82
   3   2   0   14.84    7.01
  -3   2   0   19.17    5.22
  -3  -2   0   14.98    6.84
  -3  -2  -1 1815.85   45.97
  -3   2  -1 1766.26   48.61
  -3   2  -1 1618.27   33.97
   3   2   1 1820.88   48.92
  -3   2  -1 1806.05   45.12
  -3  -2  -2   11.15    6.06
   3   2   2    5.90    5.46
  -3   2  -2    5.14    5.42
  -3   2  -2    9.65    5.61
  -3   2  -3 2592.78   63.95
  -3   2  -3 2526.37   62.10
  -3   2  -3 2540.72   63.80
   3   2   3 2474.01   66.09
  -3  -2  -3 2460.70   64.38
   3   2   3 2527.25   63.23
  -3  -2  -4  966.77   35.06
   3   2   4  899.93   36.14
  -3   2  -4  950.66   34.53
  -3   2  -4  925.83   33.44
  -3   2  -4  887.61   32.31
   3   2   4  915.41   32.78
  -3  -2  -5  464.62   25.08
   3   2   5  464.91   26.17
  -3   2  -5  448.14   24.37
  -3   2  -5  451.89   22.46
  -3   2  -5  506.71   25.20
   3   2   5  499.44   22.59
   3   2   6  373.38   19.45
   3  -2   6  348.42   11.22
  -3   2  -6  362.32   23.19
   3   2   6  362.85   25.00
  -3  -2  -6  444.01   25.10
  -3   2  -6  356.14   22.00
  -3   2  -6  354.64   19.47
   3   2   6  390.08   21.57
   3   2   7 1501.59   43.79
   3   2   7 1494.48   48.42
   3   2   7 1442.78   53.46
   3  -2   7 1467.78   48.44
  -3   2  -7 1413.74   51.14
   3  -2   7 1538.84   35.18
  -3  -2  -7 1501.74   52.20
  -3   2  -7 1444.00   43.71
  -3   2  -7 1424.31   50.77
  -3  -2  -8   20.93    9.51
  -3   2  -8   28.44    9.10
   3   2   8   32.64   11.11
  -3   2  -8   12.49    7.79
   3  -2   8   29.18    7.22
   3   2   8   18.83    6.59
   3   2   8   31.05    8.71
  -3   2  -8   31.38    6.43
  -3   2  -8   28.59    8.74
   3   2   9  819.45   35.96
   3  -2   9  777.81   36.02
  -3   2  -9  739.30   38.62
   3   2   9  779.67   41.16
  -3   2  -9  753.77   38.59
  -3   2  -9  750.20   28.73
  -3   2  -9  737.98   37.33
  -3  -2  -9  795.82   39.39
  -3   2 -10   24.68   11.36
   3  -2  10    5.93    6.44
   3   2  10   13.89    9.20
  -3  -2 -10   37.09   12.77
  -3   2 -10    0.20    8.50
  -3   2 -11  440.67   30.52
  -3  -2 -11  402.45   30.63
  -3   2 -11  397.44   30.60
   3   2  11  428.07   28.08
   3  -2  11  436.02   28.83
  -3  -2 -12   39.99   13.68
  -3   2 -12   73.41   16.13
   3   2  12  108.62   16.53
  -3   2 -12   72.77   15.45
  -3   2 -13  442.40   32.69
  -3  -2 -13  462.23   34.78
  -3   2 -13  416.28   34.32
  -3  -2 -14   62.76   17.22
  -3   2 -14  126.30   20.47
  -3   2 -14  120.30   21.50
  -3  -2 -15  134.35   22.41
  -3   2 -15  155.61   22.35
  -3   2 -15  110.91   21.42
  -3  -2 -16   89.92   19.69
  -3   2 -16   56.27   17.86
  -3   2 -16  103.67   20.25
  -3  -2 -17   39.71   14.37
  -3   2 -17   37.75   15.94
  -3   2 -17   31.35   16.24
   3  -3 -18   39.66   15.69
   3  -3 -17   13.46   11.86
  -3  -3  17   44.58   17.40
  -3   3  17    8.92   12.33
  -3  -3  16   51.46   15.57
  -3   3  16   41.17   15.46
   3   3 -16   34.53   14.83
  -3  -3  15   -3.92   10.55
  -3   3  15   -2.21   10.79
   3   3 -15   -2.89   10.66
  -3  -3  14  226.21   25.75
  -3   3  14  224.41   26.50
   3   3 -14  237.72   24.31
  -3   3  13    7.74   11.36
  -3  -3  13    2.14    9.43
   3   3 -13   13.05   10.55
  -3  -3  12 1610.73   64.86
   3   3 -12 1588.98   59.10
  -3   3  12 1561.35   65.49
  -3  -3  11   23.48   11.16
  -3   3  11   45.00   13.13
   3   3 -11   60.27   12.70
  -3  -3  10 1559.03   59.80
   3   3 -10 1678.15   48.72
   3   3 -10 1576.59   54.13
  -3   3  10 1488.40   59.85
  -3   3   9   16.81   11.16
   3   3  -9   41.05   10.27
   3   3  -9   16.10    6.05
  -3  -3   9   27.20   10.98
   3   3  -9   32.28    6.95
  -3   3   9   30.22    7.90
   3   3  -8 1248.19   41.73
  -3  -3   8 1294.09   50.65
   3   3  -8 1396.38   41.48
  -3   3   8 1381.92   43.46
   3   3  -8 1276.14   43.26
  -3   3   8 1346.43   51.86
  -3  -3   7   88.05   13.17
   3   3  -7   89.56   10.92
  -3   3   7   87.84   10.84
   3   3  -7   94.89   10.59
  -3   3   7   76.22   13.12
   3   3  -6 1149.01   38.99
  -3  -3   6 1126.86   43.49
  -3   3   6 1210.74   39.78
   3   3  -6 1157.34   36.12
  -3   3   6 1151.30   43.32
   3   3  -5  213.89   15.51
  -3   3   5  118.77    5.26
  -3  -3   5  233.01   18.70
  -3   3   5  228.94   16.47
  -3   3   5  197.88   16.58
   3   3  -4  100.16   11.59
  -3   3   4   97.67   11.58
  -3   3   4   89.33    5.38
  -3  -3   4  104.76   12.22
  -3   3   4   97.88   11.62
  -3  -3   3   34.53    8.70
  -3   3   3   44.48    4.93
   3   3  -3   33.35    7.46
  -3   3   3   33.49    7.63
  -3   3   3   26.33    7.77
  -3   3   2    0.98    3.69
   3   3  -2    4.92    5.69
  -3   3   2    9.69    6.17
  -3  -3   2    4.62    6.01
  -3   3   2    1.68    4.65
  -3  -3   1    9.69    6.75
  -3   3   1    6.54    4.27
   3   3  -1    1.02    5.90
  -3   3   1    7.75    6.49
  -3   3   1   -1.23    3.89
  -3   3   0   36.12    6.42
   3   3   0   22.60    6.87
  -3   3   0   21.33    7.12
  -3   3   0   20.34    4.17
  -3  -3  -1   92.21    9.05
  -3   3  -1   83.03    9.30
   3   3   1  102.28   11.70
  -3   3  -1   83.47   10.69
   3   3   1   80.65   10.48
  -3   3  -1   92.15    5.70
  -3  -3  -2    9.66    6.63
  -3   3  -2    8.08    5.66
   3   3   2    5.73    5.97
  -3   3  -2   11.16    6.20
   3   3   2   -0.36    6.52
  -3  -3  -3   31.23    8.13
   3   3   3    7.67    6.49
  -3   3  -3   20.53    6.96
   3   3   3   23.69    7.50
  -3   3  -3   15.01    6.79
  -3  -3  -4  261.56   18.03
  -3   3  -4  247.14   17.15
   3   3   4  251.40   18.74
  -3   3  -4  243.78   17.15
  -3   3  -4  228.35   16.43
   3   3   4  223.32   16.23
  -3   3  -5   15.33    6.94
   3   3   5    3.48    7.41
   3   3   5   20.04    7.81
  -3  -3  -5   21.40    7.29
  -3   3  -5   23.43    8.11
  -3   3  -5   20.90    7.07
  -3  -3  -6 1249.75   45.91
  -3   3  -6 1239.73   45.18
   3   3   6 1227.05   40.84
   3   3   6 1228.31   48.15
  -3   3  -6 1200.46   44.75
  -3   3  -6 1267.99   41.00
  -3   3  -7   20.67    6.61
  -3   3  -7   20.70    8.33
   3   3   7   16.28   10.40
   3   3   7   11.17    8.16
   3   3   7   21.21    7.54
  -3  -3  -7   27.56    9.11
  -3   3  -7   15.23    7.98
  -3  -3  -8  677.05   36.23
  -3   3  -8  728.81   36.05
   3  -3   8  783.75   33.42
  -3   3  -8  730.14   29.75
   3   3   8  712.38   29.58
   3   3   8  679.50   38.16
  -3   3  -8  721.07   36.74
   3   3   8  716.74   35.11
  -3  -3  -9   70.03   13.97
  -3   3  -9   66.27    9.08
  -3   3  -9   73.78   13.34
   3   3   9   59.44   13.19
   3   3   9   75.07   13.19
   3  -3   9   87.17   11.90
  -3   3  -9   90.92   14.78
  -3  -3 -10 1167.76   52.04
   3   3  10 1130.91   48.36
  -3   3 -10 1155.04   51.03
   3  -3  10 1275.30   47.38
  -3   3 -10 1124.01   51.23
   3  -3  11   34.15    9.24
  -3   3 -11   39.37   11.30
  -3  -3 -11   67.10   14.74
   3   3  11   33.97   10.90
  -3   3 -11   83.54   15.66
  -3   3 -12  363.02   30.80
  -3  -3 -12  409.34   32.22
   3   3  12  388.17   29.16
  -3   3 -12  385.97   32.42
  -3  -3 -13   -0.85   10.67
   3   3  13   15.24   12.07
  -3   3 -13  -10.38   11.41
  -3  -3 -14   18.66   13.46
  -3   3 -14    0.10   10.53
  -3  -3 -15    0.17   11.13
  -3   3 -15   -1.26   11.12
  -3  -3 -16  117.48   22.98
  -3   3 -16  137.52   24.16
   3  -4 -17   51.64   17.47
  -3   4  17   79.41   19.02
  -3  -4  17   77.34   19.66
  -3   4  16   46.22   17.37
  -3  -4  16   55.18   15.37
   3   4 -16   39.82   15.28
   3   4 -15  183.75   23.14
  -3  -4  15  195.24   25.31
  -3   4  15  177.08   25.11
  -3   4  14   49.28   16.01
  -3  -4  14    8.18   12.41
   3   4 -14   45.75   13.65
  -3  -4  13  414.14   33.45
  -3   4  13  445.05   36.45
   3   4 -13  411.54   30.59
  -3   4  12   28.78   12.26
   3   4 -12   31.46   10.79
  -3  -4  12   30.37   13.93
  -3  -4  11  690.66   39.79
   3   4 -11  708.14   36.29
  -3   4  11  630.93   39.82
  -3   4  10   41.81   12.69
   3   4 -10   50.46    9.23
  -3  -4  10   69.18   14.90
   3   4 -10   45.41   11.46
   3   4  -9 1063.68   39.70
  -3   4   9 1074.61   48.69
   3   4  -9 1103.18   39.82
  -3  -4   9 1036.31   47.09
  -3   4   9 1135.32   39.92
   3   4  -9 1033.84   41.30
   3   4  -8  121.08   13.42
  -3   4   8  145.62   17.98
  -3  -4   8  119.61   16.48
  -3   4   8  112.92   12.72
   3   4  -8   94.82   12.78
   3   4  -7  762.41   32.58
  -3  -4   7  701.94   36.05
  -3   4   7  837.19   33.55
  -3   4   7  750.33   36.57
  -3  -4   6  278.74   21.61
   3   4  -6  288.37   19.64
  -3   4   6  345.23   20.94
  -3   4   6  269.92   20.41
  -3  -4   5  319.82   22.35
  -3   4   5  340.57   21.20
   3   4  -5  341.46   21.18
  -3   4   5  355.22   22.49
  -3   4   4 1252.80   31.27
  -3  -4   4 1183.15   43.83
   3   4  -4 1176.60   42.07
  -3   4   4 1216.55   42.49
  -3   4   4 1201.17   41.94
   3   4  -3  379.89   22.29
  -3   4   3  405.12   16.15
  -3  -4   3  411.89   24.00
  -3   4   3  403.27   22.80
  -3   4   3  386.12   21.28
   3   4  -2  403.90   22.85
  -3   4   2  431.86   17.43
  -3   4   2  414.11   20.40
  -3  -4   2  356.58   22.03
  -3   4   2  421.87   23.19
  -3   4   1   41.79    6.44
   3   4  -1   49.30    9.97
  -3   4   1   51.51    6.87
  -3   4   1   56.64    9.49
   3   4  -1   50.36    7.77
  -3  -4   0   30.97    5.26
  -3   4   0   43.71    7.45
   3   4   0   32.53    9.06
   3   4   0   30.58    7.90
  -3   4   0   27.32    5.04
  -3   4   0   47.20    9.03
  -3   4  -1  534.48   17.78
  -3  -4  -1  502.24   20.95
  -3   4  -1  536.74   23.51
   3   4   1  453.02   23.72
   3   4   1  512.04   25.80
  -3   4  -1  518.43   25.54
  -3   4  -2  158.32   13.59
   3   4   2  153.44   14.26
  -3  -4  -2  170.81   13.85
  -3   4  -2  155.61    7.86
   3   4   2  123.64   13.84
  -3   4  -2  127.37   12.92
   3   4   3 1002.37   37.76
  -3   4  -3  952.67   36.06
  -3   4  -3  978.95   36.91
  -3  -4  -3 1040.43   35.96
  -3   4  -3  989.75   23.08
   3   4   3  952.21   38.40
  -3  -4  -4   81.59   11.35
   3   4   4   88.37   12.04
  -3   4  -4   69.62   10.84
   3   4   4   67.04   10.73
  -3   4  -4   65.14   10.39
  -3  -4  -5  635.15   31.19
   3   4   5  641.78   29.89
  -3   4  -5  685.36   31.65
   3   4   5  635.41   33.43
  -3   4  -5  675.31   29.72
  -3  -4  -6   95.32   13.17
  -3   4  -6   99.60   13.28
   3   4   6   69.71   11.03
  -3   4  -6   75.27   10.89
   3   4   6  101.41   14.97
  -3   4  -6   84.50   12.45
  -3  -4  -7  937.71   41.10
   3   4   7  874.84   35.73
  -3   4  -7  934.70   36.03
  -3   4  -7  890.54   40.33
  -3   4  -7  894.29   40.65
   3   4   7  832.82   42.19
  -3  -4  -8  207.83   20.60
   3   4   8  206.39   17.14
   3  -4   8  278.78   18.72
  -3   4  -8  226.01   20.34
  -3   4  -8  244.71   17.47
   3   4   8  241.88   21.88
  -3   4  -8  199.61   20.02
   3   4   9  649.55   30.26
  -3  -4  -9  594.69   35.68
   3  -4   9  691.14   31.44
  -3   4  -9  573.38   34.53
   3   4   9  567.66   34.76
  -3   4  -9  622.70   28.36
  -3   4  -9  601.91   36.13
  -3  -4 -10    9.53   10.62
  -3   4 -10    4.94    8.39
   3   4  10    6.96    9.87
  -3   4 -10    2.17    9.71
  -3  -4 -11  648.85   40.16
   3   4  11  616.38   38.55
  -3   4 -11  662.17   39.66
  -3   4 -11  638.60   39.89
  -3  -4 -12   15.92   11.94
  -3   4 -12   55.02   14.82
   3   4  12   55.81   14.63
  -3   4 -12   71.98   17.02
  -3  -4 -13  431.67   35.27
  -3   4 -13  542.96   39.47
   3   4  13  466.68   35.28
  -3   4 -13  449.80   36.42
  -3  -4 -14  129.95   22.09
  -3   4 -14  116.90   21.18
  -3   4 -14  120.07   21.52
  -3  -4 -15  167.58   24.88
  -3   4 -15  245.92   31.00
  -3  -4 -16   41.89   17.61
  -3   4 -16  105.23   21.69
  -3  -5  17   65.95   19.02
  -3   5  16  247.44   30.66
  -3  -5  16  288.51   31.44
  -3   5  15  133.80   24.84
  -3  -5  15  169.91   24.21
   3   5 -15  144.52   21.95
  -3  -5  14   80.15   17.22
  -3   5  14   99.59   20.00
   3   5 -14   80.88   16.05
  -3  -5  13  340.09   30.80
  -3   5  13  293.93   30.91
   3   5 -13  281.43   26.60
  -3  -5  12  520.36   36.73
   3   5 -12  518.28   33.87
  -3   5  12  433.87   35.64
   3   5 -11   40.21   10.60
  -3  -5  11   44.65   13.33
   3   5 -11   16.98    9.88
  -3   5  11    0.46    9.72
  -3  -5  10   48.18   13.89
  -3   5  10   57.42   15.34
   3   5 -10   46.37   11.62
   3   5 -10   58.51   10.78
   3   5  -9  150.66   15.79
  -3  -5   9  149.64   18.65
   3   5  -9  166.16   15.84
  -3   5   9  149.15   15.29
  -3   5   9  122.78   18.92
  -3   5   8   26.12   10.44
   3   5  -8   26.88    9.84
  -3   5   8   43.40   10.25
  -3  -5   8   23.00   11.09
   3   5  -7   21.73    9.45
  -3   5   7   10.74    6.75
  -3   5   7    6.14    8.08
  -3  -5   7   11.80    8.40
   3   5  -6  559.35   29.26
  -3  -5   6  552.93   31.90
  -3   5   6  544.21   28.51
  -3   5   6  532.54   30.34
  -3   5   5  160.42   15.75
   3   5  -5  135.85   15.03
  -3  -5   5  135.35   16.28
  -3   5   5   97.08   13.84
   3   5  -4  851.78   36.64
   3   5  -4  901.81   28.07
  -3  -5   4  856.41   39.02
  -3   5   4  948.58   38.30
  -3   5   4  814.27   35.47
  -3  -5   3  140.57   15.91
   3   5  -3  121.12   10.34
  -3   5   3  156.47   14.37
   3   5  -3  126.74   14.34
  -3   5   3  160.51   15.71
   3   5  -2 1249.50   45.51
   3   5  -2 1266.12   38.91
  -3   5   2 1283.44   38.15
  -3   5   2 1329.54   46.43
  -3   5   2 1230.93   40.99
  -3   5   1   10.31    6.33
   3   5  -1   10.61    7.52
  -3   5   1    8.40    5.47
  -3   5   1   18.16    7.78
   3   5  -1    5.70    5.46
   3   5   0 2695.48   75.51
  -3   5   0 2879.71   69.81
  -3   5   0 2886.10   66.44
  -3   5   0 2804.96   76.32
   3   5   0 2734.47   70.61
  -3  -5   0 2717.53   62.50
  -3  -5  -1  189.02   12.73
   3   5   1  174.59   16.63
  -3   5  -1  166.19   14.33
   3   5   1  159.45   15.90
  -3   5  -1  182.79   16.38
  -3   5  -1  173.29   11.38
  -3  -5  -2  863.07   31.97
   3   5   2  866.11   36.72
  -3   5  -2  872.59   34.25
  -3   5  -2  869.53   36.66
   3   5   2  830.34   35.53
  -3  -5  -3  414.98   23.15
   3   5   3  409.51   24.80
  -3   5  -3  470.96   25.56
  -3   5  -3  468.87   25.84
   3   5   3  381.50   25.09
  -3  -5  -4  535.66   27.62
   3   5   4  524.62   28.58
  -3   5  -4  548.87   28.82
  -3   5  -4  557.19   28.40
   3   5   4  573.61   31.57
  -3  -5  -5  271.66   21.19
   3   5   5  258.33   19.78
  -3   5  -5  316.33   22.25
   3   5   5  260.51   22.63
  -3   5  -5  278.97   20.23
  -3  -5  -6  114.86   15.41
  -3   5  -6  156.12   16.83
   3   5   6  114.23   14.10
  -3   5  -6  156.60   15.48
   3   5   6  110.44   15.95
  -3  -5  -7  444.63   28.79
   3   5   7  438.50   26.74
  -3   5  -7  459.96   29.19
  -3   5  -7  474.95   26.18
  -3  -5  -8   12.87    9.31
  -3   5  -8   13.08    8.67
   3   5   8   24.77   11.64
   3   5   8   14.70    8.02
  -3   5  -8    0.62    5.77
   3  -5   8   20.51    7.64
  -3   5  -8   15.02   10.04
  -3  -5  -9   22.33   10.38
  -3   5  -9   24.44    9.05
   3   5   9   33.27   13.31
   3   5   9   16.95    8.09
  -3   5  -9   17.75    7.44
  -3   5  -9    9.67    8.95
  -3  -5 -10  253.01   25.09
  -3   5 -10  288.18   25.82
   3   5  10  298.54   27.07
  -3   5 -10  305.29   27.20
  -3  -5 -11  171.69   22.05
  -3   5 -11  231.54   24.89
   3   5  11  208.81   23.73
  -3   5 -11  174.07   22.16
  -3   5 -12   92.89   17.28
   3   5  12   73.81   15.99
  -3  -5 -12  104.82   18.86
  -3   5 -12   98.67   17.73
  -3  -5 -13   18.47   11.71
  -3   5 -13   32.94   12.17
   3   5  13   23.94   13.63
  -3   5 -13   51.18   16.46
  -3  -5 -14   10.04   11.53
   3   5  14   31.68   15.30
  -3   5 -14   23.01   13.66
  -3   5 -14   13.88   13.65
  -3  -5 -15    7.50   11.03
  -3   5 -15   50.61   15.74
  -3   5 -15   56.66   18.59
  -3  -6  16    3.19   11.65
  -3   6  15   75.61   19.73
  -3  -6  15   96.22   19.59
  -3   6  14   11.32   13.57
  -3  -6  14   17.83   11.37
  -3   6  13   64.85   18.27
  -3  -6  13   56.54   15.24
  -3  -6  12    3.92   10.70
  -3   6  12   -7.59   12.38
   3   6 -11   63.34   13.14
  -3   6  11   28.88   12.02
  -3  -6  11   71.66   16.57
  -3  -6  10   46.24   14.46
  -3   6  10   67.25   15.88
   3   6 -10   54.40   11.34
  -3  -6   9   14.94   10.80
   3   6  -9    5.50    7.22
  -3   6   9   -5.91    9.50
  -3   6   9    1.63    6.99
  -3  -6   8    0.27    9.47
   3   6  -8   11.83    8.13
  -3   6   8   -8.53    8.21
  -3   6   8    1.44    9.35
   3   6  -7    6.99    7.95
  -3  -6   7    2.36    8.45
  -3   6   7   28.01    9.92
  -3   6   7   -1.57    8.42
  -3  -6   6   79.89   14.39
   3   6  -6   71.86   12.55
  -3   6   6   73.45   13.18
  -3   6   6   59.45   11.65
   3   6  -5  955.56   41.96
  -3   6   5  953.38   42.76
  -3  -6   5 1029.66   45.35
  -3   6   5  948.31   41.34
   3   6  -4  283.89   22.09
  -3   6   4  283.41   22.21
  -3  -6   4  299.24   24.27
  -3   6   4  307.13   22.66
   3   6  -4  308.38   15.41
   3   6  -3 1606.09   56.51
  -3   6   3 1539.26   53.16
  -3   6   3 1623.78   56.47
   3   6  -3 1595.51   44.27
   3   6  -2  158.60   16.85
  -3   6   2  131.71   14.31
  -3   6   2  153.73   16.78
   3   6  -2  136.96   11.85
   3   6  -1  987.45   43.08
  -3   6   1 1068.04   43.78
  -3   6   1 1014.19   36.97
  -3  -6   1 1036.05   28.37
   3   6  -1 1003.24   36.56
  -3   6   1 1040.73   37.52
  -3  -6   0   31.16    6.41
  -3   6   0   -2.47    6.44
  -3   6   0   20.06    6.22
   3   6   0   15.13    8.34
  -3   6   0   22.66    8.56
   3   6   0   21.65    7.21
  -3  -6  -1 2558.38   61.58
   3   6   1 2333.97   72.57
  -3   6  -1 2418.46   67.56
  -3   6  -1 2448.65   73.30
  -3   6  -1 2520.04   62.91
   3   6   1 2377.68   69.47
  -3   6  -2    5.66    6.75
   3   6   2   31.56   10.44
  -3   6  -2   23.03    9.28
  -3  -6  -2    7.87    5.69
   3   6   2    7.62    8.45
  -3  -6  -3 2305.45   63.51
   3   6   3 2185.80   69.40
  -3   6  -3 2286.55   67.32
  -3   6  -3 2322.10   69.49
   3   6   3 2179.92   69.37
  -3  -6  -4   27.10    9.59
  -3   6  -4   15.90    8.85
   3   6   4    1.86    7.76
  -3   6  -4   14.83    7.94
  -3  -6  -5  175.76   17.76
  -3   6  -5  185.47   18.37
  -3   6  -5  195.19   18.61
   3   6   5  177.06   18.37
  -3  -6  -6  391.97   26.57
  -3   6  -6  406.42   27.52
  -3   6  -6  408.13   26.10
   3   6   6  370.91   26.63
  -3  -6  -7   10.67    8.70
  -3   6  -7   11.43    8.06
   3   6   7   21.10    9.03
  -3   6  -7   -3.60    7.03
  -3  -6  -8   22.21    9.51
  -3   6  -8   11.15    7.63
   3   6   8   30.88   10.63
   3   6   8   24.27   12.38
  -3   6  -8   27.72    9.66
  -3  -6  -9   57.24   12.46
  -3   6  -9   53.54   12.58
   3   6   9   64.04   15.53
   3   6   9   77.98   12.87
  -3   6  -9   84.41   12.31
  -3  -6 -10   -9.54   11.05
  -3   6 -10   12.69   10.72
   3   6  10  -29.80   13.04
  -3  -6 -11    8.43    9.30
  -3   6 -11   13.60   11.64
   3   6  11   13.56   13.24
  -3  -6 -12   25.89   12.54
  -3   6 -12   19.70   12.62
   3   6  12   26.73   13.26
  -3   6 -12    2.72   12.66
  -3  -6 -13   18.87   12.64
  -3   6 -13    8.73   10.06
   3   6  13    0.15   11.47
  -3   6 -13   18.59   14.95
  -3  -6 -14   34.45   14.60
  -3   6 -14   12.18   11.19
   3   6  14   14.37   12.28
  -3   6 -14   29.62   15.51
  -3  -6 -15  185.04   26.15
  -3   6 -15  153.47   25.54
  -3   6 -15  211.00   28.18
   3   6  15  192.10   27.98
  -3   7  15   51.48   17.64
  -3  -7  15   38.65   13.84
  -3   7  14   43.50   17.48
  -3  -7  14   33.18   15.37
  -3  -7  13  127.33   20.31
  -3   7  13  116.70   23.45
   3   7 -12  209.72   22.10
  -3  -7  12  177.96   23.72
  -3   7  12  176.25   25.73
  -3   7  11   33.50   16.81
   3   7 -11   21.77    9.90
  -3  -7  11   22.59   13.19
   3   7 -10  181.39   20.11
  -3  -7  10  156.51   20.72
  -3   7  10  134.40   21.01
  -3   7   9    8.28   12.24
   3   7  -9   15.51    9.72
  -3   7   9  -12.35    9.46
  -3  -7   9    5.78    9.92
  -3  -7   8   82.31   16.04
   3   7  -8  109.29   16.02
  -3   7   8  108.39   16.02
  -3   7   8   88.96   17.38
   3   7  -7  275.60   23.30
  -3  -7   7  235.84   23.88
  -3   7   7  254.53   24.89
  -3   7   7  249.19   21.90
   3   7  -6  762.98   39.62
  -3  -7   6  793.32   42.11
  -3   7   6  806.89   39.82
  -3   7   6  769.64   40.81
   3   7  -5  517.77   32.39
  -3  -7   5  495.52   32.68
  -3   7   5  522.94   32.00
  -3   7   5  496.56   32.17
   3   7  -4  469.88   30.38
  -3   7   4  490.02   30.88
  -3   7   4  445.60   29.34
   3   7  -3 1393.59   55.36
  -3   7   3 1526.95   56.63
  -3   7   3 1381.39   52.28
   3   7  -2  291.41   24.45
  -3   7   2  277.03   21.19
  -3   7   2  283.19   24.23
  -3   7   1  168.48   15.59
   3   7  -1  157.17   18.72
  -3   7   1  161.79   18.39
  -3   7   1  168.04   16.31
   3   7   0  668.38   37.10
  -3   7   0  709.87   32.54
  -3   7   0  713.45   37.11
  -3   7   0  734.95   32.15
  -3  -7  -1  593.74   25.39
   3   7   1  599.74   34.94
  -3   7  -1  593.15   30.27
  -3   7  -1  616.06   34.47
  -3   7  -2  407.24   25.53
  -3   7  -2  430.91   28.71
  -3  -7  -2  439.19   22.87
   3   7   2  409.43   28.79
  -3  -7  -3   90.21   11.58
  -3   7  -3   92.30   13.04
   3   7   3   78.00   14.90
  -3   7  -3   84.01   13.53
  -3  -7  -4  597.95   30.98
   3   7   4  596.91   35.39
  -3   7  -4  607.65   34.18
  -3   7  -4  625.71   33.82
  -3  -7  -5  102.86   14.59
  -3   7  -5   87.48   14.78
   3   7   5   89.69   15.41
  -3   7  -5  115.61   14.93
   3   7   6  216.19   22.05
  -3   7  -6  219.07   21.83
  -3   7  -6  195.40   19.11
  -3  -7  -6  197.98   19.98
  -3  -7  -7   86.33   14.55
  -3   7  -7   98.17   15.23
   3   7   7  115.10   16.78
  -3   7  -7  119.25   15.45
  -3  -7  -8   83.79   14.90
  -3   7  -8   72.84   15.13
   3   7   8   57.77   12.59
  -3   7  -8   38.48   10.51
  -3  -7  -9   12.26   11.10
  -3   7  -9    5.99   10.10
   3   7   9    6.02   10.49
   3   7   9   24.45   11.54
  -3   7  -9    6.34    7.78
  -3  -7 -10  183.74   23.07
  -3   7 -10  164.86   20.85
   3   7  10  212.92   25.56
  -3  -7 -11   16.26   11.69
  -3   7 -11   66.94   15.87
   3   7  11   21.04   11.14
  -3  -7 -12   66.79   16.67
  -3   7 -12   85.01   17.90
   3   7  12   46.77   17.05
  -3  -7 -13   62.86   17.13
  -3   7 -13   68.37   17.90
   3   7  13  114.15   22.48
  -3  -7 -14   49.62   17.03
  -3   7 -14   89.43   19.32
   3   7  14  111.43   23.04
   3   7  15   29.78   15.58
  -3  -8  14  218.27   28.14
  -3   8  14  207.15   30.16
  -3  -8  13  111.02   21.72
  -3   8  13  153.24   26.90
  -3  -8  12   27.18   13.54
   3   8 -12   44.75   15.47
  -3   8  12   49.73   17.40
  -3   8  11  122.62   20.98
   3   8 -11  156.73   20.23
  -3  -8  11  152.30   22.21
   3   8 -10   53.21   12.78
  -3   8  10   26.94   12.81
  -3  -8  10   38.59   13.13
   3   8  -9  570.31   36.72
  -3  -8   9  610.01   40.40
  -3   8   9  656.38   37.85
  -3   8   9  634.12   42.83
  -3  -8   8   42.34   13.06
   3   8  -8   41.63   13.41
  -3   8   8   36.46   13.58
  -3   8   8   20.36   11.02
   3   8  -7  386.81   30.20
  -3  -8   7  448.52   33.22
  -3   8   7  435.96   31.63
  -3   8   7  401.78   32.10
   3   8  -6    3.07    9.90
  -3   8   6   10.23   11.12
  -3   8   6    8.60   10.46
   3   8  -5  291.91   26.37
  -3   8   5  305.62   26.46
  -3   8   5  294.75   26.19
  -3   8   4   11.71   10.69
   3   8  -4   -4.97    9.83
  -3   8   4   10.15    8.91
   3   8  -3  528.79   35.10
  -3   8   3  532.21   34.11
  -3   8   3  510.92   32.49
  -3   8   2  193.53   19.54
   3   8  -2  136.66   18.03
  -3   8   2  120.29   17.61
  -3   8   1  221.24   23.47
   3   8  -1  216.69   22.95
  -3   8   1  231.72   19.93
  -3   8   0  167.46   17.36
  -3   8   0  214.01   22.64
   3   8   0  159.26   19.75
  -3   8   0  203.62   18.53
  -3   8  -1   40.89   11.74
   3   8   1   26.54   10.99
  -3   8  -1   52.96   13.64
  -3  -8  -2  287.55   18.85
  -3   8  -2  329.02   24.10
  -3   8  -2  289.14   25.52
   3   8   2  250.53   24.96
  -3  -8  -3  110.99   13.07
  -3   8  -3  115.93   15.80
   3   8   3  115.68   16.48
  -3   8  -3  131.15   18.03
  -3   8  -4   43.79   11.60
   3   8   4   40.31   13.21
  -3   8  -4   62.54   14.05
  -3  -8  -4   49.57   11.97
  -3  -8  -5  159.99   17.73
  -3   8  -5  155.38   18.64
   3   8   5  159.95   20.47
  -3   8  -5  140.66   17.92
   3   8   6  321.20   28.25
  -3   8  -6  391.20   29.23
  -3  -8  -6  293.46   24.76
  -3   8  -6  337.41   27.37
  -3  -8  -7  625.87   36.35
   3   8   7  687.72   40.42
  -3   8  -7  641.71   39.24
  -3   8  -7  653.50   37.79
  -3  -8  -8   20.96   10.88
  -3   8  -8   26.57   12.12
   3   8   8   17.27   11.78
  -3   8  -8   33.20    9.93
  -3  -8  -9  556.60   37.41
  -3   8  -9  593.86   39.72
  -3   8  -9  601.15   35.54
   3   8   9  615.89   44.37
  -3  -8 -10   64.14   15.16
  -3   8 -10   92.82   17.78
   3   8  10  149.05   23.81
  -3  -8 -11  144.25   20.92
  -3   8 -11  170.74   23.97
   3   8  11  134.08   23.34
  -3  -8 -12  115.19   21.92
  -3   8 -12  106.66   18.92
   3   8  12  132.41   23.06
  -3  -8 -13  270.94   31.09
  -3   8 -13  306.76   31.92
   3   8  13  299.14   33.80
   3   8  14   16.60   15.85
  -3  -9  13   10.20   12.43
  -3   9  13   20.69   15.16
  -3  -9  12   82.29   17.55
   3   9 -12   95.24   17.54
  -3   9  12   90.46   20.95
   3   9 -11   91.10   17.18
  -3  -9  11   43.94   15.29
  -3   9  11   32.12   15.05
   3   9 -10  471.55   35.24
  -3  -9  10  468.78   37.77
  -3   9  10  435.95   39.24
   3   9  -9    1.47   10.34
  -3   9   9   31.99   14.40
  -3   9   9   26.31   12.99
  -3  -9   9   18.11   11.85
   3   9  -8  715.70   43.54
  -3   9   8  703.85   46.67
  -3   9   8  769.70   44.11
   3   9  -7   42.79   13.66
  -3   9   7   40.88   13.93
  -3   9   7   30.40   12.30
   3   9  -6  659.91   41.51
  -3   9   6  699.70   42.43
  -3   9   6  641.85   42.13
  -3   9   5   23.01   12.11
   3   9  -5    2.53   10.03
  -3   9   5   38.24   12.88
  -3   9   4  109.89   17.17
   3   9  -4  117.24   18.92
  -3   9   4  114.58   18.27
  -3   9   3    2.00   10.73
   3   9  -3   27.62   12.62
  -3   9   3    3.87    9.39
  -3   9   2   55.73   14.65
   3   9  -2   11.94   12.07
  -3   9   2   39.87   13.04
  -3   9   1   10.66    9.97
   3   9  -1    6.87    9.83
  -3   9   1    3.06    9.35
  -3   9   0   26.86   10.14
   3   9   0   38.69   13.78
  -3   9   0   36.44   12.15
  -3   9   0   27.71    9.48
  -3   9  -1   16.84    9.67
   3   9   1    6.86   10.37
  -3   9  -1   10.65    8.91
  -3   9  -2    4.89    8.03
   3   9   2   22.25   12.28
  -3   9  -2    9.09    9.53
  -3   9  -3   14.20    7.71
   3   9   3   24.52   11.28
  -3   9  -3   40.34   12.89
   3   9   4  347.93   30.23
  -3   9  -4  425.22   31.02
  -3   9  -4  383.27   30.61
  -3  -9  -4  384.02   25.61
  -3  -9  -5    9.70    8.79
  -3   9  -5   11.62   10.28
   3   9   5  -11.02   11.65
  -3   9  -5   20.03   10.66
  -3  -9  -6  582.06   35.16
   3   9   6  589.18   38.96
  -3   9  -6  694.05   41.45
  -3   9  -6  616.36   38.89
  -3  -9  -7   10.26   10.61
  -3   9  -7    8.45    9.77
   3   9   7    1.77   10.47
  -3   9  -7   12.92   10.11
  -3  -9  -8  528.93   36.50
   3   9   8  648.11   41.88
  -3   9  -8  643.79   41.69
  -3   9  -8  642.91   39.53
  -3  -9  -9   31.13   11.73
  -3   9  -9   50.17   14.81
   3   9   9   50.80   16.21
  -3   9  -9   35.60   13.15
  -3  -9 -10  389.06   33.22
  -3   9 -10  456.36   37.09
   3   9  10  413.70   38.68
  -3  -9 -11   45.69   14.79
  -3   9 -11   45.61   16.16
   3   9  11   68.28   20.50
  -3  -9 -12  231.72   27.20
  -3   9 -12  222.21   27.96
   3   9  12  238.25   31.20
   3   9  13  -15.70   14.08
  -3  10  12    3.43   12.08
   3  10 -12   39.74   14.06
   3  10 -11  367.39   33.11
  -3  10  11  423.34   40.20
   3  10 -10   12.21   10.93
  -3  10  10   16.79   13.81
   3  10  -9  739.03   46.38
  -3  10   9  669.78   48.60
  -3  10   9  703.69   45.16
  -3  10   8   -5.29   11.04
   3  10  -8   27.86   14.67
  -3  10   8    4.19   11.19
   3  10  -7  288.30   29.32
  -3  10   7  377.63   33.00
  -3  10   7  317.52   31.88
  -3  10   6  139.77   22.83
   3  10  -6  130.68   20.36
  -3  10   6  116.02   18.61
  -3  10   5  178.33   23.55
   3  10  -5  175.53   23.71
  -3  10   5  175.06   23.95
   3  10  -4  291.21   29.28
  -3  10   4  267.05   28.73
  -3  10   4  247.25   27.15
  -3  10   3   99.17   18.78
   3  10  -3   75.21   16.41
  -3  10   3   99.44   20.54
  -3  10   2  115.96   19.07
   3  10  -2  103.31   19.06
  -3  10   2   87.13   17.27
  -3  10   1  -12.24   11.73
   3  10  -1    2.44   12.51
  -3  10   1   -0.38   10.28
  -3  10   0   42.24   13.48
   3  10   0   22.03   14.05
  -3  10   0   21.97   15.04
  -3  10  -1    9.26   10.33
   3  10   1   43.00   14.29
  -3  10  -1   -7.39   11.72
  -3  10  -2   38.29   12.34
   3  10   2   29.28   13.18
  -3  10  -2   35.79   12.66
  -3  10  -3  140.22   19.04
   3  10   3  133.92   21.33
  -3  10  -3  168.76   22.65
  -3  10  -4   87.94   16.15
   3  10   4   70.02   16.14
  -3  10  -4   96.48   16.17
  -3  10  -5  120.48   19.22
   3  10   5  107.89   20.34
  -3  10  -5  106.89   18.21
  -3  10  -6   36.35   13.75
   3  10   6   50.31   16.18
  -3  10  -6   21.56   10.94
  -3 -10  -7  465.15   33.16
   3  10   7  518.55   39.86
  -3  10  -7  441.97   35.94
  -3  10  -7  471.99   35.59
  -3 -10  -8   16.64   12.63
  -3  10  -8    6.91   10.46
   3  10   8   23.30   14.69
  -3  10  -8    2.91   10.58
  -3 -10  -9  404.44   33.42
  -3  10  -9  602.08   43.16
   3  10   9  580.60   46.75
  -3 -10 -10   51.80   15.03
  -3  10 -10   27.55   15.08
   3  10  10   39.33   17.29
  -3 -10 -11   22.13   13.17
  -3  10 -11   65.68   20.01
   3  10  11   25.00   16.23
   3  11 -11   65.90   17.17
   3  11 -10   75.76   17.65
  -3  11  10   65.43   18.88
   3  11  -9  -11.18   10.89
  -3  11   9   19.68   14.96
  -3  11   9   15.47   14.00
   3  11  -9   -6.39   11.27
  -3  11   8   36.46   16.54
  -3  11   8   34.47   13.90
   3  11  -8   47.21   15.93
  -3  11   7  155.45   24.37
   3  11  -7  135.48   22.43
  -3  11   7  151.89   24.57
  -3  11   6  226.94   29.41
   3  11  -6  183.25   25.54
  -3  11   6  242.79   29.44
  -3  11   5   77.88   18.26
   3  11  -5   10.13   12.29
  -3  11   5   39.45   17.48
  -3  11   4   47.66   16.31
   3  11  -4   48.44   17.33
  -3  11   4   53.83   17.59
  -3  11   3   38.50   14.62
   3  11  -3   35.74   15.84
  -3  11   3   38.68   13.94
   3  11  -2  302.25   31.02
  -3  11   2  367.55   33.87
  -3  11   2  322.66   30.66
   3  11  -1   76.07   20.69
  -3  11   1   72.41   16.53
   3  11   0  603.99   43.97
  -3  11   0  605.97   38.68
  -3  11   0  566.89   42.66
  -3  11  -1   38.26   11.58
   3  11   1   77.52   18.77
  -3  11  -1   47.07   14.69
  -3  11  -2  154.25   20.73
   3  11   2  194.08   25.70
  -3  11  -2  190.92   24.45
  -3  11  -3  183.61   23.11
   3  11   3  134.04   23.24
  -3  11  -3  142.77   21.76
  -3  11  -4  293.35   28.62
  -3  11  -4  293.96   30.40
   3  11   4  286.87   30.87
  -3  11  -5  300.93   29.85
   3  11   5  280.52   30.80
  -3  11  -5  309.67   31.55
  -3  11  -6  108.15   20.46
   3  11   6   90.25   19.15
  -3  11  -6   96.40   19.10
  -3  11  -7  209.99   26.04
  -3  11  -7  183.84   25.33
   3  11   7  157.16   24.37
  -3  11  -8   25.06   14.07
   3  11   8   41.53   15.81
  -3  11  -8   15.25   13.61
   3  11   8   -6.00   11.51
  -3  11  -9   23.60   15.55
   3  11   9   17.64   14.18
   3  12  -9   -7.38   11.97
  -3  12   9  -27.33   15.39
   3  12  -8   44.88   15.32
  -3  12   8   22.00   14.55
  -3  12   8    7.68   10.79
   3  12  -7   30.72   16.13
  -3  12   7   -9.67   11.89
  -3  12   7    8.27   12.84
   3  12  -7  -22.19   13.16
   3  12  -6   77.57   18.83
  -3  12   6   57.79   18.54
  -3  12   6   53.99   15.76
   3  12  -6   64.70   19.58
  -3  12   5   -6.37   11.77
  -3  12   5   35.28   15.24
   3  12  -5   19.74   16.54
  -3  12   4   52.95   17.69
  -3  12   4   92.06   20.55
   3  12  -4   64.21   18.51
  -3  12   3  488.26   41.34
   3  12  -3  465.02   40.76
  -3  12   2   97.16   21.14
   3  12  -2   90.76   19.87
   3  12  -1 1409.00   73.37
  -3  12   1 1519.99   66.65
  -3  12   1 1582.27   76.87
  -3  12   0   30.10   13.72
  -3  12   0   21.84   13.51
   3  12   0   14.87   12.99
   3  12   1  610.88   46.79
  -3  12  -1  576.80   39.87
  -3  12  -1  603.67   47.03
  -3  12  -2   33.97   14.19
  -3  12  -2   36.96   17.11
   3  12   2   29.35   14.85
  -3  12  -3   90.90   18.25
  -3  12  -3   95.43   21.56
   3  12   3   79.34   19.45
  -3  12  -4   11.51   10.15
  -3  12  -4   12.10   12.36
   3  12   4   37.18   13.78
  -3  12  -5   77.50   18.11
   3  12   5   58.88   16.83
  -3  12  -5   42.16   14.71
   3  12   5   31.16   13.97
  -3  12  -6    4.25   12.86
   3  12   6    8.00   11.30
  -3  12  -6    5.53   10.45
   3  12   6    5.65   12.66
  -3  12  -7   -4.70   11.29
   3  12   7    1.72   11.44
  -3  12  -7   13.67   13.76
  -3  12  -8   10.57   11.59
  -3  13   6  225.98   31.58
   3  13  -4   26.73   14.77
  -3  13   4   74.54   20.48
   3  13  -3   66.63   19.39
  -3  13   3   63.86   19.52
   3  13  -3   34.66   20.08
   3  13  -2  313.10   36.19
   3  13  -2  238.21   31.12
  -3  13   2  269.41   35.05
  -3  13   1   19.07   11.81
   3  13  -1   29.01   15.24
  -3  13   1   49.01   19.67
   3  13  -1   48.56   19.23
  -3  13   0  675.66   45.62
   3  13   0  698.20   52.03
  -3  13   0  754.73   53.74
   3  13   0  693.03   52.42
  -3  13  -1   58.56   16.48
   3  13   1   34.02   15.55
  -3  13  -1   80.93   18.84
   3  13   1   66.11   20.47
  -3  13  -2  296.60   31.31
   3  13   2  314.70   35.72
  -3  13  -2  290.89   34.62
   3  13   2  242.07   33.08
  -3  13  -3  210.38   26.73
   3  13   3  213.30   29.88
  -3  13  -3  238.09   30.31
  -3  13  -4  475.49   40.36
  -4   0  17   18.98   13.53
  -4   0  16   30.46   14.47
  -4   0  15    1.60   10.44
  -4   0  14   48.78   14.31
  -4   0  13    0.78   10.54
  -4   0  12  113.11   18.24
  -4   0  11    3.97    9.21
  -4   0  10 1015.44   48.13
   4   0 -10 1058.96   37.65
   4   0  -9    6.33    5.80
  -4   0   9   10.75    9.82
  -4   0   8 4119.51  106.18
   4   0  -8 4105.26   95.74
   4   0  -7    8.43    6.51
  -4   0   7   -3.92    7.57
  -4   0   6 1862.41   57.81
   4   0  -6 1834.29   54.39
   4   0  -5    6.07    6.49
  -4   0   5   -1.69    6.94
  -4   0   4 2155.53   59.45
   4   0  -4 2158.45   59.63
  -4   0   3   -2.16    6.02
   4   0  -3    9.12    6.32
  -4   0   2 3139.77   72.88
   4   0  -2 3181.73   77.74
   4   0  -1   -1.02    5.81
  -4   0   1    9.68    5.20
  -4   0   0  388.08   16.97
   4   0   0  368.85   20.95
   4   0   1    1.58    5.39
   4   0   2   43.72    8.39
  -4   0  -2   46.36    5.65
   4   0   3    6.06    5.76
  -4   0  -3   -1.34    4.30
  -4   0  -4  105.00   10.43
   4   0   4  133.93   12.58
   4   0   5   -1.99    4.89
   4   0   5    6.46    3.04
  -4   0  -5   -1.49    5.74
   4   0   6   69.23    9.29
  -4   0  -6   59.67   12.64
   4   0   6   72.00   11.94
  -4   0  -7   10.87    9.36
   4   0   7    1.19    4.87
   4   0   7    0.42    6.27
  -4   0  -8  387.60   27.47
   4   0   8  386.09   27.19
   4   0   8  389.15   21.12
  -4   0  -9   10.22    9.61
   4   0   9   -6.69    7.38
  -4   0 -10  318.51   27.20
   4   0  10  310.48   26.36
  -4   0 -11    1.62    9.69
   4   0  11   19.69   11.82
  -4   0 -12 1771.38   72.04
   4   0  12 1947.43   75.08
  -4   0 -13    7.78   11.01
  -4   0 -13    2.58    9.32
  -4   0 -14  709.59   46.90
  -4   0 -14  722.24   46.99
  -4   0 -15   13.48   13.08
  -4   0 -15    2.63   10.35
  -4   0 -16   13.44   14.97
  -4   0 -16   34.89   16.71
  -4   1  17  154.99   24.59
  -4  -1  17  177.40   26.79
  -4   1  16   24.87   13.18
  -4  -1  16   31.08   13.77
  -4   1  15   19.27   13.51
  -4  -1  15   29.86   14.99
  -4   1  14   91.57   17.72
  -4  -1  14  118.33   20.40
  -4   1  13  163.96   22.00
  -4  -1  13  169.19   22.46
  -4  -1  12   93.21   18.08
  -4   1  12   98.21   18.35
  -4   1  11    7.92   10.27
  -4  -1  11    8.52    9.85
  -4   1  10  210.48   22.02
  -4  -1  10  203.70   21.16
   4  -1 -10  252.66   17.16
   4   1 -10  213.56   16.03
  -4   1   9  213.00   20.97
  -4  -1   9  213.92   20.52
   4  -1  -9  196.66   15.93
   4   1  -9  230.63   17.14
  -4   1   8  357.42   25.63
  -4  -1   8  353.86   25.61
   4  -1  -8  363.18   21.08
   4   1  -8  371.49   21.04
  -4   1   7 1472.18   52.02
  -4  -1   7 1469.18   52.64
   4  -1  -7 1476.61   46.89
   4   1  -7 1486.16   47.03
  -4  -1   6   72.33   11.32
   4   1  -6   74.43   10.24
   4   1  -6   74.30    7.49
  -4   1   6   59.86   10.82
  -4   1   6   63.11   10.43
  -4   1   5  294.39   19.68
  -4  -1   5  291.30   20.77
  -4   1   5  305.05   19.84
   4   1  -5  322.68   12.41
   4   1  -5  305.27   19.18
  -4   1   4  728.27   28.80
  -4  -1   4  722.73   29.86
   4   1  -4  731.35   29.37
   4   1  -4  484.01   13.34
  -4   1   4  775.64   30.98
  -4   1   3 1824.55   49.68
  -4  -1   3 1691.81   50.97
  -4   1   3 1813.09   53.19
   4   1  -3 1710.44   51.30
  -4   1   2 2116.06   53.02
  -4  -1   2 2086.12   56.31
  -4   1   2 2105.04   59.08
   4   1  -2 2084.25   58.41
  -4   1   1  652.15   22.94
  -4  -1   1  652.73   25.68
   4   1  -1  623.49   28.07
  -4   1   1  681.17   29.80
  -4   1   0  899.92   25.77
  -4  -1   0  882.25   29.43
  -4   1   0  882.22   34.73
   4   1   0  806.71   32.72
  -4   1  -1  267.30   10.83
  -4   1  -1  232.95   17.38
  -4  -1  -1  235.87    9.79
   4   1   1  280.56   18.19
  -4   1  -2  160.86   15.20
   4   1   2  164.24   14.23
   4   1   3   22.34    7.55
  -4   1  -3   11.01    7.53
  -4   1  -3   18.69    5.47
   4   1   4    8.34    6.33
  -4   1  -4    2.64    4.96
  -4   1  -4   -2.35    5.78
  -4  -1  -5  246.28   20.31
   4   1   5  279.94   21.42
  -4   1  -5  240.45   17.71
  -4   1  -5  260.00   18.14
   4  -1   5  261.82   17.29
   4   1   5  258.73   17.81
   4   1   6  650.04   34.30
   4   1   6  680.09   29.17
  -4   1  -6  609.08   29.08
   4   1   6  650.96   25.84
  -4   1  -6  677.79   31.37
   4  -1   6  673.17   28.70
  -4  -1  -6  712.23   34.46
  -4  -1  -7  582.91   32.58
   4   1   7  573.12   24.73
   4   1   7  589.92   32.98
   4   1   7  569.99   26.60
   4  -1   7  564.86   31.48
  -4   1  -7  570.94   30.20
   4  -1   7  610.83   27.46
  -4  -1  -8  892.35   43.08
   4  -1   8  905.65   41.07
   4   1   8  912.95   43.48
  -4   1  -8  923.41   41.24
   4  -1   8  914.77   34.28
   4   1   8  904.46   34.52
  -4  -1  -9  784.32   40.83
  -4   1  -9  817.99   41.92
   4  -1   9  780.48   39.54
   4   1   9  762.17   41.14
  -4   1  -9  755.13   39.39
  -4  -1 -10   -3.95   10.02
  -4   1 -10   23.25   12.71
   4   1  10   12.96   10.18
   4  -1  10   26.24    9.54
  -4   1 -10    4.04    8.14
  -4  -1 -11  412.83   32.49
  -4   1 -11  423.33   32.01
   4  -1  11  408.05   30.73
   4   1  11  441.60   34.10
  -4   1 -11  426.35   31.88
  -4  -1 -12    9.81   10.99
  -4   1 -12   14.76   10.42
   4  -1  12   10.63    9.15
   4   1  12   13.68   12.11
  -4   1 -12    0.68   11.97
  -4  -1 -13  416.10   35.18
  -4   1 -13  412.95   34.01
   4  -1  13  426.53   33.85
  -4   1 -13  427.94   34.46
  -4  -1 -14   -9.91   10.52
  -4   1 -14   -8.99   12.81
  -4   1 -14   16.50   13.80
  -4  -1 -15  177.33   25.27
  -4   1 -15  202.36   26.40
  -4   1 -15  243.97   30.11
  -4  -1 -16   61.80   17.10
  -4   1 -16  119.50   22.98
  -4   1 -16   52.95   17.95
  -4  -2  17  121.80   24.12
  -4   2  17   93.79   21.49
  -4   2  16  334.54   34.26
  -4  -2  16  294.62   32.61
  -4  -2  15   52.07   16.60
  -4   2  15   38.32   14.58
  -4   2  14  281.87   29.49
  -4  -2  14  293.47   29.11
  -4  -2  13   26.55   10.80
  -4   2  13   75.84   17.24
  -4   2  12  372.47   31.65
  -4  -2  12  385.19   31.29
  -4  -2  11   81.20   15.77
  -4   2  11   65.88   14.06
   4   2 -10  308.62   19.72
  -4   2  10  273.78   24.74
  -4  -2  10  290.65   25.58
   4   2 -10  296.98   20.99
   4  -2 -10  282.47   19.23
   4   2  -9  160.71   14.63
  -4  -2   9  137.39   16.92
  -4   2   9  170.26   19.49
  -4   2   9  192.79   16.12
   4   2  -9  164.88   14.49
  -4   2   8  305.53   23.88
  -4  -2   8  311.01   24.13
  -4   2   8  339.97   21.36
   4   2  -8  330.26   18.45
   4   2  -8  320.61   20.45
  -4  -2   7   54.23   11.20
  -4   2   7   52.12    9.47
  -4   2   7   67.74   11.43
   4   2  -7   60.32   10.16
   4   2  -7   59.90    7.61
  -4   2   6  173.04   16.37
  -4  -2   6  208.21   18.78
  -4   2   6  188.59   16.19
   4   2  -6  212.86   11.93
   4   2  -6  196.25   16.07
   4   2  -5   30.15    8.07
  -4   2   5   30.53    8.53
  -4  -2   5   26.43    9.07
  -4   2   5   30.98    7.86
  -4   2   4  669.13   28.72
  -4  -2   4  695.05   31.37
  -4   2   4  723.39   31.55
   4   2  -4  716.39   30.69
  -4   2   3  458.52   21.64
  -4  -2   3  425.17   23.90
  -4   2   3  510.49   25.89
   4   2  -3  425.45   23.89
  -4   2   2  802.60   27.98
   4   2  -2  783.32   32.71
  -4  -2   2  789.89   31.96
  -4   2   2  884.76   34.88
  -4   2   1  418.48   17.33
  -4  -2   1  397.63   21.28
   4   2  -1  377.59   22.48
  -4   2   1  421.07   23.86
  -4   2   0 1539.13   35.96
  -4  -2   0 1458.09   44.16
  -4   2   0 1466.13   48.52
   4   2   0 1437.08   47.88
  -4   2  -1   54.65    4.22
   4   2   1   59.14    9.80
  -4   2  -1   70.79   10.85
  -4   2  -1   59.61    8.88
  -4   2  -2 3730.78   85.69
  -4   2  -2 3538.15   88.29
   4   2   2 3505.35   87.09
  -4  -2  -3   22.50    8.13
   4   2   3   17.49    7.42
  -4   2  -3   10.94    6.81
  -4   2  -3    2.34    6.43
  -4  -2  -4  727.67   33.27
  -4   2  -4  753.46   33.14
  -4   2  -4  706.34   31.56
   4   2   4  741.67   34.79
  -4   2  -4  732.49   30.31
   4   2   4  744.37   31.66
  -4  -2  -5   27.63    9.32
  -4   2  -5   29.53    8.69
   4   2   5   29.84    8.81
   4   2   5   24.60    8.03
  -4   2  -5   37.19    8.73
  -4   2  -5   32.83    7.86
  -4  -2  -6  839.76   38.56
   4   2   6  823.47   39.41
  -4   2  -6  736.59   36.32
  -4   2  -6  797.00   33.62
  -4   2  -6  821.20   35.41
   4   2   6  777.37   33.01
  -4  -2  -7  895.69   41.83
   4   2   7  864.74   42.08
  -4   2  -7  868.73   35.63
   4   2   7  946.30   36.43
  -4   2  -7  870.21   39.15
   4   2   7  873.54   35.60
   4   2   8  747.43   31.67
  -4  -2  -8  733.12   38.63
   4   2   8  636.70   37.51
   4   2   8  713.19   32.74
   4  -2   8  763.09   36.82
  -4   2  -8  754.63   32.84
  -4   2  -8  674.38   35.79
   4  -2   8  823.69   32.34
  -4   2  -9  455.79   30.09
  -4  -2  -9  428.77   30.70
   4  -2   9  450.92   28.81
   4   2   9  425.69   32.30
  -4  -2 -10   82.27   16.33
   4   2  10   73.71   15.29
   4  -2  10   94.16   13.91
  -4   2 -10   54.63   13.18
  -4  -2 -11   -0.61    9.54
   4   2  11    6.53   12.89
   4  -2  11   -1.87    7.22
  -4   2 -11   17.61   10.96
   4  -2  12  146.46   18.23
  -4  -2 -12  124.33   20.12
  -4   2 -12  148.17   20.74
  -4  -2 -13    2.92   11.80
  -4   2 -13   14.50   12.43
  -4  -2 -14   28.70   14.62
  -4   2 -14    8.11   12.36
  -4  -2 -15   91.96   19.66
  -4   2 -15   97.28   19.63
  -4  -2 -16    6.45   12.13
  -4   2 -16    6.39   12.88
  -4  -3  16   13.78   12.34
  -4   3  16   10.52   11.82
  -4   3  15  272.68   31.17
  -4  -3  15  265.52   29.01
  -4  -3  14    7.91   10.91
  -4   3  14   10.08   13.33
  -4   3  13  768.26   47.19
  -4  -3  13  769.61   47.11
  -4  -3  12   37.63   14.05
  -4   3  12   38.34   11.46
  -4   3  11  427.75   33.17
  -4  -3  11  391.92   31.17
  -4   3  10    4.06    8.90
  -4  -3  10   -5.31    8.91
   4   3 -10   -3.18    6.10
  -4   3   9   16.43    9.16
  -4  -3   9   23.50    9.98
   4   3  -9    9.21    7.56
  -4   3   9   15.01    8.33
  -4   3   8   11.18    8.62
   4   3  -8    6.91    6.29
  -4  -3   8   14.42    8.25
   4   3  -8    8.37    6.09
  -4   3   8   42.04    9.93
  -4   3   7   16.96    8.98
   4   3  -7    6.15    7.20
  -4  -3   7    2.08    7.67
  -4   3   7    1.64    6.58
   4   3  -7   10.59    5.48
  -4   3   6   49.87   10.42
   4   3  -6   45.93    9.66
  -4  -3   6   53.15   11.55
  -4   3   6   70.90   11.47
  -4   3   5  119.54   13.54
   4   3  -5   99.95   12.29
  -4  -3   5  102.79   14.54
  -4   3   5   97.89   12.01
  -4  -3   4    5.65    6.93
  -4   3   4    4.34    6.48
   4   3  -4    8.22    6.35
  -4   3   4   -0.47    7.01
  -4   3   3   33.34    7.50
   4   3  -3   53.67    9.64
  -4   3   3   40.13    5.29
  -4  -3   3   38.40    8.80
  -4   3   3   41.79    9.79
  -4  -3   2   39.36    9.45
  -4   3   2   42.77    6.84
  -4   3   2   40.62    9.42
   4   3  -2   47.15    9.84
  -4   3   2   35.82    5.78
  -4   3   1  673.75   23.48
  -4   3   1  719.66   24.97
  -4  -3   1  647.74   29.78
  -4   3   1  686.15   31.40
   4   3  -1  665.84   31.27
   4   3   0   33.89    8.88
  -4   3   0   45.13    7.66
  -4   3   0   51.77    5.61
  -4   3   0   54.26   10.20
  -4   3  -1 1357.80   30.56
  -4   3  -1 1523.56   43.80
  -4   3  -1 1456.74   48.32
   4   3   1 1511.38   48.98
  -4  -3  -2   25.49    7.63
  -4   3  -2   23.41    8.67
   4   3   2   36.10    9.11
  -4   3  -2   30.98    7.46
  -4  -3  -3 3204.21   80.21
  -4   3  -3 3197.14   79.54
  -4   3  -3 3081.85   80.76
   4   3   3 2962.99   82.72
   4   3   3 3135.39   80.94
  -4  -3  -4   14.80    8.25
  -4   3  -4   10.69    7.25
   4   3   4    3.80    6.59
  -4   3  -4   22.01    8.97
   4   3   4    9.05    7.41
   4   3   5 1545.92   51.37
  -4  -3  -5 1660.71   55.42
   4   3   5 1585.12   57.77
  -4   3  -5 1616.12   54.35
  -4   3  -5 1651.95   52.77
  -4   3  -5 1602.99   52.69
  -4  -3  -6   32.07   10.00
  -4   3  -6   35.07    9.08
   4   3   6   29.24   10.79
  -4   3  -6   23.19    8.63
   4   3   6   53.71   10.59
  -4   3  -6   39.79   10.06
   4   3   7  330.59   21.58
  -4   3  -7  301.51   24.22
   4   3   7  288.74   25.86
  -4  -3  -7  321.83   25.36
  -4   3  -7  332.97   22.05
   4   3   7  325.31   23.15
  -4   3  -7  319.71   23.75
  -4  -3  -8   17.98    9.92
  -4   3  -8   13.83   10.14
   4   3   8   -1.65    7.12
   4   3   8   -0.09    8.11
   4   3   8   -6.81   10.25
  -4   3  -8  -12.21    9.28
   4  -3   8    9.96    8.52
  -4   3  -8    5.03    5.88
  -4  -3  -9   20.82   12.47
  -4   3  -9    4.78    9.04
   4   3   9    1.89    9.49
   4   3   9   19.08    9.23
  -4   3  -9    8.17    6.25
   4  -3   9   22.63    7.96
  -4   3  -9   15.22    9.41
  -4  -3 -10   77.79   16.37
  -4   3 -10   30.34   10.89
   4   3  10   62.40   14.64
   4  -3  10   53.13   11.05
  -4   3 -10   76.87   15.33
  -4  -3 -11    0.20   11.71
  -4   3 -11    7.52   10.22
   4  -3  11   -5.68    9.07
  -4  -3 -12   22.75   13.31
  -4   3 -12   14.63   10.69
  -4  -3 -13   14.33   13.70
  -4   3 -13    7.35   10.63
  -4  -3 -14  -12.38   12.94
  -4   3 -14  -14.32   12.56
  -4  -3 -15  175.71   25.59
  -4   3 -15  136.68   24.44
  -4   3 -16  -17.15   13.19
  -4  -4  16  288.92   32.44
  -4   4  16  283.16   34.36
  -4   4  15   12.21   12.40
  -4  -4  15    5.39   11.32
  -4   4  14  204.26   26.73
  -4  -4  14  286.84   29.13
  -4   4  13   47.26   16.63
  -4  -4  13   50.39   15.41
  -4  -4  12  498.30   36.72
  -4   4  12  498.47   37.79
  -4   4  11  127.64   19.66
  -4  -4  11   91.45   16.42
   4   4 -10  786.93   35.76
  -4  -4  10  810.59   44.05
  -4   4  10  807.30   44.81
  -4   4   9  117.54   18.47
   4   4  -9  107.07   13.31
  -4  -4   9   90.81   16.44
  -4   4   9  127.50   15.27
   4   4  -8  229.18   19.36
  -4  -4   8  232.95   22.45
  -4   4   8  284.92   20.99
  -4   4   8  289.91   24.43
  -4   4   7   11.42    8.44
   4   4  -7    5.20    8.15
  -4   4   7    5.70    7.98
  -4  -4   7   -3.56    8.30
  -4  -4   6  157.87   17.42
  -4   4   6  148.19   16.80
   4   4  -6  157.98   15.84
  -4   4   6  162.57   16.91
  -4   4   5   13.59    8.62
  -4  -4   5   22.41    9.79
  -4   4   5   29.25    8.89
   4   4  -5   23.64    8.90
   4   4  -4  357.20   23.43
  -4   4   4  383.93   14.24
  -4  -4   4  359.12   24.77
  -4   4   4  398.24   24.95
  -4   4   4  367.10   21.90
   4   4  -3  232.48   19.00
  -4   4   3  210.26   11.81
  -4  -4   3  224.95   19.80
  -4   4   3  220.97   18.71
  -4   4   3  180.56   15.27
   4   4  -2  255.98   20.29
  -4   4   2  285.10   14.80
  -4  -4   2  275.40   21.07
  -4   4   2  279.33   20.91
  -4   4   2  247.01   16.02
   4   4  -1  461.33   26.38
  -4   4   1  482.86   20.93
  -4   4   1  455.00   26.39
  -4   4   1  480.74   20.17
   4   4   0 1318.01   47.91
  -4   4   0 1385.81   41.85
  -4   4   0 1353.29   48.46
  -4   4   0 1386.15   35.78
  -4   4  -1  124.77   12.66
   4   4   1  101.12   13.77
  -4   4  -1  130.28   14.72
  -4   4  -1  111.43    6.90
   4   4   1  106.23   13.60
   4   4   2 2444.57   71.36
  -4  -4  -2 2572.51   66.49
  -4   4  -2 2568.87   67.80
  -4   4  -2 2602.88   72.83
   4   4   2 2364.38   71.03
  -4  -4  -3    8.42    7.65
   4   4   3   -0.79    7.35
  -4   4  -3    8.24    6.39
   4   4   3   11.69    8.55
  -4   4  -3    6.91    6.54
   4   4   4  763.85   35.24
  -4  -4  -4  810.18   35.81
  -4   4  -4  804.14   35.77
   4   4   4  707.92   37.05
  -4   4  -4  834.83   36.25
  -4  -4  -5  182.59   18.41
  -4   4  -5  200.19   18.60
   4   4   5  153.49   15.66
  -4   4  -5  189.78   17.60
   4   4   5  184.17   19.95
  -4  -4  -6  772.01   37.82
   4   4   6  737.91   34.72
  -4   4  -6  746.49   36.56
  -4   4  -6  801.90   35.69
   4   4   6  713.62   39.57
  -4  -4  -7   11.17   10.05
  -4   4  -7    9.39    7.46
  -4   4  -7   10.71    7.97
   4   4   7   32.77    9.05
   4   4   7    9.01   10.12
  -4   4  -7   10.27    8.39
  -4  -4  -8   82.29   15.30
  -4   4  -8   56.04   12.67
  -4   4  -8   82.64   12.70
   4   4   8   63.55   12.97
   4   4   8   72.65   12.21
   4   4   8   68.07   15.04
  -4   4  -8   59.75   12.62
  -4  -4  -9   -8.54   10.53
   4  -4   9    8.03    8.74
  -4   4  -9    1.29    9.35
   4   4   9   12.11   10.53
  -4   4  -9  -20.52   11.21
  -4   4  -9    0.91    5.93
   4   4   9    6.60   10.61
  -4  -4 -10   -1.94    9.83
  -4   4 -10   -1.68    8.99
   4   4  10   10.97    9.75
  -4   4 -10    2.19    9.27
  -4  -4 -11   66.68   15.49
  -4   4 -11   53.50   13.48
  -4   4 -11   46.84   13.20
  -4  -4 -12  166.05   23.69
  -4   4 -12  114.64   19.99
  -4   4 -12  138.34   21.04
  -4  -4 -13   -8.28   11.93
  -4   4 -13   12.03   10.87
  -4  -4 -14   15.31   13.29
  -4   4 -14   10.12   11.89
  -4  -4 -15   42.73   14.99
  -4   4 -15   32.78   15.13
  -4  -5  16   49.07   16.20
  -4   5  15   41.86   16.72
  -4  -5  15   43.85   16.51
  -4   5  14  -16.19   13.19
  -4  -5  14    5.65   11.17
  -4   5  13   71.93   16.71
  -4  -5  13  118.93   19.44
  -4   5  12   14.90   11.31
  -4  -5  12   21.15   11.80
  -4   5  11  240.30   26.12
  -4  -5  11  247.64   25.59
   4   5 -10  309.86   23.69
  -4  -5  10  301.84   27.60
  -4   5  10  289.01   28.30
  -4   5   9  117.95   19.06
   4   5  -9  100.65   14.66
  -4   5   9  110.31   15.00
  -4  -5   9  105.04   17.92
  -4  -5   8   80.57   14.59
  -4   5   8  113.96   15.00
   4   5  -8   70.92   12.80
  -4   5   8   78.27   14.28
   4   5  -7  510.77   29.76
  -4  -5   7  477.50   31.55
  -4   5   7  566.38   31.74
  -4   5   7  469.17   30.43
   4   5  -6   89.66   13.67
  -4  -5   6   70.51   13.06
  -4   5   6   81.76   13.42
  -4   5   6  102.03   14.85
   4   5  -5  902.65   40.02
  -4  -5   5  902.23   42.56
  -4   5   5  923.56   40.99
  -4   5   5  909.93   39.34
   4   5  -4   -6.61    7.77
  -4  -5   4    5.18    9.24
  -4   5   4   20.87    9.34
  -4   5   4    8.30    8.95
   4   5  -3  345.34   24.18
  -4   5   3  429.38   19.02
  -4  -5   3  406.94   27.49
  -4   5   3  377.68   25.15
  -4   5   3  425.17   23.70
   4   5  -2  197.34   18.55
  -4   5   2  223.92   14.27
  -4   5   2  190.21   18.65
   4   5  -2  193.11   15.09
  -4   5   2  195.39   15.32
   4   5  -1  202.03   19.20
  -4   5   1  233.76   15.73
  -4   5   1  197.55   18.69
   4   5  -1  202.61   16.16
  -4   5   1  220.10   14.46
   4   5   0  325.56   23.73
  -4   5   0  319.38   19.12
  -4   5   0  333.09   23.37
   4   5   0  281.18   20.20
  -4   5   0  332.87   16.07
  -4  -5  -1  132.61   12.23
  -4   5  -1  139.48   13.91
   4   5   1  144.10   16.74
  -4   5  -1  140.39   16.34
   4   5   1  120.95   14.05
  -4   5  -1  141.99    9.32
  -4  -5  -2   -1.80    5.85
   4   5   2    4.46    7.70
  -4   5  -2    7.74    6.82
   4   5   2   -9.32    8.23
  -4   5  -2    2.68    7.56
  -4  -5  -3  240.48   18.88
   4   5   3  211.81   19.85
  -4   5  -3  256.34   20.02
  -4   5  -3  217.07   19.72
   4   5   3  224.17   20.95
  -4  -5  -4  132.39   15.19
  -4   5  -4  135.16   15.65
   4   5   4  116.53   14.36
  -4   5  -4  142.27   15.66
   4   5   4  127.06   15.86
  -4  -5  -5  351.20   24.41
   4   5   5  302.03   23.19
  -4   5  -5  365.21   25.35
  -4   5  -5  343.60   23.78
   4   5   5  260.81   24.36
  -4  -5  -6  503.77   31.15
   4   5   6  444.74   28.23
  -4   5  -6  493.27   30.13
   4   5   6  450.57   32.56
  -4   5  -6  511.16   29.27
  -4  -5  -7  275.40   24.65
   4   5   7  283.40   22.99
  -4   5  -7  298.67   24.85
   4   5   7  288.72   27.00
  -4   5  -7  309.18   23.24
  -4  -5  -8  320.74   27.03
   4   5   8  312.94   23.98
  -4   5  -8  349.74   27.55
  -4   5  -8  370.32   25.25
   4   5   8  350.83   28.69
   4   5   8  332.17   30.36
  -4  -5  -9  588.94   37.56
  -4   5  -9  525.78   35.28
  -4   5  -9  616.59   32.62
   4   5   9  554.31   36.06
  -4  -5 -10  216.80   25.47
  -4   5 -10  206.12   23.39
   4   5  10  215.95   22.99
  -4   5 -10  214.74   23.73
  -4  -5 -11  380.96   33.49
  -4   5 -11  386.98   32.64
   4   5  11  448.46   33.26
  -4   5 -11  379.60   32.18
  -4  -5 -12   14.15   13.37
  -4   5 -12   -1.28   10.39
  -4   5 -12   10.94   11.96
  -4  -5 -13   56.77   16.29
  -4   5 -13   50.62   15.67
  -4   5 -13   47.12   14.59
  -4  -5 -14  196.55   26.95
  -4   5 -14  183.16   26.47
  -4   5 -15  104.41   22.87
  -4  -6  15   30.58   15.50
  -4   6  15    8.24   11.82
  -4  -6  14   34.59   15.21
  -4   6  14   16.24   13.24
  -4  -6  13    5.48   11.52
  -4   6  13    8.06   12.20
  -4   6  12  199.80   25.72
  -4  -6  12  236.42   26.69
  -4   6  11    8.06   12.15
  -4  -6  11    6.00   11.74
   4   6 -10  588.54   34.33
  -4  -6  10  555.67   38.64
  -4   6  10  518.96   37.83
   4   6  -9  240.61   22.43
  -4  -6   9  211.68   23.83
  -4   6   9  235.06   21.55
  -4   6   9  199.24   23.40
   4   6  -8  407.16   28.24
  -4  -6   8  407.99   31.53
  -4   6   8  438.96   29.31
  -4   6   8  414.47   31.37
  -4  -6   7   35.89   11.30
   4   6  -7   29.83   11.50
  -4   6   7   43.28   11.07
  -4   6   7   37.59   11.98
   4   6  -6 1418.05   55.47
  -4  -6   6 1457.65   59.72
  -4   6   6 1532.34   57.06
  -4   6   6 1504.83   56.89
  -4  -6   5   16.46    9.62
  -4   6   5   15.92   10.61
   4   6  -5   12.43    9.43
  -4   6   5   22.91   10.29
   4   6  -4 1815.01   63.97
  -4  -6   4 1771.60   65.19
  -4   6   4 1992.52   66.00
   4   6  -4 1886.46   52.46
  -4   6   4 1879.61   61.13
  -4   6   3  163.46   13.22
  -4   6   3  167.47   16.16
   4   6  -3  180.22   18.02
  -4   6   3  184.18   18.88
   4   6  -3  209.56   15.48
  -4   6   2   92.31   10.43
   4   6  -2   60.78   13.34
   4   6  -2   60.66   10.15
  -4   6   2   68.40   13.42
  -4   6   2   64.03    9.89
   4   6  -1  716.28   38.26
  -4   6   1  838.97   33.33
   4   6  -1  772.37   34.01
  -4   6   1  790.42   39.19
  -4   6   1  860.21   32.26
  -4   6   0  166.22   15.05
   4   6   0  164.14   18.81
  -4   6   0  177.15   18.32
   4   6   0  194.26   17.82
  -4   6   0  167.28   12.90
  -4  -6  -1   34.96    7.38
  -4   6  -1   41.66    9.86
   4   6   1   40.96   11.27
  -4   6  -1   46.02   11.39
   4   6   1   53.69   11.16
  -4  -6  -2  244.15   17.75
   4   6   2  258.36   22.58
  -4   6  -2  300.46   21.75
   4   6   2  227.20   20.54
  -4   6  -2  268.01   22.11
  -4  -6  -3   38.54    9.06
  -4   6  -3   32.15   10.91
   4   6   3   12.65    8.56
  -4   6  -3   36.49   11.31
   4   6   3   22.01   11.42
  -4  -6  -4   11.33    7.62
  -4   6  -4    6.12    7.83
   4   6   4   -2.66    8.41
  -4   6  -4    4.06    8.83
   4   6   4   11.32    9.17
  -4  -6  -5   53.18   12.38
  -4   6  -5   38.92   10.71
   4   6   5   28.23    9.55
  -4   6  -5   37.30   10.11
   4   6   5   37.42   11.86
  -4  -6  -6   59.67   13.63
  -4   6  -6   35.88    9.79
   4   6   6   67.33   13.50
   4   6   6   60.50   13.86
  -4   6  -6   44.50   11.31
  -4  -6  -7  113.29   17.67
  -4   6  -7  109.42   15.96
   4   6   7   76.84   15.02
  -4   6  -7  118.94   15.77
   4   6   8  385.16   28.07
  -4  -6  -8  404.56   31.80
  -4   6  -8  411.11   30.79
  -4   6  -8  429.22   28.67
  -4  -6  -9    9.29   12.29
  -4   6  -9    7.03    9.38
  -4   6  -9   23.74   10.00
   4   6   9   -1.90   11.20
  -4  -6 -10  581.63   39.56
  -4   6 -10  619.22   40.56
   4   6  10  614.19   41.43
  -4  -6 -11    3.76   11.65
  -4   6 -11   29.50   13.54
   4   6  11   28.96   13.99
  -4  -6 -12  413.23   36.05
  -4   6 -12  482.52   37.97
   4   6  12  550.64   40.44
  -4  -6 -13   -8.77   11.40
  -4   6 -13   -4.17   12.29
  -4  -6 -14  183.68   26.38
  -4   6 -14  140.91   24.30
  -4   7  14   32.46   15.59
  -4  -7  14   49.97   15.64
  -4   7  13   62.37   18.42
  -4  -7  13  122.13   21.97
  -4   7  12  145.51   23.47
  -4  -7  12  151.39   23.90
  -4  -7  11  201.76   25.57
  -4   7  11  219.92   27.27
  -4  -7  10  173.06   24.41
  -4   7  10  165.78   23.08
   4   7  -9  391.65   30.08
  -4  -7   9  362.06   31.63
  -4   7   9  385.68   28.83
  -4   7   9  289.30   28.64
  -4   7   8   14.94   10.03
  -4  -7   8    0.19   11.25
   4   7  -8   -2.21   10.10
  -4   7   8   11.98   10.74
   4   7  -7  883.66   45.00
  -4  -7   7 1002.56   50.62
  -4   7   7  911.86   44.82
  -4   7   7  893.44   45.90
   4   7  -6   15.81   10.63
  -4  -7   6   24.24   12.00
  -4   7   6   12.37    9.76
  -4   7   6   20.06   11.47
   4   7  -5 1018.00   48.14
  -4  -7   5 1072.71   51.55
  -4   7   5  955.85   47.09
  -4   7   5 1107.01   47.87
   4   7  -4  232.62   23.09
  -4   7   4  224.21   22.81
  -4   7   4  209.30   20.42
   4   7  -3  571.74   35.28
  -4   7   3  567.25   27.33
  -4   7   3  577.76   31.11
  -4   7   3  566.96   34.99
  -4   7   2  185.19   16.21
   4   7  -2  187.73   16.30
  -4   7   2  206.39   20.65
   4   7  -2  182.55   21.44
  -4   7   2  188.48   17.04
   4   7  -1  343.21   27.41
  -4   7   1  356.25   22.49
  -4   7   1  292.48   25.93
  -4   7   1  352.66   21.37
   4   7  -1  343.37   22.63
   4   7   0  445.61   31.19
  -4   7   0  473.35   26.81
  -4   7   0  461.34   31.18
   4   7   0  441.83   27.21
  -4   7  -1   24.98    9.37
   4   7   1   17.72    9.87
   4   7   1   26.99   10.20
  -4   7  -1   55.58   12.80
  -4  -7  -2  134.40   13.59
   4   7   2  122.08   16.66
  -4   7  -2  145.12   15.77
   4   7   2  119.35   17.14
  -4   7  -2  142.27   17.68
  -4  -7  -3   32.15    9.18
  -4   7  -3   31.41    9.99
   4   7   3   32.10   11.10
   4   7   3   37.31   11.90
  -4   7  -3   17.30    9.53
  -4  -7  -4  335.72   23.30
   4   7   4  333.20   27.02
  -4   7  -4  338.38   25.61
  -4   7  -4  320.88   25.81
  -4  -7  -5    1.09    9.83
  -4   7  -5    3.94    8.78
   4   7   5   16.87   10.52
  -4   7  -5   11.28    8.65
  -4  -7  -6   20.38   10.43
  -4   7  -6   27.45   10.89
   4   7   6   27.94   12.76
  -4   7  -6    8.25    9.00
  -4  -7  -7    6.97   10.76
  -4   7  -7    2.83   10.39
   4   7   7   20.29   10.60
  -4   7  -7   30.95   11.89
  -4  -7  -8   12.08    9.34
  -4   7  -8   35.16   11.96
   4   7   8   13.57   10.80
  -4   7  -8    8.57   10.26
  -4  -7  -9  462.08   35.10
  -4   7  -9  538.77   37.52
  -4   7  -9  566.25   34.29
   4   7   9  522.29   39.41
  -4  -7 -10   29.87   13.25
  -4   7 -10   22.17   12.99
   4   7  10   26.84   13.99
  -4  -7 -11  442.47   36.26
  -4   7 -11  478.18   38.28
   4   7  11  407.34   37.25
  -4  -7 -12    6.84   13.02
  -4   7 -12   10.09   12.64
   4   7  12    9.56   13.88
  -4  -7 -13  216.69   28.27
  -4   7 -13  257.64   30.09
  -4   8  13   19.37   13.46
  -4  -8  13   30.33   13.86
  -4  -8  12    6.91   13.08
  -4   8  12   -1.47   12.31
  -4  -8  11  362.97   34.39
  -4   8  11  376.23   36.27
  -4  -8  10   63.43   16.70
  -4   8  10   42.50   14.24
   4   8  -9   80.25   16.12
  -4   8   9   67.68   13.96
  -4  -8   9  113.88   21.49
  -4   8   9   87.00   18.49
  -4   8   8  130.45   20.37
   4   8  -8  159.30   20.94
  -4  -8   8  116.06   20.06
  -4   8   8  124.24   20.11
  -4  -8   7   14.60   12.03
   4   8  -7    4.70    9.70
  -4   8   7   -6.63   10.06
  -4   8   7   -8.67    9.78
   4   8  -6  153.62   20.78
  -4   8   6  163.14   20.37
  -4   8   6  151.17   19.54
   4   8  -5  116.29   18.12
  -4   8   5  120.06   17.25
  -4   8   5  135.02   18.96
   4   8  -4  450.34   33.44
  -4   8   4  467.81   34.02
  -4   8   4  510.04   32.25
  -4   8   3  201.07   19.90
   4   8  -3  200.56   23.32
  -4   8   3  194.69   22.38
   4   8  -2  476.19   34.35
  -4   8   2  517.40   28.33
  -4   8   2  473.96   33.32
  -4   8   2  525.37   29.94
   4   8  -1  209.34   24.26
  -4   8   1  189.23   18.14
  -4   8   1  174.98   20.54
   4   8   0  285.53   26.56
  -4   8   0  314.35   23.74
  -4   8   0  318.29   27.88
   4   8   1  471.12   33.96
  -4   8  -1  466.08   29.18
  -4   8  -1  445.54   32.15
  -4   8  -2  124.65   16.60
   4   8   2  105.50   17.29
  -4   8  -2  108.67   17.31
  -4   8  -3   34.05   10.96
   4   8   3   52.15   15.25
  -4   8  -3   39.32   12.19
  -4  -8  -4  186.59   17.99
  -4   8  -4  201.84   20.80
  -4   8  -4  225.24   23.16
   4   8   4  196.68   23.81
  -4  -8  -5  269.18   23.79
   4   8   5  318.63   28.60
  -4   8  -5  291.14   25.87
  -4   8  -5  300.80   26.41
  -4  -8  -6  367.94   28.48
   4   8   6  389.21   31.78
  -4   8  -6  398.40   30.67
  -4   8  -6  419.25   31.45
  -4   8  -7  249.95   25.16
  -4   8  -7  254.21   24.80
   4   8   7  223.13   24.50
  -4  -8  -7  218.57   22.90
  -4  -8  -8  191.10   22.67
  -4   8  -8  276.54   27.73
  -4   8  -8  261.15   25.17
   4   8   8  230.80   25.28
  -4  -8  -9  360.74   32.18
  -4   8  -9  392.94   32.86
   4   8   9  410.36   37.37
  -4  -8 -10  105.16   19.48
  -4   8 -10  135.67   22.15
   4   8  10  100.06   21.55
  -4  -8 -11   71.89   18.68
  -4   8 -11   66.17   16.56
   4   8  11   84.33   20.73
  -4  -8 -12   76.19   17.24
  -4   8 -12   89.61   20.11
   4   8  12   97.06   21.27
   4   8  13    3.35   13.03
  -4  -9  12   10.66   15.44
  -4   9  12   19.25   14.38
  -4  -9  11   55.29   16.72
  -4   9  11   76.17   18.83
  -4  -9  10   18.02   15.10
  -4   9  10    1.84   11.98
  -4  -9   9   25.75   13.71
   4   9  -9   44.20   16.73
  -4   9   9   28.04   12.98
  -4   9   9   50.67   15.58
  -4   9   8   17.45   12.77
   4   9  -8   -4.78   11.96
  -4   9   8   -8.29   10.53
   4   9  -7   18.87   12.98
  -4   9   7    9.44    9.87
  -4   9   7   23.71   11.62
   4   9  -6   32.26   14.91
  -4   9   6   37.70   13.20
  -4   9   6   17.96   11.72
   4   9  -5    9.89   11.25
  -4   9   5   20.57   12.53
  -4   9   5   30.51   11.95
   4   9  -4   43.79   13.85
  -4   9   4   61.41   14.80
  -4   9   4   39.84   12.52
   4   9  -3   68.86   16.57
  -4   9   3   92.03   16.40
  -4   9   3   64.02   15.55
  -4   9   2   61.90   13.45
   4   9  -2   43.49   13.98
  -4   9   2   50.14   13.07
   4   9  -1  824.00   47.92
  -4   9   1  928.06   42.68
  -4   9   1  917.96   49.75
  -4   9   0   53.16   12.57
   4   9   0   39.31   14.28
  -4   9   0   41.48   13.11
   4   9   1  689.92   43.54
  -4   9  -1  742.69   39.34
  -4   9  -1  695.64   43.30
  -4   9  -2  108.37   16.86
   4   9   2   65.99   16.35
  -4   9  -2   62.26   15.51
   4   9   3 1052.68   55.50
  -4   9  -3 1140.07   51.42
  -4   9  -3 1112.31   54.59
  -4   9  -4    2.74   10.14
   4   9   4   17.81   14.30
  -4   9  -4   10.88   10.41
   4   9   5  750.81   46.81
  -4   9  -5  948.94   48.82
  -4   9  -5  919.30   49.10
  -4   9  -6   -6.62    9.37
   4   9   6  -13.80    9.66
  -4   9  -6    5.02   10.39
  -4  -9  -7  121.36   18.38
  -4   9  -7  118.06   18.48
   4   9   7  114.36   18.94
  -4   9  -7  166.47   21.60
  -4  -9  -8   19.94   12.20
  -4   9  -8    8.44   10.94
   4   9   8   16.83   12.79
  -4   9  -8    8.94   11.76
  -4  -9  -9  100.03   18.60
  -4   9  -9  153.70   22.28
   4   9   9  156.44   26.51
  -4  -9 -10   20.67   12.43
  -4   9 -10   14.07   11.65
   4   9  10    3.53   14.68
  -4  -9 -11   16.08   11.65
  -4   9 -11   33.57   14.91
   4   9  11   27.90   15.77
  -4  -9 -12    7.60   11.63
   4   9  12  -10.15   13.36
  -4  10  11   87.58   20.58
  -4  10  10  137.15   25.00
  -4  10   9    0.20   11.98
   4  10  -9   35.25   16.10
  -4  10   9   26.17   14.13
   4  10  -8    9.45   11.45
  -4  10   8   -3.69   11.66
  -4  10   8  -16.36   11.11
   4  10  -7   10.77   12.29
  -4  10   7    9.04    9.07
  -4  10   7   -4.40   11.08
   4  10  -6   -5.37   10.37
  -4  10   6    8.89   14.45
  -4  10   6    2.09   10.88
   4  10  -5   67.54   16.79
  -4  10   5   67.23   17.16
  -4  10   5   40.69   14.30
   4  10  -4   21.62   10.74
  -4  10   4   43.44   15.63
  -4  10   4   31.73   13.31
   4  10  -3  263.19   28.85
  -4  10   3  265.72   29.80
   4  10  -2   64.75   17.14
  -4  10   2   76.91   16.60
  -4  10   1  139.69   18.64
   4  10  -1  116.08   21.57
  -4  10   1  152.37   22.39
   4  10   0  402.55   35.47
  -4  10   0  407.83   30.29
  -4  10   0  398.22   34.76
  -4  10  -1   45.55   12.16
   4  10   1   -0.10   10.57
  -4  10  -1   51.07   12.99
   4  10   2  553.80   41.35
  -4  10  -2  640.70   39.24
  -4  10  -2  577.52   41.19
  -4  10  -3   25.53   12.21
   4  10   3   41.22   15.46
  -4  10  -3   14.66   11.06
   4  10   4  499.66   40.03
  -4  10  -4  524.36   36.72
  -4  10  -4  543.66   39.94
  -4  10  -5   55.88   15.97
   4  10   5   28.39   12.28
  -4  10  -5   44.03   13.16
  -4  10  -6  312.70   30.17
  -4  10  -6  312.68   30.30
   4  10   6  264.90   29.83
  -4  10  -7   21.09   12.76
   4  10   7   21.24   13.58
  -4  10  -7   29.82   13.28
  -4  10  -8   74.21   16.94
   4  10   8   74.02   19.01
  -4  10  -8   73.41   17.05
  -4  10  -9   51.63   15.93
   4  10   9   36.40   17.92
  -4 -10 -10   13.33   12.35
   4  10  10   14.72   17.07
  -4 -10 -11   23.70   13.29
  -4  11  10   14.78   15.55
   4  11  -9  439.69   39.69
  -4  11   9  476.14   39.64
  -4  11   9  381.58   38.60
   4  11  -8   38.95   15.75
  -4  11   8   16.34   13.72
  -4  11   8   26.49   14.26
   4  11  -7  475.65   41.13
  -4  11   7  514.00   42.11
  -4  11   7  450.52   39.57
   4  11  -6    6.74   12.32
  -4  11   6   44.10   16.74
  -4  11   6   39.48   14.36
   4  11  -5  172.79   25.02
  -4  11   5  230.13   27.67
   4  11  -4   88.83   19.23
  -4  11   4   90.95   19.22
   4  11  -3  132.65   23.57
  -4  11   3  152.10   22.74
   4  11  -2   20.45   14.18
  -4  11   2    9.93   12.75
   4  11  -1  323.76   33.43
  -4  11   1  330.61   33.24
  -4  11   0   13.68   13.47
   4  11   0    1.51   11.01
  -4  11   0   16.82   14.80
  -4  11  -1   77.74   15.31
   4  11   1   58.19   17.62
  -4  11  -1   69.41   19.13
  -4  11  -2    4.68    9.08
   4  11   2  -12.96   15.08
  -4  11  -2   12.01   12.89
  -4  11  -3   54.05   14.72
   4  11   3   64.30   18.31
  -4  11  -3   73.84   20.28
  -4  11  -4   22.57   11.73
   4  11   4   12.64   10.58
  -4  11  -4   18.12   12.34
  -4  11  -5  126.43   20.97
   4  11   5   96.54   20.09
  -4  11  -5  147.08   23.27
  -4  11  -6   85.49   18.87
   4  11   6   55.11   18.26
  -4  11  -6   54.46   14.99
  -4  11  -7   24.78   13.36
   4  11   7   21.86   11.40
  -4  11  -7   16.97   10.95
  -4  11  -8  121.86   21.73
   4  11   8  116.33   21.80
  -4  11  -8  136.35   21.29
   4  12  -8  200.50   28.14
  -4  12   8  232.87   29.66
  -4  12   8  211.82   30.66
   4  12  -7    3.01   11.56
  -4  12   7   41.86   18.15
   4  12  -6  263.12   32.28
  -4  12   6  273.44   31.51
   4  12  -5    4.22   11.96
  -4  12   5    4.61   13.51
   4  12  -4  274.16   32.52
  -4  12   4  250.06   31.01
   4  12  -3   37.66   16.23
  -4  12   3   18.93   13.04
   4  12  -2  121.67   22.97
  -4  12   2   68.80   18.21
   4  12  -1   25.72   15.02
  -4  12   1    8.00   12.40
   4  12   0   31.36   15.16
  -4  12   0   39.40   16.59
  -4  12  -1   45.37   13.49
   4  12   1   33.65   14.70
  -4  12  -1   35.67   16.57
  -4  12  -2   79.70   17.51
   4  12   2   97.70   22.93
  -4  12  -2   83.72   19.67
  -4  12  -3   13.98   11.09
   4  12   3   33.49   14.09
  -4  12  -3   11.89   13.85
  -4  12  -4   25.91   14.13
   4  12   4   30.70   13.87
  -4  12  -4   26.64   14.48
  -4  12  -5   40.26   13.29
   4  12   5   82.34   20.76
  -4  12  -5   98.49   22.21
  -4  12  -6  297.76   32.83
   4  12   6  240.67   30.23
  -4  12  -7   28.47   14.44
  -4  13  -2   20.69   12.60
  -4  13  -3   65.84   17.38
  -5   0  16    5.56   13.56
  -5   0  15  431.87   37.56
  -5   0  14    0.83   10.37
  -5   0  13  706.49   45.61
  -5   0  12  -31.93   13.22
  -5   0  11  748.53   43.83
   5   0 -10   -3.16    6.10
  -5   0  10   14.90   10.43
  -5   0   9  267.29   23.97
   5   0  -9  260.75   20.35
   5   0  -8   17.21    9.08
  -5   0   8   -2.90    9.85
  -5   0   7  123.28   15.43
   5   0  -7   95.06   13.36
   5   0  -6    0.96    7.60
  -5   0   6   11.23    8.92
  -5   0   5  103.24   14.06
   5   0  -5  113.51   13.65
  -5   0   4    4.15    6.85
   5   0  -4    2.66    6.48
  -5   0   3  144.41   14.09
   5   0  -3  111.84   13.43
   5   0  -2   -1.64    6.83
  -5   0   2   -0.50    5.17
  -5   0   1 1257.03   39.18
   5   0  -1 1251.79   46.15
  -5   0   0    2.74    4.37
   5   0   0    0.12    6.53
   5   0   1  230.16   18.99
   5   0   2   -7.43    7.30
  -5   0  -3  281.98   15.23
   5   0   3  279.38   20.61
   5   0   4    1.67    6.46
  -5   0  -4   -3.01    4.61
  -5   0  -5  868.66   33.89
   5   0   5  861.03   37.62
   5   0   6   11.78    7.98
  -5   0  -6    0.77    6.04
   5   0   7  430.25   30.11
   5   0   7  402.12   24.92
  -5   0  -7  403.51   25.95
   5   0   8   -0.73    5.33
   5   0   8    2.14    7.78
  -5   0  -8   10.04    8.83
   5   0   9   86.27   15.68
  -5   0  -9  117.15   17.19
  -5   0 -10    9.10    9.17
   5   0  10   18.19   10.74
   5   0  11  227.15   26.02
  -5   0 -11  230.86   25.88
  -5   0 -12   -5.55   11.16
   5   0  12    7.33   10.97
  -5   0 -12   -1.91    9.60
  -5   0 -13  103.29   19.90
   5   0  13  111.52   20.61
  -5   0 -13   95.08   18.80
  -5   0 -14   10.42   12.77
  -5   0 -15    4.49   12.05
  -5  -1  16  257.00   30.80
  -5   1  16  220.11   28.57
  -5   1  15   70.70   18.20
  -5  -1  15   27.11   13.15
  -5   1  14  238.85   28.34
  -5  -1  14  246.82   28.96
  -5   1  13   19.28   10.91
  -5  -1  13   51.01   14.54
  -5   1  12  370.16   32.28
  -5  -1  12  358.47   31.27
  -5   1  11  132.76   20.14
  -5  -1  11   88.80   16.29
   5  -1 -10  138.88   14.48
  -5   1  10  142.21   19.31
  -5  -1  10  144.28   18.93
   5   1 -10  157.24   16.13
  -5  -1   9   36.30   10.45
   5  -1  -9   92.09   13.46
   5   1  -9   67.92   12.03
  -5   1   9   70.40   14.00
  -5   1   8  720.75   37.44
  -5  -1   8  679.80   37.47
   5  -1  -8  793.08   35.82
   5   1  -8  722.31   34.43
  -5  -1   7   13.63    7.55
   5  -1  -7   29.17    8.16
   5   1  -7   15.77    7.22
  -5   1   7   36.99   10.44
  -5   1   6  236.81   19.60
  -5  -1   6  217.07   19.72
   5  -1  -6  213.70   18.77
   5   1  -6  238.35   19.67
   5  -1  -5  106.56   13.39
   5   1  -5  127.47   14.26
  -5  -1   5  115.72   14.52
  -5   1   5  124.72   14.09
  -5   1   5  129.79   15.40
   5   1  -4   36.71   10.06
  -5   1   4   32.73    8.56
  -5  -1   4   47.63   10.68
  -5   1   4   36.14   10.42
   5  -1  -4   37.52    9.68
   5   1  -3   21.94    8.37
  -5  -1   3   33.97    8.90
  -5   1   3   33.07    8.80
  -5   1   3   44.94    8.42
  -5   1   2 1091.75   35.76
  -5  -1   2 1034.28   37.77
  -5   1   2 1071.40   42.76
   5   1  -2 1001.58   40.64
  -5   1   1  228.63   14.20
  -5  -1   1  225.92   16.01
  -5   1   1  209.10   19.02
   5   1  -1  219.26   18.73
  -5   1   0  166.65   10.87
  -5  -1   0  177.21   13.74
  -5   1   0  197.32   18.15
   5   1   0  162.15   16.21
  -5   1  -1  261.26   20.42
   5   1   1  274.84   20.37
  -5   1  -2  822.15   37.66
   5  -1   2  865.24   36.87
  -5  -1  -2  885.94   25.46
   5   1   2  883.60   37.45
   5  -1   3   45.75   10.01
   5   1   3   64.08   10.95
  -5   1  -3   36.34    9.30
  -5  -1  -3   59.22    7.20
  -5   1  -4 1731.04   59.19
  -5  -1  -4 1814.61   50.10
  -5   1  -4 1887.62   52.90
   5  -1   4 1906.52   58.88
   5   1   4 1769.91   58.41
   5  -1   5   11.38    6.59
   5   1   5   -2.26    7.14
  -5   1  -5    7.96    6.80
   5   1   6  767.94   39.94
  -5   1  -6  759.21   34.08
   5  -1   6  803.61   35.50
   5   1   6  721.61   34.84
   5  -1   7   12.26    7.06
   5   1   7   12.74    8.54
   5  -1   7   20.45    8.49
   5   1   7   10.63    9.46
  -5   1  -7    6.08    7.61
  -5  -1  -8  662.59   39.95
   5  -1   8  694.63   39.29
   5   1   8  709.59   40.77
  -5   1  -8  673.35   35.65
   5  -1   8  707.71   33.21
   5   1   8  697.94   33.71
  -5  -1  -9   96.26   16.97
   5  -1   9   93.86   15.28
   5   1   9  122.55   19.80
  -5   1  -9   80.31   13.76
  -5  -1 -10  151.79   21.64
   5  -1  10  152.54   20.10
   5   1  10  165.41   22.50
  -5   1 -10  154.66   20.10
  -5  -1 -11  241.73   26.55
   5  -1  11  204.03   24.13
   5   1  11  222.49   26.34
  -5   1 -11  203.02   23.26
  -5  -1 -12  164.29   23.08
   5  -1  12  147.68   20.49
   5   1  12  180.19   25.05
  -5   1 -12  144.74   21.44
  -5  -1 -13   28.47   14.47
  -5   1 -13    5.45   10.12
   5  -1  13   20.30   11.51
   5   1  13   13.34   12.96
  -5  -1 -14  242.11   30.38
  -5  -1 -14  183.21   25.69
  -5   1 -14  189.28   26.33
  -5  -1 -15   26.61   17.42
  -5  -1 -15   24.18   13.97
  -5   1 -15   20.90   13.11
  -5  -2  16   81.15   17.43
  -5   2  16   89.86   20.85
  -5  -2  15   46.03   16.04
  -5   2  15   19.03   14.02
  -5  -2  14   61.91   17.37
  -5   2  14   44.03   14.79
  -5  -2  13  178.74   23.96
  -5   2  13  154.69   22.46
  -5  -2  12  105.32   19.30
  -5   2  12  100.95   18.48
  -5   2  11  346.57   30.18
  -5  -2  11  334.27   29.64
   5   2 -10  336.95   23.32
  -5   2  10  345.59   28.77
  -5  -2  10  366.36   29.29
   5  -2 -10  346.48   23.97
   5  -2  -9  101.28   13.31
  -5  -2   9  108.33   15.95
   5   2  -9   96.20   13.17
  -5   2   9  106.28   16.79
  -5  -2   8   98.59   15.80
   5   2  -8   91.45   12.64
  -5   2   8   73.88   13.56
  -5   2   8  110.41   14.05
   5  -2  -8  102.40   13.96
  -5   2   7  459.17   28.89
  -5  -2   7  463.76   30.63
  -5   2   7  504.62   30.01
   5   2  -7  483.72   28.11
   5   2  -6    6.15    7.05
  -5   2   6    7.34    6.88
  -5  -2   6    6.53    7.04
  -5   2   6    1.64    8.32
  -5   2   5  610.50   30.06
  -5  -2   5  609.55   32.69
  -5   2   5  669.55   33.18
   5   2  -5  573.00   30.54
  -5  -2   4   29.43    8.76
   5   2  -4   24.04    9.41
  -5   2   4   31.64    8.23
  -5   2   4   28.00    9.22
  -5   2   3  348.03   20.06
  -5  -2   3  362.97   22.96
  -5   2   3  418.93   25.94
   5   2  -3  388.17   24.54
  -5   2   2  235.89   15.18
  -5  -2   2  239.14   18.83
  -5   2   2  249.02   21.00
   5   2  -2  257.88   20.05
  -5   2   1  506.67   20.74
  -5  -2   1  505.70   26.01
  -5   2   1  523.58   29.35
   5   2  -1  563.20   29.45
  -5   2   0  266.60   12.87
  -5   2   0  251.92   20.16
   5   2   0  246.80   20.27
  -5   2  -1  231.36   19.98
   5   2   1  254.33   20.81
   5   2   2  110.82   13.72
  -5   2  -2  158.53   16.77
   5   2   3   10.11    6.51
  -5   2  -3   32.46    9.91
   5   2   4    9.93    7.71
  -5   2  -4   10.23    6.55
   5   2   5   44.18   11.54
   5   2   5   35.74   11.59
  -5   2  -5   43.71   10.26
  -5   2  -5   53.47   10.38
  -5  -2  -6    0.18    8.51
   5   2   6    4.02    7.86
  -5   2  -6    6.81    7.95
   5   2   6   -4.57    8.56
  -5   2  -6   11.19    8.96
  -5  -2  -7  251.04   24.12
  -5   2  -7  269.92   22.22
   5   2   7  224.43   23.20
  -5   2  -7  288.99   23.14
   5  -2   7  282.52   20.41
   5   2   7  279.37   21.54
  -5  -2  -8   17.74   10.35
   5  -2   8   11.41    6.21
   5   2   8   31.36    9.02
   5  -2   8    9.47    7.57
   5   2   8   27.18   10.56
  -5   2  -8   14.27   10.19
  -5  -2  -9  291.53   27.34
   5  -2   9  221.22   21.81
   5   2   9  211.98   23.87
  -5   2  -9  260.28   24.02
  -5  -2 -10  130.01   20.45
   5  -2  10  148.20   19.05
   5   2  10  145.35   21.47
  -5   2 -10  122.36   18.72
  -5  -2 -11  214.57   25.10
   5   2  11  184.39   24.68
   5  -2  11  211.51   22.97
  -5   2 -11  197.07   23.19
  -5  -2 -12  193.23   24.56
   5  -2  12  209.63   23.67
   5   2  12  162.89   23.99
  -5   2 -12  173.61   22.65
  -5  -2 -13  117.50   22.28
  -5   2 -13   89.85   18.30
  -5  -2 -14  -10.03   12.93
  -5   2 -14   10.94   13.78
  -5   2 -15   92.63   21.75
  -5  -3  15   24.23   15.37
  -5   3  15   -8.45   13.10
  -5  -3  14    3.24   11.82
  -5   3  14   -7.95   12.74
  -5  -3  13   34.58   15.38
  -5   3  13   57.50   15.59
  -5  -3  12  -10.00    9.80
  -5   3  12    7.95    9.74
  -5   3  11   79.47   16.39
  -5  -3  11  110.00   18.97
  -5   3  10   29.19   13.37
   5   3 -10   39.15    9.59
  -5  -3  10   25.47   11.02
  -5   3  10   28.83    9.32
  -5   3   9   33.36   12.55
   5   3  -9   43.88   10.15
  -5  -3   9   38.12   12.63
  -5   3   9   26.18    9.02
   5   3  -8  537.77   30.46
  -5   3   8  508.99   32.00
  -5  -3   8  480.07   32.81
  -5   3   8  604.16   32.52
  -5   3   7    9.60    7.83
   5   3  -7    3.34    6.47
  -5  -3   7    6.96    9.37
  -5   3   7    5.54    8.43
  -5   3   6 1205.69   47.79
  -5  -3   6 1257.77   51.03
  -5   3   6 1330.85   50.65
   5   3  -6 1269.40   49.28
  -5  -3   5    7.46    8.50
   5   3  -5   34.58    9.48
  -5   3   5   17.59    8.63
  -5   3   5    9.76    7.12
  -5   3   4 1793.98   55.00
  -5  -3   4 1833.34   61.24
  -5   3   4 1831.51   61.51
   5   3  -4 1830.99   60.72
  -5   3   3   21.13   10.71
   5   3  -3   13.14    7.58
  -5   3   3   14.91    7.03
  -5  -3   3   12.04    7.23
  -5   3   2 2089.23   54.68
  -5  -3   2 2070.00   63.33
  -5   3   2 2162.38   67.26
   5   3  -2 1965.08   64.38
   5   3  -1    7.93    7.84
  -5   3   1    0.38    4.27
  -5  -3   1    3.76    6.83
  -5   3   1    4.93    8.06
  -5   3   0  595.30   32.38
   5   3   0  588.37   31.77
   5   3   1    3.78    7.08
  -5   3  -1   -8.43    7.64
  -5   3  -2  847.72   35.48
  -5   3  -2  809.06   38.19
   5   3   2  775.02   37.36
   5   3   3   23.79   10.13
  -5   3  -3   27.46    8.84
   5   3   3   30.26   11.14
  -5   3  -3   29.16    9.60
  -5   3  -4  153.17   17.16
   5   3   4  117.46   15.43
  -5   3  -4  137.42   15.89
   5   3   4  114.48   17.07
  -5  -3  -5   35.65   10.93
  -5   3  -5   28.65    9.35
   5   3   5   16.95    7.21
  -5   3  -5   30.72    9.85
   5   3   5   20.95    8.87
  -5  -3  -6   19.34    9.80
  -5   3  -6   30.06   10.43
   5   3   6    6.21    8.30
   5   3   6   10.21   12.70
  -5  -3  -7   -6.04   10.73
  -5   3  -7    0.92    7.60
   5   3   7   -8.59    7.59
   5   3   7   -4.29   10.38
  -5   3  -7    7.13    8.48
  -5  -3  -8   85.64   15.88
   5   3   8   82.40   14.68
  -5   3  -8   70.35   11.94
   5   3   8   84.25   16.68
  -5   3  -8   60.02   13.37
  -5  -3  -9   99.18   17.52
   5  -3   9   72.02   13.22
   5   3   9  101.43   17.97
  -5   3  -9   48.67   13.87
  -5  -3 -10   75.88   16.79
   5  -3  10   58.13   13.08
   5   3  10   36.94   14.71
  -5   3 -10   53.25   15.19
  -5  -3 -11   -1.90   11.93
   5  -3  11    0.65    7.20
   5   3  11   -6.57   11.48
  -5   3 -11  -19.37   10.87
  -5  -3 -12  312.98   31.73
  -5   3 -12  254.08   27.76
  -5  -3 -13    2.48   10.86
  -5   3 -13   -3.76   11.17
  -5  -3 -14  439.84   39.18
  -5   3 -14  447.72   38.82
  -5   3 -15   45.60   16.59
  -5   4  15   21.60   14.64
  -5  -4  15   43.96   14.95
  -5   4  14   25.94   12.65
  -5  -4  14  -15.89   12.24
  -5   4  13    2.51   12.36
  -5  -4  13   14.06   12.41
  -5   4  12   43.20   16.50
  -5  -4  12   70.80   18.34
  -5   4  11  174.73   22.43
  -5  -4  11  161.31   22.99
   5   4 -10  219.22   20.66
  -5   4  10  205.68   22.59
  -5   4  10  241.80   21.60
  -5  -4  10  225.78   24.19
  -5   4   9  255.32   25.16
   5   4  -9  282.10   23.17
  -5  -4   9  272.42   26.02
  -5   4   9  308.84   24.13
   5   4  -8  292.29   23.16
  -5  -4   8  285.23   25.59
  -5   4   8  320.71   24.86
  -5   4   8  261.29   24.48
   5   4  -7  422.44   28.29
  -5  -4   7  392.70   29.34
  -5   4   7  438.42   28.99
  -5   4   7  444.32   29.36
   5   4  -6  295.70   23.00
  -5  -4   6  273.35   23.75
  -5   4   6  261.13   22.58
  -5   4   6  265.98   21.51
   5   4  -5 1063.89   45.16
  -5  -4   5 1090.88   47.72
  -5   4   5 1084.94   46.48
  -5   4   5 1009.29   41.24
  -5   4   4    9.32    7.24
   5   4  -4   11.21    7.96
  -5   4   4   24.88    9.59
  -5  -4   4   16.01    8.88
   5   4  -3  805.77   39.15
  -5   4   3  830.35   32.47
  -5  -4   3  812.49   39.18
  -5   4   3  860.79   40.13
  -5  -4   2   33.43    9.75
  -5   4   2   43.40    7.54
  -5   4   2   43.00    7.73
   5   4  -2   47.56   11.94
  -5   4   2   47.25   11.21
   5   4  -1  566.19   32.23
  -5   4   1  601.00   23.12
  -5   4   1  653.10   26.41
  -5   4   1  597.74   33.08
   5   4   0  198.25   19.63
  -5   4   0  236.91   17.13
  -5   4   0  237.20   21.07
   5   4   1  428.45   28.45
  -5   4  -1  459.13   24.42
  -5   4  -1  433.08   28.77
   5   4   1  383.26   26.49
   5   4   2  259.45   21.73
  -5   4  -2  282.83   20.06
  -5   4  -2  258.59   21.83
   5   4   2  267.36   23.27
  -5   4  -3   66.02   11.40
   5   4   3   33.64    9.78
   5   4   3   60.48   12.86
  -5   4  -3   53.23   11.46
  -5  -4  -4   75.45   13.37
  -5   4  -4   69.03   12.52
   5   4   4   55.15   11.62
  -5   4  -4   51.50   11.06
   5   4   4   33.34   10.63
  -5  -4  -5   34.00   10.81
  -5   4  -5   48.54   10.87
   5   4   5   31.68   10.64
   5   4   5   18.45   10.52
  -5   4  -5   34.75    9.24
  -5  -4  -6    6.47   10.01
  -5   4  -6   -6.85    7.50
   5   4   6    3.83    7.87
  -5   4  -6    3.97    8.60
   5   4   6    6.95    9.91
  -5  -4  -7   73.97   14.89
   5   4   7   78.48   15.92
  -5   4  -7   85.51   14.77
  -5   4  -7   77.64   14.56
   5   4   7   56.37   12.86
  -5  -4  -8  129.01   18.56
  -5   4  -8  110.93   18.76
   5   4   8   98.70   14.79
  -5   4  -8   98.47   14.42
   5   4   8   96.37   17.82
  -5  -4  -9  -19.73   11.68
  -5   4  -9    5.41   10.08
   5  -4   9   25.99   10.11
   5   4   9    0.38   11.73
  -5   4  -9    8.90   10.05
  -5  -4 -10    9.25   11.62
   5   4  10    3.10   12.63
   5  -4  10    7.33    8.32
  -5   4 -10   22.94   10.79
  -5  -4 -11  201.21   25.38
  -5   4 -11  170.29   23.39
  -5  -4 -12    2.26   12.77
  -5   4 -12   27.50   12.85
  -5  -4 -13  114.67   20.34
  -5   4 -13  144.75   23.39
  -5  -4 -14   85.97   21.90
  -5   4 -14  110.78   21.34
  -5   5  15   28.51   15.31
  -5   5  14  244.31   30.44
  -5  -5  14  267.57   31.85
  -5   5  13    3.44   11.50
  -5  -5  13   28.56   13.73
  -5   5  12  292.59   29.88
  -5  -5  12  331.47   32.23
  -5   5  11   44.85   13.96
  -5  -5  11   73.75   17.35
   5   5 -10  406.05   28.98
  -5  -5  10  400.68   33.35
  -5   5  10  426.58   33.29
  -5  -5   9  104.51   18.15
  -5   5   9  116.25   18.20
   5   5  -9  103.16   15.37
  -5   5   9  129.68   16.81
   5   5  -8  430.97   29.62
  -5  -5   8  427.10   32.23
  -5   5   8  513.02   32.34
  -5   5   8  397.74   30.27
   5   5  -7  236.01   22.53
  -5  -5   7  266.46   25.08
  -5   5   7  278.40   23.64
  -5   5   7  260.90   24.50
   5   5  -6  195.81   19.99
  -5   5   6  246.31   22.34
  -5  -5   6  215.36   22.56
  -5   5   6  235.04   21.35
  -5   5   5   -4.36    7.82
  -5  -5   5    1.16    8.95
   5   5  -5   11.77    8.13
  -5   5   5   -3.03    8.61
   5   5  -4  130.95   17.51
  -5   5   4  177.99   19.39
  -5  -5   4  179.48   20.55
  -5   5   4  172.62   17.10
   5   5  -3  390.94   28.13
  -5  -5   3  417.74   29.29
  -5   5   3  358.23   27.93
  -5   5   3  467.94   24.18
  -5   5   2   19.12    6.82
   5   5  -2   -0.63    7.75
  -5   5   2   11.54    8.29
  -5   5   1   61.43    8.94
   5   5  -1   53.44   12.72
  -5   5   1   57.71   11.99
   5   5  -1   59.71   12.22
  -5   5   0   19.69    7.84
   5   5   0   29.46   10.35
  -5   5   0   24.94    9.82
   5   5   0   32.11    9.60
   5   5   1  349.53   27.03
  -5   5  -1  354.87   22.13
  -5   5  -1  322.26   24.93
   5   5   1  335.15   24.38
   5   5   2  811.91   40.70
  -5   5  -2  864.48   37.38
  -5   5  -2  796.75   39.77
   5   5   2  796.95   40.38
   5   5   3  282.33   24.04
  -5  -5  -3  289.32   22.64
  -5   5  -3  356.81   24.57
   5   5   3  297.12   25.34
  -5   5  -3  357.71   26.26
   5   5   4  810.51   41.04
  -5  -5  -4  869.82   40.55
  -5   5  -4  911.63   41.18
  -5   5  -4  828.28   40.62
   5   5   4  816.21   43.15
  -5  -5  -5   37.19   12.09
  -5   5  -5   54.53   13.51
   5   5   5   45.00   12.15
  -5   5  -5   47.31   11.34
   5   5   5   30.19   13.00
  -5  -5  -6  765.62   40.55
   5   5   6  713.07   39.61
  -5   5  -6  750.64   40.13
  -5   5  -6  773.15   40.03
   5   5   6  736.24   43.67
  -5  -5  -7   -7.91    9.98
   5   5   7   11.75   10.62
  -5   5  -7    0.36    7.67
   5   5   7    2.64    8.06
  -5   5  -7   -6.81    8.43
  -5  -5  -8  892.95   47.69
   5   5   8  844.36   43.14
  -5   5  -8  907.83   47.97
  -5   5  -8  929.44   44.11
   5   5   8  780.06   48.39
  -5  -5  -9  107.76   19.35
  -5   5  -9  116.72   18.99
   5   5   9   77.96   17.72
  -5  -5 -10  191.88   24.34
  -5   5 -10  204.11   25.11
  -5  -5 -11   93.13   19.21
  -5   5 -11   71.22   15.85
  -5  -5 -12   43.88   15.69
  -5  -5 -13   97.82   20.16
  -5   5 -14   17.28   13.11
  -5  -6  14    5.00   12.50
  -5   6  14   11.17   15.14
  -5  -6  13  742.77   49.58
  -5   6  13  677.69   48.98
  -5   6  12   26.13   13.67
  -5  -6  12   -5.86   11.66
  -5  -6  11  721.93   46.85
  -5   6  11  651.47   44.88
  -5   6  10    9.22   12.68
  -5  -6  10   22.88   14.09
   5   6 -10   25.50   12.61
  -5   6   9  123.75   18.90
   5   6  -9  145.53   19.46
  -5  -6   9  123.11   19.47
  -5   6   9  124.22   16.99
  -5   6   8   31.39   12.04
  -5   6   8   53.05   12.87
   5   6  -8   42.18   12.95
  -5  -6   8   54.17   16.17
  -5   6   7   21.44    8.86
  -5  -6   7   13.40   11.09
   5   6  -7   20.97   10.05
  -5   6   7   49.48   12.71
  -5   6   6   42.97   12.19
   5   6  -6   58.72   13.62
  -5  -6   6   49.03   14.73
  -5   6   6   38.16   11.61
  -5   6   5  101.58   14.64
  -5  -6   5  104.95   17.52
   5   6  -5   95.07   16.38
  -5   6   5   93.46   16.76
  -5  -6   4    7.22    9.56
   5   6  -4   22.11   11.16
  -5   6   4    6.77    8.34
  -5   6   4   24.33   10.15
   5   6  -3   53.23   12.77
   5   6  -3   62.32   10.17
  -5   6   3   54.20   11.81
  -5   6   3   70.39   11.18
   5   6  -2   -0.79    9.44
  -5   6   2   41.27   12.45
   5   6  -2    6.52    7.99
  -5   6   1   17.60    7.48
   5   6  -1    9.62    8.29
  -5   6   1   26.29   10.44
   5   6  -1   21.75    9.26
  -5   6   0   16.39    7.71
   5   6   0   11.26    8.76
  -5   6   0   30.32   10.58
   5   6   0   36.42   10.49
   5   6   1  621.60   37.13
  -5   6  -1  694.02   33.27
  -5   6  -1  697.73   38.53
   5   6   1  681.94   37.63
  -5   6  -2   14.78    9.63
   5   6   2   10.97   10.21
  -5   6  -2   14.48    8.91
   5   6   2  -13.40    9.24
  -5  -6  -3  656.41   33.53
   5   6   3  549.50   34.98
  -5   6  -3  611.27   33.42
  -5   6  -3  633.65   36.94
   5   6   3  618.38   37.37
  -5  -6  -4   24.04    9.85
  -5   6  -4   35.50   10.52
   5   6   4   53.95   13.44
  -5   6  -4   40.69   12.67
   5   6   4   31.54   13.24
  -5  -6  -5  591.17   35.02
   5   6   5  532.21   34.51
  -5   6  -5  606.71   35.77
  -5   6  -5  621.23   36.38
   5   6   5  587.22   39.32
  -5  -6  -6   42.39   14.11
  -5   6  -6   19.69    8.75
   5   6   6   25.35    9.93
  -5   6  -6   23.74   10.69
   5   6   6   29.72   13.17
  -5  -6  -7  827.84   44.58
   5   6   7  735.08   41.77
  -5   6  -7  837.56   44.63
  -5   6  -7  874.30   43.39
   5   6   7  698.56   45.90
  -5  -6  -8   -3.90   10.44
  -5   6  -8   -9.84    9.84
   5   6   8  -17.18   11.00
  -5   6  -8   15.37   10.14
   5   6   8    7.00   11.27
  -5  -6  -9  429.41   35.18
  -5   6  -9  494.34   36.07
   5   6   9  427.29   35.18
  -5  -6 -10   -4.36   11.39
  -5   6 -10   22.45   10.95
  -5  -6 -11  107.12   20.39
  -5   6 -11  129.10   22.31
  -5  -6 -12   10.58   11.95
  -5   6 -12   26.07   12.20
  -5  -6 -13   11.69   12.30
  -5   7  13   44.86   17.79
  -5  -7  13   63.83   18.85
  -5  -7  12  311.34   32.78
  -5   7  12  321.48   33.63
  -5   7  11   40.46   14.41
  -5  -7  11   43.50   15.73
  -5  -7  10  169.60   23.80
  -5   7  10  161.58   22.25
  -5   7   9  186.76   24.10
  -5  -7   9  150.56   22.48
   5   7  -9  209.92   23.70
  -5   7   9  158.44   20.73
  -5   7   8   86.70   16.91
   5   7  -8  102.55   17.64
  -5  -7   8  107.56   19.67
  -5   7   8   93.98   18.60
   5   7  -7  467.61   33.95
  -5  -7   7  492.25   37.61
  -5   7   7  520.13   35.81
  -5   7   7  524.32   35.21
  -5  -7   6   55.52   15.21
   5   7  -6   58.21   14.35
  -5   7   6   70.95   14.50
  -5   7   6   58.22   15.05
  -5  -7   5  161.47   22.13
   5   7  -5  136.01   18.90
  -5   7   5  158.56   19.18
  -5   7   5  143.12   16.93
   5   7  -4  192.62   22.13
  -5   7   4  197.76   23.17
  -5   7   4  199.31   19.41
   5   7  -3  113.02   18.52
  -5   7   3   79.06   15.54
   5   7  -2  232.05   25.17
  -5   7   2  235.77   24.34
   5   7  -2  257.35   21.11
  -5   7   1  122.44   14.03
   5   7  -1  134.85   18.73
  -5   7   1   99.76   16.47
   5   7  -1  119.59   16.09
   5   7   0  356.27   29.13
  -5   7   0  333.46   23.16
  -5   7   0  347.22   28.25
   5   7   0  335.39   26.19
  -5   7  -1  204.09   18.54
   5   7   1  171.79   21.06
  -5   7  -1  196.52   21.94
   5   7   1  182.55   20.97
   5   7   2  573.80   37.22
  -5   7  -2  642.44   34.49
  -5   7  -2  619.75   38.04
   5   7   2  568.38   35.35
   5   7   3  389.33   30.17
  -5   7  -3  384.99   27.87
  -5   7  -3  353.57   29.10
   5   7   3  342.47   28.88
  -5  -7  -4  361.03   25.86
   5   7   4  358.77   29.43
  -5   7  -4  397.50   28.61
  -5   7  -4  377.67   29.78
   5   7   4  294.26   28.80
  -5  -7  -5   98.34   15.78
  -5   7  -5   96.81   15.82
   5   7   5   69.67   14.90
  -5   7  -5   88.73   16.62
   5   7   5   61.48   15.06
  -5  -7  -6  111.76   17.21
  -5   7  -6  108.83   16.67
   5   7   6  150.34   20.48
  -5   7  -6  145.88   19.21
   5   7   6  126.96   21.51
  -5  -7  -7  380.67   31.35
   5   7   7  327.77   29.34
  -5   7  -7  399.84   32.05
  -5   7  -7  371.41   29.97
   5   7   8  314.33   29.81
  -5  -7  -8  228.32   25.21
  -5   7  -8  288.39   28.27
  -5   7  -8  264.57   25.15
  -5  -7  -9  113.93   20.31
  -5   7  -9  103.22   19.09
   5   7   9   96.36   21.14
  -5  -7 -10  172.84   24.98
  -5   7 -10  161.79   22.61
  -5  -7 -11   27.30   16.08
  -5   7 -11   16.74   12.34
  -5  -7 -12   13.73   12.10
  -5   7 -12   13.93   12.86
  -5   8  13   43.81   16.53
  -5   8  12    1.28   12.46
  -5  -8  12   22.72   15.30
  -5   8  11   42.47   16.48
  -5  -8  11   18.86   14.53
  -5   8  10   15.46   12.12
  -5  -8  10   16.11   14.23
  -5   8   9  152.74   21.20
  -5  -8   9  166.66   24.39
   5   8  -9  181.38   23.67
  -5   8   9  122.24   21.71
  -5  -8   8  223.90   27.04
   5   8  -8  213.33   25.16
  -5   8   8  221.39   24.44
  -5   8   8  206.89   24.61
   5   8  -7  248.69   27.13
  -5   8   7  279.55   27.17
  -5  -8   7  222.74   26.37
  -5   8   7  252.66   26.87
   5   8  -6    3.55    9.34
  -5   8   6   19.88   11.38
  -5   8   6   40.81   14.77
   5   8  -5  431.07   33.84
  -5   8   5  416.50   33.90
   5   8  -4   63.30   15.02
  -5   8   4   48.21   14.02
   5   8  -3  395.54   32.70
  -5   8   3  410.43   32.92
   5   8  -2   87.16   16.83
  -5   8   2   85.70   17.06
   5   8  -1  469.61   35.65
  -5   8   1  554.36   37.52
  -5   8   0  120.14   15.73
   5   8   0  100.62   18.30
  -5   8   0   96.77   16.92
   5   8   0   94.82   14.66
  -5   8  -1  232.15   21.66
   5   8   1  179.59   22.70
  -5   8  -1  193.97   23.00
   5   8   1  196.10   22.71
  -5   8  -2   49.77   13.08
   5   8   2   34.96   11.54
  -5   8  -2   59.98   15.70
   5   8   2   62.35   16.20
  -5   8  -3   48.30   12.41
   5   8   3   64.26   14.74
  -5   8  -3   53.93   13.30
   5   8   3   53.63   14.93
  -5   8  -4  125.97   17.27
   5   8   4  116.07   19.01
  -5   8  -4   99.52   17.55
  -5   8  -5  220.90   23.27
  -5   8  -5  283.85   27.40
   5   8   5  215.04   25.61
  -5  -8  -6    8.30   10.71
  -5   8  -6   -5.53   10.91
   5   8   6    2.24    9.73
  -5   8  -6   16.43   10.75
  -5  -8  -7   21.35   12.92
  -5   8  -7   37.39   13.55
   5   8   7   22.22   11.38
  -5   8  -7   16.70   11.91
  -5  -8  -8  122.74   20.56
  -5   8  -8  129.53   20.61
   5   8   8  126.51   20.70
  -5   8  -8  152.28   21.79
  -5  -8  -9    5.51   10.10
  -5   8  -9   26.93   13.16
   5   8   9   22.92   12.67
  -5  -8 -10  120.08   21.44
  -5   8 -10  103.61   19.71
   5   8  10   96.84   21.31
  -5  -8 -11  191.90   26.27
  -5   8 -11  235.32   29.03
  -5   9  12   45.94   18.91
  -5   9  11   49.91   17.38
  -5  -9  10   12.61   14.11
  -5   9  10   37.85   15.41
   5   9  -9   40.16   15.18
  -5   9   9   40.72   12.87
  -5   9   9   20.21   12.53
   5   9  -8  181.04   24.81
  -5   9   8  202.44   24.99
  -5   9   8  208.25   26.29
   5   9  -7   17.34   13.42
  -5   9   7   18.52   11.11
  -5   9   7    3.66   11.67
   5   9  -6  196.75   24.40
  -5   9   6  180.02   23.59
   5   9  -5  -22.76   13.59
  -5   9   5   13.34   11.05
   5   9  -4  483.82   38.13
  -5   9   4  481.02   37.21
   5   9  -3   -0.57   12.23
  -5   9   3   26.38   12.21
   5   9  -2  882.69   51.60
  -5   9   2  930.53   52.43
   5   9  -1   18.23   12.64
  -5   9   1   27.61   14.19
   5   9   0  395.47   35.07
  -5   9   0  393.36   33.67
  -5   9  -1   52.58   12.28
   5   9   1   23.66   13.11
  -5   9  -1   43.30   14.06
  -5   9  -2   22.87   10.91
   5   9   2   10.88   10.83
  -5   9  -2   13.54    9.93
  -5   9  -3   28.91    9.53
   5   9   3   19.38   12.99
  -5   9  -3   32.23   12.34
  -5   9  -4    5.49    9.37
   5   9   4    0.12   11.47
  -5   9  -4   25.04   14.20
  -5   9  -5   11.90    9.20
   5   9   5    8.56   12.89
  -5   9  -5   -5.98    9.76
  -5   9  -6   25.18   12.75
   5   9   6  -26.30   13.15
  -5   9  -6   -2.14    9.86
  -5   9  -7    3.22    9.97
   5   9   7  -10.48   11.62
  -5   9  -7   17.58   12.54
  -5   9  -8   23.92   12.18
   5   9   8   26.80   13.43
  -5   9  -8    2.45   10.79
  -5  -9  -9    1.91   11.30
  -5   9  -9   15.28   12.89
   5   9   9   -0.92   12.75
  -5  -9 -10  126.36   22.72
   5   9  10  140.23   25.68
  -5  -9 -11   20.54   11.51
  -5  10  10   42.10   16.69
   5  10  -9  102.64   20.12
  -5  10   9   48.10   15.98
  -5  10   9   68.53   19.58
   5  10  -8   53.90   16.61
  -5  10   8   65.48   15.89
   5  10  -7  202.75   27.24
  -5  10   7  234.98   27.99
   5  10  -6   85.89   18.83
  -5  10   6   88.54   18.81
   5  10  -5  508.86   40.90
  -5  10   5  510.29   40.94
   5  10  -4   85.10   18.95
  -5  10   4   79.29   18.63
   5  10  -3  314.21   32.56
  -5  10   3  320.24   31.94
   5  10  -2   12.82   13.97
  -5  10   2    8.64   11.62
   5  10  -1  509.12   41.58
  -5  10   1  527.19   40.49
   5  10   0   95.32   18.89
  -5  10   0  157.34   22.85
   5  10   1  288.82   31.70
  -5  10  -1  327.02   27.74
  -5  10  -1  295.79   30.84
  -5  10  -2   77.28   15.97
   5  10   2   79.61   17.94
  -5  10  -2  100.87   20.49
  -5  10  -3   39.05   12.95
   5  10   3   12.64   12.46
  -5  10  -3   36.26   15.34
  -5  10  -4   45.52   13.64
   5  10   4   29.92   14.24
  -5  10  -4   37.03   14.14
  -5  10  -5   48.95   13.58
   5  10   5   48.68   16.20
  -5  10  -5   73.00   16.17
  -5  10  -6   35.95   15.98
   5  10   6    7.01   11.75
  -5  10  -6   13.74   11.41
  -5  10  -7   -7.58   11.16
   5  10   7    0.32   11.00
  -5  10  -7   10.91   12.02
  -5  10  -8  115.24   20.45
   5  10   8  104.67   21.94
  -5  10  -8   63.67   15.44
   5  10   9   12.51   13.13
   5  11  -9  116.31   22.62
  -5  11   8  273.54   32.17
   5  11  -8  220.42   29.59
   5  11  -7   60.72   17.96
  -5  11   7   88.20   19.25
   5  11  -6   44.94   16.31
  -5  11   6   91.67   18.86
   5  11  -5    7.26   10.77
  -5  11   5   -0.15   11.64
   5  11  -4   76.20   19.67
  -5  11   4   78.47   18.94
   5  11  -3    8.58   13.37
  -5  11   3    5.69   12.40
   5  11  -2   68.31   18.32
  -5  11   2   90.07   20.12
   5  11  -1  161.66   25.05
  -5  11   1  148.20   24.46
   5  11   0  160.60   25.69
  -5  11   0   87.26   21.41
   5  11   1  228.51   29.98
  -5  11  -1  283.35   31.42
  -5  11  -2   69.29   16.85
   5  11   2   41.36   16.82
  -5  11  -2   55.91   17.05
  -5  11  -3   27.55   11.83
   5  11   3   65.37   18.94
  -5  11  -3   45.51   15.33
  -5  11  -4  175.83   24.00
   5  11   4  124.99   22.54
  -5  11  -4  146.44   24.68
  -5  11  -5   53.76   15.43
   5  11   5   24.53   14.73
  -5  11  -5   24.04   12.10
  -5  11  -6  220.70   28.60
   5  11   6  194.33   28.72
  -5  11  -6  234.04   28.84
   5  11   7  -11.17   13.15
  -5  11  -7   37.43   14.35
  -5  11  -8  116.06   21.69
  -5  12  -3  234.34   27.53
  -5  12  -4   63.95   15.65
  -6   0  15    4.86   11.44
  -6   0  14   30.93   16.49
  -6   0  13   10.31   11.77
  -6   0  12   18.96   10.29
  -6   0  11    4.84   10.43
   6   0 -10   82.66   13.55
  -6   0  10   42.71   14.53
  -6   0   9   12.77    9.38
   6   0  -9   -2.43    9.31
  -6   0   8  102.15   16.32
   6   0  -8  114.68   14.76
  -6   0   7    9.95    9.46
   6   0  -7    7.63    8.33
  -6   0   6   57.49   12.76
   6   0  -6   37.68   10.00
   6   0  -5   -2.83    7.52
  -6   0   5   -2.24    7.49
  -6   0   4  222.63   18.74
   6   0  -4  238.27   20.83
   6   0  -3   -2.67    8.84
  -6   0   3    7.97    7.76
  -6   0   2 3051.68   77.93
   6   0  -2 3044.00   87.04
   6   0  -1   -0.51    7.51
  -6   0   1    2.59    5.29
  -6   0   0 2062.57   54.61
   6   0   0 1907.78   65.41
   6   0   1   -5.69    7.41
   6   0   2  256.20   22.05
   6   0   3    2.03    7.37
   6   0   4  920.27   42.48
   6   0   5    7.30    8.24
   6   0   6  123.32   15.71
   6   0   7   10.42    8.51
   6   0   7    3.02    9.95
   6   0   8  100.02   15.13
   6   0   8   46.00   13.69
   6   0   9   35.24   13.46
   6   0  10   15.19   10.43
   6   0  11   22.63   15.41
  -6   0 -11   -6.57   10.46
   6   0  12   44.22   15.79
  -6   0 -12   50.68   15.51
   6   0  13  -17.27   12.93
   6   0  14   99.40   21.88
  -6  -1  15  167.27   25.80
  -6   1  15  157.81   25.23
  -6  -1  14  -17.02   11.97
  -6   1  14   29.47   17.65
  -6  -1  13  104.20   20.20
  -6   1  13   85.86   18.17
  -6  -1  12   95.02   18.61
  -6   1  12  116.10   20.16
  -6   1  11  354.55   31.10
  -6  -1  11  327.90   29.84
  -6  -1  10   59.97   14.58
   6  -1 -10   69.73   12.81
   6   1 -10   62.61   11.69
  -6   1  10   55.92   15.02
  -6   1   9  201.56   22.67
  -6  -1   9  219.55   23.57
   6  -1  -9  245.81   22.08
   6   1  -9  204.67   20.26
  -6   1   8  104.87   15.95
   6  -1  -8   72.64   14.14
  -6  -1   8  117.83   17.61
   6   1  -8   97.33   14.87
  -6   1   7  243.66   22.30
  -6  -1   7  226.90   21.37
   6  -1  -7  187.52   19.07
   6   1  -7  206.31   20.66
  -6   1   6  267.06   22.08
  -6  -1   6  254.03   21.98
   6  -1  -6  203.51   19.54
   6   1  -6  221.13   20.61
  -6   1   5  144.82   16.06
   6  -1  -5  117.24   15.78
   6   1  -5  149.02   17.31
  -6  -1   5  157.83   17.63
  -6   1   4  187.22   16.78
   6  -1  -4  166.50   17.99
  -6  -1   4  195.03   18.71
   6   1  -4  172.45   18.16
  -6   1   3  542.92   26.89
  -6  -1   3  520.42   28.59
   6  -1  -3  543.44   31.38
   6   1  -3  523.26   30.94
  -6   1   2  537.54   25.26
  -6  -1   2  526.96   27.42
   6  -1  -2  470.37   30.00
   6   1  -2  535.35   31.38
  -6  -1   1 1450.75   47.65
   6  -1  -1 1432.52   54.20
   6   1  -1 1425.19   54.76
   6  -1   0  107.75   15.44
   6   1   0  157.41   17.48
   6  -1   1  924.87   41.88
   6   1   1  943.25   42.67
   6  -1   2  253.18   21.57
   6   1   2  244.57   21.20
   6  -1   3  810.80   39.84
   6   1   3  755.77   38.75
   6  -1   4  616.23   34.55
   6   1   4  640.96   34.90
   6  -1   5  175.80   19.09
   6   1   5  178.80   19.88
   6   1   6  383.56   30.63
   6  -1   6  381.62   26.81
   6   1   6  359.98   27.39
   6  -1   7   18.06   10.21
   6   1   7    0.48    7.31
   6   1   7    5.34    9.69
   6  -1   8   37.61    8.42
   6   1   8   47.60   12.05
   6  -1   8   41.59   11.91
   6   1   8   41.34   13.88
  -6   1  -8   32.03    9.65
   6   1   9    1.20    9.27
   6  -1   9    4.97    9.65
  -6   1  -9   13.77    9.93
   6  -1  10    8.76    9.27
   6   1  10    5.10   12.73
  -6   1 -10   16.88   11.71
   6   1  11   42.57   15.49
  -6   1 -11    4.48   10.82
   6  -1  11   40.97   13.48
   6  -1  12  127.74   21.68
   6   1  12  143.50   23.84
  -6   1 -12  138.03   21.97
   6   1  13  206.36   27.80
   6  -1  13  239.85   29.18
  -6   1 -13  232.81   28.07
   6  -1  14  261.45   31.78
  -6   1 -14  239.27   29.39
  -6  -2  15   31.83   13.96
  -6   2  15    9.87   16.05
  -6  -2  14   73.67   20.27
  -6   2  14   74.71   17.48
  -6  -2  13   38.48   16.97
  -6   2  13   43.40   14.76
  -6   2  12  571.69   41.10
  -6  -2  12  503.54   38.84
  -6  -2  11  199.14   25.17
  -6   2  11  194.23   23.14
  -6   2  10  327.82   28.59
  -6  -2  10  311.17   28.76
   6  -2 -10  328.17   25.83
   6   2 -10  307.63   25.11
   6  -2  -9    5.20    8.28
   6   2  -9    0.24    8.12
  -6  -2   9   19.03   11.79
  -6   2   9   -0.30    8.85
  -6   2   8  263.75   23.93
  -6  -2   8  252.12   23.75
   6  -2  -8  252.49   22.89
   6   2  -8  269.93   23.72
  -6   2   7  244.07   22.56
  -6  -2   7  245.76   23.51
   6  -2  -7  232.16   21.62
   6   2  -7  252.07   22.59
  -6   2   6  619.10   33.33
  -6  -2   6  618.51   35.96
  -6   2   6  650.90   36.82
   6  -2  -6  629.10   34.79
   6   2  -6  642.63   35.59
  -6   2   5  200.14   18.13
  -6  -2   5  217.49   20.73
  -6   2   5  200.49   21.14
   6   2  -5  189.84   19.46
  -6  -2   4   20.36    9.41
   6   2  -4   31.92    8.91
  -6   2   4   13.61    8.45
  -6   2   4   20.19    7.85
  -6   2   3   90.09   10.96
   6   2  -3   82.24   14.15
  -6  -2   3   88.37   13.55
  -6   2   3  102.20   15.85
   6   2  -2   30.53    9.26
  -6  -2   2   39.81    8.61
  -6   2   2   48.15   11.48
   6   2  -1   27.01    9.90
  -6   2   1   60.22   13.87
  -6  -2   1   52.68   11.49
   6   2   0   25.61    9.57
  -6   2   0   37.09   10.34
   6   2   1  169.25   19.03
  -6   2  -1  173.62   19.27
   6   2   2   18.74   10.18
  -6   2  -2    2.05    8.17
  -6   2  -3  447.10   30.73
   6   2   3  388.51   27.92
  -6   2  -4  347.65   27.23
   6  -2   4  329.79   24.02
   6   2   4  318.83   25.50
  -6   2  -5  331.13   25.93
   6   2   5  291.23   27.30
   6  -2   5  290.24   23.03
   6   2   5  269.12   23.42
   6   2   6  413.50   32.40
   6  -2   6  464.47   29.43
   6   2   6  415.14   28.77
   6  -2   7   79.75   13.07
   6   2   7   80.93   15.60
   6   2   7   52.41   13.45
  -6   2  -7   77.94   12.85
   6  -2   8  593.65   38.06
   6   2   8  561.80   40.25
  -6   2  -8  521.06   33.35
   6  -2   8  566.57   32.77
   6   2   8  575.84   33.89
   6  -2   9   -8.49   10.26
   6   2   9   43.92   14.70
  -6   2  -9   13.11   10.15
   6  -2  10  333.29   30.86
   6   2  10  389.93   35.18
  -6   2 -10  285.49   27.95
   6  -2  11   25.30   12.02
   6   2  11   14.86   11.55
  -6   2 -11   26.23   14.37
   6  -2  12  117.80   19.65
   6   2  12   79.42   20.33
  -6   2 -12  100.93   19.07
   6   2  13  123.50   23.30
  -6   2 -13  123.93   22.18
  -6   2 -14  115.83   21.88
  -6  -3  14   47.48   17.26
  -6   3  14   31.13   15.53
  -6  -3  13  182.45   24.74
  -6   3  13  141.90   22.73
  -6  -3  12   -6.46   10.45
  -6   3  12   -1.45    9.70
  -6   3  11  519.20   37.49
  -6  -3  11  462.34   36.92
   6  -3 -10   14.36    9.49
   6   3 -10    3.89    7.98
  -6   3  10    0.46    8.71
  -6  -3  10   13.93   10.32
   6   3  -9  890.54   43.87
  -6   3   9  930.88   47.70
  -6  -3   9  872.82   47.95
  -6   3   9  992.24   46.83
   6  -3  -9  929.55   43.60
   6   3  -8   -4.33    8.09
  -6   3   8    9.64    9.97
  -6  -3   8    0.56    9.04
  -6   3   8    7.91    8.92
  -6   3   7  911.00   43.95
  -6  -3   7  903.72   46.42
  -6   3   7  980.21   46.11
   6   3  -7  928.42   44.57
  -6  -3   6    1.30    8.81
   6   3  -6    2.67    8.42
  -6   3   6   -2.18    9.01
  -6   3   6   -3.94    8.33
  -6   3   5  590.93   30.91
  -6  -3   5  569.55   34.11
  -6   3   5  573.50   34.12
   6   3  -5  568.13   34.64
   6   3  -4    5.85    8.92
  -6  -3   4    6.92    9.52
  -6   3   4    2.75    6.63
  -6   3   4    0.74    7.91
   6   3  -3  150.22   18.33
  -6  -3   3  142.28   16.86
  -6   3   3  167.68   18.87
  -6   3   2   22.21    9.14
   6   3  -2    7.73    7.84
  -6  -3   2   30.95   10.33
   6   3  -1   -8.52    9.55
  -6   3   1    5.41    7.88
   6   3   0   13.95    8.54
  -6   3   0    4.44    7.62
  -6   3  -1    5.69    9.38
   6   3   1    6.80    8.65
   6   3   2    9.54    9.16
  -6   3  -2    3.13    7.40
   6   3   3  133.83   17.51
   6   3   3  146.74   18.83
  -6   3  -3  132.18   18.04
   6   3   4    0.91    8.78
   6   3   4    1.36    8.95
  -6   3  -4   -4.36    7.38
   6   3   5  145.13   17.90
   6   3   5  127.92   19.35
  -6   3  -5  116.44   16.49
   6   3   6   -0.80    7.70
   6   3   6   12.48   11.20
  -6   3  -6  -13.57   10.27
   6   3   7  842.90   42.34
  -6   3  -7  927.71   44.88
   6   3   7  784.58   47.78
   6  -3   7  888.88   42.12
   6  -3   8   82.88   13.91
   6   3   8   89.77   15.87
   6   3   8   62.23   16.39
  -6   3  -8   68.30   14.17
  -6  -3  -9  980.12   54.60
   6  -3   9  957.80   49.86
   6   3   9  947.05   54.39
  -6   3  -9  891.64   47.11
  -6  -3 -10   75.17   17.86
   6  -3  10   65.21   14.61
   6   3  10   61.32   17.13
  -6   3 -10   42.04   15.35
  -6  -3 -11  330.08   34.05
   6  -3  11  370.71   31.87
   6   3  11  371.58   36.07
  -6   3 -11  296.85   30.39
  -6  -3 -12   33.31   15.95
   6   3  12   37.27   17.60
  -6   3 -12   37.82   14.97
  -6  -3 -13  168.20   26.88
  -6   3 -13  171.89   25.04
  -6   3 -14   23.22   15.67
  -6   4  14   43.05   16.09
  -6  -4  14   84.66   20.26
  -6   4  13   56.04   17.83
  -6  -4  13   62.03   17.37
  -6   4  12   90.04   17.56
  -6  -4  12  113.40   20.73
  -6   4  11   -4.03   10.75
  -6  -4  11   -6.93   12.44
  -6  -4  10  264.73   28.03
   6   4 -10  192.46   20.61
  -6   4  10  191.09   22.74
  -6   4  10  241.15   23.34
   6   4  -9   16.67   10.40
  -6   4   9   10.80   10.29
  -6   4   9    3.83    9.15
  -6  -4   9   10.71   10.27
   6   4  -8  321.89   27.22
  -6   4   8  339.50   28.06
  -6  -4   8  354.46   30.10
  -6   4   8  357.46   28.33
  -6  -4   7   87.76   16.83
   6   4  -7   83.02   15.26
  -6   4   7   81.77   14.75
  -6   4   7   61.77   13.59
   6   4  -6  410.00   29.82
  -6   4   6  469.65   29.52
  -6  -4   6  392.71   30.25
  -6   4   6  493.14   32.90
   6   4  -5  129.38   17.60
  -6   4   5  121.41   15.19
  -6   4   5  166.19   19.44
  -6  -4   5  160.56   19.89
   6   4  -4  273.94   24.36
  -6  -4   4  280.65   25.01
  -6   4   4  283.98   24.91
   6   4  -3  280.80   25.11
  -6  -4   3  293.65   24.92
  -6   4   3  282.94   24.98
   6   4  -2  123.95   17.74
  -6   4   2  158.01   20.24
   6   4  -1    0.52    8.87
  -6   4   1   22.92    9.88
   6   4   0   20.35   11.06
  -6   4   0   -2.63    8.15
   6   4   1   30.60   10.43
  -6   4  -1   28.06   11.41
   6   4   2   19.65    8.66
  -6   4  -2   27.68   10.76
   6   4   2   10.40    9.03
   6   4   3   59.60   12.72
  -6   4  -3  122.18   17.57
   6   4   3   91.92   16.27
   6   4   4  299.66   25.54
  -6   4  -4  310.99   26.09
   6   4   4  335.18   28.87
   6   4   5  102.97   16.54
   6   4   5   81.94   15.99
  -6   4  -5  105.01   16.36
   6   4   6  385.23   29.46
  -6   4  -6  414.10   30.59
   6   4   6  420.56   34.92
  -6  -4  -7   -3.59    9.64
   6   4   7   16.01   11.58
   6   4   7    9.63   11.34
  -6   4  -7  -13.87   11.05
   6   4   8  591.28   37.87
  -6  -4  -8  688.96   44.54
  -6   4  -8  633.42   37.83
   6   4   8  606.27   43.46
  -6  -4  -9   20.62   11.98
   6  -4   9   30.85   10.80
   6   4   9   35.28   17.76
  -6  -4 -10  395.46   35.70
   6  -4  10  471.31   34.69
   6   4  10  375.79   37.82
  -6  -4 -11   56.77   18.52
   6   4  11  122.16   22.55
  -6  -4 -12  131.93   23.12
  -6   4 -13   49.92   15.92
  -6   5  14   64.04   19.73
  -6  -5  13  156.73   23.69
  -6   5  13  154.66   25.69
  -6  -5  12   38.99   15.22
  -6   5  12    5.95   12.28
  -6  -5  11  134.15   21.62
  -6   5  11  107.41   19.10
  -6  -5  10   36.17   13.15
  -6   5  10   35.61   12.82
   6   5 -10   35.65   12.94
  -6   5   9  265.55   26.17
   6   5  -9  279.70   26.99
  -6  -5   9  275.53   28.69
  -6   5   9  287.68   27.04
  -6   5   8   11.02   10.40
   6   5  -8   16.60   11.38
  -6  -5   8    6.97   12.73
  -6   5   8    0.62   10.87
   6   5  -7  212.32   23.67
  -6   5   7  192.82   21.37
  -6  -5   7  210.65   23.94
  -6   5   7  203.87   22.96
  -6  -5   6  108.88   18.21
  -6   5   6   82.57   13.44
   6   5  -6   97.37   15.94
  -6   5   6   99.33   17.06
   6   5  -5  311.79   26.71
  -6  -5   5  357.95   29.29
  -6   5   5  325.16   27.83
   6   5  -4  274.61   25.25
  -6  -5   4  293.19   26.45
  -6   5   4  273.04   26.15
   6   5  -3  400.43   31.05
  -6   5   3  406.68   30.67
   6   5  -2   33.91   12.36
  -6   5   2   43.09   12.78
   6   5  -1  122.41   18.17
  -6   5   1  147.19   19.48
   6   5  -1  102.64   14.86
   6   5   0  130.19   18.23
  -6   5   0  155.55   19.83
   6   5   0  140.07   18.97
   6   5   1  559.07   37.10
  -6   5  -1  651.72   32.62
  -6   5  -1  577.60   36.91
   6   5   1  627.55   36.74
  -6   5  -2   59.33   12.40
   6   5   2   30.85   11.37
  -6   5  -2   68.28   14.00
   6   5   2   50.18   13.66
   6   5   3  451.38   32.84
  -6   5  -3  532.59   32.04
  -6   5  -3  552.21   35.74
   6   5   3  513.25   35.53
   6   5   4  233.38   23.64
  -6   5  -4  230.91   23.09
  -6   5  -4  238.62   23.90
   6   5   4  222.52   24.86
  -6   5  -5   11.47   10.33
   6   5   5   33.27   13.46
  -6   5  -5   10.16    8.69
   6   5   5    5.12   11.43
   6   5   6  264.18   25.68
  -6  -5  -6  203.57   23.35
  -6   5  -6  261.98   26.11
  -6   5  -6  267.90   25.84
   6   5   6  239.06   26.88
  -6  -5  -7  126.53   20.18
  -6   5  -7  127.31   19.77
   6   5   7  147.09   19.50
  -6   5  -7  167.02   20.77
   6   5   7   88.24   18.79
  -6  -5  -8   19.62   12.44
   6   5   8   31.75   12.43
  -6   5  -8   39.98   13.69
   6   5   8    2.54   11.62
  -6  -5  -9  109.09   20.63
   6   5   9   56.19   16.92
  -6  -5 -10   -6.29   13.03
   6   5  10  -10.62   15.00
  -6  -5 -11    1.78   11.72
  -6  -5 -12  103.44   21.40
  -6   6  13   38.76   18.07
  -6   6  12   79.36   17.96
  -6  -6  12   47.79   16.03
  -6   6  11   30.79   15.02
  -6  -6  11    9.93   12.15
  -6   6  10    6.33   12.48
  -6  -6  10   25.34   13.98
  -6   6   9   27.68   12.45
   6   6  -9   22.70   13.97
  -6   6   9   22.10   12.73
  -6  -6   9   19.35   13.81
  -6  -6   8   16.47   12.50
  -6   6   8   18.76   13.20
   6   6  -8    1.68   10.07
  -6   6   8    5.61   12.03
  -6   6   7    3.36    9.85
   6   6  -7   29.97   13.29
  -6  -6   7    6.56   11.42
  -6   6   7   17.88   10.96
   6   6  -6  244.37   25.09
  -6  -6   6  248.36   27.78
  -6   6   6  242.14   25.34
   6   6  -5    7.42   10.09
  -6  -6   5   -4.34   10.66
  -6   6   5    8.64    9.69
   6   6  -4  405.80   31.89
  -6   6   4  452.15   33.44
   6   6  -3  298.45   27.64
  -6   6   3  311.63   27.81
   6   6  -3  306.08   23.46
   6   6  -2  465.36   33.97
  -6   6   2  481.44   34.11
   6   6  -2  493.37   30.76
   6   6  -1  229.98   24.49
   6   6  -1  228.97   21.88
  -6   6   1  220.27   23.53
   6   6   0  988.82   50.49
  -6   6   0 1051.14   51.33
   6   6   0  991.51   46.78
  -6   6  -1   14.32    7.83
   6   6   1    9.20   10.91
  -6   6  -1   17.47   11.69
   6   6   1   11.94    9.71
   6   6   2  761.66   43.88
  -6   6  -2  872.69   40.60
  -6   6  -2  855.98   45.65
   6   6   2  747.49   43.76
  -6   6  -3   16.66    9.93
   6   6   3  -11.78    9.69
  -6   6  -3    3.08    9.53
   6   6   3    1.90   10.13
  -6   6  -4   76.56   14.66
   6   6   4   85.98   15.24
  -6   6  -4   93.03   15.93
   6   6   4  100.60   18.38
  -6   6  -5  211.25   23.25
   6   6   5  166.22   21.47
  -6   6  -5  174.69   20.77
   6   6   5  182.63   24.03
  -6  -6  -6   -2.68   10.07
  -6   6  -6   21.53   10.76
   6   6   6   20.26   12.42
  -6   6  -6   25.19   12.27
   6   6   6   23.23   13.60
  -6  -6  -7  -12.19   12.45
  -6   6  -7    7.65    9.48
  -6   6  -7   13.78   12.14
   6   6   7   -8.54    9.21
   6   6   7   18.95   13.44
  -6  -6  -8   25.62   12.01
  -6   6  -8   25.77   13.46
   6   6   8   38.98   13.62
  -6   6  -8   54.65   17.10
   6   6   8   32.17   16.59
  -6  -6  -9   29.08   14.01
  -6   6  -9   15.60   12.96
   6   6   9   15.37   14.37
  -6  -6 -10   53.00   16.52
  -6  -6 -11   -2.90   12.06
  -6   7  12   22.61   15.18
  -6  -7  11   27.33   13.71
  -6   7  11   25.02   13.33
  -6   7  10   98.23   19.47
  -6  -7  10  109.50   21.06
  -6   7   9   14.54   13.21
   6   7  -9   21.03   13.16
  -6  -7   9    2.67   12.21
  -6   7   9   -6.50   10.74
  -6   7   8   26.00   12.54
   6   7  -8   11.35   10.62
  -6   7   8   34.58   14.13
  -6  -7   8   26.28   15.18
   6   7  -7   -6.93    9.43
  -6   7   7   20.06   12.06
  -6  -7   7    8.04   12.50
   6   7  -6   24.84   12.61
  -6   7   6   35.25   12.49
  -6  -7   6   22.06   13.09
   6   7  -5  203.05   23.86
  -6   7   5  275.51   27.97
   6   7  -4  262.03   27.16
  -6   7   4  304.48   29.06
   6   7  -3  537.52   38.36
  -6   7   3  585.91   39.25
   6   7  -2   28.96   13.32
  -6   7   2   23.46   12.09
   6   7  -1  549.05   38.54
  -6   7   1  575.82   38.88
   6   7  -1  581.65   35.25
   6   7   0   21.18   13.38
  -6   7   0    1.27   10.01
   6   7   0   11.89   10.52
   6   7   1  900.55   49.84
  -6   7  -1  981.75   50.87
   6   7   1  953.17   49.43
  -6   7  -2   25.42   10.78
   6   7   2   17.77   13.66
  -6   7  -2   34.80   13.34
   6   7   2   18.10   12.01
   6   7   3  356.69   31.48
  -6   7  -3  489.62   32.31
  -6   7  -3  409.80   32.58
   6   7   3  418.28   33.78
  -6   7  -4   36.56   11.98
   6   7   4   16.45   11.73
  -6   7  -4   28.82   12.06
   6   7   4   39.24   14.09
  -6   7  -5   48.51   13.55
   6   7   5   55.23   15.11
  -6   7  -5   50.61   13.42
   6   7   5   59.11   16.48
  -6  -7  -6   76.55   16.18
  -6   7  -6   60.76   14.74
   6   7   6  118.33   18.44
  -6   7  -6   72.04   14.89
   6   7   6   58.73   16.28
  -6  -7  -7   15.42   14.05
  -6   7  -7   24.82   12.25
   6   7   7   39.04   14.68
  -6   7  -7   19.01   11.36
   6   7   7   17.79   13.64
  -6  -7  -8    5.61   10.80
  -6   7  -8   12.76   10.55
   6   7   8   10.73   12.86
  -6   7  -8   17.21   12.23
  -6  -7  -9    9.83   15.71
  -6   7  -9   45.27   16.31
  -6  -7 -10  112.82   21.80
  -6   7 -10  127.68   22.79
  -6  -7 -11  -10.92   12.20
  -6   8  12  206.57   29.01
  -6   8  11   12.98   15.01
  -6  -8  10  365.99   36.54
  -6   8  10  305.81   31.63
  -6  -8   9   13.05   13.08
   6   8  -9   41.72   17.39
  -6   8   9   10.35   11.77
   6   8  -8  202.85   25.29
  -6  -8   8  239.36   29.68
  -6   8   8  214.23   25.72
   6   8  -7  -16.91   12.22
  -6   8   7   32.56   14.20
   6   8  -6   60.08   16.85
  -6   8   6   92.87   18.40
   6   8  -5  471.35   38.30
  -6   8   5  458.24   36.47
   6   8  -4   13.35   12.30
  -6   8   4    9.08   10.33
   6   8  -3   91.21   19.25
  -6   8   3  119.84   20.13
   6   8  -2   88.91   19.28
  -6   8   2  102.22   19.35
   6   8  -1   19.35   11.49
  -6   8   1   11.28   10.23
   6   8   0  215.12   26.29
  -6   8   0  231.97   26.34
   6   8   0  248.59   25.00
   6   8   1   93.19   18.70
  -6   8  -1   69.85   17.38
   6   8   1   64.14   17.13
  -6   8  -2  134.32   18.49
   6   8   2   95.99   19.38
  -6   8  -2  187.68   23.81
   6   8   2  131.60   20.29
  -6   8  -3  291.01   26.59
   6   8   3  212.37   26.56
  -6   8  -3  222.11   26.54
   6   8   3  222.22   26.39
   6   8   4  351.35   33.42
  -6   8  -4  428.36   31.95
  -6   8  -4  355.50   31.33
   6   8   4  358.63   33.23
  -6   8  -5  227.22   25.45
   6   8   5  193.67   26.27
  -6   8  -5  222.33   25.84
   6   8   5  198.98   27.99
  -6   8  -6  224.84   25.77
  -6   8  -6  230.35   25.86
   6   8   6  180.71   24.53
   6   8   7  287.68   29.95
  -6   8  -7  283.60   28.72
  -6   8  -7  331.90   32.08
  -6   8  -8    9.22   12.79
   6   8   8   21.87   14.26
  -6   8  -8   17.12   11.89
  -6  -8  -9   26.77   13.63
  -6   8  -9   33.76   14.63
  -6  -8 -10  102.32   19.28
   6   9  -9  503.76   41.18
  -6   9   9  603.58   44.47
   6   9  -8   17.52   13.47
  -6   9   8   29.87   13.80
  -6   9   7  283.73   30.66
   6   9  -7  193.87   26.23
   6   9  -6   -9.79   10.91
  -6   9   6   -4.74   10.68
   6   9  -5   77.10   17.61
  -6   9   5   53.45   16.20
   6   9  -4   55.80   16.16
  -6   9   4   28.24   12.86
   6   9  -3   -2.68   11.79
  -6   9   3   31.13   15.17
   6   9  -2   17.61   13.05
  -6   9   2   36.08   12.84
   6   9  -1    0.12   11.65
  -6   9   1   17.06   13.30
   6   9   0   23.41   13.87
  -6   9   0   -6.83   11.84
   6   9   1   31.10   14.96
  -6   9  -1   32.98   15.69
   6   9   2   41.82   16.52
  -6   9  -2   28.62   13.62
  -6   9  -3    1.31    9.56
   6   9   3    7.61   10.89
  -6   9  -3  -16.65   12.25
  -6   9  -4  -22.75   12.74
   6   9   4   19.46   14.04
  -6   9  -4   10.48   11.26
   6   9   5  305.04   33.24
  -6   9  -5  260.88   27.56
  -6   9  -5  273.65   28.80
  -6   9  -6   -4.89    9.23
   6   9   6   14.69   12.14
  -6   9  -6   16.27   11.50
   6   9   7  337.29   33.83
  -6   9  -7  393.36   35.25
  -6   9  -7  384.25   34.07
  -6   9  -8   18.99   12.14
  -6   9  -8   20.03   12.81
   6  10  -9   77.80   21.85
  -6  10   9   30.46   14.88
   6  10  -8  336.15   35.39
  -6  10   8  382.98   36.30
   6  10  -7  134.63   24.56
  -6  10   7  129.66   22.36
   6  10  -6  286.44   32.14
  -6  10   6  268.30   31.83
   6  10  -5   73.55   19.26
  -6  10   5  131.76   24.16
   6  10  -4   62.69   17.68
  -6  10   4   97.24   21.33
   6  10  -3   45.02   15.92
  -6  10   3  107.01   21.24
   6  10  -2   15.39   11.21
  -6  10   2   41.34   15.71
   6  10  -1   30.55   15.54
  -6  10   1   18.01   13.41
   6  10   0   54.51   18.73
  -6  10   0   67.68   19.15
   6  10   1    8.05   12.94
  -6  10  -1   10.06   15.10
   6  10   2   14.99   11.30
  -6  10  -2   10.20    9.84
   6  10   3   18.50   14.25
  -6  10  -3   38.63   14.63
  -6  10  -4   51.71   15.27
   6  10   4   73.45   19.81
  -6  10  -4   61.85   17.95
  -6  10  -5   24.68   12.27
   6  10   5   62.05   17.10
  -6  10  -5   80.89   19.17
  -6  10  -6  240.65   27.81
  -6  10  -6  274.64   30.67
   6  10   6  239.24   31.01
   6  10   7   28.31   14.65
  -6  10  -7   19.04   14.56
  -7   0  14   34.94   15.74
  -7   0  13   19.12   13.33
  -7   0  12   29.14   14.35
  -7   0  11  352.60   32.54
  -7   0  10   -9.92   10.77
   7   0 -10   10.79   11.57
  -7   0   9  735.92   43.68
   7   0  -9  705.71   40.68
   7   0  -8    4.14    8.67
  -7   0   8   -2.01    8.80
  -7   0   7  883.02   44.44
   7   0  -7  814.16   43.42
   7   0  -6   -4.18    7.90
  -7   0   6   -0.25    8.59
  -7   0   5  848.46   40.19
   7   0  -5  676.13   39.52
   7   0  -4    4.56    8.06
  -7   0   4   14.95    8.52
   7   0  -3  271.39   25.08
   7   0  -2   -2.87    8.32
   7   0  -1  173.93   20.23
   7   0   0   -4.83    9.29
   7   0   1   65.21   13.84
   7   0   2   10.27    8.82
   7   0   3  101.76   16.08
   7   0   4    4.27    8.46
   7   0   5  670.04   39.45
   7   0   6   22.15   11.03
   7   0   7  139.74   19.24
   7   0   7  162.81   22.94
   7   0   8   34.02   12.40
   7   0   8    8.89   10.99
   7   0   9  275.73   30.96
   7   0  10   -8.16   11.34
   7   0  11  432.07   39.69
   7   0  12   26.52   14.72
  -7   1  14   16.57   13.35
  -7  -1  13   58.60   17.09
  -7   1  13   40.40   14.94
  -7  -1  12  138.93   22.17
  -7   1  12  158.84   23.22
  -7   1  11   -3.11   10.06
  -7  -1  11   -5.49   10.73
  -7   1  10  608.28   41.01
  -7  -1  10  650.56   42.39
   7  -1 -10  632.22   38.24
   7   1 -10  621.22   38.36
  -7   1   9   24.14   13.35
   7  -1  -9    9.95    8.33
   7   1  -9    2.67    8.70
  -7  -1   9   27.04   14.14
  -7   1   8  157.15   19.61
   7   1  -8  166.74   20.29
  -7  -1   8  165.22   20.23
   7  -1  -8  196.23   22.47
  -7   1   7   15.23   10.47
   7  -1  -7   15.32    9.54
   7   1  -7   -9.61    8.60
  -7  -1   7   -4.11   10.03
  -7   1   6  321.20   25.66
  -7  -1   6  337.74   27.36
   7  -1  -6  275.28   25.96
   7   1  -6  286.02   25.92
   7  -1  -5   81.39   15.37
   7   1  -5   87.20   14.79
  -7   1   5   77.04   13.57
  -7  -1   5   93.82   15.57
   7  -1  -4  167.28   19.82
  -7  -1   4  182.02   18.87
   7   1  -4  190.15   21.18
   7  -1  -3   81.95   15.88
   7   1  -3   66.28   13.42
  -7  -1   3   86.64   13.42
   7  -1  -2  126.22   18.02
   7   1  -2  163.41   19.72
   7  -1  -1   11.65    9.06
   7   1  -1   -4.08    8.97
   7  -1   0  198.89   22.41
   7   1   0  201.30   22.12
   7  -1   1   18.49   10.64
   7   1   1   16.40    8.70
   7  -1   2   -9.44    8.57
   7   1   2   -5.57    9.58
   7  -1   3   12.58    9.53
   7   1   3   26.52    9.84
   7  -1   4   39.88   12.04
   7   1   4   11.99    9.45
   7  -1   5  110.78   16.82
   7   1   5   83.69   15.48
   7  -1   6  104.42   15.88
   7   1   6   70.43   15.25
   7   1   6  119.32   20.12
   7  -1   7  108.02   16.84
   7   1   7   95.42   16.26
   7   1   7   87.41   18.50
   7  -1   8   58.38   13.20
   7   1   8   94.81   16.45
   7  -1   8   63.81   16.39
   7   1   8   31.87   13.79
   7  -1   9    7.30    9.61
   7   1   9   13.69   11.90
   7  -1  10  192.03   26.42
   7   1  10  219.57   28.93
   7  -1  11    8.33   11.59
   7   1  11   62.36   19.13
   7  -1  12  290.46   32.81
   7   1  12  221.87   30.18
  -7   2  14   70.61   19.74
  -7  -2  13  217.33   29.75
  -7   2  13  206.33   27.02
  -7  -2  12  101.35   20.23
  -7   2  12   72.87   17.20
  -7  -2  11  142.89   21.88
  -7   2  11  155.53   21.54
   7  -2 -10   78.06   16.07
   7   2 -10   68.36   15.58
  -7  -2  10   78.80   17.90
  -7   2  10   74.18   17.26
   7  -2  -9   66.67   15.33
   7   2  -9   57.86   13.15
  -7  -2   9   52.67   14.63
  -7   2   9   42.17   13.96
   7  -2  -8   26.07   11.85
   7   2  -8   30.25   11.78
  -7  -2   8   37.70   12.65
  -7   2   8   34.60   12.27
  -7   2   7  220.72   22.37
  -7  -2   7  252.66   25.38
   7  -2  -7  229.34   23.04
   7   2  -7  264.08   24.94
  -7   2   6   35.10   11.17
  -7  -2   6   32.87   11.83
   7  -2  -6   35.79   12.58
   7   2  -6   11.95    8.68
  -7  -2   5  241.58   22.69
   7  -2  -5  238.17   23.54
   7   2  -5  261.99   25.15
  -7  -2   4  550.39   33.25
   7  -2  -4  558.35   35.33
   7   2  -4  540.54   35.63
   7  -2  -3  154.83   19.19
  -7  -2   3  149.26   17.04
   7   2  -3  152.67   19.64
  -7  -2   2  270.50   21.71
  -7   2   2  261.81   25.79
   7  -2  -2  259.44   23.92
   7   2  -2  238.30   24.25
  -7   2   1  765.81   43.13
   7  -2  -1  704.80   39.77
   7   2  -1  683.81   40.01
   7  -2   0   10.53   10.10
   7   2   0   -4.95    8.49
  -7   2   0   12.25    9.46
  -7   2  -1  515.39   35.46
   7  -2   1  501.11   33.63
   7   2   1  555.35   35.59
   7  -2   2   13.93    9.29
   7   2   2    1.53    9.16
   7  -2   3  524.45   34.74
   7   2   3  549.57   36.41
   7  -2   4   54.63   13.79
   7   2   4   61.60   14.96
   7   2   5  348.93   31.49
   7  -2   5  331.29   27.45
   7   2   5  331.52   28.36
   7  -2   6  108.29   16.61
   7   2   6  135.91   18.80
   7   2   6  136.92   21.89
   7  -2   7   61.61   14.52
   7   2   7   97.14   17.78
   7   2   7   39.19   16.26
   7  -2   8   50.46   12.34
   7   2   8   12.46   11.11
   7  -2   8   34.16   12.69
   7   2   8   54.95   16.91
   7  -2   9   93.93   18.64
   7   2   9   59.97   17.41
   7  -2  10   36.01   12.20
   7   2  10   39.45   16.52
   7  -2  11   16.38   10.26
   7   2  11   18.16   11.64
   7  -2  12   -3.62    9.78
  -7  -3  13  101.83   22.10
  -7   3  13   81.30   18.02
  -7   3  12  109.85   20.42
  -7  -3  12  128.00   21.55
  -7   3  11   44.78   13.94
  -7  -3  11   36.05   13.48
   7  -3 -10   18.84   10.53
   7   3 -10   12.94   10.97
  -7   3  10   38.26   14.83
  -7  -3  10   29.07   12.29
   7  -3  -9   -4.81    8.69
   7   3  -9   10.20   12.11
  -7   3   9   -2.49    9.94
  -7  -3   9   37.99   14.32
  -7  -3   8    2.10   10.03
   7  -3  -8    7.44    8.59
   7   3  -8    2.69    9.48
  -7   3   8   29.26   12.26
   7  -3  -7   14.03    9.79
  -7  -3   7   -1.04   10.24
   7   3  -7    4.77    8.23
  -7   3   7   11.89    8.53
  -7   3   7   11.59   11.40
   7   3  -6    6.54    9.87
  -7  -3   6   -2.26    9.35
  -7   3   6   -3.26    9.53
   7  -3  -6   -7.07    8.48
   7   3  -5  -12.17    9.66
  -7  -3   5    9.38    8.98
  -7   3   5  -21.87   11.47
   7   3  -4   33.27   11.94
  -7  -3   4   19.48   10.88
  -7   3   4   26.04   11.54
  -7  -3   3   29.36   11.41
   7   3  -3   28.21   11.66
  -7   3   3   39.26   12.87
   7   3  -2  176.38   21.31
  -7   3   2  181.87   21.88
   7   3  -1   29.28   13.16
  -7   3   1   -5.60    9.72
  -7   3   0  552.11   36.58
   7   3   0  541.59   36.52
   7   3   1   -3.43    9.63
  -7   3  -1   -5.08    8.59
  -7   3  -2  619.41   39.59
   7   3   2  640.79   39.69
   7   3   3    3.17   11.20
   7   3   3   10.94   10.60
  -7   3  -3    5.58    8.90
  -7   3  -4  450.74   33.62
   7   3   4  422.21   34.13
   7  -3   4  429.74   31.97
   7   3   4  418.80   31.92
   7  -3   5   15.69    9.98
   7   3   5   -7.62    8.96
   7   3   5    4.11   10.44
  -7   3  -5   -1.64    8.94
   7   3   6  276.28   29.07
   7  -3   6  317.46   27.93
   7   3   6  305.21   27.67
   7  -3   7   -3.43    7.98
   7   3   7   10.41    9.95
   7   3   7   -3.26   12.33
   7   3   8  206.58   23.21
   7   3   8  195.25   26.59
   7  -3   8  222.28   22.77
   7  -3   9   15.29   10.34
   7   3   9   18.61   14.19
   7  -3  10   36.76   12.58
   7   3  10   37.90   18.55
   7  -3  11    4.65    8.89
   7   3  11   41.59   19.16
  -7   4  13  152.12   24.35
  -7  -4  12  278.84   32.46
  -7   4  12  198.57   25.83
  -7  -4  11   56.94   16.71
  -7   4  11   40.61   17.98
  -7  -4  10  162.60   23.24
   7  -4 -10  190.94   22.14
   7   4 -10  147.54   21.73
  -7   4  10  129.46   19.89
  -7  -4   9    5.33   10.20
   7   4  -9   18.15   13.21
  -7   4   9   31.94   12.47
  -7   4   9   22.95   11.94
   7  -4  -9   33.95   12.88
   7   4  -8   43.20   12.36
  -7  -4   8   39.15   14.21
  -7   4   8   35.55   13.29
  -7   4   8   50.34   14.14
   7   4  -7   63.57   15.14
  -7  -4   7   36.98   13.65
  -7   4   7   69.00   16.46
   7   4  -6   13.34   10.40
  -7   4   6    4.65    8.79
  -7  -4   6    6.88   10.43
   7   4  -5   46.41   12.31
  -7  -4   5   64.03   14.58
  -7   4   5   63.51   15.75
  -7  -4   4   73.35   15.32
   7   4  -4   99.59   18.01
  -7   4   4   98.90   16.47
  -7  -4   3  344.33   28.45
  -7   4   3  324.08   28.84
   7   4  -3  314.69   28.50
   7   4  -2  155.07   22.09
  -7   4   2  125.83   18.62
  -7   4   1  421.28   33.01
   7   4  -1  360.87   30.96
  -7   4   0  316.16   28.86
   7   4   0  285.88   27.06
   7   4   1  290.34   27.16
  -7   4  -1  281.94   27.49
   7   4   2   -7.55   11.77
   7   4   2    6.25   10.32
  -7   4  -2   -0.38    8.78
   7   4   3  761.14   45.12
  -7   4  -3  856.51   46.99
   7   4   3  806.19   48.04
   7   4   4   89.13   16.47
   7   4   4   89.50   18.65
  -7   4  -4   68.18   14.69
   7   4   5  345.34   30.11
  -7   4  -5  367.34   31.25
   7   4   5  384.95   34.26
   7   4   6   99.80   18.02
   7   4   6  116.07   21.52
  -7   4  -6  114.59   19.16
   7   4   7  105.20   19.49
   7   4   7   93.58   21.84
  -7   4  -7  140.11   20.94
   7  -4   7  111.41   17.07
   7  -4   8  130.22   18.17
   7   4   8  148.93   20.49
   7   4   8  142.49   24.58
  -7   4  -8  145.85   21.98
   7  -4   9  221.29   26.24
   7   4   9  212.86   29.66
   7  -4  10    7.51    8.15
   7   4  10   25.04   14.21
  -7   5  13   40.81   17.50
  -7   5  12  157.99   24.20
  -7  -5  11  157.61   24.07
  -7   5  11  143.08   22.66
  -7  -5  10  103.64   20.02
  -7   5  10  105.90   18.55
   7   5  -9    0.15   10.71
  -7  -5   9   -3.97    9.70
  -7   5   9   -1.83   10.28
   7   5  -8  201.41   24.32
  -7   5   8  222.52   24.91
  -7  -5   8  205.73   26.33
  -7  -5   7  -14.24   11.91
   7   5  -7  -10.20   10.93
  -7   5   7    1.77    9.78
   7   5  -6  318.28   29.61
  -7  -5   6  352.83   31.91
  -7   5   6  374.67   32.16
   7   5  -5  151.57   21.29
  -7  -5   5  175.01   23.16
  -7   5   5  158.94   21.23
   7   5  -4  406.88   32.70
  -7  -5   4  442.10   34.16
  -7   5   4  402.31   32.71
   7   5  -3  240.88   26.56
  -7   5   3  272.10   27.10
   7   5  -2  223.23   25.31
  -7   5   2  221.31   24.43
   7   5  -1  254.89   26.07
  -7   5   1  253.47   26.30
   7   5  -1  227.83   23.72
   7   5   0  110.78   19.01
   7   5   0  109.03   18.62
  -7   5   0  126.66   20.87
   7   5   1   25.52   12.31
   7   5   1   31.05   13.78
  -7   5  -1   11.93    9.19
   7   5   2  118.54   19.26
   7   5   2   44.94   13.00
  -7   5  -2   75.30   15.64
   7   5   3   83.10   17.15
   7   5   3   90.42   18.63
  -7   5  -3  138.01   20.67
   7   5   4    8.15   11.01
   7   5   4   17.71   12.93
  -7   5  -4   -6.88    8.76
   7   5   5    9.55   10.14
   7   5   5    4.99   10.95
  -7   5  -5   14.80   10.29
   7   5   6   -0.74    9.38
   7   5   6   21.13   14.76
  -7   5  -6    2.16    9.53
   7   5   7   15.36   10.95
   7   5   7   75.18   19.18
  -7   5  -7   34.49   12.43
   7   5   8  140.21   21.04
   7   5   8  117.37   22.78
  -7   5  -8  126.06   19.65
   7   5   9  137.21   24.55
  -7   6  12   47.64   18.09
  -7  -6  11   74.89   18.48
  -7  -6  10   -5.08   14.98
   7   6  -9  302.38   30.33
  -7  -6   9  313.20   32.13
  -7   6   9  301.74   30.72
   7   6  -8   25.71   13.32
  -7  -6   8    2.39   12.22
  -7   6   8   29.31   13.77
   7   6  -7 1042.93   56.03
  -7  -6   7 1133.56   59.78
  -7   6   7 1154.76   58.52
   7   6  -6   23.10   12.98
  -7  -6   6   21.85   15.52
  -7   6   6   29.27   14.81
   7   6  -5  761.52   46.71
  -7   6   5  751.63   46.95
   7   6  -4    5.98   10.52
  -7   6   4   -2.86   11.43
   7   6  -3  168.15   22.87
  -7   6   3  246.07   26.99
   7   6  -2  165.48   23.25
  -7   6   2  158.15   22.88
   7   6  -2  187.46   22.87
   7   6  -1   38.23   13.82
  -7   6   1   54.99   14.64
   7   6  -1   36.02   11.99
   7   6   0    5.86   10.10
  -7   6   0   21.62   13.15
   7   6   0   10.41    9.73
   7   6   1   15.52   11.03
  -7   6  -1    7.77   12.44
   7   6   1    4.80   10.44
   7   6   2   11.58   12.19
  -7   6  -2   11.01    9.10
   7   6   2   15.46   10.07
   7   6   3    6.09   11.26
  -7   6  -3    1.70   10.08
   7   6   3   -6.93   12.54
   7   6   4   -2.41   10.66
  -7   6  -4   -4.37   10.34
   7   6   4   23.99   15.33
   7   6   5   32.99   14.09
  -7   6  -5   -1.61    9.98
   7   6   5   31.37   15.77
   7   6   6   10.75   10.57
  -7   6  -6   19.06    9.34
   7   6   6   15.95   13.13
   7   6   7  119.52   19.80
  -7   6  -7  137.84   20.69
   7   6   7  112.74   22.90
  -7   6  -8    0.62    9.30
   7   6   8   30.89   18.67
   7   6   9  391.82   40.82
  -7  -7   9   51.57   16.58
   7   7  -9   64.84   17.40
  -7   7   9   90.84   19.56
   7   7  -8  298.38   31.82
  -7  -7   8  316.81   33.21
  -7   7   8  276.42   28.97
   7   7  -7   34.32   12.73
  -7  -7   7   52.86   16.48
  -7   7   7   25.61   13.45
   7   7  -6  329.73   32.42
  -7   7   6  425.34   36.23
   7   7  -5   16.51   12.34
  -7   7   5   37.55   14.96
   7   7  -4  174.45   24.33
  -7   7   4  191.45   24.75
   7   7  -3   30.90   12.87
  -7   7   3   -0.34    9.88
   7   7  -2   24.42   14.07
  -7   7   2   36.46   15.59
   7   7  -1  382.28   34.87
  -7   7   1  369.93   34.12
   7   7  -1  437.83   34.04
   7   7   0   34.75   14.24
  -7   7   0   20.19   13.49
   7   7   0   51.50   15.44
   7   7   1   53.12   16.56
  -7   7  -1   61.72   15.98
   7   7   1   76.57   15.24
   7   7   2  115.34   20.28
  -7   7  -2   89.22   18.41
   7   7   2   78.94   18.35
   7   7   3    4.05    9.99
  -7   7  -3   -9.58   11.33
   7   7   3    6.04   12.52
  -7   7  -4   29.88   12.90
   7   7   4   42.61   14.24
  -7   7  -4   36.27   15.35
   7   7   4   56.92   15.71
  -7   7  -5   53.86   15.64
   7   7   5   -0.66   10.03
  -7   7  -5   34.58   13.40
   7   7   5   27.19   14.22
  -7   7  -6  235.23   27.07
   7   7   6  217.88   27.03
   7   7   6  271.65   32.17
  -7   7  -6  232.73   27.62
   7   7   7   97.06   18.35
  -7   7  -7  114.04   20.30
   7   7   7  102.32   21.30
   7   7   8  233.86   31.00
   7   8  -9   96.80   20.72
  -7   8   9  114.88   20.50
   7   8  -8   -6.68   11.05
  -7   8   8   -7.30   11.40
   7   8  -7   17.36   13.55
  -7   8   7   46.00   17.80
   7   8  -6   56.71   16.54
  -7   8   6   51.58   16.00
   7   8  -5   17.29   13.81
  -7   8   5    5.27   13.48
   7   8  -4   32.90   14.82
  -7   8   4   38.27   16.07
   7   8  -3   81.33   17.79
  -7   8   3  128.14   22.53
   7   8  -2  192.35   26.46
  -7   8   2  280.89   31.22
   7   8  -1  162.77   24.92
  -7   8   1  205.55   26.65
   7   8   0   62.92   17.28
  -7   8   0   51.41   15.23
   7   8   1  305.57   32.06
  -7   8  -1  283.14   30.04
   7   8   1  294.95   30.68
   7   8   2    7.96   10.35
  -7   8  -2   13.21   12.48
   7   8   2   10.20   13.15
   7   8   3  310.81   33.46
  -7   8  -3  317.73   32.27
   7   8   3  280.71   31.58
   7   8   4   15.90   12.74
  -7   8  -4   49.44   16.14
   7   8   4   54.77   15.98
  -7   8  -5  255.39   28.29
   7   8   5  223.95   28.60
  -7   8  -5  261.12   30.14
   7   8   5  275.22   33.47
  -7   8  -6   53.98   15.53
   7   8   6   21.83   15.04
  -7   8  -6   63.94   16.84
   7   8   6   49.23   17.44
  -7   8  -7   49.81   16.03
   7   8   7   36.98   16.18
  -7   8  -7   46.74   15.92
   7   9  -7    9.85   12.34
  -7   9   7   29.58   12.83
   7   9  -6   -4.40   12.42
  -7   9   6   14.74   14.93
   7   9  -5    3.71   14.66
  -7   9   5    9.34   12.81
   7   9  -4   62.46   18.96
  -7   9   4   28.15   14.86
   7   9  -3  -13.39   12.07
  -7   9   3   24.51   13.49
   7   9  -2   60.71   17.96
  -7   9   2   79.94   19.00
   7   9  -1   19.18   14.64
  -7   9   1   32.92   16.23
   7   9   0  282.37   32.58
  -7   9   0  316.68   34.61
   7   9   1   -8.27   14.42
  -7   9  -1   -3.68   11.42
   7   9   2  366.34   37.38
  -7   9  -2  527.48   42.32
   7   9   3  -24.75   11.49
  -7   9  -3   31.00   15.37
   7   9   3   17.12   13.18
   7   9   4  339.87   36.10
  -7   9  -4  346.40   34.95
   7   9   5   21.03   13.39
  -7   9  -5   26.80   15.30
  -7   9  -6  358.60   33.78
  -8   0  12  234.15   27.95
  -8   0  11    0.43   11.29
  -8   0  10 1212.25   61.38
   8   0 -10 1264.95   60.08
   8   0  -9    1.45   11.24
  -8   0   9   11.69   12.53
  -8   0   8  269.57   26.71
   8   0  -8  250.45   26.57
   8   0  -7    5.90   10.17
   8   0  -6    4.59   10.25
   8   0  -5   13.93   10.86
   8   0  -4    0.39    9.06
   8   0  -3   -3.58    9.94
   8   0  -2   73.16   14.96
   8   0  -1  -10.96   10.79
   8   0   0    1.65   10.26
   8   0   1   -6.75   10.68
   8   0   2  258.26   26.78
   8   0   3   -2.15   10.68
   8   0   4 1058.46   54.10
   8   0   5    5.89    9.97
   8   0   6  821.17   47.45
   8   0   7   33.23   13.07
   8   0   7   22.34   14.18
   8   0   8  192.68   27.88
   8   0   9  -16.73   15.61
  -8   1  12   51.75   15.34
  -8  -1  12   66.20   18.01
  -8   1  11  226.54   26.84
  -8  -1  11  232.52   28.51
   8  -1 -10  108.59   18.96
  -8   1  10  116.11   20.23
   8   1 -10  101.17   19.56
  -8  -1  10   48.56   14.09
   8  -1  -9  144.31   20.66
   8   1  -9  167.21   22.51
  -8   1   9  181.03   24.24
  -8  -1   9  175.48   22.93
   8  -1  -8   49.21   13.25
   8   1  -8   77.23   16.40
  -8  -1   8   65.22   14.61
   8  -1  -7   14.82    9.38
   8   1  -7   37.56   13.16
  -8  -1   7   18.21   11.20
   8  -1  -6  129.64   19.73
   8   1  -6   76.11   16.26
   8  -1  -5  151.49   20.86
   8   1  -5  146.08   20.81
   8  -1  -4   62.38   15.11
   8   1  -4   86.14   15.63
   8  -1  -3   28.43   12.80
   8   1  -3   48.02   12.19
   8  -1  -2   27.27   12.12
   8   1  -2   25.21   12.01
   8  -1  -1   45.66   13.73
   8   1  -1   89.07   17.16
   8   1   0  210.70   24.19
   8  -1   0  229.72   25.47
   8  -1   1   50.01   13.98
   8   1   1   52.25   15.03
   8  -1   2   76.65   16.10
   8   1   2   41.94   13.58
   8  -1   3   94.13   16.05
   8   1   3   99.66   18.18
   8  -1   4  137.13   20.45
   8   1   4  108.91   18.41
   8  -1   5  637.76   41.55
   8   1   5  678.50   43.62
   8  -1   6   73.70   16.95
   8   1   6   72.32   17.28
   8   1   6   98.44   20.17
   8  -1   7  331.59   34.81
   8   1   7  424.18   39.01
   8  -1   7  369.55   31.40
   8   1   7  329.51   30.70
   8  -1   8   85.75   19.34
   8   1   8   45.82   16.27
   8  -1   9  138.32   24.26
   8   1   9  188.58   28.77
  -8   2  12   11.98   11.04
  -8  -2  12   16.40   12.64
  -8   2  11   14.31   12.50
  -8  -2  11   30.34   13.57
   8  -2 -10   60.44   14.72
   8   2 -10   73.01   17.72
  -8  -2  10  100.01   19.74
   8  -2  -9   42.16   13.91
   8   2  -9   43.94   15.01
  -8  -2   9   10.37   11.21
  -8  -2   8  187.46   24.00
   8   2  -8  155.95   22.17
   8  -2  -8  229.72   25.13
   8  -2  -7  120.67   19.11
  -8  -2   7  133.41   20.43
   8   2  -7  126.97   20.08
  -8  -2   6  449.53   33.23
   8  -2  -6  432.90   34.19
   8   2  -6  400.86   33.33
   8  -2  -5  106.41   17.33
   8   2  -5   87.49   17.61
   8  -2  -4  432.34   34.89
   8   2  -4  425.34   35.11
   8  -2  -3   17.32   11.27
   8   2  -3   30.81   12.25
   8  -2  -2  418.96   32.80
   8   2  -2  389.88   33.10
   8  -2  -1  272.47   27.73
   8   2  -1  284.68   28.41
   8  -2   0  460.78   34.99
   8   2   0  415.15   34.43
   8  -2   1  314.70   29.25
   8   2   1  353.46   30.64
   8  -2   2  105.27   17.54
   8   2   2  105.81   18.77
   8  -2   3   43.43   12.78
   8   2   3   59.26   13.47
   8  -2   4   22.49   12.01
   8   2   4    6.18    9.84
   8   2   4   19.03   12.36
   8  -2   5   25.81   12.58
   8   2   5   10.79   10.24
   8   2   5   29.35   13.81
   8  -2   6   25.56   13.47
   8   2   6   -4.42   10.69
   8   2   6   -9.47   13.81
   8  -2   7   41.48   15.06
   8   2   7   30.00   11.56
   8   2   7   54.30   17.75
   8  -2   8    4.35   10.22
   8   2   8    0.02   12.18
   8  -2   9  218.04   28.98
   8   2   9  174.22   29.26
   8  -2  10   95.10   20.90
  -8  -3  11   19.59   14.13
  -8  -3  10   10.48   13.14
   8  -3 -10   12.38   12.68
   8  -3  -9   22.00   12.60
  -8  -3   9   13.07   13.39
   8   3  -9   24.22   12.07
   8  -3  -8    0.51    8.95
   8   3  -8    3.83   10.17
  -8  -3   8   -9.44   10.97
   8  -3  -7  189.01   23.25
   8   3  -7  155.87   22.52
  -8  -3   7  160.73   22.38
  -8  -3   6    5.40   11.22
   8  -3  -6   -5.28    8.54
   8   3  -6   -1.67   10.46
  -8  -3   5  562.07   38.00
   8  -3  -5  537.51   38.04
   8   3  -5  503.93   38.84
   8  -3  -4    7.04    9.60
   8   3  -4   15.88   10.44
   8  -3  -3  413.88   33.33
   8   3  -3  419.98   34.27
   8  -3  -2   44.92   13.74
   8   3  -2   56.95   14.55
  -8   3   2   73.92   16.22
  -8   3   1  510.38   38.85
   8  -3  -1  551.48   38.86
   8   3  -1  484.42   37.31
   8  -3   0    8.08   10.12
   8   3   0    6.30   10.94
  -8   3   0   -2.90   10.10
   8  -3   1  165.50   21.85
   8   3   1  160.44   24.07
   8  -3   2   -8.65   10.11
   8   3   2  -10.88   11.68
   8  -3   3   24.01   12.64
   8   3   3   -9.02   11.09
   8   3   3  -24.89   13.11
   8  -3   4   -4.72    9.31
   8   3   4   -8.97    9.56
   8   3   4   14.03   12.21
   8  -3   5   21.64   12.64
   8   3   5   18.31   12.27
   8   3   5   -6.83   11.36
   8  -3   6   15.53   10.84
   8   3   6   22.34   12.34
   8   3   6  -26.69   14.72
   8  -3   7   21.67   11.34
   8   3   7    7.14   11.43
   8   3   7   -3.77   11.30
   8  -3   8   30.38   10.92
   8   3   8   50.73   17.38
   8  -3   9   48.51   15.52
  -8  -4  10   64.08   18.90
   8  -4  -9  101.87   19.39
   8   4  -9  122.46   21.28
  -8  -4   9  109.55   20.53
   8  -4  -8  110.53   18.51
   8   4  -8  110.57   19.41
  -8  -4   8  135.71   22.00
   8  -4  -7  106.32   18.43
  -8  -4   7   79.62   17.88
   8   4  -7  105.19   19.76
   8   4  -6  186.40   23.39
  -8  -4   6  192.20   24.40
  -8   4   6  189.39   25.36
   8  -4  -6  166.82   23.02
   8   4  -5   16.01   11.76
  -8  -4   5   67.27   16.84
  -8   4   5   34.76   13.89
   8  -4  -5   25.14   10.97
   8   4  -4  298.23   30.17
  -8   4   4  293.91   30.70
   8   4  -3   -5.03   10.00
  -8   4   3    6.59   11.55
   8   4  -2  420.06   35.18
  -8   4   2  408.81   35.65
   8   4  -1   14.53   10.82
  -8   4   1   25.18   12.83
   8   4   0  200.84   24.50
  -8   4   0  196.76   25.26
   8   4   1   59.79   15.26
   8   4   1   50.58   15.09
  -8   4  -1   75.24   17.58
   8   4   2  141.57   21.90
   8   4   2  120.73   22.91
  -8   4  -2  131.41   22.02
   8   4   3  160.21   23.68
   8   4   3  168.72   24.44
  -8   4  -3  151.75   22.86
   8  -4   3  159.85   21.56
   8  -4   4   63.40   15.46
   8   4   4   37.46   13.38
   8   4   4   42.42   16.33
  -8   4  -4   54.42   14.63
   8  -4   5   -3.54   10.26
   8   4   5   11.06   11.42
   8   4   5   -0.45   12.12
  -8   4  -5   14.47   12.95
   8  -4   6   14.66   11.42
   8   4   6   43.68   16.67
   8   4   6    9.14   11.91
   8  -4   7  108.06   18.80
   8   4   7   73.98   17.69
   8   4   7   88.73   22.13
   8  -4   9   91.73   19.04
  -8  -5  10   30.34   18.71
   8  -5  -9   15.35   10.89
  -8  -5   9   24.22   14.36
   8   5  -9    0.80   11.24
  -8   5   9   12.48   10.37
   8   5  -8   78.47   17.09
  -8  -5   8  100.86   20.12
  -8   5   8  112.41   19.42
   8  -5  -8  101.41   17.68
  -8  -5   7  100.52   20.27
   8   5  -7   81.29   17.58
  -8   5   7  107.88   20.76
  -8  -5   6   22.01   13.73
   8   5  -6   14.72   11.12
  -8   5   6   40.33   14.44
   8   5  -5  109.05   19.92
  -8   5   5   91.96   18.24
   8   5  -4   25.38   13.67
  -8   5   4   27.56   14.33
   8   5  -3  109.61   21.24
  -8   5   3   60.90   16.24
   8   5  -2   72.83   17.04
  -8   5   2   55.14   15.16
   8   5  -1  240.54   28.34
   8   5  -1  209.12   25.54
  -8   5   1  248.38   27.70
   8   5   0  186.18   25.90
   8   5   0  216.24   25.66
  -8   5   0  194.91   25.58
   8   5   1  177.28   25.24
   8   5   1  205.11   25.69
  -8   5  -1  213.86   26.84
   8   5   2  206.59   26.44
   8   5   2  237.79   27.93
  -8   5  -2  215.71   26.84
   8   5   3  110.47   20.13
   8   5   3  145.68   23.19
  -8   5  -3  143.06   22.02
   8   5   4   78.06   18.20
   8   5   4   79.32   20.55
  -8   5  -4   52.43   15.86
   8   5   5   99.64   19.45
   8   5   5  111.09   21.79
  -8   5  -5  105.57   19.13
   8   5   6   21.52   12.55
   8   5   6    7.68   12.50
  -8   5  -6   24.41   12.41
   8  -5   6   34.29   14.06
   8  -5   7   40.92   12.48
   8   5   7  113.92   21.56
   8   5   7   83.61   20.94
  -8   5  -7  102.30   19.48
   8   6  -9   68.29   17.52
  -8   6   9   31.88   13.39
   8   6  -8  247.17   29.13
  -8  -6   8  190.81   26.56
  -8   6   8  199.35   27.13
  -8  -6   7   24.11   14.86
   8   6  -7   -9.00   10.99
  -8   6   7   17.65   13.09
   8   6  -6   93.23   21.07
  -8   6   6   76.23   20.06
   8   6  -5   12.59   11.15
  -8   6   5    8.91   11.60
   8   6  -4   46.44   16.25
  -8   6   4   18.72   11.64
   8   6  -3   37.64   14.42
  -8   6   3   99.60   20.67
   8   6  -2   16.70   15.11
  -8   6   2   20.48   14.15
   8   6  -1   16.14   13.84
   8   6  -1   11.40   12.25
  -8   6   1    7.25   11.95
   8   6   0   58.06   16.51
   8   6   0   83.42   17.32
  -8   6   0   90.47   18.89
   8   6   1  -11.78   12.68
   8   6   1  -22.57   11.23
  -8   6  -1   -1.44    9.95
   8   6   2  321.37   33.64
  -8   6  -2  354.13   34.07
   8   6   2  361.38   34.23
   8   6   3   11.95   13.03
   8   6   3   21.55   12.86
  -8   6  -3   47.54   15.87
   8   6   4  303.62   32.19
  -8   6  -4  313.21   32.85
   8   6   4  290.35   32.18
   8   6   5   37.35   15.92
   8   6   5   40.08   14.36
  -8   6  -5   60.29   17.19
   8   6   6  306.05   32.77
  -8   6  -6  295.27   31.81
   8   6   6  330.24   37.03
   8   6   7   -2.37   11.78
  -8   6  -7   -1.56    9.43
   8   7  -7  133.85   23.24
  -8   7   7  164.12   25.88
   8   7  -6   34.32   15.24
  -8   7   6   41.01   15.52
   8   7  -5   -0.11   11.28
  -8   7   5   37.99   14.59
   8   7  -4   91.82   18.82
  -8   7   4   48.24   17.56
   8   7  -3   25.10   14.10
  -8   7   3   25.53   14.86
   8   7  -2   12.51   10.86
  -8   7   2   31.49   14.74
   8   7  -1    0.34   10.44
  -8   7   1   -4.02   11.88
   8   7   0   32.40   16.39
  -8   7   0   14.64   13.09
   8   7   0   40.75   17.05
   8   7   1  110.07   21.81
  -8   7  -1  122.69   22.16
   8   7   1  100.56   19.74
   8   7   2   95.42   20.85
  -8   7  -2   98.20   20.17
   8   7   2   82.91   19.79
   8   7   3  206.88   27.97
  -8   7  -3  221.40   28.21
   8   7   3  209.04   29.77
   8   7   4   27.99   15.14
  -8   7  -4    6.68    9.82
   8   7   4   29.83   16.73
   8   7   5  319.90   34.35
  -8   7  -5  426.34   38.09
   8   7   5  344.56   37.99
   8   8   2   44.90   16.92
   8   8   3  122.63   23.47
   9   0  -9   77.08   17.18
   9   0  -8   -5.40   11.55
   9   0  -7   48.78   14.62
   9   0  -6   13.74   11.06
   9   0  -5   97.04   19.40
   9   0  -4   -4.49   11.23
   9   0  -3  546.42   41.06
   9   0  -2  -12.26   12.00
   9   0  -1  325.98   32.77
   9   0   0   28.19   14.73
   9   0   1  351.29   32.91
   9   0   2   -1.33   12.12
   9   0   3   91.00   19.43
   9   0   4   14.00   10.93
   9   0   5   17.60    9.62
   9   0   6   -6.11   11.09
   9   0   7   35.80   14.10
   9  -1  -9   86.43   18.31
   9   1  -9   97.94   20.09
   9  -1  -8   43.18   14.45
   9   1  -8   42.67   15.14
   9  -1  -7   77.13   17.94
   9   1  -7  100.81   19.14
   9  -1  -6  134.09   20.87
   9   1  -6  109.78   21.03
   9  -1  -5   20.74   11.96
   9   1  -5   -4.69   11.15
   9  -1  -4  458.34   37.42
   9   1  -4  503.89   39.65
   9  -1  -3    5.93   11.77
   9   1  -3    6.63   12.77
   9  -1  -2  251.59   29.14
   9   1  -2  283.56   29.98
   9  -1  -1    5.68    9.69
   9   1  -1    2.77   11.51
   9  -1   0  198.10   25.88
   9   1   0  226.21   27.74
   9  -1   1   51.56   15.19
   9   1   1   41.33   14.17
   9  -1   2  122.37   21.11
   9   1   2  133.43   22.05
   9  -1   3  119.06   20.11
   9   1   3   94.66   19.19
   9  -1   4  170.39   23.87
   9   1   4  182.41   24.65
   9  -1   5    8.39   10.47
   9   1   5   -7.75   12.38
   9   1   5   46.39   18.01
   9  -1   6   90.60   19.17
   9   1   6  108.86   20.45
   9  -1   7    0.27   10.66
   9   1   7   25.63   15.26
   9  -2  -9  211.19   27.21
   9   2  -9  186.47   25.98
   9  -2  -8   94.81   18.94
   9   2  -8   67.31   15.01
   9  -2  -7   75.11   18.93
   9   2  -7   70.27   18.20
   9  -2  -6  110.83   19.97
   9   2  -6   87.11   18.76
   9  -2  -5  116.13   20.72
   9   2  -5   70.44   17.66
   9  -2  -4  125.18   21.41
   9   2  -4   95.77   20.07
   9  -2  -3   35.38   14.07
   9   2  -3    5.67   11.13
   9  -2  -2   35.78   13.49
   9   2  -2   35.90   15.21
   9  -2  -1   54.78   16.40
   9   2  -1   37.30   14.42
   9  -2   0   10.10   10.29
   9   2   0   15.19   11.32
   9  -2   1   59.53   15.97
   9   2   1   70.63   17.46
   9  -2   2  119.66   22.49
   9   2   2  192.33   25.90
   9  -2   3   26.71   13.52
   9   2   3   16.61   11.20
   9  -2   4  182.99   25.16
   9   2   4  165.39   24.40
   9   2   4  178.66   29.23
   9  -2   5  108.53   19.57
   9   2   5  134.85   22.14
   9   2   5  109.31   21.87
   9  -2   6   10.52   12.02
   9   2   6  -11.36   12.04
   9  -2   7  228.45   27.96
   9   2   7  211.70   27.75
   9  -3  -9   16.49   13.74
   9   3  -9    5.12   10.77
   9   3  -8  321.44   32.66
   9  -3  -8  326.53   32.37
   9  -3  -7   -8.42   10.47
   9   3  -7    4.28   11.82
   9  -3  -6  158.56   24.09
   9   3  -6  195.96   26.88
   9  -3  -5   24.97   12.48
   9   3  -5   18.31   12.85
   9  -3  -4   38.27   14.37
   9   3  -4    0.65   10.23
   9  -3  -3   -8.29   10.43
   9   3  -3    7.64   12.98
   9  -3  -2   21.50   13.29
   9   3  -2   18.10   13.79
   9  -3  -1   11.50   10.97
   9   3  -1    5.98   11.26
   9  -3   0   12.87   12.89
   9   3   0    1.85   11.39
   9  -3   1   15.13   11.65
   9   3   1   56.47   17.20
   9  -3   2   27.82   14.09
   9   3   2   -5.38   11.37
   9   3   2   32.74   14.80
   9  -3   3   18.56    9.96
   9   3   3    3.00   10.34
   9   3   3   20.57   16.28
   9  -3   4  181.35   25.83
   9   3   4  192.88   26.66
   9   3   4  242.04   31.56
   9  -3   5   -0.26   11.53
   9   3   5    7.09   13.53
   9   3   6  230.84   27.92
   9  -3   6  236.59   28.05
   9  -4  -7   98.04   19.62
   9   4  -7  119.76   22.98
   9  -4  -6  136.88   21.93
   9   4  -6  153.71   24.19
   9  -4  -5   54.71   17.05
   9   4  -5   42.42   18.31
   9  -4  -4  107.30   20.84
   9   4  -4  101.01   20.11
   9  -4  -3   33.60   14.37
   9   4  -3    1.23   13.41
   9  -4  -2   65.40   17.55
   9   4  -2   33.31   13.98
   9  -4  -1   -6.86    9.80
   9   4  -1   -7.76   10.35
   9  -4   0  -13.09   11.11
   9   4   0   -0.77   11.74
   9  -4   1   34.89   15.33
   9   4   1   42.53   15.44
   9   4   1   17.32   13.03
   9  -4   2   23.98   12.85
   9   4   2   23.07   12.33
   9   4   2   21.04   14.72
   9  -4   3   91.18   19.80
   9   4   3   40.48   15.12
   9   4   3   48.77   17.24
   9  -4   4   78.10   16.97
   9   4   4   24.28   11.69
  -9   5   3   54.49   18.52
   9  -5  -3   35.37   13.45
   9   5  -2  191.18   26.98
   9   5  -2  176.66   25.19
  -9   5   2  211.83   28.00
   9  -5  -2  156.67   23.70
   9   5  -1    4.21   13.25
   9   5  -1   14.33   12.99
  -9   5   1   15.18   13.88
   9  -5  -1    8.02   13.73
   9   5   0  303.71   32.53
  -9   5   0  341.55   34.97
   9   5   0  370.70   35.58
   9  -5   0  331.12   33.01
   9   5   1   92.40   20.03
  -9   5  -1   78.19   20.13
   9   5   2  175.47   25.72
   9   6   0    2.77   11.49
   9   6   1  479.95   42.32
   0   0   0    0.00    0.00

TITL XPC68Abs in P2(1)/n
REM P2(1)/n (#14 in standard setting)
CELL 0.71073   6.798369   9.730900  12.954275  90.0000  93.9130  90.0000
ZERR    2.00   0.000375   0.000490   0.000672   0.0000   0.0049   0.0000
LATT  1
SYMM -x+1/2, y+1/2,-z+1/2
SFAC C H N O Cu Zr
UNIT 24.00 44.00 8.00 8.00 2.00 2.00
TREF
HKLF 4
END
_computing_structure_solution     'SHELXT 2014/5 (Sheldrick, 2014)'
;
_shelx_hkl_checksum              90015
_olex2_submission_original_sample_id XPC68
_olex2_submission_special_instructions 'No special instructions were received'
loop_
_space_group_symop_operation_xyz
'x, y, z'
'-x+1/2, y+1/2, -z+1/2'
'-x, -y, -z'
'x-1/2, -y-1/2, z-1/2'
loop_
_atom_site_label
_atom_site_type_symbol
_atom_site_fract_x
_atom_site_fract_y
_atom_site_fract_z
_atom_site_U_iso_or_equiv
_atom_site_adp_type
_atom_site_occupancy
_atom_site_site_symmetry_order
_atom_site_calc_flag
_atom_site_refinement_flags_posn
_atom_site_refinement_flags_adp
_atom_site_refinement_flags_occupancy
Cu1 Cu 0.5000 0.5000 0.5000 0.01019(9) Uani 1 2 d S T P
O1 O 0.7800(3) 1.03322(18) 0.51699(13) 0.0239(4) Uani 1 1 d . . .
O2 O 0.6916(3) 1.00898(17) 0.67957(12) 0.0282(4) Uani 1 1 d . . .
N1 N 0.4561(3) 0.40710(18) 0.36071(12) 0.0136(3) Uani 1 1 d . . .
H1A H 0.3296 0.4435 0.3274 0.016 Uiso 1 1 calc R . .
N2 N 0.6821(2) 0.62938(17) 0.43101(12) 0.0113(3) Uani 1 1 d . . .
H2 H 0.8198 0.5979 0.4502 0.014 Uiso 1 1 calc R . .
C1 C 0.4441(3) 0.2540(2) 0.35729(16) 0.0168(4) Uani 1 1 d . . .
H1B H 0.5746 0.2152 0.3798 0.020 Uiso 1 1 calc R . .
H1C H 0.4115 0.2245 0.2850 0.020 Uiso 1 1 calc R . .
C2 C 0.6177(3) 0.4556(2) 0.29792(15) 0.0162(4) Uani 1 1 d . . .
H2A H 0.5829 0.4387 0.2235 0.019 Uiso 1 1 calc R . .
H2B H 0.7410 0.4054 0.3180 0.019 Uiso 1 1 calc R . .
C3 C 0.6462(3) 0.6082(2) 0.31737(15) 0.0164(4) Uani 1 1 d . . .
H3A H 0.7600 0.6423 0.2810 0.020 Uiso 1 1 calc R . .
H3B H 0.5271 0.6594 0.2912 0.020 Uiso 1 1 calc R . .
C4 C 0.6739(3) 0.7779(2) 0.45702(15) 0.0136(4) Uani 1 1 d . . .
H4A H 0.5427 0.8147 0.4334 0.016 Uiso 1 1 calc R . .
H4B H 0.7742 0.8278 0.4197 0.016 Uiso 1 1 calc R . .
C5 C 0.7109(3) 0.8039(2) 0.57372(16) 0.0162(4) Uani 1 1 d . . .
H5 H 0.8406 0.7613 0.5964 0.019 Uiso 1 1 calc R . .
C6 C 0.7259(3) 0.9589(2) 0.59672(16) 0.0173(4) Uani 1 1 d . . .
Cl1 Cl 0.16299(7) 0.66328(5) 0.44598(4) 0.01526(11) Uani 1 1 d . . .
H1 H 0.793(5) 1.112(4) 0.536(3) 0.053(10) Uiso 1 1 d . . .
loop_
_atom_site_aniso_label
_atom_site_aniso_U_11
_atom_site_aniso_U_22
_atom_site_aniso_U_33
_atom_site_aniso_U_23
_atom_site_aniso_U_13
_atom_site_aniso_U_12
Cu1 0.01357(17) 0.00788(16) 0.00935(15) -0.00087(12) 0.00244(11) -0.00160(12)
O1 0.0333(9) 0.0097(8) 0.0298(9) -0.0015(6) 0.0096(7) -0.0040(6)
O2 0.0507(11) 0.0145(8) 0.0183(7) -0.0039(6) -0.0058(7) -0.0026(7)
N1 0.0170(8) 0.0115(8) 0.0124(8) -0.0003(6) 0.0008(6) -0.0029(6)
N2 0.0109(8) 0.0107(8) 0.0125(7) -0.0009(6) 0.0012(6) 0.0005(6)
C1 0.0221(11) 0.0120(10) 0.0165(9) -0.0032(7) 0.0023(8) -0.0008(8)
C2 0.0204(10) 0.0160(10) 0.0129(9) -0.0025(7) 0.0054(7) 0.0005(8)
C3 0.0208(10) 0.0166(10) 0.0122(9) 0.0011(7) 0.0044(7) -0.0042(8)
C4 0.0147(9) 0.0106(9) 0.0155(9) 0.0018(7) 0.0006(7) 0.0000(7)
C5 0.0196(10) 0.0104(9) 0.0184(9) -0.0008(7) -0.0001(8) -0.0019(7)
C6 0.0180(10) 0.0125(9) 0.0206(10) 0.0003(7) -0.0050(8) -0.0011(7)
Cl1 0.0118(2) 0.0102(2) 0.0237(2) 0.00021(17) 0.00018(17) -0.00030(16)
loop_
_atom_type_symbol
_atom_type_description
_atom_type_scat_dispersion_real
_atom_type_scat_dispersion_imag
_atom_type_scat_source
C C 0.0033 0.0016 'International Tables Vol C Tables 4.2.6.8 and 6.1.1.4'
H H 0.0000 0.0000 'International Tables Vol C Tables 4.2.6.8 and 6.1.1.4'
Cl Cl 0.1484 0.1585 'International Tables Vol C Tables 4.2.6.8 and 6.1.1.4'
Cu Cu 0.3201 1.2651 'International Tables Vol C Tables 4.2.6.8 and 6.1.1.4'
N N 0.0061 0.0033 'International Tables Vol C Tables 4.2.6.8 and 6.1.1.4'
O O 0.0106 0.0060 'International Tables Vol C Tables 4.2.6.8 and 6.1.1.4'
loop_
_exptl_crystal_face_index_h
_exptl_crystal_face_index_k
_exptl_crystal_face_index_l
_exptl_crystal_face_perp_dist
_exptl_oxdiff_crystal_face_indexfrac_h
_exptl_oxdiff_crystal_face_indexfrac_k
_exptl_oxdiff_crystal_face_indexfrac_l
_exptl_oxdiff_crystal_face_x
_exptl_oxdiff_crystal_face_y
_exptl_oxdiff_crystal_face_z
0 3 -5 0.0452 0.0022 3.0136 -5.0206 -0.0863 -0.2477 0.2349
-5 -2 0 0.0708 -5.0154 -2.0069 -0.0153 0.1142 0.3922 0.3602
5 2 -1 0.0810 5.0153 2.0069 -0.9902 -0.0914 -0.4270 -0.3240
0 -3 5 0.0441 -0.0022 -3.0136 5.0206 0.0863 0.2477 -0.2349
0 5 3 0.0295 0.0046 5.0229 3.0285 -0.4014 -0.0180 -0.0198
2 12 7 0.0183 2.0164 12.0541 7.0714 -0.9511 -0.1873 -0.1987
-2 -11 -9 0.0378 -2.0157 -11.0496 -9.0801 0.9299 0.0932 0.2891
loop_
_geom_angle_atom_site_label_1
_geom_angle_atom_site_label_2
_geom_angle_atom_site_label_3
_geom_angle
_geom_angle_site_symmetry_1
_geom_angle_site_symmetry_3
N1 Cu1 N1 180.0 . 3_666
N1 Cu1 Cl1 92.14(5) 3_666 .
N1 Cu1 Cl1 87.86(5) . .
N2 Cu1 N1 93.36(6) . 3_666
N2 Cu1 N1 86.64(6) 3_666 3_666
N2 Cu1 N1 93.36(6) 3_666 .
N2 Cu1 N1 86.64(6) . .
N2 Cu1 N2 180.0 . 3_666
N2 Cu1 Cl1 92.92(5) . .
N2 Cu1 Cl1 87.08(5) 3_666 .
C6 O1 H1 108(2) . .
Cu1 N1 H1A 107.3 . .
C1 N1 Cu1 118.51(12) . .
C1 N1 H1A 107.3 . .
C2 N1 Cu1 106.05(12) . .
C2 N1 H1A 107.3 . .
C2 N1 C1 109.95(16) . .
Cu1 N2 H2 106.9 . .
C3 N2 Cu1 106.71(12) . .
C3 N2 H2 106.9 . .
C4 N2 Cu1 118.23(12) . .
C4 N2 H2 106.9 . .
C4 N2 C3 110.62(15) . .
N1 C1 H1B 109.0 . .
N1 C1 H1C 109.0 . .
N1 C1 C5 112.80(17) . 3_666
H1B C1 H1C 107.8 . .
C5 C1 H1B 109.0 3_666 .
C5 C1 H1C 109.0 3_666 .
N1 C2 H2A 110.1 . .
N1 C2 H2B 110.1 . .
N1 C2 C3 108.08(16) . .
H2A C2 H2B 108.4 . .
C3 C2 H2A 110.1 . .
C3 C2 H2B 110.1 . .
N2 C3 C2 108.05(16) . .
N2 C3 H3A 110.1 . .
N2 C3 H3B 110.1 . .
C2 C3 H3A 110.1 . .
C2 C3 H3B 110.1 . .
H3A C3 H3B 108.4 . .
N2 C4 H4A 109.2 . .
N2 C4 H4B 109.2 . .
N2 C4 C5 112.15(15) . .
H4A C4 H4B 107.9 . .
C5 C4 H4A 109.2 . .
C5 C4 H4B 109.2 . .
C1 C5 C4 116.10(17) 3_666 .
C1 C5 H5 107.7 3_666 .
C1 C5 C6 106.63(17) 3_666 .
C4 C5 H5 107.7 . .
C4 C5 C6 110.84(16) . .
C6 C5 H5 107.7 . .
O1 C6 C5 113.57(18) . .
O2 C6 O1 123.1(2) . .
O2 C6 C5 123.33(19) . .
loop_
_geom_bond_atom_site_label_1
_geom_bond_atom_site_label_2
_geom_bond_distance
_geom_bond_site_symmetry_2
Cu1 N1 2.0220(16) 3_666
Cu1 N1 2.0220(16) .
Cu1 N2 2.0167(16) .
Cu1 N2 2.0167(16) 3_666
Cu1 Cl1 2.8363(5) .
O1 C6 1.333(3) .
O1 H1 0.81(4) .
O2 C6 1.216(3) .
N1 H1A 1.0000 .
N1 C1 1.492(3) .
N1 C2 1.488(3) .
N2 H2 1.0000 .
N2 C3 1.490(2) .
N2 C4 1.486(3) .
C1 H1B 0.9900 .
C1 H1C 0.9900 .
C1 C5 1.534(3) 3_666
C2 H2A 0.9900 .
C2 H2B 0.9900 .
C2 C3 1.517(3) .
C3 H3A 0.9900 .
C3 H3B 0.9900 .
C4 H4A 0.9900 .
C4 H4B 0.9900 .
C4 C5 1.536(3) .
C5 C1 1.534(3) 3_666
C5 H5 1.0000 .
C5 C6 1.540(3) .
loop_
_geom_torsion_atom_site_label_1
_geom_torsion_atom_site_label_2
_geom_torsion_atom_site_label_3
_geom_torsion_atom_site_label_4
_geom_torsion
_geom_torsion_site_symmetry_1
_geom_torsion_site_symmetry_4
Cu1 N1 C1 C5 54.1(2) . 3_666
Cu1 N1 C2 C3 -41.78(18) . .
Cu1 N2 C3 C2 -39.57(18) . .
Cu1 N2 C4 C5 56.74(19) . .
N1 C2 C3 N2 55.3(2) . .
N2 C4 C5 C1 -64.9(2) . 3_666
N2 C4 C5 C6 173.29(16) . .
C1 N1 C2 C3 -171.03(16) . .
C1 C5 C6 O1 -151.64(18) 3_666 .
C1 C5 C6 O2 28.3(3) 3_666 .
C2 N1 C1 C5 176.23(16) . 3_666
C3 N2 C4 C5 -179.84(16) . .
C4 N2 C3 C2 -169.41(16) . .
C4 C5 C6 O1 -24.4(2) . .
C4 C5 C6 O2 155.5(2) . .
