#------------------------------------------------------------------------------
#$Date: 2018-01-17 01:37:24 +0200 (Wed, 17 Jan 2018) $
#$Revision: 205268 $
#$URL: file:///home/coder/svn-repositories/cod/cif/4/12/70/4127030.cif $
#------------------------------------------------------------------------------
#
# This file is available in the Crystallography Open Database (COD),
# http://www.crystallography.net/
#
# All data on this site have been placed in the public domain by the
# contributors.
#
data_4127030
loop_
_publ_author_name
'Zhu, Jie'
'Usov, Pavel M.'
'Xu, Wenqian'
'Celis-Salazar, Paula J'
'Lin, Shaoyang'
'Kessinger, Matthew C.'
'Landaverde-Alvarado, Carlos'
'Cai, Meng'
'May, Ann M.'
'Slebodnick, Carla'
'Zhu, Dunru'
'Senanayake, Sanjaya D.'
'Morris, Amanda J.'
_publ_section_title
;
 A New Class of Metal-Cyclam based Zirconium Metal-Organic Frameworks for
 CO2 Adsorption and Chemical Fixation.
;
_journal_name_full               'Journal of the American Chemical Society'
_journal_paper_doi               10.1021/jacs.7b10643
_journal_year                    2017
_chemical_formula_moiety         'C12 H24 N4 Ni O4, 2(Cl O4), 2(H2 O)'
_chemical_formula_sum            'C12 H28 Cl2 N4 Ni O14'
_chemical_formula_weight         581.99
_space_group_crystal_system      monoclinic
_space_group_IT_number           14
_space_group_name_Hall           '-P 2ybc'
_space_group_name_H-M_alt        'P 1 21/c 1'
_symmetry_space_group_name_Hall  '-P 2ybc'
_symmetry_space_group_name_H-M   'P 1 21/c 1'
_atom_sites_solution_hydrogens   mixed
_atom_sites_solution_primary     direct
_audit_creation_date             2017-03-09
_audit_creation_method
;
Olex2 1.2
(compiled 2017.03.02 svn.r3394 for OlexSys, GUI svn.r5324)
;
_cell_angle_alpha                90
_cell_angle_beta                 103.592(8)
_cell_angle_gamma                90
_cell_formula_units_Z            2
_cell_length_a                   8.5347(5)
_cell_length_b                   15.2793(11)
_cell_length_c                   8.7620(7)
_cell_measurement_reflns_used    3581
_cell_measurement_temperature    250.00(14)
_cell_measurement_theta_max      74.2440
_cell_measurement_theta_min      5.1900
_cell_volume                     1110.60(14)
_computing_cell_refinement
;
CrysAlisPro, Agilent Technologies,
Version 1.171.37.35 (release 13-08-2014 CrysAlis171 .NET)
(compiled Aug 13 2014,18:06:01)
;
_computing_data_collection
;
CrysAlisPro, Agilent Technologies,
Version 1.171.37.35 (release 13-08-2014 CrysAlis171 .NET)
(compiled Aug 13 2014,18:06:01)
;
_computing_data_reduction
;
CrysAlisPro, Agilent Technologies,
Version 1.171.37.35 (release 13-08-2014 CrysAlis171 .NET)
(compiled Aug 13 2014,18:06:01)
;
_computing_molecular_graphics    'Olex2 (Dolomanov et al., 2009)'
_computing_publication_material  'Olex2 (Dolomanov et al., 2009)'
_computing_structure_refinement  'ShelXL (Sheldrick, 2015)'
_computing_structure_solution    'ShelXT (Sheldrick, 2015)'
_diffrn_ambient_environment      N~2~
_diffrn_ambient_temperature      250.00(14)
_diffrn_detector                 'CCD plate'
_diffrn_detector_area_resol_mean 4.1587
_diffrn_detector_type            Onyx
_diffrn_measured_fraction_theta_full 0.998
_diffrn_measured_fraction_theta_max 0.991
_diffrn_measurement_details
;
#__ type_ start__ end____ width___ exp.time_
  1 omega -107.00  -80.00   1.0000    4.0000
omega____ theta____ kappa____ phi______ frames
    -      -41.6919  -99.0000 -120.0000 27

#__ type_ start__ end____ width___ exp.time_
  2 omega -110.00  -21.00   1.0000    4.0000
omega____ theta____ kappa____ phi______ frames
    -      -41.6919  -57.0000  120.0000 89

#__ type_ start__ end____ width___ exp.time_
  3 omega  -96.00   -6.00   1.0000    4.0000
omega____ theta____ kappa____ phi______ frames
    -      -41.6919  125.0000    0.0000 90

#__ type_ start__ end____ width___ exp.time_
  4 omega  -69.00   27.00   1.0000    4.0000
omega____ theta____ kappa____ phi______ frames
    -      -41.6919   57.0000  -90.0000 96

#__ type_ start__ end____ width___ exp.time_
  5 omega   81.00  117.00   1.0000    4.0000
omega____ theta____ kappa____ phi______ frames
    -       41.6919  125.0000   90.0000 36

#__ type_ start__ end____ width___ exp.time_
  6 omega   31.00   96.00   1.0000   30.0000
omega____ theta____ kappa____ phi______ frames
    -      107.0000 -111.0000  150.0000 65

#__ type_ start__ end____ width___ exp.time_
  7 omega   34.00   65.00   1.0000   30.0000
omega____ theta____ kappa____ phi______ frames
    -      107.0000  -45.0000  150.0000 31

#__ type_ start__ end____ width___ exp.time_
  8 omega   36.00   64.00   1.0000   30.0000
omega____ theta____ kappa____ phi______ frames
    -      107.0000 -111.0000  -30.0000 28

#__ type_ start__ end____ width___ exp.time_
  9 omega   29.00   56.00   1.0000   30.0000
omega____ theta____ kappa____ phi______ frames
    -      107.0000  -77.0000 -120.0000 27

#__ type_ start__ end____ width___ exp.time_
 10 omega  125.00  164.00   1.0000   30.0000
omega____ theta____ kappa____ phi______ frames
    -      107.0000   15.0000  -90.0000 39

#__ type_ start__ end____ width___ exp.time_
 11 omega   68.00   95.00   1.0000   30.0000
omega____ theta____ kappa____ phi______ frames
    -      107.0000  -77.0000 -120.0000 27

#__ type_ start__ end____ width___ exp.time_
 12 omega  111.00  140.00   1.0000   30.0000
omega____ theta____ kappa____ phi______ frames
    -      107.0000  -77.0000 -120.0000 29

#__ type_ start__ end____ width___ exp.time_
 13 omega   55.00  124.00   1.0000   30.0000
omega____ theta____ kappa____ phi______ frames
    -      107.0000  -77.0000   60.0000 69

#__ type_ start__ end____ width___ exp.time_
 14 omega   80.00  107.00   1.0000   30.0000
omega____ theta____ kappa____ phi______ frames
    -      107.0000   61.0000  120.0000 27

#__ type_ start__ end____ width___ exp.time_
 15 omega   32.00   69.00   1.0000   30.0000
omega____ theta____ kappa____ phi______ frames
    -      107.0000  -30.0000   30.0000 37

#__ type_ start__ end____ width___ exp.time_
 16 omega   34.00   59.00   1.0000   30.0000
omega____ theta____ kappa____ phi______ frames
    -      107.0000  -45.0000 -120.0000 25

#__ type_ start__ end____ width___ exp.time_
 17 omega   27.00   99.00   1.0000   30.0000
omega____ theta____ kappa____ phi______ frames
    -      107.0000 -111.0000   60.0000 72

#__ type_ start__ end____ width___ exp.time_
 18 omega   61.00   88.00   1.0000   30.0000
omega____ theta____ kappa____ phi______ frames
    -      107.0000   15.0000  -90.0000 27

#__ type_ start__ end____ width___ exp.time_
 19 omega   46.00  105.00   1.0000   30.0000
omega____ theta____ kappa____ phi______ frames
    -      107.0000 -111.0000 -120.0000 59

#__ type_ start__ end____ width___ exp.time_
 20 omega   36.00   76.00   1.0000   30.0000
omega____ theta____ kappa____ phi______ frames
    -      107.0000  -61.0000  150.0000 40

#__ type_ start__ end____ width___ exp.time_
 21 omega  101.00  133.00   1.0000   30.0000
omega____ theta____ kappa____ phi______ frames
    -      107.0000  -61.0000  150.0000 32

#__ type_ start__ end____ width___ exp.time_
 22 omega   31.00   70.00   1.0000   30.0000
omega____ theta____ kappa____ phi______ frames
    -      107.0000  -15.0000  150.0000 39

#__ type_ start__ end____ width___ exp.time_
 23 omega   74.00  103.00   1.0000   30.0000
omega____ theta____ kappa____ phi______ frames
    -      107.0000  -15.0000  150.0000 29

#__ type_ start__ end____ width___ exp.time_
 24 omega  109.00  155.00   1.0000   30.0000
omega____ theta____ kappa____ phi______ frames
    -      107.0000  -15.0000  150.0000 46

#__ type_ start__ end____ width___ exp.time_
 25 omega   27.00   78.00   1.0000   30.0000
omega____ theta____ kappa____ phi______ frames
    -      107.0000 -111.0000   90.0000 51

#__ type_ start__ end____ width___ exp.time_
 26 omega   81.00  115.00   1.0000   30.0000
omega____ theta____ kappa____ phi______ frames
    -      107.0000 -111.0000   90.0000 34

#__ type_ start__ end____ width___ exp.time_
 27 omega   66.00  101.00   1.0000   30.0000
omega____ theta____ kappa____ phi______ frames
    -      107.0000   15.0000   30.0000 35

#__ type_ start__ end____ width___ exp.time_
 28 omega   34.00   59.00   1.0000   30.0000
omega____ theta____ kappa____ phi______ frames
    -      107.0000  -61.0000 -150.0000 25

#__ type_ start__ end____ width___ exp.time_
 29 omega   86.00  134.00   1.0000   30.0000
omega____ theta____ kappa____ phi______ frames
    -      107.0000  -61.0000 -150.0000 48

#__ type_ start__ end____ width___ exp.time_
 30 omega   57.00   97.00   1.0000   30.0000
omega____ theta____ kappa____ phi______ frames
    -      107.0000  -94.0000  150.0000 40

#__ type_ start__ end____ width___ exp.time_
 31 omega  124.00  151.00   1.0000   30.0000
omega____ theta____ kappa____ phi______ frames
    -      107.0000   61.0000  120.0000 27

#__ type_ start__ end____ width___ exp.time_
 32 omega   78.00  110.00   1.0000   30.0000
omega____ theta____ kappa____ phi______ frames
    -      107.0000 -111.0000  -30.0000 32

#__ type_ start__ end____ width___ exp.time_
 33 omega  148.00  178.00   1.0000   30.0000
omega____ theta____ kappa____ phi______ frames
    -      107.0000   15.0000   30.0000 30

#__ type_ start__ end____ width___ exp.time_
 34 omega   83.00  172.00   1.0000   30.0000
omega____ theta____ kappa____ phi______ frames
    -      107.0000   61.0000  150.0000 89
;
_diffrn_measurement_device       'four-circle diffractometer'
_diffrn_measurement_device_type  'Xcalibur, Onyx, Nova'
_diffrn_measurement_method       '\w scans'
_diffrn_orient_matrix_UB_11      0.0827492000
_diffrn_orient_matrix_UB_12      0.0182244000
_diffrn_orient_matrix_UB_13      0.1731667000
_diffrn_orient_matrix_UB_21      -0.0104603000
_diffrn_orient_matrix_UB_22      0.0990861000
_diffrn_orient_matrix_UB_23      -0.0332166000
_diffrn_orient_matrix_UB_31      -0.1659104000
_diffrn_orient_matrix_UB_32      0.0025908000
_diffrn_orient_matrix_UB_33      0.0408295000
_diffrn_radiation_monochromator  mirror
_diffrn_radiation_probe          x-ray
_diffrn_radiation_type           CuK\a
_diffrn_radiation_wavelength     1.54184
_diffrn_reflns_av_R_equivalents  0.0526
_diffrn_reflns_av_unetI/netI     0.0374
_diffrn_reflns_Laue_measured_fraction_full 0.998
_diffrn_reflns_Laue_measured_fraction_max 0.991
_diffrn_reflns_limit_h_max       8
_diffrn_reflns_limit_h_min       -10
_diffrn_reflns_limit_k_max       19
_diffrn_reflns_limit_k_min       -18
_diffrn_reflns_limit_l_max       10
_diffrn_reflns_limit_l_min       -10
_diffrn_reflns_number            10087
_diffrn_reflns_point_group_measured_fraction_full 0.998
_diffrn_reflns_point_group_measured_fraction_max 0.991
_diffrn_reflns_theta_full        74.000
_diffrn_reflns_theta_max         75.089
_diffrn_reflns_theta_min         5.332
_diffrn_source                   'sealed X-ray tube'
_diffrn_source_type              'Nova (Cu) X-ray Source'
_exptl_absorpt_coefficient_mu    4.193
_exptl_absorpt_correction_T_max  0.864
_exptl_absorpt_correction_T_min  0.626
_exptl_absorpt_correction_type   analytical
_exptl_absorpt_process_details
;
CrysAlisPro, Agilent Technologies,
Version 1.171.37.35 (release 13-08-2014 CrysAlis171 .NET)
(compiled Aug 13 2014,18:06:01)
Analytical numeric absorption correction using a multifaceted crystal
            model based on expressions derived by R.C. Clark & J.S. Reid.
(Clark, R. C. & Reid, J. S. (1995). Acta Cryst. A51, 887-897)
Empirical absorption correction using spherical harmonics,
 implemented in SCALE3 ABSPACK scaling algorithm.
;
_exptl_crystal_density_diffrn    1.740
_exptl_crystal_description
;
;
_exptl_crystal_F_000             604
_exptl_crystal_size_max          0.2142
_exptl_crystal_size_mid          0.0997
_exptl_crystal_size_min          0.0385
_refine_diff_density_max         0.482
_refine_diff_density_min         -0.650
_refine_diff_density_rms         0.074
_refine_ls_extinction_method     none
_refine_ls_goodness_of_fit_ref   1.093
_refine_ls_hydrogen_treatment    mixed
_refine_ls_matrix_type           full
_refine_ls_number_parameters     185
_refine_ls_number_reflns         2266
_refine_ls_number_restraints     36
_refine_ls_restrained_S_all      1.154
_refine_ls_R_factor_all          0.0720
_refine_ls_R_factor_gt           0.0637
_refine_ls_shift/su_max          0.000
_refine_ls_shift/su_mean         0.000
_refine_ls_structure_factor_coef Fsqd
_refine_ls_weighting_details
'w=1/[\s^2^(Fo^2^)+(0.0665P)^2^+1.6522P] where P=(Fo^2^+2Fc^2^)/3'
_refine_ls_weighting_scheme      calc
_refine_ls_wR_factor_gt          0.1593
_refine_ls_wR_factor_ref         0.1650
_reflns_Friedel_coverage         0.000
_reflns_number_gt                2008
_reflns_number_total             2266
_reflns_threshold_expression     'I > 2\s(I)'
_cod_data_source_file            ja7b10643_si_004.cif
_cod_data_source_block           xpc16_250abs
_cod_original_cell_volume        1110.59(14)
_cod_database_code               4127030
_shelx_shelxl_version_number     2014/7
_chemical_oxdiff_formula         'C12 Ni N4 O12 Cl2 H20'
_chemical_oxdiff_usercomment
'Sample name JZ-1-p-104 Jie Zhu, Amanda Morris Lab'
_shelx_space_group_comment
;
The symmetry employed for this shelxl refinement is uniquely defined
by the following loop, which should always be used as a source of
symmetry information in preference to the above space-group names.
They are only intended as comments.
;
_olex2_refinement_description
;
1. Fixed Uiso
 At 1.2 times of:
  All C(H) groups, All C(H,H) groups, All N(H) groups
 At 1.5 times of:
  All O(H) groups, All O(H,H) groups
2. Rigid body (RIGU) restrains
 Cl1, O5B, O5A, O4A, O4B, O7, O3A, O3B
 with sigma for 1-2 distances of 0.004 and sigma for 1-3 distances of 0.004
3. Others
 Sof(O3B)=Sof(O4B)=Sof(O5B)=1-FVAR(1)
 Sof(O3A)=Sof(O4A)=Sof(O5A)=FVAR(1)
4.a Free rotating group:
 O7(H7A,H7B)
4.b Ternary CH refined with riding coordinates:
 N1(H1), N2(H2A), C5(H5)
4.c Secondary CH2 refined with riding coordinates:
 C1(H1A,H1B), C2(H2B,H2C), C3(H3A,H3B), C4(H4A,H4B)
;
_shelx_res_file
;
    xpc16_250abs.res created by SHELXL-2014/7

TITL xpc16_250abs_a.res in P2(1)/c
REM Old TITL XPC16_250Abs in P21/c #14
REM SHELXT solution in P2(1)/c
REM R1 0.206, Rweak 0.295, Alpha 0.049, Orientation as input
REM Formula found by SHELXT: C20 N6 O2 Cl2 Ni
CELL 1.54184 8.534668 15.279276 8.76196 90 103.592 90
ZERR 2 0.000547 0.001066 0.00069 0 0.0077 0
LATT 1
SYMM -X,0.5+Y,0.5-Z
SFAC C H Cl N Ni O
UNIT 24 56 4 8 2 28
EQIV $1 1-X,-0.5+Y,1.5-Z
EQIV $2 1-X,1-Y,2-Z
EQIV $3 1+X,+Y,+Z
EQIV $4 1-X,0.5+Y,1.5-Z
EQIV $5 1-X,1-Y,1-Z
RIGU Cl1 O5B O5A O4A O4B O7 O3A O3B

L.S. 20
PLAN  20
TEMP -23
HTAB N1 O1_$1
HTAB N1 O3B
HTAB N2 O5A_$2
HTAB O2 O7_$3
HTAB N2 O6_$4
HTAB O7 O3A_$5
HTAB O7 O6_$4
HTAB O7 O4B_$4
BOND $H
LIST 6
MORE -1
CONF
fmap 2
acta 148
REM <olex2.extras>
REM <HklSrc "%.\\XPC16_250Abs.hkl">
REM </olex2.extras>

WGHT    0.066500    1.652200
FVAR       0.62925   0.59752
NI1   5    0.500000    0.500000    1.000000    10.50000    0.04063    0.03909 =
         0.03869    0.00320    0.01278    0.00050
O1    6    0.783563    0.755900    0.670723    11.00000    0.16568    0.05526 =
         0.15438    0.02801    0.11738    0.01128
O2    6    0.852717    0.624058    0.641528    11.00000    0.17746    0.06863 =
         0.17794    0.02964    0.14717    0.02421
H2    2    0.897233    0.640396    0.577386    11.00000   -1.50000
N1    4    0.298291    0.436225    0.941853    11.00000    0.04387    0.04394 =
         0.04079    0.00168    0.01306    0.00062
AFIX  13
H1    2    0.322607    0.380922    0.893237    11.00000   -1.20000
AFIX   0
N2    4    0.423862    0.567026    0.809495    11.00000    0.04370    0.04720 =
         0.04440    0.00650    0.01341    0.00128
AFIX  13
H2A   2    0.380358    0.622172    0.842226    11.00000   -1.20000
AFIX   0
C1    1    0.213540    0.410992    1.065467    11.00000    0.04332    0.04902 =
         0.05101    0.00211    0.02006   -0.00189
AFIX  23
H1A   2    0.115228    0.378538    1.017607    11.00000   -1.20000
H1B   2    0.182244    0.463844    1.114317    11.00000   -1.20000
AFIX   0
C2    1    0.185644    0.485640    0.816106    11.00000    0.04245    0.05686 =
         0.04830    0.00705    0.00644   -0.00294
AFIX  23
H2B   2    0.135605    0.533748    0.861462    11.00000   -1.20000
H2C   2    0.100345    0.446984    0.758582    11.00000   -1.20000
AFIX   0
C3    1    0.283689    0.520753    0.708148    11.00000    0.04980    0.06605 =
         0.04414    0.00865    0.00730   -0.00227
AFIX  23
H3A   2    0.320629    0.472865    0.650932    11.00000   -1.20000
H3B   2    0.219289    0.561324    0.631867    11.00000   -1.20000
AFIX   0
C4    1    0.536531    0.593335    0.712824    11.00000    0.05582    0.05678 =
         0.04281    0.00763    0.01773   -0.00296
AFIX  23
H4A   2    0.478926    0.628919    0.624241    11.00000   -1.20000
H4B   2    0.577241    0.540957    0.670361    11.00000   -1.20000
AFIX   0
C5    1    0.678195    0.645647    0.809103    11.00000    0.05334    0.04473 =
         0.05219    0.00305    0.02135   -0.00025
AFIX  13
H5    2    0.635909    0.694903    0.860950    11.00000   -1.20000
AFIX   0
C6    1    0.775107    0.682092    0.699154    11.00000    0.05427    0.05456 =
         0.05147    0.00493    0.01925   -0.00155

CL1   3    0.684448    0.330868    0.780319    11.00000    0.07446    0.05614 =
         0.07061   -0.01362    0.02620    0.00497
PART 1
O3A   6    0.771332    0.391531    0.694638    21.00000    0.13592    0.07519 =
         0.13760    0.00010    0.08402   -0.01624
O4A   6    0.523973    0.349615    0.720403    21.00000    0.07287    0.13302 =
         0.20665    0.01602    0.04737    0.02288
O5A   6    0.731026    0.354831    0.933086    21.00000    0.21092    0.16324 =
         0.07960   -0.03266    0.05296   -0.01639
PART 0
O6    6    0.725254    0.246476    0.744370    11.00000    0.11277    0.05645 =
         0.16844   -0.03109    0.06692   -0.00900
PART 2
O3B   6    0.567203    0.307860    0.885343   -21.00000    0.11727    0.12130 =
         0.11303   -0.03155    0.04986   -0.00044
O4B   6    0.816535    0.360457    0.892678   -21.00000    0.09238    0.10229 =
         0.14793   -0.02405   -0.00842   -0.01243
O5B   6    0.598355    0.375073    0.667072   -21.00000    0.16215    0.20475 =
         0.12780    0.06265    0.00816    0.04988

PART 0
AFIX   6
O7    6    0.020352    0.688869    0.462176    11.00000    0.07958    0.14484 =
         0.07896    0.00530    0.04021   -0.01778
H7A   2    0.070048    0.733920    0.508897    11.00000   -1.50000
H7B   2    0.072364    0.668482    0.396915    11.00000   -1.50000
AFIX   0
HKLF 4

REM  xpc16_250abs_a.res in P2(1)/c
REM R1 =  0.0637 for    2008 Fo > 4sig(Fo)  and  0.0720 for all    2266 data
REM    185 parameters refined using     36 restraints

END

WGHT      0.0665      1.6523

REM Highest difference peak  0.482,  deepest hole -0.650,  1-sigma level  0.074
Q1    1   0.8212  0.3818  0.7962  11.00000  0.05    0.48
Q2    1   0.6458  0.2665  0.6494  11.00000  0.05    0.43
Q3    1   0.4965  0.5591  1.0049  11.00000  0.05    0.41
Q4    1   0.6012  0.3686  0.8772  11.00000  0.05    0.40
Q5    1   0.9129  0.6578  0.7175  11.00000  0.05    0.38
Q6    1   0.7816  0.6441  0.5746  11.00000  0.05    0.37
Q7    1   0.6692  0.2932  0.9429  11.00000  0.05    0.35
Q8    1   0.5583  0.3270  0.7980  11.00000  0.05    0.31
Q9    1   0.6896  0.3812  0.6551  11.00000  0.05    0.30
Q10   1   0.7243  0.7278  0.6007  11.00000  0.05    0.29
Q11   1   0.5071  0.3395  0.6475  11.00000  0.05    0.28
Q12   1   0.6900  0.2417  0.8063  11.00000  0.05    0.26
Q13   1   0.7182  0.6200  0.8501  11.00000  0.05    0.25
Q14   1   0.2356  0.4998  0.7594  11.00000  0.05    0.23
Q15   1   0.2625  0.4730  0.8742  11.00000  0.05    0.22
Q16   1   0.8288  0.7395  0.7249  11.00000  0.05    0.21
Q17   1   0.5782  0.3972  0.7492  11.00000  0.05    0.21
Q18   1   0.2608  0.4269  1.0048  11.00000  0.05    0.21
Q19   1   0.6498  0.6997  0.8174  11.00000  0.05    0.21
Q20   1   0.3471  0.4994  0.8876  11.00000  0.05    0.20
;
_shelx_res_checksum              59227
_shelx_hkl_file
;
   0   0   1    6.71    1.44
   0   0   1    4.26    0.94
   0   0   2 3758.77   47.15
   0   0   2 4228.00   41.61
   0   0   2 3941.53   39.63
   0   0   3    4.78    2.10
   0   0   3    4.14    2.30
   0   0   3    2.19    1.28
   0   0   4 1383.11   34.28
   0   0   4 1466.05   43.86
   0   0   4 1244.06   32.26
   0   0   5    0.67    3.45
   0   0   6  130.58    6.51
   0   0  -6  122.98    6.63
   0   0   6  143.73    6.75
   0   0   6  109.64   18.40
   0   0   6  128.29    6.62
   0   0   7   -9.87    6.35
   0   0  -7   -0.18    0.99
   0   0   7   -0.06    1.10
   0   0   7    1.08    1.30
   0   0   7    1.75    1.51
   0   0   7    0.52    1.09
   0   0   8   57.30    5.02
   0   0   8   51.66    4.88
   0   0  -8   51.96    4.74
   0   0  -9    0.01    0.92
   0   0   9    0.67    1.26
   0   0  10   60.61    3.88
   0  -1   0    1.20    0.67
   0  -1   1 2716.91   29.05
   0  -1  -1 2752.41   23.63
   0  -1   2  858.92   14.66
   0  -1   2  907.37   21.13
   0  -1  -2  855.90   18.31
   0   1   2  856.03   24.32
   0  -1   2  813.95   20.43
   0   1   3  627.42   23.35
   0   1   3  607.90   18.82
   0  -1   3  624.17   23.24
   0  -1   3  651.40   21.80
   0  -1   3  642.56   16.06
   0   1   3  653.11   26.34
   0   1   4  204.74   18.60
   0   1   4  195.86   14.36
   0  -1   4  222.43   14.72
   0   1   4  223.02   18.07
   0   1   4  207.93   12.73
   0   1   5  209.04   20.37
   0   1   5  193.37   21.19
   0  -1   5  189.57   23.71
   0  -1   5  209.33   16.37
   0   1   6   45.99    4.18
   0  -1   6   49.58    4.27
   0  -1   6   52.78    4.32
   0  -1  -6   43.12    3.98
   0   1   6   46.95    4.13
   0  -1   6   49.18    4.15
   0  -1   6   46.30   12.76
   0   1   6   32.59    9.56
   0   1   6   49.62    4.27
   0  -1   7    3.33    4.60
   0   1   7    3.76    1.65
   0  -1  -7    2.28    1.13
   0  -1   7    2.17    1.35
   0  -1   7    3.93    1.29
   0   1   7    3.41    1.74
   0  -1   7    5.46    1.79
   0  -1   7    5.37    1.77
   0   1   7    2.64    1.19
   0   1   7    5.35    1.50
   0   1  -7    3.86    1.45
   0   1   8   88.98    5.16
   0  -1  -8   88.74    6.19
   0  -1   8   87.57    6.06
   0   1  -8   91.67    6.29
   0   1   8   93.55    6.64
   0  -1   8   91.78    6.40
   0  -1   8   97.59    6.39
   0  -1   9    2.01    1.58
   0   1   9    0.58    1.26
   0  -1  -9    1.67    0.91
   0   1  -9    2.65    1.46
   0   1  10   12.42    1.92
   0  -1  10   10.76    1.75
   0  -2   0   -0.18    0.80
   0  -2   1   95.52    6.86
   0   2   1   71.69    3.90
   0  -2  -1   99.11    5.44
   0  -2   2 1467.89   30.61
   0  -2  -2 1346.23   23.81
   0   2   2 1407.67   28.30
   0  -2  -3    1.88    1.34
   0   2   3    3.22    2.08
   0   2   3    3.26    2.31
   0  -2   3    4.30    2.03
   0   2   4   88.89    8.38
   0   2   4   81.66   11.32
   0  -2   4   88.20   10.02
   0   2   4   89.20   11.24
   0   2   4   94.71   12.70
   0   2   5  298.35   25.58
   0  -2   5  273.03   19.85
   0   2   5  262.57   22.89
   0  -2   6  207.86   27.79
   0  -2   6  211.24    8.31
   0   2   6  240.32    8.83
   0  -2   6  211.32    8.51
   0   2   6  196.12    6.59
   0   2   6  204.43    8.38
   0  -2  -6  212.02    8.74
   0   2   6  215.24    8.43
   0  -2   6  217.01    7.95
   0  -2   7    8.50    1.79
   0   2   7   10.51    2.46
   0   2   7   10.56    1.94
   0  -2   7    5.57    5.26
   0  -2   7    8.50    2.29
   0  -2   7   11.08    2.25
   0  -2   7   10.78    2.36
   0   2  -7    9.66    2.21
   0   2   7    8.20    1.95
   0  -2  -7    8.00    1.92
   0  -2   8    2.37    1.52
   0  -2   8    3.23    1.50
   0  -2  -8    3.87    1.57
   0   2   8    1.91    1.32
   0  -2   8    3.31    1.46
   0   2   8    2.10    1.50
   0   2  -8    4.39    1.44
   0   2   9   18.13    2.76
   0   2  -9   20.41    2.80
   0  -2   9   16.33    2.49
   0  -2   9   16.98    2.80
   0  -2  10   13.63    1.86
   0   2 -10   18.06    2.17
   0   2  10   15.83    2.11
   0  -3   0    1.54    1.33
   0  -3   1 1360.35   30.16
   0  -3  -1 1388.34   25.26
   0  -3  -2   36.63    4.35
   0  -3   2   35.45    5.50
   0   3   2   34.01    3.77
   0  -3  -3  801.13   22.89
   0   3   3  854.25   34.80
   0   3   3  726.53   24.88
   0  -3   3  845.78   29.85
   0   3   4  376.40   26.53
   0   3   4  342.65   24.93
   0   3   4  325.54   20.42
   0  -3   4  380.03   22.18
   0   3   5   89.52   13.70
   0   3   5   99.28   15.40
   0   3   5   93.22   13.05
   0  -3   5   99.44   12.50
   0   3   6    1.13    1.35
   0   3   6    2.52    1.38
   0  -3   6    3.91    1.37
   0  -3  -6    2.39    1.05
   0  -3   6   -0.05    3.42
   0   3   6    0.93    1.21
   0  -3   6    3.97    1.37
   0  -3   6    3.60    1.41
   0   3   6    2.69    1.15
   0  -3   7  269.94   36.08
   0   3   7  290.15    9.05
   0   3   7  306.90   10.99
   0  -3  -7  303.51   11.20
   0  -3   7  316.28   10.87
   0  -3   7  295.86   10.92
   0  -3   7  306.11   10.13
   0  -3   7  293.24   11.40
   0  -3  -8   -0.22    1.09
   0  -3   8   -0.63    1.07
   0   3  -8   -0.56    0.95
   0  -3   8    2.31    1.49
   0  -3   8    1.59    1.59
   0   3   8   -0.11    1.18
   0   3   8   -1.63    1.58
   0   3  -9    0.60    0.91
   0  -3   9   -0.69    1.23
   0   3   9    1.18    1.44
   0  -3   9    3.63    1.74
   0  -3  10    5.08    1.23
   0   3  10    3.95    1.28
   0   3 -10    4.83    1.18
   0  -4   0  222.13   13.28
   0  -4   1 1892.82   41.30
   0  -4  -1 1833.75   34.91
   0  -4   2  487.05   22.35
   0  -4  -2  486.05   17.88
   0   4   3   66.71   10.39
   0  -4   3   79.48   10.19
   0  -4  -3   69.03    7.35
   0   4   3   57.60    6.15
   0   4   4  326.78   27.09
   0  -4   4  361.19   23.36
   0  -4   5   70.49   11.31
   0   4   5   82.20   14.38
   0   4   5   87.36   15.47
   0  -4   6  259.73    9.03
   0  -4   6  260.88    9.11
   0   4   6  228.18    7.66
   0  -4  -6  247.65    9.69
   0  -4   6  255.26    9.49
   0  -4   6  212.77   30.14
   0   4   6  245.78    9.29
   0   4   6  272.28   30.07
   0  -4   7    2.94    1.84
   0   4   7    3.84    1.64
   0  -4   7    1.46    1.10
   0  -4  -7    4.52    1.64
   0  -4   7   19.50   10.21
   0   4   7    3.29    1.64
   0  -4   7    2.48    1.31
   0  -4   7    2.93    1.66
   0  -4   8   56.37    4.75
   0  -4   8   61.60    4.60
   0  -4   8   59.68    5.34
   0  -4   8   49.62    4.39
   0   4  -8   56.13    5.10
   0   4   8   57.12    5.00
   0  -4   9    1.17    1.55
   0   4   9    0.19    1.50
   0  -4   9    1.40    1.07
   0   4  -9    1.38    1.30
   0   4 -10   14.40    1.88
   0   4  10   14.36    1.91
   0  -5   0   13.97    4.16
   0  -5   1  162.10   13.72
   0  -5  -1  134.64   11.13
   0  -5   2    7.95    3.55
   0  -5  -2    7.38    2.66
   0  -5  -3   63.66    7.58
   0   5   3   65.60   11.64
   0  -5   3   66.67   10.16
   0  -5   4   13.57    5.42
   0   5   4   11.95    5.39
   0  -5   5  315.24   25.67
   0   5   5  355.86   32.48
   0   5   5  276.70   28.28
   0  -5   6    2.90    1.30
   0   5   6    4.32    1.61
   0  -5   6    4.76    1.71
   0  -5   6    4.18    1.43
   0   5   6    3.45    1.49
   0  -5   6   16.27    8.90
   0   5   6   -0.70    2.81
   0   5   7   71.67    5.64
   0   5   7   62.65    4.59
   0  -5   7   71.06    5.20
   0  -5   7   82.55    5.48
   0  -5   7   77.47    5.61
   0   5  -8   23.94    3.45
   0  -5   8   24.33    3.10
   0   5   8   27.51    3.52
   0  -5   8   26.91    3.84
   0  -5   8   28.14    3.12
   0  -5   8   28.21    3.24
   0   5  -9   71.26    5.03
   0   5   9   70.46    4.81
   0  -5   9   63.31    3.90
   0  -5   9   63.93    4.82
   0   5  10    2.47    0.99
   0   5 -10    1.46    0.66
   0  -6   0 1192.61   37.43
   0  -6   1    2.97    3.01
   0  -6  -1    3.21    2.56
   0  -6  -2   26.09    5.49
   0  -6   2   32.36    7.25
   0   6   3  155.17   17.62
   0  -6   3  148.57   16.18
   0  -6  -3  167.54   13.30
   0  -6   4  612.64   35.15
   0   6   4  551.51   37.47
   0  -6   5    2.22    2.63
   0  -6   5    2.76    0.87
   0   6   5    8.00    1.80
   0   6   5   15.49    7.49
   0   6   5   11.02    5.71
   0   6   5    7.29    1.77
   0  -6   6  116.72    6.11
   0   6   6  126.54   22.33
   0  -6   6  118.04    6.54
   0   6   6  102.72    6.45
   0   6   6  102.80    5.71
   0  -6   6  104.88   21.14
   0  -6   7   12.15    2.30
   0  -6   7   13.53    2.35
   0  -6   7   16.87    2.47
   0   6   7    9.72    2.44
   0  -6   8   32.18    3.31
   0  -6   8   37.23    4.25
   0  -6   8   37.43    3.53
   0   6   8   40.72    4.19
   0  -6   9   -0.77    1.14
   0   6  -9   -0.06    1.01
   0   6   9    1.44    1.20
   0   6  10   24.82    2.06
   0   6 -10   20.70    1.96
   0  -7   0    1.82    2.92
   0  -7   1  149.22   15.05
   0  -7  -1  133.27   12.92
   0  -7   2   19.21    5.92
   0  -7  -2   17.82    4.89
   0  -7  -3  211.45   16.45
   0  -7   3  222.81   20.96
   0   7   3  209.88   21.20
   0   7   4  136.02   19.02
   0  -7   4  113.37   16.23
   0   7   5  217.69   29.93
   0  -7   5  245.51   31.58
   0   7  -5  275.78   10.13
   0  -7   5  263.65   25.90
   0   7   5  270.76    9.98
   0  -7   5  236.08    8.91
   0   7   5  293.43   31.17
   0  -7   5  270.85    9.70
   0  -7   5  267.08    8.78
   0  -7   6  204.98    8.73
   0   7   6  190.60    8.66
   0  -7   6  192.87   29.20
   0  -7   6  192.97    7.89
   0   7   6  233.03   30.48
   0  -7   7   48.92    4.11
   0  -7   7   49.05    4.42
   0   7   7   48.78    4.72
   0   7   8   17.96    2.79
   0  -7   8   17.68    2.36
   0  -7   8   21.83    2.78
   0   7   8   20.14    2.12
   0  -7   8   20.96    3.40
   0  -7   9   47.13    3.83
   0   7   9   51.06    3.83
   0   7  -9   51.58    4.07
   0  -8   0  500.55   28.25
   0  -8   1  245.64   20.85
   0  -8  -1  252.61   19.26
   0  -8  -2   13.94    5.10
   0   8   2   16.06    6.30
   0  -8   2   22.95    7.51
   0  -8   3   16.60    6.27
   0   8   3   23.11    7.73
   0  -8   4    6.69    4.32
   0   8   4    8.44    5.95
   0  -8   5   94.19    5.41
   0  -8   5   95.44   18.60
   0  -8   5   77.66    5.57
   0   8   5  106.06   21.43
   0  -8   5  100.76    6.21
   0  -8   5  102.63   16.34
   0   8   5  100.19    6.49
   0   8   5  121.84   20.47
   0   8  -5  100.36    6.40
   0   8   6  110.60    5.72
   0  -8   6  129.90    7.20
   0  -8   6  113.16   22.69
   0   8   6  110.55    7.07
   0   8   7    3.46    1.98
   0   8   7    3.07    1.31
   0  -8   7    7.19    1.95
   0  -8   8   69.16    4.69
   0  -8   8   76.29    5.56
   0   8   8   68.40    4.97
   0   8   8   69.62    3.69
   0   8   9   -0.26    0.82
   0   8  -9    0.08    0.64
   0  -8   9    1.22    1.04
   0   8   9    0.87    0.94
   0  -9   0    2.12    2.41
   0  -9   1   26.17    7.34
   0  -9  -1   24.30    6.29
   0  -9   2   87.19   14.17
   0  -9  -2  107.57   13.35
   0   9   2   98.01   13.75
   0   9   3  585.80   37.83
   0  -9   3  626.08   39.35
   0  -9   4   18.62    7.99
   0   9  -4   19.37    2.86
   0  -9   4   21.51    2.79
   0  -9   4   19.97    7.72
   0   9   4   16.62    8.35
   0   9   4   12.21    5.33
   0   9   4   18.12    2.56
   0   9   4   19.89    2.38
   0  -9   5  -14.12    7.89
   0  -9   5   -0.01    0.73
   0   9  -5   -0.15    1.26
   0   9   5    1.94    1.31
   0  -9   5    0.29    1.17
   0  -9   5   -0.43    1.20
   0  -9   5   -8.24    5.34
   0   9   5    3.74    4.12
   0   9   5   -2.01    3.69
   0   9   5    1.12    1.04
   0  -9   6   -0.23    1.22
   0   9   6    0.91    1.45
   0   9   6    1.54    1.23
   0   9   7  194.82    8.64
   0   9   7  174.98    6.62
   0  -9   7  180.96    8.23
   0  -9   8    1.88    1.35
   0   9   8    1.76    1.24
   0  -9   8    1.32    0.85
   0  -9  -8    2.05    0.85
   0   9  -9    0.20    0.50
   0  -9   9    0.98    0.73
   0   9   9    1.36    0.86
   0   9   9    0.37    0.72
   0 -10   0    3.62    2.91
   0 -10   1   56.81   11.30
   0 -10  -1   67.22   11.40
   0 -10  -2  514.11   31.24
   0 -10   2  534.86   36.73
   0  10   2  490.38   31.93
   0 -10  -3   16.21    2.09
   0  10   3   24.96    8.17
   0 -10   3   12.57    2.02
   0  10  -3   13.40    2.27
   0  10  -3   14.17    2.44
   0 -10   3   11.48    6.25
   0 -10   3   15.14    2.31
   0  10   3   15.90    2.23
   0 -10   3   15.98    2.32
   0 -10   4   37.03    3.54
   0 -10   4   22.34    8.69
   0 -10  -4   31.59    3.11
   0  10   4   37.76   10.88
   0  10  -4   29.37    3.64
   0 -10   4   33.00    9.94
   0  10   4   32.39    3.70
   0  10   4   33.72   12.82
   0  10   4   28.84    3.03
   0 -10   5   43.74    3.86
   0  10   5   42.09    3.63
   0 -10   5   42.63    4.29
   0  10  -5   42.31    4.53
   0  10   5   38.14    4.31
   0 -10   6   74.95    5.55
   0  10   6   75.36    5.59
   0  10   6   71.19    4.55
   0  10   7   12.28    1.72
   0 -10  -7   11.98    1.80
   0 -10   7   10.03    2.10
   0  10   7   11.82    2.30
   0 -10   8    9.65    1.60
   0  10   8   10.63    1.78
   0 -10   8   12.81    1.91
   0  10  -9    2.35    0.75
   0  10   9    1.46    0.60
   0 -11   0    0.84    0.97
   0 -11   0    0.16    1.48
   0 -11   0   -0.36    0.92
   0 -11  -1  144.47    6.04
   0 -11  -1  146.65    6.47
   0 -11  -1  141.36   17.43
   0 -11   1  145.98    6.56
   0 -11   1  126.03   18.30
   0 -11  -2    1.96    1.00
   0  11  -2    1.49    1.47
   0 -11   2    0.39    1.14
   0 -11   2    0.54    0.73
   0 -11   2    3.37    2.06
   0  11   3   54.94    4.05
   0  11  -3   65.19    5.19
   0 -11   3   65.13    4.57
   0  11  -3   61.51    4.43
   0 -11   3   63.07    4.58
   0 -11  -3   57.37    4.03
   0 -11   3   75.69    4.52
   0  11   4   -0.32    2.72
   0  11   4   26.95    9.44
   0  11   4   18.05    2.45
   0  11  -4   18.63    3.01
   0 -11   4   25.60    2.93
   0 -11  -4   17.87    2.44
   0 -11   4   16.10    2.36
   0 -11   5   35.32    3.97
   0 -11  -5   33.33    3.08
   0 -11   5   30.38    3.16
   0  11   5   34.67    3.86
   0  11  -5   28.16    3.69
   0  11   5   33.53    3.19
   0  11   6    1.10    1.04
   0 -11  -6    2.55    1.20
   0 -11   6    3.97    1.46
   0  11   6    1.71    1.34
   0 -11   7   26.71    2.96
   0  11   7   20.77    2.61
   0 -11  -7   22.80    2.14
   0 -11   7   20.17    2.51
   0 -11   8    0.75    0.67
   0  11   8   -0.15    0.72
   0 -11   8   -0.14    0.65
   0 -12   0  867.42   46.80
   0 -12   0  869.95   16.19
   0 -12   1   23.73    3.08
   0 -12  -1    8.12    5.21
   0 -12   1   12.77    5.66
   0 -12   1   17.97    2.60
   0 -12  -1   21.57    2.66
   0 -12  -1   19.69    2.72
   0  12  -2   22.23    2.71
   0 -12   2   29.83    3.14
   0 -12   2   22.43    8.31
   0 -12  -2   28.55    3.10
   0 -12  -2   30.19    2.91
   0 -12   2   30.91    3.10
   0  12  -3   22.97    2.84
   0  12  -3   21.78    3.17
   0 -12  -3   16.07    2.27
   0 -12   3   22.37    2.78
   0  12   3   24.51   10.63
   0 -12   3   23.95    8.95
   0  12  -4  287.73   11.08
   0 -12   4  291.44    9.07
   0 -12   4  216.59    8.36
   0 -12  -4  260.08    8.50
   0 -12   5   25.68    3.28
   0  12  -5   24.23    3.42
   0 -12   5   18.69    2.39
   0 -12  -5   21.00    2.32
   0 -12  -6    8.80    1.49
   0 -12   6   10.91    2.12
   0 -12   7    8.63    1.48
   0  12   7    6.44    1.44
   0 -12   7    6.58    1.43
   0 -12   8   -0.51    0.45
   0  12   8    0.24    0.49
   0  12  -8    0.39    0.51
   0 -12  -8    0.48    0.39
   0 -13   0   -8.70    5.14
   0 -13   0    0.69    0.93
   0 -13   1  230.43    8.30
   0 -13   1  248.05   26.95
   0  13   1  202.01   28.33
   0 -13  -1  215.02    7.83
   0 -13  -1  211.43    8.33
   0 -13   2   30.40    3.16
   0 -13  -2   24.29    2.67
   0 -13  -2   28.88    3.16
   0  13  -2   24.83    2.88
   0 -13   2   25.89    3.01
   0  13  -3    9.88    1.94
   0 -13   3    8.51    1.95
   0 -13  -3    9.63    2.02
   0  13  -3    6.27    1.99
   0 -13  -3    8.33    1.79
   0 -13   4  228.23    8.17
   0  13  -4  316.48   11.46
   0 -13  -4  291.97    8.75
   0 -13  -5   89.68    4.57
   0  13  -5   97.50    6.11
   0 -13   5   97.11    5.81
   0 -13   6   53.10    3.89
   0  13   6   36.58    3.07
   0 -13  -6   55.67    3.12
   0  13   7   -0.08    0.75
   0  13   7   -0.35    0.53
   0 -13  -7    0.78    0.61
   0 -13   7   -0.01    0.65
   0 -14   0    0.97    0.93
   0 -14  -1   32.59    3.32
   0 -14   1   34.27    3.36
   0  14  -2  244.86    8.67
   0 -14  -2  235.58    8.12
   0 -14  -2  252.72    9.05
   0  14  -2  253.12   10.08
   0 -14   2  252.56    8.95
   0 -14  -3   39.64    3.27
   0 -14  -3   37.10    3.45
   0  14  -3   36.94    3.21
   0  14  -3   43.47    4.22
   0 -14   3   37.49    3.50
   0 -14  -4    3.62    1.26
   0 -14  -4    4.85    1.28
   0  14  -4    8.82    1.99
   0 -14  -5    1.93    0.98
   0  14  -5    3.99    1.39
   0 -14  -5    1.46    0.72
   0 -14   5    3.69    1.27
   0 -14   6   19.31    2.14
   0 -14  -6   23.08    2.18
   0 -14   7    0.23    0.45
   0 -14  -7    0.46    0.38
   0  14   7    0.26    0.51
   0 -15   0   -0.78    0.84
   0  15  -1   69.38    4.62
   0 -15  -1   73.00    4.81
   0 -15   1   72.78    4.68
   0 -15   2   24.55    2.79
   0  15  -2   25.65    3.23
   0 -15  -2   20.03    2.52
   0  15  -2   21.35    2.39
   0  15  -3   33.91    3.56
   0 -15  -3   31.93    2.79
   0 -15  -3   34.48    3.18
   0 -15   3   21.37    2.31
   0 -15   4    2.24    1.13
   0 -15  -4    0.81    0.75
   0  15  -4    1.15    1.19
   0 -15  -4    1.47    0.99
   0 -15   5   12.04    1.77
   0 -15  -5   13.55    1.76
   0 -15   6    0.69    0.54
   0  15   6   -1.41    0.79
   0 -15  -6   -0.44    0.44
   0 -16   0  103.41    5.21
   0  16   0   94.09    5.18
   0 -16  -1   64.31    3.97
   0  16  -1   63.20    4.05
   0  16  -1   73.06    5.10
   0 -16   1   68.82    4.27
   0  16  -2   37.13    3.58
   0 -16   2   32.05    2.89
   0 -16  -2   29.64    2.85
   0  16  -2   30.80    2.63
   0  16  -3   30.67    3.17
   0 -16  -3   31.02    2.83
   0  16  -4    2.97    1.08
   0 -16   4    1.63    0.90
   0 -16  -4    2.10    0.88
   0 -16  -5    1.45    0.60
   0  16   5    0.26    0.73
   0 -16   5    0.03    0.49
   0  17   0    0.59    0.85
   0 -17   0    1.12    0.80
   0  17   0    0.42    0.85
   0 -17   1   23.34    2.34
   0  17  -1   25.91    2.80
   0  17  -1   24.29    2.19
   0 -17  -1   23.57    2.26
   0 -17  -2    5.52    1.12
   0  17   2    2.73    0.81
   0  17  -2    4.90    1.44
   0  17   3    3.76    0.98
   0  17  -3    2.94    1.13
   0 -17  -3    4.59    0.86
   0 -17   3    5.46    1.26
   0  17   4    2.15    0.78
   0 -17   4    1.34    0.62
   0  17  -4    0.03    0.65
   0  18   0   21.70    2.22
   0 -18   0   19.87    1.77
   0  18   0   15.97    1.52
   0  18  -1    1.10    0.86
   0  18   1    1.54    0.89
   0 -18  -1    1.08    0.51
   0  18   1    1.01    0.67
   0  18  -2    5.81    1.21
   0  18   2    4.77    0.94
   0  18   2    6.19    1.11
   0 -18  -2    5.66    0.87
   0  18   3    2.46    0.69
   0 -18   3    0.95    0.53
   0  18  -3    1.77    0.77
   0  18   3    1.18    0.57
   0  19   0    0.53    0.59
   0  19  -1    9.29    1.18
  -1   0  10    9.03    1.69
  -1   0   9    0.84    1.08
   1   0  -9   -0.66    0.75
  -1   0   9   -1.26    1.60
  -1   0   8  197.16    8.94
   1   0  -8  190.82    8.95
  -1   0   8  190.68    8.79
  -1   0   8  189.35    7.04
  -1   0   8  196.29    9.41
  -1   0   7    1.11    1.18
  -1   0   7   -5.19    5.06
  -1   0   7    3.21    1.46
  -1   0   7    2.18    1.52
  -1   0   7    0.29    1.27
   1   0  -7    1.11    0.87
  -1   0   6   14.04    6.79
  -1   0   5   25.47    8.16
  -1   0   4  199.70   18.91
  -1   0   4  196.47   14.40
  -1   0   4  183.46    9.63
  -1   0   3   30.43    3.15
  -1   0   3   33.16    7.03
  -1   0   3   34.25    5.62
  -1   0   2  167.55   10.46
  -1   0   2  162.92    5.38
  -1   0   2  158.93   11.69
  -1   0   1    7.38    2.08
  -1   0   1    5.18    1.63
  -1   0   1    4.84    0.89
  -1   0   0 4112.41   35.28
  -1   0   0 4092.45   36.35
  -1   0  -1    1.47    1.22
  -1   0  -2 1294.40   30.84
   1   0   3    1.61    1.94
   1   0   3    2.42    2.98
   1   0   4  840.13   34.53
   1   0   4  834.24   31.92
   1   0   5   12.08    5.24
   1   0   5   18.65    5.56
  -1   0  -6  237.08    9.36
   1   0   6  247.42    8.75
   1   0   6  275.18    9.62
   1   0   6  208.77   26.49
   1   0   6  236.91    9.17
   1   0   6  246.00    9.32
   1   0   7   -0.28    1.28
  -1   0  -7   -0.18    0.86
   1   0   7   -0.94    1.30
   1   0   8    7.90    2.21
   1   0   8    5.23    1.64
  -1   0  -8    7.47    1.96
  -1   0  -9   -0.83    0.98
   1   0   9   -0.27    1.06
   1   0  10   63.28    3.66
   1   1 -10    3.42    1.19
  -1  -1  10    4.62    1.51
  -1   1  10    5.24    1.42
   1   1  -9   15.50    2.55
  -1   1   9   16.02    2.63
  -1   1   9   18.63    2.47
  -1  -1   9   15.57    2.52
  -1  -1   9   15.06    2.69
   1  -1  -9   15.25    2.41
  -1   1   8    4.03    1.58
  -1  -1   8    3.64    1.26
   1   1  -8    1.21    1.21
  -1  -1   8    1.17    1.38
  -1  -1   8    1.74    1.16
   1  -1  -8    2.68    1.17
  -1  -1   8    3.12    1.58
  -1   1   8    1.80    1.32
  -1   1   8    2.69    1.68
  -1   1   7  155.76   22.31
   1   1  -7  164.26    8.16
  -1   1   7  144.59    7.72
   1  -1  -7  142.68    7.50
  -1  -1   7  182.73    8.04
  -1   1   7  167.87    7.82
  -1   1   7  143.45    5.95
  -1  -1   7  140.29   23.42
  -1  -1   7  154.52    6.72
  -1  -1   7  164.53    7.84
  -1   1   7  147.18    7.62
  -1  -1   7  162.23    8.16
  -1   1   6   -2.94    4.58
  -1  -1   6    5.96    5.28
  -1  -1   5  177.63   21.72
  -1   1   5  198.71   20.97
  -1   1   5  203.48   17.23
  -1   1   4 1414.69   47.32
  -1   1   4 1353.88   40.88
  -1  -1   4 1309.94   31.26
  -1  -1   4 1352.58   51.10
  -1  -1   4 1363.05   34.65
  -1   1   3  507.01   24.34
  -1  -1   3  500.42   16.76
  -1  -1   3  542.91   19.86
  -1   1   3  518.96   22.46
  -1  -1   3  487.22   26.87
  -1   1   2  595.01   20.81
  -1  -1   2  618.17   18.71
  -1  -1   2  621.91   15.83
  -1   1   2  591.90   21.10
  -1  -1   2  628.30   24.01
   1  -1  -1  335.20    6.44
  -1   1   1  360.15   13.86
  -1  -1   1  349.33   12.38
  -1  -1   1  356.86   11.00
  -1  -1   1  384.85   14.45
   1  -1   0  255.87    9.36
  -1   1   0  270.64    9.90
  -1  -1   0  255.04    9.54
  -1  -1  -1 3189.93   40.22
   1  -1   1 3171.88   41.97
  -1  -1  -2  472.13   18.58
   1  -1   2  496.60   19.62
   1  -1   3  449.42   21.47
   1  -1   3  410.20   19.46
   1   1   4    6.31    3.12
   1   1   4    6.35    2.70
   1  -1   4    7.03    2.93
   1  -1   4   14.71    4.59
   1   1   4    6.47    4.50
   1   1   5  363.01   23.10
   1  -1   5  350.07   24.00
   1   1   5  301.49   25.54
  -1  -1  -6  143.92    7.34
   1  -1   6  151.36    7.08
   1   1   6  143.88    7.11
   1   1   6  134.28    7.05
   1  -1   6  131.05    6.87
  -1   1  -6  128.07    7.01
   1   1   6  118.56   18.54
   1   1   6  130.30    6.83
   1  -1   6  133.62    6.39
   1  -1   6  137.54   22.61
   1   1   7   15.25    2.66
   1  -1   7   14.39    2.65
  -1   1  -7   10.85    2.25
   1  -1   7   15.82    2.58
  -1  -1  -7   16.30    2.77
   1  -1   7   14.39    8.22
   1   1   7   14.00    2.63
   1  -1   7   14.24    2.69
   1  -1   8   26.23    3.39
   1  -1   8   25.80    3.49
   1   1   8   25.68    3.53
  -1   1  -8   25.10    3.32
  -1  -1  -8   24.58    3.25
   1  -1   9   19.50    2.69
   1   1   9   20.75    2.78
  -1   1  -9   20.57    2.69
   1  -1  10    3.94    1.14
   1   1  10    3.70    1.31
  -1   2  10   13.36    2.04
   1   2 -10   16.22    2.11
  -1  -2  10    8.38    1.57
  -1   2   9   58.43    4.00
  -1  -2   9   58.61    4.71
  -1  -2   9   53.23    4.35
   1   2  -9   67.97    5.07
  -1   2   9   41.03    3.85
  -1   2   9   68.85    5.10
  -1   2   8   13.54    2.09
  -1  -2   8   15.00    2.84
   1   2  -8   14.35    2.58
   1  -2  -8   14.89    2.60
  -1  -2   8   15.65    2.74
  -1  -2   8   12.76    2.39
  -1   2   8   14.63    2.67
  -1  -2   7   80.50    5.97
   1  -2  -7   75.86    5.45
  -1   2   7   80.92    4.56
  -1  -2   7   78.07    5.45
  -1   2   7   74.34    5.64
  -1   2   7   88.17    5.79
  -1  -2   7   88.35   18.63
  -1  -2   7   77.41    5.45
  -1  -2   7   83.65    5.05
  -1   2   6  453.62   12.10
  -1   2   6  448.60   12.22
  -1  -2   6  445.43   12.36
  -1   2   6  383.61   31.05
  -1  -2   6  431.37   38.83
  -1  -2   6  456.31   11.49
  -1   2   5   22.23    7.47
  -1  -2   5   19.53    7.51
  -1   2   5   28.91    7.54
  -1  -2   4  609.11   24.36
  -1   2   4  695.87   31.98
  -1   2   4  678.16   31.52
  -1  -2   4  681.40   21.81
  -1  -2   4  672.17   37.64
  -1  -2   3  202.52   12.68
  -1  -2   3  228.67   12.10
  -1  -2   3  200.87   18.19
  -1   2   3  275.85   17.77
  -1   2   3  244.59   17.02
  -1   2   3  238.30   15.75
  -1  -2   2 1560.10   31.02
  -1   2   2 1523.21   37.52
  -1  -2   2 1492.95   28.55
  -1   2   2 1558.11   35.28
  -1  -2   2 1553.23   40.14
  -1  -2   1   20.74    3.55
  -1   2   1   18.70    4.05
  -1   2   1   19.76    3.45
   1  -2  -1   19.99    2.68
  -1  -2   1   18.07    3.76
  -1  -2   0 1441.99   26.44
  -1   2   0 1509.21   26.73
   1  -2   0 1416.95   24.93
  -1   2  -1   35.58    2.88
  -1  -2  -1   34.61    4.58
   1  -2   1   37.05    5.00
   1  -2   2  794.16   19.12
   1  -2   2  892.27   28.13
  -1  -2  -2  912.65   26.37
  -1  -2  -3  281.91   16.46
   1  -2   3  262.24   14.13
   1  -2   3  254.56   17.08
   1   2   4  447.42   29.50
   1   2   4  452.07   23.96
   1  -2   4  516.82   27.09
   1  -2   5   29.64    7.03
   1   2   5   29.99    8.25
   1   2   5   37.02    9.35
  -1  -2  -6   61.01    4.82
   1  -2   6   59.87    4.32
   1  -2   6   59.29    4.83
   1   2   6   57.37    4.40
   1   2   6   59.56    3.94
   1   2   6   56.81    4.70
   1  -2   6   65.47    4.79
   1   2   6   49.86   12.45
   1  -2   7   -0.63    0.87
   1   2   7    0.07    1.16
  -1   2  -7   -0.49    1.23
   1  -2   7    0.92    1.54
   1  -2   7   14.03    8.44
   1  -2   7   -1.07    1.14
   1   2   7   -0.88    1.26
  -1  -2  -7    1.15    1.25
   1  -2   7   -0.40    1.21
  -1   2  -8   17.73    2.82
   1   2   8   19.64    3.25
   1  -2   8   20.92    3.20
  -1  -2  -8   20.85    3.00
   1  -2   8   21.94    3.20
   1  -2   9   13.77    2.23
   1   2   9   14.01    2.42
   1  -2   9   13.80    2.36
  -1   2  -9   16.80    2.51
   1  -2  10   14.18    1.72
   1   2  10   16.04    1.87
   1   3 -10    7.75    1.52
  -1   3  10   10.97    1.80
   1   3  -9    3.03    1.35
  -1  -3   9    3.70    1.88
  -1   3   9    2.45    1.40
  -1  -3   9    2.07    1.22
  -1   3   9    1.59    1.53
  -1  -3   9    1.44    1.02
  -1   3   9   -0.02    0.92
  -1   3   8    0.66    1.14
   1  -3  -8   -0.24    0.86
  -1  -3   8    0.64    0.77
  -1  -3   8    0.91    1.14
  -1  -3   8    1.76    1.26
  -1  -3   8    1.64    1.65
  -1   3   8   -0.18    1.60
   1   3  -8    0.13    1.02
  -1  -3   7  357.46   12.29
  -1   3   7  314.73   11.02
  -1  -3   7  348.36   11.29
   1  -3  -7  346.36   11.67
  -1  -3   7  370.31   11.53
  -1   3   7  334.09    9.57
  -1   3   7  355.36   11.79
  -1  -3   7  353.19   10.54
  -1  -3   7  346.58   38.94
  -1   3   6  109.48    6.07
   1  -3  -6  108.31    6.07
  -1  -3   6   89.71    5.32
  -1   3   6  103.20    4.83
  -1  -3   6   95.81    5.89
  -1  -3   6   86.03   18.06
  -1   3   6   94.00    5.57
  -1   3   5  242.04   20.87
  -1   3   5  269.30   22.98
  -1  -3   5  293.15   29.74
  -1  -3   4    4.23    4.44
  -1   3   4    4.07    2.11
  -1   3   4    5.38    3.65
  -1   3   4    5.21    3.92
  -1  -3   4    2.54    1.73
  -1  -3   3  109.80   14.19
  -1   3   3  126.98   13.78
  -1  -3   3  111.04   10.49
  -1   3   3  129.89   12.96
   1  -3  -2  678.58   12.53
  -1   3   2  751.24   29.69
  -1  -3   2  718.25   28.84
  -1   3   2  784.37   26.12
  -1  -3   2  703.43   24.00
  -1  -3   1 9780.98   85.29
  -1   3   1 9999.00   73.70
   1  -3  -1 9342.48   67.89
  -1   3   0  300.19   13.81
  -1  -3   0  277.42   13.61
   1  -3   0  246.73   12.66
  -1  -3  -1 7046.10   69.49
  -1   3  -1 7634.40   52.93
   1  -3   1 7206.88   74.68
  -1  -3  -2   67.44    7.51
   1  -3   2   65.74    8.16
   1  -3   3 1698.99   46.08
  -1  -3  -3 1710.38   42.31
   1  -3   4  136.28   14.64
  -1  -3  -4  126.23   13.13
   1   3   4  130.49   16.72
   1   3   4  118.69   13.40
   1   3   5    7.06    4.40
   1  -3   5   12.03    4.91
   1   3   6   54.65   13.41
   1   3   6   45.47    4.16
   1  -3   6   42.46    3.72
  -1  -3  -6   41.91    4.04
   1   3   6   40.96    3.34
   1  -3   6   41.51    3.95
   1  -3   6   37.39    3.88
   1   3   6   42.24    3.87
   1   3   7   35.91    4.10
  -1   3  -7   43.73    4.39
   1  -3   7   50.16    4.26
   1  -3   7   42.98    4.58
  -1  -3  -7   40.75    4.30
   1  -3   7   42.24    4.15
   1  -3   7   47.06    4.60
   1   3   8   12.08    2.45
  -1   3  -8   16.64    2.82
   1  -3   8   15.05    2.82
   1  -3   8   15.02    2.74
   1   3   9   76.38    4.94
   1  -3   9   63.99    4.61
  -1   3  -9   85.97    5.37
   1  -3   9   68.63    4.79
   1   3  10    2.06    0.84
  -1   4  10    1.46    0.78
  -1   4  10    3.40    1.23
   1   4 -10    2.52    0.91
  -1   4   9    3.56    1.61
  -1  -4   9    6.88    2.11
   1   4  -9    4.86    1.74
  -1  -4   9    3.05    1.25
  -1   4   9    3.25    1.53
  -1  -4   8   45.85    3.88
  -1   4   8   44.64    4.48
  -1  -4   8   48.24    4.19
  -1  -4   8   41.74    4.11
   1   4  -8   43.67    4.57
  -1   4   8   41.22    3.73
  -1  -4   8   43.62    4.50
  -1  -4   7  226.59   10.03
  -1   4   7  221.41    8.03
  -1  -4   7  219.20   31.72
  -1  -4   7  230.19    9.31
   1  -4  -7  229.76    9.61
  -1   4   7  240.61    9.85
  -1  -4   7  238.76    8.94
  -1   4   6  300.14   10.24
  -1   4   6  282.27    8.24
  -1   4   6  269.81   26.95
  -1  -4   6  301.86    9.40
  -1  -4   6  288.33    9.46
  -1   4   6  319.10   10.35
  -1  -4   6  269.99   33.13
   1  -4  -6  292.42   10.13
  -1  -4   5   10.34    7.35
  -1   4   5   20.18    7.37
  -1  -4   5   18.91    5.03
  -1  -4   4   67.48   13.28
  -1   4   4   58.59   11.77
  -1   4   4   68.32   11.94
  -1  -4   4   75.51   10.31
  -1  -4   3 1106.95   36.00
  -1  -4   3 1025.45   44.12
  -1   4   3 1236.35   47.21
  -1   4   3 1138.67   40.56
  -1   4   2 2892.36   54.42
  -1  -4   2 2827.68   60.92
  -1  -4   2 2872.92   53.90
   1  -4  -2 2771.48   34.26
  -1   4   1 3908.11   50.92
  -1  -4   1 3789.62   55.56
   1  -4  -1 3710.86   51.28
   1  -4   0   28.44    5.03
  -1  -4   0   35.93    5.60
  -1   4  -1    5.38    1.92
   1  -4   1    5.29    3.02
  -1  -4  -1    4.03    2.23
  -1  -4  -2  697.21   25.46
   1   4   2  361.74    9.33
   1  -4   2  717.14   28.98
  -1  -4  -3  361.58   20.12
   1  -4   3  347.65   22.49
   1  -4   4  144.43   16.02
   1   4   4  135.38   18.30
  -1  -4  -4  135.39   13.98
   1  -4   5   80.45   13.25
   1   4   5   83.96   14.49
   1   4   5  102.18   17.44
   1  -4   6   22.13    2.76
  -1  -4  -6   18.35    2.90
   1   4   6   17.39    7.99
   1  -4   6   18.55    2.66
   1   4   6   14.39    2.53
   1  -4   6   16.64    2.74
   1  -4   7  121.00    7.32
   1  -4   7  128.22    6.79
   1   4   7  120.41    7.10
   1  -4   7  114.55    6.46
   1  -4   8   57.89    5.12
  -1   4  -8   56.88    5.01
   1   4   8   57.84    4.83
   1  -4   8   51.19    4.61
   1  -4   9   14.91    2.22
  -1   4  -9   15.53    2.35
   1  -4   9   12.82    2.21
   1   4   9   15.49    2.39
   1   4  10    9.94    1.45
   1   5 -10    4.28    1.16
  -1   5  10    1.76    0.85
  -1   5  10    5.25    1.37
  -1   5   9   29.89    3.38
  -1   5   9   40.53    3.90
  -1  -5   9   40.49    4.08
  -1  -5   9   27.46    3.06
   1   5  -9   40.55    3.96
  -1   5   8    4.27    1.61
  -1  -5   8    4.45    1.63
  -1  -5   8    3.70    1.23
  -1   5   8    7.42    2.22
  -1  -5   8    2.87    1.68
  -1  -5   7   33.76    4.16
  -1  -5   7   40.18   13.64
  -1   5   7   31.94    3.45
  -1  -5   7   35.94    3.65
  -1   5   7   36.47    4.10
  -1  -5   7   38.28    3.72
  -1   5   6   11.73    5.12
  -1   5   6   11.04    1.97
  -1  -5   6    1.36    5.27
  -1   5   6   11.60    2.42
  -1  -5   6   10.93    2.08
  -1  -5   6    8.86    1.79
  -1  -5   5  146.85   16.21
  -1   5   5  164.31   21.31
  -1   5   5  142.53   20.08
  -1  -5   5  159.91   23.17
  -1  -5   4   16.46    5.69
  -1  -5   4    8.55    5.02
  -1   5   4   15.32    6.25
  -1   5   4    8.22    4.43
  -1   5   3  909.97   38.83
  -1  -5   3  931.24   43.05
  -1  -5   3  998.61   36.59
  -1   5   3  966.37   45.25
  -1  -5   2   57.09    8.98
  -1   5   2   53.20    8.32
  -1  -5   2   59.03    8.64
   1  -5  -2   47.98    5.50
   1  -5  -1 1942.30   41.15
  -1  -5   1 1943.57   42.27
  -1   5   1 1799.36   38.07
   1  -5   0  541.56   23.48
  -1  -5   0  578.68   25.21
  -1   5   0  471.23   13.51
  -1  -5  -1  502.88   23.12
   1  -5   1  521.58   24.62
  -1   5  -1  460.11   19.86
  -1  -5  -2  117.42   11.39
   1  -5   2  113.38   12.31
   1  -5   3  370.45   24.57
  -1  -5  -3  380.27   21.91
   1  -5   4   20.47    6.33
   1   5   4   23.78    7.97
  -1  -5  -4   26.90    6.78
   1  -5   5  345.69   10.47
   1  -5   5  386.45   10.89
   1   5   5  286.08   29.55
   1   5   5  382.23   35.82
   1  -5   5  360.99   29.24
   1  -5   6   83.09    5.41
   1  -5   6   72.21    5.42
   1   5   6   64.99    5.09
   1  -5   6   80.73    5.13
   1   5   6   71.37   16.87
   1   5   7    5.72    1.95
   1  -5   7    4.78    1.26
   1  -5   7    7.13    1.81
   1  -5   7    8.04    1.84
   1  -5   8    1.55    1.24
  -1   5  -8    1.05    1.05
   1  -5   8    2.60    1.71
   1   5   8    2.26    1.26
   1  -5   8    3.40    1.73
  -1   5  -9   49.48    3.88
   1  -5   9   42.63    3.24
   1  -5   9   35.05    3.47
   1   5   9   41.18    3.51
   1   6 -10   -0.75    0.69
  -1   6  10    0.82    0.81
  -1   6  10    0.80    0.71
  -1  -6   9   -0.02    0.73
  -1   6   9    1.29    1.40
   1   6  -9    0.46    0.93
  -1  -6   9   -0.71    1.24
  -1   6   9    0.23    1.06
  -1  -6   8  191.94    8.33
  -1   6   8  207.33    9.19
  -1  -6   8  210.34    9.79
  -1  -6   8  212.55    8.30
  -1  -6   7    1.62    1.11
  -1   6   7    1.16    1.50
  -1  -6   7    2.39    1.48
  -1  -6   7    3.30    1.23
  -1   6   7    1.24    1.53
  -1   6   6   12.56    2.25
  -1  -6   6   10.82    2.13
  -1  -6   6    9.90    1.97
  -1  -6   6    6.36    5.89
  -1   6   6    3.24    4.18
  -1  -6   6   10.26    2.09
  -1   6   6   12.72    2.69
  -1  -6   5   52.92   13.83
  -1   6   5   41.21   12.43
  -1   6   5   50.09   12.87
  -1  -6   5   36.68    8.50
  -1  -6   4 1081.25   43.79
  -1  -6   4  994.64   52.11
  -1   6   4 1035.44   49.37
  -1   6   4  959.55   53.10
  -1   6   3    2.38    3.09
  -1  -6   3    0.85    2.04
  -1  -6   3    3.23    3.65
  -1   6   3    3.14    2.99
  -1  -6   2  117.38   12.99
   1  -6  -2  118.80   10.14
  -1   6   2  112.47   12.76
  -1  -6   2  122.83   13.71
   1  -6  -1  425.35   21.18
  -1  -6   1  407.90   24.20
  -1   6   1  376.19   18.92
  -1  -6   1  391.12   19.66
  -1  -6   0  308.93   20.06
  -1   6   0  198.03    9.77
   1  -6   0  307.83   19.94
  -1   6  -1   15.05    4.09
  -1  -6  -1   14.36    4.69
   1  -6   1   18.62    5.46
   1  -6   2 1125.12   42.37
  -1  -6  -2 1108.72   38.15
   1  -6   3   20.99    6.64
  -1  -6  -3   23.52    5.85
   1   6   4   10.80    6.05
   1  -6   4    4.95    4.06
   1   6   5   23.05    9.38
   1   6   5   19.28    9.53
   1  -6   5   15.30    2.54
   1  -6   5   10.83    4.01
   1   6   5   16.13    2.43
   1  -6   5   17.04    2.52
   1  -6   6  224.74    9.84
   1  -6   6  258.69    9.71
   1   6   6  262.39   33.41
   1   6   6  250.22    9.70
   1   6   7    4.63    1.78
   1  -6   7    8.71    2.39
   1  -6   7    7.36    1.97
   1  -6   8    9.15    2.38
  -1   6  -8    9.56    2.17
   1   6   8    8.23    1.97
   1  -6   8   12.24    2.31
   1  -6   8   10.63    1.95
   1   6   9   -1.00    0.86
  -1   6  -9   -0.12    0.63
   1   6   9    0.53    0.63
   1  -6   9    0.89    0.95
   1  -6   9   -0.81    0.86
  -1   7  10    2.02    0.88
  -1   7  10    0.07    0.48
   1   7 -10    0.86    0.56
  -1  -7   9   31.95    3.21
  -1  -7   9   20.14    2.25
  -1   7   9   30.19    3.18
   1   7  -9   35.61    3.58
  -1   7   9   35.14    3.52
  -1  -7   8    3.72    1.38
  -1  -7   8    1.54    1.62
  -1  -7   8    3.78    1.23
  -1   7   8    4.67    1.99
  -1  -7   7   30.93    3.98
  -1   7   7   36.35    4.26
  -1  -7   7   38.49    3.90
  -1  -7   7   31.90    3.51
  -1  -7   6    2.70    1.32
  -1  -7   6    1.38    0.89
  -1   7   6    1.96    1.56
  -1  -7   6    6.83    5.94
  -1   7   6    7.80    6.26
  -1  -7   6    0.90    0.92
  -1   7   6    4.64    1.80
  -1  -7   5   26.26    2.99
  -1   7   5   30.22    2.96
  -1   7   5   33.30    9.80
  -1  -7   5   29.11    3.11
  -1  -7   5   30.12    8.38
   1   7  -5   31.65    3.24
  -1   7   5   26.26   10.12
  -1  -7   5   34.50   11.67
  -1   7   5   27.44    3.39
  -1   7   4    4.53    4.34
  -1   7   4    8.04    5.46
  -1  -7   4    4.83    4.55
  -1  -7   4    8.31    3.80
  -1   7   3  249.83   22.00
  -1   7   3  255.52   26.47
  -1  -7   3  226.89   22.32
  -1  -7   3  256.42   21.82
  -1  -7   2   49.32    9.30
  -1   7   2   40.81    8.38
  -1  -7   2   50.82    8.94
   1  -7  -2   44.53    6.93
   1  -7  -1   78.63   10.08
  -1   7   1   66.52    8.71
  -1  -7   1   74.36   10.85
  -1  -7   1   66.15    8.24
   1  -7   0  270.44   19.84
  -1  -7   0  244.93   18.84
   1  -7   1  932.35   39.48
  -1   7  -1  828.70   33.51
  -1  -7  -1  926.62   36.69
   1  -7   2   68.47   11.59
  -1  -7  -2   98.41   12.33
  -1  -7  -3  196.10   18.30
   1  -7   3  185.41   20.25
   1  -7   4   -2.78    3.14
   1   7   4   -6.30    4.65
   1  -7   5  163.47    7.88
   1   7   5  141.09   24.70
   1   7   5  193.35    8.47
   1  -7   5  188.85   23.59
  -1   7  -5  192.99    8.71
   1   7   5  213.19   27.91
   1  -7   5  199.61    8.37
   1  -7   6   30.39    3.62
   1   7   6   31.42    3.83
   1  -7   6   30.13   12.04
   1  -7   6   27.10    3.65
   1   7   7   24.78    3.41
   1  -7   7   35.20    3.71
   1  -7   7   40.15    4.00
   1   7   8    1.19    1.22
   1   7   8    0.97    0.84
   1  -7   8    0.53    1.08
   1  -7   8    0.52    1.39
   1  -7   8   -0.71    0.86
  -1   7  -8    0.28    0.89
   1   7   9   25.01    1.66
  -1   7  -9   23.04    2.50
   1  -7   9   19.36    2.33
   1   7   9   22.46    2.32
  -1   8   9    1.30    0.89
  -1  -8   9    0.58    0.93
   1   8  -9    1.75    1.05
  -1   8   9    1.23    0.95
  -1  -8   8   48.92    3.77
  -1  -8   8   52.93    4.59
  -1  -8   8   45.66    3.83
  -1   8   8   48.00    4.48
  -1  -8   7   30.30    3.52
  -1   8   7   23.11    3.86
  -1  -8   7   26.15    3.09
  -1  -8   7   29.92    3.81
  -1  -8   6   23.45    8.26
  -1  -8   6   17.15    2.64
  -1   8   6   11.99    2.82
  -1  -8   6   17.23    2.57
  -1   8   6   12.97    7.65
  -1  -8   6   16.01    2.33
  -1  -8   5   24.05    9.70
  -1   8   5   19.50    2.77
  -1   8   5   30.99   10.32
  -1  -8   5   24.71    2.96
   1   8  -5   26.93    3.13
  -1   8   5   18.00    2.11
  -1   8   5   19.32    3.17
  -1  -8   5   23.41    3.03
  -1  -8   5   22.98    2.90
  -1  -8   4   14.76    5.91
  -1  -8   4   11.11    6.01
  -1   8   4   11.71    6.21
  -1   8   4   11.60    7.50
  -1  -8   3  103.31   14.72
  -1   8   3   90.44   13.68
  -1   8   3  100.12   17.92
  -1  -8   3   95.09   15.07
   1  -8  -2 1101.59   37.39
  -1  -8   2 1137.60   43.29
  -1   8   2 1146.14   42.61
   1  -8  -1  457.22   25.09
  -1  -8   1  436.81   27.78
  -1   8   1  380.99   20.64
  -1  -8   0   50.05    9.35
   1  -8   0   45.12    9.13
  -1  -8  -1   17.27    5.58
   1  -8   1   10.61    4.70
  -1   8  -1   16.39    5.67
   1  -8   2  260.41   24.01
  -1  -8  -2  233.69   20.62
   1  -8   3   58.60   12.37
  -1  -8  -3   71.37   11.60
   1  -8   4  396.81   11.80
  -1   8  -4  459.56   12.12
   1  -8   4  459.11   36.43
   1   8   4  504.04   39.37
  -1   8  -4  457.04   13.09
   1  -8   5    2.86    1.51
   1   8   5   14.10    7.34
   1   8   5    7.30    7.72
   1   8   5    3.84    1.52
   1  -8   5   -8.70    5.62
   1  -8   5    2.28    1.14
  -1   8  -5    2.65    1.79
   1  -8   6   81.04    5.70
   1   8   6   71.88    5.52
   1  -8   6   95.39    5.96
   1   8   7    5.21    1.85
   1  -8   7   10.89    1.93
   1   8   7    8.77    1.63
   1  -8   7    9.93    2.05
   1  -8   8   41.89    3.49
   1  -8   8   46.48    4.27
   1   8   8   44.98    3.07
  -1   8  -8   44.48    4.17
   1   8   8   39.50    3.63
   1  -8   9    0.51    0.82
  -1  -8  -9    0.35    0.46
   1   8   9   -0.05    0.68
  -1   8  -9    0.22    0.55
  -1   9   9    2.68    1.02
  -1   9   9   -0.21    0.69
   1   9  -9    0.50    0.66
  -1   9   8   -0.18    1.04
  -1  -9   8    0.65    0.75
  -1  -9   8    0.74    0.69
  -1   9   8    1.71    1.20
  -1  -9   8    3.04    1.18
  -1  -9   8    1.95    1.17
  -1   9   7  141.15    7.77
  -1  -9   7  167.05    8.13
  -1  -9   7  162.10    6.89
  -1  -9   7  136.11    7.18
  -1   9   6  159.54    8.48
  -1   9   6  149.40    6.10
  -1  -9   6  159.36    7.70
  -1  -9   6  184.47    7.58
  -1  -9   6  163.89    8.19
  -1  -9   5    9.80    2.16
  -1  -9   5   10.30    6.35
  -1   9   5    8.99    6.60
  -1   9   5   12.51    2.59
  -1  -9   5   13.56    2.37
   1   9  -5    8.69    2.27
  -1   9   5   10.56    1.71
  -1  -9   4   67.18    4.63
  -1  -9   4   76.16    4.90
  -1  -9   4   68.45   14.54
  -1   9   4   67.91    5.47
  -1   9   4   77.89   18.04
   1   9  -4   72.84    5.34
  -1   9   4   80.23   15.28
  -1   9   4   72.98    4.13
  -1   9   3    4.52    4.40
  -1   9   3   -0.28    3.10
  -1  -9   3    1.00    2.61
  -1   9   2   27.63    7.01
   1  -9  -2   18.63    5.12
  -1  -9   2   36.06    8.90
   1  -9  -1  578.93   30.42
  -1  -9   1  588.93   34.30
  -1  -9   0   12.07    5.31
   1  -9   0    7.38    3.84
  -1   9  -1   23.97    6.66
  -1  -9  -1   21.24    6.73
   1  -9   1   19.78    6.97
  -1  -9  -2  108.07   14.90
   1  -9   2  117.76   17.22
  -1  -9  -3 1193.50   50.70
  -1   9  -3 1115.43   20.06
   1   9   3 1104.24   17.38
   1  -9   3 1267.18   59.22
   1   9   3 1228.22   58.29
   1  -9   3 1095.12   17.96
  -1   9  -4    7.48    1.90
   1   9   4   10.38    1.99
   1  -9   4    8.24    4.84
   1   9   4   11.42    6.31
  -1   9  -4   10.25    2.44
   1  -9   4   11.87    2.64
   1   9   5    3.03    1.43
  -1   9  -5    1.61    1.66
   1   9   5   -0.80    2.71
   1  -9   5   10.74    7.11
   1   9   5    3.58    1.52
   1  -9   5    2.32    1.57
   1  -9   5    1.35    1.15
   1   9   5   14.35    7.61
   1   9   6   11.88    2.09
   1   9   6   13.53    2.48
   1  -9   6   11.62    2.29
   1   9   7  102.62    5.28
   1  -9   7   97.37    5.86
   1   9   7   86.68    5.65
   1   9   8   -1.68    0.99
   1   9   8   -0.48    0.66
   1  -9   8    0.59    0.78
   1  -9   8    0.23    0.98
  -1  -9  -8   -0.46    0.68
  -1   9  -8    0.35    0.91
   1   9   9    5.92    1.08
  -1   9  -9    8.07    1.14
   1  -9   9    4.49    1.00
   1  10  -9   12.67    1.67
  -1  10   9   10.13    1.38
  -1  10   8    7.83    1.78
  -1  10   8    7.14    1.81
  -1 -10   8    8.14    1.72
  -1 -10   8   10.79    1.73
  -1 -10   8    8.11    1.50
  -1 -10   7   52.33    4.39
  -1  10   7   58.91    5.05
  -1 -10   7   68.71    5.00
  -1 -10   6   53.35    4.67
  -1 -10   6   58.77    4.73
  -1  10   6   66.52    5.48
  -1  10   6   63.16    3.90
  -1 -10   5  422.35   12.70
  -1  10   5  400.74   43.73
  -1  10   5  411.94   13.24
  -1  10   5  405.06   10.26
   1  10  -5  409.33   13.63
  -1 -10   5  401.52   36.56
  -1  10   4    0.85    1.13
   1  10  -4    0.87    1.31
  -1  10   4    0.65    1.70
   1 -10  -4    1.29    1.01
  -1 -10   4    0.47    2.32
  -1 -10   4    1.58    1.36
  -1 -10   4    0.46    1.10
  -1  10   4    3.98    6.41
  -1 -10   3  482.73   12.04
   1 -10  -3  457.64   10.35
  -1 -10   3  470.96   11.65
  -1  10   3  453.58   41.91
  -1 -10   3  480.59   35.43
  -1  10   3  461.15   32.96
  -1 -10   2  134.31   18.31
  -1  10   2  143.58   22.46
  -1 -10   1    5.72    3.89
  -1  10   1    5.82    4.30
   1 -10  -1    6.51    3.79
  -1 -10   0   58.31   11.44
  -1  10   0   56.98   12.27
   1 -10   0   60.67   11.29
   1 -10   1    8.94    5.86
  -1 -10  -1   12.04    5.35
  -1 -10  -2  161.88    6.50
   1 -10   2  163.91   21.21
   1 -10   2  158.65    6.64
  -1 -10  -2  162.21   19.14
   1  10   2  158.87    6.56
  -1  10  -2  152.13    6.94
   1 -10   3  160.67   21.94
   1 -10   3  135.15    6.63
  -1 -10  -3  117.08    5.98
   1 -10   3  160.92    7.11
  -1  10  -3  144.52    7.69
   1  10   3  125.37    6.17
   1  10   3   94.20   16.85
  -1  10  -3  135.93    6.89
   1 -10   4  170.71   23.88
  -1  10  -4  179.92    9.06
   1  10   4  171.70    7.50
   1  10   4  178.02   24.47
   1 -10   4  199.69    8.36
  -1  10  -4  168.66    7.89
  -1  10  -5  164.85    8.90
   1 -10   5  169.44    8.32
   1  10   5  173.57    7.55
   1 -10   5  197.40    8.59
   1  10   6   15.21    2.63
   1  10   6   17.26    2.37
   1 -10   6   14.76    2.53
   1  10   7   11.47    1.93
   1  10   7   12.33    1.81
  -1 -10  -7   12.06    1.79
   1 -10   7   11.07    2.03
  -1 -10  -8   33.72    2.19
   1 -10   8   21.67    2.13
   1  10   8   23.88    2.18
   1 -10   8   33.44    2.93
  -1  10  -8   30.80    2.91
  -1 -11   8    3.77    1.03
  -1 -11   8    4.64    1.12
  -1  11   8    3.31    1.14
  -1 -11   8    4.47    1.13
  -1 -11   7   25.17    2.84
  -1  11   7   23.52    3.03
  -1 -11   7   26.01    2.67
  -1  11   6   15.00    2.68
  -1 -11   6   12.66    2.46
  -1 -11   6   12.18    2.11
  -1 -11   5    6.61    1.68
   1  11  -5    7.49    1.98
  -1  11   5    2.98    1.50
  -1  11   4   55.52   15.75
   1 -11  -4   60.43    3.92
   1  11  -4   61.48    5.12
  -1 -11   4   64.44    4.80
  -1 -11   4   67.52   14.26
  -1 -11   4   63.60    4.77
  -1 -11   3  285.94   28.56
  -1 -11   3  285.89    9.51
  -1  11   3  271.92   33.43
  -1 -11   3  277.14    9.26
   1 -11  -3  268.51    8.15
  -1 -11   2  152.24    6.58
  -1  11   2  132.27   22.61
   1 -11  -2  150.85    5.95
  -1 -11   2  153.35   20.47
   1 -11  -2  154.18    6.55
  -1 -11   2  149.93    6.48
  -1 -11   1    8.75    4.97
  -1  11   1    6.70    4.99
   1 -11  -1    7.32    1.65
   1 -11  -1   14.94    4.59
  -1 -11   1   11.09    1.89
  -1 -11   1   10.43    1.77
   1 -11  -1    6.02    1.26
  -1 -11   0   28.13    2.68
  -1 -11   0   34.37    9.10
  -1  11   0   26.76    9.40
  -1 -11   0   30.13    3.03
   1 -11   0   27.35    7.96
   1 -11   0   29.38    2.80
   1 -11   1  426.81   10.84
  -1 -11  -1  403.35   31.19
  -1 -11  -1  431.13   11.31
   1 -11   1  466.04   35.93
  -1 -11  -1  410.17   10.42
   1  11   2   54.57   11.40
   1  11   2   51.92    3.96
  -1  11  -2   63.25    4.89
  -1  11  -2   59.29    4.51
  -1 -11  -2   71.11   12.93
  -1 -11  -2   51.49    3.84
   1 -11   2   60.28    4.28
   1 -11   2   59.52   13.74
  -1  11  -3   31.72    3.84
  -1 -11  -3   20.67    2.73
  -1  11  -3   27.33    3.19
   1 -11   3   27.37    3.08
   1 -11   3   29.49    9.90
   1  11   3   20.91    2.73
   1 -11   3   29.70    3.30
   1  11   3   11.32    6.33
  -1 -11  -4   12.29    2.15
  -1  11  -4    5.68    1.84
   1 -11   4    9.08    1.97
   1  11   4   12.30    2.19
  -1  11  -4    9.77    2.28
   1 -11   5  129.29    7.21
  -1 -11  -5  128.29    6.40
   1 -11   5  137.29    6.95
  -1  11  -5  125.90    7.64
   1  11   5  145.55    6.77
   1 -11   6    0.74    1.01
  -1 -11  -6    1.88    1.27
   1  11   6    1.13    1.05
   1 -11   7   30.74    2.90
  -1 -11  -7   30.79    2.54
   1  11   7   31.61    2.59
   1  11   8    5.71    1.15
  -1  11  -8    4.56    1.04
   1 -11   8    2.31    0.72
   1 -11   8    5.48    1.17
  -1  12   8   22.78    2.02
  -1 -12   8   13.75    1.43
  -1 -12   8   28.52    2.20
   1 -12  -8   29.28    1.79
  -1 -12   7    0.59    0.90
  -1  12   7   -0.07    0.72
  -1  12   7    1.00    0.79
  -1  12   6    2.13    1.05
  -1 -12   6    3.07    1.21
  -1 -12   6    3.81    1.17
  -1  12   5   -0.92    0.99
   1  12  -5   -0.90    1.49
  -1 -12   5   -0.60    0.82
  -1 -12   4  125.89    6.68
  -1 -12   4  120.41    6.43
   1  12  -4  111.11    6.87
   1 -12  -4  115.95    5.38
   1 -12  -3   12.48    2.36
  -1 -12   3   12.87    2.65
  -1 -12   3   13.00    2.67
  -1  12   3    7.28    6.13
   1 -12  -3   10.03    1.93
   1  12  -3   14.66    2.72
  -1 -12   3   10.47    6.14
  -1  12   2    6.26    5.41
   1 -12  -2    2.23    1.35
  -1 -12   2   12.21    6.20
  -1 -12   2    1.55    1.12
  -1 -12   2    1.62    1.16
   1 -12  -2    0.84    0.89
  -1  12   1    6.95    5.38
  -1 -12   1   13.03    6.00
  -1 -12   1   20.17    2.50
   1 -12  -1   11.38    1.85
  -1 -12   1   16.22    2.35
   1 -12  -1   14.33    2.12
   1 -12   0  272.81   26.29
  -1 -12   0  288.18    8.99
   1 -12   0  298.53    9.34
  -1 -12   0  306.88   28.25
  -1 -12   0  313.68    9.83
   1 -12   1    0.11    0.88
   1 -12   1   -5.19    4.00
  -1 -12  -1    0.18    0.83
  -1 -12  -1   -0.32    1.02
  -1 -12  -1    1.64    2.35
  -1  12  -2   23.76    3.21
  -1 -12  -2   16.13    2.57
   1 -12   2   20.11    2.66
  -1 -12  -2   16.96    2.51
  -1  12  -2   21.83    2.84
  -1 -12  -3    1.82    1.21
  -1  12  -3    4.08    1.70
   1 -12   3    1.53    0.92
  -1  12  -3    2.35    1.31
   1 -12   3    4.06    1.53
   1 -12   4  100.10    5.67
  -1 -12  -4   91.04    5.30
   1  12   4   92.32    5.39
  -1  12  -4   83.35    5.37
  -1  12  -4   91.40    6.43
  -1  12  -5   13.03    2.47
   1  12   5   10.64    1.93
   1 -12   5   13.02    2.39
  -1 -12  -5   11.42    1.99
   1 -12   6   56.23    4.13
  -1 -12  -6   59.44    3.74
   1 -12   7    4.29    1.12
  -1 -12  -7    3.31    0.74
   1 -12   7    4.46    1.26
  -1  13   7   30.11    2.57
   1 -13  -7   26.54    2.06
  -1 -13   7   20.00    2.03
  -1  13   7   15.74    1.74
  -1 -13   6    2.32    1.17
  -1  13   6    0.14    0.80
   1 -13  -6    2.01    1.02
  -1 -13   5   12.63    2.39
   1 -13  -5   12.57    1.93
   1  13  -5   14.35    2.39
  -1 -13   5   14.28    2.23
   1 -13  -4    7.55    1.51
   1 -13  -4    7.85    1.79
   1  13  -4    5.00    1.94
  -1 -13   3   74.46    5.01
  -1 -13   3   74.54    5.06
   1 -13  -3   64.17    4.05
   1  13  -3   68.95    5.37
   1 -13  -3   70.03    4.70
   1 -13  -2   17.63    2.23
  -1 -13   2   19.26    2.61
  -1 -13   2   19.08    2.56
   1 -13  -2   20.01    2.57
   1 -13  -1  101.18    5.55
  -1  13   1   56.26   15.28
  -1 -13   1   87.77   16.11
  -1 -13   1  104.00    5.45
   1 -13   0   81.81    4.92
  -1 -13   0   68.19    4.50
  -1 -13   0   71.19    4.90
   1 -13   0   52.19   12.11
   1 -13   0   72.18    4.74
  -1 -13   0   64.77   13.59
  -1 -13  -1   23.35    2.90
   1 -13   1   23.75    2.74
  -1 -13  -1   22.03    2.60
  -1 -13  -2  123.03    6.05
  -1  13  -2  128.95    7.21
   1 -13   2  122.74    6.32
   1 -13   2  129.16    6.04
  -1  13  -2  109.48    6.23
  -1 -13  -2  125.02    6.48
  -1  13  -3   33.40    3.94
  -1 -13  -3   36.88    3.71
   1 -13   3   34.54    3.28
  -1 -13  -3   32.86    3.19
  -1  13  -3   29.84    3.32
   1 -13   4  134.05    6.93
   1 -13   4  132.99    6.17
  -1 -13  -4  126.91    6.06
  -1  13  -4  116.88    6.15
  -1  13  -4  132.08    7.55
   1 -13   5   83.14    5.14
  -1 -13  -5   81.18    4.54
  -1  13  -5   84.59    5.84
   1  13   6   24.56    2.40
  -1 -13  -6   39.41    2.74
   1 -13   6   30.52    2.82
  -1 -13  -7    0.45    0.38
   1 -13   7    0.49    0.50
   1 -13   7    0.92    0.73
  -1 -13  -7    0.46    0.51
  -1 -14   7    0.13    0.48
  -1  14   7    0.98    0.73
  -1 -14   7    2.11    0.79
  -1  14   6   74.13    4.35
   1 -14  -6   60.78    3.28
  -1 -14   6   58.09    3.60
  -1 -14   5    1.30    0.86
   1 -14  -5    0.17    0.75
  -1 -14   5    1.39    1.03
   1  14  -5    0.25    1.10
   1  14  -4   34.93    3.63
  -1 -14   4   32.15    3.19
   1 -14  -4   29.80    2.93
   1 -14  -4   27.38    2.39
  -1 -14   3    7.79    1.74
   1 -14  -3    8.05    1.65
   1  14  -3    7.51    1.91
  -1 -14   2   70.77    4.71
  -1 -14   2   66.65    4.79
   1 -14  -2   62.84    4.45
   1 -14  -1   10.24    1.88
  -1 -14   1    9.51    1.79
  -1 -14   1   10.80    1.94
   1 -14   0   71.41    4.64
  -1 -14   0   69.15    4.86
  -1  14  -1    6.50    1.97
  -1  14  -1    3.77    1.47
  -1 -14  -1    5.43    1.51
  -1 -14  -1    4.12    1.30
   1 -14   1    4.42    1.39
  -1 -14  -2   74.72    4.66
   1 -14   2   74.26    4.88
  -1  14  -2   74.33    5.49
  -1 -14  -2   78.67    5.20
  -1  14  -2   75.77    5.06
   1 -14   2   78.89    4.50
  -1 -14  -3   19.87    2.69
  -1 -14  -3   17.09    2.30
   1 -14   3   24.22    2.50
  -1  14  -3   19.38    2.52
  -1  14  -3   22.84    3.19
  -1  14  -4   14.46    2.47
  -1 -14  -4   11.80    1.87
  -1 -14  -4   12.68    2.07
   1 -14   4   15.37    2.33
   1 -14   4   12.66    1.80
   1 -14   5    4.40    1.32
  -1 -14  -5    4.89    1.17
  -1 -14  -5    2.89    0.92
   1 -14   6    3.82    0.92
  -1 -14  -6    5.10    0.91
   1 -14   6    5.91    1.22
  -1 -14  -6    6.99    1.24
  -1 -15   6    0.57    0.60
   1 -15  -6    0.12    0.55
  -1  15   6   -0.06    0.65
   1 -15  -5   88.94    4.09
   1  15  -5   82.32    4.61
  -1 -15   5   71.52    3.51
  -1 -15   5   99.22    4.78
  -1 -15   4    0.58    0.66
   1 -15  -4    0.60    0.70
   1  15  -4    1.28    1.19
   1  15  -3    4.37    1.44
   1 -15  -3    2.34    1.02
  -1 -15   3    2.93    1.14
   1 -15  -2    2.23    1.16
   1  15  -2    6.81    1.66
  -1 -15   2    4.87    1.42
  -1 -15   1  209.78    7.88
   1 -15  -1  212.48    7.39
   1 -15   0   10.50    1.95
  -1  15  -1    7.79    1.87
  -1  15  -1   10.05    2.04
  -1 -15  -1   11.04    2.16
   1 -15   1    9.43    1.79
  -1 -15  -2    4.71    1.49
   1 -15   2    4.79    1.50
  -1 -15  -2    5.36    1.48
  -1  15  -2    5.41    1.82
  -1  15  -2    4.20    1.43
  -1  15  -3   28.81    3.30
  -1  15  -3   21.65    2.49
  -1 -15  -3   30.76    3.05
  -1 -15  -3   26.02    2.58
  -1  15  -4    4.39    1.53
   1 -15   4    3.07    1.11
  -1 -15  -4    4.90    1.21
  -1 -15  -4    3.53    0.92
  -1 -15  -5    2.28    0.77
   1 -15   5    0.80    0.68
  -1 -15  -5    1.95    0.81
  -1 -15  -6   -0.16    0.46
   1 -15   6    0.67    0.47
  -1 -16   6   40.70    2.38
  -1  16   6   39.55    2.27
   1 -16  -5    9.76    1.09
  -1  16   5   11.15    1.61
  -1 -16   5    7.24    1.23
  -1  16   4    9.15    1.75
  -1 -16   4    4.71    0.93
   1  16  -4    8.38    1.64
   1 -16  -4    5.90    1.09
  -1 -16   4   10.68    1.87
  -1  16   3   40.53    3.57
   1 -16  -3   39.53    2.99
   1  16  -3   47.90    3.87
  -1 -16   2  193.28    7.09
  -1  16   2  164.51    6.64
   1  16  -2  203.67    8.10
   1 -16  -2  170.61    5.88
  -1 -16   1   40.51    3.36
   1 -16  -1   33.28    2.84
  -1  16   0   26.75    3.06
  -1  16   0   25.34    2.74
   1 -16   0   21.82    2.44
  -1 -16   0   24.19    2.68
  -1  16  -1    3.36    1.41
  -1  16  -1    2.22    1.12
   1 -16   1    2.89    1.05
  -1  16  -2    1.93    1.31
  -1  16  -2    0.45    0.80
  -1 -16  -2    1.78    0.84
  -1  16  -3    2.77    1.30
  -1 -16  -3    1.81    0.97
  -1  16  -3    1.17    0.68
   1 -16   3    1.04    0.73
   1 -16   4    9.14    1.38
  -1  16  -4   11.52    1.81
  -1 -16  -4   11.24    1.58
   1 -16   5    7.32    1.07
  -1 -16  -5   14.00    1.43
   1  17  -4    2.06    0.78
  -1  17   4    1.74    0.91
  -1 -17   4    0.70    0.48
  -1  17   3   29.62    2.47
   1  17  -3   35.30    2.95
  -1 -17   3   25.17    1.98
   1 -17  -2    0.56    0.54
  -1 -17   2    0.96    0.68
   1  17  -2    1.02    0.98
  -1  17   1   26.15    2.61
   1 -17  -1   28.41    2.25
  -1 -17   1   33.58    2.77
  -1  17   1   30.68    2.87
   1  17  -1   37.48    3.32
  -1  17   0   27.38    2.83
  -1  17   0   26.91    2.57
   1 -17   0   23.83    2.17
  -1 -17   0   28.30    2.53
  -1  17  -1   45.83    3.18
  -1  17  -1   55.54    3.94
  -1 -17  -1   53.66    3.45
  -1 -17  -2   15.19    1.73
  -1  17  -2   13.61    1.55
  -1  17  -2   17.34    2.24
  -1  17  -3    1.79    0.81
   1 -17   3   -0.05    0.50
  -1 -17  -3    0.86    0.65
   1 -17   4    6.13    0.94
  -1 -17  -4   11.91    1.06
  -1 -18   3    1.12    0.58
   1  18  -3    1.50    0.63
  -1  18   3    2.34    0.61
  -1  18   2   10.98    1.33
  -1  18   2   13.12    1.51
   1  18  -2   11.38    1.55
  -1 -18   1    0.21    0.55
   1  18  -1    0.97    0.85
  -1  18   1    1.45    0.79
  -1  18   1    0.62    0.62
  -1  18   0   28.88    2.44
   1  18   0   34.48    2.74
  -1 -18   0   30.01    2.24
  -1  18   0   24.82    2.05
  -1 -18  -1   -0.52    0.51
   1  18   1   -0.30    0.70
  -1  18  -1    1.33    0.80
  -1  18  -1    1.19    0.66
   1 -18   2    1.74    0.62
  -1  18  -2    4.25    1.02
  -1 -18  -2    5.25    0.88
   1  19   0   10.05    1.25
  -2   0  10    0.33    0.77
  -2   0  10    0.75    1.04
  -2   0   9    0.70    1.25
  -2   0   9    2.93    1.50
   2   0  -9    1.08    1.10
  -2   0   9    0.71    1.47
   2   0  -8  393.39   12.30
  -2   0   8  364.02    9.87
  -2   0   8  374.04   12.28
  -2   0   8  400.60   12.54
  -2   0   7   -0.51    1.34
  -2   0   7   -1.27    3.03
  -2   0   7    1.02    1.10
  -2   0   7   -0.46    0.98
   2   0  -7   -1.33    1.19
  -2   0   6  164.49   21.98
  -2   0   5    2.89    3.50
  -2   0   5    4.35    3.61
  -2   0   4 1628.73   54.40
  -2   0   4 1611.51   46.46
  -2   0   3    2.37    2.73
  -2   0   3    2.91    2.28
  -2   0   3    3.04    1.10
  -2   0   2 1921.39   24.53
  -2   0   2 1830.28   41.29
  -2   0   1   11.50    3.60
  -2   0   1    9.94    2.14
  -2   0   0 3412.13   47.09
  -2   0   0 3456.23   47.46
  -2   0  -1   36.72    5.99
  -2   0  -2 4642.66   72.14
   2   0   3   -0.19    2.29
   2   0   4   27.83    6.98
   2   0   4   28.65    7.21
   2   0   5    3.61    2.68
   2   0   5   -2.87    2.68
  -2   0  -6  406.95   12.54
   2   0   6  391.49   11.92
   2   0   6  418.31   12.66
   2   0   7    0.00    1.57
  -2   0  -7   -0.74    1.03
   2   0   7    0.91    1.20
  -2   0  -8   49.94    4.43
   2   0   8   42.80    3.87
   2   0   8   50.03    4.66
   2   0   9    1.24    1.37
   2   1 -10    0.85    0.71
  -2   1  10   -0.87    1.26
  -2   1   9   52.98    3.82
   2  -1  -9   51.37    4.25
  -2  -1   9   53.46    4.46
  -2  -1   9   50.82    4.53
  -2  -1   9   54.88    3.78
   2   1  -9   54.71    4.45
  -2   1   9   56.00    4.69
  -2  -1   8    5.38    1.95
  -2   1   8    5.13    1.47
   2  -1  -8    4.21    1.30
  -2   1   8    7.42    2.20
  -2   1   8    4.23    1.57
  -2  -1   8    4.73    1.67
   2   1  -8    1.93    1.08
  -2   1   8    5.20    1.73
  -2  -1   8    3.66    1.13
  -2  -1   7  355.50   36.28
  -2   1   7  389.59   11.95
   2   1  -7  374.94   11.90
  -2   1   7  379.30   11.58
  -2  -1   7  405.82   12.58
  -2  -1   7  395.23   11.70
   2  -1  -7  375.61   11.61
  -2  -1   7  417.41   11.94
  -2   1   6  217.17   24.60
  -2  -1   6  231.48   27.33
  -2   1   5  305.37   26.24
  -2  -1   5  277.64   26.57
  -2  -1   5  300.44   20.51
  -2   1   5  306.88   23.02
  -2  -1   4   57.27    5.79
  -2  -1   4   68.61    9.33
  -2  -1   4   77.13   12.77
  -2   1   4   64.29   11.00
  -2   1   4   69.17    9.87
  -2  -1   3 1157.40   35.43
  -2   1   3 1215.42   38.61
  -2  -1   3 1165.08   41.71
  -2  -1   3 1142.93   24.37
   2  -1  -2 3814.38   24.30
  -2  -1   2 3790.31   59.34
  -2  -1   2 3828.11   65.41
  -2  -1   2 4073.92   43.78
  -2   1   2 4144.26   64.69
  -2  -1   1   42.14    5.88
  -2   1   1   58.42    5.02
  -2  -1   1   45.91    5.03
  -2   1   1   60.50    7.20
  -2   1   0 1898.70   35.49
  -2   1   0 1820.99   34.75
  -2  -1   0 1889.61   36.76
  -2  -1   0 1850.06   34.82
  -2  -1  -1    8.31    2.94
  -2   1  -1    8.50    2.25
  -2   1  -1    6.04    2.91
  -2  -1  -2    7.60    3.17
   2  -1   2    3.51    2.54
  -2  -1  -3    6.62    3.46
   2  -1   3   12.03    4.31
   2  -1   4    0.06    2.51
   2   1   4    0.30    1.98
   2   1   4   -0.26    2.07
   2  -1   4   -2.00    2.71
   2   1   5  136.81   16.58
   2   1   5  126.21   17.08
   2  -1   5  123.12   16.27
  -2   1  -6   48.39    4.39
   2  -1   6   52.61    4.24
   2   1   6   46.63    4.03
   2   1   6   55.93   12.29
   2   1   6   50.40    4.58
   2  -1   6   50.71    4.55
  -2  -1  -6   48.71    4.40
   2  -1   7  117.36    7.21
   2   1   7  104.62    6.17
   2   1   7  109.95    6.92
  -2  -1  -7  115.88    6.91
  -2   1  -7  118.61    7.03
   2  -1   7  102.63    6.44
   2  -1   8    4.61    1.79
  -2  -1  -8    5.06    1.56
  -2   1  -8    4.76    1.67
   2   1   8    5.55    1.98
   2  -1   8    6.32    1.88
   2   1   9   39.90    3.44
   2  -1   9   42.50    3.63
  -2   2  10   35.67    3.10
   2   2 -10   44.99    3.42
  -2   2   9   18.89    2.86
   2   2  -9   17.70    2.62
  -2  -2   9   19.48    2.60
  -2  -2   9   20.90    2.33
  -2   2   9   12.96    2.13
  -2   2   9   20.63    2.60
  -2  -2   9   16.20    2.65
   2   2  -8   34.22    3.81
  -2  -2   8   38.52    4.25
  -2   2   8   40.31    3.45
  -2   2   8   43.78    4.32
  -2  -2   8   38.19    3.80
   2  -2  -8   39.83    3.90
  -2   2   8   33.31    3.90
  -2   2   8   36.59    3.97
  -2  -2   8   35.72    4.00
  -2  -2   7   36.40    3.99
   2  -2  -7   34.34    3.54
  -2  -2   7   40.62   12.32
  -2  -2   7   36.97    3.64
  -2   2   7   34.81    3.78
  -2   2   7   33.05    3.71
  -2  -2   7   39.25    3.78
  -2   2   6  497.41   33.10
  -2  -2   6  508.83   41.71
  -2  -2   6  497.30   12.06
  -2   2   5   38.30    8.73
  -2  -2   5   41.00   11.47
  -2  -2   4  505.09   32.31
  -2  -2   4  477.82   23.87
  -2  -2   4  476.49   20.56
  -2   2   4  498.67   29.13
  -2   2   3  346.46   21.74
  -2  -2   3  315.21   22.49
  -2  -2   3  308.27   17.94
  -2  -2   3  304.37   15.57
  -2  -2   2   13.10    5.00
  -2  -2   2   17.07    4.78
  -2  -2   2   13.03    4.01
  -2   2   2   19.15    6.14
   2  -2  -2   11.78    1.81
  -2   2   1  361.85   18.25
  -2  -2   1  330.67   16.73
  -2  -2   1  361.41   15.56
   2  -2  -1  309.62   12.08
  -2   2   0 1087.01   28.06
  -2  -2   0 1052.94   28.19
   2  -2   0  890.86   25.38
  -2  -2  -1  163.64   12.18
   2  -2   1  199.38   13.67
  -2   2  -1  186.38    9.96
  -2  -2  -2  580.29   25.75
   2  -2   2  523.01   24.56
  -2  -2  -3   88.28   11.17
   2  -2   3   77.52    8.38
   2  -2   3   85.64   11.32
   2  -2   4  486.20   29.93
   2   2   4  486.03   29.40
   2  -2   5  110.73    5.67
   2   2   5   98.34   16.07
   2  -2   5  114.23   15.85
   2  -2   5  105.04    6.06
   2   2   5  119.17   15.71
   2  -2   6    6.76    2.02
  -2   2  -6    7.46    1.76
   2  -2   6    9.79    1.96
   2   2   6    6.97    4.94
  -2  -2  -6   10.91    2.25
   2   2   6    9.09    2.15
   2   2   7   34.84    3.91
   2  -2   7   28.77    3.64
  -2   2  -7   31.90    3.60
   2  -2   7   33.40    3.98
  -2  -2  -7   35.88    3.96
   2  -2   8   82.44    5.40
  -2   2  -8   83.52    5.62
   2   2   8   88.00    5.98
   2  -2   8   90.48    6.02
  -2   2  -9    3.08    1.11
   2  -2   9    3.70    1.36
   2   2   9    2.03    1.01
  -2   3  10    1.39    1.23
   2   3 -10    0.88    0.54
  -2   3   9   55.32    4.57
  -2   3   9   39.06    3.90
   2   3  -9   52.95    4.39
  -2  -3   9   43.76    4.08
  -2   3   9   53.55    3.83
   2  -3  -8    0.28    0.83
  -2   3   8    1.54    1.42
   2   3  -8    0.43    0.82
  -2  -3   8    1.31    1.24
  -2   3   8    1.68    1.57
  -2  -3   8   -0.39    1.29
  -2   3   7    8.23    1.93
  -2   3   7    6.10    2.17
  -2  -3   7    4.28    5.04
  -2  -3   7    5.21    1.86
  -2  -3   7    4.22    1.74
   2  -3  -7    4.80    1.49
  -2   3   7    4.74    1.73
  -2   3   6   68.21   13.19
  -2  -3   6   50.46    4.15
  -2  -3   6   57.52   14.68
  -2   3   6   47.22    4.24
  -2  -3   6   56.17    4.36
  -2   3   5 1268.80   52.83
  -2  -3   5 1279.68   61.01
  -2  -3   4  186.70   14.62
  -2   3   4  183.46   18.72
  -2  -3   4  200.27   20.85
  -2  -3   3    4.61    3.41
  -2   3   3    3.97    3.90
  -2  -3   3    1.39    1.36
  -2  -3   3    2.00    1.47
  -2   3   2   92.97   11.21
  -2  -3   2   87.79    9.52
  -2  -3   2   99.71    9.65
  -2  -3   2   90.31   10.82
   2  -3  -2   90.29    5.89
   2  -3  -1 4115.05   49.60
  -2  -3   1 4428.35   60.89
  -2   3   1 4483.49   68.84
   2  -3   0   37.17    5.52
  -2  -3   0   32.46    5.68
  -2   3   0   35.16    5.71
  -2  -3  -1  389.34   19.87
  -2   3  -1  387.51   15.05
   2  -3   1  396.06   20.40
   2  -3   2    9.29    2.01
  -2  -3  -2   13.54    4.28
   2  -3   2   15.47    4.71
  -2  -3  -3  906.08   36.38
   2  -3   3  796.00   35.75
   2  -3   4    3.91    3.07
  -2  -3  -4    6.23    3.88
   2  -3   5  222.45   23.01
   2  -3   5  227.34    8.17
  -2  -3  -5  205.88    8.37
   2  -3   5  227.12    9.06
   2   3   5  200.10    8.04
   2   3   5  210.53   25.17
   2   3   5  240.51   22.40
   2   3   6    1.04    1.26
   2  -3   6    1.48    1.22
   2  -3   6    1.69    1.74
   2   3   6    1.08    3.27
  -2  -3  -6    0.30    1.00
  -2   3  -7    5.81    1.71
   2   3   7    5.86    2.03
   2  -3   7    8.53    2.24
  -2  -3  -7    6.74    1.73
   2  -3   7    6.48    1.71
   2  -3   7    8.15    1.90
   2  -3   8    0.27    1.33
   2   3   8    1.75    1.40
  -2   3  -8    0.80    0.94
   2  -3   8    0.48    1.18
  -2   3  -9   64.00    4.09
   2   3   9   53.22    3.77
   2  -3   9   54.82    3.91
   2  -3   9   36.28    3.15
   2   4 -10   12.52    1.76
  -2   4  10    6.59    1.25
  -2   4  10   13.82    1.97
  -2   4   9    0.14    1.18
  -2   4   9    1.47    1.26
   2   4  -9    1.24    1.00
  -2  -4   9    0.37    1.29
  -2   4   9   -0.20    1.07
  -2   4   8   26.45    3.08
  -2  -4   8   20.68    3.26
   2   4  -8   22.49    3.12
  -2   4   8   23.84    3.41
  -2  -4   8   26.07    3.60
  -2  -4   8   24.13    2.58
  -2   4   7   15.85    2.83
  -2  -4   7   16.49    2.35
  -2  -4   7    7.64    6.76
  -2   4   7   18.08    2.50
  -2  -4   7   17.30    2.69
  -2  -4   7   15.76    2.96
  -2   4   7   10.98    2.47
  -2  -4   7   13.82    2.69
  -2  -4   6   21.90    9.99
  -2   4   6   29.39    2.74
  -2  -4   6   29.51    2.94
  -2  -4   6   24.82    2.94
  -2   4   6   29.14    3.28
  -2   4   6   19.13    7.48
  -2   4   6   19.49    2.78
  -2  -4   6   24.97    3.04
  -2  -4   6   27.12    3.03
   2  -4  -6   27.81    3.00
  -2  -4   5   11.51    7.23
  -2  -4   5    4.64    3.00
  -2   4   5   16.08    6.89
  -2   4   4  128.22   16.43
  -2  -4   4  127.91   17.25
  -2  -4   3  256.00   21.72
  -2  -4   3  238.54   17.48
  -2   4   3  279.53   22.95
   2  -4  -2 2180.43   35.16
  -2  -4   2 2255.09   55.06
  -2   4   2 2220.11   60.66
  -2  -4   2 2096.32   49.94
   2  -4  -1  274.62   14.68
  -2  -4   1  278.98   17.26
  -2   4   1  309.48   19.65
   2  -4   0  117.95   10.76
  -2  -4   0  110.33   11.01
  -2   4   0  107.53   10.66
  -2   4  -1   95.90    8.33
   2  -4   1  111.98   11.69
  -2  -4  -1  124.37   11.97
  -2  -4  -2 1883.90   48.77
   2  -4   2 1700.67   49.47
   2  -4   3   18.12    6.11
  -2  -4  -3   24.13    6.46
   2  -4   4  100.89   14.87
  -2  -4  -4   84.26   12.92
   2  -4   5    0.57    2.06
   2  -4   5    1.34    1.00
   2   4   5    2.35    1.24
   2   4   5    4.60    3.99
  -2  -4  -5    2.00    1.23
   2  -4   5    3.34    1.67
   2  -4   6   38.40    4.37
   2   4   6   30.89   12.26
   2  -4   6   38.16    3.83
   2   4   6   37.69    3.87
   2  -4   7   61.94    4.73
  -2   4  -7   56.70    4.97
   2  -4   7   51.87    4.91
   2   4   7   54.58    4.85
   2  -4   8   33.89    3.71
   2  -4   8   33.14    3.51
   2   4   8   34.57    3.56
  -2   4  -8   30.92    3.48
   2  -4   9    5.61    1.26
  -2   4  -9    6.61    1.32
   2   4   9    6.81    1.44
   2  -4   9    6.99    1.52
  -2   5  10   16.87    2.14
  -2   5  10    9.85    1.60
   2   5 -10   17.65    2.01
  -2   5   9   44.65    3.62
   2   5  -9   49.86    4.35
  -2   5   9   41.95    4.02
  -2  -5   9   40.30    3.81
  -2   5   9   47.07    4.33
  -2   5   8   47.52    4.73
  -2   5   8   50.37    4.01
  -2  -5   8   51.19    4.75
  -2  -5   8   44.10    4.38
  -2  -5   8   48.51    3.76
  -2   5   7    5.43    1.69
  -2  -5   7    4.59    1.65
  -2  -5   7    9.56    7.14
  -2   5   7    6.84    2.35
  -2  -5   7    4.50    1.66
  -2  -5   7    5.57    1.56
  -2   5   6   80.52   16.19
  -2  -5   6   64.27   16.20
  -2  -5   6   70.83    4.52
  -2   5   6   73.93    5.36
  -2  -5   6   70.33    5.20
  -2  -5   6   73.37    4.66
  -2  -5   6   70.64    5.13
  -2  -5   6   69.72    4.83
  -2   5   6   75.46    4.45
  -2  -5   5   70.62   11.33
  -2  -5   5   79.72   16.67
  -2   5   5   92.56   16.54
  -2  -5   4   13.62    4.92
  -2  -5   4   18.93    6.35
  -2   5   4   20.79    7.11
  -2  -5   3  183.46   19.51
  -2  -5   3  197.93   17.45
  -2   5   3  232.22   22.61
  -2  -5   2   53.76    9.35
   2  -5  -2   38.13    5.69
  -2  -5   2   50.12    9.32
  -2   5   2   49.55   10.32
   2  -5  -1    9.89    3.46
  -2   5   1   10.50    5.15
  -2  -5   1    5.88    3.81
  -2   5   0   28.06    6.18
   2  -5   0   35.34    6.88
  -2  -5   0   42.39    7.76
  -2   5  -1 1425.89   34.82
  -2  -5  -1 1477.43   45.28
   2  -5   1 1553.85   46.30
   2  -5   2   12.37    5.00
  -2  -5  -2   11.06    4.30
  -2  -5  -3  372.15   25.10
   2  -5   3  352.58   26.32
   2  -5   4   30.86    8.85
  -2  -5  -4   40.79    9.28
   2  -5   5   41.03    9.79
   2   5   5   45.13    4.08
   2  -5   5   50.62    4.13
   2  -5   5   37.26    3.83
   2   5   5   43.99   12.11
   2  -5   6   11.34    2.19
   2   5   6   23.73   10.16
   2   5   6    6.60    1.80
   2  -5   6    8.46    2.59
   2  -5   7   16.04    2.60
   2  -5   7   16.30    3.17
   2   5   7   15.88    2.77
  -2   5  -7   18.56    3.11
   2  -5   8    1.94    1.42
  -2   5  -8   -0.26    0.83
   2   5   8    0.81    1.16
   2  -5   8    2.84    1.68
   2  -5   9    8.12    1.32
   2  -5   9    5.26    1.30
  -2   5  -9    8.50    1.46
   2   5   9    9.58    1.25
   2   5   9    7.70    1.40
  -2   6  10    3.52    1.16
   2   6 -10    1.43    0.60
  -2   6  10    1.79    0.90
   2   6  -9    2.81    1.19
  -2  -6   9    1.59    1.01
  -2   6   9    1.67    1.37
  -2   6   9    4.71    1.82
  -2  -6   8  183.07    7.31
  -2  -6   8  195.35    9.08
  -2   6   8  173.50    9.03
  -2  -6   8  163.42    7.95
  -2   6   8  167.47    8.57
  -2  -6   8  171.01    7.97
  -2   6   8  183.54    7.58
  -2  -6   7    6.99    1.66
  -2   6   7    5.62    1.76
  -2   6   7    5.19    1.82
  -2  -6   7    6.05    1.84
  -2  -6   7    4.74    1.72
  -2  -6   6   57.21   15.18
  -2  -6   6   58.74    4.34
  -2  -6   6   63.85    4.38
  -2   6   6   59.25   14.85
  -2  -6   6   62.02    5.02
  -2   6   6   56.26    4.86
  -2   6   6   65.51    4.41
  -2  -6   6   52.99    4.78
  -2  -6   6   63.65    4.75
  -2  -6   5   76.11   15.80
  -2  -6   5   64.04   12.12
  -2   6   5   65.10    4.89
  -2   6   5   69.13   14.96
  -2  -6   5   79.54    5.07
  -2  -6   4  418.85   32.87
  -2  -6   4  418.25   27.64
  -2   6   4  401.75   34.09
  -2  -6   3  244.99   22.37
  -2  -6   3  301.37   22.51
  -2   6   3  285.04   26.03
  -2  -6   2  368.56   23.73
  -2  -6   2  348.92   23.20
   2  -6  -2  306.58   15.63
   2  -6  -2  336.65   17.95
  -2   6   2  369.36   27.85
   2  -6  -1  195.53   15.37
  -2  -6   1  202.35   17.32
  -2   6   1  158.30   17.68
  -2   6   0  302.19   22.13
   2  -6   0  350.63   21.91
  -2  -6   0  343.75   22.39
  -2   6  -1   43.94    6.72
  -2  -6  -1   40.40    7.86
   2  -6   1   50.46    8.94
   2  -6   2 3388.16   79.28
  -2  -6  -2 3474.29   75.80
  -2  -6  -3  137.95   16.22
   2  -6   3  145.47   18.09
  -2  -6  -4   36.44    9.53
   2  -6   4   39.49   10.74
   2  -6   5    1.82    1.19
   2  -6   5    2.13    1.43
   2   6   5   15.30    8.13
   2   6   5    1.08    1.27
   2  -6   5   -8.06    5.12
   2  -6   6  284.88   11.36
   2   6   6  272.67   10.11
   2  -6   6  315.51   10.76
  -2   6  -7    4.30    1.68
   2   6   7    2.75    1.37
   2  -6   7    3.52    1.28
   2  -6   7    4.53    2.01
  -2   6  -8    7.98    1.72
   2  -6   8    9.12    1.94
   2  -6   8    7.96    1.98
   2   6   8    5.62    1.48
  -2   6  -9    0.88    0.62
   2  -6   9    0.45    0.62
   2  -6   9   -0.11    0.68
   2   6   9   -0.14    0.78
   2   6   9    0.03    0.58
  -2   7  10    1.64    0.61
   2   7  -9   18.96    2.68
  -2   7   9   18.76    2.63
  -2   7   9   20.71    2.76
  -2  -7   9   12.52    1.97
  -2  -7   8   25.43    3.14
  -2   7   8   28.97    3.69
  -2  -7   8   22.58    3.24
  -2  -7   8   22.19    2.67
  -2  -7   8   24.12    3.21
  -2   7   8   26.29    3.71
  -2  -7   7   20.09    2.71
  -2   7   7   17.40    3.04
  -2   7   7   16.38    2.65
  -2  -7   7   18.51    3.00
  -2   7   7   11.90    2.52
  -2  -7   7   14.72    2.45
  -2   7   6  442.20   13.72
  -2   7   6  448.56   11.56
  -2  -7   6  410.42   12.39
  -2   7   6  475.50   44.90
  -2  -7   6  477.12   43.58
  -2  -7   6  447.60   12.91
  -2  -7   6  451.29   12.61
  -2  -7   6  443.51   13.42
  -2   7   5    6.42    1.80
  -2  -7   5   11.96    7.66
  -2  -7   5    5.33    1.80
  -2   7   5    4.26    4.57
  -2  -7   5    4.65    1.51
  -2  -7   5   -0.57    1.82
  -2   7   5    2.97    1.77
  -2  -7   4  390.83   32.60
  -2  -7   4  408.71   29.10
  -2   7   4  388.29   35.69
  -2  -7   3 1276.65   51.26
  -2  -7   3 1344.63   50.50
  -2   7   3 1246.81   59.09
  -2   7   2  843.62   45.28
  -2  -7   2  890.06   39.81
   2  -7  -2  741.58   26.74
  -2  -7   2  840.99   35.90
  -2  -7   1   79.85   12.05
   2  -7  -1   86.73   11.38
  -2   7   1   78.24   13.57
  -2  -7   0   41.82    9.01
  -2   7   0   26.82    7.07
   2  -7   0   20.79    6.39
   2  -7   1  839.34   39.30
  -2   7  -1  737.50   30.75
  -2  -7  -1  866.44   39.08
   2  -7   2   16.90    6.17
  -2  -7  -2   21.96    6.54
   2  -7   3  384.64   31.08
  -2  -7  -3  341.60   27.00
   2  -7   4    0.90    0.95
  -2   7  -4    0.65    1.00
  -2   7  -4    0.50    1.19
  -2  -7  -4   -3.88    3.37
   2  -7   4    8.73    5.77
   2  -7   4    0.67    1.54
   2   7   5   57.89    4.52
   2  -7   5   48.31   12.12
   2   7   5   61.01   14.90
   2  -7   5   51.18    4.82
   2  -7   5   63.04    4.87
   2  -7   6  105.42    6.32
   2  -7   6   99.99    6.67
   2   7   6   88.94    5.79
   2   7   7   50.78    4.40
   2  -7   7   61.30    4.84
   2  -7   7   61.63    4.58
   2  -7   8   15.81    2.12
   2  -7   8   12.59    2.20
   2   7   8   16.63    1.95
   2   7   8   12.16    1.92
  -2   7  -8   12.71    2.06
  -2   7  -9    1.07    0.57
   2  -7   9    0.89    0.79
   2   8  -9    0.35    0.67
  -2   8   9   -0.11    1.02
  -2   8   9    0.83    0.87
  -2  -8   9    0.19    0.67
  -2  -8   8    5.92    1.33
  -2   8   8    7.18    2.18
  -2   8   8    6.89    1.94
  -2  -8   8    5.94    2.07
  -2  -8   8    8.07    1.75
  -2  -8   8    7.62    1.76
  -2   8   7    7.68    2.15
  -2   8   7    8.13    2.33
  -2  -8   7   12.23    2.27
  -2  -8   7   12.02    2.46
  -2  -8   7    9.31    1.92
  -2  -8   6   17.93    2.73
  -2  -8   6   17.59    2.60
  -2   8   6   15.77    2.61
  -2  -8   6   10.68    6.91
  -2   8   6   36.86   12.31
  -2   8   6   12.97    3.04
  -2  -8   6   20.63    3.08
  -2  -8   6   17.30    2.79
  -2  -8   5   30.23   10.27
  -2  -8   5   24.56    2.90
  -2   8   5   14.07    9.86
  -2  -8   5   29.63    3.46
  -2  -8   5   21.97    7.53
  -2   8   5   29.33    3.13
  -2   8   5   25.29    3.72
  -2   8   4  297.12   10.70
  -2  -8   4  283.21   28.22
  -2  -8   4  291.92    9.00
  -2   8   4  321.12   34.71
  -2  -8   4  305.90   26.48
  -2  -8   3   41.02    9.79
  -2  -8   3   41.20    9.57
  -2   8   3   41.82   12.03
  -2  -8   2  180.38   17.45
  -2  -8   2  194.29   20.27
  -2   8   2  189.20   23.45
  -2  -8   1   -0.61    1.93
  -2   8   1    6.95    4.62
   2  -8  -1    4.42    2.84
   2  -8   0    3.26    3.21
  -2   8   0   -0.37    2.68
  -2  -8   0    4.11    2.95
   2  -8   1   23.85    7.99
  -2  -8  -1   19.96    6.86
  -2  -8  -2  572.92   35.14
   2  -8   2  602.08   38.47
   2  -8   3   16.34    7.01
  -2   8  -3   15.41    2.46
  -2  -8  -3    6.68    4.31
  -2   8  -3   15.21    2.26
  -2   8  -4  124.74    7.13
   2  -8   4   99.83   18.04
   2  -8   4  102.19    6.61
   2  -8   4  117.54    6.57
  -2   8  -4  118.96    6.52
   2   8   4  134.03   21.81
  -2  -8  -4  137.62    6.25
  -2  -8  -5   24.02    2.75
   2  -8   5   24.34    3.14
   2  -8   5   20.07    3.25
   2  -8   5   28.06    9.93
   2   8   5   16.71    8.62
   2  -8   6   24.09    3.21
   2   8   6   16.25    2.65
   2  -8   6   22.89    3.01
   2  -8   7    5.60    1.63
   2   8   7    5.21    1.36
   2  -8   7    4.97    1.44
   2   8   7    5.77    1.48
   2   8   8   22.00    2.11
   2  -8   8   18.77    1.99
   2  -8   8   17.09    2.46
  -2   8  -8   15.94    2.18
   2   8   8   16.80    2.07
  -2   9   9   32.69    2.83
   2   9  -9   36.05    3.09
  -2  -9   9   24.99    2.08
  -2   9   8   13.13    2.50
  -2  -9   8   13.50    2.60
  -2  -9   8   12.17    1.88
  -2  -9   8   18.15    2.30
  -2   9   8   16.30    2.50
  -2  -9   8   13.65    2.04
  -2  -9   7    1.15    0.91
  -2   9   7    2.16    1.65
  -2  -9   7    2.95    1.11
  -2  -9   7    3.15    1.55
  -2   9   7    0.00    1.49
  -2   9   7    2.18    1.34
  -2  -9   6    0.51    1.03
  -2   9   6    0.96    1.44
  -2  -9   6    1.14    0.90
  -2  -9   6    0.77    1.23
  -2  -9   5  166.57   23.35
  -2  -9   5  159.32    8.21
  -2  -9   5  147.93   19.73
   2   9  -5  163.90    8.05
  -2  -9   5  164.31    7.48
  -2   9   5  151.33   26.72
  -2   9   5  162.01    8.44
  -2   9   4    5.00    2.16
  -2  -9   4    5.86    1.82
  -2  -9   4    4.23    1.49
   2   9  -4    7.49    1.90
  -2   9   4    8.75    6.45
  -2  -9   4    2.29    2.90
  -2  -9   4    9.57    5.60
  -2  -9   3   17.28    6.77
  -2   9   3   20.85    8.30
  -2  -9   3   25.25    2.70
  -2  -9   2   44.26   10.26
  -2   9   2   46.17   11.89
   2  -9  -1  827.21   39.12
  -2  -9   1  788.08   41.13
  -2   9   1  770.35   45.97
  -2  -9   0   10.75    5.41
  -2   9   0   16.60    6.35
   2  -9   0   10.26    5.04
   2  -9   1  126.40   17.83
  -2  -9  -1  106.40   15.53
   2  -9   2   20.77    7.88
  -2  -9  -2    8.51    4.88
   2  -9   3  272.26   29.24
  -2   9  -3  254.49    9.88
  -2  -9  -3  270.49    8.67
   2   9   3  272.83    9.09
  -2  -9  -3  258.26   25.62
  -2   9  -3  248.39    9.34
   2   9   4    7.44    5.55
  -2   9  -4    0.21    1.17
  -2  -9  -4    1.56    1.23
   2  -9   4    4.87    2.05
   2   9   4    1.31    1.10
   2  -9   4    0.78    0.94
  -2   9  -4    1.21    1.41
   2  -9   4    4.51    4.05
   2   9   5   44.19    3.90
   2  -9   5   40.57    4.02
   2  -9   5   47.40    4.47
   2  -9   6    1.92    1.24
   2   9   6    1.77    1.14
   2  -9   6    2.78    1.20
   2   9   7   25.02    2.66
   2  -9   7   29.31    2.81
   2  -9   7   23.34    2.67
  -2   9  -8   -0.71    0.60
   2   9   8    1.05    0.64
   2  -9   8    0.38    0.87
  -2  -9  -8    0.30    0.57
   2  10  -9    8.16    1.33
  -2  10   9    6.98    1.25
  -2 -10   8   16.13    1.90
  -2 -10   8   14.12    1.85
  -2 -10   8   19.80    2.68
  -2  10   8   16.38    2.32
  -2  10   7    7.44    1.83
  -2 -10   7    7.10    1.75
  -2  10   7    8.58    2.34
  -2  10   7    6.97    1.69
  -2 -10   7    9.70    1.72
  -2 -10   6   35.08    3.50
  -2 -10   6   27.94    3.37
  -2 -10   6   32.81    3.82
  -2  10   6   32.68    3.95
  -2  10   6   28.51    3.93
  -2 -10   5    2.27    1.47
   2  10  -5    3.75    1.39
  -2  10   5    3.57    1.60
  -2  10   5    2.25    1.96
  -2 -10   5    2.75    1.64
  -2 -10   4  140.62   19.42
  -2  10   4  123.70    6.97
  -2 -10   4  138.26    6.62
   2  10  -4  135.37    7.28
  -2 -10   4  138.44    6.85
  -2  10   4  118.61   23.15
  -2  10   3   10.11    7.72
  -2 -10   3   11.41    6.77
  -2 -10   3   16.36    2.53
  -2 -10   3   19.04    2.89
  -2  10   2   48.24   12.80
  -2 -10   2   41.14   10.55
  -2  10   1    7.48    4.95
   2 -10  -1    7.63    3.98
  -2 -10   1   11.73    5.19
  -2 -10   0  576.02   37.13
  -2  10   0  452.06   33.77
   2 -10   0  526.56   35.35
   2 -10   1  130.77   18.59
  -2 -10  -1  125.63   17.67
   2  10   1  128.64    5.91
  -2 -10  -1  131.80    5.88
  -2 -10  -2   54.21   12.02
   2 -10   2   74.13    4.64
  -2 -10  -2   72.60    4.66
  -2  10  -2   71.61    5.21
   2 -10   2   73.91   15.25
   2  10   2   71.65    4.74
  -2  10  -2   73.32    5.03
  -2 -10  -2   68.00    4.40
   2 -10   3  169.39   24.08
  -2  10  -3  194.78    9.02
   2 -10   3  202.86    8.61
  -2 -10  -3  199.29    7.59
   2  10   3  191.20    7.95
  -2  10  -3  177.76    8.17
  -2  10  -4  177.28    8.97
   2 -10   4  177.13    8.27
   2 -10   4  203.16    8.79
   2  10   4  184.86    7.92
  -2 -10  -4  165.94    6.91
  -2  10  -4  164.84    8.02
   2 -10   5   75.94    5.44
   2  10   5   82.44    5.43
   2 -10   5   95.61    5.90
   2 -10   5   89.98    6.04
   2  10   6    1.78    1.14
   2 -10   6    3.09    1.38
   2 -10   6    2.01    1.18
   2 -10   7    7.98    1.56
  -2 -10  -7   11.44    1.68
   2  10   7    8.88    1.47
  -2  10  -8   23.23    1.99
   2 -10   8   19.31    2.08
  -2 -10  -8   27.12    1.84
  -2 -11   8    0.54    0.57
  -2 -11   8    1.00    0.99
  -2  11   8    2.19    0.98
  -2  11   8    1.86    0.77
  -2  11   7   58.17    4.47
  -2 -11   7   62.93    4.33
  -2 -11   7   72.19    4.11
  -2  11   7   64.80    4.67
  -2 -11   6   25.48    3.24
  -2 -11   6   25.95    2.93
  -2 -11   6   23.22    3.07
  -2  11   6   21.49    2.96
  -2 -11   5   36.78    4.07
  -2 -11   5   34.01    3.66
   2  11  -5   32.60    2.98
  -2  11   5   31.35    3.63
  -2 -11   4   57.73    4.55
  -2  11   4   57.93    4.71
  -2 -11   4   62.67    4.71
   2  11  -4   57.91    4.94
  -2  11   4   50.41   15.84
  -2 -11   4   55.56   12.76
  -2 -11   3  178.06    7.61
  -2 -11   3  178.66    7.71
   2 -11  -3  177.32    7.01
  -2  11   3  155.05   25.54
  -2 -11   3  154.51   21.00
  -2  11   2  267.05   31.59
  -2 -11   2  264.78    8.11
  -2 -11   2  266.31    8.82
  -2 -11   2  271.77   27.37
   2 -11  -2  278.42    8.51
  -2 -11   1    5.80    1.50
  -2  11   1    7.81    5.35
  -2 -11   1   10.39    5.55
  -2 -11   1    5.09    1.23
   2 -11  -1    5.41    1.20
  -2 -11   1    3.86    1.29
   2 -11   0   14.26    1.90
  -2 -11   0   14.87    2.06
   2 -11   0   14.62    6.17
  -2 -11   0   11.08    5.68
  -2 -11   0   18.43    2.42
   2 -11   1  188.87    7.18
  -2 -11  -1  188.20    7.27
  -2  11  -1  180.21    8.04
  -2 -11  -1  183.24   22.31
   2 -11   1  176.42   22.67
  -2 -11  -1  203.39    7.88
  -2  11  -2    9.98    2.05
   2 -11   2   11.38    1.87
   2  11   2   10.38    2.01
  -2  11  -2   13.93    2.66
  -2 -11  -2    2.97    3.81
   2 -11   2    2.64    3.51
  -2 -11  -2   12.48    2.12
  -2  11  -3   12.23    2.57
   2  11   3   14.90    7.01
   2 -11   3   18.68    8.41
   2  11   3   15.54    2.44
  -2 -11  -3   14.97    2.40
  -2  11  -3   14.86    2.67
   2 -11   3   19.53    2.91
  -2 -11  -4   18.97    2.71
  -2  11  -4   18.03    3.00
   2 -11   4   19.55    2.80
   2 -11   4   21.58    3.06
   2  11   4   18.79    2.62
  -2  11  -4   19.64    2.83
   2 -11   5   30.89    3.39
  -2 -11  -5   30.66    3.20
   2 -11   5   35.65    3.73
   2  11   5   32.67    3.40
   2 -11   6   -1.18    0.95
   2  11   6    1.51    1.09
  -2 -11  -6    0.88    0.88
  -2 -11  -7   27.33    2.27
   2  11   7   28.26    2.31
  -2  11  -7   21.43    2.43
   2 -11   7   17.40    2.02
  -2 -12   8   37.20    2.70
  -2 -12   8   13.99    1.31
  -2  12   8   25.52    2.22
  -2 -12   7    0.61    0.75
  -2  12   7    2.43    1.26
  -2  12   7    0.25    0.70
  -2  12   6    9.60    1.87
  -2 -12   6   12.16    2.08
  -2  12   6   17.15    2.63
  -2 -12   6   16.24    2.38
   2  12  -5   34.29    3.71
  -2  12   5   27.60    3.22
  -2 -12   5   32.35    3.52
  -2 -12   5   31.79    3.38
  -2 -12   4   63.29    4.76
  -2 -12   4   61.17    4.70
   2  12  -4   55.91    4.91
   2 -12  -4   55.38    4.00
  -2 -12   3   20.63    2.80
  -2 -12   3   17.63    2.58
   2 -12  -3   18.51    2.33
  -2 -12   2  269.34    9.02
  -2 -12   2  271.82   28.44
   2 -12  -2  266.08    8.55
  -2 -12   2  265.95    8.14
  -2 -12   2  275.25    9.20
  -2  12   2  285.98   33.75
  -2 -12   1   24.29    2.83
  -2  12   1   17.31    8.01
   2 -12  -1   24.44    2.57
  -2 -12   1   21.46    2.39
  -2 -12   1   22.76    8.31
  -2 -12   1   19.05    2.47
   2 -12   0    9.73    1.69
  -2 -12   0    5.92    1.30
  -2 -12   0    6.21    1.51
  -2 -12   0    5.84    1.58
   2 -12   0   -4.61    3.86
  -2 -12   0    4.52    4.19
  -2 -12  -1   14.16    5.13
  -2 -12  -1    8.95    1.87
   2 -12   1    7.31    1.74
   2 -12   1   -1.60    3.15
  -2 -12  -1    7.22    1.79
  -2  12  -1    5.40    1.78
  -2  12  -1    5.92    1.84
   2 -12   2  192.29    7.73
  -2 -12  -2  198.89    7.76
  -2  12  -2  207.44    9.25
  -2 -12  -2  198.81    8.18
  -2  12  -2  192.53    8.40
  -2 -12  -3   25.90    3.11
  -2  12  -3   23.77    3.37
   2 -12   3   21.47    3.08
   2  12   3   26.56    3.29
  -2  12  -3   19.57    2.99
  -2 -12  -4    0.50    0.94
   2 -12   4    2.78    1.27
   2 -12   4    0.75    1.03
  -2  12  -4   -1.26    1.23
   2  12   4    2.77    1.46
  -2  12  -4    0.76    1.23
   2 -12   5    2.91    1.39
  -2 -12  -5    4.37    1.49
   2  12   5    3.21    1.23
   2 -12   5    5.19    1.67
   2 -12   6   48.34    3.50
  -2 -12  -6   66.81    3.84
   2  12   6   65.48    3.85
   2 -12   7    1.83    0.74
  -2 -12  -7    5.25    0.90
   2 -12   7    5.38    1.23
  -2  12  -7    3.55    0.86
  -2 -13   7   40.92    2.73
  -2 -13   7   75.69    4.47
  -2  13   7   47.27    3.04
  -2  13   7   78.00    4.12
  -2  13   6   10.48    1.98
  -2 -13   6    8.38    1.64
  -2  13   6    5.53    1.38
  -2 -13   6    8.42    1.55
   2 -13  -5   13.59    1.78
  -2 -13   5   19.66    2.60
   2  13  -5   16.48    2.45
  -2 -13   4  206.40    8.22
  -2 -13   4  202.86    8.14
   2  13  -4  188.69    8.51
   2 -13  -4  199.81    7.28
  -2 -13   3  195.68    7.90
  -2 -13   3  195.67    7.83
   2  13  -3  171.86    8.05
   2 -13  -3  183.48    7.09
  -2 -13   2   54.07    4.20
  -2 -13   2   55.89    4.27
   2 -13  -2   56.59    4.00
  -2 -13   1    6.23    1.89
   2 -13  -1    4.42    1.47
   2 -13  -1    5.43    1.48
  -2 -13   1    4.10    1.52
  -2 -13   0   88.67    5.40
   2 -13   0   86.82    4.93
  -2 -13   0   82.27    4.97
  -2 -13   0   91.79    5.00
  -2  13  -1   64.09    4.91
   2 -13   1   57.48    4.15
  -2 -13  -1   57.83    4.43
  -2  13  -1   53.87    4.45
  -2 -13  -1   55.22    4.14
  -2 -13  -2   15.48    2.40
  -2 -13  -2   16.39    2.47
  -2  13  -2   17.20    2.76
  -2  13  -2   15.18    2.42
  -2  13  -3   40.12    3.89
   2 -13   3   44.07    3.80
  -2 -13  -3   35.42    3.63
  -2  13  -3   43.53    4.55
  -2 -13  -3   37.66    3.55
   2 -13   4   21.69    2.62
  -2  13  -4   19.94    2.98
   2 -13   4   20.53    2.61
  -2 -13  -4   22.61    2.64
   2 -13   5    7.08    1.51
  -2 -13  -5    9.37    1.60
  -2 -13  -6    1.24    0.68
   2 -13   6   -0.05    0.59
  -2 -13  -6    0.96    0.84
  -2 -13  -7   12.91    1.25
  -2 -14   7    0.60    0.44
  -2 -14   7    1.28    0.76
  -2  14   7    2.25    0.86
  -2  14   6   85.25    4.72
  -2 -14   6   63.09    3.63
  -2 -14   5    5.49    1.44
   2  14  -5    5.54    1.37
  -2 -14   5    7.91    1.60
  -2  14   5    5.84    1.70
   2 -14  -5    2.85    0.83
   2 -14  -4   32.27    2.72
  -2 -14   4   31.74    3.18
   2  14  -4   30.48    3.32
  -2 -14   3   14.48    2.30
  -2 -14   3   13.96    2.30
   2 -14  -3   14.02    2.00
   2  14  -3   11.39    2.21
   2 -14  -2    2.10    0.93
  -2  14   2    2.58    1.49
  -2 -14   2    1.70    1.16
  -2 -14   2    3.67    1.45
   2 -14  -1    2.38    0.89
  -2 -14   1    3.20    1.24
   2 -14   0  197.40    7.29
  -2 -14   0  217.04    7.41
  -2 -14   0  190.26    7.91
  -2  14   0  215.92    8.94
  -2 -14  -1   37.44    3.42
  -2 -14  -1   32.06    3.28
   2 -14   1   41.69    3.38
  -2  14  -1   41.02    3.95
  -2  14  -1   48.07    4.37
  -2 -14  -2   20.56    2.55
  -2  14  -2   20.72    2.96
  -2 -14  -2   18.96    2.62
  -2  14  -2   18.31    2.76
   2 -14   2   21.29    2.64
  -2 -14  -3   47.59    3.71
  -2  14  -3   48.26    4.38
   2 -14   3   45.70    3.82
  -2 -14  -3   47.24    3.90
  -2  14  -3   46.35    3.90
   2 -14   3   52.32    3.83
   2 -14   4   52.34    3.81
  -2 -14  -4   69.94    4.13
  -2  14  -4   53.07    4.45
  -2 -14  -4   65.20    4.30
   2 -14   4   59.72    3.87
   2 -14   5    0.65    0.73
  -2 -14  -5   -0.78    0.68
  -2 -14  -5    0.69    0.65
  -2 -14  -6    2.97    0.81
   2 -14   6    1.37    0.61
  -2 -14  -6    2.26    0.60
  -2  15   6   -0.02    0.65
  -2 -15   6    0.20    0.45
  -2 -15   6    1.04    0.76
  -2 -15   5   80.18    4.03
  -2 -15   5   85.18    4.36
   2  15  -5   84.75    4.30
  -2  15   5  104.59    5.22
  -2  15   4    1.95    1.23
   2  15  -4    0.25    0.90
  -2 -15   4    0.66    0.84
  -2  15   3    3.50    1.43
   2 -15  -3    2.54    0.91
  -2 -15   3    4.13    1.37
   2  15  -3    4.74    1.41
  -2 -15   3    3.04    1.28
  -2  15   2   51.15    4.04
  -2 -15   2   48.87    3.88
  -2 -15   2   49.58    3.68
  -2 -15   1  173.67    7.14
  -2 -15   1  192.52    6.89
  -2  15   0    4.63    1.69
   2 -15   0    8.10    1.43
  -2  15   0    6.81    1.82
  -2  15  -1    0.51    1.05
  -2 -15  -1   -0.45    1.09
  -2  15  -1   -0.26    1.16
   2 -15   1   -0.34    0.93
  -2  15  -2    1.38    1.07
  -2 -15  -2    0.65    0.86
  -2  15  -2    0.14    1.03
  -2 -15  -2    1.38    0.95
   2 -15   2    1.12    0.99
   2 -15   3   18.57    2.21
  -2 -15  -3   27.47    2.60
  -2  15  -3   23.47    2.90
  -2 -15  -3   30.35    2.99
  -2  15  -3   23.10    2.50
   2 -15   3   23.62    2.36
   2 -15   4    0.68    0.67
  -2 -15  -4    0.59    0.67
  -2 -15  -4    0.44    0.79
   2 -15   5    7.31    1.07
  -2 -15  -5   16.83    1.56
  -2 -15  -5   13.68    1.55
  -2  16   6   11.60    1.30
  -2 -16   5    2.79    0.69
  -2 -16   5    2.68    0.83
  -2  16   5    2.63    0.95
  -2 -16   4   20.85    2.08
   2  16  -4   23.95    2.34
  -2  16   4   26.27    2.60
  -2 -16   3    0.10    0.71
   2  16  -3    0.98    0.95
  -2  16   3    0.94    0.89
  -2  16   2   26.06    2.67
  -2 -16   2   28.63    2.73
   2  16  -2   27.03    2.89
  -2  16   2   24.96    2.55
  -2  16   1   14.45    2.19
  -2 -16   1   10.21    1.68
  -2  16   1   12.38    1.91
  -2  16   0    9.73    1.88
  -2  16   0    9.91    1.85
  -2 -16   0    8.46    1.61
  -2  16  -1   17.45    2.40
  -2  16  -1   17.38    2.34
   2 -16   2   22.72    2.28
  -2  16  -2   24.06    2.77
  -2 -16  -2   28.08    2.66
  -2  16  -2   24.34    2.57
   2 -16   2   24.06    2.12
   2 -16   3    7.85    1.29
  -2 -16  -3   13.07    1.79
  -2  16  -3   10.22    1.68
   2 -16   4    8.48    1.16
  -2 -16  -4   17.35    1.79
  -2 -16  -5    7.06    0.90
   2  17  -4    0.02    0.48
  -2 -17   4    0.96    0.49
  -2  17   4    1.71    0.79
  -2 -17   4    0.76    0.71
  -2 -17   4    0.17    0.36
   2  17  -3   18.45    2.00
  -2  17   3   12.42    1.58
  -2 -17   3   13.14    1.57
   2  17  -2   11.15    1.73
  -2  17   2    8.01    1.33
  -2  17   2    8.08    1.49
  -2 -17   2    8.78    1.45
  -2  17   1   26.39    2.45
  -2  17   1   25.73    2.62
   2  17  -1   25.28    2.59
  -2 -17   1   26.17    2.42
  -2 -17   0    0.42    0.68
  -2  17   0   -0.15    0.77
  -2  17   0    0.86    0.90
   2 -17   1   13.68    1.50
  -2 -17  -1   21.42    2.11
  -2  17  -1   18.56    2.22
  -2  17  -1   19.01    2.05
   2 -17   2    2.04    0.60
  -2  17  -2    1.84    0.85
  -2 -17  -2    2.80    0.84
  -2  17  -2    1.76    0.79
   2 -17   3    0.58    0.42
  -2 -17  -3    3.12    0.76
  -2 -18   3    9.01    1.17
  -2  18   3   19.23    1.64
   2  18  -2   17.05    1.71
  -2 -18   2   12.30    1.33
  -2  18   2   21.83    1.90
  -2 -18   1    1.87    0.69
  -2  18   1    0.86    0.60
   2  18  -1    1.74    0.82
  -2  18   1    1.62    0.70
  -2  18   0   12.34    1.49
  -2 -18   0   13.53    1.47
   2  18   0   14.28    1.71
  -2  18   0    7.89    1.12
  -2 -18  -1    0.55    0.50
  -2  18  -1    0.94    0.63
  -2  18  -1    1.63    0.65
  -2 -18  -2   15.31    1.34
  -3   0  10   44.37    2.98
  -3   0   9    2.06    1.33
   3   0  -9    1.81    1.06
  -3   0   9    0.62    0.99
  -3   0   9   -1.68    1.15
   3   0  -8   13.71    2.28
  -3   0   8   10.75    2.31
  -3   0   8   11.64    2.20
  -3   0   7    4.77    1.60
  -3   0   7    2.45    1.40
  -3   0   6 1012.28   17.44
  -3   0   6 1097.00   17.53
  -3   0   5   18.91    6.02
  -3   0   4  159.80   16.39
  -3   0   3   14.91    5.08
  -3   0   3    8.42    2.10
  -3   0   2 1003.69   35.51
  -3   0   2  917.79   23.69
  -3   0   1    8.37    3.14
  -3   0   1    3.83    1.94
  -3   0   0  145.15   12.49
  -3   0   0  139.77   12.15
  -3   0  -1   94.51   11.14
  -3   0  -2   51.23    9.14
   3   0   3   15.28    5.19
   3   0   4   42.10    9.81
   3   0   4   49.97    9.71
  -3   0  -5    1.21    1.30
  -3   0  -5   -0.09    1.00
   3   0   5    1.89    1.09
   3   0   5   -2.53    2.86
   3   0   6   22.01    3.51
  -3   0  -6   24.64    3.13
  -3   0  -7   -1.02    1.12
   3   0   7    0.89    1.35
   3   0   8   63.99    4.67
   3   0   9    0.12    0.74
  -3   1  10    1.97    1.02
  -3  -1  10    2.31    0.92
  -3   1  10    0.49    0.89
  -3   1   9    0.93    1.34
  -3  -1   9    1.73    1.13
  -3   1   9    1.26    1.17
   3   1  -9    0.15    0.65
  -3   1   9    0.81    1.42
  -3  -1   9    2.16    1.26
   3  -1  -8    9.42    1.87
   3   1  -8    9.85    1.93
  -3  -1   8    5.98    1.85
  -3   1   8   10.94    2.17
  -3   1   8    6.83    1.70
  -3   1   8    5.54    1.96
   3   1  -7  236.92    8.98
  -3   1   7  238.55    9.54
  -3  -1   7  234.63    9.05
  -3   1   7  263.62    9.91
  -3   1   7  225.70    8.86
  -3  -1   6    5.52    1.33
  -3   1   6   11.54    5.32
  -3  -1   6    4.56    1.34
  -3  -1   6    8.55    2.08
  -3  -1   5  129.00   15.36
  -3   1   5  122.41   15.94
  -3  -1   4  209.88   18.45
  -3   1   4  207.82   19.53
  -3  -1   3  817.02   34.41
  -3  -1   3  755.13   21.57
  -3   1   3  812.66   35.47
  -3   1   2  894.91   34.25
  -3  -1   2  888.21   33.41
  -3  -1   2  804.55   24.07
  -3   1   2  811.31   20.96
  -3   1   1  462.24   23.09
  -3  -1   1  443.43   19.36
  -3   1   1  437.89   18.51
  -3  -1   1  448.26   22.95
  -3   1   0   79.35    9.22
  -3  -1   0   70.46    9.06
  -3  -1   0   73.41    8.87
  -3   1   0   72.69    8.95
  -3   1  -1  293.59   16.59
  -3  -1  -1  324.26   20.26
  -3   1  -1  272.86   19.19
   3  -1   2    1.53    2.13
  -3  -1  -2   -1.46    2.68
   3  -1   3  396.48   27.11
  -3  -1  -3  356.44   26.03
   3  -1   4   40.66    9.22
   3   1   4   35.69    8.94
  -3  -1  -5  101.53    5.84
  -3   1  -5   93.87    5.66
  -3  -1  -5   88.65    6.45
   3  -1   5   87.91    5.82
   3   1   5   80.21   14.67
   3   1   5  106.38   16.55
   3   1   5   93.24    5.88
   3  -1   5   95.02   15.81
  -3   1  -5   97.23    6.53
  -3  -1  -6   23.33    3.06
  -3   1  -6   25.87    3.17
   3   1   6   26.05    3.52
   3  -1   6   26.55    3.68
   3  -1   6   22.50    3.02
   3  -1   7   81.67    6.00
  -3  -1  -7   87.03    5.79
   3  -1   7   71.22    4.90
   3   1   7   79.92    5.83
  -3   1  -7   88.50    5.71
  -3   1  -8   24.69    2.83
   3  -1   8   23.44    3.07
   3   1   8   23.66    3.02
   3  -1   8   19.93    2.27
   3   1   9    7.07    1.34
   3  -1   9    5.73    1.25
  -3  -2  10   15.75    2.20
  -3   2  10   18.60    2.07
  -3  -2  10   19.72    1.93
  -3   2  10   17.20    2.19
   3   2  -9   10.35    1.96
  -3   2   9    6.54    1.64
  -3   2   9   10.88    1.88
  -3  -2   9   12.45    1.98
  -3   2   9    9.74    2.24
  -3  -2   9    7.74    2.11
   3   2  -8   24.42    2.94
  -3   2   8   18.25    2.82
  -3   2   8   22.26    2.73
  -3   2   8   26.38    3.52
  -3   2   8   19.35    2.92
  -3  -2   8   23.04    3.16
   3   2  -7    0.04    0.84
  -3   2   7    1.32    1.56
  -3  -2   7    1.18    1.20
  -3  -2   7    0.10    1.23
  -3   2   7    1.83    1.18
  -3   2   7    1.86    1.25
  -3  -2   7    1.21    1.49
  -3  -2   6  153.06    7.12
  -3   2   6  141.76   19.26
  -3  -2   6  141.02   22.10
  -3  -2   6  150.48    6.66
  -3   2   6  150.18    7.13
  -3   2   6  134.77    7.42
  -3  -2   6  150.25    6.82
  -3  -2   5  137.57   19.74
  -3  -2   5  138.91   15.60
  -3   2   5  138.71   17.57
  -3   2   4   90.85   13.31
  -3  -2   4   94.06   14.78
  -3  -2   4   88.83   11.97
  -3   2   3  451.76   27.93
  -3  -2   3  464.82   25.81
  -3  -2   3  420.40   18.60
  -3   2   2  826.72   34.14
  -3  -2   2  831.57   33.18
   3  -2  -2  785.34   19.86
  -3  -2   2  794.26   26.45
  -3   2   1  252.38   17.90
  -3  -2   1  249.44   17.36
  -3  -2   1  210.06   14.32
   3  -2  -1  238.33   13.83
  -3   2   0 1926.12   44.67
  -3  -2   0 1901.65   46.11
   3  -2   0 1904.79   44.70
  -3   2  -1  740.18   25.71
  -3  -2  -1  753.98   31.24
   3  -2   1  808.44   32.23
  -3  -2  -2    6.34    3.69
   3  -2   2    3.09    2.58
   3  -2   3   20.76    6.53
  -3  -2  -3   22.09    6.99
   3   2   4  734.04   41.36
   3  -2   4  770.21   42.04
  -3  -2  -5  115.46    6.31
   3   2   5  103.85   17.18
   3   2   5  105.30    6.29
   3   2   5  128.47   18.40
   3  -2   5  127.52    7.08
  -3   2  -5  121.98    6.46
   3  -2   5  125.30   18.50
   3  -2   5  126.10    6.19
  -3  -2  -6   52.68    4.57
  -3   2  -6   48.44    4.32
   3   2   6   49.42    4.62
   3  -2   6   52.27    4.91
  -3   2  -7    5.01    1.52
   3  -2   7    6.68    2.06
   3  -2   7    4.99    1.48
   3   2   7    6.29    1.92
  -3   2  -8   38.08    3.44
   3  -2   8   28.69    2.81
   3   2   8   37.46    3.53
   3  -2   8   38.55    3.81
   3   2   9    1.73    0.90
   3  -2   9    1.89    0.81
  -3   3  10   -0.20    0.83
  -3   3  10   -0.66    0.83
  -3  -3  10    0.24    0.75
   3   3  -9  190.28    7.73
  -3   3   9  151.84    7.38
  -3   3   9  214.58    7.42
  -3  -3   9  194.67    6.64
  -3   3   9  195.18    8.51
  -3  -3   9  177.85    8.12
   3   3  -8   24.27    3.06
  -3   3   8   23.36    2.87
  -3   3   8   18.38    3.12
  -3  -3   8   26.70    3.45
  -3   3   8   17.15    2.91
  -3   3   8   23.62    3.22
  -3  -3   7    8.78    2.22
  -3   3   7    5.27    1.70
  -3  -3   7    8.46    1.95
  -3   3   7    7.01    1.80
  -3   3   7    5.37    2.05
  -3  -3   7    6.29    1.90
  -3  -3   7    7.07    1.86
  -3  -3   6  109.65   20.26
  -3  -3   6  115.83    5.96
  -3   3   6   90.88    5.41
  -3  -3   6  101.66    6.55
  -3   3   6  109.62    6.30
  -3   3   6  105.55    6.85
  -3  -3   6  108.75    5.99
  -3  -3   6  116.18    6.25
  -3   3   6  128.37   18.99
  -3   3   5  841.66   45.98
  -3  -3   5  943.73   53.03
  -3  -3   5  916.83   39.34
  -3  -3   4   48.83   10.77
  -3  -3   4   54.43    9.44
  -3  -3   4   45.27    7.18
  -3   3   4   52.37   10.62
  -3   3   3  240.47   21.22
  -3  -3   3  213.86   18.08
  -3  -3   3  203.24   14.82
  -3   3   2    3.29    2.77
   3  -3  -2    4.28    1.68
  -3  -3   2    5.27    3.12
  -3  -3   2    5.80    2.93
  -3   3   1  193.03   16.25
  -3  -3   1  187.25   14.56
   3  -3  -1  192.76   13.01
   3  -3   0   17.72    4.64
  -3  -3   0   20.76    5.50
  -3   3   0   15.01    4.12
  -3  -3  -1 1236.36   41.88
  -3   3  -1 1269.82   33.52
   3  -3   1 1259.82   41.75
  -3  -3  -2   21.94    6.06
   3  -3   2   21.17    6.14
  -3  -3  -3  318.02   24.87
   3  -3   3  305.72   25.15
   3  -3   4  117.73   16.86
  -3  -3  -4  122.32   16.89
  -3  -3  -5  722.25   16.16
  -3   3  -5  715.97   15.96
   3  -3   5  829.64   49.12
   3  -3   5  724.72   15.15
   3   3   5  706.85   15.80
   3   3   5  769.88   50.59
   3  -3   5  772.80   17.21
   3   3   5  837.68   47.45
  -3   3  -6    0.60    0.99
   3  -3   6    0.04    0.97
   3   3   6    0.96    1.28
   3  -3   6   -0.34    1.41
   3  -3   7    1.62    1.40
  -3   3  -7    1.04    0.76
   3  -3   7    0.67    1.42
   3   3   7    1.54    1.24
  -3   3  -8    2.24    0.94
   3  -3   8    1.34    1.05
   3  -3   8    1.30    0.83
   3   3   8    2.42    1.38
   3  -3   9   14.04    1.73
   3   3   9   14.17    1.70
  -3   4  10   12.99    1.76
  -3   4  10   24.38    2.58
  -3  -4  10   14.40    2.09
  -3   4   9    2.46    1.53
  -3  -4   9    1.23    1.11
  -3   4   9    1.56    1.10
  -3   4   9    0.27    1.16
   3   4  -9   -0.30    0.84
  -3  -4   9    1.01    1.21
   3   4  -8   25.55    3.14
  -3   4   8   18.97    2.66
  -3  -4   8   25.85    3.17
  -3   4   8   24.62    3.45
  -3   4   8   22.40    3.41
  -3  -4   8   23.09    3.12
  -3  -4   7  124.98    6.91
  -3   4   7  115.06    5.72
  -3  -4   7  107.90    6.87
  -3  -4   7  118.03    6.91
  -3   4   7  116.25    7.27
  -3   4   7  111.50    7.53
  -3  -4   7  113.45    6.38
  -3   4   7   96.55    5.91
  -3   4   6  101.51   17.78
  -3  -4   6  114.62   21.02
  -3  -4   6  119.25    6.16
  -3  -4   6  110.28    6.91
  -3   4   6  100.89    6.35
  -3  -4   6  119.78    6.23
  -3  -4   6  122.59    6.52
  -3   4   6  103.77    6.91
  -3  -4   6  119.00    6.34
  -3  -4   5  459.51   38.07
  -3   4   5  437.80   34.49
  -3  -4   4  471.36   34.47
  -3  -4   4  473.86   25.25
  -3   4   4  479.51   33.64
  -3   4   3  849.90   41.91
  -3  -4   3  770.56   31.87
   3  -4  -2   10.89    2.97
  -3  -4   2   13.30    4.70
  -3   4   2   15.89    5.61
   3  -4  -1  921.23   30.39
  -3  -4   1  911.81   34.64
  -3   4   1  932.96   37.68
  -3  -4   0  224.64   17.81
  -3   4   0  224.46   17.23
   3  -4   0  250.55   17.83
  -3   4  -1  234.51   14.79
  -3  -4  -1  214.45   18.06
   3  -4   1  266.25   20.00
  -3  -4  -2  481.09   29.22
   3  -4   2  459.75   29.04
  -3  -4  -3   25.48    7.33
   3  -4   3   24.73    7.55
   3  -4   4  170.93   21.44
  -3  -4  -4  142.93   18.54
   3  -4   5   17.72    7.00
   3  -4   5   24.89    2.84
   3   4   5   27.74    3.61
   3   4   5   30.70    9.22
   3  -4   5   21.88    2.92
   3   4   5   33.87   11.83
  -3   4  -6  108.89    6.59
   3  -4   6  116.71    6.36
   3   4   6  112.44    6.58
   3  -4   6  111.02    7.25
  -3   4  -7   29.18    3.36
   3  -4   7   37.27    4.18
   3   4   7   34.83    3.62
   3  -4   7   34.82    3.79
  -3   4  -8   12.27    1.88
   3  -4   8   11.67    2.18
   3  -4   8    9.00    1.78
   3   4   8   10.08    1.79
   3  -4   9    0.07    0.63
   3   4   9    0.25    0.52
   3   4   9    0.35    0.72
  -3   5  10    3.31    1.17
  -3  -5  10    1.83    0.93
  -3   5  10    6.39    1.44
  -3   5   9   22.59    2.69
  -3   5   9   27.06    3.19
   3   5  -9   20.96    2.73
  -3   5   9   18.32    2.70
  -3  -5   9   21.06    2.79
  -3   5   8   62.89    4.45
  -3  -5   8   57.57    4.89
  -3   5   8   57.48    5.33
  -3  -5   8   54.28    4.79
  -3   5   8   60.88    5.28
  -3   5   7   76.64    6.42
  -3   5   7   63.76    5.64
  -3  -5   7   78.27    5.82
  -3   5   7   72.10    4.68
  -3  -5   7   82.84    6.30
  -3  -5   7   82.53    5.51
  -3  -5   7   89.14    5.92
  -3   5   6   36.76    3.18
  -3  -5   6   41.10   12.87
  -3   5   6   30.42    4.09
  -3   5   6   52.17   13.49
  -3   5   6   35.51    3.59
  -3   5   6   40.04    4.36
  -3  -5   6   37.54    3.67
  -3  -5   6   38.17    3.60
  -3  -5   6   30.06    3.37
  -3   5   5  164.92   22.76
  -3  -5   5  184.57   25.04
  -3  -5   4  368.39   24.99
  -3  -5   4  379.95   31.68
  -3   5   4  403.76   32.73
  -3   5   3   47.71   11.52
  -3  -5   3   37.89    7.98
   3  -5  -2    4.12    2.04
  -3   5   2   12.42    5.32
  -3  -5   2   10.17    4.66
  -3   5   1  565.41   31.85
   3  -5  -1  597.34   26.24
  -3  -5   1  559.97   29.29
   3  -5   0   82.78   11.03
  -3   5   0   77.34   11.06
  -3  -5   0   95.90   12.39
   3  -5   1 1194.05   45.34
  -3   5  -1 1119.21   34.15
  -3  -5  -1 1127.70   43.45
   3  -5   2  122.35   15.86
  -3  -5  -2  123.64   15.42
  -3  -5  -3  282.69   24.93
   3  -5   3  268.33   25.66
   3  -5   4   53.70   12.31
   3  -5   4   42.85    3.62
  -3  -5  -4   32.47    9.59
   3  -5   4   44.41    3.88
   3  -5   5   83.58    5.37
   3  -5   5   81.02   16.29
   3   5   5   57.15   15.67
   3   5   5   72.81    5.10
   3  -5   5   68.61    5.04
  -3   5  -6    2.20    1.19
   3   5   6    2.65    1.30
   3  -5   6    1.27    1.42
   3  -5   6    4.03    1.42
  -3   5  -7   56.48    4.56
   3  -5   7   51.59    4.89
   3   5   7   50.87    4.22
  -3   5  -8   -0.53    0.69
   3   5   8   -1.28    0.88
   3  -5   8    0.72    1.10
   3  -5   8   -0.53    1.14
   3   5   9    2.49    0.64
  -3  -6  10    5.19    1.10
  -3   6  10    7.69    1.31
   3   6  -9    1.38    0.92
  -3   6   9    1.93    1.35
  -3   6   9    1.29    0.98
  -3  -6   9    1.84    1.19
  -3   6   8   48.26    4.75
  -3   6   8   50.99    4.05
  -3  -6   8   46.50    4.28
  -3  -6   8   53.36    4.49
  -3  -6   8   46.25    4.48
  -3   6   8   46.14    4.81
  -3   6   7   52.24    4.10
  -3  -6   7   44.78    4.02
  -3  -6   7   48.13    4.55
  -3  -6   7   46.97    4.77
  -3   6   7   46.18    4.87
  -3   6   7   47.25    4.80
  -3  -6   7   50.82    4.45
  -3   6   6  221.73   29.67
  -3  -6   6  184.08   26.81
  -3   6   6  213.87    7.55
  -3  -6   6  202.95    8.44
  -3  -6   6  180.98    7.63
  -3   6   6  218.00    9.65
  -3   6   6  235.13   10.28
  -3   6   6  203.47    8.78
  -3  -6   6  218.02    8.97
  -3   6   5   34.76    2.92
  -3  -6   5   34.12   10.96
  -3  -6   5   39.77    3.74
  -3  -6   5   31.54    3.12
  -3   6   5   39.79   12.15
  -3   6   5   28.19    3.78
  -3  -6   5   15.49    6.44
  -3   6   5   30.56    3.93
  -3  -6   4   10.18    5.53
  -3   6   4   16.98    7.35
  -3  -6   4   11.62    4.32
  -3  -6   3    6.13    3.20
  -3   6   3    9.25    5.18
   3  -6  -2 1097.69   35.29
  -3  -6   2 1203.13   45.59
  -3   6   2 1279.24   53.65
   3  -6  -1   20.71    5.68
  -3   6   1   15.03    6.59
  -3  -6   1   11.52    5.44
   3  -6   0   22.18    6.12
  -3   6   0   17.59    5.42
  -3  -6   0   16.80    5.78
  -3  -6  -1   36.68    8.75
   3  -6   1   39.37    8.97
   3  -6   2  672.99   39.06
  -3  -6  -2  667.70   37.19
   3  -6   3    3.96    4.06
  -3  -6  -3    8.53    4.73
   3  -6   4    1.59    1.69
   3  -6   4    2.77    4.32
   3  -6   4    2.11    1.14
  -3  -6  -4    1.09    0.89
  -3  -6  -4    9.07    5.28
   3  -6   5    5.43    1.51
   3  -6   5    4.72    4.17
   3   6   5  -19.44    9.23
   3  -6   5    5.41    1.73
  -3   6  -6   90.85    6.11
   3  -6   6   88.46    6.55
   3  -6   6   90.48    5.68
   3   6   6   82.33    5.42
  -3   6  -7   -0.61    0.78
   3  -6   7    1.45    1.42
  -3  -6  -7    0.87    0.66
   3   6   7    0.41    0.98
  -3   6  -8   10.57    1.66
   3   6   8   10.14    1.52
   3  -6   8   16.54    2.22
   3  -6   8    8.45    1.64
  -3   7  10    3.86    0.90
  -3  -7  10    1.61    0.58
   3   7  -9   21.98    2.59
  -3   7   9   24.96    2.94
  -3   7   9   19.35    2.64
  -3  -7   9   16.68    2.36
  -3   7   8   31.62    3.18
  -3   7   8   35.30    4.00
  -3  -7   8   29.97    3.72
  -3   7   8   31.89    3.92
  -3  -7   8   30.90    3.40
  -3   7   7   24.24    3.37
  -3  -7   7   24.02    3.42
  -3   7   7   28.47    3.17
  -3  -7   7   30.86    3.28
  -3   7   7   28.07    3.89
  -3  -7   7   29.71    3.43
  -3   7   7   30.62    3.97
  -3  -7   7   26.92    4.01
  -3   7   6   14.44    2.61
  -3  -7   6   31.17   11.14
  -3   7   6   20.10    2.70
  -3  -7   6   16.60    2.51
  -3  -7   6   15.39    2.57
  -3  -7   6   17.14    2.64
  -3   7   6   20.10    9.33
  -3   7   6   15.89    2.98
  -3   7   6   17.67    3.00
  -3   7   5  142.67   24.03
  -3  -7   5  166.46    8.03
  -3  -7   5  154.18   23.27
  -3   7   5  148.63    6.12
  -3  -7   5  140.98    6.47
  -3  -7   5  122.78   16.86
  -3   7   5  150.22    7.86
  -3   7   5  146.66    8.11
  -3   7   4  344.15   34.36
  -3  -7   4  327.02   30.61
  -3  -7   4  292.73   25.21
  -3   7   3  614.19   43.22
  -3  -7   3  631.82   36.42
  -3  -7   2  187.08   19.74
  -3   7   2  175.24   21.61
   3  -7  -1   70.65   10.71
  -3  -7   1   83.18   13.11
  -3   7   1   61.95   12.48
   3  -7   0   40.00    8.56
  -3  -7   0   46.72    9.85
  -3   7   0   35.90    8.33
   3  -7   1  259.65   23.87
  -3  -7  -1  261.13   23.81
  -3  -7  -2   11.84    5.49
   3  -7   2   19.29    6.93
   3  -7   3  118.70   19.07
   3  -7   3  109.11    5.66
  -3   7  -3  116.05    6.32
  -3  -7  -3   93.18   16.00
  -3  -7  -3  107.22    5.68
  -3   7  -3  121.57    6.13
   3  -7   4   47.73    4.09
   3  -7   4   35.37   10.67
  -3  -7  -4   48.28    4.10
   3  -7   4   35.39    4.25
  -3  -7  -4   53.37   12.46
   3  -7   5    7.72    1.82
   3  -7   5    6.72    2.23
  -3  -7  -5    8.42    1.83
   3  -7   6   19.19    3.29
  -3  -7  -6   21.52    2.63
   3  -7   6   23.01    2.90
  -3   7  -7   39.83    3.70
   3   7   7   40.40    3.40
   3  -7   7   43.86    3.57
   3  -7   7   49.53    4.36
  -3  -7  -7   37.19    2.86
  -3   7  -8   12.94    1.65
   3  -7   8   12.39    1.90
   3  -7   8   20.37    2.14
   3   7   8   17.16    1.78
   3   8  -9    4.11    1.17
  -3   8   9    3.27    1.22
  -3  -8   9    3.39    1.11
  -3  -8   8   11.75    2.22
  -3  -8   8    9.32    2.28
  -3   8   8   10.44    2.23
  -3   8   8    8.67    2.25
  -3   8   7   96.96    6.94
  -3   8   7   91.74    6.64
  -3   8   7   98.49    5.67
  -3   8   7   90.97    6.19
  -3  -8   7   85.54    6.98
  -3  -8   7   94.51    5.32
  -3  -8   7   96.82    6.21
  -3  -8   6   44.23    4.54
  -3   8   6   47.13    3.98
  -3  -8   6   44.08    3.91
  -3  -8   6   49.77    4.26
  -3  -8   6   44.06    3.92
  -3   8   6   43.83    4.87
  -3   8   6   44.67    4.72
  -3   8   6   47.22    4.84
  -3   8   5   32.70    4.04
  -3   8   5   32.81    3.16
  -3  -8   5   32.32    3.35
  -3  -8   5   27.05    3.56
  -3   8   5   27.40   11.71
  -3  -8   5   15.90    6.51
  -3   8   5   33.23    3.90
  -3  -8   5   22.67    9.15
  -3   8   4  352.41   12.14
  -3  -8   4  364.36   29.73
  -3  -8   4  349.70   10.77
  -3   8   4  394.23   12.05
  -3  -8   4  363.79   10.26
  -3  -8   4  345.31   10.11
  -3   8   4  372.20   37.91
  -3   8   3   84.03   16.84
  -3  -8   3   99.35   15.49
  -3  -8   2  135.35   17.60
  -3   8   2  100.91   17.36
   3  -8  -1   36.52    8.22
  -3   8   1   33.34    9.58
  -3  -8   1   27.27    8.02
  -3   8   0  884.62   43.49
   3  -8   0  891.36   43.80
  -3  -8   0  988.32   48.01
  -3  -8  -1   41.55   10.11
   3  -8   1   37.27    9.65
   3  -8   2  151.03   21.04
  -3   8  -2  147.63    6.75
  -3  -8  -2  135.19   18.64
   3   8   2  143.15    6.19
  -3  -8  -2  155.20    6.60
   3  -8   3   21.67    7.57
   3  -8   3    9.52    1.96
  -3  -8  -3   13.53    2.34
  -3   8  -3    7.52    1.81
  -3   8  -3    9.94    2.25
  -3  -8  -3   17.49    2.68
  -3  -8  -3   16.74    7.47
   3  -8   4   48.18    4.62
   3  -8   4   54.30    4.47
   3  -8   4   41.52   12.45
  -3  -8  -4   51.58    4.20
   3  -8   5    1.10    1.68
   3  -8   5    0.72    1.03
  -3  -8  -5    0.66    1.08
   3  -8   6   21.72    2.68
   3  -8   6   29.82    3.62
  -3  -8  -6   22.36    2.61
  -3   8  -7   -0.13    0.70
   3  -8   7    0.25    1.03
   3  -8   7    0.91    0.98
   3   8   7    1.36    0.91
  -3   8  -8    0.98    0.43
  -3  -8  -8    3.88    0.90
   3  -8   8    4.96    1.03
   3  -8   8    4.13    1.17
   3   8   8    4.73    0.96
   3   9  -9   33.70    2.64
  -3  -9   9   39.55    2.74
  -3   9   9   37.66    2.98
  -3  -9   9   29.05    2.30
  -3  -9   8   13.02    1.89
  -3  -9   8   10.49    2.30
  -3   9   8   16.28    2.60
  -3  -9   7    8.28    1.68
  -3   9   7    6.22    2.45
  -3   9   7    8.71    2.21
  -3   9   7    6.55    2.17
  -3  -9   7    8.43    1.90
  -3  -9   7    9.62    2.57
  -3   9   6   32.88    4.11
  -3  -9   6   31.49    3.44
  -3  -9   6   41.22    3.70
  -3  -9   6   33.12    3.54
  -3  -9   6   36.66    4.16
  -3   9   6   35.05    4.36
  -3   9   6   32.29    4.22
  -3   9   5  419.81   44.18
  -3   9   5  412.74   10.92
  -3  -9   5  425.78   11.79
  -3  -9   5  376.06   31.87
  -3   9   5  389.26   13.53
  -3   9   5  402.65   13.12
  -3  -9   5  409.73   13.85
  -3  -9   4   67.35    4.72
  -3  -9   4   62.90   12.83
  -3  -9   4   73.46    5.11
  -3   9   4   65.69   16.65
  -3  -9   4   76.99    4.94
  -3   9   4   74.59    5.47
  -3  -9   3  266.40    8.69
  -3  -9   3  276.22   26.48
  -3  -9   3  275.10    9.77
  -3   9   3  266.42   31.58
  -3  -9   3  265.59    8.61
  -3   9   2   69.93   15.90
  -3  -9   2   95.66   15.49
   3  -9  -1   39.65    9.62
  -3   9   1   36.22   10.38
  -3  -9   1   38.35    9.94
  -3   9   0   84.06   14.15
  -3  -9   0  107.67   16.68
   3  -9   0  111.50   16.40
   3   9   1  663.02   13.15
   3  -9   1  627.23   41.99
  -3  -9  -1  667.23   13.07
  -3  -9  -1  696.31   43.25
  -3  -9  -1  710.44   14.06
  -3   9  -1  668.96   14.60
   3  -9   2   18.50    8.43
  -3   9  -2   24.72    3.11
  -3  -9  -2   35.41    3.40
   3   9   2   34.18    3.29
  -3  -9  -2   34.88    3.41
  -3  -9  -2   28.21    9.30
  -3   9  -2   27.96    3.23
   3  -9   3   34.27    3.48
  -3   9  -3   34.50    3.79
   3   9   3   34.40    3.45
  -3  -9  -3   36.76    3.63
  -3  -9  -3   19.63    8.11
  -3   9  -3   33.56    3.71
   3  -9   3   45.86   12.64
   3  -9   4    2.57    1.23
   3   9   4    2.01    1.18
  -3  -9  -4    1.99    1.16
   3  -9   4    5.30    2.09
  -3  -9  -5  154.00    6.82
   3  -9   5  150.31    7.42
   3  -9   5  151.40    7.87
   3   9   5  157.70    7.42
   3  -9   6    0.92    0.82
   3   9   6    0.34    1.31
  -3  -9  -6    0.81    0.73
   3  -9   6    0.66    1.23
  -3   9  -7    1.25    0.61
   3  -9   7   -0.31    0.76
   3  -9   7   -0.01    0.87
   3   9   7    0.71    0.75
  -3  -9  -8    1.24    0.54
   3   9   8    1.29    0.52
   3  -9   8    0.83    0.62
  -3  10   9    0.78    0.65
  -3 -10   8   18.95    2.59
  -3  10   8   18.86    2.50
  -3 -10   8   14.24    1.93
  -3  10   8   18.21    2.11
  -3 -10   7    8.45    1.65
  -3 -10   7   10.75    1.95
  -3  10   7    6.47    1.76
  -3  10   7    9.38    2.11
  -3 -10   7   12.65    2.87
  -3  10   6    4.32    1.88
  -3 -10   6    2.91    1.33
  -3 -10   6    2.56    1.33
  -3  10   6    2.14    1.62
  -3 -10   6    2.97    1.28
  -3  10   5  235.89   10.32
  -3 -10   5  244.02    9.11
  -3 -10   5  232.43   10.53
  -3  10   5  217.41    9.69
  -3  10   4  354.61   39.96
  -3 -10   4  370.92   32.34
  -3 -10   4  350.78   10.87
  -3  10   4  367.36   12.08
  -3 -10   4  373.40   10.96
  -3 -10   4  364.81   11.02
  -3 -10   3  295.12    9.44
  -3 -10   3  303.01    9.65
  -3 -10   3  278.98   28.00
  -3 -10   3  285.67    9.71
  -3  10   3  258.87   32.30
  -3 -10   3  287.00    9.14
  -3 -10   2   21.53    8.79
  -3  10   2    4.73    4.37
  -3 -10   2   19.83    2.77
  -3  10   1  212.80   25.87
  -3 -10   1  256.90    8.13
  -3 -10   1  259.79   27.12
   3 -10  -1  237.66   23.03
  -3  10   1  298.94    9.96
  -3 -10   1  264.82    8.69
  -3 -10   0  405.09   10.22
  -3  10   0  443.17   11.69
   3 -10   0  391.87   32.04
  -3 -10   0  418.04   34.30
  -3 -10   0  405.44   10.71
   3 -10   1  259.88   28.17
  -3 -10  -1  282.29    8.88
  -3  10  -1  269.81    9.77
  -3  10  -1  253.06    9.42
  -3 -10  -1  295.96   29.09
   3  10   1  281.66    8.93
  -3 -10  -1  276.70    9.26
  -3 -10  -2   12.75    2.15
   3 -10   2    4.47    3.71
  -3  10  -2    9.14    2.01
  -3 -10  -2   11.01    2.03
   3  10   2   12.00    2.20
  -3 -10  -2    9.49    5.69
  -3  10  -2    9.44    2.13
  -3 -10  -3   19.25    8.09
   3 -10   3   10.21    2.05
  -3 -10  -3   14.82    2.46
   3 -10   3    7.73    5.81
  -3  10  -3    6.30    1.96
   3  10   3   10.16    1.91
  -3  10  -3    8.63    2.16
   3 -10   3   11.48    2.66
  -3 -10  -3   12.62    2.11
   3 -10   4   35.03    3.64
   3  10   4   40.25    3.86
  -3 -10  -4   33.35    3.43
   3 -10   4   41.42    4.26
   3 -10   5    3.27    1.29
   3  10   5    6.75    1.85
  -3 -10  -5    5.09    1.45
   3 -10   5    5.04    2.09
   3 -10   6   12.46    2.12
   3 -10   6    8.53    1.59
  -3 -10  -6   10.44    1.81
   3  10   6   12.48    2.06
  -3  10  -7    4.61    0.96
  -3 -10  -7    6.41    1.21
   3  10   7    7.75    1.41
   3 -10   7    7.59    1.14
  -3  11   8    3.36    1.02
  -3 -11   8    3.74    1.26
  -3  11   8    4.05    1.23
  -3 -11   8    3.08    0.74
  -3  11   7   95.55    5.53
  -3 -11   7   85.07    4.57
  -3 -11   7  101.58    4.97
  -3 -11   7  112.59    6.61
  -3  11   7   78.16    5.09
  -3  11   6    0.81    1.27
  -3 -11   6    0.17    0.87
  -3  11   6    1.40    1.15
  -3 -11   6    1.40    1.11
  -3 -11   6   -0.21    1.11
  -3  11   5    9.13    2.58
  -3 -11   5    5.77    1.84
  -3  11   5    8.53    1.95
  -3 -11   5    8.90    2.38
  -3  11   4   13.14    2.42
  -3 -11   4   15.18    2.34
  -3 -11   4   13.49    2.36
  -3  11   3  133.86   24.14
  -3 -11   3  169.57    7.31
  -3 -11   3  163.70    7.44
  -3 -11   3  177.99   23.18
  -3 -11   3  156.56    7.09
  -3 -11   2   20.86    8.00
  -3  11   2   19.45    2.92
  -3  11   2   22.61    9.41
  -3 -11   2   15.71    2.48
  -3 -11   2   17.32    2.43
  -3  11   1  212.71   26.42
  -3  11   1  297.19   10.29
  -3 -11   1  262.68    8.49
  -3 -11   1  281.92   29.08
  -3 -11   1  268.87    9.07
  -3 -11   1  282.27    8.98
  -3 -11   0   23.45    2.59
  -3  11   0   13.39    2.16
   3 -11   0   13.64    6.25
  -3 -11   0   26.87    9.25
  -3 -11   0   20.22    2.41
  -3 -11  -1   45.00    3.71
  -3  11  -1   39.05    3.94
  -3 -11  -1   37.19   10.79
   3 -11   1   38.71   10.53
  -3 -11  -1   45.59    3.87
  -3  11  -1   43.33    4.14
  -3 -11  -2   26.07    3.02
  -3  11  -2   28.64    3.48
   3 -11   2   19.16    8.42
   3  11   2   23.37    2.88
  -3 -11  -2   20.63    8.07
  -3  11  -2   29.75    3.46
   3 -11   3  146.54    7.28
  -3 -11  -3  124.45    6.29
   3 -11   3  117.14    6.38
  -3  11  -3  126.36    7.44
  -3 -11  -3  128.92    6.50
   3  11   3  126.27    6.57
  -3  11  -3  125.25    7.01
   3 -11   4    5.26    2.13
   3 -11   4    2.22    1.03
  -3 -11  -4    2.04    1.37
   3  11   4    2.38    1.53
  -3 -11  -4    2.07    1.04
   3 -11   5    2.83    1.19
  -3 -11  -5    2.50    1.29
   3 -11   5    3.54    1.49
   3  11   5    2.92    1.37
   3 -11   5    5.05    1.71
   3 -11   6   15.16    1.87
   3 -11   6   10.14    1.59
   3  11   6   16.11    2.04
  -3  11  -6    8.83    1.79
  -3 -11  -6   13.80    1.89
  -3 -11  -7   15.29    1.52
   3 -11   7   11.70    1.66
  -3 -12   8   -0.56    0.57
  -3  12   8    1.03    0.57
  -3 -12   7    0.67    0.72
  -3  12   7    0.87    0.88
  -3 -12   7    0.19    0.55
  -3  12   7    1.49    0.99
  -3 -12   7    0.28    1.07
  -3  12   6  148.94    7.27
  -3 -12   6  134.39    6.18
  -3 -12   6  167.65    7.35
  -3 -12   6  154.27    6.40
  -3  12   6  108.39    5.83
  -3  12   5    2.70    1.53
  -3 -12   5    4.17    1.63
  -3 -12   5    4.69    1.64
  -3  12   5    4.80    1.57
  -3  12   4   15.65    3.22
  -3 -12   4   21.88    2.85
  -3 -12   4   21.43    2.80
   3  12  -4   21.07    2.97
  -3  12   3   20.48    3.19
  -3 -12   3   29.52    3.26
  -3 -12   3   28.33    3.32
  -3 -12   3   23.69    2.92
  -3  12   2  263.31   10.21
  -3 -12   2  258.07    9.06
  -3 -12   2  254.38    8.46
  -3 -12   2  236.67    8.69
  -3 -12   1   35.32    3.29
  -3 -12   1   28.64    9.71
  -3  12   1   31.30    3.58
  -3 -12   1   34.75    3.20
  -3 -12   1   33.85    3.31
  -3 -12   0    4.87    1.48
  -3  12   0    0.86    1.00
  -3 -12   0    9.35    5.72
  -3 -12   0    6.18    1.64
   3 -12   0  -17.36    7.41
  -3 -12  -1    3.98    1.64
  -3  12  -1    3.17    1.56
  -3 -12  -1    3.79    1.55
  -3  12  -1    3.52    1.71
  -3 -12  -2  150.10    6.80
  -3  12  -2  145.01    7.71
  -3 -12  -2  144.98    6.81
  -3  12  -2  140.53    7.29
   3 -12   3   -0.42    0.85
  -3 -12  -3    0.12    1.00
  -3  12  -3    1.56    1.36
   3  12   3    0.77    1.19
   3 -12   3    0.73    1.23
  -3  12  -3    2.01    1.45
   3 -12   4    3.53    1.25
  -3 -12  -4    3.73    1.46
   3  12   4    5.39    1.65
   3 -12   4    5.40    1.80
   3 -12   5    3.75    1.15
   3 -12   5    9.19    1.79
   3  12   5    8.46    1.63
  -3 -12  -5    7.66    1.72
   3 -12   6    6.35    1.13
  -3  12  -6    4.18    1.11
  -3 -12  -6   10.40    1.45
   3 -12   7    0.55    0.47
  -3  13   7   26.25    2.43
  -3 -13   7    8.75    1.14
  -3  13   7   16.63    1.78
  -3 -13   7   26.77    2.71
  -3 -13   6    0.51    0.74
  -3  13   6    0.66    1.06
  -3  13   6    0.69    0.68
  -3 -13   6    0.45    0.72
  -3 -13   6    1.37    0.68
  -3 -13   5   22.20    2.76
  -3 -13   5   22.82    2.76
  -3  13   5   23.65    2.94
  -3  13   4    2.64    1.63
  -3 -13   4    3.40    1.55
  -3 -13   4    2.61    1.44
   3  13  -4    2.38    1.14
  -3  13   3   32.07    3.94
  -3 -13   3   38.50    3.53
  -3 -13   3   35.67    3.55
   3  13  -3   31.15    3.28
  -3 -13   3   26.10    3.15
  -3  13   2   16.10    2.66
  -3 -13   2   16.76    2.41
  -3 -13   2   14.16    2.37
  -3 -13   2   11.26    2.29
  -3 -13   2   13.54    2.04
  -3 -13   1   64.40    4.51
  -3  13   1   63.39    4.49
  -3  13   1   58.01    4.60
  -3 -13   1   57.38    4.02
  -3 -13   0   15.63    2.27
  -3  13   0   21.66    2.98
  -3 -13   0   21.20    2.68
  -3  13   0   20.36    2.77
  -3 -13   0   20.09    2.64
  -3 -13  -1   51.69    3.93
  -3  13  -1   50.76    4.43
  -3 -13  -1   56.50    4.23
  -3  13  -1   48.37    4.30
   3 -13   2   35.06    3.31
  -3 -13  -2   37.23    3.50
  -3  13  -2   40.59    4.06
  -3 -13  -2   36.71    3.47
  -3  13  -2   38.68    3.87
   3 -13   3   14.26    2.14
  -3 -13  -3   17.40    2.45
  -3  13  -3    8.90    2.15
  -3  13  -3   13.75    2.40
  -3 -13  -3   15.86    2.32
   3 -13   3   16.41    2.43
   3 -13   4   23.68    2.52
  -3 -13  -4   34.21    3.05
  -3 -13  -4   31.24    2.95
   3 -13   4   26.67    2.99
   3 -13   5    6.90    1.29
  -3 -13  -5    8.64    1.43
  -3 -13  -5    8.26    1.37
  -3 -13  -6    2.97    0.75
  -3  13  -6    1.26    0.60
   3 -13   6    0.52    0.44
  -3 -13  -6    2.41    0.71
  -3 -14   7    2.50    0.85
  -3  14   7    3.79    0.90
  -3  14   6   19.93    2.31
  -3 -14   6   12.82    1.49
  -3 -14   6   22.89    2.53
  -3 -14   6   18.82    1.98
  -3  14   5    5.61    1.81
  -3 -14   5    6.03    1.30
  -3 -14   5    5.42    1.31
  -3  14   4    7.73    1.86
  -3 -14   4    9.64    2.01
   3  14  -4    8.31    1.74
  -3  14   3   16.27    2.66
  -3 -14   3   11.54    2.00
  -3 -14   3   11.98    2.07
   3  14  -3   12.87    2.08
  -3  14   2   29.25    3.34
  -3 -14   2   29.01    2.99
  -3 -14   2   33.46    3.23
  -3 -14   2   25.83    2.71
  -3 -14   1   -0.34    0.91
  -3  14   1   -0.66    0.90
  -3 -14   1    0.67    0.93
  -3 -14   1    0.17    0.79
  -3 -14   0   63.75    4.17
  -3  14   0   48.90    4.17
  -3 -14   0   60.80    4.35
  -3  14   0   53.10    4.44
  -3 -14   0   56.43    3.79
  -3 -14  -1    2.09    1.03
  -3 -14  -1    2.03    1.10
  -3  14  -1    5.26    1.69
  -3 -14  -1    1.71    1.02
  -3  14  -1    4.04    1.41
   3 -14   2    1.78    0.98
  -3 -14  -2    0.25    1.02
   3 -14   2    1.71    1.22
  -3  14  -2    1.20    1.38
  -3 -14  -2    0.66    0.84
  -3  14  -2    1.12    1.03
   3 -14   3   11.89    1.68
  -3 -14  -3   18.32    2.21
  -3  14  -3   14.49    2.42
  -3 -14  -3   14.76    2.06
   3 -14   3   18.58    2.41
  -3  14  -3   15.20    2.23
   3 -14   4   47.74    3.18
  -3 -14  -4   79.27    4.14
  -3 -14  -4   69.20    3.98
   3 -14   4   72.02    4.06
  -3  14  -5    4.28    1.16
   3 -14   5    3.99    0.83
  -3 -14  -5    7.11    1.20
  -3 -14  -5    7.46    1.17
  -3 -15   6    2.66    0.85
  -3  15   6    2.25    0.88
  -3  15   5   45.59    3.37
  -3 -15   5   33.03    2.52
  -3 -15   5   38.34    2.85
  -3 -15   5   43.48    3.33
   3  15  -4    7.51    1.39
  -3  15   4    6.50    1.65
  -3 -15   4    8.45    1.60
  -3 -15   3    0.73    0.85
  -3 -15   3    0.35    1.02
   3  15  -3    0.39    0.86
  -3  15   3    0.24    0.93
  -3  15   2    1.88    1.00
  -3 -15   2    3.07    1.18
  -3 -15   2    3.39    1.29
  -3 -15   1   23.83    2.64
  -3 -15   1   24.62    2.61
  -3  15   1   18.04    2.37
  -3 -15   1   18.91    2.25
  -3  15   1   19.38    2.81
  -3 -15   0    0.56    0.72
  -3  15   0    0.77    1.07
  -3 -15   0    0.58    0.96
  -3  15   0    1.21    1.39
  -3 -15   0   -0.06    0.65
  -3  15  -1    8.29    1.75
  -3  15  -1    9.63    1.92
  -3 -15  -1    8.84    1.71
   3 -15   1   14.40    2.12
  -3 -15  -1    7.45    1.37
  -3  15  -2    1.41    1.02
  -3  15  -2   -0.42    0.95
   3 -15   2    1.70    1.05
  -3 -15  -2   -0.06    0.76
  -3 -15  -2    0.22    0.77
  -3 -15  -2    0.18    0.56
   3 -15   3    7.22    1.20
  -3 -15  -3   13.91    1.79
  -3 -15  -3   13.04    1.73
   3 -15   3   14.03    1.89
  -3 -15  -3    9.48    1.32
   3 -15   4    1.01    0.41
  -3 -15  -4    2.36    0.76
  -3 -15  -4    2.01    0.79
  -3 -15  -5   29.97    1.80
  -3 -15  -5   28.18    1.76
  -3  15  -5   15.30    1.55
  -3  16   5    7.72    1.30
  -3 -16   5    3.22    0.72
  -3 -16   5    6.12    1.06
  -3 -16   5    4.56    0.80
  -3  16   4   12.38    1.79
  -3 -16   4    8.50    1.43
  -3 -16   4   10.07    1.45
  -3 -16   3   39.24    2.81
   3  16  -3   35.00    2.80
  -3  16   3   32.35    2.80
  -3 -16   2    2.49    0.99
  -3 -16   2    1.51    0.88
   3  16  -2    1.67    1.02
  -3  16   2    2.47    1.18
  -3 -16   1   59.18    3.44
  -3 -16   1   62.89    3.80
  -3  16   1   53.06    3.40
  -3  16   1   77.43    4.64
  -3 -16   0   22.26    2.36
  -3  16   0   26.08    2.62
  -3  16   0   14.86    1.96
  -3  16   0   20.58    2.29
  -3 -16   0   14.29    1.74
  -3  16  -1   13.65    1.85
  -3 -16  -1   14.68    1.81
  -3  16  -1   20.79    2.36
   3 -16   1   19.55    2.05
  -3  16  -2    5.60    1.28
  -3  16  -2    7.14    1.42
  -3 -16  -2    8.56    1.38
   3 -16   2    8.58    1.36
   3 -16   3    2.38    0.79
  -3 -16  -3    1.23    0.69
  -3  16  -4    7.04    1.17
  -3 -16  -4   11.02    1.11
  -3  17   4    5.43    0.90
  -3 -17   4    2.94    0.70
  -3  17   4    3.86    0.82
  -3 -17   4    3.70    0.72
  -3 -17   3    1.74    0.67
   3  17  -3    0.75    0.50
  -3  17   3    1.56    0.62
  -3  17   3    1.21    0.75
   3  17  -2    1.24    0.63
  -3  17   2    0.03    0.75
  -3 -17   2    0.09    0.58
  -3 -17   1    9.96    1.45
   3  17  -1    8.28    1.38
  -3  17   1   10.29    1.61
  -3 -17   0    7.93    1.27
  -3  17   0    5.08    0.91
  -3  17   0    7.77    1.42
  -3  17  -1    0.30    0.64
  -3  17  -1    0.70    0.62
  -3 -17  -1    0.34    0.51
  -3  17  -1   -0.32    0.59
   3 -17   1    0.19    0.51
  -3  17  -2    2.06    0.82
  -3 -17  -2    6.78    1.04
  -3  17  -3   11.19    1.32
  -3 -17  -3   20.92    1.49
  -3 -18   2   12.76    1.29
  -3  18   2   19.47    1.64
  -3 -18   1    0.40    0.39
   3  18  -1    1.46    0.69
  -3  18   1    0.29    0.50
  -3 -18   0   -0.01    0.45
   3  18   0    1.02    0.53
  -3  18   0   -0.07    0.48
  -3 -18  -1    1.26    0.47
  -4   0  10   46.46    3.01
  -4   0   9    3.56    1.34
  -4   0   9    2.26    1.39
  -4   0   8   62.45    4.92
  -4   0   7    4.07    1.41
  -4   0   7    4.30    1.46
  -4   0   6  671.11   41.06
  -4   0   6  642.99   14.26
  -4   0   6  643.02   14.24
  -4   0   6  641.65   15.31
  -4   0   6  624.60   13.50
  -4   0   5   -1.54    1.84
  -4   0   4  652.07   37.13
  -4   0   3    0.81    2.38
  -4   0   2 1355.43   47.39
  -4   0   2 1335.02   35.82
  -4   0   1   13.85    4.71
  -4   0   1   10.83    3.89
  -4   0   0 2333.06   58.13
  -4   0   0 2239.98   57.21
  -4   0  -1   11.87    5.23
   4   0   2    4.00    3.22
   4   0   3    0.20    4.01
  -4   0  -4 2498.55   32.62
   4   0   4 2790.41   87.45
   4   0   4 2444.40   28.16
  -4   0  -5   -0.44    0.81
   4   0   5    2.33    1.73
   4   0   5   -5.98    4.59
  -4   0  -5    2.27    1.39
  -4   0  -6   45.21    3.97
   4   0   6   41.92    4.13
   4   0   7    1.64    1.42
  -4   0  -8   41.10    2.77
   4   0   8   60.64    3.92
  -4   1  10    0.65    0.90
  -4  -1  10    1.44    0.85
  -4   1   9    1.61    1.20
  -4   1   9    2.76    1.17
  -4  -1   9    2.33    1.13
  -4   1   8    7.03    1.87
  -4   1   8    8.55    1.90
  -4   1   8    9.00    2.15
  -4  -1   8    6.04    1.68
  -4  -1   7  214.48    8.92
  -4   1   7  203.40    8.99
  -4  -1   7  218.80    9.36
  -4   1   7  219.83    9.22
  -4   1   7  176.78    7.69
  -4  -1   7  221.92    8.74
  -4   1   6   24.58    2.88
  -4  -1   6   22.88    2.69
  -4   1   6   20.60    2.60
  -4  -1   6   23.45    3.11
  -4   1   6   21.35    7.75
  -4  -1   6   20.68    7.06
  -4   1   6   25.34    3.09
  -4  -1   6   22.12    2.76
  -4   1   5   17.02    6.61
  -4  -1   5   20.88    6.78
  -4   1   4  584.26   35.90
  -4  -1   4  574.37   34.07
  -4   1   3  116.85   15.03
  -4  -1   3  117.44   14.54
  -4  -1   3  122.15   10.51
  -4   1   2  319.54   23.35
  -4  -1   2  321.37   23.15
  -4  -1   2  308.80   18.12
  -4   1   2  322.52   17.17
   4  -1  -2  340.27   17.50
  -4   1   1  464.33   26.37
  -4  -1   1  402.73   25.60
  -4  -1   1  415.35   22.82
  -4   1   1  424.18   22.44
  -4   1   0  401.91   23.86
  -4  -1   0  399.42   24.18
  -4   1   0  378.54   23.49
   4  -1   1  187.89   18.10
  -4  -1  -1  222.72   19.71
  -4  -1  -2  102.01   14.64
   4  -1   2   99.25   14.21
   4   1   3 1067.51   50.78
   4  -1   3 1089.47   50.86
  -4   1  -4   20.67    3.19
   4   1   4   16.58    6.39
   4  -1   4   21.03    6.44
   4   1   4   19.76    2.74
  -4  -1  -4   20.05    3.38
  -4  -1  -5   52.61    4.25
   4   1   5   47.96    4.37
   4  -1   5   48.06   11.93
  -4  -1  -5   48.96    5.17
   4  -1   5   52.24    4.67
   4   1   5   54.43   12.67
  -4   1  -5   50.24    5.13
  -4   1  -6    2.98    1.13
   4   1   6    2.96    1.48
   4  -1   6    3.95    1.81
   4   1   7   23.53    3.11
   4  -1   7   26.89    3.50
   4  -1   8   -0.03    0.84
   4   1   8    1.09    0.97
  -4  -2  10   14.79    1.73
  -4   2  10   13.05    1.75
  -4  -2  10   11.76    1.75
  -4   2   9    3.31    1.40
  -4  -2   9    1.28    1.28
  -4   2   9    3.69    1.58
  -4   2   9    1.36    0.78
  -4   2   8   66.28    5.28
  -4   2   8   62.38    4.97
  -4  -2   8   54.68    4.68
  -4   2   8   49.25    4.27
  -4  -2   7   62.78    4.90
  -4  -2   7   55.68    5.00
  -4   2   7   66.46    5.30
  -4   2   7   65.08    5.42
  -4   2   7   48.18    4.08
  -4  -2   7   58.48    4.59
  -4  -2   6   25.76    2.93
  -4  -2   6   27.94    3.38
  -4   2   6   41.14   10.81
  -4   2   6   32.64    3.57
  -4   2   6   30.87    3.77
  -4  -2   6   25.30    3.11
  -4   2   5    9.55    5.55
  -4  -2   5   12.73    5.12
  -4  -2   4   50.05   10.32
  -4   2   4   54.83   11.09
  -4   2   3    9.11    4.47
  -4  -2   3    7.49    4.47
  -4  -2   3    6.84    3.07
  -4   2   2  526.75   30.73
  -4  -2   2  526.66   30.13
  -4  -2   2  496.46   24.26
   4  -2  -2  517.51   21.23
  -4   2   1  302.20   21.94
  -4  -2   1  290.70   22.41
  -4  -2   1  287.26   19.49
   4  -2  -1  302.48   18.70
  -4   2   0   47.50    8.53
  -4  -2   0   61.07    9.61
   4  -2   0   58.61    9.25
  -4   2  -1   57.31    8.81
  -4  -2  -1   59.16   10.34
   4  -2   1   47.54    9.13
  -4  -2  -2  276.93   24.17
   4  -2   2  261.53   23.18
  -4  -2  -3   46.91   11.17
   4  -2   3   31.68    8.75
  -4   2  -4  254.09   10.25
   4  -2   4  245.55    8.23
   4   2   4  219.41    8.36
  -4  -2  -4  208.96   10.03
   4   2   4  223.24   25.53
   4  -2   4  239.02   26.08
   4   2   5    0.47    1.26
  -4   2  -5    3.27    1.61
   4   2   5   -3.45    3.80
   4  -2   5    2.29    1.69
   4  -2   5   -9.95    5.90
  -4   2  -6   42.76    3.81
   4  -2   6   41.93    4.45
   4   2   6   43.83    4.25
  -4   2  -7    0.28    0.73
   4   2   7    2.30    1.34
   4  -2   7    2.68    1.53
   4   2   8    7.04    1.45
   4  -2   8    7.66    1.53
  -4   3  10    1.95    0.85
  -4  -3  10    4.27    1.14
  -4  -3  10    2.09    1.04
  -4   3   9   28.46    2.69
  -4   3   9   25.18    2.95
  -4   3   9   21.77    2.80
  -4  -3   9   24.19    3.03
  -4   3   8   37.41    3.43
  -4  -3   8   44.77    4.28
  -4   3   8   36.22    3.99
  -4   3   8   42.33    4.31
  -4   3   8   28.44    3.13
  -4  -3   8   43.39    4.09
  -4  -3   7   48.81    4.25
  -4  -3   7   42.36    4.44
  -4  -3   7   52.41    4.42
  -4   3   7   46.78    4.52
  -4   3   7   41.47    4.44
  -4   3   7   35.65    3.40
  -4   3   6  106.85   18.20
  -4  -3   6  123.83    6.50
  -4   3   6  119.21    6.47
  -4  -3   6  118.77    6.94
  -4   3   6  112.61    7.07
  -4   3   6  117.99    6.78
  -4   3   5   21.96    8.31
  -4  -3   5   18.86    7.01
  -4  -3   4   76.40   12.75
  -4   3   4   84.74   14.57
  -4  -3   3  920.32   42.45
  -4  -3   3  922.04   34.12
  -4   3   3  919.78   44.52
  -4   3   2  155.00   17.23
   4  -3  -2  143.06   11.52
  -4  -3   2  146.34   14.07
  -4   3   1  136.33   15.38
   4  -3  -1  133.72   12.83
  -4  -3   1  146.63   14.71
  -4   3   0  349.64   22.69
  -4  -3   0  349.86   24.05
   4  -3   0  341.34   22.67
  -4   3  -1 1127.49   38.11
  -4  -3  -1 1054.29   44.49
   4  -3   1 1074.64   44.02
  -4  -3  -2   50.64   10.76
   4  -3   2   40.42    9.55
   4  -3   3   36.69   10.32
  -4  -3  -3   24.48    7.84
  -4  -3  -4    2.26    1.35
   4  -3   4    2.49    1.07
   4  -3   4    4.38    1.14
   4   3   4    4.83    1.58
   4   3   4    1.74    3.85
   4  -3   4    3.05    3.50
  -4   3  -4    3.71    1.60
  -4   3  -5  303.02   11.94
   4  -3   5  280.72   10.80
   4  -3   5  313.37   32.60
   4   3   5  266.36    9.70
   4   3   5  317.32   31.78
  -4   3  -6   -0.53    0.69
   4   3   6    0.16    1.07
   4  -3   6    0.32    1.45
  -4   3  -7   14.15    2.02
  -4  -3  -7   11.15    1.69
   4  -3   7   15.61    2.52
   4   3   7   15.60    2.24
   4  -3   7   12.47    1.97
   4  -3   8    1.09    0.84
   4   3   8    2.26    1.03
  -4  -3  -8    0.75    0.53
  -4   4  10    1.14    0.84
  -4  -4  10    3.27    0.92
  -4  -4  10    0.55    0.71
  -4   4  10    1.51    0.69
  -4   4   9    4.80    1.55
  -4   4   9    6.19    1.70
  -4  -4   9    5.38    1.61
  -4   4   9    6.15    1.45
  -4   4   8  171.39    6.96
  -4  -4   8  172.55    8.27
  -4   4   8  176.28    8.61
  -4   4   8  177.93    8.90
  -4  -4   8  169.52    8.01
  -4   4   7  106.15    5.41
  -4  -4   7  121.75    6.82
  -4   4   7  106.61    6.90
  -4  -4   7  109.55    7.22
  -4   4   7  110.91    7.21
  -4  -4   7  119.41    6.79
  -4  -4   6  129.21    6.68
  -4   4   6  124.67    6.26
  -4   4   6  134.19   21.08
  -4  -4   6  139.72    7.06
  -4  -4   6  129.20    7.59
  -4   4   6  113.47    6.85
  -4   4   6  123.40    7.49
  -4  -4   5   66.80    4.40
  -4   4   5   56.38   12.72
  -4  -4   5   64.86    5.08
  -4   4   5   67.23    5.05
  -4   4   5   67.51    5.22
  -4  -4   4  304.83   21.52
  -4   4   4  309.45   28.98
  -4   4   3  255.12   24.68
  -4  -4   3  230.19   18.76
   4  -4  -2   78.04    9.06
  -4   4   2   81.45   13.06
  -4  -4   2   88.15   11.61
   4  -4  -1    3.56    2.38
  -4   4   1    2.88    2.78
  -4  -4   1    3.36    2.35
  -4   4   0  580.36   29.92
   4  -4   0  617.06   31.75
  -4  -4   0  558.93   31.51
  -4   4  -1   16.85    5.24
  -4  -4  -1    8.85    4.45
   4  -4   1    7.58    4.68
  -4  -4  -2   46.29   10.51
   4  -4   2   59.84   11.66
  -4  -4  -3   23.84    3.51
   4  -4   3   32.03    8.60
  -4  -4  -3   23.84    8.01
  -4   4  -4   66.49    5.39
   4  -4   4   70.33   15.09
   4  -4   4   65.78    4.42
   4  -4   4   49.56    4.04
   4  -4   5   78.27    5.96
   4  -4   5   74.84    4.90
   4   4   5   67.10    4.96
  -4   4  -6   49.53    4.00
   4  -4   6   53.64    4.95
  -4  -4  -6   46.06    3.91
   4   4   6   48.94    4.11
  -4   4  -7   23.51    2.51
   4   4   7   21.25    2.44
   4  -4   7   26.47    3.16
   4  -4   7   22.37    2.60
   4  -4   8    7.66    1.44
  -4  -4  -8    4.49    0.87
   4   4   8    6.65    1.16
  -4   5  10   -0.12    0.77
  -4  -5  10    0.17    0.62
  -4   5   9   32.14    2.91
  -4  -5   9   28.23    3.11
  -4   5   9   34.21    3.40
  -4   5   9   27.95    3.19
  -4   5   8    8.54    2.06
  -4  -5   8    6.69    2.10
  -4   5   8    5.28    1.99
  -4   5   8    7.16    2.04
  -4  -5   8    6.06    1.92
  -4   5   7  115.95    5.69
  -4  -5   7  122.91    6.87
  -4  -5   7  122.48    7.24
  -4  -5   7  112.42    7.29
  -4   5   7  114.63    7.18
  -4   5   7  120.00    7.63
  -4   5   6   38.96    3.73
  -4   5   6   38.43    3.15
  -4  -5   6   43.27    4.10
  -4   5   6   42.70   12.60
  -4  -5   6   41.29    4.56
  -4   5   6   40.47    4.49
  -4   5   6   41.34    4.32
  -4  -5   6   43.55    3.96
  -4   5   5  428.47   38.12
  -4   5   5  418.88   11.83
  -4  -5   5  435.12   11.77
  -4   5   5  453.48   12.69
  -4  -5   5  436.51   13.64
  -4   5   5  405.26   12.66
  -4   5   5  422.84   13.36
  -4   5   4   10.99    5.99
  -4  -5   4   10.62    4.46
  -4   5   3  157.12   20.42
  -4  -5   3  169.48   17.42
  -4   5   2  174.19   19.98
  -4  -5   2  159.58   17.25
   4  -5  -1  415.01   24.73
  -4   5   1  417.88   28.97
  -4  -5   1  416.48   28.08
  -4   5   0   12.62    5.27
  -4  -5   0   16.36    5.85
   4  -5   0   15.63    5.57
   4  -5   1   41.88    9.64
  -4  -5  -1   52.81   10.96
  -4  -5  -2   21.67    7.65
   4  -5   2   15.18    6.48
  -4   5  -3  108.10    6.50
   4  -5   3  117.05   18.88
  -4  -5  -3  118.32    6.21
  -4  -5  -3  103.72   17.31
   4  -5   3  102.53    5.61
  -4  -5  -3  108.79    7.32
   4  -5   4   38.55    3.45
  -4  -5  -4   33.74    3.58
  -4   5  -4   38.51    3.84
  -4  -5  -4   32.09   10.23
   4  -5   4   29.52    3.41
   4  -5   4   39.57   11.66
   4  -5   5    5.16    1.40
  -4  -5  -5    2.65    1.22
   4   5   6   14.26    2.34
  -4  -5  -6   15.92    2.24
   4  -5   6   18.45    3.20
   4   5   7   24.46    2.52
   4  -5   7   29.48    3.45
  -4  -5  -7   26.01    2.56
   4  -5   7   24.37    2.86
   4  -5   8    1.02    0.94
  -4  -5  -8   -0.10    0.39
  -4   6  10   14.30    1.60
  -4  -6  10   11.49    1.50
  -4   6   9    0.86    1.19
  -4  -6   9    0.71    1.12
  -4   6   9    0.29    0.87
  -4   6   8    0.44    1.34
  -4   6   8    0.39    1.18
  -4  -6   8   -0.71    1.23
  -4  -6   8    0.71    1.32
  -4   6   8    1.85    1.61
  -4  -6   7    2.82    1.68
  -4   6   7    4.90    1.72
  -4   6   7    6.37    1.88
  -4  -6   7    4.21    1.35
  -4  -6   7    6.67    2.15
  -4   6   7    3.10    1.81
  -4   6   7    4.31    1.91
  -4   6   6  473.70   13.62
  -4   6   6  480.90   11.26
  -4  -6   6  473.63   13.63
  -4  -6   6  445.09   11.74
  -4  -6   6  485.78   15.54
  -4   6   6  529.37   46.78
  -4   6   6  499.37   14.83
  -4   6   6  505.87   15.24
  -4  -6   6  522.63   13.97
  -4   6   5   18.80    2.61
  -4  -6   5   25.09    3.10
  -4   6   5   23.76    3.11
  -4   6   5   32.94    2.86
  -4  -6   5   21.96    2.75
  -4   6   5   27.91   10.36
  -4   6   5   27.66    3.73
  -4   6   5   30.15    3.69
  -4   6   4   67.13   15.39
  -4   6   4   52.91    4.57
  -4  -6   4   79.98   12.77
  -4  -6   4   78.75    5.07
  -4   6   4   60.69    5.15
  -4   6   3  114.74   18.73
  -4  -6   3  126.19   16.16
  -4   6   2  727.16   43.36
  -4  -6   2  744.11   39.16
   4  -6  -1   20.62    5.84
  -4   6   1   13.59    5.90
  -4  -6   1   25.75    8.79
  -4   6   0   66.10   11.16
   4  -6   0   68.48   11.75
  -4  -6   0   69.97   12.63
   4  -6   1   53.88   11.46
  -4  -6  -1   50.16   11.17
  -4  -6  -2   20.30    2.55
  -4  -6  -2   16.94    7.61
   4  -6   2   19.32    7.68
   4  -6   3   -2.76    3.55
  -4   6  -3    1.54    1.00
  -4  -6  -3    1.07    0.83
  -4  -6  -3   -0.60    5.08
   4  -6   3    1.36    1.53
   4  -6   4  136.82    7.15
   4  -6   4  165.66   23.99
   4  -6   4  148.46    6.86
  -4  -6  -4  140.66    7.17
  -4  -6  -4  139.37   21.74
   4  -6   5    0.52    0.84
  -4  -6  -5    1.14    0.98
   4  -6   5    0.54    1.33
   4  -6   6    2.45    1.65
  -4  -6  -6    2.16    1.16
   4  -6   7    2.48    1.42
   4  -6   7    0.83    0.92
  -4  -6  -7    1.85    0.87
   4   6   8   20.55    1.72
   4  -6   8   22.36    2.01
  -4  -7  10    4.34    0.83
  -4   7   9   17.29    2.23
  -4  -7   9   15.35    2.12
  -4   7   8    0.42    1.18
  -4  -7   8    0.95    1.35
  -4   7   8    0.33    1.32
  -4  -7   8    0.58    1.08
  -4   7   7   54.46    4.69
  -4   7   7   60.13    4.29
  -4  -7   7   56.00    4.53
  -4   7   7   62.75    5.36
  -4  -7   7   50.45    5.20
  -4   7   7   58.38    5.33
  -4  -7   7   50.40    4.83
  -4   7   6    6.71    1.67
  -4  -7   6    1.18    0.82
  -4  -7   6    3.39    1.39
  -4  -7   6    2.51    1.35
  -4   7   6    3.20    1.45
  -4  -7   6    2.51    1.62
  -4   7   6    3.60    1.70
  -4   7   6    5.49    2.31
  -4   7   5  413.43   42.07
  -4   7   5  433.09   10.17
  -4  -7   5  375.95   10.83
  -4   7   5  387.71   12.52
  -4  -7   5  410.88   12.77
  -4   7   5  421.70   13.52
  -4   7   5  426.45   13.66
  -4   7   4  147.44   23.83
  -4   7   4  123.88    7.07
  -4   7   4  129.66    7.02
  -4  -7   4  119.00   16.86
  -4  -7   4  132.03    6.96
  -4   7   4  137.85    7.45
  -4  -7   3   96.35    5.55
  -4   7   3   86.12   16.98
  -4  -7   3   90.81   14.85
  -4   7   3   73.48    5.72
  -4  -7   2  166.07   20.00
  -4   7   2  184.17   22.96
  -4   7   1  347.78   29.37
   4  -7  -1  366.67   26.03
  -4  -7   1  429.22   31.77
   4  -7   0   35.36    8.89
  -4   7   0   25.56    7.47
  -4  -7   0   40.56   10.53
   4  -7   1   26.42    8.53
  -4  -7  -1   27.49    8.98
  -4  -7  -2   50.96   12.49
  -4   7  -2   42.43    4.49
   4  -7   2   46.16   12.64
  -4   7  -2   32.85    3.20
  -4  -7  -2   59.71    4.49
  -4  -7  -2   59.56    4.47
  -4   7  -2   43.42    3.82
  -4  -7  -3   64.91    4.79
   4  -7   3   76.37   16.08
  -4  -7  -3   77.18    5.20
  -4  -7  -3   52.06   13.56
  -4   7  -3   78.62    5.26
   4  -7   3   60.91    4.96
   4  -7   4   17.60    2.42
  -4  -7  -4   15.44    2.56
  -4  -7  -4   14.95    2.46
   4  -7   4   11.52    2.70
  -4   7  -5    6.31    1.83
   4  -7   5    5.55    1.50
  -4  -7  -5    7.36    1.72
  -4  -7  -5    6.67    1.68
   4  -7   5    5.14    1.83
   4  -7   6    1.41    1.38
  -4  -7  -6    2.59    1.11
   4  -7   7   10.01    1.87
   4   7   7   14.43    1.79
   4  -7   7   18.13    2.39
  -4  -7  -7   10.27    1.45
  -4  -7  -8    0.13    0.43
   4   7   8   -0.22    0.53
  -4   8   9   20.55    2.30
  -4  -8   9   12.99    1.78
  -4  -8   8  103.42    6.51
  -4   8   8  109.01    6.26
  -4  -8   8  100.46    5.76
  -4  -8   7    5.82    1.90
  -4   8   7   12.22    2.24
  -4  -8   7    8.91    1.88
  -4  -8   7   10.67    2.77
  -4   8   7    8.75    2.25
  -4   8   7    9.39    2.37
  -4   8   6   14.95    3.00
  -4   8   6   16.95    2.42
  -4  -8   6    9.38    2.13
  -4  -8   6   11.16    2.20
  -4  -8   6   11.91    2.80
  -4   8   6   13.91    2.81
  -4  -8   6   11.27    2.48
  -4   8   5    6.22    1.92
  -4  -8   5    8.04    1.85
  -4   8   5   13.82    8.40
  -4   8   5    7.26    2.00
  -4  -8   5    9.07    2.16
  -4   8   4  473.11   44.05
  -4   8   4  427.58   13.53
  -4  -8   4  432.01   11.68
  -4  -8   4  409.86   33.05
  -4  -8   4  434.82   13.20
  -4   8   4  453.69   13.62
  -4   8   3   59.44   15.42
  -4   8   3   63.25    5.37
  -4  -8   3   67.43   13.58
  -4  -8   3   50.38    4.84
  -4   8   3   85.87    5.65
  -4  -8   3   64.68    4.65
  -4   8   2   75.09   16.14
  -4  -8   2   74.99   14.31
  -4   8   2   74.92    5.20
  -4  -8   2   67.19    4.56
   4  -8  -1    1.95    2.94
  -4   8   1    4.21    4.78
  -4  -8   1    5.91    3.65
   4  -8   0   99.66   15.49
  -4  -8   0  115.02    6.20
  -4  -8   0  110.48   17.66
  -4  -8   0  120.93    5.89
   4  -8   1    4.14    4.27
  -4  -8  -1    1.65    1.05
  -4  -8  -1    1.72    1.39
   4   8   1    0.78    1.03
  -4  -8  -1    2.50    1.08
  -4  -8  -1    5.66    4.49
  -4   8  -1    3.21    1.37
   4  -8   2   10.90    6.09
  -4   8  -2    3.77    1.66
  -4   8  -2    1.58    1.24
  -4  -8  -2    4.27    1.52
  -4  -8  -2    1.80    3.00
   4   8   2    4.14    1.48
  -4  -8  -2    2.14    0.96
  -4   8  -2    4.47    1.53
   4  -8   3   14.12    5.19
  -4  -8  -3   -2.57    3.41
  -4  -8  -3    7.83    1.77
  -4  -8  -3    6.20    1.80
  -4   8  -3    9.33    2.09
   4  -8   3    7.46    2.19
   4  -8   4    1.96    0.83
  -4  -8  -4    3.22    1.43
  -4  -8  -4    1.86    1.44
   4  -8   4    2.68    1.90
   4  -8   5   20.81    2.55
  -4  -8  -5   23.48    2.84
   4  -8   5   23.71    3.31
  -4   8  -5   18.94    2.89
   4  -8   6   16.99    2.18
   4   8   6   27.08    2.76
   4  -8   6   22.91    3.13
  -4  -8  -6   20.32    2.38
   4   8   7    0.50    0.74
   4  -8   7    0.93    0.83
   4  -8   7    1.22    0.91
  -4  -8  -7    0.34    0.46
  -4   9   9   13.30    1.74
  -4  -9   9   11.06    1.49
  -4   9   8    1.42    1.27
  -4   9   8   -0.37    0.75
  -4  -9   8    0.85    1.11
  -4  -9   8   -0.07    0.80
  -4   9   7   78.18    5.42
  -4  -9   7  100.28    5.28
  -4  -9   7   94.89    6.67
  -4   9   7   90.22    6.00
  -4  -9   7   84.02    5.94
  -4   9   6    0.41    1.34
  -4  -9   6    1.55    0.95
  -4  -9   6    0.21    1.05
  -4  -9   6    2.03    1.80
  -4   9   6    2.19    1.54
  -4  -9   6    1.56    1.08
  -4   9   5   20.94    3.36
  -4  -9   5   18.50    2.74
  -4   9   5   15.47    2.67
  -4  -9   5   15.58    3.02
  -4   9   4   30.90    3.79
  -4  -9   4   32.41    3.37
  -4  -9   4   35.56    4.04
  -4   9   4   34.17   11.59
  -4   9   4   34.97    3.92
  -4  -9   4   33.90    9.30
  -4   9   3  299.21   34.61
  -4   9   3  317.01   11.81
  -4  -9   3  353.49    9.96
  -4  -9   3  293.56   29.29
  -4  -9   3  366.71   11.74
  -4   9   3  354.30   11.25
  -4  -9   3  359.56   10.70
  -4   9   2   24.01    3.46
  -4  -9   2   20.66    3.35
  -4   9   2   23.77    9.24
  -4  -9   2   23.21    8.38
  -4  -9   2   19.12    2.58
  -4   9   1    1.73    1.21
  -4  -9   1    5.93    1.35
  -4   9   1    6.22    4.43
  -4  -9   1    4.01    2.18
  -4  -9   0    0.67    0.78
   4  -9   0    0.72    2.41
  -4  -9   0    0.19    1.08
  -4  -9   0    1.01    0.97
  -4  -9   0   -2.02    3.63
  -4  -9   0    1.50    0.87
  -4   9   0    0.07    1.05
   4  -9   1  413.62   36.04
  -4  -9  -1  469.55   11.28
  -4   9  -1  429.93   11.94
  -4  -9  -1  497.14   13.36
  -4  -9  -1  450.61   37.75
   4   9   1  467.84   11.34
  -4  -9  -1  479.86   12.53
  -4   9  -1  469.76   12.81
  -4   9  -2    0.51    1.11
   4  -9   2   -5.53    4.60
  -4  -9  -2    1.87    1.19
  -4   9  -2    0.13    1.19
  -4  -9  -2    0.93    1.01
   4   9   2    0.15    1.00
  -4  -9  -2   -0.11    0.90
  -4  -9  -2  -10.10    6.08
  -4   9  -2    2.01    1.36
  -4   9  -3    7.19    2.03
  -4  -9  -3    6.47    1.67
   4   9   3    7.29    1.89
  -4  -9  -3    8.22    2.02
   4  -9   3    8.44    2.17
   4  -9   4    5.11    1.40
  -4  -9  -4    3.71    1.23
   4   9   4    4.93    1.54
  -4  -9  -4    4.82    1.63
   4  -9   4    8.53    2.16
   4  -9   5   50.85    3.84
  -4   9  -5   45.10    4.56
   4   9   5   72.01    4.71
  -4  -9  -5   62.24    4.32
   4  -9   5   68.72    5.06
   4   9   6    0.80    0.99
   4  -9   6    1.33    1.22
  -4  -9  -6    1.59    0.89
  -4  -9  -7    4.28    0.98
   4   9   7    4.73    1.00
   4  -9   7    7.58    1.23
   4  -9   7    3.53    1.09
  -4  10   9   11.42    1.39
  -4  10   8    6.79    1.32
  -4  10   8    8.49    1.63
  -4 -10   8   10.01    1.89
  -4 -10   8    7.21    1.40
  -4  10   7    2.02    1.14
  -4  10   7    4.20    1.58
  -4 -10   7    4.83    1.15
  -4 -10   7    3.76    1.73
  -4 -10   7    2.92    1.34
  -4  10   6   29.73    3.74
  -4 -10   6   39.96    3.58
  -4 -10   6   34.44    3.35
  -4 -10   6   37.14    4.41
  -4  10   6   28.82    3.71
  -4 -10   6   37.91    4.03
  -4  10   5    1.74    1.49
  -4 -10   5    1.23    1.43
  -4 -10   5    2.05    1.75
  -4  10   5    1.18    1.23
  -4  10   4  164.23    8.71
  -4 -10   4  144.28    6.67
  -4 -10   4  157.85    7.27
  -4 -10   4  166.15    7.85
  -4  10   4  147.39    7.67
  -4  10   3    4.47    1.91
  -4 -10   3    7.06    1.59
  -4 -10   3    6.18    1.75
  -4  10   3   -0.85    2.98
  -4 -10   3    5.51    1.87
  -4 -10   3   11.08    6.04
  -4  10   3    5.26    1.81
  -4 -10   2   77.34    5.07
  -4  10   2   69.71    5.45
  -4 -10   2   70.20   14.87
  -4 -10   2   81.79    5.71
  -4  10   2   52.17   14.59
  -4 -10   1    2.71    1.20
  -4  10   1    1.95    1.28
  -4 -10   1    3.55    1.09
  -4 -10   1   -1.45    2.79
  -4 -10   1    1.90    1.10
  -4 -10   0  100.93    5.20
   4 -10   0   46.51   11.69
  -4 -10   0   82.68   16.17
  -4 -10   0  101.59    5.35
  -4  10   0   98.29    5.86
  -4  10  -1    9.45    2.31
  -4 -10  -1    9.86    1.84
   4 -10   1   -0.24    1.86
  -4  10  -1    9.18    1.85
   4  10   1    6.47    1.69
  -4 -10  -1    6.23    1.73
  -4 -10  -1    3.53    4.12
  -4 -10  -1    7.96    1.67
  -4  10  -1   10.95    2.15
  -4 -10  -2   53.63    4.11
  -4  10  -2   47.41    4.36
  -4 -10  -2   53.01    4.58
   4  10   2   48.82    4.06
  -4 -10  -2   52.52    4.48
  -4  10  -2   53.75    4.65
   4 -10   3    3.56    1.71
  -4 -10  -3    2.79    1.35
  -4  10  -3    0.28    1.34
  -4 -10  -3    2.10    0.95
   4  10   3    1.52    1.23
  -4 -10  -3   -0.17    0.93
   4 -10   4   25.77    2.81
  -4 -10  -4   26.93    3.02
   4  10   4   26.60    3.06
  -4 -10  -4   27.06    3.05
   4 -10   4   31.67    3.59
  -4 -10  -5   -0.03    0.70
   4 -10   5    0.25    1.01
   4 -10   5   -0.53    0.68
  -4 -10  -5   -1.14    1.16
   4  10   5   -1.04    1.17
  -4  10  -5    0.67    0.99
   4 -10   5   -0.03    1.18
  -4 -10  -6   18.22    1.94
   4  10   6   17.27    1.99
   4 -10   6   21.46    2.32
  -4 -10  -7    2.63    0.62
   4  10   7    1.65    0.63
   4 -10   7    1.15    0.66
  -4  11   8    4.49    0.90
  -4 -11   8    5.65    1.31
  -4  11   8    4.62    1.09
  -4 -11   8    5.54    1.01
  -4  11   7   20.99    2.67
  -4 -11   7   21.45    3.00
  -4  11   7   20.51    2.49
  -4 -11   7   20.00    2.33
  -4  11   6   10.16    2.12
  -4 -11   6   10.76    1.75
  -4 -11   6   10.69    1.96
  -4 -11   6   10.69    2.43
  -4  11   6    8.82    1.98
  -4 -11   6   11.11    2.11
  -4 -11   5   13.61    2.63
  -4  11   5   13.27    2.71
  -4 -11   5   14.23    2.38
  -4  11   5   10.65    2.20
  -4  11   4   28.45    3.87
  -4 -11   4   25.83    2.82
  -4 -11   4   24.65    3.02
  -4 -11   4   26.59    3.26
  -4  11   4   23.23    2.96
  -4  11   3  113.38    7.25
  -4 -11   3  106.20    5.60
  -4 -11   3  111.17    6.17
  -4 -11   3  112.03    6.55
  -4 -11   3  108.48    5.92
  -4  11   2   72.45    5.53
  -4 -11   2   60.08    4.89
  -4 -11   2   65.30    4.63
  -4  11   1   61.64    5.06
  -4 -11   1   67.39    4.28
  -4 -11   1   65.37   14.05
  -4 -11   1   70.16    4.57
  -4 -11   1   67.50    4.68
  -4 -11   0    4.16    3.91
  -4 -11   0    3.10    1.19
  -4 -11   0    0.58    0.82
  -4  11   0    2.28    1.50
  -4  11  -1   29.65    3.62
  -4 -11  -1   26.51    2.88
  -4  11  -1   26.90    3.15
  -4 -11  -1   23.34    2.70
  -4  11  -1   26.84    3.29
  -4  11  -2    3.19    1.49
  -4 -11  -2    3.85    1.36
  -4  11  -2    3.38    1.57
   4  11   2    2.77    1.35
  -4 -11  -2    3.22    1.39
  -4 -11  -3   85.66    5.15
   4  11   3   89.43    5.33
  -4 -11  -3   84.79    5.21
  -4  11  -3   81.08    5.64
   4 -11   3   85.62    5.66
   4 -11   4    4.74    1.21
  -4 -11  -4    5.72    1.40
   4  11   4    8.62    1.89
  -4 -11  -4    5.22    1.45
   4 -11   4    7.74    1.96
   4 -11   5    2.59    0.79
  -4 -11  -5    1.63    0.91
  -4  11  -5    0.71    0.88
   4 -11   5    3.32    1.30
   4  11   5    2.20    1.12
  -4 -11  -6    4.04    0.88
   4 -11   6    5.73    1.04
   4  11   6    5.70    1.15
  -4 -11  -6    4.85    0.88
  -4 -12   8    0.85    0.65
  -4  12   8   -0.34    0.48
  -4  12   7    2.41    1.01
  -4  12   7    0.43    0.67
  -4 -12   7    2.25    1.12
  -4 -12   7    0.52    0.53
  -4  12   6  140.41    6.77
  -4 -12   6  136.49    7.04
  -4  12   6   94.35    5.18
  -4 -12   6  142.14    6.58
  -4 -12   6  127.24    5.96
  -4  12   5   12.99    2.53
  -4 -12   5   17.02    2.48
  -4 -12   5   17.94    2.98
  -4 -12   5   17.99    2.76
  -4  12   5    9.94    1.95
  -4  12   4   16.47    2.88
  -4 -12   4   13.76    2.01
  -4 -12   4   13.04    2.27
  -4  12   3   24.71    3.53
  -4 -12   3   27.82    2.91
  -4 -12   3   27.84    3.26
  -4 -12   3   29.08    3.26
  -4 -12   2   66.52    4.53
  -4  12   2   62.62    5.13
  -4 -12   2   68.60    4.53
  -4 -12   2   68.35    5.20
  -4  12   1   86.99    5.68
  -4  12   1   78.35    5.75
  -4  12   1   79.39    5.42
  -4 -12   1   80.66    4.98
  -4 -12   0  154.93    6.56
  -4 -12   0  152.94    6.71
  -4  12   0  164.27    7.71
  -4 -12   0  150.96    6.90
  -4 -12  -1    2.00    1.07
  -4  12  -1    4.09    1.44
  -4 -12  -1    1.32    0.98
  -4  12  -1    3.97    1.75
  -4 -12  -2    2.29    1.04
  -4 -12  -2    2.00    1.22
  -4  12  -2    3.91    1.51
  -4  12  -2    3.65    1.55
  -4 -12  -3   -1.24    1.07
  -4 -12  -3   -0.91    0.90
  -4  12  -3    0.09    1.12
   4 -12   3    0.57    1.31
   4 -12   4   79.63    4.13
  -4 -12  -4  126.96    5.58
   4  12   4  136.43    5.93
  -4 -12  -4  109.94    5.10
   4 -12   4  135.34    6.15
   4 -12   5    1.02    0.94
  -4  12  -5    1.90    1.00
   4 -12   5    0.68    0.55
  -4 -12  -5    1.48    0.81
  -4 -12  -5    0.63    0.55
  -4 -12  -6    0.22    0.41
  -4  13   7    4.73    1.07
  -4 -13   7    4.35    1.11
  -4  13   7    3.09    0.80
  -4 -13   7    4.18    0.78
  -4 -13   6    0.47    0.73
  -4  13   6    0.80    0.64
  -4  13   6    0.03    0.86
  -4 -13   6    0.00    0.92
  -4 -13   6    0.35    0.53
  -4 -13   5   27.12    2.99
  -4  13   5   26.84    3.11
  -4 -13   5   22.84    2.33
  -4 -13   5   25.82    2.80
  -4 -13   5   25.67    3.10
  -4  13   4  100.51    6.29
  -4 -13   4   88.72    4.71
  -4 -13   4  102.61    5.51
  -4  13   3    2.78    1.77
  -4 -13   3    5.86    1.35
  -4 -13   3    3.61    1.35
  -4 -13   3    3.38    1.37
  -4  13   2  119.37    6.81
  -4 -13   2  122.25    5.81
  -4 -13   2  124.85    6.34
  -4 -13   2  122.84    6.21
  -4 -13   2  113.57    5.66
  -4 -13   1  199.79    7.47
  -4 -13   1  197.53    8.02
  -4  13   1  173.32    8.29
  -4  13   1  226.05    8.92
  -4  13   0  347.81   11.11
  -4 -13   0  351.92    9.73
  -4 -13   0  326.13    9.61
  -4 -13   0  340.49    9.77
  -4 -13  -1    1.05    0.88
  -4  13  -1    0.32    0.91
  -4 -13  -1    1.43    0.86
  -4  13  -1    2.42    1.51
  -4 -13  -2   61.60    4.10
  -4  13  -2   45.51    3.96
  -4 -13  -2   56.89    3.93
  -4  13  -2   58.62    4.64
   4 -13   2   66.58    4.65
  -4 -13  -3   89.62    4.71
  -4 -13  -3   79.54    4.33
   4 -13   3  102.46    5.40
  -4  13  -4    2.40    1.20
  -4 -13  -4    5.58    1.28
  -4 -13  -4    3.14    0.97
   4 -13   4    4.82    1.48
  -4 -13  -5   18.96    1.76
  -4 -13  -5   16.13    1.52
  -4  13  -5   10.43    1.51
  -4 -14   7    6.33    1.05
  -4  14   6   -1.35    0.87
  -4 -14   6   -0.12    0.80
  -4 -14   6    0.63    0.61
  -4 -14   6   -0.46    0.45
  -4  14   5    8.18    1.74
  -4 -14   5    4.18    0.98
  -4 -14   5    6.26    1.45
  -4 -14   5    7.09    1.56
  -4 -14   4   20.97    2.68
  -4  14   4   21.22    2.73
  -4 -14   4   20.77    2.56
  -4 -14   4   21.10    2.62
  -4 -14   3    1.18    0.91
  -4  14   3    0.61    1.33
  -4 -14   3    2.37    1.28
  -4 -14   3    2.10    1.13
  -4 -14   3    2.43    1.18
  -4 -14   2   48.85    3.58
  -4 -14   2   55.56    4.05
  -4 -14   2   46.55    3.58
  -4  14   2   55.61    4.24
  -4  14   2   56.44    4.27
  -4 -14   1   41.20    3.33
  -4 -14   1   40.52    3.44
  -4  14   1   46.65    4.04
  -4 -14   1   37.66    3.33
  -4  14   1   30.14    3.15
  -4 -14   1   38.14    3.14
  -4  14   0    4.84    1.66
  -4  14   0    3.29    1.40
  -4  14   0    2.43    1.38
  -4 -14   0    6.84    1.51
  -4 -14   0    3.81    1.07
  -4 -14  -1    1.03    0.76
  -4 -14  -1   -0.07    0.75
  -4  14  -1    1.41    1.04
  -4 -14  -1    0.74    0.70
  -4  14  -1   -1.38    1.36
  -4 -14  -2   74.85    4.17
  -4 -14  -2   67.09    3.92
   4 -14   2   88.39    4.81
  -4 -14  -2   63.64    3.82
  -4  14  -2   79.26    4.86
  -4  14  -3    1.29    1.06
  -4 -14  -3    1.22    0.82
  -4 -14  -3   -0.05    0.59
   4 -14   3    2.91    1.23
  -4  14  -4    5.69    1.34
  -4 -14  -4   12.19    1.45
  -4 -14  -4    8.52    1.16
  -4 -14  -5   -0.01    0.35
  -4 -15   6    5.19    0.94
  -4  15   6    5.01    0.99
  -4  15   5    1.40    0.82
  -4 -15   5    1.00    0.63
  -4 -15   5    0.63    0.71
  -4  15   5    1.22    0.68
  -4 -15   4    3.70    1.13
  -4  15   4    2.90    1.06
  -4 -15   4    2.77    0.97
  -4 -15   4    1.45    0.80
  -4  15   4    2.30    0.81
  -4 -15   3   19.91    2.01
  -4 -15   3   22.82    2.34
  -4  15   3   26.07    2.55
  -4  15   3   24.18    2.61
  -4 -15   2    5.68    1.29
  -4 -15   2    7.28    1.53
  -4  15   2    3.02    1.01
   4  15  -2    4.07    1.15
  -4 -15   2    5.33    1.19
  -4  15   2    4.62    1.41
  -4 -15   1    9.89    1.63
  -4 -15   1   10.54    1.65
  -4 -15   1    9.33    1.62
  -4  15   1    6.07    1.65
  -4  15   0   -0.58    0.83
  -4 -15   0   -0.56    0.75
  -4 -15   0    0.61    0.90
  -4  15   0    1.44    1.20
  -4 -15   0    0.66    0.61
  -4 -15  -1   34.44    2.61
  -4  15  -1   44.68    3.48
   4 -15   1   46.04    3.39
  -4  15  -1   29.97    3.22
  -4  15  -2    2.26    1.29
  -4 -15  -2    0.95    0.71
  -4 -15  -2    0.95    0.64
  -4  15  -2    0.19    0.85
   4 -15   2    1.67    1.06
  -4 -15  -2    2.02    0.78
  -4 -15  -3    8.89    1.27
  -4 -15  -3    6.31    0.98
  -4 -15  -3    6.57    1.04
  -4  15  -3    4.62    1.19
   4 -15   3    9.68    1.42
  -4  15  -4    0.93    0.56
  -4 -15  -4    0.50    0.42
  -4  16   5   15.01    1.50
  -4 -16   5   17.32    1.43
  -4  16   4    7.14    1.21
  -4 -16   4    4.89    0.79
  -4 -16   4    9.06    1.26
  -4  16   4    9.61    1.29
  -4 -16   3   17.49    1.97
  -4  16   3   12.87    1.57
  -4  16   3   17.15    1.90
  -4 -16   3   16.23    1.77
  -4 -16   2   25.49    2.13
  -4 -16   2   23.95    2.13
   4  16  -2   21.79    2.00
  -4  16   2   25.44    2.43
  -4 -16   1    2.30    0.84
  -4 -16   1    2.90    0.88
  -4 -16   1    2.03    0.79
  -4  16   1    3.25    1.28
  -4  16   0    5.76    1.19
  -4 -16   0    9.44    1.36
  -4 -16   0    8.91    1.37
  -4  16   0   10.50    1.71
   4 -16   0   10.03    1.53
  -4  16  -1    0.14    0.64
  -4 -16  -1    0.24    0.61
  -4 -16  -1    0.40    0.66
  -4  16  -1    0.93    0.81
   4 -16   1   -0.21    0.71
  -4 -16  -1    0.81    0.47
  -4  16  -2    6.45    1.33
  -4 -16  -2    6.07    1.11
   4 -16   2    8.34    1.21
  -4  16  -3    1.35    0.70
  -4 -16  -3    0.94    0.49
  -4 -17   3    1.54    0.56
  -4  17   3    0.55    0.49
  -4  17   2    0.28    0.53
  -4 -17   1   29.96    1.97
  -4  17   1   31.41    2.36
   4 -17  -1   25.95    1.78
  -4 -17   0    2.20    0.62
   4  17   0    2.29    0.69
   4 -17   0    4.80    0.91
  -4  17   0    3.48    0.88
  -4 -17  -1    1.72    0.56
  -5   0  10   27.10    2.17
  -5   0   9    5.60    1.72
  -5   0   9    1.56    1.03
  -5   0   8   23.95    3.04
  -5   0   7    7.33    1.95
  -5   0   7    3.37    1.49
  -5   0   6  221.90    8.72
  -5   0   6  224.10   25.88
  -5   0   6  230.35    8.81
  -5   0   6  184.41    7.49
  -5   0   5    0.69    0.81
  -5   0   5   -0.12    0.88
  -5   0   5    6.62    4.55
  -5   0   5   -0.17    0.86
  -5   0   4  177.11   21.15
  -5   0   3    2.69    3.33
  -5   0   2   46.72    9.88
  -5   0   2   37.22    7.21
  -5   0   1   -0.86    2.83
  -5   0   1    0.82    2.60
  -5   0   0  458.81   30.44
   5   0   1   24.43    7.95
  -5   0  -1   25.36    7.87
  -5   0  -2   20.15    2.83
   5   0   2   19.46    6.80
  -5   0  -3   10.01    2.27
   5   0   3    8.88    5.27
  -5   0  -4  547.68   16.31
   5   0   4  675.82   47.16
   5   0   4  520.88   13.52
  -5   0  -5    0.56    1.32
   5   0   5    0.53    1.16
   5   0   6    4.53    1.58
   5   0   7   -1.15    0.85
   5   0   8   26.84    1.98
  -5   1  10    5.59    1.24
  -5  -1  10    4.20    1.06
  -5   1   9   43.67    3.26
  -5   1   9   28.28    2.68
  -5  -1   9   35.90    3.30
  -5   1   8    5.38    1.37
  -5   1   8    6.67    1.52
  -5   1   8    6.19    1.51
  -5  -1   8    4.97    1.62
  -5  -1   7   34.19    3.73
  -5   1   7   27.98    3.28
  -5   1   7   19.27    2.62
  -5  -1   7   28.13    3.21
  -5   1   6  157.58   22.34
  -5   1   6  158.35    7.37
  -5  -1   6  157.63    7.36
  -5  -1   6  176.07   22.62
  -5  -1   6  158.01    8.21
  -5   1   6  148.53    7.39
  -5  -1   6  151.01    6.96
  -5   1   5   52.57    4.00
  -5  -1   5   60.37   12.75
  -5  -1   5   52.11    4.01
  -5   1   5   40.95    3.60
  -5  -1   5   42.77    3.50
  -5  -1   5   49.27    4.48
  -5   1   5   51.90   12.60
  -5   1   5   52.93    4.28
  -5   1   4    8.48    5.52
  -5  -1   4   11.43    6.05
  -5   1   3  412.47   31.17
  -5  -1   3  381.40   29.94
  -5   1   2   74.31   12.48
  -5  -1   2   72.84   12.62
  -5  -1   2   65.29    9.85
   5  -1  -2   77.25   10.14
  -5   1   1  349.19   26.56
  -5  -1   1  307.09   25.70
  -5  -1   1  340.55   24.13
   5  -1  -1  361.40   24.13
   5  -1   0   19.47    6.07
  -5   1   0   15.88    5.87
  -5  -1   0   20.92    7.10
  -5  -1  -1  175.29   20.39
   5  -1   1  174.53   19.70
  -5  -1  -2    1.29    1.15
  -5   1  -2   -1.32    1.33
   5  -1   2   -0.84    2.89
   5   1   2    1.95    2.75
  -5  -1  -2   -3.69    2.51
  -5  -1  -3  359.07   12.55
  -5   1  -3  362.61   12.35
   5   1   3  419.73   35.56
   5  -1   3  398.94   34.16
  -5  -1  -4    4.13    1.53
  -5   1  -4    7.23    2.40
   5  -1   4    5.49    4.86
   5  -1   4    4.40    1.38
   5   1   4    9.50    6.01
   5   1   4    7.02    1.85
   5   1   5   24.03    3.02
   5  -1   5   29.12    3.55
  -5  -1  -5   19.83    3.70
  -5   1  -5   21.59    3.70
   5   1   6    5.22    1.86
   5  -1   6    7.16    2.07
  -5  -1  -7   15.71    2.02
   5   1   7   19.75    2.26
   5  -1   7   21.74    2.44
  -5  -1  -8    0.77    0.52
   5  -1   8    1.56    0.69
  -5   2  10    5.64    1.23
  -5  -2  10    4.40    1.03
  -5  -2  10    4.14    1.08
  -5   2   9    1.66    1.15
  -5   2   9    1.88    1.02
  -5  -2   9    1.16    0.80
  -5   2   8   33.97    3.54
  -5  -2   8   29.89    3.48
  -5  -2   7   25.78    3.22
  -5   2   7   17.41    2.70
  -5   2   7   23.02    3.15
  -5  -2   7   21.49    2.92
  -5  -2   6   47.37    4.10
  -5  -2   6   44.32    4.34
  -5   2   6   52.48   13.10
  -5   2   6   45.34    4.29
  -5  -2   6   49.73   11.87
  -5  -2   6   46.96    3.95
  -5   2   5  153.91   21.62
  -5   2   5  146.20    6.63
  -5  -2   5  156.56    7.12
  -5  -2   5  145.03   19.95
  -5   2   5  156.26    7.65
  -5  -2   5  130.60    6.30
  -5   2   5  148.50    6.50
  -5  -2   5  149.20    7.65
  -5   2   5  145.48    7.45
  -5   2   4  173.58   21.83
  -5  -2   4  168.97   20.71
  -5   2   3   23.72    7.66
  -5  -2   3   23.59    7.50
  -5   2   2  525.98   33.93
  -5  -2   2  498.41   34.06
  -5  -2   2  503.38   28.51
  -5   2   1   45.51   10.04
  -5  -2   1   43.14    8.84
   5  -2  -1   30.64    7.04
  -5   2   0  126.10   15.68
  -5  -2   0  119.63   15.88
   5  -2   0  114.99   14.87
  -5  -2  -1  162.57   19.91
   5  -2   1  147.49   18.43
  -5  -2  -2  656.21   15.97
  -5   2  -2  630.92   14.97
  -5  -2  -2  705.49   43.85
   5  -2   2  659.87   41.74
  -5  -2  -3    7.06    2.15
  -5   2  -3    5.67    1.93
   5   2   3    8.81    5.96
   5  -2   3    0.22    2.40
  -5   2  -4   43.74    4.63
   5  -2   4   44.39   12.31
   5   2   4   39.97    3.73
   5   2   4   40.30   11.78
  -5  -2  -4   44.04    4.91
  -5   2  -5    2.16    1.86
   5   2   5    3.54    1.33
   5  -2   5    4.47    1.68
   5   2   6   30.19    3.18
   5  -2   6   33.38    3.57
   5  -2   7    1.22    0.99
  -5  -2  -7    0.62    0.63
   5   2   7    1.27    0.77
  -5  -2  -8    5.32    0.83
   5  -2   8    8.62    1.23
  -5   3  10    1.10    0.78
  -5  -3  10    2.09    0.83
  -5  -3  10    1.86    0.89
  -5   3   9   -0.74    0.97
  -5   3   9    0.38    0.81
  -5  -3   9    0.03    0.88
  -5   3   8    7.44    1.64
  -5   3   8    9.53    2.00
  -5  -3   8   11.52    2.27
  -5  -3   7  369.67   11.91
  -5  -3   7  363.45   12.85
  -5   3   7  387.69   12.73
  -5   3   7  366.62   11.82
  -5  -3   7  399.52   12.09
  -5   3   6  235.32    8.57
  -5   3   6  276.85   31.05
  -5  -3   6  233.71    9.30
  -5  -3   6  219.64    9.88
  -5   3   6  238.13   10.07
  -5   3   6  230.24    9.55
  -5  -3   5    8.63    1.74
  -5   3   5   19.30    9.12
  -5  -3   5   11.79    2.52
  -5   3   5    7.69    2.09
  -5  -3   5    9.49    1.79
  -5   3   5    8.09    1.73
  -5   3   5    6.18    1.58
  -5   3   4  102.74   17.30
  -5  -3   4   93.89   16.12
  -5  -3   4   93.13    5.88
  -5   3   4   94.37    5.77
  -5   3   4   94.98    5.85
  -5   3   3 1018.23   51.24
  -5  -3   3  961.08   39.26
  -5   3   2   59.99   12.04
  -5  -3   2   57.53   10.18
   5  -3  -1   22.50    5.89
  -5   3   1   28.18    7.83
  -5  -3   1   21.96    7.25
  -5   3   0    9.10    5.55
   5  -3   0    7.11    3.71
  -5  -3   0   16.43    6.67
  -5  -3  -1   84.78   14.66
   5  -3   1   90.90   14.59
  -5  -3  -2   99.12    6.52
  -5   3  -2   94.78    6.00
  -5  -3  -2  111.99   17.73
   5  -3   2   94.34   15.95
  -5   3  -2   94.30    5.73
  -5   3  -3  295.53   11.30
  -5  -3  -3  302.22   30.83
   5  -3   3  328.72   32.44
  -5   3  -3  285.42    9.76
  -5  -3  -3  296.24   11.92
  -5  -3  -4    9.13    2.33
  -5   3  -4    5.30    1.95
  -5   3  -5   10.86    2.65
   5   3   5    9.78    2.04
   5  -3   5   14.16    2.78
   5  -3   6    4.41    1.75
  -5  -3  -6    2.49    1.12
   5   3   6    2.86    1.07
  -5  -3  -7   47.77    3.02
   5   3   7   51.05    3.15
   5  -3   7   63.16    4.19
   5  -3   8    0.20    0.49
  -5   4  10    4.85    1.03
  -5  -4  10    6.99    1.14
  -5  -4  10    3.57    0.96
  -5   4   9    5.89    1.50
  -5  -4   9    5.09    1.39
  -5   4   9    3.18    1.12
  -5   4   8  120.55    5.54
  -5   4   8  120.57    6.91
  -5  -4   8  123.09    6.65
  -5  -4   7    5.51    1.77
  -5  -4   7    5.68    1.75
  -5   4   7    8.45    2.23
  -5   4   7    3.12    1.22
  -5  -4   7    6.64    1.88
  -5   4   6   16.39    2.75
  -5  -4   6   17.83    2.74
  -5   4   6   13.78    7.30
  -5  -4   6   15.34    2.77
  -5   4   6   17.90    2.99
  -5   4   6   18.10    2.79
  -5   4   5   84.43    5.40
  -5   4   5   75.49   16.78
  -5   4   5   90.46    5.96
  -5  -4   5   72.50    4.96
  -5  -4   5   84.68    6.16
  -5   4   5   85.00    5.91
  -5  -4   5   89.43    5.13
  -5   4   4  353.09   33.43
  -5   4   4  343.62    9.15
  -5  -4   4  336.98   10.52
  -5  -4   4  365.09   11.93
  -5   4   4  328.93   10.35
  -5   4   4  344.89   11.43
  -5   4   4  364.64   11.70
  -5   4   3  442.26   35.25
  -5  -4   3  394.93   27.12
  -5   4   2  443.87   33.55
  -5  -4   2  393.09   28.04
  -5   4   1   26.63    7.90
   5  -4  -1   28.77    7.28
  -5  -4   1   28.63    7.91
  -5   4   0   48.44   10.22
  -5  -4   0   62.97   12.28
   5  -4   0   53.18   10.78
  -5  -4  -1   50.70   11.70
   5  -4   1   49.37   11.17
  -5   4  -2  388.12   12.12
  -5  -4  -2  360.82   10.99
  -5  -4  -2  390.99   33.98
  -5  -4  -2  391.11   11.29
  -5   4  -2  393.02   12.23
   5  -4   2  373.11   32.86
  -5  -4  -2  351.82   12.69
  -5   4  -3  227.00   10.07
  -5  -4  -3  223.18    9.16
  -5  -4  -3  236.13   27.71
  -5  -4  -3  229.96   10.77
   5  -4   3  212.41    7.71
  -5   4  -3  226.91    9.07
   5  -4   3  243.73   28.32
  -5  -4  -4    0.29    0.99
  -5   4  -4    1.37    1.39
   5  -4   4    0.41    1.18
  -5   4  -5    6.74    2.24
  -5  -4  -5    3.69    1.50
   5  -4   5    4.66    1.79
  -5  -4  -6   44.81    3.54
   5  -4   6   55.64    4.51
   5  -4   7   10.10    1.76
  -5  -4  -7    7.59    1.38
  -5  -5  10    2.22    0.79
  -5   5   9   16.22    2.03
  -5   5   9   16.09    2.33
  -5  -5   9   18.19    2.40
  -5   5   8    8.42    1.75
  -5  -5   8    5.58    1.66
  -5   5   8    6.76    2.15
  -5  -5   8    5.78    1.94
  -5   5   7    1.57    1.20
  -5   5   7    3.94    1.41
  -5  -5   7    2.34    1.45
  -5  -5   7    1.00    1.68
  -5   5   7    3.32    1.84
  -5  -5   7    1.75    1.28
  -5   5   6   20.55    2.96
  -5   5   6   19.85    3.00
  -5   5   6   23.87    2.72
  -5  -5   6   20.23    2.98
  -5  -5   6   21.26    3.39
  -5   5   6   25.43    3.75
  -5  -5   6   21.34    2.84
  -5   5   5  379.64   12.34
  -5   5   5  359.95   11.52
  -5  -5   5  332.01   10.36
  -5  -5   5  393.56   13.35
  -5   5   5  385.76   12.86
  -5  -5   5  373.35   11.02
  -5   5   5  378.77   37.50
  -5   5   4  290.79   10.00
  -5   5   4  327.54   33.39
  -5  -5   4  298.74    9.96
  -5  -5   4  261.70    9.36
  -5  -5   4  290.45   10.98
  -5   5   4  301.31   11.07
  -5  -5   4  302.67    9.51
  -5   5   4  309.79   11.08
  -5   5   3   34.05    3.72
  -5  -5   3   36.43    3.31
  -5   5   3   36.67   11.34
  -5   5   3   40.99    4.03
  -5  -5   3   36.60    8.40
  -5   5   3   39.98    4.01
  -5  -5   3   34.13    3.66
  -5   5   2   32.54    9.93
  -5  -5   2   34.04    9.04
   5  -5  -1  349.02   25.92
  -5   5   1  382.23   30.47
  -5  -5   1  399.11   30.66
  -5   5   0   10.40    4.86
  -5  -5   0   13.79    6.13
   5  -5   0   13.20    6.54
   5  -5   1  125.50   18.41
  -5   5  -1  123.72    6.96
  -5  -5  -1  132.04    6.52
  -5  -5  -1  120.90   18.31
  -5  -5  -1  121.48    5.83
  -5   5  -1  104.34    7.38
   5  -5   2  113.68   18.72
  -5   5  -2  112.11    6.81
  -5  -5  -2  104.73    6.04
  -5  -5  -2   97.82    7.20
  -5  -5  -2   92.13   16.88
  -5   5  -2  107.51    6.86
  -5   5  -3  167.44    8.51
   5  -5   3  172.25   24.33
  -5  -5  -3  150.72    7.50
  -5  -5  -3  157.86   23.40
   5  -5   3  153.01    6.84
  -5   5  -3  160.11    7.94
  -5  -5  -3  148.19    8.88
  -5   5  -4    0.82    1.26
  -5  -5  -4    1.17    0.97
  -5   5  -4    1.11    1.21
   5  -5   4   -0.39    1.06
   5  -5   5   20.10    3.32
  -5  -5  -5   17.59    2.44
  -5  -5  -6    2.96    1.04
  -5  -5  -6    4.92    1.41
   5  -5   6    5.22    1.81
  -5  -5  -7    8.81    1.32
   5  -5   7    9.05    1.64
  -5   6   9    6.91    1.38
  -5   6   9    5.31    1.40
  -5  -6   9    6.55    1.51
  -5   6   8    8.76    1.73
  -5  -6   8    9.91    2.40
  -5   6   8    4.79    1.69
  -5  -6   8    8.74    2.06
  -5   6   7   30.63    3.31
  -5   6   7   29.34    2.89
  -5  -6   7   32.07    3.59
  -5  -6   7   33.34    4.21
  -5   6   7   34.32    4.27
  -5  -6   7   25.13    3.65
  -5   6   6   92.62    6.15
  -5   6   6  100.26    5.03
  -5  -6   6   88.87    6.31
  -5   6   6   85.60    5.73
  -5  -6   6   90.12    5.74
  -5  -6   6   89.48    6.82
  -5   6   6   98.25    6.83
  -5  -6   5   16.87    2.63
  -5   6   5   16.12    2.78
  -5  -6   5   13.70    2.25
  -5  -6   5   14.61    2.07
  -5   6   5   16.81    8.35
  -5  -6   5   17.89    3.26
  -5   6   5    9.96    2.05
  -5   6   5   17.59    3.04
  -5   6   4  322.06   11.74
  -5   6   4  333.75   11.38
  -5   6   4  322.94   34.68
  -5  -6   4  337.75   10.76
  -5  -6   4  329.69   11.08
  -5  -6   4  345.09   10.62
  -5  -6   4  317.03   11.83
  -5   6   4  342.52   12.02
  -5   6   3   32.29    3.68
  -5  -6   3   32.04    3.51
  -5  -6   3   41.55    3.85
  -5   6   3   29.60   10.17
  -5  -6   3   39.97    4.00
  -5   6   3   33.35    3.87
  -5  -6   3   22.24    7.65
  -5   6   3   27.74    3.44
  -5  -6   3   29.04    3.13
  -5  -6   2    2.22    1.35
  -5   6   2    2.09    1.34
  -5  -6   2    1.82    1.03
  -5   6   2    5.41    2.15
  -5  -6   2    2.11    1.39
  -5   6   2    2.14    2.45
  -5  -6   2    3.39    3.16
  -5  -6   2    1.57    1.07
   5  -6  -1   20.73    6.57
  -5  -6   1   36.50    3.46
  -5   6   1   26.72    8.32
  -5  -6   1   44.49   10.55
  -5  -6   1   36.57    3.67
  -5   6   1   29.08    3.87
  -5  -6   0  510.11   13.11
  -5  -6   0  496.25   12.53
  -5  -6   0  549.42   38.88
   5  -6   0  444.50   32.94
  -5  -6   0  477.11   11.58
  -5   6   0  474.20   14.73
  -5  -6  -1   10.38    2.60
  -5   6  -1    5.30    2.34
  -5   6  -1    5.71    2.09
  -5   6  -1    8.85    1.74
  -5  -6  -1   12.53    2.22
  -5  -6  -1   14.37    2.30
  -5  -6  -1   12.42    6.43
  -5  -6  -1   11.79    2.10
   5  -6   1   10.59    5.50
  -5   6  -2    3.37    1.58
  -5  -6  -2    2.95    1.24
  -5  -6  -2    3.12    1.42
  -5   6  -2    2.51    1.53
  -5  -6  -2   -0.97    2.17
   5  -6   2   -0.15    2.27
   5  -6   3    5.51    4.78
  -5   6  -3    5.13    1.70
  -5   6  -3    4.09    1.65
  -5  -6  -3    2.79    1.54
  -5  -6  -3    3.87    4.45
   5  -6   3    5.12    1.79
  -5  -6  -3    3.12    1.57
  -5   6  -4   73.10    5.80
  -5  -6  -4   68.04    4.98
  -5  -6  -4   63.18    4.90
   5  -6   4   70.16    4.89
  -5   6  -4   67.36    5.37
  -5  -6  -5    2.50    1.19
   5  -6   5    0.82    1.37
  -5  -6  -5    1.00    0.99
  -5  -6  -6    5.59    1.15
  -5  -6  -6    7.58    1.55
   5  -6   6   10.66    2.31
   5   6   7    0.17    0.54
   5  -6   7   -0.08    0.83
  -5  -6  -7    0.34    0.45
  -5   7   9   43.70    3.31
  -5  -7   9   32.23    2.84
  -5   7   8   16.32    2.09
  -5  -7   8   17.00    2.76
  -5   7   8   16.23    2.60
  -5  -7   8   13.86    2.29
  -5   7   7    3.60    1.71
  -5  -7   7    2.36    1.42
  -5   7   7    4.19    1.49
  -5  -7   7    3.29    1.33
  -5   7   7    3.02    1.49
  -5  -7   7    5.77    2.29
  -5   7   6   54.37    3.73
  -5  -7   6   48.35    4.82
  -5  -7   6   49.20    4.08
  -5  -7   6   51.72    5.35
  -5   7   6   55.49    5.29
  -5   7   6   55.81    5.04
  -5  -7   6   54.93    4.59
  -5   7   5  190.68   28.43
  -5  -7   5  172.40    7.48
  -5   7   5  196.17    9.07
  -5   7   5  195.42    9.17
  -5  -7   5  173.04    9.45
  -5   7   5  188.53    9.44
  -5  -7   5  171.48    8.24
  -5   7   4   33.69    3.84
  -5  -7   4   35.49    3.93
  -5  -7   4   47.62    3.85
  -5   7   4   41.09   12.80
  -5  -7   4   42.34    4.65
  -5   7   4   33.88    4.00
  -5   7   4   48.75    4.92
  -5   7   3   27.28    3.94
  -5  -7   3   38.18    3.66
  -5  -7   3   33.68    3.79
  -5   7   3   47.19   12.36
  -5  -7   3   41.28    4.32
  -5   7   3   31.25    3.84
  -5  -7   3   26.59    9.18
  -5   7   3   63.97    5.93
  -5  -7   3   33.12    3.49
  -5   7   2  107.84    6.44
  -5   7   2   89.60   17.20
  -5  -7   2  112.82   17.66
  -5  -7   2   95.94    6.20
  -5  -7   2  101.32    6.37
  -5   7   2  114.57    6.48
  -5   7   2  100.83    6.77
  -5  -7   2  106.48    5.87
  -5   7   1  117.61    6.39
  -5   7   1   96.64   16.14
  -5  -7   1  107.95    6.19
  -5  -7   1   98.55   17.05
  -5  -7   1  102.53    6.48
  -5   7   1  123.21    6.55
  -5  -7   1  103.97    5.58
  -5  -7   1  104.16    6.33
  -5   7   1  102.10    7.60
   5  -7   0   12.20    5.63
  -5   7   0    2.78    1.05
  -5   7   0    5.88    2.20
  -5  -7   0    7.32    1.91
  -5  -7   0    7.30    1.75
  -5  -7   0    7.95    4.46
  -5  -7   0    6.51    1.59
  -5   7   0    5.95    1.38
  -5   7  -1   29.24    4.04
  -5  -7  -1   37.87    3.06
  -5  -7  -1   37.05    3.79
   5  -7   1   40.56   11.63
  -5  -7  -1   33.64    3.48
  -5  -7  -1   21.74    8.67
  -5   7  -1   40.44    3.61
  -5  -7  -1   37.20    3.71
  -5   7  -1   39.89    4.51
   5  -7   2    9.95    6.21
  -5   7  -2   10.12    2.20
  -5   7  -2    8.10    2.49
  -5  -7  -2    9.55    2.08
  -5  -7  -2   22.91    9.06
   5   7   2    5.79    1.50
  -5  -7  -2    9.95    2.05
  -5   7  -2   10.46    1.97
  -5   7  -3   29.73    3.77
  -5  -7  -3   26.31    3.25
  -5  -7  -3   27.09    3.20
   5  -7   3   20.05    3.00
  -5   7  -3   15.82    3.46
  -5   7  -4    0.78    0.96
  -5  -7  -4    0.28    0.81
  -5  -7  -4    0.48    0.95
   5  -7   4   -0.40    1.17
  -5  -7  -5   25.34    2.78
   5  -7   5   24.86    3.43
  -5  -7  -5   22.24    2.83
   5   7   6    4.36    1.14
   5  -7   6    2.77    1.34
  -5  -7  -6    2.99    1.05
  -5  -7  -7    9.76    1.17
   5   7   7   11.25    1.27
   5  -7   7   12.25    1.54
  -5  -7  -7    5.92    0.92
  -5   8   9    0.79    0.63
  -5  -8   9    0.38    0.55
  -5  -8   8   39.66    3.82
  -5   8   8   37.91    3.50
  -5  -8   8   38.52    3.45
  -5   8   7    2.28    1.45
  -5   8   7    2.18    1.20
  -5  -8   7    0.97    1.01
  -5  -8   7    2.76    1.85
  -5   8   7    1.80    1.31
  -5  -8   7    1.86    1.48
  -5   8   6   15.08    2.88
  -5  -8   6   19.02    2.60
  -5  -8   6   13.16    2.61
  -5  -8   6   14.59    3.06
  -5   8   6   11.47    2.49
  -5  -8   6   18.46    2.84
  -5   8   5    2.63    1.62
  -5  -8   5    2.77    1.43
  -5  -8   5    1.70    1.56
  -5   8   5    3.55    1.58
  -5  -8   5    2.66    1.21
  -5   8   4  210.16   30.27
  -5   8   4  196.99    9.19
  -5  -8   4  174.05    8.89
  -5  -8   4  206.33    9.86
  -5   8   4  196.12    9.16
  -5   8   3   51.33    4.66
  -5  -8   3   41.42    3.58
  -5  -8   3   36.25    4.21
  -5   8   3   49.04   13.41
  -5  -8   3   45.02    4.53
  -5   8   3   58.43    4.87
  -5  -8   3   41.80   11.10
  -5  -8   3   43.46    3.94
  -5   8   2    9.68    2.60
  -5   8   2   11.62    2.39
  -5  -8   2   12.39    2.42
  -5  -8   2   17.67    2.80
  -5   8   2   19.78    8.78
  -5   8   2    8.86    2.13
  -5  -8   2   20.48    7.74
  -5  -8   2   20.24    2.71
  -5   8   1   24.18    3.24
  -5  -8   1   17.68    2.94
  -5  -8   1   19.92    3.13
  -5  -8   1   28.33    9.74
  -5   8   1   30.99    3.05
  -5   8   1   27.31    4.36
   5  -8   0   36.91   10.33
  -5  -8   0   42.10    4.19
  -5  -8   0   44.60    3.94
  -5  -8   0   42.85   11.73
  -5   8   0   50.44    4.05
  -5   8   0   47.71    5.41
  -5   8  -1   10.75    2.09
  -5   8  -1   10.31    2.67
  -5   8  -1    7.13    2.26
   5  -8   1   -1.38    3.22
  -5  -8  -1   10.85    1.70
  -5  -8  -1    9.93    2.20
   5   8   1    6.32    1.28
  -5  -8  -1   10.44    2.19
  -5  -8  -1    8.81    5.63
  -5   8  -2  117.25    7.13
  -5  -8  -2  117.92    5.79
  -5  -8  -2  124.49    6.87
   5   8   2  114.04    5.85
  -5  -8  -2  128.91    6.84
  -5   8  -2  121.03    6.62
  -5   8  -2  118.12    7.74
  -5   8  -3   39.84    4.10
  -5  -8  -3   39.51    3.90
   5   8   3   35.85    3.34
  -5  -8  -3   39.05    3.97
   5  -8   3   36.78    3.80
  -5   8  -3   37.04    4.43
  -5   8  -4    1.78    1.27
  -5  -8  -4    2.97    1.29
   5   8   4    2.97    1.29
  -5  -8  -4    1.72    1.27
   5  -8   4    1.28    1.22
  -5   8  -5    4.97    1.40
  -5  -8  -5    7.03    1.43
   5   8   5    8.52    1.62
   5  -8   5    9.56    2.39
  -5  -8  -5    7.76    1.67
  -5  -8  -6   64.36    3.49
   5   8   6   59.87    3.45
  -5  -8  -6   48.17    3.07
   5  -8   6   75.50    4.47
  -5  -8  -7    6.24    0.85
   5   8   7    5.84    0.85
   5  -8   7    6.60    1.04
  -5   9   9   13.62    1.57
  -5  -9   9   13.53    1.45
  -5   9   8    8.51    1.45
  -5  -9   8   10.02    1.96
  -5   9   8   13.25    2.07
  -5  -9   8   11.75    1.93
  -5   9   7  163.26    7.34
  -5  -9   7  175.85    7.11
  -5  -9   7  157.27    8.21
  -5   9   7  173.67    7.85
  -5  -9   7  169.25    7.58
  -5   9   6   30.74    3.98
  -5  -9   6   38.79    3.95
  -5  -9   6   37.89    3.45
  -5  -9   6   39.01    4.44
  -5   9   6   28.26    3.77
  -5  -9   6   36.59    3.90
  -5   9   5    3.39    1.95
  -5  -9   5    7.00    1.81
  -5  -9   5    2.55    1.82
  -5   9   5    7.17    2.20
  -5  -9   5    2.36    1.20
  -5   9   4   17.60    3.24
  -5  -9   4   20.56    2.99
  -5  -9   4   27.97    3.55
  -5  -9   4   24.18    3.69
  -5   9   4   20.23    3.18
  -5   9   3  375.83   12.71
  -5   9   3  319.76   36.15
  -5  -9   3  315.40   31.61
  -5  -9   3  360.04   12.28
  -5  -9   3  307.52   11.64
  -5   9   3  366.42   11.82
  -5  -9   3  364.79   11.21
  -5   9   2  203.40    9.25
  -5   9   2  137.18   22.35
  -5  -9   2  193.63   25.37
  -5  -9   2  213.13    8.10
  -5  -9   2  228.86    9.71
  -5  -9   2  223.60    8.61
  -5   9   2  176.38    7.39
  -5   9   2  184.09    9.50
  -5  -9   1    1.41    1.00
  -5   9   1    3.32    1.87
  -5   9   1    1.06    1.29
  -5   9   1    1.64    1.20
  -5  -9   1    3.64    1.48
  -5  -9   1    8.18    5.56
  -5  -9   0   53.01    3.63
  -5  -9   0   46.01    4.52
  -5  -9   0   49.53    4.13
  -5  -9   0   38.28   10.72
  -5   9   0   41.13    3.86
  -5   9   0   40.67    5.27
  -5   9  -1   40.62    4.41
   5  -9   1   31.51   10.71
  -5  -9  -1   55.36    3.82
  -5  -9  -1   52.87    4.76
   5   9   1   50.50    3.69
  -5  -9  -1   54.53    4.44
  -5   9  -1   49.15    4.29
  -5   9  -1   41.48    5.31
  -5   9  -2    3.41    1.60
  -5   9  -2    0.54    1.64
  -5  -9  -2    1.22    1.04
  -5  -9  -2    0.99    1.16
   5   9   2   -0.21    1.06
  -5  -9  -2    0.05    1.07
  -5   9  -2    1.70    1.43
  -5  -9  -3   46.76    3.66
  -5  -9  -3   46.63    4.16
   5   9   3   45.27    3.68
  -5  -9  -3   44.29    4.17
   5  -9   3   52.81    4.46
  -5   9  -3   47.07    5.02
  -5   9  -4    4.11    1.76
  -5  -9  -4    4.84    1.29
  -5  -9  -4    3.74    1.20
   5   9   4    4.88    1.51
  -5  -9  -4    3.88    1.45
   5  -9   4    3.33    1.73
  -5  -9  -5    2.22    1.04
  -5   9  -5    0.77    0.98
  -5  -9  -5    0.67    0.71
   5  -9   5    2.10    1.35
   5   9   5    2.82    1.13
  -5  -9  -6    3.26    0.87
   5   9   6    2.17    0.75
  -5  -9  -6    2.35    0.70
   5  -9   6    4.45    1.16
  -5  10   8   16.58    1.76
  -5 -10   8   23.71    2.55
  -5  10   8   22.70    2.33
  -5 -10   8   18.51    1.95
  -5  10   7   29.52    3.05
  -5 -10   7   29.54    2.64
  -5 -10   7   33.89    3.63
  -5  10   7   26.15    3.01
  -5 -10   7   28.27    3.13
  -5  10   6  115.47    6.67
  -5 -10   6  115.04    6.05
  -5 -10   6  100.79    5.34
  -5 -10   6  108.92    6.85
  -5  10   6   97.44    6.04
  -5 -10   6  103.27    6.06
  -5  10   5   19.05    3.15
  -5 -10   5   22.00    2.73
  -5 -10   5   21.25    3.34
  -5 -10   5   18.12    2.84
  -5  10   5   18.98    2.90
  -5  10   4    5.07    1.97
  -5 -10   4    7.36    1.80
  -5 -10   4    9.31    2.12
  -5 -10   4    8.68    2.18
  -5  10   4    5.61    1.78
  -5  10   3  133.94    7.70
  -5 -10   3  137.49    7.27
  -5 -10   3  103.52    6.58
  -5  10   3  120.20    6.79
  -5 -10   3  122.79    6.43
  -5  10   2   55.39    5.03
  -5 -10   2   49.21    4.63
  -5  10   2   47.81    4.07
  -5  10   2   45.46    4.50
  -5 -10   2   56.02    4.35
  -5  10   1  239.75    9.56
  -5 -10   1  231.30    7.57
  -5 -10   1  224.23    8.31
  -5  10   1  224.67    8.77
  -5  10   1  232.73   10.58
  -5 -10   1  239.06    8.88
  -5  10   0    3.74    2.15
  -5 -10   0    1.05    0.89
  -5 -10   0    0.92    0.83
  -5  10   0    2.70    1.42
  -5  10  -1  184.96    8.68
  -5 -10  -1  178.34    6.88
  -5 -10  -1  189.13    8.06
  -5  10  -1  190.26    8.33
  -5  10  -1  180.91    9.82
  -5  10  -2  118.35    6.63
  -5 -10  -2   98.28    5.18
  -5 -10  -2  101.26    6.21
   5  10   2   93.09    5.06
  -5 -10  -2   94.60    5.81
  -5 -10  -2   90.40    4.72
  -5  10  -2  101.54    6.17
  -5  10  -2  104.32    7.50
  -5  10  -3    1.89    1.17
  -5 -10  -3    6.11    1.45
  -5 -10  -3    3.16    1.40
   5  10   3    6.99    1.53
  -5 -10  -3    3.52    1.42
  -5 -10  -3    3.91    1.25
   5 -10   3    3.06    1.38
  -5  10  -4    4.61    1.73
  -5 -10  -4    6.81    1.39
   5  10   4    6.76    1.41
  -5 -10  -4    5.40    1.52
   5 -10   4    6.70    1.78
  -5  10  -5    0.38    0.80
  -5 -10  -5    1.88    0.69
   5  10   5    1.26    0.85
  -5 -10  -5    0.85    0.65
   5 -10   5    2.73    1.08
  -5 -10  -5    0.58    0.54
  -5 -10  -6    9.49    1.11
   5  10   6    8.63    1.10
   5 -10   6   13.60    1.49
  -5 -11   8   16.85    1.83
  -5  11   8   12.58    1.48
  -5 -11   8   15.19    1.47
  -5  11   7   -0.19    0.83
  -5 -11   7    1.22    0.56
  -5 -11   7    3.19    1.30
  -5  11   7    1.76    0.88
  -5 -11   7    0.36    0.60
  -5  11   6   15.75    2.44
  -5 -11   6   13.18    1.93
  -5 -11   6   13.39    1.92
  -5 -11   6   11.07    2.23
  -5  11   6   11.46    1.97
  -5 -11   6   15.07    2.28
  -5  11   5  124.47    7.00
  -5 -11   5  115.70    5.80
  -5 -11   5  105.06    6.53
  -5  11   5   90.78    5.60
  -5 -11   5  115.32    6.53
  -5  11   4    3.14    1.72
  -5 -11   4    3.48    1.59
  -5 -11   4    5.16    1.84
  -5 -11   4    4.46    1.62
  -5  11   4    1.62    1.19
  -5  11   3    9.58    2.40
  -5 -11   3    7.95    2.08
  -5 -11   3    6.33    1.61
  -5 -11   3    6.57    1.70
  -5  11   2    6.04    1.87
  -5  11   2    8.87    2.23
  -5 -11   2    4.76    1.34
  -5 -11   2    6.15    1.97
  -5  11   2    6.87    1.72
  -5 -11   2    5.86    1.66
  -5 -11   1    9.41    2.01
  -5  11   1    9.92    2.43
  -5  11   1    5.67    1.78
  -5 -11   1   12.22    2.60
  -5  11   1    7.52    2.00
  -5  11   0    2.75    1.81
  -5  11   0    4.05    1.60
  -5 -11   0    2.90    1.11
  -5 -11   0    2.32    1.10
  -5  11   0    3.36    1.50
  -5  11  -1   71.40    5.21
  -5 -11  -1   67.28    4.20
  -5 -11  -1   57.13    3.80
  -5  11  -1   74.60    5.20
  -5  11  -1   64.33    5.93
  -5  11  -2    2.77    1.83
  -5 -11  -2    3.01    1.14
  -5 -11  -2    3.42    1.08
  -5  11  -2    3.09    1.56
  -5  11  -3    6.02    2.20
  -5 -11  -3    8.37    1.55
   5  11   3    9.37    1.73
  -5 -11  -3    8.15    1.40
   5 -11   3   10.32    2.14
  -5  11  -4    0.28    1.03
  -5 -11  -4    0.44    0.85
   5  11   4    0.45    0.73
  -5 -11  -4    0.53    0.65
   5 -11   4    0.96    1.09
  -5 -11  -5   23.99    1.95
   5 -11   5   29.08    2.49
  -5  11  -5   11.32    1.55
  -5  12   7    0.01    0.80
  -5 -12   7   -0.72    0.68
  -5  12   7   -0.05    0.54
  -5 -12   7    0.12    0.58
  -5  12   6   10.62    1.94
  -5 -12   6    7.76    1.28
  -5 -12   6    5.86    1.55
  -5  12   6    6.14    1.31
  -5 -12   6    9.39    1.66
  -5 -12   6    7.89    1.52
  -5  12   5   14.20    2.53
  -5 -12   5   12.66    2.01
  -5 -12   5   14.61    2.36
  -5  12   5   10.97    1.81
  -5 -12   5   14.96    2.27
  -5  12   4   51.49    4.52
  -5 -12   4   46.89    3.84
  -5 -12   4   39.41    3.79
  -5  12   3    1.93    1.55
  -5 -12   3    1.13    1.27
  -5 -12   3    0.53    1.19
  -5 -12   3    0.91    0.79
  -5  12   3    0.61    1.04
  -5  12   2    6.80    1.70
  -5  12   2   14.23    2.65
  -5 -12   2   11.02    1.62
  -5 -12   2   18.18    2.64
  -5  12   2   14.74    2.32
  -5 -12   2   14.09    2.14
  -5  12   1    8.67    2.06
  -5  12   1   11.71    2.18
  -5 -12   1   10.12    2.16
  -5  12   1   13.09    2.32
  -5 -12   1    5.84    1.59
  -5  12   0   88.03    5.93
  -5 -12   0   92.44    4.73
  -5  12   0   98.24    5.89
  -5  12   0   83.78    6.03
  -5 -12   0   96.67    5.46
  -5  12  -1    0.56    1.30
  -5  12  -1    2.37    1.09
  -5 -12  -1    0.20    0.75
  -5  12  -1    0.43    1.17
  -5 -12  -1   -0.05    0.86
  -5 -12  -1    0.45    0.81
  -5  12  -2    0.67    1.43
  -5 -12  -2    1.86    0.85
  -5 -12  -2    1.47    0.79
  -5  12  -2    0.34    1.14
   5 -12   2    1.82    1.54
  -5  12  -3    0.51    1.17
  -5 -12  -3    1.19    0.80
  -5 -12  -3    0.27    0.61
   5 -12   3    2.50    1.38
  -5 -12  -4   62.69    3.27
  -5 -12  -4   45.62    2.45
   5 -12   4   63.54    3.76
  -5  12  -4   36.24    3.28
  -5 -12  -5    0.04    0.40
  -5 -12  -5    1.07    0.53
   5 -12   5    0.95    0.61
  -5  13   7   13.68    1.44
  -5 -13   7   17.01    1.69
  -5  13   6    3.74    1.20
  -5 -13   6    2.84    1.15
  -5 -13   6    3.44    1.10
  -5 -13   6    2.72    0.93
  -5  13   5   23.49    2.80
  -5 -13   5   12.92    1.67
  -5 -13   5   17.86    2.06
  -5 -13   5   14.54    2.03
  -5  13   5   16.35    1.69
  -5 -13   5   17.93    2.16
  -5  13   4    2.25    1.27
  -5 -13   4    3.92    1.42
  -5 -13   4    3.14    1.10
  -5 -13   4    4.94    1.35
  -5  13   4    2.57    0.94
  -5  13   3   16.88    2.58
  -5 -13   3   16.98    1.91
  -5 -13   3   20.75    2.70
  -5 -13   3   16.13    2.34
  -5  13   3   17.69    2.30
  -5  13   2   11.17    2.11
  -5 -13   2   10.88    1.61
  -5 -13   2   11.77    2.11
  -5 -13   2   14.09    2.28
  -5  13   2    9.91    1.95
  -5 -13   2   12.61    2.04
  -5 -13   1   33.77    3.52
  -5  13   1   39.80    3.59
  -5  13   1   30.73    3.28
  -5 -13   1   36.45    3.21
  -5  13   0   13.87    2.32
  -5  13   0   14.17    2.54
  -5 -13   0   27.76    3.04
  -5  13   0   17.14    2.47
  -5 -13   0   22.22    2.54
  -5 -13  -1    2.41    1.04
  -5  13  -1    0.52    1.08
  -5 -13  -1    3.09    0.95
  -5 -13  -1    1.92    0.75
  -5  13  -1    2.34    1.32
  -5  13  -2    1.81    1.41
  -5 -13  -2    3.53    1.01
  -5 -13  -2    2.80    0.83
   5 -13   2    4.44    1.45
  -5 -13  -3   35.98    2.52
  -5 -13  -3   20.44    1.84
  -5 -13  -3   27.56    1.96
   5 -13   3   41.50    3.06
  -5  13  -3   26.19    2.95
  -5  13  -4    0.36    0.70
  -5 -13  -4   -0.49    0.46
  -5 -13  -4    0.32    0.40
   5 -13   4    0.55    0.55
  -5  14   6    7.93    1.24
  -5 -14   6    5.86    0.99
  -5 -14   6    8.95    1.07
  -5 -14   5    2.48    0.80
  -5  14   5    0.77    0.73
  -5 -14   5    2.43    0.86
  -5 -14   5    2.26    0.80
  -5  14   4    8.97    1.39
  -5  14   4    9.97    1.81
  -5 -14   4   13.01    1.86
  -5 -14   4    8.35    1.41
  -5 -14   4   13.10    1.87
  -5  14   3    1.42    0.92
  -5 -14   3    0.25    0.56
  -5 -14   3    1.42    0.93
  -5  14   3    0.56    0.74
  -5  14   2   43.10    3.40
  -5 -14   2   43.45    2.90
  -5 -14   2   49.28    3.53
  -5 -14   2   47.08    3.43
  -5  14   2   50.24    3.66
  -5  14   1   -0.03    0.71
  -5  14   1    0.24    0.83
  -5 -14   1    0.52    0.64
  -5 -14   1    0.66    0.98
  -5 -14   1    0.59    0.69
  -5 -14   1    0.72    0.91
  -5  14   1    0.96    1.01
  -5  14   0    8.80    1.80
  -5  14   0    8.94    1.72
  -5 -14   0   12.32    1.85
  -5 -14   0   12.53    1.99
  -5  14   0    9.86    1.75
  -5 -14   0   10.60    1.64
  -5  14  -1    0.46    0.88
  -5  14  -1    0.80    0.99
  -5 -14  -1    0.40    0.84
   5 -14   1    1.75    1.11
  -5 -14  -1   -0.25    0.70
  -5 -14  -2   33.81    2.36
   5 -14   2   34.75    2.85
  -5  14  -2   21.62    2.62
  -5 -14  -2   30.76    2.41
  -5 -14  -3   -0.35    0.45
  -5  14  -3   -0.48    0.70
  -5 -14  -3    0.41    0.60
   5 -14   3    1.25    0.87
  -5  15   5   -1.34    0.69
  -5 -15   5    0.10    0.39
  -5  15   4    0.73    0.69
  -5 -15   4    1.17    0.78
  -5 -15   4    2.01    0.76
  -5  15   4    1.15    0.50
  -5 -15   3   59.42    3.40
  -5 -15   3   60.32    3.54
  -5  15   3   59.25    3.27
  -5  15   3   58.76    3.48
  -5  15   2    2.71    1.03
  -5 -15   2    3.37    0.77
  -5 -15   2    3.61    1.11
  -5 -15   2    4.17    1.02
  -5  15   2    3.48    1.09
  -5  15   1   21.42    2.28
  -5 -15   1   23.82    1.92
  -5 -15   1   21.98    2.15
  -5 -15   1   24.90    2.34
  -5  15   1   28.99    2.65
  -5  15   0    0.11    0.69
  -5 -15   0   -0.11    0.58
  -5 -15   0    0.16    0.66
  -5 -15   0   -0.11    0.79
  -5  15   0    0.87    0.85
  -5 -15   0    0.06    0.46
  -5 -15  -1   16.08    1.83
  -5  15  -1   21.56    2.16
   5 -15   1   26.96    2.30
  -5  15  -1   10.96    1.70
  -5 -15  -1   19.55    1.75
  -5  15  -2    0.48    0.66
  -5 -15  -2    2.71    0.84
   5 -15   2    1.71    0.87
  -5 -15  -2    1.91    0.66
  -5 -15  -3    8.07    1.00
  -5  15  -3    7.86    1.12
  -5 -16   4    1.99    0.50
  -5  16   4    2.41    0.66
  -5  16   3    0.31    0.45
  -5 -16   3    0.52    0.59
  -5 -16   3    0.61    0.52
  -5  16   3    0.67    0.45
  -5  16   2   54.48    2.97
  -5 -16   2   53.58    2.73
  -5  16   2   67.51    3.18
  -5 -16   1    5.42    0.77
  -5 -16   1    7.11    1.07
  -5  16   1    5.41    1.07
  -5 -16   1    4.77    0.93
  -5 -16   0    3.74    0.69
  -5 -16   0    2.71    0.71
  -5  16   0    3.05    0.89
   5 -16   0    2.66    0.88
  -5  16  -1    5.08    0.88
  -5 -16  -1    6.54    0.98
   5 -16   1   11.76    1.29
  -6   0  10    1.12    0.72
  -6   0   9    1.22    1.08
  -6   0   8   85.83    5.37
  -6   0   8   66.24    4.14
  -6   0   7    2.68    1.28
  -6   0   6    0.06    0.92
  -6   0   6    1.64    1.25
  -6   0   5   11.03    2.12
  -6   0   5    6.13    1.51
  -6   0   5   16.36    7.65
  -6   0   5   12.67    2.44
  -6   0   4  946.99   16.47
  -6   0   4  996.58   55.29
  -6   0   4  923.23   17.16
  -6   0   4  931.34   18.05
  -6   0   4  929.45   16.80
  -6   0   4  996.95   18.34
  -6   0   3   15.34    2.48
  -6   0   3   15.34    2.60
  -6   0   3   28.01    9.14
  -6   0   3   21.93    2.60
  -6   0   3   10.63    2.19
  -6   0   2   52.99    3.87
  -6   0   2   51.00    4.20
  -6   0   2   40.44   10.44
  -6   0   2   51.05    3.91
  -6   0   2   58.63    4.53
  -6   0   1    6.59    1.61
  -6   0   1    4.48    1.50
   6   0  -1    8.96    4.75
  -6   0   1    5.99    1.87
  -6   0   1    4.14    1.56
  -6   0   0  475.15   12.72
  -6   0   0  480.00   13.54
  -6   0   0  494.60   11.93
   6   0   0  473.88   34.60
  -6   0   0  467.47   11.90
  -6   0  -1    2.26    1.27
  -6   0  -1    0.69    0.90
  -6   0  -1    1.19    1.20
  -6   0  -1    1.54    1.32
   6   0   1   -5.06    4.35
  -6   0  -2   67.18    5.42
  -6   0  -2   58.70    4.97
   6   0   2   77.84   16.01
  -6   0  -2   61.65    4.29
  -6   0  -3    0.37    1.32
   6   0   3   -0.17    1.11
  -6   0  -4    1.66    1.43
   6   0   4    1.57    1.23
   6   0   5   -1.26    1.15
  -6   0  -5   -0.26    1.33
  -6   0  -6   28.05    2.87
   6   0   6   33.34    2.90
  -6   0  -7    0.36    0.55
  -6   1  10    9.18    1.21
  -6  -1  10    9.75    1.27
  -6   1   9   22.51    2.22
  -6  -1   9   15.47    1.90
  -6  -1   9   12.95    1.69
  -6   1   8   21.34    2.57
  -6   1   8   25.22    2.88
  -6  -1   8   20.52    2.57
  -6  -1   7   33.31    3.57
  -6   1   7   25.38    3.10
  -6   1   7   26.44    3.32
  -6  -1   7   22.09    2.76
  -6   1   6    0.95    0.81
  -6  -1   6    2.15    1.25
  -6  -1   6    2.01    1.29
  -6   1   6    3.73    1.44
  -6  -1   6    1.67    0.93
  -6   1   5  425.85   11.77
  -6   1   5  422.07   11.38
  -6   1   5  490.27   40.39
  -6  -1   5  410.72   11.66
  -6  -1   5  432.16   37.71
  -6   1   5  374.67   10.65
  -6  -1   5  387.62   11.27
  -6  -1   5  414.15   11.73
  -6   1   5  429.04   12.83
  -6   1   4    4.36    1.42
  -6  -1   4    1.33    0.79
  -6   1   4    2.60    1.62
  -6   1   4    1.63    0.81
  -6   1   4    2.13    1.08
  -6  -1   4    3.23    1.55
  -6   1   4   -1.33    2.83
  -6  -1   4   -3.10    3.48
  -6  -1   4    2.88    1.33
  -6   1   4    2.58    1.00
  -6  -1   4    2.00    1.33
  -6  -1   4    2.07    0.80
  -6  -1   3  339.13   11.05
  -6   1   3  314.93   10.11
  -6   1   3  330.89   31.21
  -6  -1   3  318.10   30.75
  -6  -1   3  333.62   10.66
  -6   1   3  325.25    9.70
  -6  -1   3  330.45   10.21
  -6  -1   3  317.94   10.36
  -6   1   3  343.82   11.08
  -6   1   3  338.22   11.37
  -6  -1   3  322.04    9.91
  -6   1   3  329.68   10.00
  -6   1   3  351.46   10.92
  -6  -1   2  165.38    7.79
  -6   1   2  144.27    6.77
  -6   1   2  150.03   20.28
  -6  -1   2  179.21   22.68
  -6  -1   2  154.36    6.88
  -6  -1   2  147.52   16.81
  -6  -1   2  159.12    7.44
  -6   1   2  157.98    7.46
  -6   1   2  162.16    7.63
  -6  -1   2  158.28    6.81
  -6  -1   2  161.02    7.38
  -6   1   2  159.69    6.82
  -6  -1   1  145.23    7.39
  -6  -1   1  140.28    7.00
  -6   1   1  133.03   18.56
  -6  -1   1  145.46    6.67
  -6  -1   1  137.47   17.31
  -6  -1   1  135.06    7.07
  -6   1   1  128.12    6.93
   6  -1  -1  125.20   16.44
  -6   1   1  119.58    6.16
  -6  -1   1  139.91    6.52
  -6  -1   0   65.18    4.80
  -6   1   0   62.57    4.71
  -6  -1   0   60.02    4.96
  -6   1   0   62.44    4.93
  -6  -1   0   60.95    4.35
  -6  -1   0   63.11    4.50
  -6  -1   0   56.42   12.04
   6  -1   0   57.40   11.58
  -6  -1   0   59.77    4.33
  -6  -1   0   65.32    4.96
  -6   1   0   56.28    4.37
  -6  -1  -1  155.14    7.85
  -6   1  -1  180.85    8.21
  -6  -1  -1  140.71    7.69
  -6   1  -1  169.97    8.23
   6  -1   1  192.87   23.20
  -6  -1  -1  160.06    6.94
  -6   1  -1  175.89    6.99
  -6   1  -1  171.21    7.32
   6   1   1  151.46   21.17
  -6  -1  -2   89.03    6.23
  -6   1  -2   85.83    6.08
  -6   1  -2   73.22    5.37
   6   1   2  102.01   18.14
   6  -1   2   79.93   16.06
  -6   1  -2   81.25    5.07
  -6  -1  -3    5.35    1.90
  -6   1  -3    3.91    1.84
  -6  -1  -4   10.68    2.77
  -6   1  -4   14.12    2.88
   6  -1   4   14.75    2.44
   6   1   5   19.63    2.48
   6  -1   5   18.69    2.63
  -6   1  -5   18.70    3.29
  -6  -1  -6    1.89    0.74
   6   1   6    3.69    1.13
   6  -1   6    3.45    1.17
  -6  -1  -7    1.43    0.51
  -6   1  -7    1.56    0.60
  -6  -1  -7    1.13    0.62
   6  -1   7    2.11    0.76
  -6   2  10    7.56    1.07
  -6  -2  10    7.07    1.03
  -6   2   9    1.87    1.10
  -6   2   9    1.36    0.73
  -6  -2   9    1.45    0.84
  -6  -2   9    1.82    0.96
  -6   2   8   37.89    3.57
  -6   2   8   41.60    3.53
  -6  -2   8   36.87    3.33
  -6  -2   7    6.78    1.78
  -6   2   7    7.03    1.85
  -6   2   7    6.74    1.80
  -6  -2   7    7.47    1.50
  -6   2   6  185.22    7.62
  -6  -2   6  202.12    8.70
  -6  -2   6  259.97    9.65
  -6   2   6  185.40    8.66
  -6   2   6  174.75    8.61
  -6  -2   6  192.77    7.92
  -6   2   5  187.77    7.88
  -6   2   5  209.94   27.01
  -6   2   5  183.62    7.59
  -6  -2   5  185.11    8.01
  -6  -2   5  208.50   26.08
  -6   2   5  178.86    7.76
  -6  -2   5  171.88    7.69
  -6   2   5  210.97    9.14
  -6   2   5  174.80    8.70
  -6  -2   4   60.32    4.65
  -6   2   4   63.47    4.52
  -6   2   4   67.86   15.14
  -6   2   4   56.66    4.08
  -6  -2   4   57.75    4.51
  -6  -2   4   54.49    4.39
  -6   2   4   68.84    5.15
  -6  -2   4   54.06   12.95
  -6   2   4   65.42    5.13
  -6   2   4   70.19    4.61
  -6  -2   4   61.75    4.78
  -6  -2   3  132.36    6.97
  -6   2   3  130.76   19.61
  -6   2   3  132.86    7.29
  -6   2   3  130.82    6.01
  -6  -2   3  120.64    6.41
  -6  -2   3  131.08    6.56
  -6   2   3  138.63    7.15
  -6   2   3  125.02    6.55
  -6  -2   3  132.97    6.31
  -6   2   3  136.34    6.50
  -6  -2   3  126.40    6.68
  -6  -2   2  508.32   13.79
  -6   2   2  456.56   12.12
  -6   2   2  501.08   37.49
  -6  -2   2  504.39   12.74
  -6  -2   2  469.33   31.31
  -6  -2   2  491.99   13.11
  -6   2   2  493.75   13.36
  -6   2   2  482.35   13.41
  -6  -2   2  487.57   12.17
  -6  -2   2  497.58   13.06
  -6   2   2  482.87   12.15
  -6   2   1  189.83    7.85
  -6  -2   1  175.18    8.28
  -6   2   1  174.20   21.23
  -6  -2   1  170.33    7.49
  -6  -2   1  174.34   20.18
  -6   2   1  191.98    8.49
  -6  -2   1  166.56    7.10
   6  -2  -1  172.30   18.91
  -6  -2   1  181.48    7.98
  -6   2   1  186.90    7.69
  -6  -2   0   41.65    4.06
  -6   2   0   52.03    4.33
  -6  -2   0   37.50    4.00
  -6   2   0   50.27    4.42
  -6  -2   0   40.98    3.97
  -6  -2   0   40.51    3.60
  -6  -2   0   43.98    4.08
  -6   2   0   56.42    4.78
   6  -2   0   49.11   11.11
  -6  -2   0   38.60   10.07
  -6  -2   0   45.31    3.74
  -6   2   0   50.89    4.25
  -6  -2  -1   46.35    4.51
  -6   2  -1   46.89    4.38
  -6  -2  -1   46.63    4.52
  -6   2  -1   48.73    4.40
  -6  -2  -1   45.78    3.96
   6  -2   1   49.05   11.58
  -6  -2  -1   49.51    3.87
  -6  -2  -1   40.52   10.97
  -6  -2  -1   47.33    4.38
  -6   2  -1   39.66    3.81
  -6  -2  -2   65.31    5.45
  -6   2  -2   59.93    5.14
   6   2   2   67.52   14.76
   6  -2   2   54.64   13.66
  -6  -2  -2   63.64    4.98
  -6   2  -2   60.45    4.47
  -6  -2  -3    2.27    1.75
  -6   2  -3    3.63    1.99
  -6  -2  -3    1.58    1.03
  -6  -2  -4    3.10    1.97
  -6   2  -4    5.25    2.10
   6  -2   4    3.74    1.75
  -6   2  -5   -0.21    1.18
  -6  -2  -5   -0.12    1.01
   6  -2   5   -0.50    1.06
  -6  -2  -6    4.58    1.15
   6  -2   6    6.20    1.37
  -6   2  -7    1.39    0.58
   6  -2   7    3.34    0.81
  -6  -2  -7    3.01    0.76
  -6   3  10    1.80    0.66
  -6  -3  10    0.52    0.63
  -6   3   9   -0.29    0.80
  -6   3   9   -0.14    0.85
  -6  -3   9   -0.35    0.60
  -6  -3   9   -1.16    0.72
  -6   3   8    6.76    1.56
  -6   3   8    6.08    1.69
  -6   3   8    3.18    1.14
  -6  -3   8    5.85    1.48
  -6  -3   7  128.59    6.97
  -6   3   7  125.53    7.08
  -6   3   7  116.55    6.68
  -6  -3   7  131.15    6.59
  -6   3   6    1.55    1.00
  -6  -3   6    4.30    1.61
  -6   3   6    0.46    0.94
  -6  -3   6   81.02    6.07
  -6   3   6    1.34    1.44
  -6   3   5    6.12    1.60
  -6  -3   5    8.49    1.94
  -6  -3   5    6.71    1.71
  -6  -3   5    9.60    2.45
  -6   3   5    7.88    5.00
  -6   3   5   10.94    2.32
  -6   3   5    7.61    2.11
  -6   3   4    8.47    1.89
  -6  -3   4    6.73    1.57
  -6   3   4    6.48    1.54
  -6   3   4    5.09    1.30
  -6  -3   4    6.44    1.57
  -6  -3   4    9.59    2.48
  -6   3   4    2.98    3.96
  -6   3   4    8.08    1.93
  -6   3   4    5.99    1.76
  -6  -3   4    5.68    1.81
  -6  -3   3  120.17    6.16
  -6  -3   3  123.99    6.90
  -6   3   3  105.99    6.05
  -6   3   3  104.37   18.25
  -6  -3   3  135.01    6.27
  -6   3   3  107.92    5.45
  -6  -3   3  116.65    6.47
  -6  -3   3  126.08    6.48
  -6   3   3  112.96    6.62
  -6   3   3  112.33    6.90
  -6  -3   3  113.03    6.47
  -6   3   3  117.67    6.19
  -6  -3   3  110.61    5.25
  -6  -3   2  195.72    8.79
  -6   3   2  206.69    8.28
  -6   3   2  192.82    8.13
  -6   3   2  209.28   24.48
  -6  -3   2  223.99    7.75
  -6  -3   2  194.97    8.34
  -6  -3   2  180.89   20.14
  -6  -3   2  198.37    8.32
  -6   3   2  208.92    8.95
  -6   3   2  196.84    8.79
  -6  -3   2  193.84    7.99
  -6  -3   2  200.07    8.43
  -6   3   2  212.93    8.32
  -6  -3   1  469.70   13.83
  -6   3   1  489.58   12.97
  -6   3   1  479.03   12.67
  -6   3   1  489.86   35.85
  -6  -3   1  479.78   12.12
  -6  -3   1  468.87   13.09
  -6  -3   1  460.09   34.20
  -6   3   1  489.59   13.75
  -6   3   1  449.29   12.95
  -6  -3   1  462.86   12.09
  -6  -3   1  467.62   12.93
  -6   3   1  512.35   13.03
   6  -3  -1  514.53   33.00
  -6  -3   0   53.70    4.62
  -6   3   0   49.68    4.39
  -6  -3   0   46.05    4.50
  -6  -3   0   57.04    4.32
  -6  -3   0   49.50    4.66
  -6   3   0   46.19    4.51
  -6  -3   0   51.29    3.71
  -6  -3   0   53.45   12.24
  -6  -3   0   54.37    4.18
  -6  -3   0   56.00    4.55
   6  -3   0   58.32   12.09
  -6   3   0   43.67    4.34
  -6  -3  -1    8.51    1.99
  -6  -3  -1   35.61    4.76
  -6   3  -1    7.93    1.89
  -6   3  -1    6.39    1.75
  -6  -3  -1    7.30    2.21
  -6   3  -1    9.88    2.13
  -6  -3  -1   10.73    2.17
  -6  -3  -1    8.16    1.72
   6  -3   1    9.31    5.48
  -6  -3  -1    3.12    4.04
  -6  -3  -1   11.07    2.15
  -6   3  -2    6.27    1.78
  -6  -3  -2    2.93    1.35
  -6   3  -2    4.96    1.88
  -6  -3  -2    3.62    1.57
   6  -3   2   14.89    7.06
  -6  -3  -2   11.46    6.50
  -6  -3  -2    1.96    1.18
  -6   3  -3  294.78   11.77
  -6  -3  -3  255.94    9.96
  -6  -3  -3  267.97    9.65
  -6   3  -3  253.31    9.18
  -6  -3  -3  284.21   12.36
  -6   3  -4    1.84    1.56
  -6  -3  -4   -0.06    0.89
   6  -3   4    1.65    1.51
  -6  -3  -4    2.47    1.94
  -6   3  -5   -0.51    1.06
  -6  -3  -5    0.64    1.02
   6  -3   5    0.25    1.02
  -6  -3  -6    0.40    0.66
   6  -3   6    0.21    1.00
  -6  -3  -6   -0.28    0.74
  -6   3  -7   20.05    1.82
   6   3   7   28.33    1.71
   6  -3   7   27.29    2.02
  -6  -3  -7   23.76    1.81
  -6   4   9    6.28    1.22
  -6   4   9    3.04    1.01
  -6  -4   9    4.79    1.14
  -6  -4   9    3.63    1.05
  -6   4   8    0.91    0.93
  -6   4   8    1.30    1.23
  -6  -4   8    0.89    0.77
  -6   4   7   19.28    2.77
  -6   4   7   20.41    2.58
  -6   4   7   19.68    2.31
  -6  -4   7   18.40    2.72
  -6   4   7   17.91    2.91
  -6  -4   7   14.92    2.55
  -6   4   6   97.75    5.96
  -6  -4   6   91.71    6.06
  -6  -4   6  151.82    7.27
  -6  -4   6   91.21    6.71
  -6   4   6   96.41    6.58
  -6   4   6   98.21    6.37
  -6   4   5   42.82    4.04
  -6  -4   5   40.96    3.84
  -6  -4   5   49.13    4.81
  -6   4   5   51.71   14.60
  -6   4   5   46.48    4.57
  -6   4   5   41.67    4.24
  -6   4   4   93.21    5.86
  -6   4   4  111.12   19.81
  -6   4   4  107.66    5.87
  -6  -4   4   98.40    6.17
  -6  -4   4  115.63    7.17
  -6   4   4   96.88    6.43
  -6   4   4  100.37    6.52
  -6   4   4  109.64    6.05
  -6   4   3    3.37    1.39
  -6  -4   3    2.49    1.00
  -6   4   3   -0.36    1.12
  -6   4   3    3.85    1.06
  -6  -4   3    6.33    1.59
  -6  -4   3    4.73    1.52
  -6  -4   3    6.09    1.98
  -6   4   3    8.43    5.54
  -6   4   3    4.49    1.66
  -6   4   3    3.34    1.48
  -6  -4   3    3.25    1.27
  -6  -4   3    5.97    1.44
  -6  -4   2  133.27    7.48
  -6   4   2  157.83    7.51
  -6   4   2  153.38   21.58
  -6  -4   2  144.35    6.96
  -6  -4   2  151.59    6.72
  -6  -4   2  149.71    7.66
  -6  -4   2  126.51   17.43
  -6   4   2  161.72    8.06
  -6   4   2  155.69    8.12
  -6  -4   2  146.28    7.09
  -6  -4   2  143.99    7.35
  -6   4   2  173.33    7.88
  -6  -4   2  146.56    6.33
  -6  -4   1   53.66    4.90
  -6   4   1   63.28    4.96
  -6   4   1   58.50    4.48
  -6  -4   1   66.91    4.77
  -6  -4   1   63.69    5.13
  -6  -4   1   69.74    4.66
  -6  -4   1   82.54   14.66
  -6   4   1   63.49    5.12
  -6   4   1   47.09   11.68
  -6  -4   1   67.55    4.27
  -6  -4   1   65.30    4.96
  -6  -4   1   62.24    4.64
  -6   4   1   60.98    4.87
  -6   4   1   55.84    4.95
  -6  -4   0   27.26    3.49
  -6  -4   0   30.63    4.14
  -6   4   0   24.35    3.23
  -6  -4   0   27.67    3.18
  -6   4   0   21.99    3.21
  -6  -4   0   30.13    2.97
  -6  -4   0   24.65    3.00
  -6  -4   0   29.02   10.07
  -6  -4   0   28.73    3.29
   6  -4   0   35.39    9.43
  -6   4   0   25.12    3.33
  -6   4  -1    2.87    1.35
  -6  -4  -1    3.10    1.62
  -6   4  -1    5.40    1.73
  -6   4  -1    2.36    1.26
  -6  -4  -1    2.78    1.28
  -6  -4  -1    2.95    1.20
  -6  -4  -1   13.14    6.66
   6  -4   1    2.41    3.09
  -6  -4  -1    3.20    1.43
  -6   4  -2  247.67   10.53
  -6  -4  -2  227.34    9.19
  -6  -4  -2  275.77   30.88
  -6  -4  -2  218.52    8.41
  -6  -4  -2  229.54    9.13
  -6   4  -2  229.40    9.43
   6  -4   2  247.13   28.81
  -6  -4  -2  230.11   10.90
  -6   4  -3   34.74    4.17
  -6  -4  -3   33.10    3.75
  -6   4  -3   26.27    3.22
  -6  -4  -3   34.88    4.68
  -6   4  -4   10.70    2.58
  -6  -4  -4    5.84    1.86
  -6   4  -5    4.26    1.70
  -6  -4  -5    5.59    1.50
   6  -4   5    4.12    1.73
  -6  -4  -5    5.86    1.54
  -6  -4  -6   45.18    3.07
   6  -4   6   55.38    3.83
  -6  -4  -6   50.64    3.38
  -6   4  -7    0.29    0.42
   6  -4   7    1.03    0.60
  -6  -4  -7    0.85    0.52
  -6   5   9   47.82    2.78
  -6   5   9   44.63    3.23
  -6  -5   9   42.15    3.18
  -6   5   8    1.84    0.88
  -6   5   8    1.55    1.13
  -6  -5   8    0.50    0.95
  -6   5   7    9.56    1.93
  -6   5   7    9.12    1.61
  -6  -5   7    8.28    2.03
  -6  -5   7    8.55    2.40
  -6   5   7    9.04    2.13
  -6   5   7    7.05    1.62
  -6  -5   7    9.41    1.99
  -6   5   6   71.16    5.21
  -6   5   6   70.39    4.05
  -6  -5   6   75.07    5.63
  -6  -5   6  144.41    7.22
  -6  -5   6   76.88    6.25
  -6   5   6   63.81    5.54
  -6   5   6   63.91    5.16
  -6   5   5  136.64    7.22
  -6  -5   5  128.87    6.76
  -6  -5   5  148.35    8.37
  -6   5   5  133.37    7.79
  -6  -5   5  134.80    6.33
  -6   5   5  127.52    7.54
  -6   5   4   17.59    2.89
  -6  -5   4   19.74    2.90
  -6   5   4   23.13    9.98
  -6  -5   4   19.97    3.18
  -6   5   4   15.78    2.94
  -6   5   4   17.62    2.93
  -6   5   3    6.83    1.84
  -6  -5   3    7.15    1.50
  -6   5   3    7.48    2.03
  -6  -5   3    9.32    1.94
  -6  -5   3    8.47    1.90
  -6   5   3    8.40    6.84
  -6  -5   3    8.70    1.94
  -6   5   3    7.22    2.34
  -6   5   3    5.83    1.83
  -6  -5   3    6.68    1.90
  -6  -5   3    7.07    1.64
  -6  -5   2    1.77    1.34
  -6   5   2    7.44    2.13
  -6   5   2    4.44    1.58
  -6  -5   2    3.68    1.83
  -6  -5   2    4.75    1.62
  -6  -5   2    5.13    2.14
  -6   5   2    0.60    2.09
  -6   5   2    5.40    1.91
  -6   5   2    3.67    1.92
  -6  -5   2    6.87    4.54
  -6  -5   2    2.51    1.31
  -6  -5   2    1.79    1.03
  -6  -5   1  121.37    7.91
  -6   5   1  139.33    7.50
  -6   5   1  135.59    7.09
  -6   5   1  115.34   18.23
  -6  -5   1  127.73    6.65
  -6  -5   1  106.99    7.01
  -6  -5   1  127.36    6.53
  -6  -5   1  126.86   19.17
  -6   5   1  123.00    7.39
  -6  -5   1  120.43    5.82
  -6  -5   1  125.58    6.97
  -6   5   1  141.22    7.50
  -6  -5   0    0.08    1.34
  -6   5   0    2.39    1.39
  -6   5   0    2.72    1.23
  -6  -5   0    0.84    1.16
  -6   5   0    1.84    1.28
  -6  -5   0    2.18    1.14
  -6  -5   0    4.86    4.32
  -6  -5   0   -0.15    0.88
   6  -5   0    6.95    4.73
   6  -5   1  129.27   20.66
  -6   5  -1  122.39    7.20
  -6  -5  -1  129.71    6.83
  -6  -5  -1  130.43   20.92
  -6  -5  -1  120.53    6.18
  -6  -5  -1  134.42    7.12
  -6   5  -1  129.49    7.44
  -6  -5  -1  114.92    7.47
  -6  -5  -2    3.86    1.95
  -6   5  -2    1.68    1.49
  -6   5  -2    2.27    1.34
  -6  -5  -2    1.11    1.05
  -6  -5  -2    1.60    1.36
  -6  -5  -2    1.19    0.97
  -6   5  -3   20.71    3.30
  -6  -5  -3   15.80    2.59
  -6  -5  -3   15.67    2.40
  -6   5  -3   17.40    2.91
  -6   5  -4   -0.69    0.83
  -6   5  -4    0.92    1.50
  -6  -5  -4   -0.69    0.97
  -6  -5  -4   -0.93    1.20
  -6  -5  -5   80.56    4.79
   6  -5   5   88.57    5.52
  -6  -5  -5   80.66    4.75
  -6   5  -5   59.92    4.81
  -6  -5  -6   -0.61    0.50
   6   5   6    0.20    0.65
   6  -5   6    1.29    1.09
  -6  -5  -6    0.64    0.78
  -6   6   9    3.60    1.22
  -6  -6   9    3.45    1.03
  -6   6   8   66.85    3.54
  -6   6   8   73.81    4.95
  -6  -6   8   67.35    4.52
  -6   6   7   60.02    4.48
  -6   6   7   66.27    3.77
  -6  -6   7   68.35    5.10
  -6  -6   7   68.23    5.59
  -6   6   7   65.54    5.30
  -6  -6   7   51.44    4.53
  -6   6   6   25.78    3.52
  -6   6   6   22.74    3.06
  -6  -6   6   21.92    3.26
  -6  -6   6   26.32    3.66
  -6   6   6   26.20    3.65
  -6   6   5    7.30    2.14
  -6  -6   5    4.86    1.40
  -6  -6   5   12.36    2.69
  -6   6   5    8.29    2.33
  -6  -6   5    4.65    1.28
  -6   6   5    4.24    1.72
  -6   6   4  303.93   11.03
  -6   6   4  276.11   32.98
  -6  -6   4  307.00   10.48
  -6  -6   4  316.30   11.97
  -6   6   4  291.56   11.47
  -6   6   4  271.48   11.09
  -6   6   3    7.29    1.99
  -6   6   3    6.08    2.01
  -6  -6   3    6.67    2.02
  -6  -6   3    5.20    1.85
  -6   6   3   -0.04    5.27
  -6  -6   3    8.68    2.20
  -6   6   3    4.95    1.86
  -6   6   3    8.94    2.64
  -6  -6   3    3.47    1.44
  -6   6   2  142.75    7.42
  -6   6   2  107.31   18.82
  -6  -6   2  135.73    7.10
  -6  -6   2  135.94    7.35
  -6  -6   2  145.72   20.67
  -6   6   2  134.34    7.59
  -6  -6   2  128.21    7.39
  -6   6   2  128.72    7.66
  -6  -6   2  114.97    6.23
  -6   6   1   60.86    5.21
  -6   6   1   59.23    4.83
  -6  -6   1   66.70    4.99
  -6  -6   1   59.97    5.30
  -6  -6   1   66.04    5.07
  -6   6   1   57.24    5.02
  -6  -6   1   66.43    4.54
  -6  -6   1   58.06   13.82
  -6  -6   1   59.56    5.04
  -6   6   1   58.03    5.42
  -6   6   0  487.03   14.65
  -6   6   0  514.03   13.61
   6  -6   0  399.95   33.55
  -6  -6   0  524.58   13.72
  -6  -6   0  507.10   41.60
  -6   6   0  452.17   13.90
  -6  -6   0  481.03   12.28
  -6  -6   0  497.67   13.86
  -6   6   0  506.06   15.19
   6  -6   1   37.76   11.46
  -6   6  -1   38.06    4.41
  -6  -6  -1   47.07    4.28
  -6  -6  -1   44.51    4.03
  -6  -6  -1   40.31   11.85
  -6  -6  -1   45.62    4.21
  -6   6  -1   46.56    4.75
  -6  -6  -1   38.99    4.70
  -6   6  -2   62.07    5.45
  -6  -6  -2   64.25    5.14
  -6  -6  -2   62.48    4.69
  -6   6  -2   56.13    5.54
   6  -6   2   54.06    4.42
  -6   6  -3   -1.11    1.04
  -6   6  -3   -0.78    1.31
  -6  -6  -3    0.03    1.08
  -6  -6  -3    0.88    1.06
   6  -6   3    0.61    1.16
  -6   6  -4   19.40    3.02
  -6  -6  -4   18.70    2.67
  -6  -6  -4   16.85    2.46
  -6   6  -4   16.58    2.32
  -6  -6  -5    0.29    0.71
   6   6   5    2.79    1.06
   6  -6   5    1.19    1.37
  -6  -6  -5    2.75    1.24
  -6  -6  -6   74.64    3.08
  -6  -6  -6   59.57    2.89
   6   6   6   83.14    3.46
   6  -6   6   91.45    4.51
  -6  -6  -6   70.64    3.52
  -6   7   9   14.76    1.72
  -6  -7   9   11.95    1.53
  -6   7   8    4.02    1.39
  -6  -7   8    3.57    1.29
  -6   7   7    1.62    1.15
  -6  -7   7    1.08    0.84
  -6  -7   7    3.16    1.59
  -6   7   7    0.49    1.36
  -6  -7   7    0.00    1.06
  -6   7   6   18.32    3.00
  -6  -7   6   16.78    2.84
  -6  -7   6   22.17    3.48
  -6   7   6   17.99    2.95
  -6   7   5   97.89    6.44
  -6  -7   5   95.75    5.52
  -6  -7   5   91.91    5.20
  -6  -7   5  102.54    7.10
  -6   7   5  100.63    6.85
  -6  -7   5   92.42    5.56
  -6   7   4    1.44    1.55
  -6  -7   4    2.66    1.77
  -6  -7   4    2.88    1.11
  -6  -7   4    2.36    1.09
  -6  -7   4    1.27    1.55
  -6   7   4    1.02    1.44
  -6   7   4   91.92    7.40
  -6   7   3    3.16    1.11
  -6   7   3    1.60    1.64
  -6  -7   3    4.27    1.70
  -6  -7   3    4.03    1.48
  -6   7   3   -0.51    4.96
  -6  -7   3    2.89    1.29
  -6   7   3    1.70    1.44
  -6  -7   3    3.11    1.54
  -6   7   2  158.13    8.08
  -6   7   2  109.17   19.09
  -6  -7   2  158.27    7.60
  -6  -7   2  138.36    7.81
  -6  -7   2  132.55   20.64
  -6   7   2  158.25    8.24
  -6   7   2  167.60    8.46
  -6  -7   2  145.62    7.10
  -6   7   1   37.57    4.31
  -6   7   1   36.38    3.91
  -6  -7   1   36.49    3.99
  -6  -7   1   39.69    4.04
  -6  -7   1   38.15    3.90
  -6   7   1   33.61    3.92
  -6  -7   1   28.18    8.63
  -6  -7   1   34.82    3.95
  -6   7   1   33.87    4.53
  -6  -7   1   38.20    3.70
  -6   7   0   36.13    4.15
  -6   7   0   38.00    3.84
  -6  -7   0   39.75    4.07
  -6  -7   0   45.16    4.48
  -6   7   0   35.90    3.92
  -6  -7   0   39.79    3.72
  -6  -7   0   38.14   11.25
  -6   7   0   38.13    3.40
  -6  -7   0   37.36    3.95
  -6   7   0   38.36    4.75
  -6   7  -1  210.06    9.95
  -6  -7  -1  215.25    9.08
  -6  -7  -1  221.83    8.68
  -6  -7  -1  224.44    9.22
  -6   7  -1  224.83   10.51
  -6   7  -2   70.28    5.76
  -6  -7  -2   71.85    5.31
  -6  -7  -2   63.68    4.87
  -6   7  -2   64.66    5.60
   6  -7   2   59.37    4.53
  -6   7  -3    5.60    1.78
  -6   7  -3    4.63    1.93
  -6  -7  -3    4.73    1.29
  -6  -7  -3    6.27    1.77
   6   7   3    6.56    1.45
  -6  -7  -3    4.07    1.62
   6  -7   3    3.63    1.33
  -6   7  -4    8.63    1.96
  -6   7  -4    6.74    1.73
  -6  -7  -4    8.76    1.65
   6   7   4    9.71    1.57
  -6  -7  -4    8.07    1.77
   6  -7   4    8.22    1.61
  -6  -7  -5   72.09    3.59
  -6  -7  -5   70.21    3.95
   6   7   5   77.06    3.81
   6  -7   5   94.76    5.41
  -6  -7  -5   81.13    4.39
  -6  -7  -6    0.71    0.61
   6   7   6    0.31    0.54
   6  -7   6    2.02    0.95
  -6  -7  -6    1.21    0.57
  -6   8   9    0.67    0.48
  -6  -8   9    1.48    0.57
  -6   8   8    1.84    1.10
  -6  -8   8    1.33    1.01
  -6   8   7    0.00    0.92
  -6  -8   7    0.01    0.78
  -6  -8   7    0.25    1.11
  -6   8   7   -0.09    1.05
  -6  -8   7    0.51    1.01
  -6   8   6   75.00    5.40
  -6  -8   6   74.56    5.48
  -6  -8   6   75.53    4.52
  -6  -8   6   78.37    5.99
  -6   8   6   81.40    5.85
  -6  -8   6   73.43    4.90
  -6   8   5    7.26    2.13
  -6  -8   5    7.97    1.78
  -6  -8   5    4.10    1.78
  -6   8   5    7.89    2.36
  -6  -8   5    4.22    1.39
  -6   8   4    3.02    1.86
  -6  -8   4    0.49    1.58
  -6  -8   4    1.94    0.90
  -6  -8   4    4.15    1.69
  -6   8   4    2.99    1.58
  -6  -8   4    0.47    0.91
  -6   8   3   13.73    2.57
  -6   8   3   20.13    3.16
  -6  -8   3   14.99    2.41
  -6  -8   3   18.21    3.02
  -6  -8   3   15.34    2.70
  -6   8   3   19.89    3.06
  -6  -8   3   16.51    2.52
  -6   8   2   22.57    3.29
  -6  -8   2   27.61    3.36
  -6  -8   2   32.58    3.67
  -6   8   2   21.88    3.33
  -6   8   2   25.30    3.44
  -6  -8   2   27.84    3.31
  -6  -8   1    7.15    1.78
  -6   8   1    9.56    2.84
  -6   8   1   11.45    2.43
  -6   8   1   13.07    2.59
  -6  -8   1    9.92    2.41
  -6  -8   1    7.29    2.01
  -6   8   1    8.42    2.23
  -6   8   0   67.41    5.89
  -6   8   0   67.13    5.06
  -6  -8   0   55.32    4.94
  -6  -8   0   57.84    4.78
  -6  -8   0   58.41    4.57
  -6   8   0   65.36    4.57
  -6   8   0   62.65    6.04
  -6   8  -1   47.81    4.70
  -6  -8  -1   41.93    4.26
  -6  -8  -1   42.83    4.01
  -6   8  -1   50.99    5.15
  -6   8  -2   43.11    4.45
  -6  -8  -2   45.09    3.29
  -6  -8  -2   42.44    4.17
  -6  -8  -2   43.49    4.13
   6  -8   2   39.37    3.86
  -6   8  -2   40.90    4.61
  -6   8  -3   10.07    2.38
  -6   8  -3   11.89    2.24
  -6  -8  -3   11.14    1.73
  -6  -8  -3   13.06    2.28
   6   8   3   12.89    1.82
  -6  -8  -3   13.34    2.31
   6  -8   3   16.00    2.39
  -6   8  -4    9.57    1.87
  -6  -8  -4   13.87    1.73
  -6  -8  -4   11.99    2.02
   6   8   4   12.18    1.66
  -6  -8  -4   13.03    2.12
   6  -8   4   11.85    1.86
  -6  -8  -5    2.02    0.77
  -6  -8  -5    1.65    0.76
   6   8   5    3.10    0.90
   6  -8   5    3.65    1.32
  -6  -8  -5    1.11    0.77
  -6  -8  -6   19.09    1.60
   6  -8   6   31.13    2.20
  -6   9   8    2.71    0.94
  -6  -9   8    3.68    0.99
  -6   9   7   18.89    2.55
  -6  -9   7   19.41    2.33
  -6  -9   7   17.84    2.60
  -6   9   7   17.56    2.54
  -6  -9   7   19.19    2.43
  -6   9   6    8.72    1.91
  -6  -9   6   10.49    2.11
  -6  -9   6    8.86    1.55
  -6  -9   6   10.54    2.30
  -6   9   6    9.63    2.22
  -6  -9   6    8.05    1.69
  -6   9   5   38.26    4.15
  -6  -9   5   41.65    3.56
  -6  -9   5   33.43    3.99
  -6   9   5   30.70    3.65
  -6  -9   5   35.24    3.55
  -6  -9   4   45.74    4.22
  -6   9   4   58.92    5.19
  -6  -9   4   57.24    4.41
  -6  -9   4   50.17    4.76
  -6   9   4   58.73    5.13
  -6   9   3    6.51    1.86
  -6   9   3    7.76    2.03
  -6  -9   3   10.24    2.42
  -6  -9   3   12.42    1.99
  -6  -9   3    7.88    1.94
  -6   9   3    9.47    2.19
  -6  -9   3    9.46    2.03
  -6   9   2   40.04    4.38
  -6  -9   2   35.30    3.47
  -6  -9   2   42.24    4.28
  -6   9   2   33.34    3.68
  -6   9   2   39.22    4.14
  -6  -9   2   39.58    3.76
  -6   9   1   37.07    4.52
  -6   9   1   43.14    4.34
  -6  -9   1   46.80    4.20
  -6  -9   1   55.01    4.74
  -6   9   1   38.52    3.57
  -6   9   1   37.13    4.62
  -6  -9   1   45.95    4.05
  -6   9   0   10.71    2.70
  -6   9   0   13.56    2.77
  -6  -9   0    5.08    1.64
  -6   9   0    6.83    1.75
  -6   9  -1   12.34    2.76
  -6   9  -1   14.38    2.60
  -6  -9  -1    9.03    2.31
  -6  -9  -1   11.08    2.11
  -6   9  -1   11.70    2.14
  -6   9  -2   -1.06    1.51
  -6   9  -2    0.72    1.35
  -6  -9  -2    0.18    0.66
  -6  -9  -2    0.72    0.96
   6   9   2    0.12    0.79
  -6  -9  -2    0.42    1.10
   6  -9   2    0.98    1.09
  -6   9  -3   57.46    4.47
  -6  -9  -3   55.69    3.48
  -6  -9  -3   57.21    4.29
   6   9   3   57.78    3.51
  -6  -9  -3   61.16    4.43
   6  -9   3   58.54    4.29
  -6   9  -3   45.91    4.43
  -6   9  -4    0.19    0.93
  -6  -9  -4    0.03    0.55
  -6  -9  -4   -0.20    0.72
   6   9   4    0.18    0.71
  -6  -9  -4   -0.13    0.75
   6  -9   4    0.00    0.86
  -6  -9  -5    5.98    0.88
   6   9   5    5.12    0.88
  -6  -9  -5    5.65    1.07
   6  -9   5    9.65    1.59
  -6  10   8    3.96    0.92
  -6 -10   8    5.01    0.98
  -6  10   7    6.97    1.51
  -6 -10   7    5.11    1.08
  -6 -10   7    6.31    1.51
  -6  10   7    5.93    1.38
  -6 -10   7    5.80    1.31
  -6  10   6   61.30    4.60
  -6 -10   6   55.43    3.99
  -6 -10   6   50.50    3.35
  -6 -10   6   50.21    4.34
  -6  10   6   50.64    4.11
  -6 -10   6   46.28    3.55
  -6  10   5   16.63    2.81
  -6 -10   5   14.18    2.05
  -6 -10   5   16.18    2.70
  -6  10   5   13.51    2.34
  -6 -10   5   14.73    2.26
  -6  10   4   10.47    2.56
  -6 -10   4   10.35    2.05
  -6 -10   4   13.38    2.52
  -6  10   4    7.61    1.95
  -6 -10   4   10.73    2.01
  -6  10   3   14.85    2.73
  -6 -10   3   22.00    3.00
  -6  10   3   15.58    2.51
  -6 -10   3   14.89    2.41
  -6  10   2   72.09    5.56
  -6 -10   2   48.04    3.80
  -6 -10   2   71.95    5.27
  -6  10   2   61.92    4.26
  -6  10   2   60.69    4.97
  -6 -10   2   67.27    4.71
  -6  10   1   50.19    4.96
  -6  10   1   54.20    4.59
  -6 -10   1   46.34    3.89
  -6 -10   1   60.08    4.78
  -6  10   1   44.61    3.82
  -6  10   1   48.29    4.60
  -6 -10   1   51.99    4.14
  -6  10   0   23.19    3.39
  -6 -10   0   21.43    2.76
  -6  10   0   24.38    2.87
  -6  10   0   18.35    3.44
  -6 -10   0   28.19    3.18
  -6  10  -1   19.09    2.71
  -6 -10  -1   17.49    1.93
  -6 -10  -1   13.99    2.36
  -6  10  -1   17.47    2.50
  -6  10  -1   16.54    3.20
  -6  10  -2   31.07    3.41
  -6 -10  -2   31.57    2.57
   6 -10   2   30.63    3.25
  -6  10  -2   31.44    3.85
  -6  10  -3    2.27    1.24
  -6 -10  -3    0.99    0.83
  -6 -10  -3    0.74    0.84
   6 -10   3    1.84    1.26
  -6  10  -4    7.86    1.50
  -6 -10  -4   11.89    1.40
  -6 -10  -5   -0.58    0.48
   6 -10   5    0.07    0.64
  -6  11   7   22.64    2.22
  -6 -11   7   18.07    1.62
  -6  11   7   18.05    1.88
  -6 -11   7   18.56    1.94
  -6  11   6   16.62    2.32
  -6 -11   6   12.59    1.77
  -6 -11   6   10.41    1.46
  -6 -11   6   12.04    2.10
  -6  11   6   14.08    1.92
  -6  11   5   55.93    4.41
  -6 -11   5   47.36    3.41
  -6 -11   5   44.37    3.82
  -6  11   5   43.63    3.63
  -6 -11   5   46.43    3.54
  -6  11   4    3.00    1.38
  -6 -11   4    1.40    1.05
  -6 -11   4    0.75    0.94
  -6  11   4    0.45    0.85
  -6 -11   4    0.67    0.80
  -6  11   3   27.41    3.47
  -6 -11   3   29.34    3.38
  -6  11   2   21.93    3.05
  -6 -11   2   23.32    3.10
  -6  11   2   21.29    2.48
  -6  11   2   19.70    2.65
  -6 -11   2   18.68    2.40
  -6  11   1   30.69    3.88
  -6  11   1   28.37    3.18
  -6 -11   1   21.11    2.37
  -6 -11   1   29.13    3.32
  -6  11   1   31.88    3.11
  -6  11   1   27.86    3.49
  -6 -11   1   30.05    3.08
  -6 -11   0    1.19    0.91
  -6  11   0    1.86    1.34
  -6  11   0    1.61    1.30
  -6 -11   0    0.87    0.81
  -6 -11   0    2.65    1.26
  -6  11   0    2.65    1.27
  -6  11  -1   21.54    2.92
  -6 -11  -1   22.62    2.12
  -6 -11  -1   23.13    2.56
  -6  11  -1   24.13    3.41
  -6  11  -2    6.28    1.97
  -6  11  -2   10.42    1.90
  -6 -11  -2    7.62    1.17
  -6 -11  -2    4.76    1.29
   6 -11   2   11.92    2.06
  -6  11  -3    0.83    0.90
  -6 -11  -3    0.34    0.53
  -6 -11  -3    1.99    0.92
   6 -11   3    1.64    1.10
  -6  11  -4    0.56    0.53
  -6 -11  -4    1.37    0.51
  -6 -11  -4    0.83    0.61
  -6 -11  -4    0.70    0.63
   6 -11   4    2.24    0.98
  -6  12   7    0.81    0.59
  -6 -12   7    1.18    0.46
  -6  12   6    2.62    1.02
  -6 -12   6    3.75    0.86
  -6 -12   6    4.75    1.12
  -6  12   6    3.09    0.90
  -6 -12   6    2.67    0.98
  -6  12   5    2.52    1.14
  -6 -12   5    1.26    0.72
  -6 -12   5    1.67    0.77
  -6 -12   5    2.07    1.04
  -6 -12   5    0.99    0.79
  -6  12   5    1.83    0.84
  -6  12   4  158.40    7.23
  -6 -12   4  143.17    5.84
  -6 -12   4  102.92    5.16
  -6 -12   4  116.39    5.49
  -6  12   3    1.30    1.23
  -6 -12   3    0.92    1.01
  -6 -12   3    3.04    1.36
  -6  12   3    2.20    0.99
  -6  12   2    1.34    0.87
  -6  12   2    0.31    1.00
  -6 -12   2    1.19    1.08
  -6  12   2    0.08    0.88
  -6 -12   2   -0.56    0.89
  -6  12   1    9.75    2.01
  -6  12   1    9.11    2.07
  -6 -12   1   19.45    2.65
  -6  12   1   10.53    1.83
  -6 -12   1   15.78    2.19
  -6  12   0   37.25    3.65
  -6 -12   0   43.74    3.74
  -6  12   0   38.58    3.32
  -6  12   0   35.40    3.58
  -6 -12   0   47.32    3.56
  -6 -12  -1    2.72    1.06
  -6  12  -1    2.54    1.37
  -6  12  -1    3.88    1.30
  -6 -12  -1    0.06    0.58
  -6 -12  -1    2.32    0.96
  -6 -12  -1    2.05    1.33
  -6 -12  -2    1.61    0.97
  -6  12  -2    2.92    1.34
  -6 -12  -2    1.21    0.50
  -6 -12  -2    1.62    0.72
   6 -12   2    2.60    1.16
  -6 -12  -3    1.01    0.59
  -6  12  -3    0.22    0.77
  -6 -12  -3    1.37    0.53
  -6 -12  -3    1.63    0.78
  -6 -12  -3    0.95    0.58
   6 -12   3    1.74    0.86
  -6 -12  -4    2.42    0.63
  -6  12  -4    1.26    0.57
   6 -12   4    4.96    0.91
  -6  13   6    7.06    1.20
  -6 -13   6    6.70    1.05
  -6  13   5    9.50    1.64
  -6 -13   5    9.08    1.46
  -6 -13   5    5.38    1.02
  -6 -13   5    8.20    1.21
  -6  13   4    0.55    1.00
  -6 -13   4    0.74    0.82
  -6 -13   4   -0.13    0.60
  -6  13   3   66.67    4.36
  -6 -13   3   73.27    4.15
  -6 -13   3   52.20    3.48
  -6  13   3   59.63    3.30
  -6  13   2    1.50    1.06
  -6  13   2    0.06    0.91
  -6 -13   2    1.39    0.90
  -6 -13   2    0.53    0.80
  -6  13   2    0.94    0.97
  -6  13   1    4.31    1.36
  -6  13   1    2.58    1.18
  -6 -13   1    7.91    1.72
  -6  13   1    3.63    1.07
  -6 -13   1    6.62    1.27
  -6  13   0   30.03    2.90
  -6 -13   0   40.09    3.19
  -6  13   0   33.95    2.93
  -6  13   0   27.77    2.88
  -6 -13   0   40.11    2.98
  -6 -13  -1   29.51    2.58
  -6  13  -1   26.15    2.77
   6 -13   1   42.48    3.18
  -6 -13  -1   32.90    2.57
  -6 -13  -2    4.40    1.01
  -6  13  -2    4.24    1.14
  -6 -13  -2    3.77    0.99
   6 -13   2    5.38    1.25
  -6  13  -3    0.00    0.57
  -6 -13  -3    1.13    0.63
   6 -13   3    0.82    0.63
  -6 -13  -3    1.47    0.53
  -6  14   5    6.99    1.17
  -6  14   5    6.02    1.14
  -6 -14   5    4.76    0.93
  -6  14   4    5.50    1.17
  -6  14   4    4.23    1.18
  -6 -14   4    5.21    1.09
  -6 -14   4    2.41    0.60
  -6  14   3    4.10    1.12
  -6  14   3    3.46    1.22
  -6 -14   3    2.79    0.84
  -6 -14   3    2.79    0.93
  -6  14   2   37.22    3.18
  -6 -14   2   48.83    3.08
  -6 -14   2   51.47    3.27
  -6  14   2   39.08    2.57
  -6  14   1   17.40    2.11
  -6  14   1    7.38    1.23
  -6 -14   1   15.62    1.83
  -6 -14   1   16.03    1.92
  -6  14   1   17.11    1.80
  -6  14   0    6.26    1.25
  -6  14   0    8.55    1.30
  -6 -14   0    4.79    1.03
  -6 -14   0    4.56    1.16
  -6 -14   0    6.07    1.12
  -6  14  -1   -0.31    0.67
  -6 -14  -1    0.57    0.64
  -6 -14  -1    2.23    0.91
   6 -14   1    1.24    0.85
  -6 -14  -1    0.65    0.52
  -6  14  -2    2.37    0.79
  -6 -14  -2    4.05    0.86
   6 -14   2    3.61    0.92
  -6 -14  -2    4.05    0.77
  -6  15   4    0.90    0.56
  -6  15   3    7.87    1.27
  -6 -15   3   11.16    1.25
  -6 -15   3    8.11    1.02
  -6  15   2    0.90    0.65
  -6 -15   2    1.59    0.73
  -6 -15   2   -0.31    0.44
  -6  15   2    0.56    0.53
  -6  15   1   20.68    1.77
  -6 -15   1   15.41    1.44
  -6 -15   1   16.56    1.57
  -6 -15   0    0.23    0.48
  -6 -15   0    0.09    0.49
   6 -15   0    0.04    0.56
  -6 -15  -1    0.07    0.48
   6 -15   1    0.39    0.54
  -7   0   9    1.51    0.92
  -7   0   9   -2.11    0.87
  -7   0   8   59.45    4.25
  -7   0   7    8.12    1.59
  -7   0   7    3.80    1.53
  -7   0   6   27.72    3.02
  -7   0   6   30.84    3.43
  -7   0   6   28.11    3.47
  -7   0   5    1.80    0.96
  -7   0   5    1.06    0.91
  -7   0   5    0.45    0.97
  -7   0   5    2.03    1.20
  -7   0   5    2.18    1.44
  -7   0   4  218.80    9.44
  -7   0   4  213.19    7.85
  -7   0   4  238.49   29.22
  -7   0   4  202.70    8.40
  -7   0   4  214.78    9.23
  -7   0   4  219.28    9.91
  -7   0   4  221.15    8.68
  -7   0   4  219.33    9.12
  -7   0   3   14.31    2.46
  -7   0   3    7.58    1.95
  -7   0   3    9.75    2.03
  -7   0   3    9.08    2.52
  -7   0   3   22.94    8.67
  -7   0   3    4.44    1.71
  -7   0   3    6.24    1.78
  -7   0   2  100.26    5.78
  -7   0   2  109.34    6.81
  -7   0   2   99.10    5.73
  -7   0   2  100.03    6.52
  -7   0   2  102.61    6.34
  -7   0   2   95.75    5.78
  -7   0   2  103.75    6.42
  -7   0   1    0.92    0.94
  -7   0   1    2.23    1.52
  -7   0   1    1.26    0.98
  -7   0   1    0.40    1.07
  -7   0   1   -0.22    0.88
  -7   0   1    0.08    1.05
  -7   0   0    5.63    1.50
  -7   0   0    5.82    1.86
  -7   0   0    5.17    1.73
  -7   0   0    5.78    1.63
  -7   0   0    6.75    1.81
   7   0   0   10.95    5.89
  -7   0   0    6.70    1.80
  -7   0  -1    1.82    1.29
  -7   0  -1   -0.07    1.15
  -7   0  -1    1.18    1.62
  -7   0  -1   -0.16    0.99
  -7   0  -1    2.02    1.11
  -7   0  -1    1.42    1.25
  -7   0  -2  102.12    6.97
  -7   0  -2   96.59    6.20
  -7   0  -2   98.55    5.47
  -7   0  -2   96.43    5.38
  -7   0  -2   94.59    6.33
  -7   0  -3    2.04    1.80
  -7   0  -3   -0.71    1.04
  -7   0  -3    0.07    0.74
  -7   0  -4   -0.43    1.19
  -7   0  -4   -0.96    1.22
  -7   0  -4   -0.20    0.61
  -7   0  -5    0.74    0.97
  -7   0  -6    8.76    1.27
  -7   0  -6    7.52    1.09
  -7   1   9   16.30    1.65
  -7  -1   9   15.07    1.66
  -7  -1   9   12.40    1.53
  -7   1   8    7.40    1.31
  -7   1   8   10.69    1.86
  -7  -1   8    9.87    1.88
  -7   1   7   84.99    5.23
  -7   1   7   95.27    5.98
  -7  -1   7   90.84    5.98
  -7   1   6    0.39    0.75
  -7  -1   6    1.81    1.00
  -7  -1   6    1.79    1.06
  -7   1   6    1.53    1.29
  -7   1   6    1.32    1.11
  -7  -1   5   10.18    1.88
  -7   1   5    5.78    1.58
  -7  -1   5    7.95    1.79
  -7   1   5    9.99    2.27
  -7  -1   5    6.26    1.53
  -7  -1   5    8.05    1.93
  -7   1   5    6.37    2.06
  -7   1   5    5.23    1.62
  -7  -1   4    6.06    1.54
  -7  -1   4    6.31    1.48
  -7   1   4    6.25    1.55
  -7  -1   4    5.50    1.54
  -7   1   4    3.07    4.62
  -7  -1   4    7.84    1.99
  -7   1   4    7.43    2.18
  -7  -1   4    7.95    1.70
  -7   1   4    2.68    1.37
  -7  -1   4    4.51    1.45
  -7   1   4    5.26    1.47
  -7   1   4    5.83    1.44
  -7  -1   3  275.13   10.70
  -7   1   3  324.66   33.45
  -7   1   3  275.51    9.53
  -7  -1   3  277.40   10.00
  -7  -1   3  274.64   10.28
  -7   1   3  290.45   10.95
  -7   1   3  288.76   11.21
  -7  -1   3  270.64   10.68
  -7  -1   3  276.24    9.80
  -7   1   3  286.53    9.88
  -7  -1   3  272.38   10.27
  -7   1   3  292.62   10.65
  -7   1   2   16.94    2.53
  -7  -1   2   18.23    2.77
  -7   1   2   13.16    2.60
  -7  -1   2   19.68    2.79
  -7   1   2   15.15    2.26
  -7  -1   2   17.16    2.93
  -7   1   2   15.59    2.63
  -7   1   2    5.47    4.66
  -7   1   2   13.49    2.49
  -7  -1   2   17.25    2.56
  -7  -1   2   19.58    2.81
  -7   1   2   18.41    2.53
  -7  -1   2   19.36    2.73
  -7   1   2   14.87    2.60
  -7  -1   1   10.22    2.12
  -7   1   1    9.42    1.94
  -7  -1   1   12.44    2.53
  -7   1   1    6.77    2.01
  -7  -1   1   10.40    2.18
  -7   1   1    8.08    1.88
  -7  -1   1    9.81    1.77
  -7   1   1    5.97    1.48
  -7  -1   1    9.53    2.05
  -7   1   1    7.59    2.10
   7   1  -1   16.51    6.95
  -7   1   1    5.62    1.30
  -7  -1   1   10.94    2.35
  -7   1   1   10.49    2.22
  -7  -1   0   31.83    3.72
  -7   1   0   31.31    3.64
  -7  -1   0   29.48    3.71
  -7   1   0   31.26    3.74
  -7  -1   0   28.99    3.17
  -7   1   0   30.02    3.24
  -7   1   0   30.58    2.98
  -7  -1   0   35.04    3.64
   7   1   0   27.81    9.33
   7  -1   0   21.57    7.91
  -7  -1   0   32.52    3.39
  -7   1   0   32.75    3.41
  -7  -1   0   30.88    3.80
  -7  -1  -1  145.29    8.15
  -7   1  -1  159.84    8.48
  -7  -1  -1  125.86    7.75
  -7   1  -1  146.77    8.04
  -7  -1  -1  141.60    7.23
  -7   1  -1  134.94    7.00
  -7   1  -1  139.53    6.32
  -7  -1  -1  138.11    7.07
  -7  -1  -1  117.91    5.86
  -7  -1  -1  138.52    6.72
  -7   1  -1  142.69    6.98
  -7  -1  -1  137.09    7.61
  -7   1  -2    2.24    1.29
  -7  -1  -2    3.50    1.65
  -7   1  -2    2.74    1.57
  -7  -1  -2    2.49    1.31
  -7  -1  -2    2.64    1.43
  -7  -1  -2    1.87    0.97
  -7  -1  -3   12.08    2.83
  -7   1  -3   11.51    2.88
  -7  -1  -3   10.30    2.11
  -7  -1  -3   10.28    1.83
  -7  -1  -3    9.10    1.97
  -7  -1  -4    9.90    2.52
  -7   1  -4   12.38    2.58
  -7  -1  -4    8.81    1.96
   7  -1   4   11.07    1.81
  -7   1  -4    6.63    1.54
  -7  -1  -5   20.63    2.47
  -7   1  -5   23.22    2.55
   7  -1   5   20.11    2.08
  -7  -1  -5   21.85    2.24
  -7  -1  -6   -0.26    0.42
  -7   1  -6    0.54    0.48
  -7  -1  -6    0.35    0.50
  -7   1  -6    1.01    0.56
  -7   2   9   46.26    2.56
  -7  -2   9   28.56    2.30
  -7   2   8   26.39    2.30
  -7   2   8   24.48    2.58
  -7   2   8   24.22    2.60
  -7  -2   8   19.49    2.53
  -7  -2   7    9.80    1.96
  -7   2   7   10.38    2.00
  -7   2   7    9.56    1.97
  -7  -2   6   63.91    4.72
  -7   2   6   55.97    4.87
  -7  -2   6  187.25    9.28
  -7   2   6   55.48    4.80
  -7  -2   5   27.05    3.05
  -7  -2   5   27.02    3.03
  -7   2   5   88.27    5.97
  -7  -2   5   25.99    3.09
  -7  -2   5   24.72    3.09
  -7   2   5   23.17    3.24
  -7   2   5   26.12    3.45
  -7   2   5   29.82    3.12
  -7  -2   4   17.82    2.79
  -7  -2   4   19.34    2.65
  -7   2   4   20.93    2.52
  -7  -2   4   20.73    3.01
  -7  -2   4   18.72    2.72
  -7   2   4   26.98    3.70
  -7   2   4   24.11    3.44
  -7   2   4   35.25    3.40
  -7  -2   4   19.04    2.89
  -7   2   3   57.29    4.36
  -7  -2   3   54.25    4.76
  -7   2   3   54.64    4.02
  -7  -2   3   56.33    4.74
  -7  -2   3   54.19    4.56
  -7   2   3   57.54    5.01
  -7   2   3   70.49   15.62
  -7   2   3   58.76    5.17
  -7  -2   3   53.68    4.34
  -7   2   3   61.77    4.63
  -7  -2   3   50.75    4.51
  -7   2   3   60.02    4.87
  -7   2   2  289.54   10.05
  -7  -2   2  305.07   11.52
  -7   2   2  337.50   33.77
  -7   2   2  305.12    9.45
  -7  -2   2  298.90   10.67
  -7   2   2  295.23   11.42
  -7   2   2  281.59   10.94
  -7  -2   2  308.06   10.96
  -7  -2   2  305.21   10.23
  -7  -2   2  293.14   10.76
  -7   2   2  315.82   10.46
  -7   2   2  301.12   11.17
  -7  -2   1    3.64    1.41
  -7   2   1    3.91    1.52
  -7  -2   1    5.78    1.70
  -7   2   1    5.25    1.80
  -7  -2   1    6.29    1.82
  -7   2   1    5.50    1.77
  -7  -2   1    6.38    1.56
  -7   2   1    3.24    1.21
  -7  -2   1    4.57    1.79
  -7   2   1    4.09    1.79
   7   2  -1    8.78    5.43
  -7   2   1    3.95    1.57
  -7  -2   1    3.09    3.37
  -7  -2   1    4.72    1.43
  -7  -2   0   30.63    3.75
  -7   2   0   33.27    3.81
  -7  -2   0   29.90    3.79
  -7   2   0   30.71    3.73
  -7  -2   0   30.30    3.27
  -7   2   0   27.27    3.08
  -7  -2   0   33.66    3.72
   7   2   0   25.71    9.41
   7  -2   0   43.75   11.67
  -7  -2   0   30.02    3.34
  -7  -2   0   29.24    3.53
  -7   2   0   31.90    3.56
  -7  -2  -1    0.35    0.72
  -7   2  -1    1.75    0.88
  -7   2  -1   -0.87    1.24
  -7  -2  -1    2.12    1.74
  -7   2  -1    0.69    1.13
  -7  -2  -1   -0.62    1.26
  -7  -2  -1    0.53    1.31
  -7  -2  -1   -0.11    1.02
  -7  -2  -1   -0.40    1.30
  -7  -2  -2   30.03    4.01
  -7   2  -2   35.58    4.20
  -7   2  -2   53.55    4.82
  -7  -2  -2   31.36    3.58
  -7  -2  -2   32.44    3.54
  -7  -2  -2   29.41    3.07
  -7  -2  -2   31.67    3.51
  -7   2  -2   28.69    3.14
  -7  -2  -3    0.37    1.60
  -7   2  -3    0.76    1.76
  -7  -2  -3    2.06    1.30
  -7  -2  -3    3.14    1.52
   7  -2   3    2.54    1.27
  -7  -2  -3    0.32    0.87
  -7  -2  -4   54.96    4.27
  -7  -2  -4   47.84    3.51
   7  -2   4   50.81    3.83
  -7  -2  -4   49.99    3.78
  -7   2  -4   40.57    3.67
  -7   2  -4   53.11    4.97
  -7   2  -5   13.07    2.02
  -7  -2  -5    8.46    1.54
   7  -2   5    9.34    1.50
  -7  -2  -5   10.39    1.57
  -7  -2  -6   -0.26    0.48
  -7   2  -6   -0.31    0.52
  -7  -2  -6    0.71    0.55
  -7   2  -6    1.29    0.56
  -7   3   9   42.30    2.33
  -7  -3   9   24.89    2.17
  -7   3   8    6.86    1.37
  -7   3   8    5.19    1.39
  -7   3   8    3.90    1.00
  -7  -3   8    5.10    1.37
  -7  -3   8    5.52    1.30
  -7  -3   7    8.48    1.87
  -7   3   7   10.82    2.19
  -7   3   7    9.86    2.02
  -7  -3   7    7.31    1.49
  -7  -3   6   25.17    3.06
  -7  -3   6  138.29    7.11
  -7   3   6   28.41    3.38
  -7   3   6   25.89    3.24
  -7  -3   6   26.46    2.92
  -7   3   5  305.21   10.61
  -7  -3   5  318.45   10.65
  -7  -3   5  264.74    9.94
  -7   3   5  319.00   11.67
  -7   3   5  302.38   11.46
  -7   3   5  337.85   10.50
  -7  -3   4   17.64    2.72
  -7   3   4   15.31    2.48
  -7   3   4   16.15    2.54
  -7   3   4   12.04    2.05
  -7  -3   4   19.62    2.93
  -7  -3   4   19.52    2.80
  -7   3   4   14.96    2.83
  -7   3   4   14.46    2.73
  -7   3   4   20.93    2.70
  -7  -3   4   16.26    2.75
  -7   3   3   13.12    2.26
  -7  -3   3    8.31    1.80
  -7   3   3    9.45    2.01
  -7   3   3   11.16    2.14
  -7   3   3   10.02    1.77
  -7  -3   3   11.58    2.24
  -7   3   3   22.58    7.71
  -7   3   3   10.86    2.43
  -7   3   3    9.14    2.27
  -7  -3   3    9.06    2.03
  -7   3   3   13.37    2.44
  -7  -3   2   10.31    2.18
  -7   3   2   19.08    2.63
  -7  -3   2   13.12    2.29
  -7  -3   2   16.57    2.46
  -7   3   2   15.32    2.15
  -7  -3   2   13.25    2.46
  -7   3   2   19.58    3.24
  -7   3   2   13.08    7.01
  -7  -3   2   15.59    2.49
  -7   3   2   13.21    2.38
  -7  -3   2   19.26    2.64
  -7   3   2   15.72    2.79
  -7   3   2   22.18    2.89
  -7  -3   2   12.84    2.47
  -7  -3   1  434.40   12.74
  -7   3   1  454.70   13.32
  -7  -3   1  412.63   13.77
  -7   3   1  444.67   14.10
  -7  -3   1  430.31   12.24
  -7  -3   1  431.63   13.30
  -7  -3   1  429.50   36.01
  -7   3   1  418.56   13.94
  -7   3   1  436.38   13.67
  -7  -3   1  416.43   12.06
  -7  -3   1  434.14   13.26
  -7   3   1  453.27   12.91
  -7  -3   0   39.30    4.32
  -7   3   0   38.28    4.07
  -7  -3   0   47.89    5.30
  -7   3   0   37.43    4.20
  -7  -3   0   41.87    4.00
  -7  -3   0   44.18    4.46
  -7  -3   0   38.27    3.43
  -7  -3   0   40.25    3.79
  -7  -3   0   34.08   10.75
  -7  -3   0   39.81    4.12
  -7   3   0   39.17    3.95
  -7   3  -1    9.19    2.18
  -7   3  -1    8.39    2.01
  -7  -3  -1    8.44    2.31
  -7   3  -1   10.81    2.45
  -7  -3  -1    8.56    1.86
  -7  -3  -1    8.52    2.35
  -7  -3  -1    4.88    1.32
  -7  -3  -1    9.07    2.03
  -7  -3  -1    8.28    1.75
  -7   3  -2    5.57    1.75
  -7  -3  -2    8.58    2.46
  -7   3  -2    6.12    2.11
  -7  -3  -2    6.01    1.72
  -7  -3  -2    8.52    1.95
  -7  -3  -2    9.00    1.89
  -7  -3  -2    8.53    1.92
  -7   3  -3   36.81    4.32
  -7  -3  -3   28.92    3.34
  -7  -3  -3   28.49    3.06
  -7  -3  -3   27.36    3.01
  -7   3  -3   27.24    2.86
  -7  -3  -3   28.77    4.06
  -7   3  -4   11.52    2.52
  -7  -3  -4   12.65    2.20
  -7  -3  -4   11.33    1.99
   7  -3   4   11.21    1.99
  -7  -3  -4    8.90    1.78
  -7  -3  -5   20.92    2.29
  -7  -3  -5   21.25    1.92
   7  -3   5   25.05    2.41
  -7  -3  -5   23.58    2.35
  -7   3  -5   14.62    1.71
  -7  -3  -6    0.37    0.34
  -7   3  -6   -0.03    0.48
  -7  -3  -6    0.19    0.46
  -7   4   9    5.77    1.06
  -7  -4   9    4.94    1.02
  -7   4   8   27.53    2.13
  -7   4   8   26.93    2.86
  -7  -4   8   25.62    2.42
  -7   4   7   26.33    2.25
  -7  -4   7   32.33    3.35
  -7   4   7   26.97    3.27
  -7   4   7   24.76    2.81
  -7  -4   7   26.10    2.77
  -7   4   6  226.90    8.73
  -7  -4   6  198.28    8.64
  -7  -4   6  271.09    9.12
  -7   4   6  216.21    9.52
  -7   4   6  213.77    9.20
  -7  -4   6  207.30    8.22
  -7   4   5   15.17    2.65
  -7  -4   5   13.26    2.44
  -7  -4   5   13.26    2.23
  -7   4   5   12.27    2.65
  -7   4   5   14.04    2.55
  -7   4   4   13.11    2.19
  -7  -4   4    2.26    0.92
  -7   4   4    7.24    2.15
  -7   4   4    8.65    1.98
  -7   4   4  100.99    5.88
  -7  -4   4    7.93    2.04
  -7   4   4    8.61    2.40
  -7   4   4    5.35    1.82
  -7  -4   3   17.72    2.78
  -7   4   3   21.39    2.92
  -7   4   3   25.11    3.17
  -7   4   3   16.72    2.07
  -7  -4   3   19.93    3.01
  -7   4   3   24.56    3.43
  -7   4   3   17.77    3.00
  -7  -4   3   19.14    3.01
  -7   4   3   26.42    3.23
  -7   4   3   21.99    3.15
  -7  -4   2  121.73    7.41
  -7   4   2  137.53    7.36
  -7   4   2  136.15    7.41
  -7   4   2  123.65   20.76
  -7  -4   2  126.42    6.77
  -7  -4   2  143.42    6.68
  -7  -4   2  119.96    7.35
  -7   4   2  132.90    7.75
  -7   4   2  124.96    7.79
  -7  -4   2  125.88    7.24
  -7   4   2  127.38    7.69
  -7   4   2  140.46    7.40
  -7  -4   2  117.08    5.74
  -7  -4   1   31.37    4.33
  -7   4   1   35.42    3.93
  -7  -4   1   30.47    3.40
  -7  -4   1   29.44    3.13
  -7  -4   1   29.90    3.84
  -7   4   1   28.91    3.86
  -7  -4   1   28.11    3.50
  -7  -4   1   41.27   11.53
  -7  -4   1   27.51    3.49
  -7   4   1   31.22    3.72
  -7  -4   1   25.99    2.86
  -7  -4   0   23.04    3.33
  -7   4   0   26.16    3.60
  -7   4   0   26.71    3.48
  -7  -4   0   25.12    3.07
  -7  -4   0   24.88    3.51
  -7  -4   0   23.02    2.72
  -7  -4   0   22.75    3.01
  -7  -4   0   24.37    3.36
  -7   4   0   25.66    3.26
  -7   4  -1   34.51    4.05
  -7   4  -1   32.86    3.72
  -7  -4  -1   33.03    3.47
  -7  -4  -1   31.23    3.81
  -7  -4  -1   29.57    3.08
  -7  -4  -1   28.08    3.46
  -7   4  -1   30.30    3.40
  -7  -4  -1   30.59    4.13
  -7   4  -2    9.59    2.17
  -7  -4  -2   12.15    2.70
  -7   4  -2   15.49    2.92
  -7  -4  -2   11.62    2.24
  -7  -4  -2   14.17    2.52
  -7  -4  -2   11.81    2.00
  -7  -4  -2   13.02    2.31
  -7   4  -3   33.67    3.95
  -7  -4  -3   32.26    3.46
  -7  -4  -3   28.29    3.00
  -7   4  -3   26.03    2.95
  -7  -4  -4   53.77    3.93
  -7  -4  -4   47.60    3.83
   7  -4   4   57.29    4.07
  -7  -4  -4   51.50    3.73
  -7   4  -4   52.83    4.66
  -7  -4  -5    2.72    0.95
  -7  -4  -5    2.12    0.81
   7  -4   5    1.92    1.01
  -7  -4  -5    2.79    0.96
  -7   4  -5    1.38    0.67
  -7   4  -6    4.12    0.82
  -7  -4  -6    3.77    0.76
  -7  -5   9    1.38    0.56
  -7   5   8    0.89    0.88
  -7  -5   8    1.39    0.81
  -7  -5   7   29.12    3.12
  -7   5   7   24.94    3.09
  -7   5   7   56.73    4.40
  -7  -5   7   22.15    2.74
  -7   5   6   10.69    2.07
  -7  -5   6   10.08    2.12
  -7  -5   6  125.68    6.97
  -7   5   6   12.03    2.54
  -7   5   6   12.14    2.22
  -7   5   5   50.68    4.17
  -7   5   5   50.23    4.50
  -7  -5   5   39.45    3.68
  -7   5   5   47.84    4.68
  -7   5   5   40.80    4.38
  -7   5   4  207.79    8.72
  -7   5   4  201.20    9.16
  -7  -5   4  185.01    8.48
  -7   5   4  197.55    9.58
  -7   5   4  191.04    9.23
  -7   5   4  217.20    8.74
  -7  -5   3   80.56    6.16
  -7   5   3   37.58    4.05
  -7   5   3   44.20    4.45
  -7  -5   3   59.53    4.61
  -7  -5   3   49.57    4.58
  -7   5   3   39.46    4.58
  -7   5   3   48.48    5.07
  -7  -5   3   43.07    4.47
  -7   5   3   47.29    4.17
  -7  -5   2   98.10    7.81
  -7   5   2   56.81    4.92
  -7   5   2   57.61    4.89
  -7  -5   2   43.04    4.12
  -7  -5   2   56.54    4.44
  -7  -5   2   53.47    4.74
  -7   5   2   52.68    5.02
  -7  -5   2   47.11    4.60
  -7   5   2   53.78    4.93
  -7  -5   2   45.50    3.73
  -7   5   1   82.15    6.05
  -7  -5   1   68.72    5.17
  -7  -5   1   66.40    4.65
  -7  -5   1   66.11    5.50
  -7   5   1   62.10    5.83
  -7  -5   1   62.12    4.29
  -7  -5   1   63.12    5.24
  -7   5   1   76.63    5.72
  -7  -5   1   58.59    4.25
  -7   5   0  116.77    7.23
  -7   5   0   97.98    6.55
  -7  -5   0   98.95    6.10
  -7  -5   0   96.29    5.42
  -7  -5   0   98.45    6.42
  -7  -5   0   84.42    5.11
  -7  -5   0   91.40    6.18
  -7   5   0  113.48    6.74
  -7  -5   0   89.77    6.32
  -7   5  -1   43.96    4.73
  -7   5  -1   42.72    4.22
  -7  -5  -1   47.02    4.29
  -7  -5  -1   51.38    4.70
  -7  -5  -1   47.11    4.01
  -7  -5  -1   49.53    4.35
  -7   5  -1   46.26    4.35
  -7  -5  -1   43.01    4.76
  -7   5  -2   23.51    3.45
  -7  -5  -2   18.69    2.79
  -7  -5  -2   20.47    2.65
  -7  -5  -2   17.71    2.53
  -7   5  -2   19.26    2.87
  -7   5  -3   25.05    3.46
  -7  -5  -3   21.73    2.89
  -7  -5  -3   20.03    2.48
  -7   5  -3   19.86    2.58
  -7   5  -4   -0.63    1.00
  -7  -5  -4    1.20    1.10
  -7  -5  -4    0.05    0.81
   7  -5   4    1.67    1.21
  -7  -5  -4   -0.01    0.82
  -7  -5  -5   36.07    2.63
  -7  -5  -5   31.78    2.43
   7  -5   5   43.22    3.04
  -7  -5  -5   38.20    2.69
  -7   5  -5   21.02    2.06
  -7   6   8   88.94    4.75
  -7  -6   8   82.17    4.16
  -7   6   7    2.25    1.30
  -7  -6   7    3.21    1.26
  -7   6   7    3.00    1.46
  -7  -6   7    0.79    0.83
  -7   6   6    0.36    1.09
  -7  -6   6    0.99    1.11
  -7   6   6   -0.47    1.25
  -7   6   6   89.23    6.35
  -7   6   5    1.40    1.35
  -7   6   5    1.11    0.99
  -7  -6   5    1.80    1.13
  -7   6   5    1.09    1.39
  -7   6   5   51.34    5.46
  -7   6   4  172.92    8.33
  -7   6   4  178.04    8.65
  -7  -6   4  170.97    7.84
  -7   6   4  168.47    8.73
  -7   6   4  230.61   10.37
  -7   6   4  167.62    7.68
  -7   6   3   25.89    3.73
  -7   6   3   26.04    3.55
  -7  -6   3   38.96    3.96
  -7  -6   3   35.48    3.83
  -7   6   3   30.64    3.95
  -7   6   3   33.94    3.59
  -7   6   2    6.28    2.24
  -7   6   2    2.13    1.26
  -7   6   2    3.36    1.73
  -7  -6   2    5.72    1.78
  -7  -6   2    4.77    1.68
  -7   6   2    0.59    1.41
  -7  -6   2    3.34    1.79
  -7  -6   2    3.14    1.07
  -7   6   1    3.93    1.74
  -7   6   1    0.97    1.10
  -7  -6   1    0.92    1.36
  -7  -6   1   -0.61    1.02
  -7  -6   1    0.81    1.49
  -7   6   1   -1.31    1.35
  -7  -6   1    0.90    1.16
  -7  -6   1    0.48    0.82
  -7   6   0   63.31    5.45
  -7   6   0   60.18    5.16
  -7  -6   0   58.60    4.72
  -7  -6   0   59.80    4.52
  -7  -6   0   64.90    5.35
  -7  -6   0   58.54    4.32
  -7  -6   0   61.09    5.04
  -7   6   0   69.83    5.55
  -7  -6   0   62.11    4.45
  -7   6  -1   12.62    2.46
  -7   6  -1   10.94    2.40
  -7  -6  -1    7.00    1.70
  -7  -6  -1    7.49    1.74
  -7  -6  -1    9.97    2.28
  -7  -6  -1   10.60    2.02
  -7  -6  -1   11.24    2.07
  -7   6  -2   54.90    5.01
  -7  -6  -2   48.56    4.33
  -7  -6  -2   46.97    4.50
  -7  -6  -2   43.91    3.80
  -7  -6  -2   47.90    3.91
  -7   6  -2   44.92    4.25
  -7   6  -3    2.80    1.15
  -7   6  -3    2.79    1.32
  -7  -6  -3    1.82    1.07
  -7  -6  -3    2.83    0.92
  -7   6  -4    1.44    0.96
  -7  -6  -4    2.49    1.01
  -7  -6  -4    2.72    1.15
   7  -6   4    2.26    1.05
  -7  -6  -4    2.06    1.06
  -7  -6  -5   -0.30    0.44
  -7  -6  -5    0.72    0.58
   7  -6   5    0.19    0.68
  -7  -6  -5    1.00    0.63
  -7   6  -5    0.79    0.58
  -7   7   8    1.42    0.76
  -7  -7   8    1.84    0.82
  -7   7   7   36.01    3.16
  -7  -7   7   37.69    3.31
  -7   7   7   39.85    3.62
  -7  -7   7   37.92    3.33
  -7   7   6    5.66    1.68
  -7   7   6    5.56    1.63
  -7  -7   6    6.23    1.77
  -7   7   6    7.34    1.84
  -7   7   5   14.38    2.62
  -7  -7   5   19.10    2.32
  -7  -7   5   17.08    2.18
  -7   7   5   15.14    2.69
  -7   7   4   49.89    4.68
  -7  -7   4   51.13    4.06
  -7   7   4   53.26    4.90
  -7   7   3   44.87    4.64
  -7   7   3   37.50    4.24
  -7  -7   3   40.25    4.15
  -7  -7   3   33.72    3.51
  -7   7   3   39.08    4.45
  -7   7   3   45.43    4.13
  -7   7   2   23.06    3.56
  -7   7   2   25.35    3.51
  -7  -7   2   32.48    3.56
  -7  -7   2   33.49    3.65
  -7   7   2   27.77    3.72
  -7   7   2   32.50    3.73
  -7  -7   2   28.07    3.08
  -7   7   1   21.63    3.48
  -7  -7   1   33.67    3.71
  -7  -7   1   37.46    3.85
  -7  -7   1   34.54    3.79
  -7   7   1   25.69    3.51
  -7   7   1   30.21    4.01
  -7  -7   1   34.27    3.41
  -7   7   0   56.94    5.12
  -7   7   0   49.37    4.68
  -7  -7   0   49.31    4.50
  -7  -7   0   50.91    4.62
  -7  -7   0   50.60    4.14
  -7  -7   0   52.36    4.06
  -7  -7   0   51.01    4.70
  -7   7   0   55.02    5.01
  -7  -7   0   50.29    3.99
  -7   7  -1   69.39    5.65
  -7  -7  -1   62.38    5.00
  -7  -7  -1   71.64    5.31
  -7  -7  -1   55.04    4.24
  -7  -7  -1   58.58    4.34
  -7  -7  -1   67.46    4.89
  -7   7  -1   68.39    5.48
  -7   7  -2   21.07    3.15
  -7  -7  -2   26.42    3.16
  -7  -7  -2   25.00    3.32
  -7  -7  -2   19.80    2.30
  -7  -7  -2   24.50    2.99
  -7   7  -2   20.82    3.06
  -7   7  -3    5.74    1.57
  -7   7  -3    6.63    1.74
  -7  -7  -3    5.89    1.63
  -7  -7  -3    6.43    1.75
  -7  -7  -3    4.59    1.43
  -7   7  -4    1.77    0.82
  -7   7  -4    3.65    1.11
  -7  -7  -4    3.51    1.03
  -7  -7  -4    2.40    1.08
  -7  -7  -4    3.66    1.00
   7  -7   4    6.32    1.48
  -7  -7  -5   20.00    1.71
  -7  -7  -5   22.95    1.81
   7  -7   5   30.88    2.30
  -7   7  -5   15.64    1.63
  -7   8   8    2.40    0.86
  -7  -8   8    4.46    0.92
  -7   8   7    1.49    0.91
  -7  -8   7    0.81    0.72
  -7   8   7    1.13    0.94
  -7  -8   7    0.99    0.74
  -7   8   6   37.50    3.37
  -7   8   6   53.55    4.30
  -7  -8   6   58.30    4.43
  -7   8   6   55.71    4.41
  -7   8   5    3.04    1.61
  -7  -8   5    2.35    1.09
  -7  -8   5    0.30    0.69
  -7   8   5    5.00    1.76
  -7   8   4    1.25    1.39
  -7  -8   4   -1.71    1.09
  -7   8   4   -0.08    1.16
  -7   8   3   20.25    3.42
  -7   8   3   19.85    3.07
  -7  -8   3   26.84    3.33
  -7  -8   3   26.22    2.99
  -7   8   3   20.80    3.09
  -7   8   3   23.03    2.92
  -7   8   2   91.60    6.74
  -7   8   2  100.56    6.58
  -7  -8   2  105.62    6.27
  -7  -8   2   98.05    5.75
  -7   8   2   84.05    6.07
  -7   8   2   88.94    6.07
  -7  -8   2  102.70    5.68
  -7   8   1    5.74    1.90
  -7   8   1    4.24    1.92
  -7  -8   1    7.11    2.03
  -7  -8   1    3.16    1.51
  -7  -8   1    3.49    1.12
  -7   8   0   60.02    5.12
  -7   8   0   47.10    4.33
  -7  -8   0   58.32    4.86
  -7  -8   0   63.84    4.77
  -7  -8   0   57.44    4.39
  -7   8   0   42.05    5.00
  -7  -8   0   62.03    4.31
  -7   8  -1    1.86    1.44
  -7   8  -1   -0.26    1.11
  -7  -8  -1    0.61    1.09
  -7  -8  -1    0.67    0.95
  -7  -8  -1    1.46    1.09
  -7  -8  -1   -0.19    1.07
   7  -8   1    0.93    0.93
  -7   8  -2   25.95    3.23
  -7  -8  -2   23.06    2.91
  -7  -8  -2   21.95    2.79
  -7  -8  -2   14.92    2.05
  -7  -8  -2   22.63    2.70
  -7   8  -2   23.05    2.98
   7  -8   2   22.84    2.52
  -7   8  -3    1.01    0.96
  -7   8  -3   -0.77    0.81
  -7  -8  -3    0.51    0.69
  -7  -8  -3    1.21    1.06
  -7  -8  -3    0.92    0.96
  -7  -8  -4   28.72    2.37
  -7  -8  -4   32.99    2.58
  -7  -8  -4   30.98    2.49
   7  -8   4   34.41    2.92
  -7   8  -4   15.78    1.66
   7  -8   5    3.37    0.80
  -7   9   8    4.00    0.86
  -7   9   7    0.81    0.75
  -7  -9   7    0.62    0.53
  -7   9   7    0.17    0.78
  -7  -9   7    0.54    0.65
  -7   9   6    8.97    1.80
  -7   9   6    5.80    1.45
  -7  -9   6    8.49    1.72
  -7   9   6    7.63    1.68
  -7   9   5   96.87    5.96
  -7  -9   5   86.46    4.41
  -7   9   5   95.98    5.69
  -7   9   4   25.22    3.35
  -7  -9   4   18.32    2.30
  -7  -9   4   12.93    1.80
  -7   9   4   27.03    3.22
  -7   9   3    7.48    1.56
  -7   9   3    9.70    2.31
  -7   9   3    9.40    2.44
  -7  -9   3    9.55    2.06
  -7  -9   3    8.38    1.59
  -7   9   3    8.70    1.98
  -7   9   2    3.12    1.54
  -7   9   2    1.70    1.35
  -7   9   2    2.29    1.64
  -7  -9   2    7.47    1.90
  -7  -9   2    5.37    1.53
  -7   9   2    3.59    1.46
  -7  -9   2    3.61    1.29
  -7   9   1  255.76   10.40
  -7  -9   1  238.98    8.94
  -7  -9   1  220.72    8.18
  -7   9   1  218.29    9.21
  -7  -9   1  240.48    8.35
  -7  -9   0    4.22    1.18
  -7   9   0    4.32    1.54
  -7   9   0    3.70    1.69
  -7  -9   0    6.62    1.56
  -7  -9   0    6.44    1.65
  -7  -9  -1   11.69    1.89
  -7   9  -1    9.35    2.25
  -7   9  -1   14.52    2.54
  -7  -9  -1   11.30    1.87
  -7  -9  -1   10.30    1.97
   7  -9   1   12.46    1.96
  -7   9  -2   -0.69    0.86
  -7   9  -2    1.54    1.22
  -7  -9  -2    1.17    0.71
  -7  -9  -2    1.49    1.08
   7  -9   2    2.36    1.01
  -7   9  -3    9.61    1.61
  -7  -9  -3   15.52    1.96
  -7   9  -3   10.63    1.78
   7  -9   3   10.40    1.44
  -7  -9  -4    8.51    1.27
   7  -9   4   12.47    1.62
  -7  -9  -4    7.81    1.07
  -7  10   7   11.49    1.45
  -7 -10   7   12.47    1.38
  -7  10   7    9.90    1.40
  -7 -10   7   11.59    1.44
  -7  10   6   15.86    2.04
  -7  10   6   22.18    2.45
  -7 -10   6   15.02    1.89
  -7  10   6   18.97    2.25
  -7 -10   6   16.29    2.17
  -7  10   5    7.29    1.81
  -7  10   5    3.27    1.15
  -7 -10   5    5.76    1.23
  -7  10   5    4.38    1.50
  -7  10   4   11.18    2.29
  -7  10   4    6.94    1.89
  -7 -10   4    8.82    1.67
  -7  10   4    7.28    1.71
  -7  10   3   22.12    3.34
  -7  10   3   24.72    3.05
  -7 -10   3   28.64    3.10
  -7 -10   3   20.12    2.18
  -7  10   3   15.11    2.30
  -7  10   3   12.64    2.07
  -7  10   2   35.29    3.95
  -7  10   2   34.60    3.72
  -7 -10   2   40.08    3.71
  -7 -10   2   29.23    2.71
  -7  10   2   27.45    3.09
  -7 -10   2   33.49    3.13
  -7  10   1   20.47    2.97
  -7  10   1   11.73    2.20
  -7 -10   1   14.83    2.29
  -7 -10   1    9.77    1.73
  -7 -10   1   11.79    1.90
  -7  10   0   66.55    5.10
  -7 -10   0   56.56    3.92
  -7 -10   0   67.55    4.42
  -7  10   0   61.99    4.87
  -7 -10   0   67.74    4.18
  -7 -10  -1    8.74    1.59
  -7  10  -1    8.50    1.93
  -7  10  -1    6.68    1.71
  -7 -10  -1    6.50    1.50
  -7 -10  -1    7.77    1.61
   7 -10   1    7.59    1.54
  -7 -10  -2    2.38    0.87
  -7  10  -2    0.43    0.89
  -7  10  -2    0.15    0.78
  -7 -10  -2    2.38    1.08
  -7 -10  -2    2.39    1.03
   7 -10   2    2.19    1.07
  -7 -10  -3    3.43    0.84
  -7  10  -3    1.83    0.82
  -7 -10  -3    2.51    0.73
  -7 -10  -3    2.40    0.80
  -7 -10  -4   14.23    1.31
   7 -10   4   28.18    2.02
  -7  11   6    4.20    1.17
  -7  11   6    3.86    1.00
  -7 -11   6    2.00    0.73
  -7  11   6    4.24    1.03
  -7 -11   6    1.61    0.74
  -7  11   5   -0.75    1.01
  -7  11   5    0.54    0.67
  -7 -11   5   -0.32    0.68
  -7 -11   5    0.26    0.62
  -7  11   5   -0.04    0.62
  -7  11   4    6.50    1.73
  -7  11   4    6.05    1.72
  -7 -11   4    5.68    1.27
  -7  11   4    3.70    1.00
  -7  11   3   48.42    4.36
  -7  11   3   58.74    4.37
  -7 -11   3   55.29    3.58
  -7  11   2    6.42    1.47
  -7  11   2    6.98    1.77
  -7  11   2    9.42    2.07
  -7 -11   2    7.89    1.82
  -7 -11   2    5.25    1.19
  -7  11   1   22.44    2.94
  -7  11   1   13.49    2.02
  -7 -11   1   19.21    2.41
  -7 -11   1   11.61    1.60
  -7 -11   1   17.68    2.14
  -7  11   0    4.23    1.37
  -7  11   0    9.17    1.85
  -7 -11   0    3.94    1.26
  -7 -11   0    2.89    0.94
  -7 -11   0    5.12    1.33
  -7  11  -1   24.17    2.62
  -7 -11  -1   27.05    2.30
  -7 -11  -1   33.32    2.72
  -7  11  -1   21.96    2.70
   7 -11   1   24.84    2.49
  -7 -11  -1   34.34    2.69
  -7 -11  -2    3.43    0.85
  -7  11  -2    2.61    0.98
  -7 -11  -2    3.98    1.01
  -7 -11  -2    3.23    0.86
   7 -11   2    3.58    1.05
  -7  11  -3    3.07    0.83
  -7 -11  -3    4.98    0.87
   7 -11   3   12.01    1.58
  -7 -11  -3    5.22    0.85
  -7  12   6    3.45    0.86
  -7 -12   6    6.37    0.95
  -7  12   5    6.13    1.32
  -7  12   5    3.91    1.06
  -7 -12   5    3.83    0.89
  -7 -12   5    5.59    0.94
  -7  12   4   12.61    2.07
  -7  12   4   13.12    1.97
  -7 -12   4    9.02    1.39
  -7  12   3    0.46    0.85
  -7  12   3    0.62    0.84
  -7 -12   3    1.15    0.93
  -7  12   2   29.49    3.09
  -7 -12   2   29.58    2.52
  -7 -12   2   34.01    2.89
  -7  12   2   14.66    1.73
  -7  12   1    0.34    0.77
  -7  12   1    0.71    0.82
  -7 -12   1    0.67    0.86
  -7 -12   1    0.23    0.58
  -7  12   0    7.70    1.58
  -7  12   0   10.66    1.71
  -7 -12   0    9.15    1.22
  -7 -12   0   13.06    1.74
  -7 -12   0   14.02    1.69
  -7  12  -1    0.49    0.66
  -7  12  -1    1.08    0.76
  -7 -12  -1    1.69    0.75
  -7 -12  -1    1.71    0.66
   7 -12   1    1.33    0.85
  -7 -12  -1    0.95    0.58
  -7 -12  -2    8.88    1.02
  -7 -12  -2    7.89    1.07
  -7  12  -2    9.12    1.33
   7 -12   2   10.44    1.23
  -7 -12  -2   12.27    1.31
  -7  13   5    2.81    0.83
  -7  13   5    3.33    0.85
  -7 -13   5    3.92    0.78
  -7  13   4    2.28    0.75
  -7  13   4    1.36    0.75
  -7 -13   4    0.90    0.65
  -7  13   3   37.49    3.03
  -7 -13   3   27.24    2.07
  -7  13   2    1.62    0.91
  -7 -13   2    1.27    0.72
  -7  13   1    0.31    0.52
  -7  13   1    0.83    0.62
  -7 -13   1    0.84    0.66
  -7 -13   1    1.89    0.80
  -7  13   0    2.93    0.83
  -7  13   0    3.04    0.89
  -7 -13   0    2.57    0.82
  -7 -13   0    2.62    0.78
   7 -13   0    2.28    0.79
  -7 -13   0    2.26    0.70
  -7  13  -1    6.88    1.17
  -7 -13  -1    9.27    1.13
  -7 -13  -1    7.86    1.12
   7 -13   1   10.83    1.30
  -7 -13  -1   10.27    1.13
  -7  14   3    0.18    0.46
  -7 -14   3    1.02    0.52
  -7  14   2    7.27    1.15
  -7 -14   2   11.91    1.25
  -7 -14   1    0.81    0.52
   7 -14  -1    1.40    0.61
  -7 -14   0    0.82    0.45
   7 -14   0    1.76    0.66
  -8   0   8   23.26    2.30
  -8   0   7    0.68    0.81
  -8   0   7   -0.86    1.11
  -8   0   6   56.71    4.02
  -8   0   6   57.96    4.26
  -8   0   6   58.84    4.79
  -8   0   5    1.12    0.88
  -8   0   5    0.27    0.58
  -8   0   5    8.09    2.19
  -8   0   5    0.23    1.13
  -8   0   5    0.03    1.19
  -8   0   4   28.42    3.33
  -8   0   4   23.73    2.77
  -8   0   4   26.24    3.28
  -8   0   4   26.57    3.50
  -8   0   4   28.10    3.03
  -8   0   4   26.46    3.16
  -8   0   3    2.69    1.55
  -8   0   3    5.84    1.92
  -8   0   3    8.21    2.18
  -8   0   3    1.87    1.41
  -8   0   3    3.57    1.90
  -8   0   3    5.93    1.54
  -8   0   2  173.37    7.78
  -8   0   2  173.10    8.81
  -8   0   2  180.41    7.61
  -8   0   2  168.61    8.07
  -8   0   2  169.62    7.87
  -8   0   2  177.04    8.49
  -8   0   1    4.70    1.50
  -8   0   1    1.05    1.02
  -8   0   1    3.02    1.70
  -8   0   1    3.50    1.54
  -8   0   1    2.61    1.44
  -8   0   0   34.98    3.84
  -8   0   0   28.54    3.62
  -8   0   0   32.19    3.33
  -8   0   0   33.23    3.29
  -8   0   0   35.25    3.47
  -8   0   0   30.80    3.64
  -8   0  -1    1.69    1.07
  -8   0  -1   -0.07    1.32
  -8   0  -1    0.03    0.99
  -8   0  -1    0.22    0.81
  -8   0  -1    1.35    1.17
  -8   0  -2  173.98    8.71
  -8   0  -2  154.12    7.02
  -8   0  -2  154.66    6.16
  -8   0  -2  162.82    7.54
  -8   0  -3    1.05    1.16
  -8   0  -3    0.61    0.79
  -8   0  -3   -0.27    0.69
  -8   0  -3    0.19    0.63
  -8   0  -4   31.91    2.69
  -8   0  -4   25.47    2.03
  -8   0  -5   -0.18    0.40
  -8   1   8   42.40    2.29
  -8   1   8   37.26    2.82
  -8  -1   8   37.66    2.96
  -8   1   7   40.31    3.26
  -8   1   7   39.52    3.51
  -8  -1   7   37.56    3.51
  -8   1   6   23.50    2.67
  -8  -1   6   28.87    2.80
  -8  -1   6   28.47    2.81
  -8   1   6   23.01    2.99
  -8   1   6   26.74    3.11
  -8  -1   6   26.68    3.23
  -8  -1   5    9.91    1.88
  -8   1   5   12.30    2.20
  -8  -1   5    8.95    1.67
  -8   1   5   76.61    5.84
  -8  -1   5   10.83    1.99
  -8  -1   5    9.35    2.04
  -8   1   5   13.37    2.41
  -8   1   5   10.89    2.30
  -8  -1   5    9.97    2.13
  -8  -1   4    6.75    1.84
  -8   1   4    8.59    2.00
  -8   1   4    5.55    1.50
  -8  -1   4    7.37    1.69
  -8  -1   4    4.44    1.83
  -8   1   4    7.23    1.84
  -8   1   4    5.27    1.80
  -8  -1   4    6.87    1.88
  -8  -1   4    6.85    1.84
  -8   1   4    6.15    1.70
  -8   1   4    8.09    1.87
  -8  -1   3  215.44    9.60
  -8   1   3  222.75    9.85
  -8   1   3  222.30    8.39
  -8  -1   3  226.88    8.81
  -8   1   3  229.29   10.01
  -8   1   3  232.25    9.96
  -8  -1   3  220.16    9.56
  -8  -1   3  219.90    8.79
  -8   1   3  246.22    9.36
  -8  -1   3  220.89    9.28
  -8   1   3  235.01    9.66
  -8   1   2    1.51    0.98
  -8  -1   2    1.49    1.37
  -8   1   2   -0.04    1.00
  -8   1   2   -0.50    1.19
  -8   1   2    0.03    0.94
  -8  -1   2    2.40    1.03
  -8   1   2    0.11    0.99
  -8  -1   2    3.12    1.38
  -8  -1   2    0.55    6.29
  -8   1   2    1.39    1.29
  -8  -1   2    2.32    1.13
  -8  -1   1   29.70    3.58
  -8   1   1   30.90    3.67
  -8  -1   1   28.62    3.57
  -8   1   1   29.51    3.72
  -8  -1   1   31.11    3.25
  -8   1   1   29.96    3.01
  -8  -1   1   33.27    3.33
  -8  -1   1   32.87    3.36
  -8   1   1   29.92    3.38
  -8  -1   1   30.71    3.54
  -8   1   1   29.58    3.60
  -8   1   0   19.47    3.07
  -8  -1   0   24.32    3.67
  -8   1   0   19.02    2.90
  -8  -1   0   16.88    2.81
  -8  -1   0   20.22    2.68
  -8   1   0   17.43    2.42
  -8   1   0   20.47    2.40
  -8  -1   0   20.51    2.72
  -8  -1   0   21.12    2.72
  -8   1   0   20.90    2.86
  -8  -1   0   19.12    2.84
  -8   1   0   21.10    3.14
  -8  -1  -1   78.72    6.03
  -8   1  -1   77.38    5.92
  -8   1  -1  104.85    6.72
  -8  -1  -1   80.19    5.20
  -8   1  -1   72.23    4.85
  -8  -1  -1   71.14    4.74
  -8  -1  -1   77.81    4.80
  -8   1  -1   75.95    4.93
  -8  -1  -1   78.84    5.60
  -8   1  -1   75.88    5.61
  -8   1  -2    7.08    1.55
  -8  -1  -2    6.00    1.97
  -8   1  -2    6.30    1.93
  -8  -1  -2    7.48    1.83
  -8   1  -2    5.25    1.54
  -8  -1  -2    5.49    1.32
  -8  -1  -2    5.71    1.34
  -8  -1  -2    6.62    1.72
  -8   1  -2    8.38    1.89
  -8  -1  -3   40.28    3.43
  -8   1  -3   39.33    3.36
  -8  -1  -3   34.56    2.78
  -8   1  -3   31.03    2.45
  -8  -1  -3   34.35    3.04
  -8   1  -3   37.66    3.36
  -8  -1  -3   44.52    4.28
  -8   1  -3   51.61    4.59
  -8  -1  -4   -0.17    0.67
  -8   1  -4    1.56    0.77
  -8  -1  -4    2.10    0.87
  -8   1  -4    0.34    0.63
  -8   1  -4    0.14    0.42
  -8  -1  -5    4.78    0.91
  -8   1  -5    3.81    0.82
  -8   2   8   25.83    2.11
  -8   2   8   33.24    2.61
  -8  -2   8   25.17    2.43
  -8   2   7    2.04    1.13
  -8   2   7    0.35    0.80
  -8  -2   7    0.43    0.76
  -8   2   6   18.09    2.52
  -8  -2   6   20.84    2.41
  -8   2   6   16.21    2.55
  -8   2   6   21.39    2.86
  -8  -2   6   21.99    2.92
  -8  -2   5   -0.09    1.00
  -8   2   5    0.57    0.88
  -8  -2   5    0.34    0.73
  -8  -2   5   -0.51    1.25
  -8   2   5   -0.09    1.14
  -8   2   5   -0.64    1.15
  -8  -2   5    1.85    1.06
  -8  -2   4   53.48    4.42
  -8   2   4   53.43    4.70
  -8  -2   4   45.84    3.72
  -8   2   4   43.07    3.43
  -8  -2   4   49.54    4.21
  -8   2   4   49.31    4.62
  -8   2   4   53.55    4.86
  -8  -2   4   53.41    4.67
  -8   2   4   55.03    4.34
  -8  -2   4   52.37    4.60
  -8   2   4   54.10    4.45
  -8   2   3   19.90    2.58
  -8   2   3   19.51    2.99
  -8  -2   3   11.26    2.08
  -8   2   3   17.17    2.29
  -8  -2   3   16.82    2.51
  -8   2   3   18.07    3.03
  -8   2   3   13.20    2.35
  -8  -2   3   10.95    2.11
  -8   2   3   21.84    2.82
  -8  -2   3   11.86    2.27
  -8   2   3   14.41    2.31
  -8   2   2   14.82    2.45
  -8  -2   2   10.98    2.26
  -8   2   2   14.31    2.55
  -8   2   2   12.50    2.24
  -8   2   2   12.17    1.99
  -8  -2   2   12.61    2.16
  -8   2   2   11.93    2.71
  -8   2   2   20.10    3.56
  -8  -2   2   13.12    2.16
  -8  -2   2   13.08    2.48
  -8   2   2   12.54    2.29
  -8  -2   2   11.59    2.29
  -8   2   1   13.02    2.21
  -8  -2   1    5.89    2.01
  -8   2   1    8.82    2.02
  -8  -2   1    8.55    2.12
  -8   2   1   11.01    2.25
  -8  -2   1    8.86    1.86
  -8   2   1    9.42    1.62
  -8  -2   1   10.97    2.01
  -8  -2   1    8.82    2.05
  -8   2   1   10.47    2.34
  -8  -2   1   10.91    2.22
  -8   2   0   12.49    2.23
  -8  -2   0  110.15    7.73
  -8   2   0   11.10    2.27
  -8  -2   0   14.50    2.63
  -8   2   0   13.07    2.57
  -8  -2   0   14.12    2.24
  -8  -2   0   15.69    2.61
  -8  -2   0   14.38    2.32
  -8  -2   0   15.83    2.65
  -8   2   0   14.42    2.68
  -8   2  -1    5.39    1.57
  -8   2  -1   12.06    2.37
  -8  -2  -1    7.16    2.14
  -8   2  -1    6.98    2.01
  -8  -2  -1    4.67    1.44
  -8   2  -1    5.04    1.45
  -8  -2  -1    4.89    1.60
  -8  -2  -1    5.08    1.53
  -8   2  -1    6.42    1.78
  -8  -2  -1    6.65    1.59
  -8   2  -2   32.97    3.92
  -8  -2  -2   26.18    2.96
  -8   2  -2   22.83    2.77
  -8  -2  -2   25.82    2.80
  -8  -2  -2   22.35    2.40
  -8   2  -2   26.88    2.79
  -8  -2  -2   29.16    3.16
  -8   2  -2   31.34    3.55
  -8  -2  -2   27.11    3.60
  -8   2  -3    0.95    1.03
  -8  -2  -3    0.25    0.74
  -8   2  -3    1.32    1.00
  -8  -2  -3    0.06    0.62
  -8  -2  -3    0.43    0.66
  -8  -2  -3    0.41    0.51
  -8   2  -3    0.79    0.77
  -8  -2  -4   27.08    2.45
  -8   2  -4   24.69    2.36
  -8  -2  -4   22.49    2.02
  -8   2  -4   18.19    1.84
  -8   2  -4   26.79    3.01
  -8  -2  -5    5.94    0.91
  -8   2  -5    4.46    0.83
  -8   3   8    9.86    1.49
  -8  -3   8    7.52    1.40
  -8   3   7    0.25    0.75
  -8   3   7    0.54    0.72
  -8  -3   7    0.36    0.79
  -8   3   6    1.53    0.99
  -8  -3   6    5.30    1.30
  -8   3   6    3.91    1.51
  -8   3   6    2.13    0.98
  -8  -3   6    3.33    1.42
  -8  -3   5  106.73    5.59
  -8   3   5  110.53    6.65
  -8  -3   5  107.54    5.76
  -8  -3   5  104.20    5.88
  -8   3   5  109.72    6.63
  -8   3   5  107.14    6.54
  -8  -3   5  108.14    6.74
  -8  -3   4    8.81    1.77
  -8   3   4    8.50    2.23
  -8  -3   4   10.52    1.93
  -8   3   4   51.78    4.81
  -8  -3   4   11.40    2.12
  -8   3   4   10.16    2.28
  -8   3   4    7.54    1.91
  -8  -3   4   11.27    2.22
  -8   3   4   13.24    2.20
  -8   3   3    0.74    1.02
  -8  -3   3   -0.53    0.94
  -8   3   3   -0.11    0.99
  -8   3   3    1.39    0.97
  -8   3   3   -1.62    1.06
  -8  -3   3   -0.74    1.32
  -8   3   3   -0.24    1.45
  -8   3   3    0.42    1.40
  -8  -3   3    0.06    0.81
  -8  -3   3   -0.70    0.90
  -8   3   3   -0.23    0.75
  -8   3   2    5.55    1.50
  -8  -3   2    7.04    2.05
  -8   3   2    5.66    1.76
  -8   3   2    6.59    1.84
  -8   3   2    3.72    1.04
  -8  -3   2    5.98    1.77
  -8   3   2    3.94    1.63
  -8  -3   2    5.39    1.80
  -8   3   2    5.15    1.63
  -8  -3   1   96.15    6.06
  -8   3   1   99.98    6.36
  -8  -3   1  127.00    8.06
  -8   3   1   97.77    6.64
  -8  -3   1   98.62    5.78
  -8  -3   1  104.61    6.22
  -8   3   1   99.21    6.05
  -8  -3   1   93.10    6.16
  -8   3   1   97.09    6.62
  -8   3   0    5.37    1.66
  -8   3   0    6.80    1.84
  -8  -3   0    3.13    1.59
  -8   3   0    5.69    1.84
  -8  -3   0    4.72    1.52
  -8  -3   0    4.73    1.57
  -8  -3   0    4.84    1.68
  -8   3   0    4.47    1.73
  -8   3  -1   32.48    3.86
  -8   3  -1   24.96    3.06
  -8  -3  -1   25.67    3.02
  -8   3  -1   19.64    2.55
  -8  -3  -1   23.65    3.01
  -8  -3  -1   20.69    2.35
  -8   3  -1   25.59    3.04
  -8  -3  -1   28.83    3.26
  -8   3  -1   27.87    3.68
  -8  -3  -1   24.43    3.43
  -8   3  -2    1.81    0.97
  -8  -3  -2    1.47    1.50
  -8   3  -2    4.37    1.67
  -8  -3  -2    2.20    1.08
  -8   3  -2    3.13    1.07
  -8  -3  -2    2.84    1.23
  -8  -3  -2    2.16    0.91
  -8  -3  -2    1.98    0.87
  -8   3  -2    2.21    1.11
  -8   3  -3   16.41    2.66
  -8  -3  -3   14.03    2.06
  -8   3  -3   14.15    1.97
  -8  -3  -3   12.55    1.85
  -8  -3  -3   11.65    1.67
  -8   3  -3   12.01    2.07
  -8  -3  -4    1.27    0.75
  -8   3  -4    0.46    0.63
  -8  -3  -4    1.12    0.58
  -8  -3  -4    2.47    0.89
  -8   3  -4    0.85    0.61
  -8   3  -4    1.11    0.96
  -8   4   8   31.89    2.49
  -8  -4   8   25.64    2.39
  -8   4   7    1.42    0.75
  -8  -4   7    2.35    0.95
  -8   4   7    0.92    1.15
  -8   4   7   59.61    4.34
  -8  -4   7    1.13    1.04
  -8   4   6    1.70    0.88
  -8  -4   6    2.66    1.00
  -8   4   6    0.70    0.98
  -8   4   6    7.98    2.14
  -8  -4   6    2.57    1.31
  -8  -4   5    1.45    0.79
  -8  -4   5    0.91    0.92
  -8   4   5   -0.01    1.19
  -8   4   5    1.13    1.43
  -8  -4   4  141.49    7.38
  -8   4   4   92.55    5.47
  -8  -4   4   86.81    5.34
  -8  -4   4   96.14    5.97
  -8   4   4   97.80    6.59
  -8   4   4  103.70    6.71
  -8  -4   4   98.76    6.31
  -8   4   4  113.96    6.18
  -8   4   3   27.68    3.12
  -8  -4   3   78.00    5.88
  -8   4   3   31.58    3.86
  -8   4   3   60.81    4.06
  -8  -4   3   31.83    3.58
  -8   4   3   30.84    3.86
  -8   4   3   94.87    7.40
  -8  -4   3   26.25    3.26
  -8   4   3   33.54    3.57
  -8  -4   3   27.59    3.58
  -8   4   3   26.73    3.22
  -8   4   2   38.30    4.02
  -8  -4   2  138.25    8.24
  -8   4   2   43.74    4.52
  -8  -4   2   41.97    4.16
  -8   4   2   36.98    4.34
  -8  -4   2   38.66    4.09
  -8   4   2   40.29    3.92
  -8   4   2   36.09    4.00
  -8   4   1   11.06    2.32
  -8   4   1   11.70    2.41
  -8   4   1   12.40    2.45
  -8  -4   1   11.30    2.06
  -8  -4   1   13.30    2.51
  -8  -4   1   15.06    2.57
  -8   4   1    9.59    2.39
  -8   4   0   81.18    5.99
  -8   4   0   76.48    5.61
  -8  -4   0   67.93    4.92
  -8  -4   0   71.23    5.20
  -8  -4   0   59.24    3.93
  -8  -4   0   68.79    5.09
  -8   4   0   77.56    5.31
  -8   4   0   73.29    5.83
  -8  -4   0   60.40    5.07
  -8   4  -1   35.88    4.16
  -8   4  -1   25.35    2.97
  -8  -4  -1   31.18    3.23
  -8  -4  -1   33.21    3.54
  -8  -4  -1   27.38    2.71
  -8  -4  -1   29.26    3.22
  -8   4  -1   29.72    3.19
  -8  -4  -1   27.30    3.44
  -8   4  -2    8.45    1.73
  -8   4  -2    8.23    2.15
  -8  -4  -2    8.03    1.75
  -8   4  -2    6.32    1.44
  -8  -4  -2    9.74    1.85
  -8  -4  -2    7.15    1.46
  -8  -4  -2    8.55    1.63
  -8   4  -3   13.74    2.40
  -8   4  -3   10.01    1.71
  -8  -4  -3   11.86    1.80
  -8  -4  -3   13.09    1.78
  -8  -4  -3   11.37    1.64
   8  -4   3   12.28    1.66
  -8   4  -3    9.81    1.94
  -8  -4  -4   13.88    1.69
  -8   4  -4   10.79    1.43
  -8  -4  -4    8.78    1.19
   8  -4   4   14.78    1.52
  -8  -4  -4   11.58    1.41
  -8   4  -4    9.84    1.43
  -8   4  -4   12.15    1.95
  -8   5   8   13.87    1.64
  -8  -5   8   11.13    1.53
  -8   5   7   38.18    3.01
  -8  -5   7   74.91    4.22
  -8   5   7   66.02    4.28
  -8  -5   7   59.04    4.21
  -8  -5   7   51.77    2.99
  -8  -5   6    0.25    0.67
  -8   5   6    3.00    1.45
  -8  -5   6    2.08    0.77
  -8  -5   5   31.56    3.26
  -8  -5   5   27.58    2.83
  -8   5   5   37.79    4.08
  -8   5   5  139.00    7.98
  -8   5   4   14.23    2.11
  -8   5   4   12.16    2.12
  -8  -5   4    9.57    2.01
  -8   5   4   14.75    2.68
  -8  -5   4    8.96    2.03
  -8   5   3  129.67    6.88
  -8  -5   3  133.65    7.01
  -8   5   3  130.48    7.71
  -8  -5   3  111.99    6.36
  -8   5   3  133.23    6.93
  -8   5   2   18.84    2.90
  -8   5   2   21.19    3.16
  -8  -5   2   17.15    2.70
  -8   5   2   17.77    3.06
  -8   5   2   18.96    2.95
  -8   5   2   14.76    2.70
  -8  -5   2   12.96    2.36
  -8   5   1   27.49    3.53
  -8   5   1   27.65    3.46
  -8  -5   1   24.60    3.04
  -8  -5   1   26.80    3.30
  -8  -5   1   23.35    3.32
  -8   5   1   28.88    3.47
  -8   5   1   25.53    3.63
  -8   5   0    2.44    1.30
  -8   5   0    2.19    1.29
  -8   5   0    2.34    1.53
  -8  -5   0    2.04    1.25
  -8  -5   0    3.00    1.47
  -8  -5   0    3.31    1.41
  -8   5  -1   23.60    3.33
  -8  -5  -1   19.78    2.66
  -8  -5  -1   17.28    2.69
  -8  -5  -1   16.79    2.10
  -8  -5  -1   22.53    2.81
  -8   5  -1   19.87    2.62
  -8   5  -2    3.14    1.05
  -8   5  -2    4.68    1.72
  -8  -5  -2    3.46    1.25
  -8   5  -2    2.44    0.91
  -8  -5  -2    5.86    1.49
  -8  -5  -2    3.02    0.99
  -8  -5  -2    6.21    1.36
  -8   5  -3    6.64    1.21
  -8   5  -3    8.65    1.93
  -8  -5  -3   12.14    1.85
  -8   5  -3    8.62    1.41
  -8  -5  -3    8.48    1.51
  -8  -5  -3    8.91    1.47
   8  -5   3   10.70    1.73
  -8   5  -3    8.07    1.76
  -8  -5  -4    0.47    0.52
  -8   5  -4    0.63    0.42
  -8  -5  -4    0.69    0.59
  -8  -5  -4   -0.07    0.42
   8  -5   4   -0.07    0.61
  -8   5  -4    1.15    0.60
  -8   5  -4    0.49    0.63
  -8   6   8    0.24    0.52
  -8  -6   8    0.08    0.42
  -8   6   7    1.68    0.78
  -8  -6   7    4.00    1.16
  -8   6   7    2.77    1.17
  -8  -6   7    1.82    0.93
  -8  -6   7    3.28    0.83
  -8  -6   6   43.94    3.55
  -8   6   6   40.00    3.65
  -8  -6   6   40.98    3.18
  -8   6   5    1.15    0.77
  -8  -6   5   -0.30    0.84
  -8  -6   5   -0.61    0.93
  -8   6   5   -0.69    1.13
  -8   6   4   11.70    2.03
  -8   6   4   16.82    2.64
  -8  -6   4   19.97    2.55
  -8   6   4   17.06    2.75
  -8   6   3    1.92    1.19
  -8   6   3    1.46    1.23
  -8  -6   3    1.93    1.37
  -8   6   3    3.07    1.73
  -8   6   2  203.42    9.05
  -8   6   2  204.31    9.39
  -8  -6   2  205.30    8.44
  -8   6   2  204.67    9.44
  -8   6   2  205.60    8.58
  -8   6   2  151.23    7.66
  -8   6   1    1.31    1.00
  -8   6   1    2.03    1.24
  -8   6   1    1.75    1.38
  -8  -6   1    3.19    1.21
  -8  -6   1    0.63    1.08
  -8  -6   1    1.72    1.29
  -8   6   1    1.29    1.10
  -8  -6   1    0.66    0.93
  -8   6   0    2.37    1.22
  -8   6   0    3.72    1.48
  -8   6   0    2.94    1.65
  -8  -6   0    4.14    1.49
  -8  -6   0    3.79    1.34
  -8  -6   0    3.05    1.28
  -8  -6   0    3.71    1.12
  -8   6  -1    8.92    1.93
  -8   6  -1   10.05    2.36
  -8  -6  -1   11.05    2.12
  -8  -6  -1   11.29    2.12
  -8  -6  -1    8.22    1.53
  -8  -6  -1    9.41    1.85
  -8  -6  -1    6.59    1.21
  -8   6  -2   34.41    3.67
  -8  -6  -2   34.56    3.23
  -8  -6  -2   31.70    3.12
  -8  -6  -2   28.71    2.56
  -8   6  -2   30.11    2.90
  -8   6  -3    0.53    0.54
  -8   6  -3    0.90    0.88
  -8  -6  -3    1.36    0.74
  -8  -6  -3    1.12    0.83
  -8  -6  -3    1.18    0.66
   8  -6   3   -0.17    0.74
  -8   6  -3    0.61    0.73
  -8  -6  -4    1.59    0.63
  -8  -6  -4    0.32    0.38
  -8  -6  -4    1.34    0.56
  -8   6  -4    1.31    0.58
  -8   7   7    6.05    1.15
  -8  -7   7   15.43    1.78
  -8   7   7   16.51    2.01
  -8  -7   7   10.20    1.58
  -8  -7   7   12.86    1.40
  -8  -7   6   25.18    2.60
  -8   7   6   27.40    2.89
  -8  -7   6   24.70    2.46
  -8   7   5    8.55    1.66
  -8  -7   5   10.83    1.94
  -8  -7   5   12.22    1.66
  -8   7   5   11.07    2.16
  -8   7   4    7.07    1.52
  -8   7   4    5.34    1.55
  -8  -7   4    7.96    1.45
  -8  -7   4    5.78    1.39
  -8   7   4    6.45    1.74
  -8   7   3  120.86    6.73
  -8  -7   3  122.27    6.09
  -8   7   3  129.41    7.05
  -8   7   3  107.65    5.93
  -8   7   2    2.22    1.19
  -8   7   2    3.79    1.58
  -8   7   2    6.12    1.96
  -8  -7   2    4.38    1.52
  -8   7   2    2.50    1.06
  -8   7   1   45.31    4.40
  -8   7   1   49.03    4.47
  -8  -7   1   54.17    3.89
  -8  -7   1   57.42    4.45
  -8   7   1   40.98    4.02
  -8   7   1   51.89    4.43
  -8  -7   1   45.84    3.38
  -8   7   0    0.95    0.96
  -8   7   0   -0.45    0.65
  -8   7   0    1.21    1.15
  -8  -7   0    0.38    0.85
  -8  -7   0    0.53    1.20
  -8  -7   0   -0.34    0.64
  -8   7  -1   21.92    2.97
  -8  -7  -1   16.40    2.32
  -8  -7  -1   20.94    2.54
  -8   7  -1   19.05    2.63
  -8  -7  -1   15.58    1.75
  -8   7  -2    3.33    1.10
  -8   7  -2    3.44    1.27
  -8  -7  -2    3.89    1.29
  -8  -7  -2    5.58    1.28
  -8  -7  -2    1.28    0.68
  -8   7  -3    5.54    1.00
  -8   7  -3    9.08    1.63
  -8  -7  -3   11.51    1.55
  -8  -7  -3   10.54    1.47
   8  -7   3   14.98    1.80
  -8   7  -3    8.28    1.53
  -8  -8   7   -0.78    0.52
  -8   8   7    0.91    0.62
  -8  -8   7   -0.02    0.40
  -8  -8   6   25.59    2.48
  -8   8   6   24.18    2.52
  -8  -8   6   24.87    2.28
  -8   8   5    7.01    1.52
  -8  -8   5    6.49    1.46
  -8  -8   5   36.99    2.77
  -8   8   5    6.46    1.60
  -8   8   4   37.29    3.55
  -8  -8   4   40.89    2.88
  -8  -8   4   37.98    2.90
  -8   8   4   40.17    3.69
  -8  -8   4   30.01    2.81
  -8   8   3    4.76    1.36
  -8   8   3    8.86    1.92
  -8  -8   3    7.56    1.54
  -8   8   3    6.68    1.74
  -8   8   2   41.94    4.11
  -8   8   2   33.57    3.63
  -8  -8   2   36.30    3.22
  -8   8   2   35.04    3.42
  -8   8   1    1.24    1.11
  -8   8   1    2.95    1.31
  -8   8   1    3.25    1.64
  -8  -8   1    2.45    1.18
  -8  -8   1    3.02    1.15
  -8   8   1    1.72    0.89
  -8  -8   1    2.11    0.86
  -8   8   0   43.06    4.12
  -8  -8   0   32.40    2.78
  -8  -8   0   45.14    3.60
  -8   8   0   35.74    3.61
  -8  -8   0   40.11    2.89
  -8   8  -1   18.79    2.55
  -8  -8  -1   12.40    1.83
  -8   8  -1   14.35    2.17
  -8  -8  -1    9.29    1.36
  -8   8  -2    2.27    0.99
  -8   8  -2    5.60    1.51
  -8  -8  -2    2.57    0.96
  -8  -8  -2    1.88    0.65
  -8   8  -3   -0.71    0.48
  -8  -8  -3    0.57    0.54
   8  -8   3    1.07    0.74
  -8   8  -3    0.35    0.48
  -8  -9   6    0.75    0.60
  -8   9   6    0.30    0.59
  -8  -9   6   -0.24    0.56
  -8  -9   6    1.41    0.63
  -8   9   5   29.41    2.70
  -8  -9   5   32.92    2.81
  -8   9   5   31.97    2.87
  -8  -9   5   25.22    2.24
  -8   9   4    1.99    1.08
  -8  -9   4    0.00    0.62
  -8  -9   4   -0.25    0.51
  -8   9   4    1.75    1.07
  -8   9   3    3.61    1.19
  -8   9   3    3.26    1.45
  -8  -9   3    3.37    1.02
  -8   9   3    2.80    1.26
  -8   9   2    2.79    1.13
  -8   9   2    0.63    0.83
  -8   9   2    0.52    1.13
  -8  -9   2    2.27    0.95
  -8   9   1   54.58    4.42
  -8   9   1   35.77    3.27
  -8  -9   1   39.35    3.03
  -8  -9   1   44.63    3.30
  -8   9   1   29.15    2.74
  -8   9   1   43.03    3.61
  -8  -9   1   44.26    3.02
  -8   9   0    2.94    1.18
  -8   9   0    1.58    1.15
  -8  -9   0    1.71    0.85
  -8  -9   0    0.55    0.81
  -8  -9   0    1.16    0.60
  -8   9  -1    9.74    1.72
  -8   9  -1    8.88    1.78
  -8  -9  -1   11.31    1.66
  -8  -9  -1    7.57    1.07
  -8  -9  -1   10.59    1.31
  -8   9  -2    0.67    0.71
  -8   9  -2    0.54    0.67
  -8  -9  -2   -0.39    0.51
  -8  -9  -2    0.07    0.39
  -8  -9  -3    0.94    0.45
  -8   9  -3    1.71    0.64
  -8  10   6    9.91    1.33
  -8 -10   6   15.25    1.45
  -8 -10   6   19.26    1.55
  -8  10   5    5.29    1.11
  -8 -10   5    3.00    0.91
  -8  10   5    2.80    0.91
  -8  10   4   11.09    1.76
  -8 -10   4    8.36    1.26
  -8  10   4    6.59    1.32
  -8  10   3   -0.12    0.54
  -8  10   3    0.22    0.77
  -8 -10   3    0.22    0.75
  -8 -10   3   -0.99    0.55
  -8  10   2    5.56    1.34
  -8  10   2    5.58    1.36
  -8  10   2    5.34    1.63
  -8 -10   2    8.80    1.32
  -8  10   1    0.51    0.82
  -8  10   1   -0.65    0.82
  -8 -10   1    0.25    0.77
  -8 -10   1    0.61    0.57
  -8 -10   1    0.51    0.54
  -8  10   0   35.32    3.11
  -8 -10   0   17.86    1.82
  -8 -10   0   21.74    1.99
  -8  10   0   19.70    2.05
  -8  10   0   24.76    2.49
   8 -10   0   26.48    2.07
  -8 -10   0   26.47    2.09
  -8  10  -1    0.69    0.69
  -8  10  -1    2.05    0.92
  -8 -10  -1    0.66    0.46
  -8 -10  -1    0.75    0.60
  -8  10  -1   -0.31    0.63
  -8 -10  -1    0.99    0.52
  -8  10  -2    1.39    0.62
  -8 -10  -2    2.27    0.65
  -8  10  -2    2.26    0.72
  -8  11   5    1.66    0.65
  -8  11   5    3.63    0.82
  -8 -11   5    2.27    0.61
  -8 -11   5    4.20    0.83
  -8  11   4   -0.37    0.64
  -8  11   4    0.36    0.64
  -8 -11   4    0.64    0.57
  -8 -11   4   -0.57    0.45
  -8  11   3   22.05    2.41
  -8  11   3   13.01    1.73
  -8 -11   3   18.34    1.73
  -8  11   2    0.86    0.60
  -8  11   2    1.68    0.68
  -8  11   2   -0.06    0.69
  -8 -11   2    2.75    0.96
  -8  11   1    0.45    0.74
  -8  11   1    1.83    0.88
  -8 -11   1    0.31    0.37
   8 -11  -1    0.29    0.63
  -8  11   0   -0.95    0.57
  -8  11   0   -0.42    0.56
  -8 -11   0    0.10    0.50
  -8 -11   0   -0.59    0.49
   8 -11   0    0.07    0.51
  -8 -11   0   -0.15    0.42
  -8  11  -1    8.54    1.21
  -8 -11  -1   11.24    1.08
  -8  12   4   -0.32    0.49
  -8 -12   4    0.49    0.35
  -8  12   3    2.87    0.84
  -8 -12   3    0.43    0.45
  -8  12   2   20.83    1.99
  -8 -12   2   16.58    1.47
  -8  12   1    1.59    0.60
  -8  12   1    1.53    0.64
  -8 -12   1    2.37    0.71
  -8  12   0    0.30    0.39
  -8 -12   0    0.01    0.46
  -9   0   7   -0.41    0.70
  -9   0   6   42.04    3.49
  -9   0   5   -0.72    1.00
  -9   0   5    0.39    1.04
  -9   0   4    2.23    0.86
  -9   0   4    1.63    0.96
  -9   0   4    0.81    0.91
  -9   0   3   -0.16    1.10
  -9   0   3   -0.47    0.86
  -9   0   3    5.02    1.91
  -9   0   3   -0.15    0.90
  -9   0   2   66.95    4.43
  -9   0   2   65.47    4.98
  -9   0   2   65.42    4.11
  -9   0   2   74.86    4.66
  -9   0   2   69.86    4.94
  -9   0   1    7.49    2.26
  -9   0   1    0.07    0.87
  -9   0   1    0.55    0.70
  -9   0   1   -0.58    1.06
  -9   0   1    2.11    1.13
  -9   0   0   -0.12    1.17
  -9   0   0    0.58    0.63
  -9   0   0   -0.09    0.71
  -9   0   0    0.73    0.88
  -9   0  -1   -0.90    1.03
  -9   0  -1    0.92    0.69
  -9   0  -1    1.53    0.74
  -9   0  -1   -0.36    0.78
  -9   0  -2   24.19    2.24
  -9   0  -2   24.31    2.42
  -9   0  -2   32.47    3.19
  -9   0  -3    0.28    0.50
  -9   1   7    8.69    1.51
  -9  -1   7    0.82    0.58
  -9   1   6   -1.48    0.99
  -9   1   6   -1.48    1.17
  -9  -1   6    0.39    0.83
  -9  -1   5   23.42    2.51
  -9   1   5   23.70    2.66
  -9  -1   5  139.58    6.25
  -9   1   5   25.01    2.75
  -9  -1   5   28.31    2.99
  -9  -1   4    0.99    0.88
  -9   1   4    2.64    1.34
  -9   1   4   21.80    2.57
  -9  -1   4    1.95    0.93
  -9   1   4    5.65    1.55
  -9  -1   4    1.86    0.82
  -9   1   4    2.81    0.96
  -9  -1   3   28.99    3.22
  -9   1   3   29.96    3.27
  -9   1   3   27.74    2.56
  -9  -1   3   30.52    2.83
  -9   1   3   82.71    5.70
  -9  -1   3   29.51    2.97
  -9   1   3   31.43    3.16
  -9  -1   3   31.02    3.21
  -9   1   3   31.57    3.24
  -9   1   2   20.04    2.61
  -9  -1   2   19.33    2.82
  -9   1   2   19.62    2.86
  -9   1   2   14.86    1.98
  -9  -1   2   21.01    2.53
  -9   1   2   22.06    2.53
  -9  -1   2   19.54    2.69
  -9   1   2   19.59    2.65
  -9  -1   1   71.08    6.12
  -9   1   1    2.93    1.18
  -9  -1   1    2.10    1.04
  -9   1   1    4.05    1.33
  -9   1   1    1.03    0.78
  -9  -1   1    1.39    0.79
  -9  -1   1    4.15    1.31
  -9  -1   1    3.13    1.19
  -9   1   1    3.15    1.18
  -9   1   1    5.35    1.40
  -9  -1   0    2.72    1.34
  -9   1   0    0.56    1.06
  -9  -1   0    1.38    0.87
  -9  -1   0   -0.18    0.65
  -9  -1   0    0.48    0.70
  -9  -1   0    0.21    0.79
  -9   1   0    2.05    1.11
  -9   1   0    0.76    0.85
  -9   1  -1   43.11    3.91
  -9  -1  -1   32.69    2.82
  -9   1  -1   31.58    2.60
  -9  -1  -1   36.18    2.70
  -9   1  -1   36.07    2.84
  -9  -1  -1   40.17    3.33
  -9   1  -1   40.56    3.49
  -9  -1  -1   40.40    3.76
  -9   1  -2    4.80    1.40
  -9  -1  -2    4.82    1.18
  -9   1  -2    3.93    1.02
  -9  -1  -2    4.48    1.00
  -9   1  -2    4.23    1.17
  -9  -1  -2    6.69    1.60
  -9  -1  -3   10.64    1.32
  -9   1  -3    9.78    1.20
  -9   1  -3    9.23    1.18
  -9   2   7   80.52    4.29
  -9  -2   7   13.07    1.72
  -9   2   6    3.89    0.93
  -9   2   6    8.16    1.64
  -9   2   6   18.90    2.43
  -9  -2   6    6.27    1.39
  -9   2   5    3.34    1.19
  -9  -2   5   48.02    3.79
  -9   2   5    5.50    1.76
  -9   2   5    8.64    2.00
  -9  -2   5    4.24    1.32
  -9  -2   4   57.99    4.38
  -9   2   4   45.68    4.06
  -9  -2   4   52.76    3.70
  -9   2   4   85.24    5.49
  -9  -2   4   52.00    4.11
  -9  -2   3   14.55    2.55
  -9   2   3    8.11    1.92
  -9   2   3    6.68    1.40
  -9   2   3    7.03    1.39
  -9  -2   3    6.70    1.57
  -9  -2   3    2.47    0.76
  -9  -2   3    6.50    1.69
  -9   2   3    7.52    1.75
  -9   2   3    6.89    1.59
  -9  -2   2   54.94    5.07
  -9   2   2    2.40    1.28
  -9   2   2    4.22    1.47
  -9   2   2    0.65    0.68
  -9  -2   2    1.66    0.97
  -9  -2   2    1.11    1.11
  -9   2   2    1.56    0.91
  -9   2   2    3.74    1.49
  -9   2   1    4.40    1.42
  -9   2   1    1.88    0.92
  -9  -2   1    5.47    1.38
  -9   2   1    5.00    1.70
  -9  -2   1    4.73    1.34
  -9  -2   1    5.60    1.53
  -9   2   1    3.91    1.30
  -9   2   0   61.03    4.74
  -9   2   0   84.95    5.59
  -9  -2   0   53.33    3.65
  -9  -2   0   58.47    3.91
  -9   2   0   62.79    4.16
  -9  -2   0   57.69    4.33
  -9   2   0   59.40    4.49
  -9  -2   0   58.91    4.36
  -9  -2  -1    1.62    1.19
  -9   2  -1    2.36    1.40
  -9  -2  -1    0.69    0.83
  -9  -2  -1   -0.16    0.63
  -9  -2  -1    0.79    0.75
  -9   2  -1    2.42    1.17
  -9   2  -1    2.25    0.93
  -9  -2  -2   17.19    1.96
  -9   2  -2   12.90    1.56
  -9  -2  -2   14.98    1.48
  -9  -2  -2   14.90    1.81
  -9   2  -2   13.66    1.87
  -9   2  -2   19.51    2.54
  -9  -2  -3    0.36    0.47
  -9   2  -3    0.52    0.48
  -9  -3   7    9.26    1.49
  -9   3   6    0.61    0.59
  -9   3   6    1.08    0.89
  -9  -3   6   -0.16    0.72
  -9   3   5   11.46    1.96
  -9  -3   5    7.67    1.30
  -9  -3   5   36.78    3.13
  -9   3   5    9.20    2.03
  -9   3   5  121.87    6.38
  -9  -3   5    9.91    1.76
  -9   3   4    3.91    1.51
  -9  -3   4    3.94    1.16
  -9   3   4    4.71    1.70
  -9   3   4    1.76    1.18
  -9  -3   4    2.13    1.08
  -9   3   3   60.48    4.10
  -9   3   3   67.23    5.02
  -9  -3   3   66.29    4.37
  -9  -3   3   51.52    3.68
  -9   3   3   61.46    4.39
  -9   3   3   55.88    4.20
  -9   3   2   43.42    3.76
  -9   3   2   47.37    4.17
  -9  -3   2   38.09    3.47
  -9   3   2   45.34    3.71
  -9  -3   2   35.65    3.52
  -9   3   2   37.88    3.65
  -9   3   1    0.11    0.87
  -9   3   1    0.65    0.83
  -9   3   1    0.26    0.91
  -9  -3   1    1.09    0.86
  -9  -3   1    0.31    0.79
  -9   3   1    0.74    1.09
  -9   3   0    2.28    1.04
  -9   3   0    9.72    2.26
  -9   3   0    2.23    1.27
  -9  -3   0    0.19    0.73
  -9  -3   0    2.07    1.08
  -9  -3   0   -0.31    0.92
  -9   3   0    1.31    1.05
  -9  -3   0    2.44    1.19
  -9   3  -1   89.15    5.45
  -9  -3  -1   75.67    4.23
  -9  -3  -1   74.41    4.02
  -9   3  -1   74.20    4.14
  -9  -3  -1   66.54    4.14
  -9   3  -1   76.30    4.81
  -9   3  -2    1.15    1.12
  -9  -3  -2   -0.31    0.69
  -9  -3  -2    1.43    0.60
  -9  -3  -2    0.33    0.49
  -9   3  -2    0.36    0.63
  -9   3  -2    0.76    0.44
  -9  -3  -3    0.84    0.53
  -9   3  -3    0.26    0.39
  -9   3  -3    1.83    0.77
  -9   4   7   13.05    1.53
  -9  -4   7   13.02    1.59
  -9   4   6    1.76    0.87
  -9   4   6    0.66    0.99
  -9  -4   6   -0.40    0.74
  -9   4   5   15.37    2.24
  -9  -4   5   13.31    1.70
  -9  -4   5   38.49    3.10
  -9   4   5   15.92    2.28
  -9  -4   5   13.08    1.98
  -9   4   4  118.20    6.45
  -9  -4   4   83.73    4.10
  -9  -4   4  112.27    5.49
  -9   4   4  117.51    6.52
  -9  -4   4   88.65    4.93
  -9   4   4  119.01    5.60
  -9   4   3    6.13    1.74
  -9   4   3    7.18    1.56
  -9  -4   3    3.74    1.45
  -9   4   3    4.63    1.33
  -9   4   3    8.95    1.75
  -9   4   2    4.13    1.44
  -9   4   2    2.72    1.18
  -9   4   2    4.73    1.59
  -9  -4   2    3.18    1.13
  -9  -4   2    2.33    1.22
  -9   4   2    2.57    1.15
  -9   4   1   20.97    2.78
  -9   4   1   19.08    2.57
  -9  -4   1   19.84    2.42
  -9   4   1   24.85    2.82
  -9  -4   1   19.78    2.58
  -9   4   1   21.60    2.79
  -9   4   0   95.16    5.71
  -9   4   0   74.66    4.69
  -9  -4   0   76.36    4.41
  -9  -4   0   87.16    4.73
  -9   4   0   80.74    4.79
  -9  -4   0   79.99    4.81
  -9   4   0   82.64    5.19
  -9   4  -1    1.59    0.86
  -9   4  -1    3.63    1.48
  -9  -4  -1    0.39    0.68
  -9  -4  -1    1.24    0.82
  -9  -4  -1    2.00    0.81
  -9   4  -1    2.37    0.99
  -9   4  -2    6.67    1.53
  -9  -4  -2    5.76    1.18
  -9  -4  -2    5.88    1.07
  -9   4  -2    4.98    1.16
  -9   4  -2    4.60    0.89
  -9  -4  -3    0.19    0.42
  -9   4  -3    0.72    0.61
  -9   5   7    5.93    1.04
  -9  -5   7    5.14    0.95
  -9   5   6    0.34    0.57
  -9  -5   6    0.38    0.56
  -9   5   6    0.51    0.72
  -9  -5   6    0.68    0.55
  -9   5   5    9.54    1.86
  -9  -5   5    7.43    1.22
  -9  -5   5   42.65    3.14
  -9   5   5   15.47    2.32
  -9  -5   5    7.24    1.31
  -9   5   4    1.89    1.13
  -9   5   4    3.20    0.90
  -9  -5   4    1.18    0.68
  -9  -5   4    0.17    0.87
  -9   5   4    2.61    1.38
  -9  -5   4   -0.11    0.71
  -9   5   4    1.62    1.02
  -9   5   3   12.04    1.90
  -9   5   3   12.00    2.10
  -9   5   3   14.37    2.02
  -9  -5   3    9.36    1.73
  -9   5   2    2.66    1.38
  -9   5   2    3.54    1.45
  -9   5   2    4.62    1.51
  -9  -5   2    4.95    1.47
  -9   5   2    3.32    1.07
  -9   5   1   48.84    4.01
  -9   5   1   39.02    3.67
  -9  -5   1   50.31    3.73
  -9   5   1   51.44    3.88
  -9   5   1   39.72    3.59
  -9   5   0    2.63    1.00
  -9   5   0    4.82    1.40
  -9   5   0    5.24    1.55
  -9  -5   0    3.53    1.19
  -9   5   0    2.74    1.13
  -9   5  -1   15.28    2.32
  -9  -5  -1   12.03    1.70
  -9  -5  -1   12.18    1.64
  -9   5  -1   10.62    1.60
  -9   5  -1   10.92    1.87
  -9   5  -2   -0.14    0.49
  -9   5  -2    0.73    0.77
  -9  -5  -2    0.63    0.58
  -9  -5  -2    0.33    0.48
  -9   5  -2    0.67    0.64
  -9   6   6   40.25    2.86
  -9  -6   6   53.04    2.86
  -9   6   6   64.88    3.72
  -9  -6   6   43.47    2.78
  -9   6   5    5.42    1.43
  -9  -6   5    3.02    0.87
  -9  -6   5   84.49    3.83
  -9   6   5    5.18    1.30
  -9  -6   5    1.82    0.80
  -9   6   4    1.69    0.96
  -9   6   4    1.53    0.86
  -9  -6   4    0.52    0.59
  -9  -6   4    0.10    0.70
  -9   6   4    1.36    1.10
  -9   6   4    1.02    0.79
  -9   6   3    0.51    0.74
  -9   6   3    0.82    0.91
  -9   6   3    0.98    0.85
  -9  -6   3   -0.31    0.64
  -9  -6   3    0.03    0.77
  -9   6   2   70.47    4.68
  -9   6   2   56.96    4.35
  -9  -6   2   65.89    4.09
  -9   6   2   61.82    4.09
  -9   6   2   48.65    3.42
  -9   6   1    0.63    1.09
  -9   6   1   -0.83    0.89
  -9   6   1    0.81    1.00
  -9  -6   1    3.57    1.21
  -9   6   1    0.63    0.78
  -9   6   0   11.22    1.71
  -9   6   0   13.99    2.23
  -9  -6   0   10.13    1.67
  -9   6   0   10.61    1.82
  -9   6  -1    1.00    0.63
  -9   6  -1    0.85    0.82
  -9  -6  -1    1.24    0.79
  -9   6  -1    1.11    0.83
  -9   6  -2    4.82    1.18
  -9  -6  -2    4.92    0.90
  -9   6  -2    4.42    0.99
  -9   7   6   -0.71    0.53
  -9  -7   6    0.46    0.41
  -9   7   6    1.61    0.72
  -9   7   5   10.67    1.70
  -9  -7   5   11.01    1.36
  -9   7   5   12.49    1.78
  -9   7   4    0.89    0.71
  -9   7   4    1.09    0.73
  -9  -7   4    0.48    0.51
  -9  -7   4   -0.40    0.64
  -9   7   3    6.66    1.57
  -9   7   3    4.29    1.33
  -9  -7   3    4.67    1.05
  -9  -7   3    7.95    1.30
  -9   7   3    7.88    1.46
  -9   7   2    0.34    0.75
  -9   7   2   -0.27    0.70
  -9   7   2   -0.07    1.01
  -9  -7   2    1.27    0.74
  -9   7   1   49.78    3.91
  -9   7   1   31.46    2.74
  -9  -7   1   38.05    2.86
  -9   7   1   42.12    3.22
  -9   7   1   32.63    2.75
  -9   7   0    0.01    0.65
  -9   7   0    0.24    0.84
  -9  -7   0    1.02    0.82
  -9   7   0    1.16    0.82
  -9   7  -1    0.46    0.66
  -9   7  -1   -0.09    0.65
  -9  -7  -1    0.88    0.60
  -9   7  -1    0.34    0.52
  -9   7  -2    1.19    0.66
  -9   8   5    4.11    1.01
  -9  -8   5    4.72    0.87
  -9   8   4   17.30    1.90
  -9   8   4   20.40    2.29
  -9  -8   4   14.96    1.56
  -9  -8   4   23.99    1.73
  -9   8   3    1.26    0.82
  -9   8   3    2.89    0.96
  -9  -8   3    1.03    0.64
  -9  -8   3    0.31    0.47
  -9  -8   3    0.33    0.48
  -9   8   3    1.25    0.72
  -9   8   2    0.55    0.69
  -9   8   2    1.24    0.70
  -9   8   2    1.79    0.93
  -9  -8   2    2.17    0.84
  -9   8   1    1.78    0.85
  -9   8   1   -1.16    0.85
  -9   8   1    2.95    1.12
  -9  -8   1    1.97    0.83
  -9   8   1    0.63    0.47
  -9   8   0   31.40    2.79
  -9  -8   0   25.93    2.06
  -9   8   0   23.21    2.18
  -9   8   0   23.16    2.07
  -9   8  -1    0.54    0.51
  -9   8  -1    0.28    0.68
  -9  -8  -1   -0.77    0.50
  -9   8  -1   -0.53    0.48
  -9   9   4    8.24    1.25
  -9   9   4    7.51    1.27
  -9  -9   4    5.25    0.89
  -9   9   3   24.28    2.26
  -9   9   3   14.83    1.74
  -9  -9   3    9.91    1.19
  -9  -9   3   15.56    1.31
  -9   9   2    2.75    0.91
  -9   9   2    3.86    0.85
  -9   9   2    5.31    1.22
  -9  -9   2    6.66    1.02
  -9  -9   2    5.43    0.88
  -9   9   1    0.61    0.57
  -9   9   1    0.82    0.65
  -9  -9   1    1.64    0.59
  -9   9   0    1.40    0.68
  -9   9   0    0.85    0.64
  -9  -9   0    1.07    0.52
  -9  10   3   11.92    1.40
  -9  10   2    2.58    0.78
  -9  10   1    0.70    0.53
 -10   0   3   28.02    2.38
 -10   0   2   12.38    1.27
 -10   0   2   23.26    2.39
 -10   0   1    0.34    0.67
 -10   0   1    1.13    0.72
 -10   0   0   61.12    3.50
 -10   0   0   61.60    3.41
 -10   0  -1    0.23    0.37
 -10   1   4   11.24    1.86
 -10   1   3   24.40    2.73
 -10  -1   3    9.77    1.32
 -10  -1   2   -0.45    0.62
 -10  -1   2   -0.35    0.56
 -10   1   2   -0.20    0.68
 -10  -1   1   58.00    2.78
 -10  -1   1   67.60    3.84
 -10   1   1   67.93    3.87
 -10   1   1   70.89    3.75
 -10   1   0    1.60    0.81
 -10  -1   0    1.03    0.66
 -10   1   0    0.13    0.50
 -10  -1  -1    9.72    1.21
 -10   1  -1    7.19    1.06
 -10   2   5    2.15    0.85
 -10   2   4   22.06    2.25
 -10  -2   4  105.66    3.99
 -10   2   3    1.69    1.00
 -10  -2   3   -0.77    0.67
 -10   2   2   20.62    1.95
 -10   2   2   51.77    3.76
 -10  -2   2   21.17    1.91
 -10   2   2   21.29    2.18
 -10   2   1    5.60    1.14
 -10  -2   1    3.84    0.82
 -10  -2   1    4.16    1.01
 -10   2   1    4.65    1.14
 -10  -2   0   20.49    1.94
 -10   2   0   19.70    1.97
 -10   2   0   25.47    2.34
 -10   2  -1    0.54    0.58
 -10   2  -1    1.18    0.56
 -10   3   5   -0.83    0.57
 -10   3   4    0.29    0.63
 -10  -3   4   50.03    2.79
 -10   3   3   27.78    2.56
 -10  -3   3   28.73    2.16
 -10   3   2   17.61    2.20
 -10   3   2    5.08    0.97
 -10  -3   2    4.81    0.99
 -10   3   2    4.66    0.97
 -10   3   1    3.67    0.95
 -10  -3   1    2.50    0.70
 -10   3   1    2.30    0.78
 -10   3   1    3.38    0.99
 -10   3   0    0.43    0.64
 -10  -3   0    0.63    0.46
 -10   3   0    0.26    0.51
 -10   4   5   -2.19    0.71
 -10   4   4    9.64    1.44
 -10  -4   4   53.69    2.68
 -10   4   3    0.78    0.56
 -10  -4   3    0.52    0.56
 -10   4   2    5.89    1.33
 -10   4   2    5.23    1.05
 -10  -4   2    1.59    0.69
 -10   4   2    2.83    0.87
 -10   4   2    2.55    0.66
 -10   4   1   -0.70    0.79
 -10  -4   1   -0.70    0.61
 -10   4   1    0.09    0.43
 -10   4   1   -0.15    0.56
 -10   4   0    6.64    1.25
 -10  -4   0    7.11    0.96
 -10   4   0    8.26    1.12
 -10   4   0    6.29    1.07
 -10   5   4    2.64    0.77
 -10  -5   4   64.35    2.70
 -10   5   3   -0.48    0.67
 -10  -5   3   -0.35    0.51
 -10   5   2    3.73    1.03
 -10   5   2    1.40    0.76
 -10  -5   2    0.29    0.46
 -10   5   2    1.31    0.62
 -10   5   1   27.24    2.33
 -10  -5   1   23.85    1.82
 -10   5   1   23.23    1.99
 -10   5   1   19.82    1.72
 -10   5   0   -0.07    0.53
 -10   6   4   -1.45    0.71
 -10   6   3    7.46    1.15
 -10  -6   3    6.92    0.96
 -10  -6   2   -0.01    0.38
 -10   6   2    0.02    0.47
 -10  -6   1    0.18    0.35
 -10   6   1    0.53    0.54
   0   0   0    0.00    0.00

TITL XPC16_250Abs in P2(1)/c
REM P2(1)/c (#14 in standard setting)
CELL 1.54184   8.534668  15.279276   8.761960  90.0000 103.5920  90.0000
ZERR    2.00   0.000547   0.001066   0.000690   0.0000   0.0077   0.0000
LATT  1
SYMM -x, y+1/2,-z+1/2
SFAC C H N O Cl Ni
UNIT 24.00 40.00 8.00 24.00 4.00 2.00
TREF
HKLF 4
END
_computing_structure_solution     'SHELXT 2014/5 (Sheldrick, 2014)'
;
_shelx_hkl_checksum              69401
_olex2_submission_special_instructions 'No special instructions were received'
loop_
_space_group_symop_operation_xyz
'x, y, z'
'-x, y+1/2, -z+1/2'
'-x, -y, -z'
'x, -y-1/2, z-1/2'
loop_
_atom_site_label
_atom_site_type_symbol
_atom_site_fract_x
_atom_site_fract_y
_atom_site_fract_z
_atom_site_U_iso_or_equiv
_atom_site_adp_type
_atom_site_occupancy
_atom_site_site_symmetry_order
_atom_site_calc_flag
_atom_site_refinement_flags_posn
_atom_site_refinement_flags_adp
_atom_site_refinement_flags_occupancy
_atom_site_disorder_assembly
_atom_site_disorder_group
Ni1 Ni 0.5000 0.5000 1.0000 0.0389(3) Uani 1 2 d S T P . .
O1 O 0.7836(7) 0.7559(3) 0.6707(7) 0.1119(18) Uani 1 1 d . . . . .
O2 O 0.8527(8) 0.6241(3) 0.6415(7) 0.124(2) Uani 1 1 d . . . . .
H2 H 0.897(13) 0.640(7) 0.577(13) 0.186 Uiso 1 1 d R . . . .
N1 N 0.2983(4) 0.4362(2) 0.9419(3) 0.0423(6) Uani 1 1 d . . . . .
H1 H 0.3226 0.3809 0.8932 0.051 Uiso 1 1 calc R . . . .
N2 N 0.4239(4) 0.5670(2) 0.8095(3) 0.0446(7) Uani 1 1 d . . . . .
H2A H 0.3804 0.6222 0.8422 0.054 Uiso 1 1 calc R . . . .
C1 C 0.2135(4) 0.4110(3) 1.0655(4) 0.0463(8) Uani 1 1 d . . . . .
H1A H 0.1152 0.3785 1.0176 0.056 Uiso 1 1 calc R . . . .
H1B H 0.1822 0.4638 1.1143 0.056 Uiso 1 1 calc R . . . .
C2 C 0.1856(5) 0.4856(3) 0.8161(5) 0.0499(9) Uani 1 1 d . . . . .
H2B H 0.1356 0.5337 0.8615 0.060 Uiso 1 1 calc R . . . .
H2C H 0.1003 0.4470 0.7586 0.060 Uiso 1 1 calc R . . . .
C3 C 0.2837(5) 0.5208(3) 0.7081(5) 0.0540(9) Uani 1 1 d . . . . .
H3A H 0.3206 0.4729 0.6509 0.065 Uiso 1 1 calc R . . . .
H3B H 0.2193 0.5613 0.6319 0.065 Uiso 1 1 calc R . . . .
C4 C 0.5365(5) 0.5933(3) 0.7128(4) 0.0508(9) Uani 1 1 d . . . . .
H4A H 0.4789 0.6289 0.6242 0.061 Uiso 1 1 calc R . . . .
H4B H 0.5772 0.5410 0.6704 0.061 Uiso 1 1 calc R . . . .
C5 C 0.6782(5) 0.6456(3) 0.8091(5) 0.0486(8) Uani 1 1 d . . . . .
H5 H 0.6359 0.6949 0.8610 0.058 Uiso 1 1 calc R . . . .
C6 C 0.7751(5) 0.6821(3) 0.6992(5) 0.0523(9) Uani 1 1 d . . . . .
Cl1 Cl 0.68445(15) 0.33087(7) 0.78032(14) 0.0655(3) Uani 1 1 d . U . . .
O3A O 0.7713(12) 0.3915(5) 0.6946(11) 0.108(3) Uani 0.598(10) 1 d . U . A 1
O4A O 0.5240(11) 0.3496(8) 0.7204(18) 0.135(4) Uani 0.598(10) 1 d . U . A 1
O5A O 0.731(2) 0.3548(10) 0.9331(12) 0.148(5) Uani 0.598(10) 1 d . U . A 1
O6 O 0.7253(6) 0.2465(3) 0.7444(7) 0.1069(16) Uani 1 1 d . . . . .
O3B O 0.5672(17) 0.3079(10) 0.8853(17) 0.113(4) Uani 0.402(10) 1 d . U . A 2
O4B O 0.8165(18) 0.3605(11) 0.893(2) 0.120(5) Uani 0.402(10) 1 d . U . A 2
O5B O 0.598(3) 0.3751(16) 0.667(2) 0.169(8) Uani 0.402(10) 1 d . U . A 2
O7 O 0.0204(5) 0.6889(4) 0.4622(5) 0.0975(14) Uani 1 1 d . U . . .
H7A H 0.0700 0.7339 0.5089 0.146 Uiso 1 1 d G . . . .
H7B H 0.0724 0.6685 0.3969 0.146 Uiso 1 1 d G . . . .
loop_
_atom_site_aniso_label
_atom_site_aniso_U_11
_atom_site_aniso_U_22
_atom_site_aniso_U_33
_atom_site_aniso_U_23
_atom_site_aniso_U_13
_atom_site_aniso_U_12
Ni1 0.0406(5) 0.0391(5) 0.0387(4) 0.0032(3) 0.0128(3) 0.0005(3)
O1 0.166(5) 0.055(2) 0.154(4) 0.028(2) 0.117(4) 0.011(2)
O2 0.177(5) 0.069(2) 0.178(5) 0.030(3) 0.147(5) 0.024(3)
N1 0.0439(15) 0.0439(15) 0.0408(15) 0.0017(12) 0.0131(12) 0.0006(12)
N2 0.0437(15) 0.0472(16) 0.0444(15) 0.0065(12) 0.0134(12) 0.0013(12)
C1 0.0433(17) 0.0490(19) 0.0510(19) 0.0021(15) 0.0201(15) -0.0019(14)
C2 0.0425(18) 0.057(2) 0.0483(19) 0.0071(16) 0.0064(15) -0.0029(15)
C3 0.050(2) 0.066(2) 0.0441(19) 0.0086(17) 0.0073(16) -0.0023(17)
C4 0.056(2) 0.057(2) 0.0428(18) 0.0076(16) 0.0177(16) -0.0030(17)
C5 0.053(2) 0.0447(19) 0.052(2) 0.0031(15) 0.0213(17) -0.0003(15)
C6 0.054(2) 0.055(2) 0.051(2) 0.0049(17) 0.0193(17) -0.0015(17)
Cl1 0.0745(7) 0.0561(6) 0.0706(7) -0.0136(5) 0.0262(5) 0.0050(5)
O3A 0.136(7) 0.075(4) 0.138(7) 0.000(4) 0.084(6) -0.016(4)
O4A 0.073(4) 0.133(8) 0.207(11) 0.016(7) 0.047(5) 0.023(4)
O5A 0.211(12) 0.163(10) 0.080(4) -0.033(5) 0.053(5) -0.016(10)
O6 0.113(3) 0.056(2) 0.168(5) -0.031(3) 0.067(3) -0.009(2)
O3B 0.117(8) 0.121(9) 0.113(8) -0.032(7) 0.050(7) 0.000(7)
O4B 0.092(7) 0.102(9) 0.148(10) -0.024(9) -0.008(7) -0.012(6)
O5B 0.162(14) 0.205(17) 0.128(9) 0.063(11) 0.008(9) 0.050(12)
O7 0.080(3) 0.145(4) 0.079(3) 0.005(3) 0.040(2) -0.018(3)
loop_
_atom_type_symbol
_atom_type_description
_atom_type_scat_dispersion_real
_atom_type_scat_dispersion_imag
_atom_type_scat_source
C C 0.0181 0.0091 'International Tables Vol C Tables 4.2.6.8 and 6.1.1.4'
H H 0.0000 0.0000 'International Tables Vol C Tables 4.2.6.8 and 6.1.1.4'
Cl Cl 0.3639 0.7018 'International Tables Vol C Tables 4.2.6.8 and 6.1.1.4'
N N 0.0311 0.0180 'International Tables Vol C Tables 4.2.6.8 and 6.1.1.4'
Ni Ni -3.0029 0.5091 'International Tables Vol C Tables 4.2.6.8 and 6.1.1.4'
O O 0.0492 0.0322 'International Tables Vol C Tables 4.2.6.8 and 6.1.1.4'
loop_
_exptl_crystal_face_index_h
_exptl_crystal_face_index_k
_exptl_crystal_face_index_l
_exptl_crystal_face_perp_dist
_exptl_oxdiff_crystal_face_indexfrac_h
_exptl_oxdiff_crystal_face_indexfrac_k
_exptl_oxdiff_crystal_face_indexfrac_l
_exptl_oxdiff_crystal_face_x
_exptl_oxdiff_crystal_face_y
_exptl_oxdiff_crystal_face_z
-1 0 0 0.0399 -0.9999 0.0001 0.0002 -0.0827 0.0105 0.1659
0 -1 0 0.0170 -0.0003 -1.0004 0.0003 -0.0182 -0.0991 -0.0025
0 1 0 0.0215 0.0003 1.0004 -0.0003 0.0182 0.0991 0.0025
1 5 3 0.0539 0.9998 4.9928 2.9968 0.6927 0.3847 -0.0306
5 -1 0 0.0571 4.9993 -1.0011 -0.0008 0.3953 -0.1515 -0.8321
1 2 -5 0.0854 1.0036 2.0154 -4.9980 -0.7457 0.3552 -0.3654
loop_
_geom_angle_atom_site_label_1
_geom_angle_atom_site_label_2
_geom_angle_atom_site_label_3
_geom_angle
_geom_angle_site_symmetry_1
_geom_angle_site_symmetry_3
N1 Ni1 N1 180.0 3_667 .
N2 Ni1 N1 93.33(13) 3_667 .
N2 Ni1 N1 86.67(13) . .
N2 Ni1 N1 93.33(13) . 3_667
N2 Ni1 N1 86.67(13) 3_667 3_667
N2 Ni1 N2 180.0 3_667 .
C6 O2 H2 116(8) . .
Ni1 N1 H1 106.2 . .
C1 N1 Ni1 119.5(2) . .
C1 N1 H1 106.2 . .
C2 N1 Ni1 108.6(2) . .
C2 N1 H1 106.2 . .
C2 N1 C1 109.3(3) . .
Ni1 N2 H2A 105.9 . .
C3 N2 Ni1 108.8(2) . .
C3 N2 H2A 105.9 . .
C4 N2 Ni1 120.4(2) . .
C4 N2 H2A 105.9 . .
C4 N2 C3 109.1(3) . .
N1 C1 H1A 109.5 . .
N1 C1 H1B 109.5 . .
N1 C1 C5 110.8(3) . 3_667
H1A C1 H1B 108.1 . .
C5 C1 H1A 109.5 3_667 .
C5 C1 H1B 109.5 3_667 .
N1 C2 H2B 110.4 . .
N1 C2 H2C 110.4 . .
N1 C2 C3 106.8(3) . .
H2B C2 H2C 108.6 . .
C3 C2 H2B 110.4 . .
C3 C2 H2C 110.4 . .
N2 C3 C2 106.4(3) . .
N2 C3 H3A 110.4 . .
N2 C3 H3B 110.4 . .
C2 C3 H3A 110.4 . .
C2 C3 H3B 110.4 . .
H3A C3 H3B 108.6 . .
N2 C4 H4A 109.4 . .
N2 C4 H4B 109.4 . .
N2 C4 C5 111.3(3) . .
H4A C4 H4B 108.0 . .
C5 C4 H4A 109.4 . .
C5 C4 H4B 109.4 . .
C1 C5 H5 108.9 3_667 .
C4 C5 C1 111.6(3) . 3_667
C4 C5 H5 108.9 . .
C6 C5 C1 109.7(3) . 3_667
C6 C5 C4 108.7(3) . .
C6 C5 H5 108.9 . .
O1 C6 O2 121.6(4) . .
O1 C6 C5 124.3(4) . .
O2 C6 C5 114.0(4) . .
O4A Cl1 O3A 104.2(7) . .
O4A Cl1 O6 112.7(6) . .
O5A Cl1 O3A 105.3(7) . .
O5A Cl1 O4A 110.8(10) . .
O5A Cl1 O6 116.3(7) . .
O6 Cl1 O3A 106.3(4) . .
O6 Cl1 O3B 98.9(6) . .
O4B Cl1 O6 104.9(8) . .
O4B Cl1 O3B 100.5(10) . .
O5B Cl1 O6 116.3(12) . .
O5B Cl1 O3B 104.3(12) . .
O5B Cl1 O4B 127.0(15) . .
H7A O7 H7B 109.4 . .
loop_
_geom_bond_atom_site_label_1
_geom_bond_atom_site_label_2
_geom_bond_distance
_geom_bond_site_symmetry_2
Ni1 N1 1.939(3) 3_667
Ni1 N1 1.939(3) .
Ni1 N2 1.936(3) 3_667
Ni1 N2 1.936(3) .
O1 C6 1.161(6) .
O2 H2 0.79(11) .
O2 C6 1.280(6) .
N1 H1 0.9900 .
N1 C1 1.488(4) .
N1 C2 1.487(5) .
N2 H2A 0.9900 .
N2 C3 1.490(5) .
N2 C4 1.479(5) .
C1 H1A 0.9800 .
C1 H1B 0.9800 .
C1 C5 1.528(5) 3_667
C2 H2B 0.9800 .
C2 H2C 0.9800 .
C2 C3 1.502(6) .
C3 H3A 0.9800 .
C3 H3B 0.9800 .
C4 H4A 0.9800 .
C4 H4B 0.9800 .
C4 C5 1.527(6) .
C5 C1 1.527(5) 3_667
C5 H5 0.9900 .
C5 C6 1.516(5) .
Cl1 O3A 1.495(7) .
Cl1 O4A 1.377(9) .
Cl1 O5A 1.354(10) .
Cl1 O6 1.391(4) .
Cl1 O3B 1.551(14) .
Cl1 O4B 1.387(14) .
Cl1 O5B 1.280(16) .
O7 H7A 0.8600 .
O7 H7B 0.8604 .
loop_
_geom_hbond_atom_site_label_D
_geom_hbond_atom_site_label_H
_geom_hbond_atom_site_label_A
_geom_hbond_distance_DH
_geom_hbond_distance_HA
_geom_hbond_distance_DA
_geom_hbond_angle_DHA
_geom_hbond_site_symmetry_A
O2 H2 O7 0.79(11) 1.78(11) 2.560(5) 169(12) 1_655
N1 H1 O1 0.99 2.13 2.954(5) 139.4 2_646
N1 H1 O3B 0.99 2.38 3.145(13) 133.3 .
N2 H2A O5A 0.99 2.40 3.108(12) 127.5 3_667
N2 H2A O6 0.99 2.16 3.013(5) 143.1 2_656
O7 H7A O6 0.86 2.45 3.078(8) 130.8 2_656
O7 H7A O4B 0.86 2.24 3.098(19) 173.4 2_656
O7 H7B O3A 0.86 1.94 2.776(9) 163.3 3_666
loop_
_geom_torsion_atom_site_label_1
_geom_torsion_atom_site_label_2
_geom_torsion_atom_site_label_3
_geom_torsion_atom_site_label_4
_geom_torsion
_geom_torsion_site_symmetry_1
_geom_torsion_site_symmetry_4
Ni1 N1 C1 C5 -58.2(4) . 3_667
Ni1 N1 C2 C3 39.7(4) . .
Ni1 N2 C3 C2 39.6(4) . .
Ni1 N2 C4 C5 -56.4(4) . .
N1 C2 C3 N2 -51.5(4) . .
N2 C4 C5 C1 67.3(4) . 3_667
N2 C4 C5 C6 -171.6(3) . .
C1 N1 C2 C3 171.7(3) . .
C1 C5 C6 O1 -126.0(6) 3_667 .
C1 C5 C6 O2 52.2(6) 3_667 .
C2 N1 C1 C5 175.9(3) . 3_667
C3 N2 C4 C5 176.8(3) . .
C4 N2 C3 C2 172.7(3) . .
C4 C5 C6 O1 111.8(6) . .
C4 C5 C6 O2 -70.1(6) . .
