#------------------------------------------------------------------------------
#$Date: 2019-05-13 19:21:02 +0300 (Mon, 13 May 2019) $
#$Revision: 215095 $
#$URL: file:///home/coder/svn-repositories/cod/cif/4/12/72/4127248.cif $
#------------------------------------------------------------------------------
#
# This file is available in the Crystallography Open Database (COD),
# http://www.crystallography.net/
#
# All data on this site have been placed in the public domain by the
# contributors.
#
data_4127248
loop_
_publ_author_name
'Wang, Yaxing'
'Liu, Xin'
'Li, Xiaoyan'
'Zhai, Fuwan'
'Yan, Siqi'
'Liu, Ning'
'Chai, Zhifang'
'Xu, Yadong'
'Ouyang, Xiaoping'
'Wang, Shuao'
_publ_section_title
;
 Direct Radiation Detection by a Semiconductive Metal-Organic Framework.
;
_journal_name_full               'Journal of the American Chemical Society'
_journal_paper_doi               10.1021/jacs.9b01270
_journal_year                    2019
_chemical_formula_sum            'C27 H21 Cl6 N3 O18 Tb2'
_chemical_formula_weight         1206.01
_space_group_crystal_system      monoclinic
_space_group_IT_number           15
_space_group_name_Hall           '-C 2yc'
_space_group_name_H-M_alt        'C 1 2/c 1'
_symmetry_space_group_name_Hall  '-C 2yc'
_symmetry_space_group_name_H-M   'C 1 2/c 1'
_atom_sites_solution_hydrogens   mixed
_audit_creation_method           SHELXL-2016/6
_cell_angle_alpha                90
_cell_angle_beta                 92.570(8)
_cell_angle_gamma                90
_cell_formula_units_Z            4
_cell_length_a                   10.703(3)
_cell_length_b                   16.170(5)
_cell_length_c                   22.076(6)
_cell_measurement_reflns_used    30034
_cell_measurement_temperature    296(2)
_cell_measurement_theta_max      27.642
_cell_measurement_theta_min      2.431
_cell_volume                     3816.8(19)
_computing_cell_refinement       'Bruker SAINT'
_computing_data_collection       'Bruker APEX3'
_computing_data_reduction        'Bruker SAINT'
_computing_structure_refinement  'SHELXL-2016/6 (Sheldrick, 2016)'
_computing_structure_solution    'SHELXT 2014/5 (Sheldrick, 2014)'
_diffrn_ambient_temperature      296(2)
_diffrn_measured_fraction_theta_full 0.997
_diffrn_measured_fraction_theta_max 0.990
_diffrn_measurement_device_type  'Bruker APEX-III'
_diffrn_measurement_method       '0.5 wide w/ exposures'
_diffrn_radiation_type           MoK\a
_diffrn_radiation_wavelength     0.71073
_diffrn_reflns_av_R_equivalents  0.0838
_diffrn_reflns_av_unetI/netI     0.0542
_diffrn_reflns_Laue_measured_fraction_full 0.997
_diffrn_reflns_Laue_measured_fraction_max 0.990
_diffrn_reflns_limit_h_max       13
_diffrn_reflns_limit_h_min       -13
_diffrn_reflns_limit_k_max       20
_diffrn_reflns_limit_k_min       -21
_diffrn_reflns_limit_l_max       28
_diffrn_reflns_limit_l_min       -28
_diffrn_reflns_number            30034
_diffrn_reflns_point_group_measured_fraction_full 0.997
_diffrn_reflns_point_group_measured_fraction_max 0.990
_diffrn_reflns_theta_full        25.242
_diffrn_reflns_theta_max         27.642
_diffrn_reflns_theta_min         2.431
_exptl_absorpt_coefficient_mu    4.175
_exptl_absorpt_correction_T_max  0.905
_exptl_absorpt_correction_T_min  0.806
_exptl_absorpt_correction_type   multi-scan
_exptl_crystal_colour            brown
_exptl_crystal_density_diffrn    2.099
_exptl_crystal_description       block
_exptl_crystal_F_000             2320
_exptl_crystal_size_max          0.062
_exptl_crystal_size_mid          0.043
_exptl_crystal_size_min          0.024
_refine_diff_density_max         3.058
_refine_diff_density_min         -3.278
_refine_diff_density_rms         0.234
_refine_ls_extinction_method     none
_refine_ls_goodness_of_fit_ref   1.052
_refine_ls_hydrogen_treatment    constr
_refine_ls_matrix_type           full
_refine_ls_number_parameters     261
_refine_ls_number_reflns         4411
_refine_ls_number_restraints     6
_refine_ls_restrained_S_all      1.051
_refine_ls_R_factor_all          0.0672
_refine_ls_R_factor_gt           0.0495
_refine_ls_shift/su_max          0.001
_refine_ls_shift/su_mean         0.000
_refine_ls_structure_factor_coef Fsqd
_refine_ls_weighting_details
'w=1/[\s^2^(Fo^2^)+(0.0394P)^2^+137.7977P] where P=(Fo^2^+2Fc^2^)/3'
_refine_ls_weighting_scheme      calc
_refine_ls_wR_factor_gt          0.1145
_refine_ls_wR_factor_ref         0.1214
_reflns_Friedel_coverage         0.000
_reflns_number_gt                3592
_reflns_number_total             4411
_reflns_threshold_expression     'I > 2\s(I)'
_cod_data_source_file            ja9b01270_si_002.cif
_cod_data_source_block           Tb-s-MOFs
_cod_original_cell_volume        3816.7(18)
_cod_database_code               4127248
_shelx_shelxl_version_number     2016/6
_shelx_space_group_comment
;
The symmetry employed for this shelxl refinement is uniquely defined
by the following loop, which should always be used as a source of
symmetry information in preference to the above space-group names.
They are only intended as comments.
;
_shelx_res_file
;
TITL A_a.res in C2/c
    save.res
    created by SHELXL-2016/6 at 15:10:03 on 28-Nov-2018
REM Old TITL A in C2/c
REM SHELXT solution in C2/c
REM R1 0.160, Rweak 0.010, Alpha 0.047, Orientation as input
REM Formula found by SHELXT: C25 N2 O24 Tb2
CELL 0.71073 10.7029 16.1698 22.0757 90 92.57 90
ZERR 4 0.003 0.0045 0.0061 0 0.008 0
LATT 7
SYMM -X,+Y,0.5-Z
SFAC C N O Tb Cl H
UNIT 108 12 72 8 24 84
ISOR 0.01 0.02 C3

L.S. 50
PLAN  20
TEMP 23
ACTA
LIST 6
FMAP 2
OMIT -1 1 2
OMIT 4 6 0
OMIT 6 4 0

WGHT    0.039399  137.797714
FVAR       0.12460
TB1   4    0.722655    0.454613    0.669233    11.00000    0.00846    0.00671 =
         0.01251   -0.00011   -0.00100    0.00060
CL2   5    0.949577    0.754959    0.648961    11.00000    0.02776    0.01967 =
         0.02486   -0.00427    0.01294   -0.00864
CL3   5    0.564292    0.691140    0.512745    11.00000    0.03009    0.01131 =
         0.02415    0.00146   -0.00412   -0.00321
CL1   5    0.564623    0.656156    0.847723    11.00000    0.03035    0.01883 =
         0.02718   -0.00604    0.01547   -0.01172
O4    3    0.848704    0.861253    0.749795    11.00000    0.01344    0.00821 =
         0.02469   -0.00206    0.00247   -0.00524
O3    3    0.494364    0.458342    0.675506    11.00000    0.01496    0.01227 =
         0.01753   -0.00281    0.00309   -0.00126
AFIX   7
H3A   6    0.460770    0.467513    0.640335    11.00000   -1.50000
H3B   6    0.473396    0.500014    0.696527    11.00000   -1.50000
AFIX   0
O8    3    0.647108    0.552559    0.593177    11.00000    0.01935    0.01492 =
         0.01573   -0.00143   -0.00188   -0.00073
O6    3    0.665043    0.550121    0.748422    11.00000    0.01891    0.00949 =
         0.02147   -0.00196    0.00541   -0.00653
O7    3    0.716765    0.810144    0.839538    11.00000    0.01869    0.01504 =
         0.01720   -0.00307    0.00391   -0.00370
O2    3    0.901074    0.435531    0.733327    11.00000    0.00991    0.02920 =
         0.03254    0.00392   -0.01174   -0.00234
O9    3    0.383550    0.607051    0.421647    11.00000    0.01843    0.01167 =
         0.01748    0.00292   -0.00301    0.00099
O1    3    0.884018    0.445436    0.596966    11.00000    0.01714    0.02029 =
         0.03578    0.00221    0.00837    0.00490
O5    3    0.834547    0.589069    0.672068    11.00000    0.01682    0.01081 =
         0.02143   -0.00360    0.00419   -0.00186
C9    1    0.732387    0.758759    0.798523    11.00000    0.01680    0.00961 =
         0.01547    0.00158    0.00485    0.00579
C6    1    0.527585    0.587107    0.504926    11.00000    0.02136    0.00897 =
         0.01902    0.00041   -0.00003    0.00178
C14   1    0.816352    0.784891    0.747961    11.00000    0.01131    0.01128 =
         0.01823   -0.00188   -0.00289   -0.00333
C13   1    0.803753    0.645685    0.706539    11.00000    0.01241    0.01346 =
         0.01479    0.00228    0.00114   -0.00204
C12   1    0.675540    0.680568    0.795705    11.00000    0.01322    0.01002 =
         0.02162   -0.00191    0.00352   -0.00669
C11   1    0.707808    0.621817    0.753189    11.00000    0.01477    0.01118 =
         0.01516    0.00101   -0.00145   -0.00355
C10   1    0.850300    0.727894    0.705930    11.00000    0.01338    0.01530 =
         0.01298    0.00084    0.00254   -0.00394
C8    1    0.444389    0.561262    0.458896    11.00000    0.01256    0.00885 =
         0.01798    0.00072    0.00006    0.00207
C7    1    0.579927    0.531736    0.547844    11.00000    0.01035    0.01165 =
         0.02142    0.00164    0.00196    0.00153
C4    1    1.000000    0.463926    0.750000    10.50000    0.04097    0.05293 =
         0.06853    0.00000   -0.01670    0.00000
AFIX  43
H4    6    1.000002    0.521440    0.749997    10.50000   -1.20000
AFIX   0
N1    2    1.093228    0.428642    0.596073    11.00000    0.01397    0.14217 =
         0.16731    0.05005   -0.00049   -0.00677

C5    1    0.205752    0.694897    0.529231    11.00000    0.06643    0.10055 =
         0.06162   -0.01086   -0.00676    0.04365
AFIX  43
H5    6    0.169814    0.650642    0.548968    11.00000   -1.20000
AFIX   0

C3    1    0.985919    0.407848    0.604928    11.00000    0.07873    0.09362 =
         0.08087   -0.00131    0.01136    0.00107
AFIX  43
H3    6    0.978404    0.354633    0.620326    11.00000   -1.20000
AFIX   0

N2    2    0.234768    0.736616    0.465137    10.50000    0.06291    0.02826 =
         0.03947   -0.00960   -0.00401    0.02397
C2    1    1.190568    0.364448    0.604607    11.00000    0.16604    0.15359 =
         0.13561   -0.01911   -0.04463    0.08612
AFIX 137
H2A   6    1.151661    0.311801    0.610754    11.00000   -1.50000
H2B   6    1.243835    0.377871    0.639363    11.00000   -1.50000
H2C   6    1.239488    0.361941    0.569252    11.00000   -1.50000
AFIX   0
C1    1    1.166600    0.505104    0.597047    11.00000    0.58122    0.14230 =
         0.29504   -0.03072    0.10403   -0.20615
AFIX 137
H1A   6    1.185747    0.519887    0.556380    11.00000   -1.50000
H1B   6    1.242920    0.496856    0.620801    11.00000   -1.50000
H1C   6    1.119235    0.548697    0.614598    11.00000   -1.50000
AFIX   0
HKLF 4




REM  A_a.res in C2/c
REM R1 =  0.0495 for    3592 Fo > 4sig(Fo)  and  0.0672 for all    4411 data
REM    261 parameters refined using      6 restraints

END

WGHT      0.0359    130.5829

REM Highest difference peak  3.058,  deepest hole -3.278,  1-sigma level  0.234
Q1    1   1.1119  0.3885  0.4687  11.00000  0.05    3.06
Q2    1   0.9846  0.4844  0.5969  11.00000  0.05    2.14
Q3    1   0.7302  0.4521  0.7101  11.00000  0.05    1.72
Q4    1   1.0952  0.4420  0.5223  11.00000  0.05    1.48
Q5    1   0.7308  0.4570  0.6270  11.00000  0.05    1.44
Q6    1   0.7788  0.7753  0.8328  11.00000  0.05    1.22
Q7    1   0.7588  0.4744  0.6381  11.00000  0.05    1.21
Q8    1   0.6945  0.6702  0.6603  11.00000  0.05    1.19
Q9    1   0.7028  0.5976  0.6578  11.00000  0.05    1.13
Q10   1   1.0990  0.3565  0.6250  11.00000  0.05    1.12
Q11   1   0.6801  0.6103  0.6767  11.00000  0.05    1.04
Q12   1   0.4621  0.4159  0.6924  11.00000  0.05    1.01
Q13   1   1.0000  0.4088  0.7500  10.50000  0.05    0.98
Q14   1   0.7835  0.6250  0.6622  11.00000  0.05    0.91
Q15   1   0.7533  0.5962  0.6760  11.00000  0.05    0.88
Q16   1   0.8221  0.4499  0.5992  11.00000  0.05    0.85
Q17   1   0.7988  0.9528  0.7144  11.00000  0.05    0.84
Q18   1   0.7730  0.7611  0.7717  11.00000  0.05    0.78
Q19   1   0.7848  0.9442  0.7494  11.00000  0.05    0.76
Q20   1   0.8992  0.3227  0.6486  11.00000  0.05    0.74
;
_shelx_res_checksum              56482
_shelx_hkl_file
;
   2   0   0 1731.13  126.69
   2   0   0 2189.08  126.69
   2   0   0 2029.90  127.09
   2   0   0 1846.52  126.39
  -2   0   0 1894.51  126.99
  -2   0   0 1816.22  126.49
  -2   0   0 1940.21  126.99
  -2   0   0 2012.20  126.39
  -4   0   0  956.40   62.59
  -4   0   0  895.91   62.09
   4   0   0  874.21   62.49
   4   0   0  968.20   63.99
  -4   0   0 1029.80   64.29
   4   0   0  863.31   62.19
   6   0   0  818.22   49.80
   6   0   0  599.44   48.30
  -6   0   0  642.24   50.79
  -6   0   0  733.13   49.40
  -6   0   0  678.33   51.39
  -6   0   0  727.13   51.99
  -6   0   0  702.83   48.60
  -6   0   0  723.03   52.39
   8   0   0   87.89   12.60
  -8   0   0   81.89   18.60
  -8   0   0   79.09   17.40
  -8   0   0   57.99   19.10
  -8   0   0   80.09   14.10
  -8   0   0   87.99   11.90
 -10   0   0    5.20   13.00
 -10   0   0    2.90   21.20
 -10   0   0   -1.50   18.90
  10   0   0  -18.50   12.40
 -12   0   0  173.28   37.30
  12   0   0  190.98   27.30
 -12   0   0  195.28   25.80
  -3  -1   0  334.97   23.20
   3  -1   0  272.27   20.50
  -3  -1   0  282.07   22.10
  -3  -1   0  287.77   20.40
  -3  -1   0  291.27   20.90
  -3   1   0  318.67   22.00
   3   1   0  307.77   22.80
  -3   1   0  300.17   22.20
  -3   1   0  288.17   20.70
  -3   1   0  298.87   20.40
  -3   1   0  262.87   21.80
  -3   1   0  264.87   21.80
   3   1   0  307.47   21.40
   5  -1   0 1549.64  110.89
  -5  -1   0 1645.94  111.29
  -5  -1   0 1532.15  110.69
   5  -1   0 1912.61  111.59
  -5  -1   0 1647.14  113.09
   5   1   0 1754.92  113.39
  -5   1   0 1828.92  111.39
   5   1   0 1714.53  111.49
  -5   1   0 1546.05  112.79
  -5   1   0 1662.83  112.99
  -5   1   0 1722.63  112.59
   5   1   0 1588.44  110.99
  -5   1   0 1613.44  112.79
  -5   1   0 1705.93  110.99
  -7  -1   0 1373.46   91.59
  -7  -1   0 1333.77   90.49
  -7  -1   0 1364.36   94.19
   7  -1   0 1308.47   90.89
   7   1   0 1380.86   95.89
  -7   1   0 1425.86   91.39
   7   1   0 1278.27   91.29
  -7   1   0 1328.27   94.09
  -7   1   0 1340.67   94.29
  -7   1   0 1353.66   94.29
   7   1   0 1232.68   90.59
  -7   1   0 1369.26   90.69
  -7   1   0 1386.36   94.49
   9  -1   0  431.66   36.10
  -9  -1   0  487.25   44.80
  -9  -1   0  424.16   37.70
  -9  -1   0  476.75   36.20
  -9   1   0  455.35   36.70
  -9   1   0  411.76   48.30
  -9   1   0  437.36   41.70
  -9   1   0  527.85   46.00
  -9   1   0  467.65   43.90
  -9   1   0  413.06   37.60
   9   1   0  443.66   36.50
  11  -1   0  898.01   69.49
 -11  -1   0 1003.90   79.69
 -11  -1   0  937.11   68.99
  11   1   0  854.01   69.29
 -11   1   0  934.61   80.09
 -11   1   0  959.10   79.59
 -11   1   0  852.21   79.29
 -11   1   0 1012.20   69.29
 -13  -1   0  525.85   52.49
 -13  -1   0  653.03   76.29
  13  -1   0  476.75   51.99
 -13   1   0  560.14   51.69
  13   1   0  504.05   52.19
 -13   1   0  497.45   74.29
  -2  -2   0  983.30   70.19
  -2  -2   0 1198.48   71.69
   2  -2   0 1098.69   70.69
   2  -2   0 1065.39   71.79
  -2  -2   0  971.60   69.99
   2   2   0 1070.69   70.19
   2   2   0 1063.29   71.59
  -2   2   0 1093.89   70.69
   2   2   0 1002.60   70.29
   2   2   0 1111.39   71.29
  -2   2   0 1100.69   70.09
  -2   2   0 1007.10   71.59
  -4  -2   0  345.77   28.40
  -4  -2   0  344.07   24.90
  -4  -2   0  293.87   25.70
   4  -2   0  398.86   25.40
   4   2   0  284.57   25.70
  -4   2   0  309.57   27.20
  -4   2   0  412.56   25.20
  -4   2   0  393.56   25.30
   4   2   0  357.26   25.20
  -4   2   0  332.27   27.50
   4   2   0  345.07   28.90
  -4   2   0  358.06   27.70
  -4   2   0  370.56   26.90
  -6  -2   0   98.99   17.00
   6  -2   0  155.88   14.20
  -6  -2   0  121.59   15.30
  -6   2   0  162.88   13.80
   6   2   0  109.99   15.10
  -6   2   0  148.49   14.80
  -6   2   0  180.18   19.00
   6   2   0  114.29   13.60
  -6   2   0  140.09   18.10
  -6   2   0  121.39   18.70
  -6   2   0  142.89   19.00
  -8  -2   0  589.44   48.90
   8  -2   0  527.25   42.50
  -8  -2   0  578.74   44.60
  -8  -2   0  602.34   42.80
  -8   2   0  497.35   48.00
  -8   2   0  582.64   48.30
   8   2   0  657.73   43.00
  -8   2   0  593.74   47.70
  -8   2   0  510.65   43.30
  -8   2   0  486.85   47.40
   8   2   0  633.04   43.70
  -8   2   0  596.44   42.70
  -8   2   0  600.64   42.70
 -10  -2   0  213.08   32.80
 -10  -2   0  210.58   25.80
  10  -2   0  167.58   25.20
  10   2   0  215.98   26.80
 -10   2   0  240.68   33.00
 -10   2   0  291.97   38.80
 -10   2   0  224.68   37.30
 -10   2   0  170.48   25.10
 -12  -2   0   25.00   33.50
 -12  -2   0   22.90   17.70
  12  -2   0   30.60   19.40
 -12   2   0   25.30   34.20
 -12   2   0   39.80   19.10
  12   2   0   18.90   20.00
  -1  -3   0  344.77   22.90
   1  -3   0  379.66   26.10
   1  -3   0  322.17   23.50
  -1  -3   0  381.76   24.50
   1  -3   0  314.17   22.60
   1   3   0  353.56   23.00
  -1   3   0  289.57   23.30
  -1   3   0  320.27   22.70
  -1   3   0  339.97   25.40
   3  -3   0  611.24   45.30
   3  -3   0  689.43   43.60
  -3  -3   0  683.43   45.20
  -3  -3   0  641.04   42.40
  -3  -3   0  598.24   42.70
  -3   3   0  611.54   42.20
   3   3   0  587.14   42.90
   3   3   0  572.04   44.40
  -3   3   0  661.53   43.50
  -3   3   0  670.53   42.50
  -3   3   0  597.14   45.10
  -3   3   0  671.03   42.20
   3   3   0  643.04   44.60
   3   3   0  553.14   42.40
  -5  -3   0 1682.63  119.29
  -5  -3   0 1798.42  119.89
  -5  -3   0 1754.42  122.49
   5   3   0 1785.12  121.99
  -5   3   0 1915.31  119.29
   5   3   0 1817.62  120.09
  -5   3   0 1926.11  121.69
  -5   3   0 1657.73  121.49
  -5   3   0 1798.62  120.69
   5   3   0 1704.73  119.39
  -5   3   0 1847.12  119.49
  -5   3   0 1955.00  119.59
  -5   3   0 1768.12  122.59
  -7  -3   0  317.27   26.10
   7  -3   0  261.27   23.50
  -7  -3   0  276.87   24.00
  -7  -3   0  313.67   31.10
  -7   3   0  294.97   29.40
   7   3   0  342.17   24.90
   7   3   0  273.87   25.80
  -7   3   0  284.67   23.90
   7   3   0  326.27   34.10
  -7   3   0  297.37   31.30
  -7   3   0  280.27   28.30
  -7   3   0  305.17   24.10
  -7   3   0  269.87   24.70
  -7   3   0  314.07   28.70
   9  -3   0  952.90   68.79
  -9  -3   0 1034.30   77.09
  -9   3   0  943.01   74.59
  -9   3   0 1043.10   69.89
  -9   3   0 1013.30   68.99
  -9   3   0  873.71   73.89
  -9   3   0  851.11   76.59
   9   3   0 1085.99   69.89
  -9   3   0  951.40   75.59
 -11  -3   0  277.57   41.70
 -11  -3   0  273.07   32.40
 -11   3   0  376.96   47.80
  11   3   0  312.47   34.50
 -11   3   0  221.98   42.50
 -11   3   0  325.77   32.60
 -11   3   0  339.77   51.29
 -13  -3   0  202.38   30.80
 -13  -3   0  267.27   50.29
 -13   3   0  138.89   48.00
 -13   3   0  186.78   30.10
  13   3   0  141.19   27.90
 -13   3   0  170.18   43.10
 -13   3   0  238.98   37.40
   0  -4   0  691.13   51.99
   0  -4   0  662.83   49.10
   0   4   0  758.22   49.30
   0   4   0  704.23   52.19
   0   4   0  886.11   50.39
  -2  -4   0  242.28   21.00
  -2  -4   0  253.47   17.60
  -2  -4   0  278.77   26.00
   2  -4   0  267.67   22.70
   2  -4   0  240.58   18.80
   2  -4   0  248.28   17.20
  -2  -4   0  234.18   17.60
   2   4   0  233.48   20.00
  -2   4   0  232.18   18.60
   2   4   0  231.18   17.70
  -2   4   0  248.48   22.70
   2   4   0  237.88   17.90
  -4  -4   0 1004.00   65.19
   4  -4   0  906.71   68.59
  -4  -4   0 1049.89   68.39
  -4  -4   0  984.20   65.49
   4  -4   0  999.90   66.59
   4   4   0 1039.70   65.29
  -4   4   0  996.40   66.69
  -4   4   0  929.51   64.69
   4   4   0 1014.70   67.99
  -4   4   0 1011.70   64.89
  -4   4   0  939.01   69.39
   4   4   0  941.01   67.89
  -4   4   0  868.21   64.89
   4   4   0  879.01   65.39
  -6  -4   0  165.18   22.00
  -6   4   0  141.69   14.80
  -6   4   0  132.49   19.70
  -6   4   0  135.79   15.20
  -6   4   0  115.59   20.30
  -6   4   0  160.18   20.90
  -6   4   0  172.78   14.90
  -6   4   0  146.69   21.30
   6   4   0  167.48   21.30
  -6   4   0  147.19   14.50
  -8   4   0   60.69   11.00
  -8   4   0   56.69   15.60
   8   4   0   74.99   24.70
  -8   4   0   29.80   11.10
  -8   4   0   57.59   18.30
  -8   4   0   28.40   13.60
  -8   4   0   27.60    9.00
  -8   4   0   34.00   10.70
  -8   4   0   15.10   15.80
 -10  -4   0   15.60   13.20
 -10  -4   0   40.80   24.10
 -10   4   0   40.20   16.40
 -10   4   0   35.60   27.00
 -10   4   0   28.70   24.20
 -10   4   0   18.80   17.30
  10   4   0   21.60   14.30
 -10   4   0   22.00   13.50
 -12  -4   0  -41.60   32.40
 -12  -4   0   -3.00   19.60
 -12   4   0   36.40   32.90
 -12   4   0   40.20   32.30
 -12   4   0   42.00   20.20
 -12   4   0   48.50   20.00
  12   4   0   21.90   20.20
   1  -5   0  290.67   23.00
  -1  -5   0  317.57   21.80
  -1  -5   0  310.67   24.50
   1  -5   0  316.57   28.00
  -1  -5   0  308.87   29.40
   1  -5   0  288.57   21.40
   1   5   0  327.67   23.70
   1   5   0  277.67   26.60
  -1   5   0  333.57   23.20
   1   5   0  335.17   22.10
  -1   5   0  288.77   26.90
  -1   5   0  288.47   21.60
  -3  -5   0   16.20    4.50
   3  -5   0   18.10    4.10
  -3  -5   0    3.20    4.60
   3  -5   0   19.30    8.80
   3  -5   0   11.80    7.00
  -3   5   0   28.60   11.90
  -3   5   0   13.50    3.80
   3   5   0   15.10    8.00
   3   5   0    0.70    5.20
   3   5   0   20.10    4.80
   3   5   0   13.00   11.50
  -3   5   0   16.70    6.10
   5  -5   0   19.70    8.40
  -5  -5   0   16.10   11.40
   5  -5   0   20.90   10.00
  -5  -5   0   19.70    7.00
  -5  -5   0    1.70   13.80
   5   5   0   11.10    6.90
   5   5   0    0.20    9.80
  -5   5   0   18.20    7.00
  -5   5   0   18.00   13.90
  -5   5   0   25.70    6.20
   5   5   0   34.90   12.40
  -5   5   0   20.70   10.40
  -7  -5   0  171.68   17.80
  -7  -5   0  227.18   21.30
  -7  -5   0  185.58   25.20
  -7   5   0  136.69   17.40
  -7   5   0  152.88   17.30
  -7   5   0  160.68   26.50
  -7   5   0  159.88   25.00
  -7   5   0  175.18   21.00
   7   5   0  139.19   24.20
  -7   5   0  180.18   17.60
  -7   5   0  123.49   15.50
  -7   5   0  142.19   20.10
  -9  -5   0   76.69   24.00
  -9   5   0   32.00   12.30
  -9   5   0   34.30   22.50
   9   5   0   88.99   14.70
  -9   5   0   23.60   15.80
  -9   5   0   58.29   20.00
  -9   5   0   48.00   18.00
  -9   5   0   63.39   13.90
  -9   5   0   40.90   14.30
  -9   5   0   49.80   25.10
 -11  -5   0   58.69   32.00
 -11  -5   0   56.99   18.70
  11   5   0   45.00   17.70
 -11   5   0   39.70   28.60
 -11   5   0   28.00   16.90
 -11   5   0   19.30   17.20
 -11   5   0   34.20   22.90
 -13  -5   0   43.10   23.90
 -13  -5   0  -13.30   42.20
 -13   5   0   43.00   42.70
 -13   5   0   49.20   25.00
  13   5   0   10.70   23.60
 -13   5   0   11.10   24.80
 -13   5   0  101.99   41.10
   0  -6   0  777.42   57.49
   0  -6   0  879.11   60.69
   0   6   0  741.23   55.49
   0   6   0  850.11   57.19
   0   6   0  909.91   61.19
   2  -6   0   20.00   10.70
  -2  -6   0    2.20    4.10
   2  -6   0   12.50    3.70
   2  -6   0    4.80    7.40
  -2  -6   0   21.10    9.30
  -2   6   0    4.50    5.50
   2   6   0   11.00    8.10
   2   6   0   11.80    4.50
   2   6   0    1.00   10.80
  -2   6   0    9.60    3.90
  -2   6   0   25.10   12.00
   4   6   0  344.77   29.90
   6  -6   0    0.70   11.50
  -6  -6   0   47.90   15.10
  -6  -6   0  -16.80   16.60
   6  -6   0   -2.70   10.10
   6   6   0   17.40   13.20
  -6   6   0   12.10    7.60
  -6   6   0    4.30    6.30
  -6   6   0   -4.90   16.90
  -6   6   0    9.90   10.80
  -6   6   0    3.90    7.40
  -8  -6   0  154.28   25.90
  -8   6   0  123.79   15.20
  -8   6   0  147.39   21.10
   8   6   0  187.38   19.00
  -8   6   0  102.59   15.30
  -8   6   0  115.79   21.90
  -8   6   0  147.79   25.50
   8   6   0  117.39   17.00
  -8   6   0  150.68   17.80
  -8   6   0  116.29   15.10
  -8   6   0   99.59   29.20
 -10  -6   0   25.20   27.80
 -10  -6   0   13.60   14.20
 -10   6   0   35.30   22.80
 -10   6   0   31.50   13.50
  10   6   0  -14.10   14.50
 -10   6   0    1.90   13.30
 -10   6   0   18.10   22.40
 -12  -6   0   29.90   20.10
 -12  -6   0  -25.90   38.30
 -12   6   0   18.90   34.60
  12   6   0   42.60   22.10
 -12   6   0   33.70   34.70
 -12   6   0   49.60   20.90
 -12   6   0    6.70   20.80
   1  -7   0   15.00    8.80
   1  -7   0   45.10   13.30
  -1   7   0   21.80   13.60
   3  -7   0   -5.20    7.60
  -3  -7   0   16.90   10.60
  -3  -7   0  -31.30   16.20
  -3  -7   0   10.00    5.30
   3  -7   0    3.30    4.30
   3  -7   0    6.90   10.00
  -3   7   0    2.30    7.10
  -3   7   0   15.10   14.20
   3   7   0    1.70    5.20
   3   7   0   -6.10    9.10
   3   7   0    1.80   15.30
  -3   7   0    3.30    4.10
   3   7   0    8.80    5.50
   5  -7   0  617.84   49.20
  -5  -7   0  530.85   42.60
   5  -7   0  609.34   44.20
  -5  -7   0  611.44   42.80
  -5  -7   0  636.54   47.70
  -5   7   0  573.74   45.20
   5   7   0  629.14   48.00
   5   7   0  551.84   43.00
   5   7   0  597.94   42.50
  -5   7   0  584.84   41.60
  -5   7   0  599.74   52.09
  -5   7   0  630.04   42.60
   5   7   0  586.74   52.49
   7  -7   0  215.78   30.90
  -7  -7   0  248.28   24.60
  -7  -7   0  223.38   29.60
  -7  -7   0  201.38   24.10
   7   7   0  254.77   21.40
  -7   7   0  196.38   21.20
  -7   7   0  180.18   25.00
   7   7   0  279.67   24.30
   7   7   0  170.78   30.30
  -7   7   0  186.28   19.70
  -7   7   0  190.78   32.20
  -9  -7   0  128.39   26.80
  -9   7   0  100.99   15.20
  -9   7   0  101.59   14.70
  -9   7   0   97.39   21.80
  -9   7   0   68.29   27.00
  -9   7   0   84.49   17.50
  -9   7   0   50.39   25.90
 -11  -7   0  143.89   37.10
 -11  -7   0  147.29   21.80
  11   7   0  107.49   23.30
 -11   7   0  120.19   33.80
 -11   7   0  110.19   33.20
 -11   7   0  104.49   21.40
 -11   7   0  124.99   22.30
 -13  -7   0  -29.70   44.90
 -13  -7   0   26.20   26.30
 -13   7   0   30.20   27.00
 -13   7   0   13.10   24.80
 -13   7   0   53.19   52.49
  13   7   0   39.50   27.30
   0  -8   0 2442.16  155.18
   0  -8   0 2334.07  160.18
   0  -8   0 2202.88  156.98
   0   8   0 2312.77  160.68
   0   8   0 2434.86  157.48
   0   8   0 2373.16  155.18
  -2  -8   0  667.63   45.20
  -2  -8   0  672.43   49.20
   2  -8   0  679.33   52.29
   2  -8   0  638.34   47.70
   2  -8   0  650.53   44.80
  -2  -8   0  642.84   53.99
  -2   8   0  548.15   47.10
   2   8   0  654.23   49.20
  -2   8   0  710.93   54.29
  -2   8   0  649.54   44.90
   2   8   0  667.93   45.40
  -4  -8   0  266.17   19.90
  -4  -8   0  224.28   19.50
   4  -8   0  248.28   28.80
  -4  -8   0  225.38   27.40
   4  -8   0  213.68   18.90
   4  -8   0  253.77   23.20
  -4   8   0  224.88   18.70
   4   8   0  222.58   20.30
  -4   8   0  227.38   34.30
   4   8   0  274.17   20.10
  -4   8   0  213.28   23.40
   4   8   0  211.68   25.90
   6  -8   0  184.58   30.20
   6  -8   0  187.88   23.70
  -6  -8   0  199.28   30.00
  -6  -8   0  232.28   22.00
  -6  -8   0  259.87   23.40
   6   8   0  243.68   33.00
   6   8   0  263.37   21.10
   6   8   0  260.47   35.60
  -6   8   0  164.18   31.50
   6   8   0  279.87   22.80
  -6   8   0  174.58   21.60
  -6   8   0  224.28   20.00
  -6   8   0  174.08   26.60
  -8   8   0   12.90   17.50
  -8   8   0   13.70   13.50
  -8   8   0    8.00   10.60
  -8   8   0   -5.40   17.90
 -10  -8   0   29.30   16.40
 -10  -8   0   54.29   28.00
 -10   8   0   21.50   14.40
  10   8   0   -1.60   16.10
 -10   8   0   81.29   24.80
 -10   8   0   47.20   27.20
 -12  -8   0   27.50   42.00
 -12  -8   0   80.79   21.90
 -12   8   0    1.20   43.40
 -12   8   0   11.30   21.80
  12   8   0   10.20   22.90
 -12   8   0   19.10   37.20
 -12   8   0  -19.60   21.20
   1  -9   0  318.27   27.30
   1  -9   0  356.86   35.20
  -1  -9   0  242.68   25.80
  -1  -9   0  210.68   33.10
   1  -9   0  301.07   20.90
  -1  -9   0  258.97   21.10
   1   9   0  263.37   21.40
  -1   9   0  289.57   21.30
   1   9   0  211.18   32.50
   1   9   0  245.18   25.80
  -3  -9   0  285.37   22.60
  -3  -9   0  255.27   29.30
  -3  -9   0  297.27   39.60
   3  -9   0  251.17   21.40
   3  -9   0  295.07   32.00
   3  -9   0  269.37   26.10
   3   9   0  277.47   22.70
  -3   9   0  314.27   37.30
   3   9   0  236.58   28.30
  -3   9   0  279.47   27.30
  -3   9   0  297.87   21.80
   5  -9   0 1038.80   72.79
  -5  -9   0  893.41   63.89
   5  -9   0  950.30   63.59
  -5  -9   0  878.11   64.59
   5  -9   0  993.60   66.89
  -5  -9   0  925.61   71.39
   5   9   0  916.21   64.49
   5   9   0  830.92   64.39
  -5   9   0  924.51   67.39
  -5   9   0 1003.70   63.79
  -5   9   0  988.10   78.19
   5   9   0  783.52   68.89
  -7  -9   0  719.43   57.79
  -7  -9   0  550.34   46.70
   7  -9   0  604.74   48.40
   7  -9   0  632.74   55.69
   7   9   0  612.84   46.30
   7   9   0  489.45   54.09
   7   9   0  537.25   45.40
  -7   9   0  634.04   51.49
  -7   9   0  633.14   46.60
  -7   9   0  659.53   44.80
  -9  -9   0  204.18   37.80
  -9  -9   0  299.37   27.70
  -9   9   0  183.58   38.60
  -9   9   0  216.48   27.40
   9   9   0  269.27   30.00
  -9   9   0  311.97   34.90
  -9   9   0  288.57   42.60
 -11  -9   0  497.25   74.39
 -11  -9   0  624.14   49.99
 -11   9   0  592.34   66.99
 -11   9   0  530.25   65.89
  11   9   0  514.65   51.29
 -11   9   0  544.85   50.09
   0 -10   0 3690.43  254.97
   0 -10   0 3851.51  261.77
   0 -10   0 3883.21  258.17
   0  10   0 4100.19  255.47
   0  10   0 3865.71  262.37
   0  10   0 3905.11  258.27
  -2 -10   0  958.10   69.19
   2 -10   0 1046.30   68.89
  -2 -10   0 1102.69   79.49
   2 -10   0  960.70   71.79
  -2 -10   0  966.60   73.89
   2 -10   0 1027.10   78.09
  -2  10   0 1040.30   81.09
   2  10   0 1006.60   69.59
  -2  10   0 1002.40   69.09
   2  10   0  996.80   73.89
  -2  10   0 1065.59   72.69
  -4 -10   0  635.24   51.09
   4 -10   0  752.92   59.79
   4 -10   0  712.23   53.89
  -4 -10   0  577.24   65.89
  -4 -10   0  754.72   58.39
   4 -10   0  685.73   50.09
  -4  10   0  726.13   54.79
  -4  10   0  841.92   50.79
   4  10   0  709.33   56.19
  -4  10   0  721.83   67.19
   4  10   0  741.43   51.29
  -6 -10   0  286.67   42.80
   6 -10   0  396.66   42.20
  -6 -10   0  370.46   31.10
   6 -10   0  405.36   34.20
   6  10   0  368.76   31.90
  -6  10   0  369.56   32.00
  -6  10   0  410.66   36.80
  -6  10   0  377.96   29.60
   6  10   0  333.37   31.90
  -8 -10   0   21.70   32.60
  -8 -10   0    0.20   27.70
   8 -10   0   28.50   22.30
   8  10   0  -25.00   24.90
   8  10   0   38.40   16.20
   8  10   0   42.50   14.00
  -8  10   0   21.50   12.50
  -8  10   0   18.10   23.70
 -10 -10   0   30.20   37.10
 -10 -10   0   -1.60   18.30
 -10  10   0    3.60   27.40
 -10  10   0   41.00   38.10
  10  10   0    4.30   16.60
 -10  10   0   -5.40   16.60
 -12 -10   0   79.59   53.29
 -12 -10   0   99.29   25.10
 -12  10   0   82.49   25.70
  12  10   0   94.79   28.90
 -12  10   0  113.59   44.70
 -12  10   0   71.09   42.60
  -1 -11   0  129.29   26.10
  -1 -11   0  107.59   14.90
  -1 -11   0  123.59   19.50
   1 -11   0  183.08   27.70
   1 -11   0  139.19   14.00
   1 -11   0  141.99   20.10
   1  11   0  114.39   25.20
   1  11   0  102.59   18.90
   1  11   0  116.59   14.80
  -1  11   0  147.79   15.10
  -1  11   0  149.29   26.80
  -1  11   0  134.39   19.00
   3 -11   0  776.72   54.09
  -3 -11   0  650.83   50.19
  -3 -11   0  674.33   64.79
   3 -11   0  666.53   49.30
  -3 -11   0  698.23   55.99
   3 -11   0  753.12   61.09
   3  11   0  614.84   55.59
  -3  11   0  686.33   66.59
  -3  11   0  765.62   54.69
   3  11   0  668.33   50.69
  -3  11   0  744.03   49.50
   5 -11   0 1200.18   92.69
   5 -11   0 1241.98   85.79
   5 -11   0 1100.59   82.29
  -5 -11   0 1112.69   90.79
   5  11   0 1254.67   84.09
   5  11   0 1186.08   83.19
  -5  11   0 1275.97   86.49
  -5  11   0 1268.67   82.89
   7 -11   0  796.12   54.89
   7 -11   0  572.84   63.69
  -7 -11   0  630.54   66.29
   7  11   0  640.14   50.69
   7  11   0  677.43   51.59
   7  11   0  543.15   65.99
  -7  11   0  757.82   49.90
  -7  11   0  609.14   55.79
  -9 -11   0  581.14   75.09
  -9 -11   0  634.74   54.49
  -9  11   0  764.12   64.89
  -9  11   0  756.42   54.79
   9  11   0  649.24   54.59
 -11 -11   0  367.86   64.89
 -11 -11   0  439.76   50.99
 -11  11   0  567.24   85.09
 -11  11   0  478.15   50.39
  11  11   0  523.45   50.89
 -11  11   0  562.54   64.49
   0 -12   0 1465.75  106.09
   0 -12   0 1449.15   99.39
   0 -12   0 1321.77   94.19
   0  12   0 1438.16   94.69
   0  12   0 1518.25   99.49
   0  12   0 1158.68  104.29
  -2 -12   0 1618.94  124.29
  -2 -12   0 1843.22  136.49
  -2 -12   0 1915.71  130.79
   2 -12   0 1801.92  123.89
   2 -12   0 1802.52  127.59
   2 -12   0 1879.01  134.59
  -2  12   0 2078.59  128.69
   2  12   0 1903.71  129.89
  -2  12   0 1732.33  138.49
  -2  12   0 1939.91  124.59
   2  12   0 1878.41  124.89
  -4 -12   0  558.54   50.69
   4 -12   0  538.45   52.19
   4 -12   0  561.84   44.80
  -4 -12   0  546.55   64.09
   4 -12   0  478.15   39.40
   4  12   0  513.85   40.60
  -4  12   0  555.84   47.10
   4  12   0  408.16   49.60
  -4  12   0  531.85   39.40
  -6 -12   0  152.68   45.10
   6 -12   0  122.69   28.70
  -6 -12   0  125.49   18.00
   6 -12   0  131.39   22.20
  -6 -12   0  180.78   32.90
   6  12   0  136.59   19.30
  -6  12   0  136.69   25.50
  -6  12   0  151.98   18.20
   8 -12   0  164.28   26.20
  -8 -12   0  120.09   20.60
  -8 -12   0  164.88   39.00
   8 -12   0  193.58   37.00
  -8  12   0   69.99   30.00
  -8  12   0  131.39   20.30
   8  12   0  159.28   21.80
 -10 -12   0  148.79   50.29
 -10 -12   0  160.48   26.60
  10  12   0  116.99   25.00
 -10  12   0   93.99   39.10
 -10  12   0  169.68   67.29
 -10  12   0  167.78   24.80
   1 -13   0  142.49   21.70
   1 -13   0   94.59   14.70
  -1 -13   0  151.48   33.80
   1 -13   0  156.68   30.20
  -1 -13   0  128.99   23.40
  -1  13   0  129.09   15.80
   1  13   0  116.79   23.30
   1  13   0  137.39   16.30
  -1  13   0  153.18   21.50
   1  13   0   62.79   35.00
   3 -13   0  381.86   36.30
   3 -13   0  528.55   42.90
  -3 -13   0  442.06   48.00
   3 -13   0  483.55   52.89
  -3 -13   0  419.26   61.39
   3  13   0  468.05   50.89
  -3  13   0  441.46   36.00
  -3  13   0  590.84   45.50
   3  13   0  441.26   38.70
   5 -13   0  484.25   54.99
  -5 -13   0  433.36   55.99
  -5 -13   0  518.45   62.69
   5 -13   0  534.65   45.90
  -5  13   0  548.55   40.70
   5  13   0  446.46   42.30
  -5  13   0  575.44   50.49
  -7 -13   0  420.96   38.70
   7 -13   0  525.45   60.19
   7 -13   0  471.05   46.10
  -7 -13   0  421.86   54.99
  -7  13   0  402.96   52.59
   7  13   0  378.26   40.10
  -7  13   0  507.95   40.90
  -9 -13   0  548.75   48.50
  -9 -13   0  466.65   65.19
   9 -13   0  525.35   71.79
   9  13   0  604.14   51.29
  -9  13   0  567.24   49.60
   0 -14   0 1099.49   95.29
   0 -14   0 1090.99   82.39
   0  14   0 1053.09   82.29
   0  14   0 1126.19   76.89
  -2 -14   0  407.36   54.29
   2 -14   0  255.57   35.30
  -2 -14   0  300.17   37.80
   2 -14   0  284.27   49.99
  -2  14   0  268.87   27.90
  -2  14   0  277.97   38.00
   2  14   0  334.27   29.80
   2  14   0  284.87   39.30
   4 -14   0  511.15   59.89
  -4 -14   0  469.35   58.09
  -4 -14   0  455.75   76.09
   4 -14   0  610.54   50.09
   4  14   0  588.14   45.30
  -4  14   0  593.04   53.69
  -4  14   0  584.74   44.10
  -6 -14   0  164.58   36.80
   6 -14   0  143.39   34.40
  -6 -14   0  158.48   47.60
  -6  14   0  197.88   23.30
  -6  14   0  167.98   32.90
   6  14   0  171.78   23.00
   8 -14   0    2.90   31.80
   8 -14   0   50.09   26.60
  -8 -14   0    1.40   40.90
  -8 -14   0   18.90   18.10
  -8  14   0   47.00   19.20
   8  14   0  -20.30   18.10
 -10 -14   0  -12.40   23.20
 -10 -14   0   99.99   50.39
 -10  14   0  -23.90   53.29
 -10  14   0  -96.59   38.90
 -10  14   0   41.80   25.90
  10  14   0   31.80   23.60
  -1 -15   0   62.59   34.00
   1 -15   0    9.80   21.70
  -1 -15   0   47.10   23.60
   1 -15   0   53.49   30.60
  -1  15   0   34.60   27.30
  -1  15   0   23.40   12.70
   1  15   0   -1.10   28.60
   1  15   0   54.69   15.10
  -3 -15   0   80.89   41.00
  -3 -15   0   56.79   27.20
   3 -15   0   24.40   20.30
   3 -15   0   20.90   28.10
  -3  15   0   22.40   25.00
   3  15   0   78.99   16.80
  -3  15   0   41.40   13.70
  -5 -15   0   63.19   31.00
  -5 -15   0   79.89   57.09
   5 -15   0   43.00   28.70
   5  15   0   56.09   17.50
  -5  15   0   51.09   17.30
  -5  15   0   66.29   30.30
   7 -15   0  164.18   42.20
  -7 -15   0  256.47   69.69
  -7 -15   0  211.38   44.20
   7  15   0  299.67   34.80
  -7  15   0  245.48   34.60
  -9 -15   0  180.68   27.80
  -9 -15   0  319.17   81.59
   9 -15   0  165.78   44.90
  -9 -15   0  160.08   53.99
  -9  15   0  217.98   31.30
   9  15   0  164.58   30.20
   0 -16   0   41.70   34.90
   0 -16   0   24.20   28.60
   0  16   0   18.90   15.00
  -2 -16   0   33.90   35.40
   2 -16   0   49.60   23.70
   2 -16   0   21.00   33.30
  -2 -16   0    6.80   28.10
   2  16   0   13.60   15.20
  -2  16   0   41.70   14.80
  -2  16   0   46.60   33.70
  -4 -16   0   74.19   31.60
   4 -16   0    9.20   31.40
   4 -16   0   49.90   24.40
  -4 -16   0  126.09   48.40
  -4  16   0   70.19   31.60
  -4  16   0   10.60   15.10
  -6 -16   0   77.09   76.69
   6 -16   0   42.50   26.40
   6 -16   0   15.20   33.10
  -6 -16   0   -2.50   36.60
   6  16   0   96.39   23.70
  -6  16   0   18.30   19.30
  -8 -16   0   29.00   44.70
  -8 -16   0   51.19   22.90
  -8 -16   0  -85.79   85.09
   8 -16   0   16.10   38.50
   8  16   0   21.50   22.70
  -8  16   0    0.80   24.50
   1 -17   0  -16.90   29.10
  -1 -17   0   21.60   30.50
  -1 -17   0   46.10   44.10
  -1  17   0    2.30   16.50
   1  17   0   23.00   15.70
  -3 -17   0   11.50   43.10
  -3 -17   0   21.30   32.40
   3 -17   0   50.09   32.00
   3 -17   0   16.80   26.00
   3  17   0   51.49   20.60
  -3  17   0   64.99   20.20
  -5 -17   0   58.59   37.60
   5 -17   0   73.29   36.90
  -5 -17   0   37.30   69.29
   5 -17   0   55.09   30.20
  -5  17   0   92.59   23.00
   5  17   0  115.69   23.90
   7 -17   0    4.80   40.80
  -7 -17   0   17.80   44.50
  -7 -17   0   35.80   68.79
   7  17   0   46.40   24.00
  -7  17   0   44.40   25.80
   0 -18   0   -6.70   43.10
   0 -18   0   38.00   31.50
   0  18   0   44.00   19.00
   2 -18   0  225.38   51.59
  -2 -18   0  237.48   56.69
  -2 -18   0  275.07   46.30
   2 -18   0  245.58   41.60
   2  18   0  357.66   43.10
  -2  18   0  266.27   37.40
  -4 -18   0   78.09   64.19
   4 -18   0   -8.90   39.40
   4 -18   0   25.60   33.70
  -4 -18   0    5.90   39.10
   4  18   0   37.00   21.50
  -4  18   0    8.20   22.30
  -6 -18   0   21.50   96.89
  -6 -18   0   85.39   45.90
   6 -18   0  -29.50   37.00
  -6  18   0   -1.60   25.40
   6  18   0   -0.40   24.20
   1 -19   0   12.10   35.70
  -1 -19   0   47.50   49.40
  -1 -19   0  -81.69   40.40
   1 -19   0    2.90   47.00
  -1  19   0   20.00   23.10
   1  19   0   63.19   26.30
  -3 -19   0  106.99   58.29
   3 -19   0  125.59   49.80
  -3 -19   0  157.98   45.10
   3 -19   0  186.58   41.70
   3  19   0  244.18   35.00
  -3  19   0  199.88   30.10
  -5 -19   0  222.58   50.89
  -5 -19   0  208.58   70.09
   5 -19   0  223.48   53.79
   5  19   0  256.57   37.70
  -5  19   0  217.98   35.40
   0 -20   0  841.52   91.99
   0 -20   0  980.20  112.69
   0  20   0  937.31   74.59
  -2 -20   0  307.17   50.39
   2 -20   0  186.88   52.39
  -2 -20   0  239.58   70.49
   2 -20   0  189.98   46.80
   2  20   0  186.08   37.60
  -2  20   0  191.78   32.20
  -4 -20   0  105.89   48.10
  -4 -20   0  147.19  110.59
   4 -20   0  163.18   52.39
   4  20   0  220.68   39.00
  -4  20   0  247.38   38.20
  -1 -21   0  126.19   61.99
   1 -21   0  129.79   59.69
  12   0  -1    6.60   18.40
 -12   0   1   33.70   31.80
 -12   0   1    3.70   18.30
 -10   0   1   -0.80   20.70
  10   0  -1    8.60   12.90
 -10   0   1   14.40   12.30
  -8   0   1   24.40   15.40
  -8   0   1   11.90   13.70
  -8   0   1   10.20   10.50
   8   0  -1    9.10    7.70
  -8   0   1   37.10    8.80
  -6   0   1   -5.70    5.30
   6   0  -1    3.20    5.40
  -6   0   1   -4.00    6.40
  -6   0   1   -4.70    5.20
  -6   0   1   -1.10    9.10
   6   0  -1    1.60   12.00
  -4   0   1    2.10    4.40
  -4   0   1   14.30    3.90
   4   0  -1   11.60    4.30
  -4   0   1   16.60    7.60
   4   0  -1   -0.50    8.30
  -2   0   1    1.00    1.70
   2   0  -1    7.40    3.60
   2   0  -1    4.30    2.00
  -2   0   1    5.50    2.90
  -4   0  -1    6.60    6.20
  -4   0  -1   13.20    7.20
  -4   0  -1    6.10    6.60
   4   0   1    1.80    3.90
  -4   0  -1    3.10    3.60
  -4   0  -1    1.90    4.40
   4   0   1    5.30    6.50
   4   0   1   -0.70    4.40
  -6   0  -1   10.60    9.40
  -6   0  -1   13.70    5.70
  -6   0  -1    1.30   10.30
  -6   0  -1  -12.10    6.50
   6   0   1   -3.30    6.30
  -6   0  -1    2.30   10.00
   6   0   1    3.60    5.60
  -8   0  -1   20.10    8.00
  -8   0  -1   -2.20   15.20
  -8   0  -1    1.00   11.00
  -8   0  -1   25.30   13.90
   8   0   1   18.70    8.90
   8   0   1   15.90    9.90
  -8   0  -1   12.60   16.70
  -8   0  -1   26.80   12.00
 -10   0  -1   13.40   20.10
 -10   0  -1    0.80   12.60
  10   0   1   13.70   12.90
 -10   0  -1   -4.30   22.80
 -10   0  -1   30.70   23.50
 -12   0  -1  -10.20   30.00
  12   0   1   -2.80   18.40
 -12   0  -1    8.80   18.60
 -13  -1   1   36.50   37.40
 -13  -1   1   42.30   22.50
  13  -1  -1   48.60   25.10
 -13   1   1   52.59   40.70
 -13   1   1   45.00   24.70
  13   1  -1   31.10   22.70
 -11  -1   1  180.88   24.50
  11  -1  -1  210.98   29.00
 -11  -1   1  203.78   36.70
  11   1  -1  278.47   29.90
 -11   1   1  256.57   29.30
 -11   1   1  166.08   32.60
  -9  -1   1   -6.50   12.50
  -9  -1   1   -2.10   16.70
   9  -1  -1    8.00   10.40
  -9  -1   1   17.80   10.40
  -9   1   1   29.50   16.50
  -9   1   1   14.70   22.10
  -9   1   1   15.80   10.10
  -9   1   1  -14.40   13.10
   9   1  -1    6.70   10.10
  -7  -1   1  100.29   12.60
  -7  -1   1  103.19   13.80
   7  -1  -1   98.69   13.80
  -7  -1   1  111.79   14.10
  -7  -1   1  123.09   18.30
  -7   1   1  147.69   18.10
  -7   1   1  109.89   13.60
  -7   1   1  112.49   17.00
  -7   1   1   93.69   16.70
   7   1  -1  113.69   20.00
  -7   1   1  106.99   12.70
   7   1  -1  110.09   13.90
  -7   1   1  122.59   14.20
  -5  -1   1  157.48   15.30
  -5  -1   1  185.28   14.40
  -5  -1   1  166.58   18.40
   5  -1  -1  166.78   14.50
  -5   1   1  175.08   18.10
  -5   1   1  154.88   14.20
  -5   1   1  150.38   16.40
  -5   1   1  171.88   18.60
  -5   1   1  149.19   14.00
  -5   1   1  177.18   15.10
   5   1  -1  180.38   20.90
   5   1  -1  164.78   14.90
  -5   1   1  142.89   17.70
   5   1  -1  162.38   14.30
  -3  -1   1  360.96   24.90
  -3  -1   1  335.57   25.10
  -3   1   1  365.56   25.10
  -3   1   1  332.07   25.80
   3   1  -1  390.86   27.10
  -3   1   1  390.26   26.20
   3   1  -1  343.07   25.40
  -3   1   1  369.26   25.00
   3   1  -1  355.56   25.20
   1  -1  -1   43.20    3.50
  -1  -1   1   39.00    3.90
  -1  -1   1   47.50    3.80
   1   1  -1   52.39    5.20
  -1   1   1   32.80    4.80
  -1   1   1   49.40    3.70
  -3  -1  -1 1261.67   82.99
  -3  -1  -1 1248.78   81.29
   3  -1   1 1267.97   81.39
  -3  -1  -1 1215.28   81.69
  -3  -1  -1 1264.57   83.79
  -3   1  -1 1238.38   81.59
   3   1   1 1147.19   82.69
  -3   1  -1 1365.86   82.99
  -3   1  -1 1157.48   82.99
   3   1   1 1305.87   82.89
  -3   1  -1 1180.58   82.69
   3   1   1 1178.38   81.79
  -3   1  -1 1271.37   81.29
  -3   1  -1 1104.99   82.19
   3   1   1 1279.67   81.39
   5  -1   1   99.79   11.40
  -5  -1  -1  111.09   12.90
  -5  -1  -1  144.39   16.70
  -5  -1  -1  136.39   11.50
  -5  -1  -1  110.39   18.40
   5  -1   1  111.59   13.10
  -5   1  -1  117.39   16.20
   5   1   1  106.69   12.90
  -5   1  -1  128.39   16.50
  -5   1  -1   84.09   14.30
   5   1   1  135.29   18.70
  -5   1  -1  134.79   15.60
   5   1   1  137.49   11.90
  -5   1  -1  127.09   11.60
   5   1   1  140.79   15.60
  -5   1  -1   95.69   12.20
  -7  -1  -1  128.19   16.20
  -7  -1  -1   87.19   17.10
   7  -1   1  108.39   13.20
   7  -1   1  102.19   13.70
  -7  -1  -1   82.69   18.20
  -7  -1  -1  111.49   17.20
  -7   1  -1   79.99   12.20
   7   1   1  123.79   15.10
  -7   1  -1  103.49   17.40
  -7   1  -1   92.79   15.60
  -7   1  -1   89.09   15.50
  -7   1  -1   98.69   16.20
   7   1   1  111.29   17.50
  -9  -1  -1   36.20   17.10
  -9  -1  -1   33.40   11.90
   9  -1   1   -3.10   10.50
  -9  -1  -1   19.60   18.20
  -9  -1  -1    3.50   14.30
  -9   1  -1   26.50   10.70
  -9   1  -1   -1.70   18.00
   9   1   1   19.30   10.30
   9   1   1   21.00   11.80
  -9   1  -1   14.60   16.30
  -9   1  -1    7.50   23.00
  -9   1  -1   18.10   16.80
 -11  -1  -1    4.40   25.40
  11  -1   1   41.10   16.00
 -11  -1  -1   64.29   27.40
 -11   1  -1   34.80   15.50
 -11   1  -1   38.60   29.00
 -11   1  -1   77.99   28.50
  11   1   1   15.00   16.30
 -11   1  -1   52.89   29.00
  13  -1   1   22.60   22.50
 -13  -1  -1   23.50   40.90
 -13  -1  -1   23.80   23.10
  13   1   1   48.90   23.70
 -13   1  -1   56.19   43.40
 -13   1  -1   35.60   39.10
 -13   1  -1   28.90   22.70
 -12  -2   1   99.29   34.00
 -12  -2   1   11.70   18.60
  12  -2  -1   40.40   19.70
  12   2  -1   -8.70   18.00
 -12   2   1    1.30   32.60
 -12   2   1   -9.50   17.80
 -10  -2   1  -10.60   12.00
  10  -2  -1    4.30   12.50
 -10  -2   1  -38.40   21.60
 -10   2   1   -2.10   21.10
 -10   2   1   11.40   12.60
  10   2  -1   23.10   14.00
 -10   2   1    2.60   21.10
  -8  -2   1  850.81   64.19
   8  -2  -1  817.52   58.49
  -8  -2   1  866.71   58.89
  -8  -2   1  824.42   58.39
  -8  -2   1  724.03   59.79
  -8   2   1  896.51   63.99
  -8   2   1  810.72   62.19
  -8   2   1  766.82   62.69
  -8   2   1  852.81   62.59
  -8   2   1  822.12   58.39
   8   2  -1  791.22   66.69
  -8   2   1  830.22   58.69
  -8   2   1  813.22   59.49
   8   2  -1  895.01   58.99
   6  -2  -1  373.26   30.20
  -6  -2   1  397.46   31.00
  -6  -2   1  399.66   35.10
  -6   2   1  414.66   30.10
  -6   2   1  384.76   33.40
   6   2  -1  433.36   31.00
  -6   2   1  381.36   32.80
  -6   2   1  386.56   29.90
  -6   2   1  436.06   33.50
   6   2  -1  432.76   36.70
  -6   2   1  403.86   30.40
  -6   2   1  387.76   34.60
   6   2  -1  493.85   30.80
  -4  -2   1  784.92   57.79
   4  -2  -1  802.12   57.59
   4  -2  -1  763.42   59.29
  -4  -2   1  891.11   57.59
  -4  -2   1  845.02   60.19
  -4   2   1  894.11   57.59
  -4   2   1  939.11   57.59
   4   2  -1  809.42   57.49
  -4   2   1  766.02   59.19
   4   2  -1  875.21   59.99
  -4   2   1  958.00   59.09
  -4   2   1  917.21   57.59
   4   2  -1  821.72   57.89
  -4   2   1  894.01   58.99
  -2  -2   1  730.23   54.39
  -2  -2   1  911.61   56.19
   2  -2  -1  856.91   54.19
   2  -2  -1  750.12   55.79
  -2  -2   1  816.52   54.59
   2   2  -1  866.01   55.79
   2   2  -1  758.72   54.59
  -2   2   1  836.12   54.29
  -2   2   1  840.82   54.49
  -2   2   1  788.92   55.89
   2   2  -1  852.41   54.49
  -2   2   1  853.51   54.39
  -2  -2  -1   93.49    9.50
   2  -2   1   70.69    9.00
   2   2   1   85.29    7.20
   2   2   1   63.59    8.80
  -2   2  -1   49.10    7.80
   2   2   1   70.99    6.60
   2   2   1  101.39    9.70
  -4  -2  -1  116.59   16.50
  -4  -2  -1  120.29   15.90
  -4  -2  -1  137.79   11.20
   4  -2   1  156.28   12.90
  -4   2  -1  134.79   14.30
  -4   2  -1  106.39   15.50
   4   2   1  121.19   11.40
  -4   2  -1  124.19   14.70
   4   2   1  149.79   17.70
   4   2   1  109.99   13.30
  -4   2  -1  165.58   12.10
  -4   2  -1  153.08   11.40
  -6  -2  -1  106.69   15.80
  -6  -2  -1  100.69   17.10
  -6  -2  -1   88.59   12.40
  -6  -2  -1  111.39   12.00
   6   2   1   67.69   13.70
   6   2   1   79.99   12.90
   6   2   1  122.59   12.20
   6   2   1  119.49   18.40
  -8  -2  -1   17.00   18.30
  -8  -2  -1   33.10   13.10
  -8  -2  -1   28.70   15.40
   8  -2   1   45.50   10.50
  -8  -2  -1   38.00   10.10
  -8   2  -1   33.20   14.30
  -8   2  -1   36.80   17.20
  -8   2  -1   64.99   10.80
  -8   2  -1   42.60   11.50
  -8   2  -1   52.29   14.20
   8   2   1   43.30    9.80
   8   2   1   15.70   10.40
   8   2   1   38.70   17.50
  -8   2  -1   11.70   13.90
 -10  -2  -1  203.98   32.30
 -10  -2  -1  240.38   32.90
  10  -2   1  179.88   24.20
 -10   2  -1  213.38   31.20
  10   2   1  179.28   25.70
 -10   2  -1  213.38   25.90
 -10   2  -1  200.98   30.70
 -10   2  -1  177.98   28.20
 -12  -2  -1  190.98   39.40
  12  -2   1  183.78   25.90
 -12  -2  -1  207.58   27.30
 -12   2  -1  161.68   38.20
 -12   2  -1  177.88   38.50
  12   2   1  143.39   25.20
 -12   2  -1  195.78   26.00
 -13  -3   1  484.45   75.59
 -13  -3   1  674.63   56.69
 -13   3   1  587.24   55.69
 -13   3   1  472.55   64.69
 -13   3   1  720.53   79.59
  13   3  -1  468.85   54.39
 -11  -3   1  392.96   38.30
 -11  -3   1  434.66   52.49
 -11   3   1  403.96   50.79
 -11   3   1  334.77   55.59
 -11   3   1  465.25   39.00
  11   3  -1  407.26   40.30
 -11   3   1  483.95   56.09
  -9  -3   1  710.13   61.09
  -9  -3   1  728.73   53.09
   9  -3  -1  723.03   52.59
   9   3  -1  789.92   53.49
  -9   3   1  676.43   57.59
  -9   3   1  729.23   59.79
  -9   3   1  692.73   54.09
  -9   3   1  668.93   60.49
  -9   3   1  668.93   57.39
  -9   3   1  722.93   52.29
  -7  -3   1  289.87   23.40
  -7  -3   1  266.17   24.60
   7  -3  -1  254.77   22.80
  -7  -3   1  321.27   30.20
  -7   3   1  264.27   27.70
  -7   3   1  267.77   27.60
   7   3  -1  286.67   23.60
  -7   3   1  260.27   23.80
  -7   3   1  253.47   23.60
  -7   3   1  221.68   29.50
  -7   3   1  288.67   28.40
  -7   3   1  312.37   22.70
   7   3  -1  273.37   34.00
   7   3  -1  301.97   24.60
  -5  -3   1  211.88   21.60
   5  -3  -1  175.88   20.40
  -5  -3   1  192.08   16.30
  -5  -3   1  180.98   17.40
  -5   3   1  186.78   16.00
  -5   3   1  191.18   22.40
   5   3  -1  243.08   23.10
  -5   3   1  202.18   19.90
   5   3  -1  199.68   16.50
  -5   3   1  190.58   19.30
  -5   3   1  175.88   17.00
  -5   3   1  222.18   16.80
   5   3  -1  201.28   17.70
  -3  -3   1  327.17   24.30
  -3  -3   1  333.97   27.60
   3  -3  -1  355.16   24.90
  -3  -3   1  323.67   24.00
   3  -3  -1  346.97   27.30
  -3   3   1  367.86   23.70
  -3   3   1  330.87   27.30
  -3   3   1  359.26   23.90
  -3   3   1  339.47   24.00
   3   3  -1  284.47   23.90
  -3   3   1  358.36   24.90
   3   3  -1  358.76   26.40
   3   3  -1  335.17   24.70
  -3   3   1  354.76   24.20
  -1  -3   1  755.42   52.99
  -1  -3   1  866.71   54.49
   1  -3  -1  765.92   52.79
   1  -3  -1  860.31   55.59
   1   3  -1  774.52   54.09
  -1   3   1  828.62   55.29
   1   3  -1  797.02   53.09
  -1   3   1  769.92   52.99
   1  -3   1    9.90    1.80
  -1  -3  -1    5.80    3.60
   1  -3   1    8.10    5.00
  -1  -3  -1   11.80    2.40
   1  -3   1   17.10    4.10
  -1  -3  -1   20.00    7.50
  -1   3  -1   11.20    3.40
   1   3   1   10.90    3.60
   1   3   1    8.60    2.60
   1   3   1   -3.90    5.20
  -1   3  -1   12.90    5.40
  -3  -3  -1  253.67   21.60
   3  -3   1  223.38   21.00
  -3  -3  -1  219.28   18.00
  -3  -3  -1  230.98   17.40
   3  -3   1  283.47   20.10
   3   3   1  230.08   18.50
  -3   3  -1  272.87   19.40
  -3   3  -1  250.17   21.00
   3   3   1  214.08   20.40
   3   3   1  211.48   17.70
  -3   3  -1  266.67   17.50
   3   3   1  238.48   20.80
   5  -3   1 3176.48  181.48
  -5  -3  -1 2569.84  181.38
  -5  -3  -1 2562.74  180.88
  -5  -3  -1 2735.73  183.88
   5   3   1 2760.22  181.68
  -5   3  -1 2915.71  183.38
  -5   3  -1 2587.64  184.28
  -5   3  -1 2882.41  181.18
  -5   3  -1 2607.44  183.18
   5   3   1 2765.32  183.48
   5   3   1 2778.82  181.18
   5   3   1 2676.03  183.38
  -5   3  -1 2740.13  180.88
  -7  -3  -1  620.24   49.00
   7  -3   1  578.14   42.90
  -7  -3  -1  642.14   45.00
  -7  -3  -1  524.05   53.39
  -7  -3  -1  618.54   43.30
  -7   3  -1  576.84   47.80
   7   3   1  566.64   50.99
  -7   3  -1  650.13   43.50
  -7   3  -1  596.94   43.60
   7   3   1  608.64   48.10
  -7   3  -1  583.84   49.20
  -7   3  -1  631.34   48.30
   7   3   1  617.94   44.70
   7   3   1  598.34   43.60
  -7   3  -1  617.04   47.40
  -9  -3  -1  872.31   65.49
   9  -3   1  730.33   55.49
  -9   3  -1  785.52   56.79
  -9   3  -1  746.53   64.69
  -9   3  -1  669.93   64.39
   9   3   1  862.31   56.99
  -9   3  -1  755.32   61.39
   9   3   1  720.73   57.79
  -9   3  -1  771.02   63.39
  -9   3  -1  792.62   56.29
 -11  -3  -1  275.37   32.20
 -11  -3  -1  256.17   40.30
  11   3   1  305.67   33.40
 -11   3  -1  218.48   37.20
 -11   3  -1  319.97   32.20
 -11   3  -1  311.77   48.00
 -13  -3  -1    8.70   38.10
 -13  -3  -1   11.90   24.70
 -13   3  -1  -19.30   40.30
 -13   3  -1   42.70   24.60
  13   3   1   79.69   25.00
 -13   3  -1  -20.00   40.90
 -13   3  -1   11.30   27.10
 -12  -4   1   16.20   17.80
 -12  -4   1   60.49   37.60
 -12   4   1    5.10   30.40
 -12   4   1   32.00   19.90
 -12   4   1   71.69   38.00
  12   4  -1   53.59   20.90
 -12   4   1    6.60   19.70
 -10  -4   1    6.90   12.70
 -10  -4   1   48.20   24.00
  10   4  -1    2.80   14.00
 -10   4   1    3.80   19.60
 -10   4   1    2.40   13.00
 -10   4   1   28.10   26.80
 -10   4   1    4.80   15.00
 -10   4   1   13.00   17.60
  -8  -4   1  855.11   60.39
  -8  -4   1  826.92   61.69
  -8  -4   1  859.61   59.29
  -8  -4   1  984.30   66.79
  -8   4   1  873.11   59.89
  -8   4   1  825.82   59.09
  -8   4   1  839.72   64.09
  -8   4   1  854.71   58.89
  -8   4   1  871.91   59.89
  -8   4   1  844.62   63.09
   8   4  -1  662.43   69.59
  -8   4   1  824.02   66.89
   8   4  -1  751.32   59.49
  -8   4   1  840.22   63.49
  -6  -4   1 2638.04  176.28
  -6  -4   1 2488.55  176.48
  -6  -4   1 2626.44  179.68
   6   4  -1 2600.64  179.08
   6   4  -1 2523.25  176.48
  -6   4   1 2608.24  176.18
   6   4  -1 2630.14  176.28
  -6   4   1 2967.50  176.28
  -6   4   1 2710.73  177.48
  -6   4   1 2641.94  180.48
  -6   4   1 2842.62  175.98
  -6   4   1 2682.33  177.98
  -4  -4   1 1725.43  115.29
   4  -4  -1 1607.74  115.29
   4  -4  -1 1848.02  113.39
  -4  -4   1 1774.82  112.69
  -4  -4   1 1637.54  112.19
  -4   4   1 1691.13  112.29
  -4   4   1 1700.33  111.89
   4   4  -1 1617.64  112.19
   4   4  -1 1722.63  114.69
  -4   4   1 1710.33  113.19
   4   4  -1 1700.63  112.59
  -4   4   1 1586.04  115.39
   2  -4  -1  823.92   57.29
  -2  -4   1  766.32   55.59
   2  -4  -1  791.32   52.99
  -2  -4   1  756.42   53.19
  -2  -4   1  854.21   53.29
  -2   4   1  800.52   53.19
   2   4  -1  823.92   55.29
  -2   4   1  827.62   56.89
   2   4  -1  795.72   53.19
   2   4  -1  732.83   53.19
   0  -4  -1 3618.84  242.58
   0  -4   1 3655.03  239.88
   0  -4  -1 3335.67  239.88
   0  -4  -1 3604.24  240.58
   0  -4   1 3932.11  242.58
   0  -4   1 3863.61  241.28
   0   4   1 3598.94  242.48
   0   4  -1 3931.51  241.18
   0   4   1 3805.82  240.68
   0   4  -1 3516.65  241.98
   0   4  -1 3721.53  239.98
   0   4   1 3526.75  239.98
  -2  -4  -1   23.70    3.90
   2  -4   1   27.70    8.50
  -2  -4  -1   36.00    8.70
  -2  -4  -1    6.50    7.90
   2   4   1   30.30    6.70
   2   4   1   27.00    4.50
  -2   4  -1   33.00    8.90
  -4  -4  -1  576.34   41.50
  -4  -4  -1  610.94   44.10
   4  -4   1  529.55   44.10
   4  -4   1  584.34   42.70
   4   4   1  669.43   41.10
   4   4   1  600.64   41.50
   4   4   1  566.44   44.30
  -4   4  -1  553.24   42.50
   4   4   1  710.13   44.90
  -4   4  -1  605.24   40.40
  -4   4  -1  495.75   44.70
  -4   4  -1  601.44   40.70
   6   4   1   39.00   11.80
  -6   4  -1   42.20   13.30
  -6   4  -1   35.70    7.50
  -6   4  -1   60.89    8.10
  -6   4  -1   49.50   11.70
  -6   4  -1   54.69   13.20
  -6   4  -1   48.60   10.50
  -6   4  -1   32.60    8.30
  -8  -4  -1  141.79   22.70
  -8  -4  -1  225.18   22.20
  -8  -4  -1  229.78   30.80
  -8   4  -1  204.68   20.90
   8   4   1  215.98   24.00
  -8   4  -1  257.07   29.50
   8   4   1  204.68   21.70
   8   4   1  186.78   32.20
  -8   4  -1  205.38   28.10
  -8   4  -1  210.98   22.80
  -8   4  -1  202.48   30.00
  -8   4  -1  194.08   20.40
  -8   4  -1  196.08   31.60
 -10  -4  -1  412.26   47.80
 -10   4  -1  402.96   34.50
  10   4   1  432.76   38.10
 -10   4  -1  287.47   44.30
 -10   4  -1  385.36   45.10
 -10   4  -1  350.66   35.50
 -10   4  -1  369.66   46.70
  10   4   1  388.76   36.40
 -12  -4  -1  481.55   67.09
 -12  -4  -1  582.14   52.49
 -12   4  -1  508.45   71.49
 -12   4  -1  695.73   53.59
  12   4   1  573.04   53.89
 -12   4  -1  639.04   54.49
 -12   4  -1  648.64   73.19
 -13  -5   1  466.95   49.10
 -13  -5   1  342.27   59.09
 -13   5   1  536.65   50.69
 -13   5   1  326.57   49.70
 -13   5   1  431.46   65.59
 -13   5   1  466.85   72.39
  13   5  -1  437.56   50.79
 -11  -5   1 1106.29   81.49
 -11  -5   1 1034.20   93.29
 -11   5   1 1184.48   81.29
 -11   5   1 1093.69   90.89
  11   5  -1 1107.09   82.49
 -11   5   1 1197.68   82.19
 -11   5   1 1074.59   88.79
  -9  -5   1  387.76   34.30
  -9  -5   1  403.16   46.60
  -9   5   1  455.65   40.10
  -9   5   1  367.06   34.10
  -9   5   1  332.07   42.90
  -9   5   1  318.97   34.90
  -9   5   1  423.76   33.00
  -9   5   1  397.16   40.10
   9   5  -1  448.36   35.40
  -9   5   1  383.56   47.60
  -7  -5   1  916.81   66.29
  -7  -5   1  779.52   59.49
  -7  -5   1  822.42   60.49
  -7   5   1  890.51   62.79
  -7   5   1  807.22   58.79
  -7   5   1  878.81   59.09
  -7   5   1  812.62   62.19
  -7   5   1  924.61   59.59
   7   5  -1  806.52   66.89
  -7   5   1  837.92   67.39
   7   5  -1  811.82   59.49
  -7   5   1  863.91   59.69
   7   5  -1  905.51   60.49
  -5  -5   1  600.34   47.90
   5  -5  -1  657.73   45.00
  -5  -5   1  603.54   43.50
  -5  -5   1  619.74   43.20
   5  -5  -1  614.54   48.00
   5   5  -1  553.64   42.90
   5   5  -1  546.25   43.40
   5   5  -1  596.44   47.40
  -5   5   1  645.94   43.30
  -5   5   1  690.33   43.00
  -5   5   1  614.24   45.20
  -5   5   1  652.83   42.90
  -5   5   1  577.14   50.29
  -3  -5   1 1036.60   70.49
   3  -5  -1 1060.79   74.59
   3  -5  -1 1035.90   70.09
  -3  -5   1 1053.99   70.59
  -3  -5   1 1085.69   73.39
   3   5  -1 1011.00   72.89
  -3   5   1 1109.29   75.39
   3   5  -1 1037.10   70.59
   3   5  -1 1053.59   70.59
  -3   5   1 1046.60   71.29
  -3   5   1 1061.69   70.19
   1  -5  -1    7.50    8.90
  -1  -5   1    4.80    6.70
   1  -5  -1   11.00    3.00
  -1  -5   1   14.80    3.60
  -1  -5   1    9.10    9.60
   1   5  -1   17.30    6.30
   1   5  -1   17.80    4.10
   1   5  -1    9.90    8.30
  -1   5   1    8.30    3.50
  -1   5   1   16.60    4.50
  -1   5   1    5.90   10.70
  -1  -5  -1 1624.34  117.69
  -1  -5  -1 1758.32  116.49
   1  -5   1 1846.92  116.19
   1  -5   1 1861.91  117.99
   1  -5   1 1846.82  120.19
   1   5   1 1510.45  119.79
   1   5   1 1843.02  117.69
  -1   5  -1 1880.41  117.79
  -1   5  -1 1889.11  116.29
   1   5   1 1581.74  116.39
  -1   5  -1 1802.72  119.89
  -3  -5  -1 1151.18   81.69
  -3  -5  -1 1074.99   78.79
   3  -5   1 1191.58   78.29
   3  -5   1 1158.98   82.69
  -3  -5  -1 1153.18   78.89
   3  -5   1 1215.68   80.49
   3   5   1 1210.58   79.09
   3   5   1 1136.19   78.89
  -3   5  -1 1247.38   80.59
  -3   5  -1 1272.27   78.49
  -3   5  -1 1251.37   83.69
   3   5   1 1132.19   80.89
   5  -5   1 2297.37  151.88
  -5  -5  -1 2264.57  151.28
   5  -5   1 2348.47  149.59
  -5  -5  -1 2199.18  147.59
  -5  -5  -1 2127.39  147.89
  -5   5  -1 2286.97  152.68
   5   5   1 2125.79  150.48
  -5   5  -1 2435.76  147.79
  -5   5  -1 2384.56  150.18
   5   5   1 2042.30  147.39
   5   5   1 2055.19  147.89
   5   5   1 2199.78  151.58
  -7  -5  -1 2845.12  195.58
  -7  -5  -1 2922.11  200.38
  -7  -5  -1 2698.63  196.28
  -7   5  -1 3056.59  195.08
   7   5   1 2851.91  195.68
   7   5   1 2729.73  200.08
  -7   5  -1 2790.42  198.48
   7   5   1 2993.80  196.58
  -7   5  -1 3363.06  195.58
  -7   5  -1 3193.08  195.78
  -7   5  -1 2866.01  201.38
  -7   5  -1 2977.80  197.98
  -7   5  -1 2852.71  199.58
   7   5   1 2906.51  198.88
  -7   5  -1 3243.18  195.68
  -9  -5  -1  381.66   46.10
  -9   5  -1  450.85   42.90
  -9   5  -1  430.26   44.60
   9   5   1  462.85   37.20
  -9   5  -1  466.85   53.79
  -9   5  -1  427.86   35.50
  -9   5  -1  300.97   46.30
   9   5   1  399.46   37.80
  -9   5  -1  478.35   35.30
  -9   5  -1  423.46   38.40
  -9   5  -1  444.96   37.00
 -11  -5  -1  324.87   46.50
 -11  -5  -1  323.47   36.40
 -11   5  -1  355.36   36.20
 -11   5  -1  328.27   37.10
 -11   5  -1  407.76   56.59
  11   5   1  330.67   39.40
 -11   5  -1  335.17   51.79
 -13  -5  -1   74.09   26.80
 -13  -5  -1   39.10   45.90
 -13   5  -1   76.29   47.60
 -13   5  -1   97.79   43.60
 -13   5  -1   48.50   27.00
 -13   5  -1   86.99   26.00
  13   5   1   85.39   26.50
 -12  -6   1   42.90   21.10
 -12  -6   1  -37.90   34.10
 -12   6   1   61.19   33.00
 -12   6   1   32.50   20.60
  12   6  -1   24.30   21.30
 -12   6   1    3.40   37.40
 -12   6   1   39.10   22.70
 -10  -6   1   23.30   14.20
 -10  -6   1   13.20   27.00
 -10   6   1   23.40   20.20
  10   6  -1   10.50   15.30
 -10   6   1   28.40   13.70
 -10   6   1   47.10   22.10
 -10   6   1  -12.40   13.90
  -8  -6   1  265.87   23.20
  -8  -6   1  238.08   35.50
  -8   6   1  283.07   41.10
  -8   6   1  264.77   34.80
  -8   6   1  280.57   31.00
  -8   6   1  217.58   25.20
  -8   6   1  259.57   23.70
   8   6  -1  254.77   24.70
  -8   6   1  244.48   23.90
  -8   6   1  299.87   31.70
  -8   6   1  250.07   26.00
  -6  -6   1 1923.71  124.09
   6  -6  -1 1838.82  128.59
  -6  -6   1 1838.82  127.89
  -6  -6   1 1813.52  123.89
  -6   6   1 1948.31  122.79
  -6   6   1 1891.31  123.79
  -6   6   1 1871.71  125.79
   6   6  -1 1908.81  124.09
  -6   6   1 1917.01  123.19
   6   6  -1 1771.62  127.69
   6   6  -1 1676.43  123.39
  -6   6   1 1762.72  129.69
   4  -6  -1 4424.76  292.57
   4  -6  -1 4549.14  293.77
  -4  -6   1 4651.23  293.17
   4  -6  -1 4604.84  297.67
  -4  -6   1 4571.74  293.17
  -4  -6   1 4590.24  296.37
   4   6  -1 3911.81  292.87
  -4   6   1 4653.93  292.77
  -4   6   1 4229.28  293.97
   4   6  -1 4421.76  295.77
   4   6  -1 4577.54  293.17
  -4   6   1 4478.35  297.87
   2  -6  -1  416.36   34.30
  -2  -6   1  370.16   27.20
  -2  -6   1  431.46   31.40
   2  -6  -1  401.06   27.10
   2   6  -1  371.36   30.40
  -2   6   1  391.46   35.20
   2   6  -1  400.06   27.60
  -2   6   1  379.16   27.10
   2   6  -1  297.37   34.60
   0  -6  -1 3498.75  239.58
   0  -6   1 3366.56  239.38
   0  -6   1 3819.02  237.98
   0  -6  -1 3409.76  235.98
   0  -6   1 3605.34  235.98
   0   6  -1 3878.31  237.88
   0   6   1 4047.29  237.48
   0   6   1 3600.14  240.08
   0   6  -1 3526.05  239.48
   0   6   1 3382.06  236.08
   0   6  -1 3543.45  235.98
   2  -6   1 3149.88  205.18
   2  -6   1 3393.16  210.18
  -2  -6  -1 2950.40  205.58
  -2  -6  -1 2862.41  207.48
  -2  -6  -1 3135.09  210.08
   2  -6   1 3285.57  207.28
  -2   6  -1 3270.77  210.18
  -2   6  -1 3427.96  205.38
  -2   6  -1 3354.06  207.38
   2   6   1 2987.50  205.68
   2   6   1 2666.43  206.88
  -4  -6  -1  583.14   48.60
   4  -6   1  726.83   50.89
   4  -6   1  777.72   48.30
  -4  -6  -1  661.03   52.59
   4  -6   1  721.73   53.89
  -4  -6  -1  641.44   48.70
  -4   6  -1  849.52   56.59
   4   6   1  695.73   52.09
   4   6   1  668.83   48.80
  -4   6  -1  773.32   48.30
  -4   6  -1  700.23   50.99
   4   6   1  719.83   49.20
  -6  -6  -1  231.68   26.70
   6  -6   1  151.38   20.60
   6  -6   1  145.39   24.70
  -6  -6  -1  225.88   18.20
  -6  -6  -1  189.68   19.00
  -6   6  -1  185.98   32.60
   6   6   1  194.08   19.20
  -6   6  -1  159.28   23.20
   6   6   1  202.98   28.20
  -6   6  -1  175.68   17.20
   6   6   1  128.49   21.30
   6   6   1  208.68   18.00
  -6   6  -1  155.38   16.50
  -8  -6  -1   99.49   23.30
   8   6   1   91.89   19.50
   8   6   1   87.09   14.00
  -8   6  -1   89.69   14.10
  -8   6  -1   66.29   12.20
  -8   6  -1   63.69   28.00
  -8   6  -1   71.59   19.30
   8   6   1   84.39   15.60
  -8   6  -1   98.49   20.30
  -8   6  -1  104.49   13.50
  -8   6  -1   70.79   20.70
  -8   6  -1   94.79   14.10
 -10  -6  -1  773.92   72.49
  10   6   1  755.62   60.99
 -10   6  -1  671.33   69.09
  10   6   1  839.22   60.49
 -10   6  -1  790.52   58.39
 -10   6  -1  779.92   68.99
 -10   6  -1  787.82   57.89
 -12  -6  -1  442.36   60.59
 -12  -6  -1  523.75   46.50
 -12   6  -1  456.45   66.99
  12   6   1  448.36   48.90
 -12   6  -1  406.46   44.40
 -12   6  -1  440.46   55.09
 -12   6  -1  457.85   45.90
 -13  -7   1  586.24   78.99
 -13  -7   1  470.15   51.19
 -13   7   1  386.06   54.49
  13   7  -1  402.06   52.79
 -13   7   1  535.05   74.39
 -13   7   1  494.65   65.59
 -13   7   1  455.85   52.89
 -11  -7   1  541.95   47.40
 -11  -7   1  463.05   63.69
 -11   7   1  649.43   48.70
  11   7  -1  503.55   49.30
 -11   7   1  539.65   62.29
 -11   7   1  589.94   48.70
 -11   7   1  525.95   69.49
  -9  -7   1 1128.89   83.19
  -9  -7   1 1069.79   90.29
  -9   7   1 1404.86   98.49
   9   7  -1 1200.58   83.69
  -9   7   1 1229.98   82.89
  -9   7   1 1137.79   82.09
  -9   7   1 1256.97   87.59
  -9   7   1 1191.98   83.89
  -9   7   1 1033.90   89.99
  -7  -7   1  669.83   54.29
  -7  -7   1  693.83   49.30
  -7  -7   1  619.84   48.70
   7  -7  -1  680.93   54.79
  -7   7   1  638.94   47.50
  -7   7   1  586.54   59.19
   7   7  -1  707.13   48.20
   7   7  -1  625.84   47.20
  -7   7   1  666.73   46.50
  -7   7   1  617.94   50.99
   7   7  -1  549.15   58.89
  -5  -7   1  280.17   24.90
  -5  -7   1  305.87   31.00
   5  -7  -1  328.27   27.30
  -5  -7   1  298.57   25.60
   5  -7  -1  344.07   31.70
   5   7  -1  286.67   24.50
  -5   7   1  331.57   24.10
   5   7  -1  275.17   25.40
  -5   7   1  338.07   25.20
  -5   7   1  380.66   38.50
   5   7  -1  268.67   30.90
  -5   7   1  308.27   27.70
   3  -7  -1  200.78   25.70
  -3  -7   1  184.68   16.40
   3  -7  -1  196.98   16.30
  -3  -7   1  178.38   16.40
  -3  -7   1  190.48   22.40
   3   7  -1  210.58   22.00
   3   7  -1  217.28   16.70
  -3   7   1  215.18   16.20
  -3   7   1  218.88   29.10
  -1  -7   1 1552.34  102.99
   1  -7  -1 1415.16  100.19
  -1  -7   1 1262.77  104.39
  -1  -7   1 1556.44  100.59
   1  -7  -1 1441.66  101.99
   1  -7  -1 1584.34  105.89
   1   7  -1 1472.65  105.29
  -1   7   1 1589.24  106.89
   1   7  -1 1537.25  103.09
  -1   7   1 1483.55  100.39
  -1   7   1 1768.82  102.19
   1   7  -1 1512.15  100.59
  -1  -7  -1   89.59    9.60
   1  -7   1  101.59   16.80
   1  -7   1   77.59    8.80
   1  -7   1   88.59   13.10
  -1   7  -1   95.69   12.40
  -1   7  -1   93.59   17.60
   1   7   1   93.69    9.80
  -1   7  -1   70.79    9.20
   1   7   1  106.59   13.10
   3  -7   1  804.12   55.29
  -3  -7  -1  858.21   56.09
  -3  -7  -1  806.32   55.69
   3  -7   1  829.02   58.19
  -3  -7  -1  873.71   59.99
   3  -7   1  818.62   61.59
   3   7   1  778.42   56.09
  -3   7  -1  861.21   55.59
  -3   7  -1  832.02   62.89
  -3   7  -1  858.21   58.39
   3   7   1  765.62   58.79
   3   7   1  768.32   55.69
   5  -7   1 2088.39  143.59
   5  -7   1 2125.59  139.69
  -5  -7  -1 1958.20  137.89
  -5  -7  -1 1958.30  137.79
  -5  -7  -1 2048.90  141.59
  -5   7  -1 2227.58  137.79
  -5   7  -1 2062.09  140.09
   5   7   1 2093.09  137.89
  -5   7  -1 2060.59  144.89
   5   7   1 2161.88  144.29
  -5   7  -1 2191.58  137.19
   5   7   1 1929.51  137.89
   5   7   1 2007.50  141.29
   7  -7   1  655.73   51.89
  -7  -7  -1  653.93   55.99
  -7  -7  -1  603.34   49.99
  -7  -7  -1  642.34   49.90
   7   7   1  700.73   49.00
  -7   7  -1  704.83   48.00
  -7   7  -1  704.33   48.80
  -7   7  -1  641.44   53.69
   7   7   1  704.23   50.09
   7   7   1  680.53   55.39
  -7   7  -1  780.82   48.70
  -7   7  -1  655.53   63.09
   7   7   1  521.95   62.79
  -9  -7  -1 1391.66  109.59
  -9   7  -1 1491.25  100.59
   9   7   1 1542.65  103.59
  -9   7  -1 1405.66  110.19
   9   7   1 1496.95  101.89
  -9   7  -1 1406.16  100.39
  -9   7  -1 1479.55  108.29
  -9   7  -1 1526.15  102.19
 -11  -7  -1  159.28   24.40
 -11  -7  -1   93.29   37.80
 -11   7  -1  152.78   23.00
  11   7   1  160.58   24.60
 -11   7  -1  180.98   24.30
 -11   7  -1  144.69   36.80
 -11   7  -1  143.29   35.40
 -13  -7  -1   61.59   25.90
 -13  -7  -1   73.89   45.60
 -13   7  -1   56.29   51.49
 -13   7  -1   75.19   28.30
 -13   7  -1  106.89   44.30
  13   7   1   53.79   28.80
 -12  -8   1    1.60   41.70
 -12  -8   1   30.60   20.10
 -12   8   1   52.49   35.70
 -12   8   1   -0.60   22.80
 -12   8   1   11.70   21.20
 -12   8   1   -1.90   39.10
  12   8  -1   16.50   22.70
 -10  -8   1   21.70   30.40
 -10  -8   1   37.70   15.80
 -10   8   1   52.59   16.40
 -10   8   1   18.70   28.30
 -10   8   1   33.00   25.50
 -10   8   1   50.49   16.00
  10   8  -1   45.50   17.30
  -8  -8   1  605.34   61.69
   8  -8  -1  745.33   62.49
  -8  -8   1  782.22   52.09
  -8   8   1  579.44   71.89
  -8   8   1  746.53   51.69
  -8   8   1  767.82   59.19
  -8   8   1  623.24   57.29
   8   8  -1  695.33   52.79
  -6  -8   1  798.42   61.49
  -6  -8   1  704.43   55.29
   6  -8  -1  819.72   56.49
   6  -8  -1  782.32   62.49
  -6  -8   1  819.52   54.99
   6   8  -1  753.92   61.99
   6   8  -1  726.03   54.29
   6   8  -1  694.63   54.49
  -6   8   1  710.13   57.49
  -6   8   1  794.22   54.79
  -6   8   1  811.82   53.79
  -6   8   1  776.52   67.29
  -4  -8   1  691.63   49.20
  -4  -8   1  712.03   54.79
   4  -8  -1  731.33   51.19
   4  -8  -1  673.93   48.70
  -4  -8   1  730.33   49.70
   4  -8  -1  730.13   56.19
  -4   8   1  699.93   60.59
   4   8  -1  734.73   49.80
  -4   8   1  762.92   49.20
   4   8  -1  632.54   53.39
   4   8  -1  678.33   49.40
  -2  -8   1 1074.19   74.19
   2  -8  -1 1102.09   78.09
  -2  -8   1 1025.30   70.99
   2  -8  -1 1052.39   70.59
   2  -8  -1 1013.90   72.79
  -2  -8   1 1023.90   76.59
  -2   8   1 1080.19   72.79
   2   8  -1 1059.99   71.19
   2   8  -1  906.51   73.59
  -2   8   1 1113.19   79.59
  -2   8   1 1042.70   70.79
   2   8  -1 1143.79   80.09
   0  -8  -1  548.45   48.70
   0  -8  -1  510.95   42.70
   0  -8   1  586.54   39.60
   0  -8  -1  573.44   39.70
   0  -8   1  646.44   43.40
   0   8   1  567.24   39.80
   0   8  -1  640.14   39.80
   0   8   1  514.05   48.40
   0   8   1  510.55   42.40
   2  -8   1  871.81   54.19
  -2  -8  -1  704.53   57.99
   2  -8   1  967.80   62.49
   2  -8   1  805.22   57.49
  -2  -8  -1  743.53   54.39
  -2   8  -1  878.41   57.69
  -2   8  -1  824.92   54.29
   2   8   1  711.83   57.29
   2   8   1  695.13   54.59
  -4  -8  -1  326.37   34.20
  -4  -8  -1  387.06   43.20
   4  -8   1  415.36   35.90
  -4  -8  -1  391.06   28.60
  -4  -8  -1  315.67   28.10
   4  -8   1  388.36   27.70
   4  -8   1  411.16   32.10
   4   8   1  379.16   28.60
  -4   8  -1  427.56   40.60
   4   8   1  371.46   33.60
   4   8   1  321.47   28.50
  -4   8  -1  411.76   32.70
  -4   8  -1  393.26   27.60
  -6  -8  -1  361.16   32.50
   6  -8   1  472.25   40.10
  -6  -8  -1  339.07   36.70
   6  -8   1  456.55   34.90
  -6  -8  -1  340.47   30.80
   6   8   1  361.86   30.70
  -6   8  -1  441.46   31.30
  -6   8  -1  409.76   36.40
   6   8   1  403.76   42.90
   6   8   1  330.37   31.80
   6   8   1  396.26   41.90
  -6   8  -1  380.46   47.60
  -8  -8  -1   58.59   21.70
  -8  -8  -1  -23.90   25.50
  -8   8  -1   11.00   19.30
  -8   8  -1   20.30   10.70
   8   8   1    4.30   13.80
   8   8   1   13.40   11.70
  -8   8  -1   38.00   21.60
   8   8   1   14.70   19.20
  -8   8  -1   13.50   13.60
 -10  -8  -1  168.38   35.80
 -10   8  -1  183.78   23.10
  10   8   1  217.18   30.10
 -10   8  -1  205.48   35.60
 -10   8  -1  182.68   26.20
 -10   8  -1  208.18   33.00
 -12  -8  -1  231.98   48.40
 -12  -8  -1  231.78   33.10
 -12   8  -1  329.17   36.60
 -12   8  -1  271.47   32.10
 -12   8  -1  213.88   46.20
 -12   8  -1  286.67   49.80
  12   8   1  327.57   36.00
 -11  -9   1  214.58   46.20
 -11  -9   1  167.88   24.20
 -11   9   1  141.79   25.20
  11   9  -1  180.08   26.80
 -11   9   1  217.18   43.10
 -11   9   1  147.79   37.20
  -9  -9   1  192.08   26.50
  -9  -9   1  194.78   37.00
   9   9  -1  207.08   24.20
  -9   9   1  223.18   28.00
  -9   9   1  165.28   33.30
  -9   9   1  198.28   26.00
  -7  -9   1  122.29   27.00
   7  -9  -1   95.89   18.70
   7  -9  -1   97.69   23.50
  -7  -9   1   81.59   16.90
  -7   9   1  108.59   14.10
   7   9  -1   98.09   15.50
  -7   9   1  103.59   19.50
  -7   9   1  118.69   37.20
  -7   9   1  103.19   16.50
  -5  -9   1   17.70   10.10
   5  -9  -1   37.90   16.50
  -5  -9   1   31.60    9.40
  -5  -9   1   23.90   15.90
  -5  -9   1   31.90   21.30
   5  -9  -1   30.20    8.80
   5   9  -1   47.10    9.90
  -5   9   1   39.20    8.30
   5   9  -1   28.50    9.10
  -5   9   1   37.60   26.00
   5   9  -1   10.10   28.20
   5   9  -1   63.89   18.80
   3  -9  -1   25.10   16.70
  -3  -9   1   23.70   19.50
  -3  -9   1   14.20   13.40
   3  -9  -1   28.30    6.10
  -3  -9   1   11.20    6.90
  -3   9   1  -19.70   19.20
   3   9  -1   31.30    7.80
  -3   9   1   20.10   11.20
   3   9  -1   10.40   13.50
  -3   9   1   17.00    6.40
   3   9  -1   -3.40   19.50
   1  -9  -1   -1.00    4.70
  -1  -9   1   14.40    5.70
   1  -9  -1   -4.00   13.80
  -1  -9   1    7.40   11.30
  -1  -9   1   13.90   14.10
   1  -9  -1    3.70   11.10
   1   9  -1   20.90    6.00
  -1   9   1   10.10    5.30
  -1   9   1    9.90   15.90
   1   9  -1    9.00   14.80
  -1   9   1    2.00   10.00
   1   9  -1   -7.40   10.90
   1  -9   1  546.95   37.70
   1  -9   1  515.95   41.70
  -1  -9  -1  476.25   37.80
   1  -9   1  590.44   47.50
  -1  -9  -1  466.05   41.60
  -1  -9  -1  556.64   47.90
  -1   9  -1  565.14   38.10
   1   9   1  557.24   50.69
   1   9   1  543.05   38.50
  -1   9  -1  557.64   42.40
  -1   9  -1  571.14   48.80
   1   9   1  542.65   41.60
   3  -9   1  138.99   14.10
   3  -9   1  132.09   19.90
  -3  -9  -1  113.89   23.40
   3  -9   1  157.68   22.70
  -3  -9  -1  151.38   15.10
  -3  -9  -1  134.49   20.10
   3   9   1  165.08   15.70
  -3   9  -1  169.88   22.10
  -3   9  -1  219.68   33.90
   3   9   1  165.58   21.40
  -3   9  -1  138.09   13.60
  -5  -9  -1  833.32   56.99
  -5  -9  -1  721.73   70.79
   5  -9   1  755.32   64.29
  -5  -9  -1  890.51   64.19
  -5  -9  -1  747.13   57.19
   5  -9   1  748.93   56.09
   5  -9   1  792.02   59.39
   5   9   1  828.02   63.19
  -5   9  -1  861.71   56.19
   5   9   1  834.62   57.39
  -5   9  -1  819.72   60.79
   5   9   1  894.51   57.69
  -5   9  -1  815.22   70.59
   7  -9   1  309.67   39.90
  -7  -9  -1  421.46   43.00
  -7  -9  -1  343.67   31.60
   7  -9   1  363.06   34.20
   7   9   1  308.77   41.20
  -7   9  -1  330.27   28.30
  -7   9  -1  354.46   38.90
   7   9   1  374.56   30.60
  -7   9  -1  346.77   31.00
  -9  -9  -1  214.58   36.10
  -9   9  -1  216.18   30.80
  -9   9  -1  184.48   24.10
   9   9   1  189.88   23.60
   9   9   1  176.28   24.60
  -9   9  -1  214.38   41.70
 -11  -9  -1  267.77   50.09
 -11  -9  -1  326.07   37.30
 -11   9  -1  272.17   35.30
  11   9   1  272.47   34.00
 -11   9  -1  312.87   50.69
 -11   9  -1  300.27   44.70
 -12 -10   1  -10.30   52.49
 -12 -10   1   31.90   23.00
 -12  10   1  -19.60   38.90
 -12  10   1   33.90   27.30
 -12  10   1    1.00   50.39
  12  10  -1   18.30   24.40
 -12  10   1   25.60   24.90
 -10 -10   1   65.89   40.70
 -10  10   1  149.19   31.20
 -10  10   1  145.39   51.09
  10  10  -1   82.49   21.00
 -10  10   1  111.39   20.60
  -8 -10   1   33.10   14.20
  -8 -10   1   14.40   26.00
   8 -10  -1   20.40   24.30
   8  10  -1   62.29   14.30
  -8  10   1    7.70   12.10
  -8  10   1    2.30   22.40
  -6 -10   1   84.89   27.90
   6 -10  -1   -9.20   17.10
  -6  10   1    7.50   12.20
  -6  10   1   36.40   14.80
   6  10  -1   27.40   27.40
  -6  10   1   22.60    8.30
  -6  10   1  -49.50   35.10
   4 -10  -1  221.68   21.20
   4 -10  -1  233.18   31.80
  -4  10   1  295.87   21.50
  -4  10   1  207.08   26.70
  -4  10   1  215.48   34.30
  -2 -10   1   95.69   17.70
   2 -10  -1   88.09   12.70
   2 -10  -1  160.08   25.00
  -2 -10   1  161.68   25.50
  -2 -10   1  100.59   13.90
   2 -10  -1  122.89   17.50
  -2  10   1  117.29   13.10
   2  10  -1  134.19   19.20
  -2  10   1  138.29   26.60
  -2  10   1  136.99   18.20
   2  10  -1   97.39   24.50
   2  10  -1  149.29   14.80
   0 -10  -1  498.65   44.00
   0 -10  -1  371.86   36.80
   0 -10   1  553.74   45.00
   0 -10   1  445.96   37.40
   0 -10   1  470.55   32.50
   0 -10  -1  373.66   32.30
   0  10  -1  446.66   37.80
   0  10   1  366.26   44.50
   0  10   1  430.86   32.90
   0  10  -1  505.95   33.10
   0  10  -1  510.75   45.90
   0  10   1  430.96   37.10
   2 -10   1   36.40   16.90
  -2 -10  -1   83.59   24.00
   2 -10   1   29.00   11.60
  -2 -10  -1   22.20   13.70
   2 -10   1    9.60    6.20
  -2 -10  -1   25.40    7.50
  -2  10  -1    6.40   13.00
   2  10   1   15.80   13.60
   2  10   1  -13.20   19.90
  -2  10  -1   41.90    7.50
   2  10   1   29.80    8.10
  -2  10  -1   13.90   20.10
  -4 -10  -1   62.19   11.10
   4 -10   1   48.30    8.80
  -4 -10  -1   97.29   26.00
   4 -10   1   39.50   12.60
   4 -10   1   46.20   15.90
  -4  10  -1   80.39   26.20
   4  10   1   50.59   16.10
  -4  10  -1   74.19   14.80
   6 -10   1    1.60   17.70
   6 -10   1   22.10   13.90
  -6 -10  -1    8.30   11.60
  -6 -10  -1   33.90   20.70
  -6 -10  -1   88.79   29.40
   6  10   1   21.00   27.00
   6  10   1   31.00   10.80
  -6  10  -1    9.70   16.80
  -6  10  -1    9.00   11.50
   6  10   1   11.40   11.60
  -6  10  -1   21.50    8.60
   8 -10   1   38.70   18.80
  -8 -10  -1   43.90   33.70
   8 -10   1   77.39   26.70
  -8 -10  -1   54.39   26.80
  -8  10  -1   53.89   27.60
  -8  10  -1   51.39   12.70
   8  10   1   16.30   15.90
   8  10   1   39.10   14.50
   8  10   1  -21.70   25.70
 -10 -10  -1   30.20   34.80
 -10  10  -1   11.60   32.60
 -10  10  -1   15.00   16.70
 -10  10  -1  -33.50   38.50
  10  10   1   34.40   18.20
 -12 -10  -1   38.50   25.40
 -12 -10  -1   17.00   49.60
 -12  10  -1   25.20   25.30
  12  10   1   -2.00   24.80
 -12  10  -1   43.40   44.30
 -12  10  -1   -7.60   44.00
 -11 -11   1    6.90   49.90
 -11 -11   1   -1.10   21.30
 -11  11   1    0.50   34.90
  11  11  -1   31.70   22.50
 -11  11   1   23.00   49.70
 -11  11   1    3.20   22.70
  -9 -11   1   38.70   16.50
  -9 -11   1  -11.30   34.50
   9 -11  -1    4.90   29.50
   9  11  -1  -13.80   15.60
  -9  11   1   62.19   31.90
  -9  11   1   23.70   25.30
  -9  11   1  -20.40   15.10
   7 -11  -1    7.60   22.60
  -7 -11   1   34.30   25.70
   7 -11  -1   12.40   16.60
  -7 -11   1  -14.40   11.20
   7  11  -1   12.60   26.40
   7  11  -1   -4.50   11.90
  -7  11   1   15.60   11.00
  -7  11   1   -2.50   18.30
  -5 -11   1    9.90   20.60
  -5 -11   1   -5.60    9.90
   5 -11  -1   12.20   10.60
   5 -11  -1   14.70   17.90
  -5 -11   1    8.30   26.40
   5  11  -1    9.20   11.10
  -5  11   1   30.70   16.90
  -5  11   1    2.90    8.00
   5  11  -1  -27.80   36.90
   3 -11  -1    4.20    8.10
  -3 -11   1   53.69   25.30
  -3 -11   1    6.40    9.70
   3 -11  -1    8.60   19.90
  -3 -11   1    8.20   16.30
   3  11  -1   21.40    8.60
  -3  11   1   70.39   29.50
   3  11  -1  -44.30   26.10
  -3  11   1    9.30    7.00
   3  11  -1   40.30   18.20
  -3  11   1    8.60   13.20
  -1 -11   1   48.30   20.50
   1 -11  -1   38.70   14.90
   1 -11  -1   22.90    7.40
   1 -11  -1   19.90   20.40
  -1 -11   1   40.90   15.00
  -1 -11   1   35.40    8.00
  -1  11   1   38.30   21.70
   1  11  -1   36.70    8.50
  -1  11   1   40.90    8.80
   1  11  -1   44.80   15.40
  -1  11   1   45.30   14.30
   1  11  -1   29.20   19.40
   1 -11   1   41.90   19.30
  -1 -11  -1   52.49   23.50
   1 -11   1   32.70    7.70
  -1 -11  -1   19.30    7.90
   1 -11   1   24.90   13.20
  -1 -11  -1   35.20   14.20
   1  11   1  -13.00   13.00
   1  11   1   -6.50   22.00
  -1  11  -1   49.40    8.50
  -1  11  -1   53.79   14.00
   1  11   1   23.30    8.30
  -1  11  -1   28.80   21.30
  -3 -11  -1  154.58   31.00
  -3 -11  -1  120.09   21.60
   3 -11   1  160.28   27.80
   3 -11   1  149.59   20.00
  -3 -11  -1   91.39   14.50
   3 -11   1  124.39   14.70
   3  11   1  185.28   17.00
  -3  11  -1  102.29   19.80
   3  11   1   93.79   19.20
  -3  11  -1  129.49   30.10
  -3  11  -1  154.48   14.90
   5 -11   1  237.68   28.50
   5 -11   1  211.98   34.20
   5 -11   1  239.48   22.20
  -5  11  -1  240.58   21.10
  -5  11  -1  187.28   25.40
  -7 -11  -1   98.79   38.80
   7 -11   1   39.80   19.30
  -7 -11  -1   18.10   25.00
   7 -11   1   31.60   21.90
   7  11   1   42.90   13.60
   7  11   1    4.80   28.10
  -7  11  -1   31.90   11.00
   7  11   1   29.10   15.00
  -7  11  -1   61.79   22.20
  -9 -11  -1   72.49   35.00
  -9 -11  -1   89.39   49.40
   9  11   1   94.19   18.40
  -9  11  -1   43.50   34.70
  -9  11  -1   30.00   16.50
 -11 -11  -1   90.89   50.09
 -11 -11  -1   63.39   24.50
 -11  11  -1   57.29   41.60
 -11  11  -1  188.88   42.20
  11  11   1   69.99   23.90
 -11  11  -1   99.79   24.20
 -10 -12   1   35.40   44.90
 -10 -12   1  -12.30   19.30
 -10  12   1   24.00   19.40
 -10  12   1   -5.10   33.20
  10  12  -1   46.90   22.10
 -10  12   1  -20.90   47.40
  -8 -12   1   67.19   35.90
   8 -12  -1   60.59   29.00
  -8 -12   1   92.29   17.60
  -8  12   1   59.39   16.30
   8  12  -1   83.09   17.70
  -6 -12   1  513.45   38.00
  -6 -12   1  393.86   58.29
   6  12  -1  541.55   40.30
   6  12  -1  601.14   84.99
  -6  12   1  440.36   38.30
  -6  12   1  420.26   45.80
  -4 -12   1   32.50   19.60
  -4 -12   1   73.79   29.60
   4 -12  -1    2.60   10.80
   4 -12  -1   20.70   18.80
   4  12  -1   -7.30   22.10
   4  12  -1  -27.70   35.30
  -4  12   1    6.70    8.30
   2 -12  -1  324.07   43.40
  -2 -12   1  316.07   26.30
  -2 -12   1  359.56   35.20
   2 -12  -1  263.17   30.90
   2  12  -1  353.66   35.70
  -2  12   1  272.57   25.20
  -2  12   1  243.18   40.90
   0 -12  -1  128.39   28.30
   0 -12   1  200.68   30.30
   0 -12   1  163.98   17.20
   0 -12  -1  104.59   16.30
   0 -12  -1  170.48   23.10
   0 -12   1  181.08   26.20
   0  12  -1  138.49   21.60
   0  12   1  110.79   28.10
   0  12  -1  124.89   31.00
   0  12  -1  176.18   16.90
   0  12   1  139.19   21.00
  -2 -12  -1   28.40   17.30
  -2 -12  -1   91.89   28.00
  -2 -12  -1   31.60   11.00
   2 -12   1   69.39   15.90
   2 -12   1   82.69   22.30
   2  12   1    5.60   28.30
  -2  12  -1   61.99    9.50
   2  12   1   18.30   18.10
  -2  12  -1   80.79   18.20
  -2  12  -1   89.69   33.40
  -4 -12  -1  155.38   26.80
   4 -12   1  131.29   21.40
   4 -12   1   93.99   14.40
  -4 -12  -1  141.79   38.70
   4 -12   1   93.29   24.70
  -4  12  -1  169.88   22.50
  -4  12  -1  137.79   16.30
   4  12   1  173.38   21.20
   4  12   1  125.09   26.80
  -6 -12  -1  100.59   30.80
  -6 -12  -1   59.39   15.40
   6 -12   1   95.89   19.80
  -6 -12  -1   69.19   42.40
   6 -12   1  100.09   26.20
  -6  12  -1  141.59   18.50
   6  12   1   87.89   17.20
   6  12   1   46.00   16.40
  -6  12  -1   62.29   22.30
  -8 -12  -1  -38.10   31.80
   8 -12   1   42.30   21.40
  -8 -12  -1   47.10   47.80
   8 -12   1   37.00   28.10
   8  12   1   44.30   17.00
   8  12   1    7.70   31.90
   8  12   1   49.90   20.00
  -8  12  -1    2.10   13.20
 -10 -12  -1  -59.39   43.20
 -10 -12  -1   -4.90   21.20
  10  12   1   22.60   21.70
 -10  12  -1   48.90   47.00
 -10  12  -1   20.20   37.00
 -10  12  -1   37.10   19.80
  -9 -13   1  243.18   31.50
  -9 -13   1  172.68   47.10
   9 -13  -1  242.28   45.00
  -9  13   1  192.18   26.70
   9  13  -1  203.28   28.00
  -9  13   1  171.88   34.50
  -7 -13   1  167.58   23.10
  -7 -13   1  164.98   38.50
   7 -13  -1  160.78   34.70
   7  13  -1  159.18   22.70
   7  13  -1  147.19   44.70
  -7  13   1  165.68   22.80
   5 -13  -1   61.19   28.00
  -5 -13   1   52.29   40.50
  -5 -13   1   62.99   24.40
   5  13  -1  -55.19   51.29
  -5  13   1   25.90   21.20
  -5  13   1   45.50   12.50
   5  13  -1   76.39   15.80
  -3 -13   1   43.40   20.20
   3 -13  -1   57.69   27.10
   3 -13  -1   29.40   17.20
  -3 -13   1   40.30   28.10
  -3  13   1   47.30   10.90
   3  13  -1   22.40   25.70
   3  13  -1   47.70   13.00
  -3  13   1   30.80   17.80
   3  13  -1  -12.20   41.00
  -1 -13   1  251.77   41.30
   1 -13  -1  139.29   22.60
   1 -13  -1  121.29   17.30
  -1 -13   1  153.58   25.00
   1 -13  -1  169.18   33.40
  -1 -13   1  174.78   19.80
   1  13  -1   95.09   32.00
  -1  13   1  124.19   23.30
  -1  13   1  138.89   18.80
   1  13  -1  118.69   23.80
   1  13  -1  164.68   19.30
  -1 -13  -1   54.29   19.60
   1 -13   1   94.29   26.80
  -1 -13  -1   70.59   27.60
   1 -13   1  129.29   21.00
   1 -13   1   47.10   11.30
   1  13   1   74.69   12.50
  -1  13  -1   85.49   12.20
   1  13   1   13.80   19.00
   1  13   1   16.90   35.40
  -1  13  -1   65.69   19.50
  -3 -13  -1  161.38   28.90
   3 -13   1  148.69   20.10
   3 -13   1  135.09   28.10
   3 -13   1  155.58   23.30
  -3  13  -1  136.09   18.10
   3  13   1  111.59   25.90
   3  13   1  167.18   21.70
  -3  13  -1  164.38   23.70
   5 -13   1  879.51   76.79
  -5 -13  -1  863.31   78.59
   5 -13   1  958.80   69.39
   5  13   1  866.81   65.59
  -5  13  -1  861.11   72.49
  -5  13  -1  950.70   64.99
   7 -13   1  188.48   38.50
   7 -13   1  207.68   29.20
  -7 -13  -1  262.07   41.70
  -7 -13  -1  147.99   54.19
   7  13   1  198.08   24.70
   7  13   1  191.78   25.10
  -7  13  -1  217.78   36.00
  -7  13  -1  213.68   28.10
  -9 -13  -1  149.88   43.70
   9 -13   1   99.89   40.50
  -9 -13  -1  119.09   69.59
  -9 -13  -1  177.28   27.00
  -9  13  -1  177.88   25.10
   9  13   1  200.78   27.00
 -10 -14   1   79.49   29.00
 -10 -14   1   85.49   55.79
 -10  14   1  115.39   26.60
  10  14  -1   62.39   26.40
   8 -14  -1  110.69   40.60
  -8 -14   1  125.69   46.10
  -8  14   1  160.78   25.70
   8  14  -1  142.69   24.10
   6 -14  -1  324.57   54.09
  -6 -14   1  531.25   68.59
  -6 -14   1  462.45   58.09
  -6  14   1  470.25   39.00
   6  14  -1  353.16   38.90
  -4 -14   1  586.84   72.79
   4 -14  -1  610.24   62.99
  -4 -14   1  639.04   62.49
   4  14  -1  691.73   49.40
  -4  14   1  588.94   48.00
  -2 -14   1  279.17   40.60
   2 -14  -1  288.47   42.50
   2 -14  -1  234.68   29.90
  -2 -14   1  315.67   50.89
   2  14  -1  249.28   28.80
  -2  14   1  239.58   35.70
  -2  14   1  250.97   25.70
   0 -14  -1  772.22   64.89
   0 -14   1  890.61   77.69
   0 -14   1  917.71   67.49
   0 -14  -1  762.42   78.99
   0  14   1  745.83   64.19
   0  14  -1  798.62   68.49
   0  14   1  775.82   58.89
   0  14  -1  837.02   58.89
  -2 -14  -1  495.35   53.19
  -2 -14  -1  532.55   67.69
   2 -14   1  547.95   47.50
   2 -14   1  531.95   58.39
  -2  14  -1  554.94   51.19
  -2  14  -1  503.35   40.60
   2  14   1  478.05   50.89
   2  14   1  469.85   40.90
  -4 -14  -1   44.90   29.80
   4 -14   1   15.40   24.40
  -4 -14  -1   82.39   41.70
   4 -14   1   42.20   20.40
  -4  14  -1   22.60   12.50
  -4  14  -1   87.19   23.00
   4  14   1   38.60   14.10
  -6 -14  -1  -24.90   31.00
  -6 -14  -1   31.80   53.49
   6 -14   1   22.20   20.80
   6 -14   1   22.00   26.60
  -6  14  -1   13.90   30.60
   6  14   1  -10.20   16.00
  -6  14  -1   -5.00   14.10
   6  14   1    7.40   15.00
   8 -14   1   62.39   28.20
  -8 -14  -1   29.80   76.49
  -8 -14  -1   42.70   40.50
  -8 -14  -1   59.29   22.10
   8 -14   1   25.70   30.70
   8  14   1   54.79   19.70
  -8  14  -1   73.79   21.60
 -10 -14  -1  251.67   33.40
 -10 -14  -1  179.88   59.09
 -10  14  -1  268.37   47.90
 -10  14  -1  313.07   72.69
 -10  14  -1  230.68   35.00
  10  14   1  197.08   31.70
  -9 -15   1  194.08   83.79
  -9 -15   1  287.87   38.70
   9 -15  -1  308.67   51.79
  -9 -15   1  387.66   59.59
  -9  15   1  333.67   46.30
   9  15  -1  231.68   34.60
  -7 -15   1  303.17   48.30
   7 -15  -1  315.27   51.49
  -7 -15   1  267.17   70.89
  -7  15   1  357.56   38.30
   7  15  -1  261.17   38.10
  -5 -15   1   74.89   34.00
   5 -15  -1   92.39   32.80
  -5 -15   1   26.80   46.30
  -5  15   1   97.09   18.30
   5  15  -1   91.19   19.90
   3 -15  -1  626.74   53.09
  -3 -15   1  475.45   79.09
   3 -15  -1  597.24   66.69
  -3 -15   1  606.64   63.19
  -3  15   1  563.34   54.59
   3  15  -1  623.34   48.30
  -3  15   1  538.75   46.10
  -1 -15   1  127.29   37.70
  -1 -15   1  104.49   28.80
   1 -15  -1   58.89   32.90
   1 -15  -1   31.50   22.80
   1  15  -1   65.29   15.00
  -1  15   1   61.29   14.90
  -1  15   1   54.99   23.70
   1 -15   1  436.16   47.00
  -1 -15  -1  400.36   66.39
   1 -15   1  403.26   58.79
  -1 -15  -1  470.65   50.29
   1  15   1  456.55   39.00
  -1  15  -1  370.56   53.59
   1  15   1  450.65   53.39
  -1  15  -1  463.45   37.10
   3 -15   1  327.77   40.70
  -3 -15  -1  346.77   55.29
  -3 -15  -1  301.07   46.90
   3 -15   1  338.87   48.90
  -3  15  -1  335.27   47.50
  -3  15  -1  297.87   31.60
   3  15   1  303.07   34.90
  -5 -15  -1  304.07   63.49
  -5 -15  -1  181.38   37.50
   5 -15   1  182.58   37.20
  -5  15  -1  210.28   29.00
   5  15   1  247.18   31.00
  -5  15  -1  230.38   38.20
  -7 -15  -1  948.41   74.29
  -7 -15  -1  758.42  124.79
  -7 -15  -1  813.12   95.39
   7 -15   1  973.00   94.69
   7 -15   1 1119.39   79.89
  -7  15  -1 1146.09   75.69
   7  15   1  880.11   74.29
  -9 -15  -1  308.97   44.60
   9 -15   1  436.06   72.39
   9 -15   1  435.36   56.79
  -9 -15  -1  374.36   65.39
   9  15   1  302.37   39.30
  -9  15  -1  458.25   50.29
  -8 -16   1  298.27   80.69
   8 -16  -1  318.97   57.79
  -8 -16   1  290.17   35.50
  -8 -16   1  235.38   52.69
   8  16  -1  253.17   33.50
  -8  16   1  304.27   36.20
  -6 -16   1  794.82   83.49
   6 -16  -1  851.11   83.59
  -6 -16   1  619.34  112.89
   6  16  -1  739.93   65.99
  -6  16   1  959.20   65.59
  -4 -16   1  769.72  106.99
   4 -16  -1 1024.50   86.99
  -4 -16   1  926.41   86.39
   4  16  -1  896.81   70.09
  -4  16   1  922.71   69.39
   2 -16  -1  670.43   79.39
   2 -16  -1  687.03   60.59
  -2 -16   1  665.43   78.69
  -2 -16   1  560.94   65.79
   2  16  -1  672.73   54.19
  -2  16   1  775.02   54.59
  -2  16   1  502.95   67.19
   0 -16   1  784.42   69.49
   0 -16   1  659.73   77.89
   0 -16  -1  745.83   83.59
   0 -16  -1  725.83   68.79
   0  16   1  658.93   56.19
   0  16  -1  794.52   56.99
   0  16   1  666.83   68.39
   2 -16   1  286.77   38.10
  -2 -16  -1  313.97   55.89
  -2 -16  -1  336.57   41.70
   2 -16   1  298.97   46.80
   2  16   1  261.67   33.70
  -2  16  -1  286.57   32.00
  -4 -16  -1  308.87   45.00
   4 -16   1  302.77   39.60
  -4 -16  -1  315.87   67.59
   4 -16   1  348.77   50.79
  -4  16  -1  310.87   33.40
   4  16   1  272.97   36.90
  -6 -16  -1    6.60   36.70
   6 -16   1   16.50   26.50
  -6 -16  -1   22.70   76.89
   6 -16   1   35.90   32.90
   6  16   1  -22.50   19.80
  -6  16  -1   36.70   19.40
   8 -16   1   44.00   38.10
  -8 -16  -1   29.10   22.50
   8 -16   1    6.90   35.20
  -8 -16  -1   35.20   45.40
   8  16   1   68.39   23.90
  -8  16  -1   74.29   26.40
  -7 -17   1  247.88   94.29
  -7 -17   1  212.28   51.29
   7 -17  -1  291.27   53.99
   7  17  -1  281.57   35.80
  -7  17   1  390.26   43.40
  -5 -17   1   58.99   58.99
   5 -17  -1   -2.40   34.30
  -5 -17   1   11.80   36.80
  -5  17   1   24.70   21.50
   5  17  -1   22.30   23.70
   3 -17  -1  197.58   44.00
  -3 -17   1  158.58   49.99
  -3 -17   1  162.08   37.50
  -3  17   1  199.48   26.90
   3  17  -1  190.68   26.40
  -3  17   1  132.09   41.30
   1 -17  -1  373.26   56.89
  -1 -17   1  350.76   56.59
   1 -17  -1  318.87   48.40
  -1 -17   1  412.66   48.40
   1  17  -1  269.57   34.00
  -1  17   1  231.28   32.90
   1 -17   1  312.67   43.00
  -1 -17  -1  298.47   54.89
  -1 -17  -1  379.86   53.79
   1 -17   1  312.97   50.99
   1  17   1  261.87   34.00
  -1  17  -1  308.47   35.40
   3 -17   1  328.97   51.39
   3 -17   1  309.77   47.50
  -3 -17  -1  315.97   82.29
  -3 -17  -1  286.27   45.90
  -3  17  -1  383.26   37.90
   3  17   1  286.67   39.00
   5 -17   1 1341.37  109.69
   5 -17   1 1346.37   98.89
  -5 -17  -1  953.10  148.79
  -5 -17  -1 1200.88  106.79
   5  17   1 1198.08   94.49
  -5  17  -1 1325.17   94.29
  -7 -17  -1  331.57   93.09
   7 -17   1  508.75   74.69
  -7 -17  -1  319.37   58.29
  -7  17  -1  393.36   49.20
   7  17   1  351.46   46.10
  -6 -18   1  198.98   50.59
   6 -18  -1  146.99   46.30
  -6 -18   1  255.07   76.49
  -6  18   1  272.27   34.40
   6  18  -1  245.18   34.10
   4 -18  -1  512.95   75.39
  -4 -18   1  480.85   61.89
  -4 -18   1  462.45   79.99
   4  18  -1  433.06   55.49
  -4  18   1  491.95   50.69
   2 -18  -1  833.52   78.39
  -2 -18   1 1072.59  103.79
   2 -18  -1  968.40   98.49
  -2 -18   1  865.51   87.59
  -2  18   1  839.72   70.89
   2  18  -1  871.81   74.39
   0 -18   1  407.46   63.69
   0 -18  -1  374.66   66.59
   0 -18  -1  396.66   57.59
   0 -18   1  314.07   47.30
   0  18  -1  331.07   37.00
   0  18   1  276.87   40.00
   2 -18   1  280.77   52.29
  -2 -18  -1  201.78   54.69
  -2 -18  -1  214.58   43.00
   2 -18   1  278.47   41.70
   2  18   1  223.58   31.60
  -2  18  -1  270.57   30.70
  -4 -18  -1  110.19   67.89
   4 -18   1  192.68   37.80
   4 -18   1  197.58   49.00
  -4 -18  -1  168.48   43.60
  -4  18  -1  247.78   32.20
   4  18   1  184.38   29.30
   6 -18   1   51.59   35.40
  -6 -18  -1 -107.69  115.49
   6 -18   1   16.10   40.10
  -6 -18  -1   74.39   42.60
   6  18   1   71.89   27.00
  -6  18  -1   76.39   29.10
   5 -19  -1  206.68   53.79
  -5 -19   1  165.98   54.59
  -5 -19   1   62.79  108.19
  -5  19   1  247.28   35.20
   5  19  -1  148.39   37.10
  -3 -19   1   71.19   58.39
   3 -19  -1   41.10   43.00
  -3 -19   1   25.60   41.60
  -3  19   1   54.19   22.20
   3  19  -1   79.89   26.60
   1 -19  -1  -78.99   50.49
   1 -19  -1   31.50   37.20
  -1 -19   1   60.49   46.10
  -1 -19   1   63.39   48.90
   1  19  -1   21.10   23.50
  -1  19   1  -13.40   19.30
  -1 -19  -1  224.48   51.09
   1 -19   1  210.68   42.70
  -1 -19  -1  160.08   53.79
   1 -19   1  137.79   50.99
  -1  19  -1  228.38   31.20
   1  19   1  189.08   30.60
  -3 -19  -1  414.46   90.39
  -3 -19  -1  390.56   59.29
   3 -19   1  521.55   66.39
   3 -19   1  525.95   80.69
   3  19   1  533.85   53.59
  -3  19  -1  521.75   52.89
   5 -19   1  193.78   53.19
  -5 -19  -1  237.08  125.49
  -5 -19  -1  275.57   54.19
  -5  19  -1  327.07   40.60
   5  19   1  309.47   39.60
   4 -20  -1  545.05   94.79
  -4 -20   1  678.93  119.79
  -4 -20   1  700.23   85.99
   4  20  -1  710.23   68.49
  -4  20   1  746.53   66.49
   2 -20  -1   -4.30   41.10
   2 -20  -1   73.39   53.19
  -2 -20   1  155.08   51.89
  -2 -20   1   95.29   63.39
   2  20  -1   28.60   26.40
  -2  20   1   60.49   26.00
   0 -20  -1  231.88   68.59
   0 -20   1  345.67   64.39
   0 -20   1  311.17   52.79
   0 -20  -1  219.68   51.59
   0  20  -1  279.07   36.60
   0  20   1  247.08   35.80
  -2 -20  -1  294.87   52.69
   2 -20   1  150.78   54.49
   2 -20   1  164.98   47.00
  -2 -20  -1  158.98   65.89
  -2  20  -1  166.08   34.40
   2  20   1  188.18   33.50
  -4 -20  -1   21.20   45.50
  -4 -20  -1  -33.20  109.69
   4 -20   1   25.50   45.70
  -4  20  -1  -21.30   29.30
   4  20   1   36.20   28.80
   1 -21  -1   68.09   59.19
  -1 -21   1  108.39   79.49
   1 -21   1   11.70   52.89
  -1 -21  -1   -6.40   71.19
 -12   0   2  163.08   38.90
  12   0  -2  186.78   27.40
 -12   0   2  168.28   25.20
 -10   0   2  534.85   42.30
  10   0  -2  508.05   43.20
 -10   0   2  512.45   50.69
  -8   0   2 1564.44  106.99
  -8   0   2 1467.25  104.09
  -8   0   2 1547.15  103.49
   8   0  -2 1534.05  103.49
  -8   0   2 1520.95  103.09
  -8   0   2 1499.85  107.19
   6   0  -2   49.50    8.30
  -6   0   2   46.00    8.30
  -6   0   2   55.79    8.30
  -6   0   2   47.20   12.00
  -6   0   2   45.00    8.80
   6   0  -2   77.09   15.60
  -4   0   2 3995.70  258.27
   4   0  -2 4333.47  259.47
  -4   0   2 3911.71  259.37
   4   0  -2 3714.43  258.07
  -4   0   2 3766.42  258.07
   2   0  -2 3352.56  249.18
  -2   0   2 3729.03  249.28
  -2   0   2 3776.72  249.28
   2   0  -2 4184.68  249.88
  -2   0   2 4270.07  249.97
   2   0  -2 3614.64  249.18
  -2   0  -2 2894.81  187.88
  -2   0  -2 2681.33  186.28
   2   0   2 2854.61  186.38
   2   0   2 3211.78  187.48
   2   0   2 2833.22  187.58
  -2   0  -2 2636.54  187.18
  -4   0  -2  283.77   24.40
  -4   0  -2  296.67   20.10
   4   0   2  240.58   20.50
   4   0   2  281.67   23.30
  -4   0  -2  318.87   23.70
  -6   0  -2  583.04   39.20
  -6   0  -2  519.35   43.50
  -6   0  -2  599.94   45.50
   6   0   2  526.55   40.40
   6   0   2  554.44   39.60
  -6   0  -2  547.95   40.60
   6   0   2  589.84   44.50
  -6   0  -2  565.34   43.30
   8   0   2 1151.18   77.79
   8   0   2 1178.58   76.59
  -8   0  -2 1102.99   80.99
  -8   0  -2 1065.29   82.79
  -8   0  -2 1049.59   77.69
  -8   0  -2 1201.28   84.19
  -8   0  -2 1054.59   75.79
  -8   0  -2 1083.09   81.49
  10   0   2  969.80   71.49
 -10   0  -2 1040.50   80.99
 -10   0  -2  994.50   83.49
 -10   0  -2  998.80   80.19
 -12   0  -2  428.76   43.10
 -12   0  -2  467.25   65.09
  12   0   2  413.96   43.00
  13  -1  -2  471.75   50.09
 -13  -1   2  424.66   65.79
 -13  -1   2  426.56   48.30
  13   1  -2  515.15   50.49
 -13   1   2  456.95   59.39
 -13   1   2  520.75   50.59
 -11  -1   2  485.25   42.40
  11  -1  -2  474.35   43.30
 -11  -1   2  522.05   55.39
  11   1  -2  492.85   43.70
 -11   1   2  393.06   54.29
 -11   1   2  542.65   43.10
  -9  -1   2  148.39   20.00
   9  -1  -2  146.09   20.10
  -9  -1   2  155.78   25.40
  -9   1   2  153.58   26.70
  -9   1   2  135.99   19.30
  -9   1   2  200.58   25.20
   9   1  -2  182.08   20.30
  -9   1   2  186.38   22.40
   7  -1  -2   -2.10    7.30
  -7  -1   2   36.40   13.40
  -7  -1   2    5.80    7.40
  -7  -1   2   15.10    6.90
  -7  -1   2   18.90    8.90
  -7   1   2   -2.30    8.00
  -7   1   2   -5.80    5.70
  -7   1   2   11.90    7.00
  -7   1   2   -9.30   12.10
   7   1  -2   15.70    7.00
  -7   1   2   -6.90   11.00
   7   1  -2   50.09   17.80
   5  -1  -2  241.38   23.00
  -5  -1   2  215.58   17.90
  -5  -1   2  220.18   17.80
   5  -1  -2  197.98   18.00
  -5  -1   2  233.88   21.90
  -5  -1   2  228.48   19.20
   5   1  -2  295.17   23.50
  -5   1   2  217.58   18.00
  -5   1   2  225.68   17.60
  -5   1   2  210.18   18.30
   5   1  -2  212.08   17.90
  -5   1   2  235.28   21.20
   3  -1  -2  125.39   11.70
  -3  -1   2  117.59    9.20
   3  -1  -2  103.69    9.80
  -3  -1   2   99.69   12.20
  -3  -1   2  110.29    9.60
  -3  -1   2   98.39    9.80
   3   1  -2   88.39    9.60
   3   1  -2  103.29   12.10
  -3   1   2  130.19   11.80
  -3   1   2  113.19    9.50
  -3   1   2  114.59    9.30
   1  -1  -2 1833.82  120.59
  -1  -1  -2 3072.89  218.38
  -1  -1  -2 3285.37  218.08
   1  -1   2 3426.16  217.98
   1  -1   2 3085.49  218.78
   1   1   2 3533.15  219.78
  -1   1  -2 3682.93  217.98
   1   1   2 3397.66  217.88
  -1   1  -2 3272.47  218.78
   3  -1   2 3954.00  253.67
  -3  -1  -2 3679.13  254.67
   3  -1   2 3436.76  253.37
  -3  -1  -2 3693.03  252.37
   3  -1   2 4389.16  252.57
  -3  -1  -2 4128.39  253.47
  -3  -1  -2 3794.72  251.87
  -3   1  -2 3769.22  253.47
   3   1   2 3632.44  252.37
   3   1   2 3713.93  253.97
   3   1   2 3833.02  251.97
  -3   1  -2 4310.17  252.37
   3   1   2 3838.02  253.27
   5  -1   2 1725.83  121.09
  -5  -1  -2 1746.73  125.09
  -5  -1  -2 1808.62  124.09
  -5  -1  -2 1793.22  123.59
  -5  -1  -2 1836.72  121.09
   5  -1   2 2010.20  122.09
  -5  -1  -2 1824.52  121.89
  -5   1  -2 1773.82  124.29
  -5   1  -2 1846.92  123.29
   5   1   2 1796.22  123.69
   5   1   2 1834.12  121.99
  -5   1  -2 1999.20  121.89
  -5   1  -2 1727.33  120.99
   5   1   2 1862.31  121.39
  -5   1  -2 1901.91  123.99
  -5   1  -2 1840.92  124.59
  -7  -1  -2  716.83   54.89
  -7  -1  -2  737.33   58.89
  -7  -1  -2  723.93   57.99
   7  -1   2  770.02   53.89
  -7  -1  -2  746.63   61.29
  -7  -1  -2  779.82   53.69
   7  -1   2  746.83   54.79
   7   1   2  828.92   55.49
  -7   1  -2  749.42   58.09
  -7   1  -2  800.52   55.09
   7   1   2  779.42   59.49
  -7   1  -2  733.93   58.39
  -7   1  -2  800.12   57.89
  -7   1  -2  783.52   53.89
   7   1   2  847.12   54.19
  -7   1  -2  818.42   59.79
   9  -1   2  510.95   41.60
  -9  -1  -2  544.65   40.70
   9  -1   2  476.15   39.50
  -9  -1  -2  539.35   49.80
  -9  -1  -2  534.65   46.50
  -9  -1  -2  510.25   50.89
  -9   1  -2  503.45   47.20
  -9   1  -2  480.95   51.29
   9   1   2  554.04   42.60
  -9   1  -2  527.05   39.20
   9   1   2  492.35   40.40
  -9   1  -2  541.15   48.70
  11  -1   2   17.00   16.30
 -11  -1  -2   14.20   15.40
 -11  -1  -2   55.19   28.50
 -11  -1  -2   68.79   29.10
 -11  -1  -2    5.10   32.00
 -11   1  -2   46.40   31.90
 -11   1  -2   38.90   27.50
 -11   1  -2   27.40   16.40
  11   1   2   28.90   16.20
 -11   1  -2   42.80   29.00
 -13  -1  -2  -26.90   23.00
 -13  -1  -2   10.00   40.20
  13  -1   2   -1.10   22.30
 -13   1  -2   43.20   22.10
 -13   1  -2  -11.50   44.00
 -13   1  -2   46.10   41.50
  13   1   2  -11.00   22.50
 -12  -2   2  390.46   43.10
 -12  -2   2  413.36   58.89
  12  -2  -2  531.55   44.70
 -12   2   2  408.56   43.20
  12   2  -2  414.96   43.90
 -12   2   2  468.25   62.19
  10  -2  -2  230.48   28.80
 -10  -2   2  264.17   27.30
 -10  -2   2  285.37   41.40
 -10   2   2  291.87   40.20
 -10   2   2  302.77   28.90
  10   2  -2  261.77   28.60
  -8  -2   2  912.41   61.99
  -8  -2   2  853.61   66.89
  -8  -2   2  842.92   62.09
   8  -2  -2  867.11   61.99
  -8  -2   2  852.21   63.69
  -8   2   2  861.91   66.19
   8   2  -2  880.71   61.99
  -8   2   2  913.11   62.89
  -8   2   2  857.31   62.09
   8   2  -2  856.81   70.29
  -8   2   2  924.51   65.49
  -8   2   2  897.31   61.89
  -8   2   2  867.61   65.49
  -8   2   2  910.71   66.49
  -6  -2   2 2378.76  162.38
  -6  -2   2 2475.05  162.88
   6  -2  -2 2250.07  162.38
  -6  -2   2 2713.73  162.78
  -6  -2   2 2336.87  165.08
  -6   2   2 2213.88  164.38
  -6   2   2 2578.14  164.08
  -6   2   2 2715.03  162.78
  -6   2   2 2404.96  162.48
   6   2  -2 2366.56  162.48
   6   2  -2 2646.44  165.18
  -6   2   2 2324.57  162.08
  -6   2   2 2514.45  164.48
  -4  -2   2 1383.06   97.59
  -4  -2   2 1400.96   97.79
  -4  -2   2 1484.95   99.89
  -4  -2   2 1596.14   97.89
   4  -2  -2 1419.56   97.79
  -4   2   2 1365.56   99.39
  -4   2   2 1533.55   97.69
  -4   2   2 1578.74   98.69
  -4   2   2 1441.66   97.49
   4   2  -2 1585.44   99.69
  -4   2   2 1513.55   98.59
   4   2  -2 1424.96   97.69
  -4   2   2 1417.16   97.69
  -2  -2   2 3099.19  193.58
  -2  -2   2 2971.10  194.78
  -2  -2   2 2947.71  193.48
   2  -2  -2 3044.50  194.98
   2  -2  -2 2833.72  193.28
  -2  -2   2 2986.70  193.48
   2   2  -2 2905.01  194.58
  -2   2   2 2985.10  193.68
  -2   2   2 2857.21  193.38
  -2   2   2 3078.49  194.98
   2   2  -2 2855.21  193.48
   0  -2  -2  205.28   16.80
   0   2   2  205.98   14.10
   2  -2   2  324.27   23.20
  -2  -2  -2  305.27   21.60
  -2  -2  -2  288.67   21.90
  -2  -2  -2  301.17   23.30
   2   2   2  305.57   21.70
   2   2   2  347.47   23.50
  -2   2  -2  344.37   23.20
   2   2   2  323.87   24.50
   2   2   2  307.47   22.00
  -2   2  -2  321.77   23.90
  -4  -2  -2   48.70    6.50
  -4  -2  -2   32.40   11.40
  -4  -2  -2   62.39   10.10
   4   2   2   34.20    5.80
  -4   2  -2   36.70    8.50
   4   2   2   46.60   11.00
   4   2   2   27.70    8.50
  -6  -2  -2  788.52   55.69
  -6  -2  -2  830.82   57.09
  -6  -2  -2  757.42   61.89
   6  -2   2  775.32   55.79
  -6  -2  -2  781.42   59.79
   6  -2   2  858.71   56.89
   6   2   2  771.62   57.09
  -6   2  -2  813.02   56.49
  -6   2  -2  848.72   59.79
   6   2   2  829.22   56.09
  -6   2  -2  775.72   59.89
  -6   2  -2  926.51   56.09
   6   2   2  826.42   59.99
   6   2   2  823.92   60.69
  -6   2  -2  754.52   60.09
  -6   2  -2  880.31   59.39
   8  -2   2  572.14   39.10
  -8  -2  -2  436.16   47.00
  -8  -2  -2  430.76   47.20
  -8  -2  -2  441.06   43.30
   8  -2   2  515.25   37.50
  -8  -2  -2  445.36   36.80
  -8   2  -2  541.65   44.30
  -8   2  -2  550.34   37.40
   8   2   2  442.76   38.70
   8   2   2  464.75   46.10
  -8   2  -2  519.85   43.40
   8   2   2  482.75   37.90
  -8   2  -2  477.25   38.90
  -8   2  -2  519.65   45.30
  -8   2  -2  554.24   44.50
 -10  -2  -2  615.34   57.79
  10  -2   2  624.64   51.49
 -10  -2  -2  652.53   65.89
 -10  -2  -2  729.63   63.99
  10   2   2  614.64   53.79
 -10   2  -2  795.32   65.39
  10   2   2  714.23   52.39
 -10   2  -2  750.22   52.79
 -10   2  -2  676.83   62.09
 -10   2  -2  682.33   64.69
 -12  -2  -2  623.74   60.19
  12  -2   2  733.93   56.79
 -12  -2  -2  755.42   74.69
 -12   2  -2  716.93   58.29
  12   2   2  676.73   57.69
 -12   2  -2  665.93   75.19
 -12   2  -2  696.13   78.19
 -13  -3   2  278.57   34.00
 -13  -3   2  154.38   48.70
 -13   3   2  316.27   37.00
 -13   3   2  250.97   47.30
 -13   3   2  345.27   42.10
  13   3  -2  295.47   36.20
 -11  -3   2  102.29   32.20
 -11  -3   2   80.19   18.80
 -11   3   2  139.49   19.70
 -11   3   2   88.19   29.30
 -11   3   2  101.19   30.90
  11   3  -2  104.79   20.50
  -9  -3   2  230.38   33.00
  -9  -3   2  199.48   23.20
   9  -3  -2  202.58   22.90
  -9   3   2  251.57   35.20
  -9   3   2  196.68   27.50
  -9   3   2  230.98   23.10
  -9   3   2  220.78   34.20
  -9   3   2  233.68   32.20
   9   3  -2  185.68   23.80
  -7  -3   2   92.09   12.60
  -7  -3   2   99.59   18.60
  -7  -3   2   82.69   12.90
  -7  -3   2   80.59   12.20
   7  -3  -2  103.19   12.80
  -7   3   2   95.29   13.20
  -7   3   2  102.59   19.70
  -7   3   2  135.59   18.50
   7   3  -2  104.39   19.40
  -7   3   2  139.49   16.70
   7   3  -2  113.89   14.40
  -7   3   2   97.49   16.00
  -7   3   2  100.09   12.70
  -7   3   2  116.89   13.40
  -5  -3   2   91.49   12.30
  -5  -3   2   79.09   10.80
   5  -3  -2   87.09   13.40
   5   3  -2   85.89   14.40
  -5   3   2   76.69   10.30
  -5   3   2  107.39   15.20
  -5   3   2  108.89   16.20
  -5   3   2   85.79   12.10
  -5   3   2   77.69   11.30
  -5   3   2   94.39   10.70
   5   3  -2  120.29   11.10
  -3  -3   2   62.39    8.40
   3  -3  -2   89.09    7.50
  -3  -3   2   76.59    8.90
  -3  -3   2   98.19   12.00
  -3  -3   2   87.89    8.30
   3  -3  -2   77.79   13.00
  -3   3   2   91.89    8.70
  -3   3   2   90.39    8.90
  -3   3   2   61.49    7.40
  -3   3   2   84.29   12.90
   3   3  -2   95.39   12.10
   3   3  -2   83.49    8.60
  -1  -3   2 1012.10   65.09
   1  -3  -2 1034.90   67.79
   1  -3  -2 1023.50   65.09
  -1  -3   2  843.82   66.19
  -1  -3   2  940.81   66.49
  -1   3   2  912.11   65.09
  -1   3   2 1052.19   67.69
   1   3  -2 1041.00   65.09
   1   3  -2 1025.80   66.59
  -1  -3  -2 1482.75  110.19
  -1  -3  -2 1751.42  111.29
   1  -3   2 1785.82  111.69
  -1  -3  -2 1674.13  110.29
   1  -3   2 1776.62  112.59
   1   3   2 1751.42  110.99
  -1   3  -2 1754.62  111.59
   1   3   2 1598.44  110.19
  -1   3  -2 1752.22  112.49
   1   3   2 1512.35  110.29
  -3  -3  -2   89.39   13.40
   3  -3   2  117.09   13.00
   3  -3   2   99.39   13.20
  -3  -3  -2   92.99    8.50
  -3  -3  -2   84.49    8.90
   3   3   2   75.59    8.90
  -3   3  -2   94.99   12.20
  -3   3  -2  112.99   11.50
   3   3   2  107.09   14.10
   3   3   2   88.69   13.10
   3   3   2   82.09    9.50
   5  -3   2 1267.17   76.39
  -5  -3  -2 1129.49   76.49
  -5  -3  -2 1191.88   75.69
   5  -3   2 1129.09   78.29
  -5  -3  -2 1166.38   78.99
   5   3   2 1167.68   75.79
  -5   3  -2 1056.99   79.49
   5   3   2 1143.29   78.99
   5   3   2 1046.90   76.49
  -5   3  -2 1093.09   78.79
  -5   3  -2 1186.28   75.99
  -5   3  -2 1130.29   78.49
   5   3   2  950.30   78.29
  -7  -3  -2  460.85   39.70
   7  -3   2  446.86   34.60
  -7  -3  -2  424.86   35.50
  -7  -3  -2  508.65   33.70
   7  -3   2  396.56   32.80
  -7  -3  -2  460.35   45.20
   7   3   2  508.65   35.80
  -7   3  -2  450.65   39.00
  -7   3  -2  463.65   34.40
  -7   3  -2  440.76   33.50
  -7   3  -2  443.76   38.70
  -7   3  -2  430.06   39.20
   7   3   2  522.85   34.30
  -7   3  -2  429.16   39.50
   7   3   2  364.96   39.80
   7   3   2  464.05   42.20
   9  -3   2  173.98   18.50
  -9  -3  -2  116.29   31.40
  -9  -3  -2  169.58   22.10
  -9   3  -2  172.38   20.70
  -9   3  -2  102.79   21.60
  -9   3  -2  132.79   24.60
   9   3   2  107.59   27.60
  -9   3  -2  114.89   25.20
 -11  -3  -2  187.18   35.50
 -11  -3  -2   95.79   28.40
 -11   3  -2  136.39   33.40
 -11   3  -2  168.48   34.00
  11   3   2  195.48   23.50
 -11   3  -2  139.69   22.00
 -13  -3  -2   16.00   25.00
 -13  -3  -2   14.60   41.10
 -13   3  -2   12.60   45.50
 -13   3  -2   39.20   44.10
  13   3   2   -8.80   22.20
 -13   3  -2   -0.50   27.50
 -13   3  -2  -16.10   23.10
 -12  -4   2   46.20   20.40
 -12  -4   2   60.49   36.10
 -12   4   2   10.00   20.60
  12   4  -2   45.10   21.00
 -12   4   2   29.00   20.30
 -12   4   2    7.40   32.20
 -10  -4   2   46.20   25.10
 -10   4   2   65.29   14.60
 -10   4   2   16.90   19.10
 -10   4   2   64.89   21.00
 -10   4   2   62.29   16.80
 -10   4   2   19.70   25.40
  -8  -4   2  517.95   45.10
  -8  -4   2  551.14   37.20
  -8  -4   2  489.55   38.60
  -8  -4   2  418.56   39.40
   8   4  -2  585.04   38.00
   8   4  -2  468.95   49.90
  -8   4   2  427.96   36.90
  -8   4   2  442.96   43.00
  -8   4   2  499.45   41.90
  -8   4   2  440.56   37.70
  -8   4   2  482.45   45.30
  -8   4   2  465.85   36.00
  -8   4   2  438.46   37.50
  -8   4   2  478.75   41.50
  -6  -4   2  232.58   20.30
   6  -4  -2  200.88   25.00
  -6  -4   2  267.37   21.90
  -6  -4   2  246.18   27.10
  -6  -4   2  235.68   19.70
  -6   4   2  234.08   20.10
  -6   4   2  241.18   20.50
  -6   4   2  204.08   23.30
  -6   4   2  253.67   29.70
  -6   4   2  238.58   24.10
   6   4  -2  294.07   20.40
  -6   4   2  229.58   19.30
  -6   4   2  207.68   20.10
   6   4  -2  226.38   27.50
  -4  -4   2  860.51   59.19
  -4  -4   2  887.31   56.39
   4  -4  -2  792.92   59.49
  -4  -4   2  785.12   56.39
  -4   4   2  883.01   55.89
  -4   4   2  829.92   56.29
   4   4  -2  767.32   59.09
  -4   4   2  787.52   55.69
   4   4  -2  802.12   56.09
  -4   4   2  914.01   60.69
  -4   4   2  816.82   56.79
  -4   4   2  805.32   55.79
  -2  -4   2   42.60    9.20
   2  -4  -2   52.49   11.70
  -2  -4   2   39.80    5.20
  -2  -4   2   37.40    5.20
  -2  -4   2   36.80    5.20
   2  -4  -2   38.20    5.00
   2   4  -2   46.50    5.80
  -2   4   2   52.19   10.50
  -2   4   2   40.00    5.30
   2   4  -2   39.30    7.60
   0  -4   2  167.08   13.70
   0  -4   2  115.39   15.30
   0  -4  -2  112.09   17.50
   0  -4  -2  149.59   11.10
   0  -4   2  157.28   10.90
   0   4  -2  149.19   11.10
   0   4  -2  144.29   15.30
   0   4   2  159.58   18.00
   0   4  -2  148.69   13.10
  -2  -4  -2    7.80    9.70
  -2  -4  -2    5.20    6.70
  -2  -4  -2    2.20    3.00
   2  -4   2    5.00    6.00
   2  -4   2    6.00    6.00
  -2  -4  -2    3.60    2.80
   2   4   2    3.30    3.80
   2   4   2   -0.30    5.20
   2   4   2    3.10    3.90
   2   4   2    8.40    9.20
  -2   4  -2    0.90    6.70
  -2   4  -2    4.20    5.30
  -4  -4  -2    7.80   12.60
   4  -4   2   29.20    8.90
   4  -4   2   34.80    8.20
  -4  -4  -2   59.69   11.30
  -4   4  -2   46.60   11.20
  -4   4  -2   26.40    8.60
   4   4   2   34.60    6.00
   4   4   2   28.30   10.20
  -6  -4  -2   69.19   11.50
  -6  -4  -2   99.29   16.90
  -6  -4  -2  106.39   12.40
   6  -4   2   91.09   12.70
  -6   4  -2  112.49   19.00
  -6   4  -2  111.59   13.40
   6   4   2   99.79   11.70
   6   4   2   95.79   18.60
   6   4   2   73.09   14.20
  -6   4  -2   56.89   14.40
  -6   4  -2   93.39   17.20
  -6   4  -2   99.09   12.20
   6   4   2   76.69   12.10
  -8  -4  -2   98.29   20.80
  -8  -4  -2   79.39   12.60
  -8   4  -2  107.19   19.90
   8   4   2   76.99   14.60
  -8   4  -2   90.09   20.40
  -8   4  -2   98.99   21.90
  -8   4  -2   98.49   18.00
  -8   4  -2  103.89   14.00
  -8   4  -2   85.49   11.90
   8   4   2   93.19   13.20
   8   4   2   62.69   18.00
  -8   4  -2   75.09   14.00
 -10  -4  -2   64.89   26.70
 -10   4  -2   87.49   16.10
  10   4   2   80.89   16.50
 -10   4  -2   46.80   23.00
 -10   4  -2   80.39   16.20
  10   4   2   18.10   31.70
 -10   4  -2   84.29   26.30
  10   4   2   53.39   17.90
 -12  -4  -2  170.88   26.60
 -12  -4  -2  113.29   39.50
 -12   4  -2  208.68   26.50
 -12   4  -2  158.68   42.90
 -12   4  -2  160.68   26.90
 -12   4  -2  138.49   37.00
  12   4   2  166.38   25.70
 -13  -5   2   20.40   23.60
 -13  -5   2   -3.20   38.50
 -13   5   2   -8.60   41.80
 -13   5   2  -39.50   24.50
 -13   5   2    3.80   25.10
  13   5  -2   12.60   24.20
 -11  -5   2   16.30   30.10
 -11  -5   2   23.70   14.90
 -11   5   2   -4.00   16.60
 -11   5   2    5.10   16.00
 -11   5   2   -2.20   27.30
 -11   5   2   -9.40   22.10
 -11   5   2   12.30   37.50
  -9  -5   2   63.29   12.80
  -9  -5   2   21.20   22.60
  -9   5   2   11.40   12.20
  -9   5   2   30.00   11.20
  -9   5   2   23.10   22.40
  -9   5   2   58.89   19.30
  -9   5   2   35.60   17.30
  -9   5   2   16.90   18.90
   9   5  -2    7.00   12.20
  -7  -5   2   85.69   19.00
   7  -5  -2  103.49   18.90
  -7  -5   2  144.49   15.80
  -7  -5   2  163.18   17.40
  -7   5   2  124.79   14.70
   7   5  -2  121.09   21.00
  -7   5   2   96.89   16.40
  -7   5   2  110.89   16.80
  -7   5   2   94.69   13.70
  -7   5   2  111.79   13.80
  -7   5   2  104.29   13.80
  -7   5   2  100.89   20.70
  -5  -5   2    0.10    6.80
   5  -5  -2   -7.60    9.10
  -5  -5   2    0.30    6.10
  -5  -5   2   14.30    9.40
  -5   5   2   -7.40    6.10
   5   5  -2  -12.10   10.20
  -5   5   2   -9.30   13.20
  -5   5   2    1.00    8.00
  -5   5   2    1.70    5.40
  -5   5   2   -0.30    6.30
  -3  -5   2   70.69   12.30
   3  -5  -2  126.49   18.20
   3  -5  -2   75.09    9.00
  -3  -5   2   63.39    8.40
  -3   5   2   97.99    9.00
   3   5  -2   63.19   11.80
   3   5  -2   89.09    9.30
  -1  -5   2   10.40    3.40
   1  -5  -2   18.60    3.70
   1  -5  -2   26.80   10.60
  -1  -5   2   11.20    7.30
  -1  -5   2   12.00    8.00
  -1   5   2   11.90    3.80
   1   5  -2   30.90    9.80
   1   5  -2   13.00    6.50
  -1   5   2   -5.30    9.80
   1  -5   2    0.20    6.70
  -1  -5  -2    0.30    2.90
   1  -5   2   -0.50    2.20
  -1  -5  -2    2.90    6.10
   1  -5   2   -0.90    7.60
  -1  -5  -2   20.80   11.50
  -1   5  -2    2.90    2.70
   1   5   2   -2.80    3.20
  -1   5  -2    3.30    5.70
  -1   5  -2   12.10    8.90
   1   5   2   -6.00    4.40
   1   5   2   -5.90    8.90
   3  -5   2  477.65   31.30
  -3  -5  -2  410.46   31.80
   3  -5   2  465.55   36.70
  -3  -5  -2  431.96   35.20
   3  -5   2  465.25   34.40
  -3   5  -2  494.55   34.40
   3   5   2  384.56   32.00
   3   5   2  488.95   35.30
   3   5   2  439.66   32.10
  -3   5  -2  468.95   38.00
  -3   5  -2  509.65   31.60
   5  -5   2  387.06   32.40
  -5  -5  -2  413.46   34.30
  -5  -5  -2  379.26   30.00
  -5  -5  -2  450.95   29.50
   5  -5   2  393.26   34.50
  -5   5  -2  415.96   28.90
   5   5   2  386.56   35.30
   5   5   2  325.37   34.40
  -5   5  -2  426.36   29.40
   5   5   2  469.05   29.70
  -5   5  -2  370.56   33.00
  -5   5  -2  361.76   35.60
   5   5   2  385.06   30.30
  -7  -5  -2   11.80   19.30
  -7   5  -2    5.90   14.80
   7   5   2   34.60   19.50
  -7   5  -2   43.60   14.10
  -7   5  -2   20.10   16.40
  -7   5  -2   39.70    8.60
   7   5   2   32.00   13.50
  -7   5  -2   25.20   12.50
  -9  -5  -2    0.70   27.50
  -9  -5  -2   41.70   21.90
   9   5   2   -6.40   19.40
  -9   5  -2    7.30   11.20
  -9   5  -2    4.90   14.80
  -9   5  -2  -14.30   24.70
   9   5   2   27.90   11.90
  -9   5  -2   26.80   17.60
   9   5   2   24.60   12.90
  -9   5  -2   15.10   12.90
  -9   5  -2   26.70   11.90
  -9   5  -2   20.00   19.00
 -11  -5  -2   -1.30   30.80
 -11   5  -2   28.60   27.60
  11   5   2    8.10   18.60
 -11   5  -2   30.70   27.20
 -11   5  -2  -12.80   16.50
  11   5   2    7.40   18.00
 -11   5  -2   -5.80   15.70
 -13  -5  -2   43.40   44.90
 -13  -5  -2   15.60   25.00
 -13   5  -2   33.10   46.40
 -13   5  -2    8.00   26.00
 -13   5  -2   67.99   48.20
 -13   5  -2    9.90   24.40
  13   5   2   38.40   25.60
 -12  -6   2   16.80   35.10
 -12  -6   2    7.90   19.50
 -12   6   2   19.90   37.20
 -12   6   2   37.50   20.30
 -12   6   2   19.40   28.00
 -12   6   2   15.60   20.70
  12   6  -2   47.10   22.10
 -10  -6   2   12.60   23.50
 -10  -6   2   43.20   14.20
 -10   6   2   18.70   14.40
 -10   6   2  -27.20   34.00
 -10   6   2  -12.40   13.70
  10   6  -2   35.40   15.50
 -10   6   2   -0.70   21.90
 -10   6   2   12.10   19.30
  -8  -6   2   68.29   19.00
  -8   6   2   60.29   12.70
  -8   6   2   43.00   14.00
  -8   6   2   69.99   17.20
  -8   6   2   88.69   25.30
  -8   6   2   64.79   11.40
  -8   6   2   64.19   15.70
  -8   6   2   41.30   11.00
  -6  -6   2  106.59   18.10
   6  -6  -2   85.29   17.50
  -6   6   2   84.69   11.20
  -6   6   2   82.49   14.40
   6   6  -2   83.59   17.80
  -6   6   2  117.09   21.30
  -6   6   2   82.49   10.80
  -6   6   2   77.39   11.10
  -6   6   2   70.09   13.60
  -4  -6   2   35.40   10.50
  -4  -6   2   20.10    7.10
   4  -6  -2   27.30   10.30
   4  -6  -2   19.20    5.90
   4   6  -2   23.60    6.10
  -4   6   2   29.50    6.10
  -4   6   2   37.40   15.90
   4   6  -2   32.80   10.70
  -2  -6   2   18.70    9.10
  -2  -6   2   24.00    5.10
   2  -6  -2   23.90    4.70
   2  -6  -2   35.10   12.50
  -2  -6   2   30.80   13.40
   2   6  -2   24.80   10.60
   2   6  -2   17.70    8.70
  -2   6   2   20.50    4.80
  -2   6   2   45.10   15.30
   2   6  -2   19.40    5.00
   0  -6   2   33.90   10.90
   0  -6   2   49.80    9.60
   0  -6   2   54.69    6.30
   0  -6  -2   37.40    5.70
   0  -6  -2   47.90   15.10
   0  -6  -2   41.80    8.10
   0   6  -2   41.80    5.90
   0   6   2   36.10    5.90
   0   6  -2   51.09    9.40
   0   6   2   44.80   12.90
   0   6   2   33.90    7.10
   2  -6   2   21.60    9.10
  -2  -6  -2   14.30    8.20
  -2  -6  -2   19.50   15.90
  -2  -6  -2    7.50    4.70
   2  -6   2   33.90    8.50
   2   6   2    8.70    5.00
  -2   6  -2   30.10   12.00
   2   6   2    5.80    5.20
   2   6   2   -7.90   12.40
  -4  -6  -2   14.30    5.60
  -4  -6  -2   -1.50   10.40
  -4  -6  -2    4.20    5.40
   4  -6   2    6.90    9.80
  -4  -6  -2  -15.10   14.00
   4   6   2    9.10   10.60
   4   6   2   13.70    5.70
   4   6   2   30.30   15.20
   4   6   2    6.10    5.90
  -6  -6  -2   12.90   17.70
   6  -6   2   13.00   10.30
  -6  -6  -2    0.60    8.30
  -6  -6  -2    3.30    7.40
  -6  -6  -2   29.50   13.50
   6   6   2   23.10    7.70
   6   6   2    9.40    8.50
   6   6   2   25.60   14.70
  -6   6  -2   16.40    6.30
  -6   6  -2   29.90   17.40
  -6   6  -2   28.00   12.70
   6   6   2   53.39   17.00
  -8  -6  -2  112.49   19.70
  -8  -6  -2  158.58   27.80
  -8   6  -2  176.28   20.70
   8   6   2  134.19   19.10
   8   6   2  148.29   19.20
  -8   6  -2  170.98   24.40
   8   6   2  156.38   23.70
  -8   6  -2  158.18   32.70
  -8   6  -2  171.18   25.90
  -8   6  -2  152.28   20.20
  -8   6  -2  154.78   18.30
  -8   6  -2  147.39   17.10
  -8   6  -2  149.69   25.70
 -10  -6  -2  -16.10   33.40
 -10  -6  -2   42.00   26.10
 -10   6  -2  -10.20   14.10
  10   6   2   28.40   15.70
 -10   6  -2   21.60   23.20
 -10   6  -2   -5.10   11.90
  10   6   2  -11.50   16.00
 -10   6  -2   28.60   25.20
 -12  -6  -2   19.20   39.80
 -12  -6  -2   24.70   22.30
  12   6   2   35.00   22.00
 -12   6  -2   35.20   35.40
 -12   6  -2   15.70   21.70
 -12   6  -2   21.30   19.70
 -12   6  -2   27.80   39.30
 -13  -7   2  102.19   27.90
 -13  -7   2  133.89   49.80
 -13   7   2  124.49   30.00
 -13   7   2   49.20   46.40
 -13   7   2   88.69   42.30
 -13   7   2   69.09   28.00
  13   7  -2   28.00   26.50
 -11  -7   2   -9.50   33.30
 -11  -7   2  -18.90   16.10
  11   7  -2  -18.30   18.30
 -11   7   2  -10.50   18.30
 -11   7   2  -29.70   26.00
 -11   7   2   -8.90   27.40
 -11   7   2  -15.50   17.10
  -9  -7   2  143.89   29.50
  -9  -7   2  120.59   16.90
  -9   7   2   71.89   19.80
  -9   7   2   79.29   15.20
   9   7  -2  100.69   17.40
  -9   7   2  130.49   25.00
  -9   7   2  138.79   30.10
  -9   7   2  114.99   17.70
  -9   7   2  145.99   23.30
  -9   7   2   59.29   32.50
   7  -7  -2    8.30   15.50
  -7  -7   2   10.10    9.10
  -7  -7   2   14.30   16.30
  -7  -7   2   -6.30   11.80
  -7  -7   2   12.40   11.80
  -7   7   2   12.10   11.30
  -7   7   2    3.30   13.50
   7   7  -2  -16.80   21.40
  -7   7   2    2.40    8.50
   7   7  -2    6.30    8.50
  -7   7   2   -4.30   21.60
  -7   7   2    5.90    9.10
  -7   7   2    2.20   13.20
   5  -7  -2   48.50   14.10
  -5  -7   2   19.30   13.40
   5   7  -2   27.40   13.60
  -5   7   2   28.10    7.80
  -5   7   2   48.50   19.40
  -5   7   2   31.10    7.20
  -3  -7   2   11.70    5.50
  -3  -7   2   -3.10   13.40
   3  -7  -2   -0.80    4.80
  -3  -7   2    2.00   10.40
   3  -7  -2   -3.10   11.90
  -3  -7   2   -1.80    4.50
   3   7  -2    6.00    5.20
  -3   7   2    5.70    4.10
   3   7  -2   -2.20   14.80
   3   7  -2    7.70   10.90
  -3   7   2    8.80   15.20
   1  -7  -2 2211.28  149.09
  -1  -7   2 2171.48  146.19
   1  -7  -2 2253.57  143.79
  -1  -7   2 2329.07  143.79
  -1  -7   2 1945.01  147.49
  -1   7   2 2289.17  143.89
   1   7  -2 2165.08  146.39
  -1   7   2 2389.46  149.79
   1   7  -2 2174.08  143.69
   1   7  -2 1862.21  147.39
   1  -7   2  347.37   28.90
  -1  -7  -2  346.47   34.30
   1  -7   2  333.67   32.20
  -1  -7  -2  324.27   25.40
  -1  -7  -2  317.57   28.50
   1  -7   2  371.86   25.10
  -1   7  -2  368.56   25.30
  -1   7  -2  365.76   34.50
  -1   7  -2  399.76   29.40
   1   7   2  329.07   25.60
   1   7   2  371.06   28.30
  -3  -7  -2  198.98   21.40
   3  -7   2  182.28   19.50
  -3  -7  -2  151.18   15.30
   3  -7   2  189.98   14.60
   3  -7   2  195.18   22.50
   3   7   2  170.58   20.70
   3   7   2  192.78   16.20
   3   7   2  152.68   15.50
  -3   7  -2  179.48   19.60
  -3   7  -2  216.18   15.00
  -3   7  -2  190.68   27.20
   5  -7   2  602.74   45.70
  -5  -7  -2  530.55   48.10
  -5  -7  -2  610.84   42.90
   5  -7   2  578.94   49.00
  -5  -7  -2  620.34   43.20
  -5   7  -2  532.85   52.19
  -5   7  -2  609.54   42.50
   5   7   2  678.43   51.69
   5   7   2  688.23   43.20
  -5   7  -2  606.54   41.60
   5   7   2  577.94   43.40
   5   7   2  561.64   48.20
  -5   7  -2  558.54   46.20
  -7  -7  -2  133.99   23.80
   7  -7   2  130.99   20.00
  -7  -7  -2  104.19   16.60
  -7  -7  -2  101.69   15.70
  -7   7  -2  141.59   16.80
  -7   7  -2  137.09   15.80
  -7   7  -2  100.79   21.80
   7   7   2  104.09   21.60
  -7   7  -2  106.69   24.20
   7   7   2  178.58   17.80
   7   7   2  192.28   19.80
  -7   7  -2  117.19   28.60
   7   7   2   55.39   24.80
  -7   7  -2  129.99   16.40
  -9   7  -2  199.18   20.40
  -9   7  -2  173.98   29.90
  -9   7  -2  145.19   20.90
  -9   7  -2  172.28   27.20
  -9   7  -2  145.59   18.90
 -11  -7  -2  -21.20   33.30
 -11   7  -2    2.60   18.10
 -11   7  -2  -18.70   31.10
  11   7   2   22.00   18.10
 -11   7  -2    0.80   28.20
 -11   7  -2   25.70   17.40
 -13  -7  -2    8.90   50.79
 -13   7  -2   89.09   48.90
 -12  -8   2  225.68   49.70
 -12  -8   2  231.28   32.10
 -12   8   2  237.78   46.90
 -12   8   2  241.78   32.90
  12   8  -2  256.57   32.90
 -12   8   2  235.08   32.00
 -12   8   2  205.18   45.80
 -10  -8   2   70.59   32.10
 -10  -8   2   48.70   15.80
 -10   8   2   50.89   15.50
 -10   8   2   68.09   36.40
  10   8  -2   66.59   18.20
 -10   8   2   54.89   22.50
 -10   8   2   19.30   15.00
   8  -8  -2  555.04   53.19
  -8  -8   2  639.64   43.50
  -8  -8   2  507.15   55.59
  -8   8   2  492.55   63.79
   8   8  -2  633.34   44.10
  -8   8   2  525.55   48.60
  -8   8   2  558.64   42.70
  -8   8   2  553.34   43.10
  -8   8   2  519.55   48.30
  -6  -8   2  694.13   52.59
  -6  -8   2  710.33   58.79
  -6  -8   2  741.83   51.19
  -6  -8   2  733.73   52.19
   6  -8  -2  693.43   58.99
  -6   8   2  731.63   50.99
  -6   8   2  707.83   66.19
   6   8  -2  821.82   52.09
   6   8  -2  636.94   58.89
  -6   8   2  706.43   51.89
   4  -8  -2  188.58   16.70
  -4  -8   2  182.68   24.60
  -4  -8   2  175.68   15.80
   4  -8  -2  202.88   27.00
  -4  -8   2  178.38   17.20
  -4  -8   2  195.48   17.90
  -4  -8   2  137.29   23.70
  -4   8   2  183.18   16.20
   4   8  -2  173.78   25.80
   4   8  -2  190.48   16.90
  -4   8   2  145.39   27.20
   2  -8  -2 1077.79   75.29
  -2  -8   2 1091.99   75.59
  -2  -8   2 1122.69   79.39
   2  -8  -2 1239.88   83.39
  -2  -8   2 1068.89   80.99
  -2   8   2 1232.88   84.69
  -2   8   2 1177.38   75.59
   2   8  -2 1011.90   81.59
   2   8  -2 1109.79   75.79
   2   8  -2 1129.59   79.09
   0  -8  -2    3.40    5.00
   0  -8   2   22.70   12.60
   0  -8   2   12.70    4.70
   0  -8  -2  -27.60   15.30
   0  -8   2   12.70    9.60
   0  -8  -2    2.50   10.50
   0   8   2   -4.30    8.70
   0   8  -2   -4.70   14.20
   0   8  -2   20.90    5.20
   0   8   2    7.90    5.00
   0   8   2   -1.40   13.90
   0   8  -2    6.40    9.60
   2  -8   2  139.79   20.00
  -2  -8  -2  114.89   12.00
   2  -8   2  110.59   11.00
   2  -8   2  126.29   17.70
  -2  -8  -2  102.49   22.70
  -2  -8  -2   78.69   14.90
  -2   8  -2  123.99   18.20
   2   8   2   99.49   12.20
  -2   8  -2  143.89   21.60
  -2   8  -2  138.59   11.30
   2   8   2   97.79   15.50
  -4  -8  -2   36.60   21.20
   4  -8   2   10.80   10.10
  -4  -8  -2   23.30   12.20
  -4  -8  -2    9.60    7.00
   4  -8   2    7.60   11.10
   4  -8   2   34.20    6.20
  -4  -8  -2   15.20    6.50
  -4   8  -2   31.50    5.90
   4   8   2   17.20   13.50
   4   8   2   -2.10   21.00
  -4   8  -2   43.90   18.80
   4   8   2    6.10    6.30
  -4   8  -2   23.90   11.50
   4   8   2   16.90    6.60
  -6  -8  -2  567.04   44.90
   6  -8   2  665.43   52.49
   6  -8   2  670.63   48.10
  -6  -8  -2  500.75   44.80
  -6  -8  -2  559.64   50.49
  -6   8  -2  661.03   50.09
  -6   8  -2  705.53   44.70
  -6   8  -2  607.44   58.89
   6   8   2  575.54   53.19
   6   8   2  557.34   54.09
   6   8   2  579.04   44.40
   6   8   2  559.14   45.00
  -6   8  -2  707.33   43.70
  -8  -8  -2   -4.80   20.70
  -8  -8  -2  -24.00   25.90
   8   8   2   -0.20   20.80
  -8   8  -2   69.19   26.20
   8   8   2   -0.10   14.20
   8   8   2   13.60   12.10
  -8   8  -2   66.89   22.80
 -10  -8  -2  406.66   55.79
 -10   8  -2  446.66   39.20
 -10   8  -2  480.75   38.60
  10   8   2  490.35   42.30
  10   8   2  341.47   43.70
 -10   8  -2  423.66   54.99
 -10   8  -2  377.46   50.89
 -12  -8  -2  331.77   39.30
 -12  -8  -2  241.68   51.69
 -12   8  -2  330.17   42.20
 -12   8  -2  375.46   56.89
 -12   8  -2  349.47   55.39
 -12   8  -2  324.87   36.20
  12   8   2  388.86   45.50
 -11  -9   2  288.27   37.30
 -11  -9   2  372.36   55.89
 -11   9   2  359.46   39.10
  11   9  -2  328.57   41.60
 -11   9   2  316.17   39.20
 -11   9   2  297.37   47.00
 -11   9   2  379.66   63.59
  -9  -9   2  136.09   35.40
  -9  -9   2  112.49   18.80
  -9   9   2   99.29   20.90
   9   9  -2  154.48   20.60
  -9   9   2  116.59   18.90
  -9   9   2  118.59   28.70
  -9   9   2  133.89   23.40
  -7  -9   2   17.60   10.20
   7  -9  -2    6.30   19.20
  -7  -9   2    4.50   22.00
  -7  -9   2   12.40   14.90
  -7   9   2    1.30   34.60
   7   9  -2   10.90   11.00
  -7   9   2    1.60   14.00
  -7   9   2    1.00   16.50
  -7   9   2   12.30    9.90
   5  -9  -2  -15.80    8.00
  -5  -9   2   -6.10   10.50
  -5  -9   2   10.80   16.30
  -5  -9   2   -1.90    9.30
   5  -9  -2   17.00   15.20
  -5  -9   2   -2.60    7.20
  -5  -9   2    8.30   21.50
  -5   9   2   23.50   23.50
   5   9  -2    0.40    8.20
   5   9  -2    2.20   16.20
  -5   9   2    8.50    6.50
   5   9  -2    9.00   27.40
   3  -9  -2  324.77   36.80
  -3  -9   2  361.36   32.10
  -3  -9   2  314.97   26.00
   3  -9  -2  327.17   25.60
  -3  -9   2  377.56   39.10
   3   9  -2  312.37   33.70
  -3   9   2  351.86   25.90
   3   9  -2  341.17   26.10
  -1  -9   2  765.92   61.09
   1  -9  -2  790.42   62.29
   1  -9  -2  730.73   56.19
   1  -9  -2  859.11   53.99
  -1  -9   2  768.22   53.79
  -1  -9   2  711.93   57.69
  -1   9   2  764.02   63.89
  -1   9   2  807.02   54.09
   1   9  -2  819.62   58.39
   1   9  -2  677.83   61.29
   1   9  -2  832.62   54.09
  -1   9   2  843.22   56.29
   1  -9   2 1404.76   95.19
  -1  -9  -2 1236.18   90.99
   1  -9   2 1275.87   90.89
  -1  -9  -2 1290.87   87.89
  -1  -9  -2 1164.78   96.09
   1  -9   2 1391.06   87.59
   1   9   2 1221.78   87.99
  -1   9  -2 1468.95   91.69
  -1   9  -2 1248.68   94.99
  -1   9  -2 1379.76   87.79
   1   9   2 1300.97   90.69
  -3  -9  -2 1712.23  115.99
   3  -9   2 1753.52  115.19
   3  -9   2 1786.02  122.69
  -3  -9  -2 1751.42  120.29
  -3  -9  -2 1543.95  124.19
   3  -9   2 1814.32  119.09
  -3   9  -2 1810.92  115.49
  -3   9  -2 1859.61  119.19
   3   9   2 1644.04  118.89
  -3   9  -2 1765.72  124.29
   3   9   2 1652.43  116.09
  -5  -9  -2  925.21   67.19
   5  -9   2  852.31   60.19
   5  -9   2  936.61   64.39
  -5  -9  -2  797.42   60.59
  -5  -9  -2  857.11   61.59
   5  -9   2  909.81   69.69
  -5  -9  -2  767.22   74.09
  -5   9  -2  937.01   65.69
   5   9   2  824.02   61.29
  -5   9  -2  950.20   60.29
   5   9   2  825.52   67.19
  -5   9  -2  885.21   74.49
   5   9   2  903.21   61.59
   7  -9   2  348.27   41.50
   7  -9   2  356.06   35.10
  -7  -9  -2  441.36   41.50
  -7   9  -2  324.27   30.70
  -7   9  -2  345.77   40.10
   7   9   2  384.56   31.60
   7   9   2  351.86   32.60
  -7   9  -2  391.96   29.80
   7   9   2  311.07   42.80
  -9  -9  -2  143.09   30.80
   9   9   2  226.08   26.60
  -9   9  -2  177.78   29.50
  -9   9  -2  214.48   38.70
  -9   9  -2  189.88   23.90
   9   9   2  140.99   30.10
   9   9   2  155.98   23.90
 -11  -9  -2   49.50   37.10
 -11  -9  -2   37.30   17.80
 -11   9  -2   13.00   32.60
  11   9   2   14.80   20.80
 -11   9  -2   29.20   17.90
 -11   9  -2   43.10   35.80
 -12 -10   2  169.48   60.59
 -12 -10   2  127.29   30.50
 -12  10   2  146.19   43.00
  12  10  -2   70.29   26.60
 -12  10   2   85.39   40.30
 -12  10   2   86.79   26.30
 -10 -10   2  496.25   43.80
 -10 -10   2  431.16   60.29
  10  10  -2  497.85   46.00
 -10  10   2  522.65   45.10
 -10  10   2  507.65   59.79
   8 -10  -2  620.64   61.19
  -8 -10   2  503.55   63.09
  -8 -10   2  544.25   46.00
   8  10  -2  577.24   46.50
  -8  10   2  575.34   46.40
  -8  10   2  692.63   53.39
   6 -10  -2 1018.90   75.09
  -6 -10   2  874.71   65.29
  -6 -10   2  929.21   64.29
  -6 -10   2  748.73   75.39
   6  10  -2  907.41   65.49
  -6  10   2  930.01   66.39
  -6  10   2 1009.90   64.99
  -4 -10   2 2407.76  173.08
   4 -10  -2 2759.72  181.48
   4 -10  -2 2606.54  172.38
  -4 -10   2 2594.64  178.08
   4  10  -2 2305.17  177.28
  -4  10   2 2784.62  172.98
  -4  10   2 2841.82  185.38
   4  10  -2 2570.74  173.18
  -2 -10   2  170.28   17.70
   2 -10  -2  218.38   33.30
   2 -10  -2  178.98   17.00
  -2 -10   2  202.48   32.70
  -2 -10   2  215.78   24.90
   2  10  -2  188.48   17.60
   2  10  -2  178.28   23.20
  -2  10   2  188.28   17.00
   2  10  -2  220.38   28.90
  -2  10   2  219.88   31.40
   0 -10   2 1947.11  123.59
   0 -10   2 1843.02  127.29
   0 -10   2 1896.81  130.79
   0 -10  -2 1850.41  132.39
   0 -10  -2 1878.31  123.69
   0  10   2 1704.03  131.39
   0  10  -2 1676.23  131.39
   0  10   2 1935.91  126.09
   0  10  -2 1936.31  123.79
   0  10   2 1844.72  123.89
   0  10  -2 1871.31  127.59
  -2 -10  -2  118.19   28.00
  -2 -10  -2   75.59   10.80
   2 -10   2   85.09   10.60
  -2 -10  -2   73.69   15.80
   2 -10   2   65.19   14.80
   2 -10   2   92.69   19.60
  -2  10  -2   80.39   11.30
  -2  10  -2   83.19   15.50
  -2  10  -2  106.39   23.10
   2  10   2   84.69   11.60
   2  10   2   60.79   15.30
   4 -10   2  457.85   39.00
  -4 -10  -2  425.46   35.00
  -4 -10  -2  450.05   43.10
  -4 -10  -2  387.36   54.29
   4 -10   2  457.25   43.20
   4 -10   2  435.46   33.20
  -4 -10  -2  378.96   33.10
   4  10   2  448.86   34.90
  -4  10  -2  502.45   39.50
  -4  10  -2  538.25   33.50
  -4  10  -2  486.35   53.59
  -6 -10  -2  101.49   23.00
  -6 -10  -2   54.29   12.90
  -6 -10  -2   37.10   30.90
   6 -10   2   74.39   17.30
   6 -10   2  105.79   24.30
  -6  10  -2  114.69   14.50
  -6  10  -2  112.99   21.50
   6  10   2   73.49   13.50
   6  10   2   73.59   13.20
  -6  10  -2   90.29   13.00
   6  10   2   34.40   27.20
   8 -10   2  546.05   50.29
  -8 -10  -2  618.34   58.99
  -8  10  -2  647.34   44.60
   8  10   2  549.85   48.60
   8  10   2  422.96   60.69
   8  10   2  585.14   46.80
 -10 -10  -2  495.65   64.69
  10  10   2  436.96   45.50
 -10  10  -2  519.45   44.20
  10  10   2  472.65   48.70
 -10  10  -2  482.85   64.79
 -10  10  -2  432.66   65.19
 -12 -10  -2  364.36   69.19
 -12 -10  -2  360.46   42.10
  12  10   2  360.16   50.09
 -12  10  -2  450.15   63.09
 -12  10  -2  383.66   59.29
 -12  10  -2  356.16   47.60
 -11 -11   2  345.77   45.50
 -11 -11   2  443.46   61.59
 -11  11   2  440.76   70.29
 -11  11   2  401.26   50.49
  11  11  -2  372.26   42.00
 -11  11   2  375.36   45.70
  -9 -11   2  113.39   37.60
  -9 -11   2  104.19   19.30
   9 -11  -2   53.79   29.10
   9  11  -2   90.99   20.00
  -9  11   2   84.59   18.90
  -9  11   2   58.29   25.70
   7 -11  -2    8.20   23.30
  -7 -11   2   48.00   28.00
  -7 -11   2   13.30   11.50
   7  11  -2   45.60   13.50
  -7  11   2   25.10   11.80
  -5 -11   2  -16.00   19.20
   5 -11  -2  -15.50   16.60
  -5 -11   2   10.40   23.70
   5 -11  -2   -3.70   10.70
   5  11  -2   10.40   35.40
   5  11  -2    3.10   10.20
  -5  11   2   -1.10    8.10
  -3 -11   2  361.86   37.80
   3 -11  -2  364.76   28.80
   3 -11  -2  392.26   43.60
  -3 -11   2  329.97   44.60
  -3 -11   2  346.37   29.60
   3  11  -2  374.06   29.50
  -3  11   2  365.96   28.40
  -3  11   2  418.96   53.89
   3  11  -2  285.47   40.10
   1 -11  -2  387.96   29.60
  -1 -11   2  392.96   29.80
  -1 -11   2  361.66   42.60
   1 -11  -2  368.36   43.70
  -1 -11   2  385.86   36.50
   1 -11  -2  335.67   34.90
  -1  11   2  392.96   35.70
  -1  11   2  378.76   45.50
   1  11  -2  380.96   37.00
   1  11  -2  427.96   30.20
  -1  11   2  413.56   29.90
   1  11  -2  386.16   46.90
   1 -11   2 2392.96  164.88
  -1 -11  -2 2199.98  157.08
   1 -11   2 2374.56  160.78
   1 -11   2 2319.57  156.68
  -1 -11  -2 2614.94  167.88
  -1  11  -2 2481.75  160.98
  -1  11  -2 2319.17  167.58
   1  11   2 2388.56  160.38
   1  11   2 2261.77  157.28
  -1  11  -2 2336.87  156.98
   3 -11   2 1843.22  120.49
   3 -11   2 1824.42  129.49
   3 -11   2 1973.40  125.39
  -3 -11  -2 1540.55  125.89
  -3 -11  -2 1711.33  121.39
  -3  11  -2 2011.90  126.19
   3  11   2 1659.73  124.79
  -3  11  -2 1921.01  120.99
   3  11   2 1779.52  121.89
  -5 -11  -2  895.71   66.49
  -5 -11  -2  986.00   75.79
   5 -11   2  968.70   66.39
   5 -11   2 1027.70   78.19
  -5  11  -2  973.60   72.19
   5  11   2  887.91   67.99
   5  11   2  911.61   67.19
  -5  11  -2 1043.50   66.69
   7 -11   2  838.12   72.79
  -7 -11  -2  856.21   75.09
   7 -11   2  961.60   66.69
  -7  11  -2  809.82   61.79
  -7  11  -2  785.42   69.59
   7  11   2  856.31   62.49
   7  11   2  724.43   77.79
   7  11   2  771.52   61.89
  -7  11  -2  861.61   59.49
  -9 -11  -2  220.08   41.90
  -9  11  -2  350.86   58.79
   9  11   2  219.48   27.10
   9  11   2  223.38   30.20
  -9  11  -2  220.48   26.00
 -11 -11  -2   33.20   25.70
 -11 -11  -2   94.49   49.60
  11  11   2   51.79   23.10
 -11  11  -2   30.90   40.70
 -11  11  -2   28.80   23.50
 -11  11  -2   30.00   38.80
 -10 -12   2  165.58   27.10
 -10 -12   2  153.48   51.09
  10  12  -2  128.79   25.50
 -10  12   2  166.58   25.10
  -8 -12   2  700.83   72.19
   8 -12  -2  663.53   70.89
  -8 -12   2  601.74   50.39
  -8  12   2  710.23   52.19
   8  12  -2  609.94   53.09
   6 -12  -2  916.31   78.19
  -6 -12   2  908.31   65.49
  -6 -12   2  938.51   64.59
  -6 -12   2  778.22   80.59
  -6  12   2  980.40   65.69
   6  12  -2  901.91   66.49
  -4 -12   2  658.93   72.39
   4 -12  -2  873.11   70.09
  -4 -12   2  779.42   65.39
   4 -12  -2  743.83   55.89
  -4  12   2  836.92   55.69
   4  12  -2  743.53   56.49
  -2 -12   2 1791.62  124.79
   2 -12  -2 1897.31  130.59
  -2 -12   2 1927.91  128.89
   2 -12  -2 1549.64  117.79
  -2 -12   2 1705.63  118.39
   2 -12  -2 1813.62  121.39
   2  12  -2 1806.62  118.79
   2  12  -2 1763.32  123.99
  -2  12   2 1843.02  118.69
  -2  12   2 1496.25  131.99
   0 -12  -2  350.46   35.60
   0 -12  -2  351.86   44.90
   0 -12  -2  326.37   28.60
   0 -12   2  348.77   28.20
   0 -12   2  361.06   44.00
   0 -12   2  404.46   36.30
   0  12   2  355.76   28.70
   0  12   2  332.87   34.20
   0  12  -2  294.97   47.40
   0  12   2  310.47   50.39
   0  12  -2  388.16   38.30
   0  12  -2  428.96   29.20
   2 -12   2   27.60   15.40
  -2 -12  -2    1.60    9.70
  -2 -12  -2   12.60   18.10
   2 -12   2   16.80    7.80
   2 -12   2   34.70   18.40
  -2 -12  -2  -19.20   27.50
  -2  12  -2   33.40   29.00
   2  12   2   30.00   17.40
   2  12   2   -7.20   28.10
   2  12   2   14.60    9.40
  -4 -12  -2   28.40   35.10
  -4 -12  -2   25.10   22.50
   4 -12   2   52.79   20.50
   4 -12   2   32.30    9.80
   4 -12   2   21.10   16.00
  -4  12  -2   93.69   19.60
  -4  12  -2   38.80    9.90
   4  12   2    8.60   37.00
   4  12   2    3.70   22.00
   4  12   2   26.30   11.40
   6 -12   2  946.31   78.69
  -6 -12  -2  787.12   63.49
  -6 -12  -2  754.02   76.49
  -6  12  -2  909.11   71.89
   6  12   2  854.81   64.69
   6  12   2  861.81   91.99
  -6  12  -2 1025.30   63.49
   6  12   2  876.41   65.09
  -8 -12  -2   86.99   48.50
   8 -12   2  229.48   33.10
   8 -12   2  191.08   38.40
  -8 -12  -2  235.68   40.10
   8  12   2  198.38   27.20
  -8  12  -2  203.78   27.10
   8  12   2  220.18   25.70
 -10 -12  -2  485.35   65.59
 -10  12  -2  686.63   94.19
  10  12   2  474.95   50.79
 -10  12  -2  639.14   77.39
 -10  12  -2  521.15   50.49
   9 -13  -2  343.47   50.29
  -9 -13   2  329.07   57.29
  -9 -13   2  339.57   38.30
   9  13  -2  291.87   41.70
  -9  13   2  416.96   39.70
  -7 -13   2  -15.10   29.40
  -7 -13   2   50.99   44.00
  -7 -13   2    5.40   13.10
   7 -13  -2  -14.30   25.80
   7  13  -2   21.90   16.20
   7  13  -2  -44.70   41.70
  -7  13   2   30.10   14.70
   5 -13  -2    9.70   24.00
  -5 -13   2   51.19   35.00
  -5 -13   2   22.40   25.20
   5  13  -2   21.80   13.60
   5  13  -2 -112.29   51.49
  -5  13   2   -2.30   11.20
   3 -13  -2   15.00   24.80
  -3 -13   2   22.40   27.40
  -3 -13   2  -11.80   19.00
  -3  13   2    1.00    9.40
   3  13  -2  -46.30   37.20
   3  13  -2   -4.30   10.90
  -1 -13   2 1029.90   77.39
  -1 -13   2 1070.69   88.19
  -1 -13   2 1189.08   85.29
   1 -13  -2 1040.30   82.09
   1 -13  -2 1087.19   92.49
   1  13  -2 1178.08   77.59
  -1  13   2 1151.98   81.89
  -1  13   2 1218.68   78.19
   1  13  -2 1058.49   84.49
   1 -13   2  926.11   73.99
   1 -13   2  836.12   66.39
   1 -13   2  819.22   59.69
  -1 -13  -2  808.02   67.99
  -1 -13  -2  849.32   80.59
   1  13   2  857.11   60.89
   1  13   2  842.82   66.49
  -1  13  -2  856.51   67.29
  -1  13  -2  870.81   60.19
  -3 -13  -2  501.65   56.39
   3 -13   2  595.44   44.90
  -3 -13  -2  599.84   71.19
   3 -13   2  626.24   59.69
   3 -13   2  645.44   52.49
  -3  13  -2  691.53   54.29
  -3  13  -2  623.04   45.20
   3  13   2  644.14   48.20
   3  13   2  556.94   54.49
   5 -13   2 1933.61  139.49
   5 -13   2 2046.50  132.49
  -5 -13  -2 1577.94  138.39
  -5  13  -2 2014.00  134.89
   5  13   2 1762.02  128.49
  -5  13  -2 1938.51  127.29
  -7 -13  -2  220.78   42.10
   7 -13   2  232.38   31.40
  -7 -13  -2  154.88   62.09
   7 -13   2  241.38   38.80
   7  13   2  199.98   27.40
  -7  13  -2  287.97   28.00
   7  13   2  181.18   25.10
   9 -13   2  215.08   36.60
  -9 -13  -2  106.09   75.29
  -9 -13  -2  188.38   46.70
   9  13   2  155.68   27.30
  -9  13  -2  229.48   52.19
  -9  13  -2  220.68   27.30
   9  13   2  162.68   29.80
  10 -14  -2  105.29   44.70
 -10 -14   2   60.79   58.29
 -10 -14   2  109.29   28.90
  10  14  -2  155.28   29.50
 -10  14   2   96.99   26.80
  -8 -14   2  509.75   78.89
  -8 -14   2  573.34   47.10
   8 -14  -2  587.44   73.69
  -8  14   2  568.24   51.29
   8  14  -2  532.15   50.39
  -6 -14   2  100.19   46.50
   6 -14  -2  116.49   33.70
  -6 -14   2  195.68   35.60
   6  14  -2   28.70   70.29
   6  14  -2  161.78   22.00
  -6  14   2  155.88   20.90
   4 -14  -2  858.71   75.79
  -4 -14   2  819.92   69.89
  -4 -14   2  715.83   83.59
   4  14  -2  871.21   60.69
  -4  14   2  745.03   59.59
  -2 -14   2  380.76   42.00
   2 -14  -2  379.26   49.50
  -2 -14   2  320.67   51.19
   2 -14  -2  309.97   36.40
  -2  14   2  331.27   38.70
  -2  14   2  266.97   29.60
   2  14  -2  288.57   31.10
   0 -14  -2   82.09   22.10
   0 -14   2  111.69   24.00
   0 -14  -2   64.89   33.10
   0 -14   2   98.19   28.60
   0  14   2   65.89   13.90
   0  14  -2  136.39   17.80
   0  14   2   18.90   19.60
   0  14  -2   56.29   26.70
  -2 -14  -2   17.20   22.40
   2 -14   2   35.70   19.30
  -2 -14  -2   26.40   35.80
   2 -14   2   40.30   23.80
   2  14   2   14.90   21.90
   2  14   2   21.50   12.70
  -2  14  -2   68.29   23.40
  -2  14  -2   48.20   11.90
   4 -14   2   44.30   21.10
  -4 -14  -2   25.00   43.30
  -4 -14  -2  -11.60   25.60
   4 -14   2   40.90   23.30
   4  14   2   22.90   15.40
  -4  14  -2   84.89   14.80
  -4  14  -2  -13.00   27.00
  -6 -14  -2   34.60   32.40
   6 -14   2   46.10   22.80
   6 -14   2   39.30   28.50
  -6 -14  -2   56.59   64.19
   6  14   2   31.50   16.50
  -6  14  -2   87.99   16.10
   6  14   2   -7.60   17.00
  -8 -14  -2   38.80   81.89
   8 -14   2  207.18   41.20
   8 -14   2  327.87   45.80
  -8 -14  -2  147.99   46.00
   8  14   2  177.98   27.40
   8  14   2  244.78   30.90
 -10 -14  -2  180.58  100.79
 -10 -14  -2  118.39   28.60
 -10 -14  -2   66.19   53.09
 -10  14  -2  179.68   31.20
 -10  14  -2  204.88   45.20
  10  14   2   91.49   27.50
 -10  14  -2  173.78   66.29
  -9 -15   2    3.70   22.30
  -9 -15   2    0.90   47.10
   9 -15  -2   17.80   40.10
  -9  15   2   -2.40   25.00
   9  15  -2   30.40   24.40
  -7 -15   2  -22.40   54.79
   7 -15  -2  -17.80   30.50
  -7 -15   2    0.60   35.10
  -7  15   2    3.50   18.90
   7  15  -2   56.09   20.10
  -5 -15   2   12.60   29.60
  -5 -15   2   23.70   47.60
   5 -15  -2   43.30   30.20
  -5  15   2   20.50   14.80
   5  15  -2   10.10   16.10
  -3 -15   2  377.86   53.39
  -3 -15   2  254.97   41.00
   3 -15  -2  343.67   49.40
  -3  15   2  294.27   31.80
  -1 -15   2   66.49   24.60
  -1 -15   2   63.49   31.40
   1 -15  -2   37.50   22.40
   1 -15  -2  106.19   36.90
   1  15  -2   65.89   15.10
  -1  15   2   42.90   13.90
  -1  15   2   63.49   22.60
  -1 -15  -2  428.06   55.59
   1 -15   2  330.27   47.50
  -1 -15  -2  276.67   37.90
   1 -15   2  330.07   41.50
   1  15   2  271.77   30.30
  -1  15  -2  279.37   42.80
  -1  15  -2  325.07   30.80
   3 -15   2  166.98   28.70
  -3 -15  -2  165.38   49.99
   3 -15   2  149.49   34.80
  -3 -15  -2  188.78   32.60
   3  15   2  150.58   21.50
  -3  15  -2  133.79   33.30
  -3  15  -2  144.49   20.30
  -5 -15  -2   52.09   55.99
  -5 -15  -2   33.30   30.90
   5 -15   2   17.30   27.20
   5 -15   2   42.70   22.80
   5  15   2   48.40   17.60
  -5  15  -2   27.20   15.30
  -7 -15  -2  272.67   86.79
   7 -15   2  426.66   50.19
  -7 -15  -2  311.27   54.09
   7 -15   2  440.26   61.09
   7  15   2  346.87   42.10
  -7  15  -2  431.16   41.30
  -9 -15  -2   87.19   96.39
   9 -15   2   20.50   40.20
  -9 -15  -2  -31.00   24.20
  -9 -15  -2   41.30   48.20
   9 -15   2   48.00   38.50
  -9  15  -2   29.60   26.50
   9  15   2   53.89   24.20
  -8 -16   2   67.99   72.39
   8 -16  -2   13.90   39.70
  -8 -16   2   22.90   23.50
  -8 -16   2    4.80   46.10
  -8  16   2   -7.00   23.70
   8  16  -2   10.00   22.80
  -6 -16   2  108.09   38.90
  -6 -16   2  109.79   51.39
   6 -16  -2   14.90   34.30
  -6  16   2   42.70   19.60
   6  16  -2   84.49   24.70
   4 -16  -2   14.60   29.90
  -4 -16   2   61.79   38.00
  -4 -16   2   51.19   33.00
   4  16  -2   64.79   18.40
  -4  16   2   27.30   16.40
   2 -16  -2   42.00   35.60
  -2 -16   2   10.10   36.60
  -2 -16   2   18.80   29.20
  -2  16   2   15.60   14.90
   2  16  -2   23.80   16.50
  -2  16   2   35.70   26.80
   0 -16  -2   47.90   29.80
   0 -16  -2   72.19   36.30
   0 -16   2   28.00   32.40
   0 -16   2   89.29   28.40
   0  16  -2   65.89   16.20
   0  16   2   68.59   15.80
   0  16   2   52.59   29.70
   2 -16   2   -3.40   27.30
  -2 -16  -2   14.50   41.80
  -2 -16  -2  -14.50   28.40
   2 -16   2   22.40   24.10
  -2  16  -2   29.20   15.10
   2  16   2  -18.50   14.30
  -4 -16  -2  -64.39   57.89
   4 -16   2  -26.40   28.10
  -4 -16  -2   44.30   30.10
   4 -16   2   27.50   25.90
  -4  16  -2   29.60   17.00
   4  16   2   16.60   19.30
  -6 -16  -2  -42.70   63.09
   6 -16   2   27.80   33.30
   6 -16   2   -8.80   28.90
  -6 -16  -2  -17.50   36.90
   6  16   2    7.40   20.20
  -6  16  -2   18.00   19.80
  -8 -16  -2  126.59   49.20
  -8 -16  -2  158.38  100.09
   8 -16   2   55.59   36.50
   8 -16   2   50.79   39.60
  -8 -16  -2   97.99   29.10
   8  16   2   30.80   23.10
  -8  16  -2   85.49   25.10
  -7 -17   2   25.80   51.39
  -7 -17   2   54.89   44.40
   7 -17  -2  -32.90   37.30
  -7  17   2    2.80   22.70
   7  17  -2   26.30   25.30
   5 -17  -2    8.50   37.10
  -5 -17   2   60.99   39.30
  -5 -17   2   60.79   45.80
   5  17  -2   57.99   22.00
  -5  17   2   39.60   21.60
  -3 -17   2   15.10   39.70
   3 -17  -2   37.70   36.50
  -3 -17   2   -7.60   32.20
  -3  17   2  -14.00   16.10
   3  17  -2   57.49   19.50
  -1 -17   2   38.70   38.20
   1 -17  -2  -28.70   38.60
  -1 -17   2   33.80   33.60
   1 -17  -2   57.39   27.50
  -1  17   2   16.40   16.20
  -1  17   2   30.30   31.60
   1  17  -2   67.19   18.40
  -1 -17  -2   49.99   41.90
  -1 -17  -2   58.89   33.40
   1 -17   2   44.60   35.40
   1 -17   2   79.39   32.90
  -1  17  -2  108.19   18.90
   1  17   2   49.50   19.00
   3 -17   2    6.00   33.40
   3 -17   2   58.89   29.40
  -3 -17  -2   54.89   34.40
  -3 -17  -2   79.29   51.49
  -3  17  -2   -1.50   16.90
   3  17   2    8.90   17.40
   5 -17   2   70.99   36.50
   5 -17   2  114.59   32.60
  -5 -17  -2  134.49   39.40
  -5 -17  -2  184.08   69.49
  -5  17  -2  121.59   24.50
   5  17   2  126.79   26.50
  -7 -17  -2  111.19   93.19
   7 -17   2   83.89   34.50
  -7 -17  -2   85.99   49.60
   7 -17   2   79.29   42.80
  -7  17  -2   63.09   26.90
   7  17   2   41.10   25.70
  -6 -18   2  207.08   50.89
   6 -18  -2  224.98   50.39
  -6  18   2  295.87   37.10
   6  18  -2  240.18   36.00
  -4 -18   2  172.18   60.29
  -4 -18   2  142.99   41.90
   4 -18  -2  166.88   46.00
   4  18  -2  142.89   28.90
  -4  18   2  154.28   27.30
   2 -18  -2  139.19   48.60
  -2 -18   2   92.99   50.99
  -2 -18   2   94.19   37.90
  -2  18   2   71.39   21.60
   2  18  -2   58.09   23.60
   0 -18   2   80.89   34.00
   0 -18   2  142.69   45.00
   0 -18  -2   42.50   34.90
   0 -18  -2  105.19   52.79
   0  18  -2  127.99   21.40
   0  18   2   94.89   21.30
  -2 -18  -2   57.49   35.50
   2 -18   2   25.80   38.10
  -2 -18  -2    3.70   60.69
   2 -18   2   58.79   31.00
  -2  18  -2   57.09   20.30
   2  18   2   20.50   20.00
  -4 -18  -2   10.40   39.50
   4 -18   2   -4.10   32.80
   4 -18   2   18.40   38.10
  -4 -18  -2   67.69   57.89
  -4  18  -2    5.00   22.50
   4  18   2   14.20   24.50
   6 -18   2   22.30   40.60
  -6 -18  -2   23.30   44.00
  -6 -18  -2   15.20   88.39
   6 -18   2   20.60   36.30
  -6  18  -2   43.10   30.30
   6  18   2   25.70   24.20
  -5 -19   2   42.30   95.69
   5 -19  -2    1.20   44.50
  -5 -19   2   19.00   44.80
  -5  19   2   -6.00   27.40
   5  19  -2   57.49   26.90
  -3 -19   2   84.39   53.39
   3 -19  -2   60.99   46.10
  -3 -19   2  -12.70   41.80
   3  19  -2   75.99   29.70
  -3  19   2   72.19   24.80
  -1 -19   2   45.70   41.20
   1 -19  -2  118.59   38.50
  -1 -19   2   61.49   47.60
   1 -19  -2   99.19   54.29
   1  19  -2   74.89   25.80
  -1  19   2   39.10   24.00
  -1 -19  -2  568.64   79.89
  -1 -19  -2  438.86   70.89
   1 -19   2  381.16   61.89
   1 -19   2  415.56   53.39
  -1  19  -2  379.96   46.90
   1  19   2  437.76   47.00
  -3 -19  -2  157.68   45.40
   3 -19   2  250.97   52.29
   3 -19   2  247.58   45.40
  -3 -19  -2  181.48   80.29
  -3  19  -2  263.17   32.60
   3  19   2  190.58   33.10
   5 -19   2  146.59   42.80
  -5 -19  -2   45.30   46.40
  -5 -19  -2  233.58  111.69
   5 -19   2  131.49   46.30
  -5  19  -2  191.68   32.60
   5  19   2   91.99   31.70
  -4 -20   2  593.24   73.89
   4 -20  -2  574.34   92.89
  -4 -20   2  326.57  120.49
   4  20  -2  568.84   64.99
  -2 -20   2  206.88   58.09
   2 -20  -2  170.78   57.69
  -2 -20   2  199.28   61.49
   2  20  -2  224.58   37.80
  -2  20   2  189.98   33.20
   0 -20  -2   67.99   45.30
   0 -20   2  100.59   51.29
   0 -20  -2  171.68   61.09
   0 -20   2  179.08   45.80
   0  20  -2  175.18   32.20
   0  20   2  111.99   29.60
  -2 -20  -2  133.89   65.79
   2 -20   2   19.00   40.70
  -2 -20  -2   79.39   43.80
   2 -20   2   -7.80   48.30
   2  20   2   48.00   27.90
  -2  20  -2   39.40   28.90
   4 -20   2  -15.30   49.70
  -4 -20  -2   81.89   46.70
   4 -20   2   70.49   45.10
  -4 -20  -2  227.88  113.89
  -1 -21  -2  366.46   79.19
 -12   0   3   25.50   31.20
 -12   0   3   10.50   20.20
  12   0  -3   36.80   19.80
  10   0  -3   25.60   12.80
 -10   0   3   16.90   21.20
  -8   0   3    2.10    9.50
  -8   0   3   -0.60   12.00
   8   0  -3   -5.80   20.70
   8   0  -3    6.40    8.20
  -8   0   3    3.20   13.90
  -8   0   3    0.20    7.60
  -6   0   3   -2.90    9.20
   6   0  -3   -0.90    5.50
  -6   0   3   -1.40    4.90
   6   0  -3  -16.30   12.90
  -6   0   3    2.50    6.80
  -6   0   3   -5.10    6.00
   4   0  -3    9.00    7.40
  -4   0   3    9.70    4.20
  -4   0   3    1.20    3.60
   4   0  -3   -0.10    4.40
  -4   0   3    8.10    7.50
  -4   0   3    5.20    4.60
   2   0  -3    0.50    3.00
  -2   0   3   -4.70    2.60
  -2   0   3    2.30    2.00
  -2   0   3   -1.40    2.10
   2   0  -3   -1.30    1.70
   2   0  -3   -2.20    2.20
   0   0   3   -2.20    1.70
   0   0   3    0.50    2.20
   0   0   3    0.70    1.10
   0   0  -3    0.10    2.20
   0   0  -3   -0.10    1.10
   0   0  -3   -0.10    1.70
  -2   0  -3   -2.50    4.00
  -2   0  -3    0.10    3.50
   2   0   3   -1.20    2.10
   2   0   3    2.40    4.10
   2   0   3    0.90    3.70
  -2   0  -3    1.10    1.90
  -4   0  -3    4.00    4.10
  -4   0  -3   -2.90    6.90
  -4   0  -3    6.90    8.30
   4   0   3   -3.90    7.10
  -4   0  -3   -5.30    6.60
   4   0   3    2.20    4.60
  -6   0  -3   10.70   11.20
   6   0   3    2.10    6.30
   6   0   3  -18.20   13.10
  -6   0  -3   12.80   10.10
  -6   0  -3   -1.90    4.90
   6   0   3   -1.10    5.10
  -6   0  -3    2.30   10.80
  -6   0  -3   -2.00    6.40
  -8   0  -3   34.70   14.70
   8   0   3   11.20    8.50
  -8   0  -3   33.80   20.00
  -8   0  -3   36.70   15.20
  -8   0  -3   17.00   11.60
  -8   0  -3   47.00   18.00
 -10   0  -3   14.90   20.60
  10   0   3   32.30   15.40
 -10   0  -3   63.79   24.20
 -10   0  -3    1.40   23.30
  10   0   3   28.80   12.90
 -12   0  -3    3.80   40.10
  12   0   3   19.70   18.30
 -12   0  -3   27.20   19.50
 -12   0  -3   53.19   32.80
 -13  -1   3   60.59   25.70
  13  -1  -3   58.39   24.20
 -13  -1   3   68.09   42.10
 -13   1   3   50.99   40.90
  13   1  -3   63.89   25.20
 -13   1   3   67.69   24.40
 -11  -1   3  -27.00   13.50
 -11  -1   3  -40.20   24.20
  11  -1  -3  -11.00   16.60
  11   1  -3    3.90   15.90
 -11   1   3  -16.10   14.10
 -11   1   3   -0.10   26.10
  -9  -1   3   25.20   17.50
   9  -1  -3    4.70    9.90
  -9  -1   3    3.30   10.30
   9   1  -3   14.30   25.70
  -9   1   3    4.40   20.60
  -9   1   3  -25.50   15.50
  -9   1   3    5.80   10.10
   9   1  -3    5.60   10.60
   7  -1  -3  135.09   15.60
  -7  -1   3  119.79   15.00
  -7  -1   3  145.59   22.00
  -7  -1   3  135.19   15.80
  -7  -1   3  149.59   14.90
  -7   1   3  108.39   20.00
   7   1  -3  193.78   22.70
  -7   1   3  117.59   14.50
  -7   1   3  145.99   17.00
  -7   1   3  145.39   20.70
   7   1  -3  142.79   15.20
  -7   1   3  120.89   15.60
   5  -1  -3  381.86   28.10
  -5  -1   3  382.36   27.80
  -5  -1   3  334.07   28.20
  -5  -1   3  358.66   27.60
  -5  -1   3  411.46   31.30
   5  -1  -3  332.97   31.00
   5   1  -3  347.57   27.70
  -5   1   3  391.26   30.20
  -5   1   3  396.06   28.30
  -5   1   3  416.26   28.20
  -5   1   3  433.66   27.90
   5   1  -3  391.46   31.80
  -3  -1   3    2.70    3.20
  -3  -1   3    0.40    3.10
   3  -1  -3    3.10    2.90
  -3  -1   3    6.30    6.20
   3  -1  -3    3.10    3.80
  -3   1   3   -0.60    3.10
  -3   1   3    9.50    5.10
   3   1  -3    4.50    3.60
   3   1  -3    2.70    2.70
   3   1  -3   13.20    5.30
  -3   1   3    4.00    3.20
  -1  -1   3  134.59    9.50
  -1  -1   3  135.59    9.60
   1  -1  -3  163.08   12.90
   1  -1  -3  139.79    9.60
   1   1  -3  136.79    9.60
  -1   1   3  121.49    9.50
  -1   1   3  129.09    9.50
   1   1  -3  129.19   10.50
   1   1  -3  112.19    9.40
  -1  -1  -3  668.73   48.20
  -1  -1  -3  742.33   50.09
   1  -1   3  734.93   47.60
   1  -1   3  729.43   48.90
  -1  -1  -3  672.93   47.70
   1  -1   3  749.92   48.70
  -1   1  -3  796.32   49.20
   1   1   3  759.52   49.90
  -1   1  -3  770.42   48.70
   1   1   3  708.83   47.80
   1   1   3  622.74   48.20
  -1   1  -3  703.53   47.50
   3  -1   3  158.58   12.40
  -3  -1  -3  119.89   12.00
  -3  -1  -3  147.89   17.80
  -3  -1  -3  160.18   16.00
   3  -1   3  172.78   15.10
   3   1   3  163.58   12.80
  -3   1  -3  151.48   11.90
   3   1   3  146.49   14.90
  -3   1  -3  171.18   16.20
  -3   1  -3  129.19   14.10
  -5  -1  -3  475.75   34.90
  -5  -1  -3  513.95   41.30
  -5  -1  -3  454.55   38.90
  -5  -1  -3  532.85   36.20
  -5  -1  -3  518.55   38.50
   5  -1   3  534.95   36.10
   5  -1   3  509.15   40.60
  -5   1  -3  474.35   39.70
   5   1   3  495.85   35.30
  -5   1  -3  515.45   38.70
   5   1   3  490.05   39.40
   5   1   3  508.95   36.00
  -5   1  -3  486.85   38.70
  -5   1  -3  529.05   35.90
  -7  -1  -3   60.29   16.10
  -7  -1  -3   29.80   15.00
  -7  -1  -3   46.10   14.80
   7  -1   3   59.59   10.70
   7  -1   3   66.49    9.60
  -7   1  -3   58.59   10.10
  -7   1  -3   51.29   14.70
   7   1   3   56.09   10.60
  -7   1  -3   64.49   14.40
  -7   1  -3   58.59   15.60
   7   1   3   72.69   18.50
  -7   1  -3   62.09    8.40
  -7   1  -3   71.09   16.10
  -9  -1  -3   59.09   12.90
  -9  -1  -3   85.69   23.00
  -9  -1  -3   82.99   21.90
   9  -1   3   88.79   13.10
   9  -1   3   95.49   16.00
  -9   1  -3   91.09   12.40
  -9   1  -3   80.79   20.70
  -9   1  -3   70.09   20.70
   9   1   3   71.29   15.10
  -9   1  -3   88.09   23.50
  11  -1   3   14.80   14.80
 -11  -1  -3  -13.10   31.30
 -11  -1  -3    3.70   28.10
 -11  -1  -3  -25.90   27.20
 -11   1  -3   -7.40   28.40
  11   1   3  -17.20   16.70
  11   1   3   -9.30   15.20
 -11   1  -3   -6.80   26.30
 -13  -1  -3   -0.80   23.70
 -13  -1  -3   52.99   55.39
 -13  -1  -3   -7.80   40.60
  13  -1   3    6.20   21.30
 -13   1  -3   -1.00   44.10
 -13   1  -3  -22.60   45.60
 -13   1  -3  -13.30   21.40
  13   1   3   19.40   22.40
 -12  -2   3  390.66   42.20
  12  -2  -3  451.75   42.30
 -12  -2   3  351.66   49.60
 -12   2   3  351.66   41.80
 -12   2   3  446.56   62.59
  12   2  -3  426.86   42.70
  10  -2  -3  181.08   25.80
 -10  -2   3  232.18   24.90
 -10  -2   3  207.88   32.00
  10   2  -3  246.48   26.60
 -10   2   3  183.48   28.70
 -10   2   3  185.28   24.60
  -8  -2   3  208.58   25.30
  -8  -2   3  315.07   23.90
   8  -2  -3  244.98   24.00
  -8  -2   3  293.17   31.00
  -8  -2   3  296.07   27.10
  -8   2   3  269.77   23.70
  -8   2   3  213.38   24.70
   8   2  -3  326.87   34.80
  -8   2   3  232.98   26.30
  -8   2   3  228.88   30.70
   8   2  -3  288.37   24.10
  -8   2   3  243.28   28.60
  -6  -2   3 1060.19   67.19
   6  -2  -3  939.61   67.29
  -6  -2   3  991.30   66.99
  -6  -2   3  920.61   67.29
  -6  -2   3 1018.30   70.29
  -6   2   3 1012.90   69.39
  -6   2   3  910.91   66.69
   6   2  -3  885.41   66.89
  -6   2   3 1009.40   67.29
  -6   2   3 1001.30   67.29
   6   2  -3 1013.00   70.59
  -6   2   3 1023.70   68.89
   4  -2  -3   94.79   10.20
  -4  -2   3   92.89   10.80
  -4  -2   3   93.19   10.00
  -4  -2   3  109.69   15.60
  -4  -2   3   99.99    9.60
  -4   2   3   97.39   14.50
  -4   2   3  102.69   10.60
   4   2  -3   97.69   10.10
  -4   2   3   92.19    9.50
   4   2  -3   94.79   14.50
  -4   2   3   84.19   13.30
   2  -2  -3  582.34   42.00
  -2  -2   3  603.14   41.80
   2  -2  -3  641.24   40.10
  -2  -2   3  580.14   40.10
  -2  -2   3  577.64   40.10
  -2   2   3  618.64   40.20
  -2   2   3  619.94   40.30
  -2   2   3  627.94   40.10
   2   2  -3  623.54   41.60
   2   2  -3  524.55   39.90
  -2   2   3  583.34   41.90
   2   2  -3  594.14   40.20
   0  -2   3   90.39    8.70
   0  -2  -3   87.79    6.50
   0  -2  -3   85.59    6.60
   0  -2   3   86.79    7.90
   0   2  -3   83.99    8.00
   0   2   3   83.79    6.50
   0   2  -3   86.19    8.30
   0   2   3   84.69    6.60
  -2  -2  -3 1473.35   97.29
   2  -2   3 1412.56   97.49
   2  -2   3 1604.14   96.09
  -2  -2  -3 1308.27   95.89
  -2  -2  -3 1418.96   96.29
   2   2   3 1445.26   99.09
   2   2   3 1430.56   95.99
  -2   2  -3 1450.55   98.39
  -2   2  -3 1568.94   95.99
   2   2   3 1482.15   97.19
  -2   2  -3 1487.55   97.59
   4  -2   3  148.49   15.90
  -4  -2  -3  138.29   12.50
  -4  -2  -3  147.09   19.80
  -4  -2  -3  153.18   17.30
  -4  -2  -3  132.09   11.30
   4  -2   3  142.79   12.50
  -4   2  -3  150.18   16.20
   4   2   3  111.29   15.40
  -4   2  -3  152.18   12.30
  -4   2  -3  148.09   16.00
   4   2   3  139.39   12.70
   4   2   3  146.59   17.50
   4   2   3  135.69   12.20
  -4   2  -3  130.89   15.50
   6  -2   3  996.70   65.69
  -6  -2  -3  969.80   68.99
  -6  -2  -3  888.61   68.59
  -6  -2  -3  900.71   65.59
  -6  -2  -3 1007.10   64.69
  -6   2  -3  940.41   68.89
   6   2   3  943.41   69.69
  -6   2  -3  860.91   68.79
  -6   2  -3  939.41   69.09
   6   2   3  908.61   65.79
  -6   2  -3  990.20   68.79
  -6   2  -3  987.50   64.59
   6   2   3  944.21   64.99
  -6   2  -3 1051.89   65.49
  -8  -2  -3  301.67   40.40
  -8  -2  -3  341.57   26.20
   8  -2   3  293.77   26.30
  -8  -2  -3  288.97   30.60
  -8  -2  -3  263.27   38.70
  -8  -2  -3  331.37   35.70
   8  -2   3  317.47   28.00
   8   2   3  285.97   38.10
  -8   2  -3  299.17   28.50
  -8   2  -3  335.27   35.20
  -8   2  -3  357.46   34.70
   8   2   3  345.87   27.40
  -8   2  -3  353.56   34.90
   8   2   3  292.37   28.50
  -8   2  -3  343.47   26.70
  -8   2  -3  292.57   37.90
 -10  -2  -3   44.50   27.60
  10  -2   3   25.20   12.60
 -10  -2  -3   70.29   24.10
  10   2   3   10.10   15.70
 -10   2  -3    7.60   25.30
 -10   2  -3   26.40   22.00
 -10   2  -3   14.70   13.80
  10   2   3   55.79   14.40
 -10   2  -3   23.50   23.30
 -12  -2  -3  213.08   41.30
 -12  -2  -3  254.97   32.40
 -12  -2  -3  109.89   53.19
  12  -2   3  240.78   31.80
 -12   2  -3  218.28   44.60
  12   2   3  150.38   25.30
 -12   2  -3  173.48   40.50
 -12   2  -3  282.87   33.80
 -13  -3   3  200.88   47.40
 -13  -3   3  154.88   29.90
  13   3  -3  240.28   32.80
 -13   3   3  211.78   32.00
 -13   3   3  228.48   49.10
 -13   3   3  267.77   38.30
 -11  -3   3   98.79   32.40
 -11  -3   3  131.89   22.00
 -11   3   3  189.28   23.30
  11   3  -3  138.99   22.30
 -11   3   3  131.39   31.00
  -9  -3   3   12.50   20.80
  -9  -3   3    6.20   10.30
   9  -3  -3   -3.90   10.30
  -9   3   3    4.70   15.90
  -9   3   3   -7.40   10.10
   9   3  -3   22.80   11.40
  -9   3   3   17.80   18.00
  -7  -3   3   74.79   11.20
  -7  -3   3  113.09   14.90
  -7  -3   3   84.69   18.70
   7  -3  -3   92.99   13.20
  -7  -3   3   69.29   12.40
  -7   3   3  107.49   13.60
  -7   3   3  115.59   18.90
  -7   3   3   92.79   12.10
   7   3  -3  107.39   19.90
  -7   3   3   95.89   11.90
  -7   3   3   93.69   14.90
  -7   3   3  101.89   15.10
   7   3  -3   82.39   12.60
  -5  -3   3  942.01   66.09
  -5  -3   3  983.10   69.49
  -5  -3   3  862.01   65.89
  -5  -3   3 1027.50   66.69
   5  -3  -3  890.61   68.69
   5   3  -3  996.80   69.69
  -5   3   3 1001.30   66.19
  -5   3   3 1032.60   67.29
  -5   3   3  936.21   69.29
  -5   3   3 1045.90   67.49
  -5   3   3  993.20   66.49
  -5   3   3  961.00   65.79
   5   3  -3 1012.10   66.29
  -3  -3   3  646.14   43.00
   3  -3  -3  642.04   42.60
  -3  -3   3  674.93   45.70
  -3  -3   3  644.54   43.20
  -3  -3   3  584.34   42.80
  -3   3   3  628.84   42.80
  -3   3   3  629.24   45.60
  -3   3   3  598.24   42.70
  -3   3   3  650.03   43.20
   3   3  -3  619.74   42.90
   3   3  -3  639.14   45.10
  -1  -3   3 1235.08   88.19
   1  -3  -3 1435.46   89.79
   1  -3  -3 1304.07   86.69
  -1  -3   3 1278.37   86.69
   1   3  -3 1320.97   86.79
   1   3  -3 1204.58   87.89
  -1   3   3 1258.87   86.79
   1   3  -3 1386.66   88.39
  -1   3   3 1466.15   89.69
  -1  -3  -3 2093.29  130.89
   1  -3   3 2106.79  132.49
   1  -3   3 1989.80  132.99
  -1  -3  -3 1976.00  131.59
  -1  -3  -3 1856.71  130.79
   1   3   3 1991.00  131.39
   1   3   3 1994.70  130.89
   1   3   3 1834.92  130.89
  -1   3  -3 2109.99  132.49
  -1   3  -3 2028.40  133.09
  -3  -3  -3  312.37   21.20
  -3  -3  -3  289.47   21.60
  -3  -3  -3  312.47   24.70
   3  -3   3  315.87   24.10
  -3   3  -3  270.37   23.90
   3   3   3  280.87   25.70
   3   3   3  295.57   21.90
   3   3   3  298.57   24.90
  -3   3  -3  308.07   23.90
  -3   3  -3  293.37   24.90
   3   3   3  302.67   21.40
  -5  -3  -3  966.70   67.79
  -5  -3  -3 1117.29   68.89
  -5  -3  -3  954.80   71.19
  -5  -3  -3  964.40   74.79
   5  -3   3 1040.20   70.79
   5  -3   3 1076.79   68.49
  -5   3  -3 1079.59   71.49
  -5   3  -3  929.91   71.99
  -5   3  -3  971.20   71.39
   5   3   3  921.31   71.69
  -5   3  -3 1121.09   68.39
   5   3   3  945.61   68.69
   5   3   3  978.80   67.99
   5   3   3 1050.89   71.89
   7  -3   3  130.49   14.80
  -7  -3  -3  159.08   23.00
  -7  -3  -3  194.68   32.60
  -7  -3  -3  124.29   17.80
   7  -3   3  122.59   16.70
  -7  -3  -3  155.08   15.70
   7   3   3  151.28   20.90
   7   3   3  177.98   18.00
   7   3   3  190.58   16.60
   7   3   3  159.18   24.40
  -7   3  -3  151.68   17.30
  -7   3  -3  123.99   21.70
  -7   3  -3  127.19   22.80
  -7   3  -3  159.78   21.00
  -7   3  -3  128.99   19.60
  -9  -3  -3   21.20   28.00
  -9  -3  -3   22.80   20.30
  -9  -3  -3   20.40   12.30
   9  -3   3   17.50   12.00
   9  -3   3   28.70   10.60
  -9   3  -3   26.90   11.70
  -9   3  -3   22.20   17.80
   9   3   3   25.90   12.10
   9   3   3   23.90   22.50
   9   3   3   34.90   11.80
  -9   3  -3   22.50   20.90
  -9   3  -3   20.10   17.20
 -11  -3  -3   10.80   28.10
 -11  -3  -3   55.69   39.40
 -11   3  -3   51.29   30.30
 -11   3  -3   48.10   31.60
 -11   3  -3   40.50   17.90
  11   3   3   50.29   18.90
  11   3   3   49.99   17.40
 -13  -3  -3   22.40   41.90
 -13  -3  -3   74.89   27.80
  13   3   3   79.59   24.70
 -13   3  -3  150.08   27.90
 -13   3  -3   58.69   46.30
 -13   3  -3   81.69   28.50
 -13   3  -3  110.39   45.60
 -12  -4   3  309.37   35.60
 -12  -4   3  301.47   46.70
 -12   4   3  299.07   37.90
 -12   4   3  310.47   42.90
  12   4  -3  283.67   39.20
 -12   4   3  294.57   41.60
 -10  -4   3  932.21   78.39
 -10  -4   3  940.31   68.29
 -10   4   3  886.51   77.29
 -10   4   3  980.50   74.79
 -10   4   3  875.51   67.89
 -10   4   3 1074.69   70.09
  10   4  -3  904.31   68.99
  -8  -4   3 1333.57   89.09
  -8  -4   3 1254.87   94.79
  -8  -4   3 1221.28   89.69
  -8   4   3 1302.07   88.99
  -8   4   3 1362.26   88.79
  -8   4   3 1298.57   91.99
  -8   4   3 1224.08   93.49
   8   4  -3 1374.76   89.79
  -8   4   3 1261.57   89.89
  -8   4   3 1350.06   94.89
  -8   4   3 1250.17   89.39
  -8   4   3 1341.27   91.99
  -6  -4   3  798.32   55.59
  -6  -4   3  811.22   59.99
  -6  -4   3  832.82   55.89
  -6  -4   3  754.32   56.29
   6  -4  -3  794.02   59.29
  -6   4   3  828.62   56.19
  -6   4   3  869.01   57.69
  -6   4   3  794.72   55.19
  -6   4   3  774.42   61.29
  -6   4   3  876.31   55.89
   6   4  -3  755.92   55.69
  -6   4   3  797.02   57.69
   6   4  -3  807.12   60.19
  -6   4   3  751.62   55.39
  -4  -4   3 2570.24  166.68
   4  -4  -3 2805.82  166.18
  -4  -4   3 2460.35  166.48
   4  -4  -3 2404.86  169.18
  -4  -4   3 2236.08  166.08
  -4  -4   3 2554.64  169.18
  -4   4   3 2617.74  166.78
  -4   4   3 2667.43  166.18
  -4   4   3 2497.55  166.18
  -4   4   3 2526.25  169.78
   4   4  -3 2532.45  168.88
   4   4  -3 2447.06  166.38
   2  -4  -3   -5.40    9.80
  -2  -4   3    3.00    3.30
  -2  -4   3    2.10    2.60
   2  -4  -3    4.30    3.20
  -2  -4   3    6.30    6.60
  -2  -4   3    2.80    3.10
  -2   4   3   -1.00    3.30
  -2   4   3   10.60    9.00
   2   4  -3    4.80    6.00
   2   4  -3   -1.80    3.20
   0  -4  -3   74.69    7.10
   0  -4   3   82.69   10.80
   0  -4  -3  101.99   16.70
   0  -4   3   92.09    7.10
   0  -4   3   70.49   10.50
   0   4  -3   90.99   10.30
   0   4   3   88.39    7.70
   0   4  -3   73.49   11.80
   0   4  -3   87.59    7.30
   2  -4   3   47.70    9.80
  -2  -4  -3   40.10    5.10
  -2  -4  -3   33.70    8.90
   2  -4   3   41.90    8.30
  -2  -4  -3   40.80    5.20
   2   4   3   38.10    5.60
   2   4   3   32.40    5.40
  -2   4  -3   36.50    7.60
  -2   4  -3   52.49    9.70
   2   4   3   35.40    7.90
   4  -4   3 1836.72  117.39
  -4  -4  -3 1660.93  115.39
  -4  -4  -3 1674.43  117.59
  -4  -4  -3 1668.33  114.89
   4   4   3 1681.03  117.29
   4   4   3 1947.61  115.29
   4   4   3 1701.83  115.39
  -4   4  -3 1559.44  117.39
   4   4   3 1702.03  119.39
  -4   4  -3 1907.51  117.79
  -4   4  -3 1772.12  119.19
   6  -4   3 1046.50   61.59
   6  -4   3  908.71   64.19
  -6  -4  -3  893.51   60.89
  -6  -4  -3  863.01   65.19
  -6  -4  -3  829.02   61.39
  -6   4  -3  844.12   64.79
   6   4   3  798.72   61.69
  -6   4  -3  846.12   64.59
   6   4   3  886.51   66.19
   6   4   3  879.91   60.79
  -6   4  -3 1024.10   61.29
  -6   4  -3  839.92   66.19
   6   4   3  849.22   65.49
  -8  -4  -3  904.01   69.89
   8  -4   3  891.31   63.39
  -8  -4  -3  864.21   62.69
  -8   4  -3  940.91   69.79
   8   4   3  824.92   69.69
  -8   4  -3  849.91   69.89
   8   4   3  911.01   63.29
  -8   4  -3  938.41   63.59
   8   4   3  901.31   64.59
  -8   4  -3  925.81   62.59
  -8   4  -3  860.41   68.29
  -8   4  -3  844.92   71.29
  -8   4  -3  935.61   62.29
 -10  -4  -3 1284.37   96.19
  10   4   3 1203.68   86.29
 -10   4  -3 1219.98   85.39
 -10   4  -3 1373.96   97.09
 -10   4  -3 1284.57   86.29
 -10   4  -3 1160.48   86.39
  10   4   3 1020.20   98.99
 -10   4  -3 1216.88   94.19
  10   4   3 1183.18   88.19
 -12  -4  -3  217.88   46.30
 -12   4  -3  289.17   33.80
 -12   4  -3  364.36   54.69
 -12   4  -3  228.28   46.00
  12   4   3  322.97   39.00
 -12   4  -3  279.37   39.40
 -13  -5   3   92.19   24.70
 -13  -5   3   87.79   46.00
 -13   5   3   61.19   42.60
 -13   5   3  104.59   29.50
 -13   5   3   93.49   28.00
  13   5  -3   90.69   25.90
 -11  -5   3  248.68   38.80
 -11  -5   3  266.77   31.20
 -11   5   3  277.17   42.30
  11   5  -3  268.87   30.10
 -11   5   3  302.97   31.50
 -11   5   3  307.87   37.20
 -11   5   3  249.68   31.90
 -11   5   3  171.78   42.10
  -9  -5   3   57.19   12.80
  -9  -5   3   76.49   23.00
  -9   5   3   50.79   24.10
   9   5  -3   70.09   15.10
  -9   5   3   53.89   13.20
  -9   5   3   81.89   22.30
  -9   5   3   83.79   18.90
  -9   5   3   86.79   21.10
  -9   5   3   66.89   14.60
  -7  -5   3  788.92   59.69
  -7  -5   3  708.93   54.59
  -7  -5   3  745.63   55.09
   7  -5  -3  741.73   58.99
  -7  -5   3  742.83   53.89
  -7   5   3  746.13   53.39
   7   5  -3  721.63   54.19
  -7   5   3  867.51   56.79
  -7   5   3  777.32   56.59
  -7   5   3  739.53   61.59
  -7   5   3  814.62   54.79
   7   5  -3  720.53   61.09
  -7   5   3  757.02   53.79
  -7   5   3  793.82   53.99
  -5  -5   3  234.18   21.60
  -5  -5   3  289.57   27.70
  -5  -5   3  264.67   21.40
   5  -5  -3  250.07   25.90
  -5  -5   3  251.77   20.60
  -5   5   3  255.87   20.00
  -5   5   3  269.47   30.30
  -5   5   3  277.07   21.80
   5   5  -3  293.27   27.80
  -5   5   3  253.87   21.00
   5   5  -3  243.78   20.80
  -5   5   3  284.37   21.20
  -3  -5   3 3449.65  226.18
  -3  -5   3 3067.79  228.28
  -3  -5   3 3532.55  225.78
   3  -5  -3 3552.14  230.08
   3  -5  -3 3379.96  225.78
  -3  -5   3 3479.05  225.98
  -3   5   3 3416.06  225.98
  -3   5   3 3763.22  230.28
   3   5  -3 3449.35  226.08
   3   5  -3 3382.86  228.58
   1  -5  -3 2279.07  156.48
   1  -5  -3 2391.16  160.58
  -1  -5   3 2249.68  156.38
  -1  -5   3 2359.26  158.68
   1   5  -3 2395.06  156.58
  -1   5   3 2562.34  160.68
   1   5  -3 2636.84  158.98
  -1   5   3 2233.78  156.58
  -1  -5  -3 1354.66   95.79
  -1  -5  -3 1384.36   96.19
  -1  -5  -3 1475.35  102.89
   1  -5   3 1438.46   99.59
   1  -5   3 1542.75   98.69
  -1  -5  -3 1485.55   97.49
  -1   5  -3 1406.96   99.59
  -1   5  -3 1481.35   98.19
  -1   5  -3 1593.44   95.99
   1   5   3 1418.36   96.39
   1   5   3 1451.05   97.09
  -3  -5  -3 4269.27  300.17
   3  -5   3 4824.42  302.37
  -3  -5  -3 4569.64  298.27
  -3  -5  -3 4707.73  298.27
   3  -5   3 4830.22  300.37
   3   5   3 4381.06  299.77
  -3   5  -3 4888.11  300.67
  -3   5  -3 4718.43  302.37
   3   5   3 4019.50  298.07
   3   5   3 4388.26  298.17
  -5  -5  -3  189.48   24.30
  -5  -5  -3  178.58   17.10
  -5  -5  -3  185.38   17.80
   5  -5   3  235.68   21.60
   5   5   3  202.48   17.10
   5   5   3  173.98   24.90
  -5   5  -3  194.08   22.80
  -5   5  -3  223.38   23.20
  -5   5  -3  239.88   25.80
   5   5   3  182.28   17.80
   5   5   3  187.58   24.60
  -7  -5  -3  439.76   37.30
  -7  -5  -3  493.65   43.50
   7  -5   3  484.05   36.10
  -7  -5  -3  500.55   36.00
  -7   5  -3  412.76   42.00
   7   5   3  472.15   47.60
   7   5   3  513.05   37.60
  -7   5  -3  502.25   35.90
  -7   5  -3  408.96   41.40
   7   5   3  486.25   35.80
  -7   5  -3  493.65   35.40
   7   5   3  471.85   42.30
  -7   5  -3  489.85   45.00
  -9  -5  -3   57.89   30.40
  -9  -5  -3   63.39   23.10
   9   5   3   30.20   13.80
  -9   5  -3   21.00   26.20
  -9   5  -3   51.19   11.80
  -9   5  -3   64.89   13.40
   9   5   3   37.00   14.40
  -9   5  -3   20.80   15.60
   9   5   3   26.60   21.20
  -9   5  -3   29.20   20.50
  -9   5  -3   41.60   20.70
  -9   5  -3   29.00   12.40
 -11  -5  -3  242.68   42.90
 -11   5  -3  288.77   44.10
 -11   5  -3  265.77   29.50
 -11   5  -3  210.18   31.80
 -11   5  -3  265.27   40.70
  11   5   3  322.07   34.90
  11   5   3  250.77   30.40
 -13  -5  -3   70.19   43.10
 -13  -5  -3   62.59   27.80
  13   5   3   96.69   25.80
 -13   5  -3   99.29   25.70
 -13   5  -3  109.09   48.60
 -13   5  -3  139.89   53.09
 -13   5  -3   99.99   30.40
 -12  -6   3  446.06   47.00
 -12  -6   3  440.06   65.69
 -12   6   3  408.06   45.90
  12   6  -3  426.46   44.20
 -12   6   3  377.26   51.79
 -12   6   3  408.16   44.10
 -12   6   3  367.36   54.09
 -10  -6   3  362.36   34.10
 -10  -6   3  384.16   50.19
 -10   6   3  460.95   46.90
 -10   6   3  378.06   35.00
  10   6  -3  408.06   37.30
 -10   6   3  255.17   40.40
 -10   6   3  408.96   44.10
 -10   6   3  340.27   36.20
 -10   6   3  382.56   58.29
  -8  -6   3  944.51   70.89
  -8  -6   3  977.30   78.59
   8   6  -3 1083.69   72.29
  -8   6   3 1007.80   70.99
  -8   6   3 1042.50   70.89
  -8   6   3 1008.50   80.49
  -8   6   3 1062.79   74.09
  -8   6   3  955.00   74.39
  -8   6   3 1122.59   71.79
  -8   6   3  967.50   72.79
   6  -6  -3 1348.47   93.89
  -6  -6   3 1321.07   89.09
  -6  -6   3 1275.47   93.29
  -6  -6   3 1260.87   88.19
  -6  -6   3 1194.68   88.49
  -6   6   3 1316.07   88.19
   6   6  -3 1241.58   88.39
  -6   6   3 1318.07   95.39
  -6   6   3 1405.96   88.19
  -6   6   3 1392.86   87.89
  -6   6   3 1305.67   89.09
   6   6  -3 1285.27   93.39
  -4  -6   3  991.30   69.99
   4  -6  -3 1028.30   69.59
  -4  -6   3 1076.79   70.19
   4  -6  -3 1015.10   75.59
  -4  -6   3 1038.90   69.59
  -4  -6   3 1042.90   74.29
  -4   6   3 1077.79   69.79
   4   6  -3 1034.60   73.69
   4   6  -3 1019.00   69.79
  -4   6   3  999.20   75.79
  -2  -6   3  334.87   31.30
  -2  -6   3  358.36   29.60
  -2  -6   3  362.66   25.70
   2  -6  -3  353.26   25.40
   2  -6  -3  355.76   32.60
   2   6  -3  341.37   25.50
   2   6  -3  340.37   30.90
   2   6  -3  345.47   29.30
  -2   6   3  406.06   35.20
  -2   6   3  364.96   25.50
   0  -6   3  116.89    9.50
   0  -6  -3   99.19    9.80
   0  -6   3   98.19   17.50
   0  -6   3   91.89   14.50
   0  -6  -3  132.79   21.60
   0   6  -3  111.59   10.00
   0   6  -3  121.99   16.80
   0   6  -3   93.09   13.10
   0   6   3  103.59   10.20
   0   6   3  129.09   19.10
   2  -6   3  164.98   18.10
  -2  -6  -3  154.48   13.70
  -2  -6  -3  161.18   13.00
   2  -6   3  169.28   19.30
  -2  -6  -3  187.58   32.60
   2  -6   3  177.08   12.70
  -2  -6  -3  180.78   17.90
  -2   6  -3  171.68   18.20
   2   6   3  159.68   14.10
   2   6   3  139.69   16.30
   2   6   3  159.98   14.00
  -2   6  -3  164.88   22.70
   4  -6   3  395.16   33.30
   4  -6   3  390.56   31.30
  -4  -6  -3  349.87   27.60
  -4  -6  -3  373.06   27.60
  -4  -6  -3  366.76   32.20
   4   6   3  365.56   27.80
  -4   6  -3  394.46   32.10
   4   6   3  386.26   28.20
  -4   6  -3  385.86   35.70
   4   6   3  448.96   38.90
   4   6   3  329.57   32.70
   6  -6   3  896.01   58.89
  -6  -6  -3  752.72   60.49
  -6  -6  -3  719.33   55.49
  -6  -6  -3  834.42   55.29
  -6   6  -3  739.63   62.99
   6   6   3  760.32   54.99
   6   6   3  738.33   60.99
  -6   6  -3  801.42   59.79
   6   6   3  795.02   62.69
  -6   6  -3  882.31   61.49
   6   6   3  737.83   55.69
  -8  -6  -3 1039.90   77.29
  -8  -6  -3 1054.69   84.39
  -8   6  -3 1089.69   83.39
  -8   6  -3 1186.68   82.09
  -8   6  -3 1027.10   84.89
   8   6   3 1116.29   83.79
  -8   6  -3 1152.28   76.29
  -8   6  -3 1201.58   77.09
   8   6   3 1116.29   78.69
  -8   6  -3 1000.20   89.09
   8   6   3 1125.99   77.09
 -10  -6  -3 1057.29   89.39
  10   6   3 1052.09   82.49
 -10   6  -3 1236.38   79.79
 -10   6  -3 1069.59   89.59
 -10   6  -3 1127.29   90.29
  10   6   3 1077.99   80.29
 -12  -6  -3  590.94   76.79
 -12   6  -3  657.83   57.99
 -12   6  -3  678.93   55.79
  12   6   3  698.53   60.19
 -12   6  -3  631.04   78.99
 -12   6  -3  626.64   76.59
 -13  -7   3  295.87   42.10
 -13  -7   3  264.77   60.19
 -13   7   3  339.57   40.30
 -13   7   3  411.86   48.30
  13   7  -3  312.17   38.50
 -13   7   3  322.97   50.59
 -13   7   3  331.77   55.59
 -11  -7   3   28.00   19.00
 -11  -7   3   -4.20   34.30
  11   7  -3   50.59   21.30
 -11   7   3   34.90   25.00
 -11   7   3   46.60   18.80
 -11   7   3   36.10   28.10
 -11   7   3   22.10   18.20
  -9  -7   3   55.79   25.40
  -9  -7   3   71.89   14.60
  -9   7   3   49.50   25.30
  -9   7   3   64.19   18.20
  -9   7   3   27.60   15.80
  -9   7   3   67.89   13.30
  -9   7   3   24.90   30.70
  -9   7   3   71.49   20.90
   9   7  -3   87.09   16.90
  -9   7   3   72.99   15.30
  -7  -7   3   12.10   12.30
   7  -7  -3    8.30   17.50
  -7  -7   3    8.60   12.90
  -7  -7   3   17.50    9.00
  -7  -7   3   -9.80   17.20
  -7   7   3    0.80    9.10
  -7   7   3   20.70   11.70
   7   7  -3   -0.80    8.20
   7   7  -3    9.00   22.30
  -7   7   3    0.80   22.40
  -7   7   3   12.20    9.20
  -7   7   3    1.00    7.20
  -5  -7   3 1900.71  127.29
  -5  -7   3 1885.21  127.89
   5  -7  -3 1756.02  132.59
  -5  -7   3 1988.70  127.99
  -5  -7   3 1889.61  132.49
  -5   7   3 1924.01  127.79
  -5   7   3 1924.31  127.49
   5   7  -3 1765.72  131.09
   5   7  -3 2080.69  127.99
  -5   7   3 2016.20  134.39
  -3  -7   3  438.56   35.40
  -3  -7   3  416.46   37.30
  -3  -7   3  420.56   30.80
   3  -7  -3  436.16   39.10
   3  -7  -3  415.16   30.10
  -3   7   3  475.15   43.80
   3   7  -3  391.96   30.30
   3   7  -3  399.46   34.80
  -3   7   3  423.86   30.20
   1  -7  -3 2574.84  173.78
  -1  -7   3 2601.44  168.78
   1  -7  -3 2638.14  168.88
  -1  -7   3 2510.55  171.68
  -1  -7   3 2428.36  172.58
   1   7  -3 2228.28  171.08
  -1   7   3 2652.83  169.08
   1   7  -3 2691.93  168.88
  -1   7   3 2848.42  174.88
   1   7  -3 2478.75  173.18
   1  -7   3 4977.40  340.77
  -1  -7  -3 5068.09  341.17
  -1  -7  -3 5342.57  342.97
   1  -7   3 5398.66  343.77
   1  -7   3 5343.87  345.57
   1   7   3 4987.30  341.27
   1   7   3 4818.92  342.07
  -1   7  -3 5470.05  343.87
  -1   7  -3 5162.68  345.67
  -1   7  -3 5615.54  340.97
  -3  -7  -3  411.36   30.50
   3  -7   3  430.26   29.90
  -3  -7  -3  537.15   49.10
  -3  -7  -3  374.66   30.60
  -3  -7  -3  423.86   34.80
   3  -7   3  420.66   34.10
   3  -7   3  481.25   36.90
   3   7   3  411.66   30.70
  -3   7  -3  470.55   35.00
  -3   7  -3  471.35   30.20
   3   7   3  361.06   34.40
   3   7   3  407.16   30.90
  -3   7  -3  444.66   40.20
  -5  -7  -3  896.71   63.39
  -5  -7  -3  992.70   68.69
   5  -7   3  989.10   69.69
  -5  -7  -3  851.31   63.09
   5  -7   3 1026.20   67.09
   5   7   3  894.31   63.69
  -5   7  -3  989.00   73.09
   5   7   3  865.41   63.39
  -5   7  -3  952.80   67.29
   5   7   3  860.61   70.39
   5   7   3  838.22   67.89
  -7  -7  -3  150.28   24.10
  -7  -7  -3  144.49   20.70
  -7  -7  -3  175.58   22.20
   7  -7   3  171.78   24.10
  -7   7  -3  139.79   17.60
  -7   7  -3  128.19   23.00
  -7   7  -3  159.48   17.40
   7   7   3  159.68   19.50
  -7   7  -3  137.29   32.20
   7   7   3  155.98   18.60
   7   7   3  118.09   23.60
  -7   7  -3  179.88   26.60
  -9  -7  -3   10.20   29.70
  -9  -7  -3   -9.20   22.10
  -9   7  -3   22.20   15.30
   9   7   3   22.40   13.80
  -9   7  -3    9.50   10.50
   9   7   3  -21.80   24.20
  -9   7  -3   15.90   24.10
  -9   7  -3  -19.90   11.30
  -9   7  -3   -1.00   19.50
   9   7   3   28.90   14.10
 -11  -7  -3   52.69   43.00
 -11  -7  -3   30.10   36.10
 -11   7  -3   15.70   16.00
 -11   7  -3   35.80   28.90
 -11   7  -3   69.09   30.20
 -11   7  -3   46.50   19.50
  11   7   3  -28.40   21.00
  11   7   3   32.80   19.10
 -12  -8   3  363.96   61.09
 -12  -8   3  283.67   41.20
  12   8  -3  435.16   46.70
 -12   8   3  371.66   50.49
 -12   8   3  408.16   44.40
 -12   8   3  408.16   65.89
 -12   8   3  423.86   45.90
 -10  -8   3  442.96   37.90
 -10  -8   3  483.65   63.39
  10   8  -3  500.35   40.30
 -10   8   3  375.46   48.80
 -10   8   3  434.76   65.29
 -10   8   3  377.66   37.50
 -10   8   3  322.87   37.10
  -8  -8   3  938.91   91.39
   8  -8  -3 1175.78   90.79
  -8  -8   3 1146.39   81.99
  -8   8   3 1176.28   82.19
  -8   8   3 1278.17   85.19
  -8   8   3 1326.17   82.39
  -8   8   3 1179.38   98.09
  -6  -8   3 1120.89   74.79
  -6  -8   3 1108.59   82.49
  -6  -8   3 1002.30   75.69
   6  -8  -3 1128.89   82.49
  -6  -8   3 1057.99   75.59
  -6   8   3 1099.09   75.49
   6   8  -3 1033.60   74.99
   6   8  -3  992.90   82.79
  -6   8   3 1193.08   85.99
  -6   8   3 1158.38   74.89
   4  -8  -3   69.09   19.80
  -4  -8   3   48.20    9.40
  -4  -8   3   47.70    8.20
  -4  -8   3   45.20   14.60
  -4  -8   3   59.59    9.90
   4  -8  -3   73.29    9.20
  -4   8   3   62.09   22.60
   4   8  -3   65.49    9.60
   4   8  -3   47.20   15.00
  -4   8   3   65.99    9.40
  -2  -8   3  130.39   19.50
   2  -8  -3   95.69   11.50
   2  -8  -3  142.59   22.10
  -2  -8   3   96.39   15.90
  -2  -8   3  114.39   11.60
   2   8  -3  116.39   11.70
  -2   8   3   92.59   11.20
   2   8  -3  119.29   17.00
  -2   8   3  106.99   20.60
   2   8  -3  124.39   19.50
   0  -8  -3   71.29    9.70
   0  -8   3   96.19   14.30
   0  -8   3   95.29   17.60
   0  -8   3   76.99    9.40
   0  -8  -3   92.99   13.90
   0  -8  -3   76.39   21.30
   0   8   3   99.39   12.30
   0   8   3   85.49   10.00
   0   8  -3   83.39   17.70
   0   8   3  105.19   20.80
   0   8  -3   82.09    9.90
   0   8  -3   80.49   14.90
   2  -8   3  517.05   34.90
  -2  -8  -3  503.05   40.50
  -2  -8  -3  414.66   47.60
  -2  -8  -3  510.75   35.60
   2  -8   3  512.65   39.30
   2  -8   3  529.25   42.20
  -2   8  -3  520.55   40.40
   2   8   3  485.45   36.00
   2   8   3  438.46   38.30
  -2   8  -3  501.65   44.40
  -2   8  -3  529.05   35.00
  -4  -8  -3  206.28   19.20
  -4  -8  -3  234.78   41.40
  -4  -8  -3  210.68   19.70
   4  -8   3  264.77   19.00
  -4  -8  -3  209.38   25.90
   4  -8   3  225.18   24.50
   4  -8   3  254.07   28.10
   4   8   3  245.68   20.10
   4   8   3  228.68   20.60
  -4   8  -3  267.97   19.00
  -4   8  -3  261.37   33.60
  -4   8  -3  235.78   26.70
   4   8   3  204.58   27.40
  -6  -8  -3  742.83   59.59
   6  -8   3  785.82   61.49
   6  -8   3  806.12   56.79
  -6  -8  -3  658.83   52.89
  -6  -8  -3  662.43   52.69
  -6   8  -3  748.13   68.39
   6   8   3  645.84   61.59
  -6   8  -3  768.42   52.29
   6   8   3  712.63   61.89
   6   8   3  733.43   53.29
   6   8   3  734.23   52.79
  -6   8  -3  754.12   58.69
  -6   8  -3  841.62   51.89
   8  -8   3  772.72   58.39
  -8  -8  -3  662.33   63.49
   8   8   3  664.03   52.79
  -8   8  -3  694.33   63.19
   8   8   3  718.83   63.19
  -8   8  -3  791.02   51.29
  -8   8  -3  714.53   65.39
   8   8   3  617.24   54.69
 -10  -8  -3  236.58   41.60
 -10   8  -3  274.27   29.80
  10   8   3  323.47   33.50
  10   8   3  240.18   32.20
 -10   8  -3  214.68   39.60
 -10   8  -3  268.07   43.00
 -12  -8  -3  279.77   52.79
 -12  -8  -3  393.26   41.20
 -12   8  -3  410.06   45.00
 -12   8  -3  297.17   51.19
 -12   8  -3  308.27   43.00
 -12   8  -3  375.66   60.59
  12   8   3  349.96   44.50
 -11  -9   3   50.39   42.10
 -11  -9   3  -51.89   19.20
 -11   9   3   -0.30   19.00
 -11   9   3  -60.99   29.00
 -11   9   3  -39.30   38.60
  11   9  -3   13.50   20.20
 -11   9   3   -7.80   19.90
   9  -9  -3   11.00   24.10
  -9  -9   3   15.10   31.20
  -9  -9   3  -19.60   13.20
   9   9  -3    7.80   14.50
  -9   9   3   23.80   13.40
  -9   9   3  -38.30   22.90
  -9   9   3   12.90   20.30
  -9   9   3   15.40   14.30
  -7  -9   3  288.97   31.00
  -7  -9   3  329.67   26.70
  -7  -9   3  402.26   46.20
   7  -9  -3  259.87   39.20
  -7   9   3  200.78   41.80
  -7   9   3  305.97   27.30
   7   9  -3  323.67   28.60
  -5  -9   3   50.29   11.70
   5  -9  -3   42.60   16.60
   5  -9  -3    1.10    8.20
  -5   9   3   32.70   25.20
   5   9  -3   43.60   17.60
  -5   9   3   28.10    7.70
   3  -9  -3  447.96   44.90
   3  -9  -3  409.86   33.10
  -3  -9   3  493.65   33.90
  -3  -9   3  500.55   43.30
  -3  -9   3  423.26   40.00
  -3   9   3  469.75   49.00
   3   9  -3  464.25   49.80
  -3   9   3  421.56   33.20
   3   9  -3  468.45   39.20
   3   9  -3  499.15   33.80
   1  -9  -3  244.58   36.00
  -1  -9   3  238.08   27.10
  -1  -9   3  283.77   21.80
   1  -9  -3  271.17   21.80
  -1  -9   3  340.77   32.70
  -1   9   3  270.77   21.90
   1   9  -3  326.27   35.10
  -1   9   3  204.28   36.00
   1   9  -3  296.77   21.90
   1   9  -3  310.47   28.70
   1  -9   3  485.85   32.80
  -1  -9  -3  443.06   33.20
   1  -9   3  443.96   40.30
   1  -9   3  456.95   37.40
  -1  -9  -3  421.26   37.00
  -1  -9  -3  435.96   47.50
   1   9   3  486.35   33.80
  -1   9  -3  516.65   38.40
  -1   9  -3  488.15   33.00
   1   9   3  406.76   36.40
  -1   9  -3  444.66   45.00
  -3  -9  -3 1317.27   88.29
   3  -9   3 1344.27   90.59
  -3  -9  -3 1101.59   82.29
  -3  -9  -3 1147.99   83.19
   3  -9   3 1238.08   86.69
   3  -9   3 1244.28   82.29
  -3  -9  -3 1254.67   95.49
   3   9   3 1024.20   85.59
  -3   9  -3 1257.67   91.99
  -3   9  -3 1358.16   82.69
   3   9   3 1259.27   83.89
  -3   9  -3 1252.77   86.69
  -5  -9  -3    0.80    7.50
   5  -9   3    1.70   11.80
   5  -9   3   -3.20   14.10
   5  -9   3    8.00    7.30
  -5  -9  -3   72.29   26.30
  -5  -9  -3    7.10    9.40
  -5  -9  -3   22.60   14.50
  -5   9  -3   26.80   23.90
  -5   9  -3    6.60    6.10
   5   9   3   19.40   23.10
  -5   9  -3   15.80   14.90
   5   9   3    2.60    8.20
   5   9   3    5.50   17.20
   7  -9   3  192.88   28.80
  -7  -9  -3  168.28   27.10
  -7  -9  -3   86.89   32.60
  -7   9  -3  205.08   19.40
  -7   9  -3  175.58   19.20
   7   9   3  170.08   21.00
   7   9   3  140.39   29.10
  -7   9  -3  151.18   28.40
   7   9   3  176.88   22.30
  -9  -9  -3   -3.80   25.20
  -9  -9  -3    2.80   32.90
   9   9   3   21.20   14.60
   9   9   3  -20.80   27.60
  -9   9  -3  -17.40   12.20
   9   9   3   21.30   17.10
  -9   9  -3    4.80   26.20
 -11  -9  -3   21.90   35.90
 -11   9  -3   17.80   33.80
 -11   9  -3   28.00   18.50
  11   9   3   -2.30   20.40
  11   9   3  -29.80   22.70
 -11   9  -3   54.89   36.10
 -12 -10   3  -25.80   53.89
 -12 -10   3   64.69   25.80
 -12  10   3   52.89   43.10
 -12  10   3   49.10   25.30
 -12  10   3   80.69   29.70
  12  10  -3    2.30   24.10
 -10 -10   3  174.58   23.70
 -10 -10   3  157.88   44.40
  10  10  -3  133.09   23.90
 -10  10   3  153.18   23.50
 -10  10   3  160.18   30.20
   8 -10  -3  193.68   36.50
  -8 -10   3  287.17   26.60
  -8  10   3  173.98   23.80
   8  10  -3  325.07   28.90
  -6 -10   3    6.50   12.50
   6 -10  -3    7.90   17.60
  -6 -10   3   -7.10    8.00
  -6 -10   3   29.20   22.10
  -6  10   3    2.30   13.90
  -6  10   3   15.70   37.50
   6  10  -3    0.30   10.90
  -6  10   3   15.90    8.80
   4 -10  -3  203.58   34.10
  -4 -10   3  251.67   36.20
   4 -10  -3  173.98   20.50
  -4 -10   3  241.88   30.20
  -4 -10   3  190.78   21.20
   4  10  -3  246.88   33.00
  -4  10   3  333.17   49.20
  -4  10   3  207.18   19.40
   4  10  -3  249.68   21.10
  -2 -10   3    5.30    7.00
  -2 -10   3   15.10   12.70
   2 -10  -3   -3.80   17.50
  -2 -10   3   11.50   16.00
   2 -10  -3   -5.60    6.30
   2  10  -3   20.70   14.40
   2  10  -3    6.90    6.90
  -2  10   3    4.00    6.10
   2  10  -3    0.80   17.50
  -2  10   3   27.20   20.90
   0 -10  -3   16.50   18.70
   0 -10  -3  -14.80   11.50
   0 -10   3    2.40   15.60
   0 -10   3    0.50    6.10
   0 -10  -3    1.30    6.10
   0 -10   3   16.30   11.10
   0  10  -3   -1.50   13.00
   0  10   3    6.40   19.10
   0  10   3  -16.40   10.20
   0  10  -3    0.50    5.90
   0  10  -3   16.20   19.90
   0  10   3   -9.90    6.00
   2 -10   3    1.90    5.60
  -2 -10  -3   21.60   14.10
   2 -10   3   -4.20   12.50
  -2 -10  -3    9.30    6.80
   2 -10   3  -16.90   11.80
  -2 -10  -3    6.70   22.90
   2  10   3   17.80   11.40
  -2  10  -3    2.80    5.80
   2  10   3   20.90    7.60
  -2  10  -3   -0.60   20.40
   2  10   3    2.20   21.30
  -2  10  -3    2.30   13.60
  -4 -10  -3  186.28   36.60
  -4 -10  -3  233.38   31.00
   4 -10   3  285.87   31.60
   4 -10   3  246.38   26.40
   4 -10   3  254.97   19.40
  -4 -10  -3  201.28   21.30
  -4 -10  -3  168.38   19.00
   4  10   3  211.88   19.80
  -4  10  -3  200.98   27.00
   4  10   3  221.28   21.60
   4  10   3  198.88   28.10
  -4  10  -3  203.28   33.70
  -6 -10  -3   17.40   12.00
  -6 -10  -3   68.99   22.30
   6 -10   3   43.40   18.60
   6 -10   3   76.59   16.80
  -6 -10  -3   38.10   29.40
  -6  10  -3   22.20   19.60
   6  10   3   28.00   24.70
   6  10   3   36.80   12.10
  -6  10  -3   67.09   12.40
   6  10   3   61.49   12.40
  -6  10  -3   66.39   10.40
   8 -10   3  191.48   27.60
  -8 -10  -3   63.29   39.80
  -8 -10  -3  302.67   41.50
   8  10   3  241.08   29.60
  -8  10  -3  161.18   33.60
  -8  10  -3  159.58   22.10
   8  10   3  102.99   34.10
   8  10   3  193.98   25.90
 -10 -10  -3  128.59   36.60
 -10  10  -3  125.09   37.70
  10  10   3   88.49   24.80
  10  10   3  116.19   22.30
 -10  10  -3   97.99   38.00
 -10  10  -3  142.79   22.60
 -12 -10  -3    5.80   47.60
 -12 -10  -3   -4.70   24.30
 -12  10  -3   51.49   42.90
 -12  10  -3   -3.00   40.10
  12  10   3  -24.40   25.50
 -11 -11   3   17.20   25.20
 -11 -11   3   34.20   50.09
  11  11  -3  -25.30   23.50
 -11  11   3  -16.40   21.20
 -11  11   3   40.40   49.70
  -9 -11   3  -30.70   35.90
   9 -11  -3   53.69   28.10
  -9 -11   3   24.70   16.50
  -9  11   3   36.20   17.20
   9  11  -3   38.50   17.80
   7 -11  -3   40.70   24.70
  -7 -11   3  129.39   30.40
   7  11  -3  109.29   17.20
   5 -11  -3    3.40   11.80
  -5 -11   3   33.90   24.00
   5 -11  -3   18.50   18.30
  -5  11   3    3.00    8.40
   5  11  -3   19.90   36.60
  -3 -11   3   14.50   14.60
   3 -11  -3   19.30   19.90
   3 -11  -3   17.80    8.40
  -3 -11   3   33.00   20.70
  -3 -11   3   30.20    9.70
   3  11  -3   -6.80   26.70
   3  11  -3    8.80   18.10
  -3  11   3   -7.10   26.30
   3  11  -3   16.80    8.30
  -3  11   3   -2.60    7.20
  -1 -11   3   25.20    7.70
   1 -11  -3   18.00   19.60
  -1 -11   3   46.30   18.60
  -1 -11   3   18.80   14.50
   1 -11  -3    9.70    7.50
   1  11  -3   45.30   20.80
  -1  11   3   27.30    7.80
   1  11  -3   31.70   15.60
  -1  11   3   21.00   21.80
   1  11  -3   21.80    7.80
  -1 -11  -3   31.80   14.90
   1 -11   3   10.50   13.30
   1 -11   3   36.80    7.60
  -1 -11  -3   32.80    8.50
  -1 -11  -3   34.70   23.60
   1  11   3   13.40   12.70
  -1  11  -3   12.30   22.20
   1  11   3   -6.70   22.30
  -1  11  -3   54.89   16.50
   1  11   3   23.80    8.30
  -1  11  -3   38.10    7.70
  -3 -11  -3  104.59   22.10
  -3 -11  -3   61.99   12.40
   3 -11   3  110.19   19.10
   3 -11   3   99.79   13.00
   3 -11   3  102.69   21.20
  -3  11  -3  105.39   13.60
  -3  11  -3  119.39   30.80
  -3  11  -3   92.19   18.70
   5 -11   3   46.50   20.10
  -5 -11  -3   50.79   11.10
   5 -11   3   43.40   15.90
   5 -11   3   66.79   11.60
  -5 -11  -3   56.79   21.00
  -5 -11  -3  125.39   35.50
  -5  11  -3   27.70   18.30
   5  11   3   52.79   34.90
   5  11   3   72.09   26.60
  -5  11  -3   50.79    9.90
  -7 -11  -3  109.49   41.30
   7 -11   3   28.20   22.00
  -7 -11  -3   35.40   24.30
   7 -11   3   21.30   17.10
   7  11   3   13.30   31.30
  -7  11  -3   20.20   26.00
   7  11   3   15.00   13.60
  -7  11  -3   -1.20   10.20
  -7  11  -3   -8.60   14.20
  -9 -11  -3   43.10   31.40
   9 -11   3   40.60   24.90
  -9 -11  -3    8.90   47.40
  -9  11  -3   24.90   14.80
   9  11   3   23.80   18.20
   9  11   3   -6.40   20.70
  -9  11  -3   22.50   35.40
 -11 -11  -3   91.49   67.89
 -11 -11  -3   47.10   43.80
 -11  11  -3   -7.10   42.90
  11  11   3   42.40   22.30
 -11  11  -3    1.30   35.30
  10 -12  -3  117.99   38.30
 -10 -12   3   90.99   50.09
 -10 -12   3  118.09   25.50
  10  12  -3  139.59   25.50
 -10  12   3  113.29   24.50
   8 -12  -3  228.58   40.20
  -8 -12   3  208.68   25.80
  -8 -12   3  166.68   41.40
   8  12  -3  232.38   27.30
  -8  12   3  260.77   29.80
  -6 -12   3   42.40   11.60
  -6 -12   3   63.19   31.20
  -6 -12   3   31.70   26.50
   6 -12  -3   30.50   24.90
  -6  12   3   13.90   11.30
   6  12  -3   43.90   13.80
   4 -12  -3  177.08   31.40
  -4 -12   3  193.38   33.20
  -4 -12   3  101.89   25.30
   4  12  -3  138.79   20.20
  -4  12   3  167.18   18.50
  -2 -12   3   27.60   10.10
   2 -12  -3   -3.60    8.80
  -2 -12   3  -20.50   19.50
  -2 -12   3    6.20   17.40
   2 -12  -3   -0.50   22.00
  -2  12   3   15.50    8.70
   2  12  -3  -19.90   17.80
  -2  12   3   13.40   28.00
   2  12  -3   -5.90   23.10
   2  12  -3   25.30    9.50
   0 -12  -3   15.90    9.10
   0 -12  -3   -3.10   23.90
   0 -12  -3   -2.60   16.10
   0 -12   3    3.80    8.10
   0 -12   3  -12.60   18.40
   0 -12   3   13.60   15.80
   0  12   3   -6.80   27.00
   0  12  -3   58.79   26.10
   0  12  -3    9.70    8.30
   0  12  -3    5.00   17.40
   0  12   3   -1.40    8.30
  -2 -12  -3   -1.70   30.20
   2 -12   3   10.30    7.80
  -2 -12  -3   10.00   11.10
  -2 -12  -3   -9.70   18.30
   2 -12   3   17.90   15.30
   2 -12   3   13.50   16.20
  -2  12  -3   13.50   17.40
  -2  12  -3   16.40    8.50
  -2  12  -3   28.60   28.90
   2  12   3  -21.10   28.90
   2  12   3   15.20   10.00
   2  12   3   22.80   14.40
  -4 -12  -3  168.58   45.20
  -4 -12  -3  232.28   34.20
   4 -12   3  317.87   32.20
   4 -12   3  265.27   23.60
   4 -12   3  264.07   37.40
   4  12   3  253.77   26.50
  -4  12  -3  254.97   23.30
  -4  12  -3  325.37   37.20
   4  12   3  243.78   37.80
   6 -12   3   85.29   20.70
  -6 -12  -3   52.99   15.80
   6 -12   3   79.49   27.20
  -6 -12  -3   80.09   26.40
  -6 -12  -3  106.39   46.40
   6  12   3   96.99   16.90
  -6  12  -3   76.39   13.30
  -6  12  -3   64.19   24.60
   8 -12   3   53.39   29.50
  -8 -12  -3   64.49   33.10
  -8 -12  -3   15.30   52.39
   8 -12   3   73.99   25.90
   8  12   3   71.59   17.60
  -8  12  -3   69.49   15.70
   8  12   3   44.80   20.80
 -10 -12  -3  107.49   47.20
 -10 -12  -3  185.88   80.69
 -10  12  -3  137.99   24.50
 -10  12  -3  212.68   52.99
 -10  12  -3   85.69   42.10
  10  12   3  149.69   26.70
  10  12   3  143.99   30.70
   9 -13  -3    6.70   32.80
  -9 -13   3    6.40   19.10
  -9 -13   3    6.90   44.90
   9  13  -3    9.70   20.20
  -9  13   3   54.89   20.00
   7 -13  -3   39.50   28.30
  -7 -13   3   50.39   36.10
  -7 -13   3   47.80   32.60
  -7 -13   3   45.30   14.70
   7  13  -3   26.20   15.80
  -7  13   3   48.80   15.80
   7  13  -3  114.69   41.60
  -5 -13   3  174.48   37.40
   5 -13  -3  130.19   30.80
  -5 -13   3  118.09   30.80
  -5  13   3  116.99   17.60
  -3 -13   3   75.39   26.30
  -3 -13   3   66.89   22.20
   3 -13  -3   43.70   28.30
  -3  13   3   53.89   12.40
  -1 -13   3  216.38   23.20
  -1 -13   3  229.28   33.60
  -1 -13   3  255.57   35.80
   1 -13  -3  264.67   39.20
  -1  13   3  177.28   23.90
  -1  13   3  209.68   22.10
   1  13  -3  215.58   30.10
   1  13  -3  208.08   22.30
   1  13  -3  198.38   37.80
   1 -13   3  467.55   39.50
   1 -13   3  496.15   47.30
  -1 -13  -3  639.94   65.79
   1 -13   3  601.44   53.99
  -1 -13  -3  577.84   50.19
  -1  13  -3  535.25   39.90
  -1  13  -3  477.65   49.60
   1  13   3  536.95   40.80
   1  13   3  531.45   45.90
  -3 -13  -3  420.76   50.29
   3 -13   3  501.85   50.29
  -3 -13  -3  363.06   60.59
   3 -13   3  446.66   35.20
   3 -13   3  499.95   43.70
  -3  13  -3  425.06   47.30
   3  13   3  406.26   46.00
   3  13   3  459.25   38.70
  -3  13  -3  481.75   35.60
  -5 -13  -3  150.18   20.40
  -5 -13  -3  206.58   52.69
   5 -13   3  184.28   34.20
   5 -13   3  123.59   18.50
   5 -13   3  167.68   26.90
  -5  13  -3  219.88   21.00
  -5  13  -3  162.28   32.30
   7 -13   3   24.40   21.20
  -7 -13  -3   61.89   58.89
  -7 -13  -3   15.80   31.40
   7 -13   3   25.40   26.10
   7  13   3   13.20   17.70
   7  13   3    6.00   16.00
  -7  13  -3   -6.40   13.80
  -9 -13  -3   -2.50   76.39
   9 -13   3   25.20   29.80
  -9 -13  -3   46.50   40.20
  -9  13  -3   22.50   46.00
   9  13   3   12.50   28.20
  -9  13  -3   14.10   20.40
   9  13   3  -18.20   18.80
 -10 -14   3  331.87   42.70
 -10 -14   3  250.47   61.09
  10 -14  -3  257.77   53.09
  10  14  -3  353.46   47.40
 -10  14   3  305.77   36.60
  -8 -14   3  578.94   47.30
   8 -14  -3  544.55   71.19
  -8 -14   3  629.74   75.29
   8  14  -3  494.05   51.39
  -8  14   3  588.34   51.59
  -6 -14   3  355.96   52.99
  -6 -14   3  260.57   45.80
   6 -14  -3  337.67   53.29
   6  14  -3  302.87   33.90
  -6  14   3  377.86   34.40
  -4 -14   3  134.19   29.70
   4 -14  -3  200.68   40.00
  -4 -14   3  170.88   36.20
   4  14  -3  189.38   22.40
  -4  14   3  162.18   23.00
  -2 -14   3   34.60   26.00
  -2 -14   3   43.00   22.50
   2 -14  -3   42.10   29.00
  -2  14   3   29.40   11.70
   2  14  -3   34.00   13.20
   2  14  -3  -30.40   49.60
   0 -14  -3   21.90   31.60
   0 -14  -3   22.80   20.50
   0 -14   3   41.20   23.20
   0 -14   3   22.30   23.40
   0  14  -3   -9.90   26.40
   0  14   3    2.90   18.70
   0  14  -3   16.40   10.80
   0  14   3   -2.70   10.20
  -2 -14  -3   39.80   38.40
   2 -14   3   27.20   20.30
  -2 -14  -3   22.80   22.30
   2 -14   3   39.50   24.40
   2 -14   3   14.80   11.20
   2  14   3   43.70   22.50
   2  14   3   35.30   13.10
  -2  14  -3   48.60   24.90
   4 -14   3  221.88   29.50
  -4 -14  -3   43.10   56.89
   4 -14   3  201.68   35.10
  -4 -14  -3  158.58   31.70
   4  14   3  191.48   22.90
  -4  14  -3  185.18   24.20
  -6 -14  -3  419.46   53.79
   6 -14   3  448.16   59.09
   6 -14   3  415.96   48.10
  -6  14  -3  507.45   40.50
   6  14   3  446.06   42.80
   6  14   3  455.15   42.90
  -8 -14  -3  469.45   60.69
   8 -14   3  468.95   55.49
   8 -14   3  384.26   63.69
  -8  14  -3  566.14   46.00
   8  14   3  367.16   43.80
   8  14   3  427.86   51.59
 -10 -14  -3   91.49  103.69
 -10 -14  -3  181.18   30.60
 -10 -14  -3  286.77   58.49
 -10  14  -3  362.06   65.29
  10  14   3  219.08   31.80
 -10  14  -3  273.77   34.70
   9 -15  -3   81.19   42.80
  -9 -15   3   42.50   22.90
  -9 -15   3  135.79   47.30
  -9  15   3   59.69   26.20
   9  15  -3   62.49   25.60
  -7 -15   3  164.18   51.49
   7 -15  -3  183.78   42.40
  -7 -15   3  113.49   43.80
  -7  15   3  215.78   26.80
   7  15  -3  138.09   25.30
  -5 -15   3  264.57   39.80
   5 -15  -3  281.17   44.00
  -5 -15   3  230.98   45.30
   5  15  -3  209.38   27.40
  -5  15   3  232.58   29.40
  -3 -15   3 1141.69  103.09
  -3 -15   3 1049.00   95.59
   3 -15  -3 1161.98  101.99
   3  15  -3 1168.18   83.59
  -3  15   3 1290.77   83.99
   1 -15  -3 1476.75  106.59
   1 -15  -3 1454.95  120.79
  -1 -15   3 1480.65  111.09
  -1 -15   3 1421.56  118.59
  -1  15   3 1518.45  102.49
  -1  15   3 1418.16  104.89
   1  15  -3 1485.15  102.19
   1 -15   3  870.01   73.79
   1 -15   3  760.32   65.59
  -1 -15  -3  712.93   67.79
  -1 -15  -3  765.42   84.39
   1  15   3  810.62   57.19
  -1  15  -3  718.33   56.89
   1  15   3  666.73   65.39
   3 -15   3  814.62   75.99
  -3 -15  -3  671.03   99.39
   3 -15   3  826.92   68.29
  -3 -15  -3  816.42   73.09
   3  15   3  757.92   62.59
  -3  15  -3  907.41   61.39
   5 -15   3   91.39   31.50
  -5 -15  -3   64.49   32.40
  -5 -15  -3   71.39   61.69
   5 -15   3   80.39   25.70
  -5  15  -3   69.59   17.70
   5  15   3   71.99   18.70
   7 -15   3  158.18   37.60
   7 -15   3  150.18   31.00
  -7 -15  -3  125.29   92.69
  -7 -15  -3  141.59   45.50
   7  15   3   94.59   25.50
  -7  15  -3   97.09   22.20
   7  15   3   87.69   22.60
  -9 -15  -3   39.40   49.99
   9 -15   3   42.20   37.20
  -9 -15  -3   34.80  102.69
  -9  15  -3   35.20   26.50
  -9  15  -3   -9.30   42.70
   8 -16  -3  531.95   76.79
  -8 -16   3  633.54   51.69
  -8 -16   3  405.46   67.69
   8  16  -3  520.65   53.89
  -8  16   3  573.34   56.09
   6 -16  -3  415.26   68.19
  -6 -16   3  406.96   68.09
  -6 -16   3  530.75   63.99
  -6  16   3  484.55   44.70
   6  16  -3  402.96   45.30
  -4 -16   3  808.72   80.29
  -4 -16   3  720.73   84.39
   4 -16  -3  834.62   81.79
  -4  16   3  786.72   61.89
   4  16  -3  773.12   62.29
  -2 -16   3   68.79   36.00
   2 -16  -3   63.79   38.30
  -2 -16   3   80.19   30.50
  -2  16   3   71.19   17.20
   2  16  -3   57.49   18.40
   0 -16  -3   45.00   39.40
   0 -16   3   30.40   26.70
   0 -16   3   65.99   34.60
   0 -16  -3   59.99   27.50
   0  16  -3   42.50   16.20
   0  16   3   19.30   15.30
   0  16   3   31.50   27.50
  -2 -16  -3   46.10   44.00
  -2 -16  -3  -17.30   28.10
   2 -16   3    1.70   26.80
   2 -16   3   44.80   31.10
  -2  16  -3    6.50   14.70
   2  16   3   24.00   16.00
   4 -16   3  285.27   45.50
  -4 -16  -3  340.47   69.69
   4 -16   3  287.57   39.30
  -4 -16  -3  347.27   49.10
   4  16   3  282.87   37.70
  -4  16  -3  371.36   39.40
  -6 -16  -3  384.76  101.79
   6 -16   3  414.76   59.09
   6 -16   3  405.36   52.99
  -6 -16  -3  420.26   53.89
   6  16   3  289.67   43.00
  -6  16  -3  432.06   42.70
  -8 -16  -3  306.67   65.29
   8 -16   3  542.95   65.19
   8 -16   3  525.15   73.29
  -8  16  -3  633.44   54.29
   8  16   3  437.96   52.19
  -7 -17   3   42.60   54.49
  -7 -17   3   72.79   44.10
   7 -17  -3   27.90   40.30
  -7  17   3   26.90   23.10
   7  17  -3   31.20   24.40
  -5 -17   3  340.57   51.49
   5 -17  -3  288.87   52.29
  -5 -17   3  308.57   65.69
  -5  17   3  311.97   40.00
   5  17  -3  324.77   41.30
  -3 -17   3  404.46   60.89
   3 -17  -3  504.25   77.99
  -3 -17   3  467.65   73.39
   3  17  -3  422.56   44.10
  -3  17   3  468.95   44.90
   1 -17  -3  655.03   84.69
  -1 -17   3  636.74   78.59
   1 -17  -3  628.64   62.99
  -1 -17   3  669.43   72.49
   1  17  -3  581.24   54.09
  -1  17   3  569.84   50.69
  -1 -17  -3  784.02  110.49
   1 -17   3  804.72   79.99
   1 -17   3  689.93   72.19
  -1 -17  -3  794.72   74.29
   1  17   3  727.83   60.79
  -1  17  -3  774.52   60.79
   3 -17   3  438.06   55.99
  -3 -17  -3  455.05   66.19
   3 -17   3  484.05   63.89
  -3 -17  -3  487.55   74.29
  -3  17  -3  416.56   43.30
   3  17   3  435.76   46.70
   5 -17   3  345.57   54.19
  -5 -17  -3  450.85   57.89
  -5 -17  -3  547.15  113.49
   5 -17   3  419.26   65.19
  -5  17  -3  547.65   52.09
   5  17   3  461.05   48.90
   7 -17   3  117.29   41.30
  -7 -17  -3   41.10   85.99
   7 -17   3   73.69   34.90
  -7 -17  -3  127.09   47.30
   7  17   3   96.79   27.70
  -7  17  -3  110.29   28.00
   6 -18  -3  568.64   77.19
  -6 -18   3  411.86   63.09
  -6 -18   3  414.26   84.39
  -6  18   3  535.35   55.59
   6  18  -3  430.16   51.79
  -4 -18   3  140.39   44.20
   4 -18  -3  171.88   47.20
  -4 -18   3  162.58   64.09
  -4  18   3  163.98   28.20
   4  18  -3  186.78   29.30
  -2 -18   3  163.28   41.10
  -2 -18   3  205.78   47.50
   2 -18  -3  206.98   54.89
  -2  18   3  177.48   26.40
   2  18  -3  222.48   28.40
   0 -18  -3   90.89   57.89
   0 -18   3  -39.90   31.60
   0 -18   3   55.29   41.60
   0 -18  -3   -5.70   35.10
   0  18  -3   13.50   20.80
   0  18   3   33.00   18.80
   2 -18   3  129.99   36.90
   2 -18   3  150.08   44.70
  -2 -18  -3   41.60   35.50
  -2 -18  -3   76.99   66.89
  -2  18  -3  149.59   27.10
   2  18   3  136.29   25.40
  -4 -18  -3  125.39   39.80
   4 -18   3   65.49   40.50
   4 -18   3   74.39   37.90
  -4 -18  -3    3.60   88.49
   4  18   3   79.09   27.10
  -4  18  -3  112.69   27.30
  -6 -18  -3  546.95  119.69
  -6 -18  -3  460.75   66.99
   6 -18   3  608.94   67.99
   6 -18   3  508.65   82.79
  -6  18  -3  626.04   59.19
   6  18   3  488.65   55.89
  -5 -19   3  215.58   50.89
   5 -19  -3  179.68   56.19
  -5 -19   3  160.78   62.99
   5  19  -3  238.18   37.80
  -5  19   3  211.68   34.20
  -3 -19   3  231.38   52.49
   3 -19  -3  213.88   55.19
  -3 -19   3  135.89   53.59
  -3  19   3  219.68   32.80
   3  19  -3  195.88   33.60
   1 -19  -3  251.47   69.59
  -1 -19   3  319.07   62.99
  -1 -19   3  310.87   52.19
  -1  19   3  309.87   43.00
   1  19  -3  369.56   39.90
  -1 -19  -3  586.04  100.89
   1 -19   3  505.35   69.19
   1 -19   3  570.84   83.39
   1  19   3  520.15   50.79
  -1  19  -3  445.56   51.69
  -3 -19  -3  262.47   77.79
   3 -19   3  254.07   53.89
   3 -19   3  272.47   49.50
  -3 -19  -3  293.47   51.29
  -3  19  -3  261.17   35.40
   3  19   3  270.77   35.80
  -5 -19  -3  198.68   46.70
   5 -19   3  158.68   43.40
  -5 -19  -3  180.78  111.29
   5 -19   3  144.09   50.29
  -5  19  -3  275.47   37.20
   5  19   3  252.27   37.30
   4 -20  -3   55.79   54.19
  -4 -20   3   44.50   98.79
  -2 -20   3    6.40   49.20
   2 -20  -3   64.09   56.19
  -2  20   3   45.30   25.80
   2  20  -3   77.49   33.30
   0 -20   3    9.50   41.90
   0 -20  -3    5.70   45.70
   0 -20  -3   39.40   67.49
   0 -20   3  -31.90   45.40
   0  20   3   55.89   26.50
   0  20  -3   18.90   27.30
  -2 -20  -3  132.19   49.50
   2 -20   3   92.39   47.90
   2 -20   3   57.79   43.70
  -2 -20  -3   49.60   85.29
   2  20   3  100.29   29.10
  -2  20  -3   61.19   31.10
  -4 -20  -3  101.39   80.19
   4 -20   3   28.40   49.50
 -12   0   4  615.34   53.99
 -12   0   4  675.13   66.89
  12   0  -4  592.44   54.19
  10   0  -4 1210.88   81.09
 -10   0   4 1119.69   80.19
 -10   0   4 1046.00   85.99
  -8   0   4  651.23   49.80
  -8   0   4  650.23   51.59
   8   0  -4  732.43   50.79
  -8   0   4  704.23   51.09
  -8   0   4  722.83   55.29
   8   0  -4  721.33   57.79
  -6   0   4   -0.90    6.10
   6   0  -4    2.10   13.10
  -6   0   4   -2.30    5.20
   6   0  -4   13.30    6.40
  -6   0   4   10.20    7.50
  -6   0   4   -9.90    9.80
   4   0  -4  189.08   16.10
  -4   0   4  202.88   16.50
  -4   0   4  215.08   16.40
   4   0  -4  211.38   16.70
  -4   0   4  225.38   19.70
   4   0  -4  216.28   19.50
  -2   0   4 2098.89  135.19
   2   0  -4 2254.07  135.29
   2   0  -4 2039.90  134.79
   2   0  -4 1966.30  134.79
  -2   0   4 2041.70  134.79
  -2   0   4 1921.51  134.79
   0   0  -4  191.28   14.60
   0   0  -4  219.78   14.10
   0   0   4  184.78   14.00
   0   0   4  224.38   15.80
   0   0  -4  213.68   16.10
   0   0   4  169.38   14.50
   2   0   4  694.53   52.39
   2   0   4  871.21   53.89
  -2   0  -4  843.72   51.29
  -2   0  -4  662.63   53.69
  -2   0  -4  763.12   52.49
   4   0   4 2857.41  187.28
  -4   0  -4 2767.72  188.28
   4   0   4 3008.10  184.78
  -4   0  -4 2763.52  184.58
  -4   0  -4 2634.44  186.38
  -6   0  -4 1405.06   90.89
  -6   0  -4 1300.77   95.89
  -6   0  -4 1292.17   93.89
   6   0   4 1456.65   95.69
   6   0   4 1319.07   91.09
  -6   0  -4 1295.87   93.79
   8   0   4 1479.05  105.89
   8   0   4 1531.55  107.29
  -8   0  -4 1645.54  105.99
  -8   0  -4 1619.24  111.59
  -8   0  -4 1534.45  107.39
  -8   0  -4 1523.15  112.79
  -8   0  -4 1692.33  115.29
  10   0   4  939.31   66.09
 -10   0  -4  967.80   80.49
  10   0   4  939.91   68.79
 -10   0  -4  909.01   75.69
 -10   0  -4  857.91   65.99
 -10   0  -4  892.61   76.59
  12   0   4   42.10   19.30
 -12   0  -4   44.50   33.60
 -13  -1   4  -36.50   23.10
  13  -1  -4   -6.60   23.80
 -13  -1   4  -29.00   38.40
  13   1  -4   15.40   22.70
 -13   1   4  -19.10   37.70
 -13   1   4   26.20   24.40
  11  -1  -4    7.30   16.40
 -11  -1   4   -1.60   27.30
 -11  -1   4   15.60   14.40
 -11   1   4   -0.60   14.10
 -11   1   4   20.10   26.20
  11   1  -4   14.60   15.80
  -9  -1   4  237.48   24.00
  -9  -1   4  274.87   32.20
   9  -1  -4  232.68   24.90
  -9   1   4  236.28   24.00
   9   1  -4  235.58   24.20
   9   1  -4  169.78   35.60
  -9   1   4  235.58   30.80
  -9   1   4  242.98   31.40
  -7  -1   4  895.21   55.79
   7  -1  -4  944.81   60.89
  -7  -1   4  709.23   55.89
   7  -1  -4  741.13   55.59
  -7  -1   4  807.62   59.39
  -7  -1   4  742.83   55.59
  -7   1   4  796.72   58.69
   7   1  -4  767.32   55.69
  -7   1   4  774.22   55.89
  -7   1   4  753.92   55.19
   7   1  -4  830.92   61.29
  -7   1   4  770.72   55.69
  -5  -1   4  854.51   57.39
  -5  -1   4  771.12   56.99
   5  -1  -4  820.62   57.39
   5  -1  -4  884.31   59.29
  -5  -1   4  874.81   57.69
  -5   1   4  822.32   57.29
  -5   1   4  873.31   59.19
  -5   1   4  798.52   57.29
   5   1  -4  895.71   60.09
   5   1  -4  840.02   57.29
  -5   1   4  791.82   56.99
  -3  -1   4 4257.77  272.07
  -3  -1   4 4310.87  270.97
   3  -1  -4 4022.30  271.07
   3  -1  -4 4104.69  270.87
  -3  -1   4 4043.50  270.87
  -3   1   4 4439.06  271.07
  -3   1   4 4331.07  271.27
  -3   1   4 4046.70  270.97
   3   1  -4 3653.33  270.77
   3   1  -4 4013.20  270.87
   3   1  -4 4352.76  272.07
  -1  -1   4 1661.83  106.99
   1  -1  -4 1646.94  107.29
  -1  -1   4 1651.73  107.99
  -1  -1   4 1591.74  107.19
  -1   1   4 1709.63  107.39
  -1   1   4 1625.84  107.19
   1   1  -4 1462.65  107.79
   1   1  -4 1850.91  107.39
   1   1  -4 1503.25  106.99
  -1  -1  -4 3361.86  204.78
   1  -1   4 3133.29  203.38
  -1  -1  -4 2766.52  202.28
  -1  -1  -4 3165.58  201.88
   1  -1   4 2752.82  202.68
  -1   1  -4 3277.27  203.68
   1   1   4 2800.42  202.28
   1   1   4 3343.67  204.48
  -1   1  -4 3207.88  201.68
  -1   1  -4 2986.40  202.88
   1   1   4 3199.98  201.98
  -3  -1  -4 3730.23  245.78
   3  -1   4 3638.04  241.98
  -3  -1  -4 4012.00  243.98
  -3  -1  -4 3710.13  242.08
  -3  -1  -4 3619.84  243.18
   3  -1   4 3714.73  243.58
   3  -1   4 3610.24  244.08
  -3   1  -4 3605.44  244.48
  -3   1  -4 3935.11  241.98
  -3   1  -4 3653.93  243.48
   3   1   4 3481.25  242.08
   3   1   4 3667.03  244.78
  -5  -1  -4  188.38   20.70
  -5  -1  -4  198.28   20.90
   5  -1   4  192.68   16.30
  -5  -1  -4  185.78   16.20
  -5  -1  -4  193.68   24.20
   5  -1   4  183.08   23.20
   5   1   4  155.38   21.80
  -5   1  -4  194.18   16.40
  -5   1  -4  179.58   20.70
   5   1   4  161.78   15.30
  -5   1  -4  167.18   20.20
   5   1   4  203.68   16.50
  -5   1  -4  177.98   20.80
  -7  -1  -4   10.20    8.50
  -7  -1  -4   12.30   15.10
  -7  -1  -4    9.70   12.40
  -7  -1  -4   14.60    7.10
  -7  -1  -4    5.70   14.60
   7  -1   4   13.40    7.70
   7   1   4   18.80    7.70
  -7   1  -4    3.20   12.30
  -7   1  -4   20.20   14.00
   7   1   4    5.40    8.30
   7   1   4   28.10   15.50
  -7   1  -4    8.80   14.60
  -7   1  -4   12.70    8.30
  -7   1  -4   22.80   13.90
  -9  -1  -4  380.26   47.70
  -9  -1  -4  436.66   43.80
   9  -1   4  422.96   33.10
   9  -1   4  406.56   35.00
  -9  -1  -4  420.46   32.80
   9   1   4  390.86   35.40
  -9   1  -4  386.86   42.60
  -9   1  -4  379.96   47.00
   9   1   4  422.76   33.30
  -9   1  -4  357.56   43.90
  -9   1  -4  426.66   32.70
 -11  -1  -4  409.96   56.09
  11  -1   4  376.16   38.80
 -11  -1  -4  345.17   61.89
  11  -1   4  354.66   35.60
 -11   1  -4  376.66   61.19
  11   1   4  399.16   38.80
  11   1   4  376.16   36.70
 -11   1  -4  424.26   53.19
 -13  -1  -4  317.67   55.69
 -13  -1  -4  344.27   46.40
  13  -1   4  345.87   43.20
 -13  -1  -4  368.26   68.49
 -13   1  -4  374.66   49.80
 -13   1  -4  429.56   64.89
 -13   1  -4  459.85   58.69
  13   1   4  410.26   44.50
 -12  -2   4  457.55   64.49
 -12  -2   4  491.45   49.60
  12  -2  -4  630.24   50.29
 -12   2   4  516.05   49.20
 -12   2   4  551.74   66.29
  12   2  -4  558.24   51.39
 -10  -2   4  861.61   73.79
  10  -2  -4  892.51   64.69
 -10  -2   4  857.81   63.79
 -10   2   4  859.41   64.09
 -10   2   4  896.01   70.39
  10   2  -4  877.41   64.49
   8  -2  -4  374.96   29.90
  -8  -2   4  325.47   31.10
  -8  -2   4  307.07   32.50
  -8  -2   4  349.47   29.30
  -8  -2   4  357.86   36.40
   8   2  -4  345.47   42.30
  -8   2   4  362.76   31.60
   8   2  -4  344.77   29.40
  -8   2   4  333.57   34.40
  -8   2   4  395.26   29.20
  -8   2   4  375.46   35.20
  -8   2   4  367.96   30.70
   6  -2  -4 1166.38   77.19
  -6  -2   4 1046.00   76.59
  -6  -2   4 1166.08   76.89
  -6  -2   4 1077.69   79.89
  -6  -2   4 1151.38   77.09
   6   2  -4 1013.90   76.59
  -6   2   4 1117.09   76.49
  -6   2   4 1158.48   76.99
  -6   2   4 1081.19   76.89
  -6   2   4 1254.57   78.79
  -6   2   4 1184.88   78.69
   6   2  -4 1146.59   79.79
  -4  -2   4  260.67   20.80
  -4  -2   4  260.17   23.40
   4  -2  -4  281.97   20.10
  -4  -2   4  274.67   20.40
   4  -2  -4  284.97   20.70
  -4  -2   4  267.67   20.10
  -4   2   4  245.38   22.80
  -4   2   4  278.87   20.80
  -4   2   4  253.47   20.00
   4   2  -4  259.67   20.30
   4   2  -4  293.57   23.80
   2  -2  -4  234.58   17.10
  -2  -2   4  235.08   17.10
   2  -2  -4  232.68   20.80
  -2  -2   4  255.27   17.30
  -2   2   4  255.37   17.40
  -2   2   4  242.98   20.30
  -2   2   4  235.38   17.30
  -2   2   4  212.98   17.10
   2   2  -4  246.48   17.10
   0  -2   4  715.73   49.20
   0  -2  -4  736.03   47.60
   0  -2   4  680.93   47.60
   0  -2  -4  710.53   47.90
   0   2   4  723.73   47.90
   0   2   4  693.23   47.60
   0   2  -4  750.92   47.70
   0   2  -4  743.63   49.10
   0   2  -4  762.62   49.10
   0   2  -4  683.23   48.80
   2  -2   4 3007.50  197.08
  -2  -2  -4 3039.80  199.88
  -2  -2  -4 2781.62  195.08
  -2  -2  -4 2796.72  195.58
  -2  -2  -4 3111.99  196.88
   2  -2   4 3233.08  195.48
  -2   2  -4 2995.20  197.08
   2   2   4 2946.01  195.68
   2   2   4 2940.01  198.78
  -2   2  -4 3116.59  198.18
  -2   2  -4 3076.89  195.28
  -2   2  -4 2915.21  197.48
   2   2   4 2895.51  195.18
   4  -2   4 1308.67   82.49
  -4  -2  -4 1204.48   81.79
  -4  -2  -4 1227.78   82.59
  -4  -2  -4 1268.17   84.99
  -4  -2  -4 1231.28   84.39
   4  -2   4 1270.77   84.79
  -4  -2  -4 1225.38   87.39
  -4   2  -4 1239.58   84.79
   4   2   4 1216.18   81.99
  -4   2  -4 1136.29   82.09
   4   2   4 1212.88   85.89
   4   2   4 1252.07   82.69
  -4   2  -4 1199.78   85.29
  -4   2  -4 1287.37   86.29
  -6  -2  -4 1819.02  121.29
   6  -2   4 1901.71  121.29
  -6  -2  -4 1759.22  119.99
  -6  -2  -4 1700.03  124.29
  -6  -2  -4 1709.13  123.99
  -6  -2  -4 1761.02  126.89
  -6   2  -4 1924.51  120.89
  -6   2  -4 1822.52  125.39
  -6   2  -4 1841.42  125.39
  -6   2  -4 1736.03  123.89
   6   2   4 1846.62  125.19
   6   2   4 1895.51  120.59
  -6   2  -4 1802.72  123.39
   6   2   4 1806.42  121.39
   8  -2   4 1093.79   77.79
  -8  -2  -4 1166.58   84.49
  -8  -2  -4 1207.78   77.99
  -8  -2  -4 1172.88   89.09
  -8  -2  -4 1047.40   86.59
  -8  -2  -4  976.50   79.69
   8  -2   4 1096.59   79.19
  -8   2  -4 1031.70   85.59
   8   2   4 1147.79   79.69
  -8   2  -4 1194.98   85.59
   8   2   4 1175.28   85.79
   8   2   4 1191.18   78.99
  -8   2  -4 1093.79   83.89
  -8   2  -4 1228.18   79.59
  -8   2  -4 1248.58   86.59
 -10  -2  -4  395.16   57.29
  10  -2   4  493.05   39.10
 -10  -2  -4  442.76   50.09
  10   2   4  406.26   36.60
 -10   2  -4  376.56   55.19
 -10   2  -4  399.96   48.00
  10   2   4  431.56   39.00
 -12  -2  -4  277.27   62.79
 -12  -2  -4  479.85   62.09
  12  -2   4  352.76   36.60
 -12   2  -4  373.56   54.99
 -12   2  -4  329.07   39.60
 -12   2  -4  306.07   47.80
  12   2   4  287.27   40.10
  12   2   4  295.37   38.20
 -13  -3   4   13.50   23.80
 -13  -3   4   21.00   38.60
  13   3  -4   13.80   23.10
 -13   3   4  -23.80   29.30
 -13   3   4  -50.99   24.10
 -13   3   4  -27.20   39.10
 -11  -3   4   30.90   29.30
 -11  -3   4   26.60   16.40
 -11   3   4   48.30   17.90
  11   3  -4   33.20   16.70
 -11   3   4   57.29   26.90
   9  -3  -4   65.39   14.80
  -9  -3   4   95.19   24.90
  -9  -3   4  146.29   18.60
  -9   3   4   71.49   20.10
  -9   3   4  102.19   15.30
   9   3  -4  102.89   16.30
  -9   3   4   98.59   20.20
  -7  -3   4  320.37   25.80
  -7  -3   4  289.67   24.60
  -7  -3   4  249.97   31.30
   7  -3  -4  296.87   25.00
  -7  -3   4  312.47   26.70
  -7   3   4  315.77   28.10
  -7   3   4  285.77   24.30
   7   3  -4  305.57   25.20
  -7   3   4  323.47   26.30
   7   3  -4  255.07   33.00
  -7   3   4  311.97   25.70
  -7   3   4  313.67   29.20
  -5  -3   4 1484.35  100.99
   5  -3  -4 1428.66  103.29
  -5  -3   4 1615.74  101.29
  -5  -3   4 1462.25  103.59
  -5  -3   4 1430.66  101.09
  -5   3   4 1497.85  103.79
  -5   3   4 1560.44  100.79
   5   3  -4 1596.84  104.09
  -5   3   4 1497.95  101.29
  -5   3   4 1607.84  100.99
   5   3  -4 1452.55  101.09
  -3  -3   4  646.74   45.30
   3  -3  -4  707.23   45.20
  -3  -3   4  676.23   45.50
  -3  -3   4  637.94   47.90
   3   3  -4  687.23   47.90
   3   3  -4  660.93   45.10
   3   3  -4  672.33   45.40
  -3   3   4  662.73   48.60
  -3   3   4  657.83   45.20
  -3   3   4  665.53   45.40
  -1  -3   4  985.00   74.29
  -1  -3   4 1027.70   73.69
  -1  -3   4 1190.68   72.69
   1  -3  -4 1045.30   72.59
   1  -3  -4 1097.69   72.69
   1  -3  -4 1263.67   76.69
   1   3  -4 1197.28   72.69
   1   3  -4 1098.79   72.59
  -1   3   4 1090.89   72.79
   1   3  -4 1063.69   74.39
   1   3  -4 1056.89   73.89
   1  -3   4  397.46   29.80
  -1  -3  -4  413.56   28.50
  -1  -3  -4  396.26   27.60
  -1  -3  -4  393.36   27.40
   1   3   4  395.46   28.40
  -1   3  -4  396.46   29.60
  -1   3  -4  413.66   30.00
   1   3   4  417.96   27.60
   1   3   4  409.16   27.80
  -3  -3  -4    4.10   11.70
  -3  -3  -4   17.30    4.60
  -3  -3  -4   21.40    4.00
  -3  -3  -4   22.50    8.20
   3  -3   4   22.40    4.70
   3  -3   4   31.60    7.70
  -3   3  -4   28.10    8.40
   3   3   4   23.80    8.80
  -3   3  -4   19.20    7.40
   3   3   4   18.70    5.00
   3   3   4   21.80    4.80
   3   3   4   28.00    9.60
  -3   3  -4    4.60    6.20
  -5  -3  -4   26.30   10.80
   5  -3   4   32.30    6.90
  -5  -3  -4   23.30    6.80
  -5  -3  -4   29.60    6.10
  -5  -3  -4   44.10   14.80
   5  -3   4   40.80   10.00
   5   3   4   26.50    6.80
  -5   3  -4   32.70    9.80
   5   3   4   31.20   13.20
  -5   3  -4   33.00    6.40
   5   3   4   38.60   11.40
  -5   3  -4   30.90   10.40
   5   3   4   35.30    6.90
  -5   3  -4   17.00   10.30
   7  -3   4   -1.80    7.80
  -7  -3  -4    9.70    9.40
  -7  -3  -4   24.40   19.00
  -7  -3  -4    7.80    7.00
  -7  -3  -4   10.70   14.10
  -7  -3  -4   -3.80   15.00
  -7   3  -4   22.00   14.70
  -7   3  -4   14.40   14.50
   7   3   4    7.70    8.10
   7   3   4    5.50   14.80
  -7   3  -4    7.50   14.60
  -7   3  -4    3.00   12.20
   7   3   4    1.80    8.10
  -7   3  -4   -0.80    8.20
  -9  -3  -4  140.49   20.00
   9  -3   4  152.28   18.90
  -9  -3  -4  115.89   25.50
  -9  -3  -4  125.99   34.10
   9   3   4  172.08   21.40
  -9   3  -4  131.29   26.70
  -9   3  -4  147.39   26.40
  -9   3  -4   86.89   26.20
   9   3   4  148.09   29.00
   9   3   4  131.99   18.70
 -11  -3  -4  -21.70   41.00
 -11  -3  -4  123.89   33.50
 -11   3  -4   75.79   36.80
 -11   3  -4   65.49   31.70
  11   3   4   77.29   21.60
  11   3   4  116.49   20.70
 -13  -3  -4  227.88   51.59
 -13  -3  -4  254.77   33.20
 -13   3  -4  296.87   57.89
 -13   3  -4  212.58   34.10
  13   3   4  256.87   32.20
 -13   3  -4  301.67   52.49
 -13   3  -4  265.37   35.10
 -12  -4   4  171.98   27.40
 -12  -4   4  165.08   39.10
  12   4  -4  206.38   28.50
 -12   4   4  193.18   28.20
 -12   4   4  126.99   38.10
 -12   4   4  181.38   28.70
 -10  -4   4   65.99   14.80
 -10  -4   4  106.09   25.00
 -10   4   4    5.10   26.40
 -10   4   4   65.89   16.00
 -10   4   4   86.49   18.10
  10   4  -4   87.29   16.30
 -10   4   4   61.19   22.20
  -8  -4   4  188.08   20.90
  -8  -4   4  250.27   29.60
  -8   4   4  221.18   24.10
  -8   4   4  239.98   22.80
  -8   4   4  186.38   25.20
  -8   4   4  225.38   27.80
  -8   4   4  272.17   27.60
   8   4  -4  217.98   22.80
   8   4  -4  232.28   31.60
  -8   4   4  190.58   20.70
  -8   4   4  182.38   31.40
  -6  -4   4  115.49   13.70
  -6  -4   4  102.29   14.40
  -6  -4   4  137.29   18.80
  -6  -4   4  102.49   12.90
   6  -4  -4  103.89   17.90
  -6   4   4  104.79   13.80
  -6   4   4  114.79   14.90
  -6   4   4  128.89   15.70
   6   4  -4  110.79   18.60
   6   4  -4  119.69   13.30
  -6   4   4  100.89   12.70
  -6   4   4  119.89   20.20
  -6   4   4  130.49   14.90
  -4  -4   4   63.29    8.10
   4  -4  -4   75.59   14.90
   4  -4  -4   60.19    7.70
  -4  -4   4   67.09    8.80
  -4  -4   4   50.49    7.90
  -4   4   4   62.79    8.70
  -4   4   4   71.09   15.00
  -4   4   4   65.49    8.20
   4   4  -4   57.49    7.90
  -4   4   4   54.19    7.60
   4   4  -4   50.09   12.10
  -2  -4   4   13.80    3.50
  -2  -4   4    7.40    3.80
   2  -4  -4   19.10    4.10
   2  -4  -4   12.30    3.30
  -2  -4   4   14.50    7.20
   2  -4  -4   16.80   12.00
   2   4  -4   14.80    3.40
   2   4  -4   13.40    4.50
  -2   4   4   38.50   10.10
  -2   4   4   18.10    4.30
  -2   4   4   11.60    3.70
   2   4  -4   19.40    7.60
   0  -4   4  201.68   17.70
   0  -4   4  180.38   17.80
   0  -4  -4  198.48   14.70
   0  -4  -4  196.58   14.60
   0  -4  -4  261.97   28.90
   0   4   4  196.48   14.70
   0   4   4  208.68   15.10
   0   4  -4  208.68   17.50
   0   4  -4  208.28   18.40
   2  -4   4  296.37   23.40
  -2  -4  -4  259.77   19.20
   2  -4   4  246.88   21.90
  -2  -4  -4  292.47   23.00
  -2  -4  -4  274.27   19.20
  -2   4  -4  254.67   22.90
  -2   4  -4  279.07   22.30
   2   4   4  234.28   19.50
   2   4   4  281.97   22.00
   2   4   4  259.77   19.50
   4  -4   4  695.53   46.90
  -4  -4  -4  593.94   46.40
  -4  -4  -4  589.64   43.60
  -4  -4  -4  658.03   43.50
  -4   4  -4  648.74   48.30
   4   4   4  618.24   43.40
  -4   4  -4  622.74   47.10
   4   4   4  583.34   49.00
   4   4   4  612.34   46.80
   4   4   4  628.74   43.90
  -4   4  -4  698.13   47.20
   6  -4   4  141.99   19.90
  -6  -4  -4  122.89   18.50
  -6  -4  -4  128.29   16.00
   6  -4   4  131.69   14.50
  -6  -4  -4  166.38   14.30
  -6   4  -4  118.19   18.60
   6   4   4  134.79   15.30
  -6   4  -4  138.39   21.70
  -6   4  -4  110.89   18.30
   6   4   4  108.49   18.10
  -6   4  -4  114.09   14.10
   6   4   4  169.98   21.90
   6   4   4  138.29   14.30
  -8  -4  -4  441.26   39.50
  -8  -4  -4  363.96   29.00
   8  -4   4  331.87   29.20
   8   4   4  400.56   29.30
  -8   4  -4  256.97   39.80
  -8   4  -4  318.87   38.20
  -8   4  -4  335.47   29.40
   8   4   4  376.26   30.70
  -8   4  -4  271.87   40.60
   8   4   4  297.37   39.80
  -8   4  -4  297.97   36.40
  10   4   4  129.89   33.60
 -10   4  -4  142.09   31.50
 -10   4  -4  153.68   29.70
 -12  -4  -4   38.50   52.49
 -12  -4  -4   23.90   37.40
  12   4   4   29.40   20.30
 -12   4  -4  -11.70   38.00
 -12   4  -4  -16.30   20.60
 -12   4  -4   -2.60   41.90
  12   4   4   -2.50   21.60
 -13  -5   4    9.30   22.80
 -13  -5   4   27.30   42.40
 -13   5   4  -42.90   25.80
  13   5  -4    2.70   24.40
 -13   5   4   32.00   25.80
 -13   5   4   -3.90   40.20
 -11  -5   4   10.20   30.00
 -11  -5   4   -9.30   15.70
 -11   5   4  -13.00   36.20
 -11   5   4   -1.70   22.00
 -11   5   4    3.90   17.80
  11   5  -4   40.70   17.20
 -11   5   4   10.60   26.20
 -11   5   4   16.10   17.30
  -9  -5   4   29.40   12.70
  -9  -5   4   77.19   23.20
  -9   5   4   69.29   14.80
  -9   5   4   55.39   13.60
  -9   5   4   27.10   18.20
  -9   5   4   41.90   23.50
   9   5  -4   38.60   13.90
  -9   5   4   71.59   23.10
  -9   5   4   32.50   18.10
   7  -5  -4   21.60   13.30
  -7  -5   4   43.70   15.70
   7   5  -4   40.30   17.50
  -7   5   4   19.90   10.80
  -7   5   4   21.60   17.80
  -7   5   4   22.30   13.30
  -7   5   4   21.00    7.80
  -7   5   4    0.80    9.10
  -7   5   4   49.10    9.80
  -5  -5   4  162.38   21.70
  -5  -5   4  156.48   15.00
  -5  -5   4  104.79   12.80
   5  -5  -4  121.79   18.60
   5   5  -4  148.59   13.50
  -5   5   4  128.79   13.00
  -5   5   4  128.59   13.90
  -5   5   4  124.39   14.50
   5   5  -4  112.09   17.80
  -5   5   4  135.49   20.40
  -3  -5   4  123.79   16.40
   3  -5  -4   78.09   10.60
  -3  -5   4  104.49   11.00
  -3  -5   4  120.29   11.00
   3  -5  -4  143.29   18.90
  -3  -5   4   86.89   10.00
   3   5  -4  100.49   10.40
   3   5  -4  114.39   15.30
  -3   5   4  138.69   22.60
  -3   5   4   92.79   10.60
   1  -5  -4   39.90   13.60
  -1  -5   4   48.00   10.50
  -1  -5   4   54.59    6.30
   1  -5  -4   37.60    5.30
  -1  -5   4   44.50    9.40
   1   5  -4   53.59   10.50
  -1   5   4   43.10    5.80
  -1   5   4   63.69   13.00
   1   5  -4   39.30    5.70
   1   5  -4   46.20    9.20
   1  -5   4  131.69   15.70
  -1  -5  -4  141.29   11.30
   1  -5   4  138.09   15.30
  -1  -5  -4  160.48   15.20
  -1  -5  -4  122.59   10.80
  -1  -5  -4  144.79   20.00
  -1   5  -4  156.08   15.20
   1   5   4  132.69   11.90
   1   5   4  135.79   13.20
  -1   5  -4  136.09   17.80
   1   5   4  131.59   11.70
  -3  -5  -4  168.78   19.60
  -3  -5  -4  150.48   13.40
   3  -5   4  174.88   18.80
   3  -5   4  169.78   17.60
  -3  -5  -4  161.38   13.80
  -3   5  -4  150.28   20.20
   3   5   4  151.68   23.50
   3   5   4  187.78   19.70
   3   5   4  179.78   14.00
  -3   5  -4  154.58   18.50
   3   5   4  134.89   13.80
   5  -5   4   49.30   11.90
  -5  -5  -4   20.90   16.30
  -5  -5  -4   66.79    9.40
  -5  -5  -4   41.80    8.90
  -5  -5  -4   65.09   14.20
  -5   5  -4   60.49   14.30
   5   5   4   86.89   16.00
   5   5   4   68.69   14.90
   5   5   4   52.09    8.90
  -5   5  -4   68.09   14.00
  -5   5  -4   68.99   15.30
   5   5   4   66.39    8.90
  -7  -5  -4  126.29   17.90
   7  -5   4  165.68   24.00
  -7  -5  -4  148.29   23.50
  -7  -5  -4  164.78   17.70
   7  -5   4  180.38   18.10
   7   5   4  162.18   19.20
   7   5   4  171.68   23.60
  -7   5  -4  163.38   23.30
  -7   5  -4  167.18   23.50
   7   5   4  149.99   17.30
  -7   5  -4  192.08   18.00
  -7   5  -4  188.88   27.10
   7   5   4  163.88   27.80
  -9  -5  -4  -13.60   30.30
  -9  -5  -4    9.60   21.60
   9   5   4  -13.30   11.50
   9   5   4  -17.30   21.40
   9   5   4   11.40   13.20
  -9   5  -4   -3.30   20.70
  -9   5  -4    9.50   18.00
  -9   5  -4   -7.40   14.60
 -11  -5  -4   93.89   34.10
 -11  -5  -4   56.49   46.40
 -11   5  -4  103.29   19.20
 -11   5  -4   88.79   33.40
 -11   5  -4  119.59   22.20
  11   5   4  103.89   23.00
  11   5   4  117.89   20.70
 -11   5  -4   82.89   31.40
 -13  -5  -4   33.20   43.30
 -13  -5  -4   -8.80   27.80
 -13   5  -4  -20.20   40.50
 -13   5  -4   65.79   55.89
 -13   5  -4   20.40   27.20
  13   5   4   50.69   24.50
 -13   5  -4   33.80   24.30
 -12  -6   4   28.70   38.30
 -12  -6   4   32.30   19.40
 -12   6   4   58.69   21.50
 -12   6   4    8.50   34.90
 -12   6   4    1.70   26.30
 -12   6   4   37.30   20.90
  12   6  -4   41.70   21.30
 -10  -6   4  -34.00   25.90
 -10  -6   4  -11.90   13.60
 -10   6   4  -40.00   25.00
 -10   6   4  -10.60   32.40
  10   6  -4   13.10   15.90
 -10   6   4   17.50   13.60
 -10   6   4   19.20   15.10
 -10   6   4    2.90   20.60
 -10   6   4   39.40   23.80
  -8  -6   4  143.49   18.30
   8  -6  -4  158.18   24.30
  -8  -6   4  128.59   25.10
  -8   6   4  139.69   19.20
  -8   6   4  116.99   17.10
  -8   6   4  133.29   17.10
  -8   6   4  105.59   19.30
  -8   6   4  169.58   27.60
  -8   6   4  141.99   20.50
   8   6  -4  137.09   18.30
  -6  -6   4  107.09   13.50
  -6  -6   4  116.19   13.30
   6  -6  -4   92.09   18.50
  -6  -6   4   98.69   13.00
  -6  -6   4   90.29   19.50
  -6   6   4  112.39   14.60
   6   6  -4  102.89   20.30
  -6   6   4  125.49   13.20
   6   6  -4  101.59   14.20
  -6   6   4  131.09   15.20
  -6   6   4   91.09   20.70
  -6   6   4  117.59   14.30
  -4  -6   4   51.29   13.40
  -4  -6   4   50.09    8.00
  -4  -6   4   65.59    8.80
  -4  -6   4   56.29    9.10
   4  -6  -4   77.59   10.40
   4  -6  -4   87.19   17.00
  -4   6   4  106.79   20.30
   4   6  -4   76.99   14.80
   4   6  -4   70.99    9.10
  -2  -6   4   29.70    5.80
  -2  -6   4   37.20    9.10
  -2  -6   4   28.30   11.40
   2  -6  -4   -1.40   12.60
   2   6  -4   19.00    5.20
   2   6  -4   49.90   11.20
   2   6  -4   26.50   11.20
  -2   6   4   27.70   13.70
   0  -6  -4   65.99   15.90
   0  -6   4   51.69    6.60
   0  -6  -4   46.20    6.50
   0  -6   4   50.29   10.70
   0  -6   4   59.99   10.80
   0   6  -4   56.79   13.00
   0   6   4   60.49    7.40
   0   6  -4   60.59    7.50
   0   6  -4   62.89   11.20
  -2  -6  -4   14.70   12.50
  -2  -6  -4    6.60    4.30
  -2  -6  -4    7.40    4.00
   2  -6   4   10.00    8.40
  -2  -6  -4   -4.20    8.50
   2  -6   4   12.60    8.30
   2   6   4   17.80    5.30
   2   6   4   -1.50   13.60
   2   6   4   18.40    7.70
  -2   6  -4    1.00    8.40
   2   6   4    6.10    4.40
  -2   6  -4   12.50   12.30
   4  -6   4   10.70    9.70
  -4  -6  -4   17.80   10.40
  -4  -6  -4   10.70    5.50
  -4  -6  -4    8.50    5.20
   4  -6   4    7.50    8.60
   4   6   4   15.80   12.00
   4   6   4    6.60   14.20
  -4   6  -4   10.60   10.60
   4   6   4   10.80    5.60
  -4   6  -4    9.00   11.50
   4   6   4   14.30    5.50
  -6  -6  -4   66.39   11.10
  -6  -6  -4  105.39   13.70
  -6  -6  -4   80.59   17.70
   6  -6   4   62.49   15.00
  -6   6  -4   79.99   17.20
  -6   6  -4   60.19   16.80
  -6   6  -4   98.79   20.20
   6   6   4   61.69   10.20
   6   6   4   68.99   17.30
   6   6   4   53.19   17.60
  -8  -6  -4   47.10   14.20
  -8   6  -4   70.29   28.40
  -8   6  -4   50.49   12.50
  -8   6  -4   68.39   24.50
  -8   6  -4   50.59   17.90
   8   6   4   65.19   20.20
 -10  -6  -4   31.60   37.30
 -10  -6  -4   43.80   28.90
 -10   6  -4   30.00   16.30
 -10   6  -4   24.00   28.30
  10   6   4   26.00   15.40
 -10   6  -4   47.50   27.30
  10   6   4   18.60   29.70
 -12  -6  -4  -36.10   57.59
 -12  -6  -4   23.10   37.00
  12   6   4   36.10   22.80
 -12   6  -4   -6.70   21.50
 -12   6  -4    3.70   38.20
  12   6   4   14.80   22.80
 -12   6  -4   14.10   38.50
 -13  -7   4   56.79   52.19
 -13  -7   4  -52.19   22.90
 -13   7   4   29.10   40.30
 -13   7   4   28.10   30.10
  13   7  -4   15.00   26.40
 -11  -7   4   19.10   37.50
 -11  -7   4   28.20   17.30
 -11   7   4   27.80   24.70
 -11   7   4   46.80   19.60
  11   7  -4   16.00   18.20
 -11   7   4   45.80   28.30
 -11   7   4    4.20   18.80
  -9  -7   4  153.88   31.30
  -9  -7   4  199.68   23.40
  -9   7   4  127.09   33.60
  -9   7   4  134.09   18.80
  -9   7   4  147.79   19.60
  -7  -7   4   39.90   12.70
  -7  -7   4   40.90   19.30
  -7  -7   4   43.80    9.70
   7  -7  -4   46.00   17.90
  -7   7   4   39.60   13.20
  -7   7   4   36.60   10.10
  -7   7   4   33.70   10.10
  -7   7   4   15.00   21.40
   7   7  -4   41.10   10.30
  -7   7   4   53.69    9.40
   5  -7  -4  312.37   32.30
  -5  -7   4  299.27   25.00
  -5  -7   4  266.37   23.20
  -5  -7   4  333.07   32.30
  -5  -7   4  309.77   24.90
   5   7  -4  318.27   24.10
   5   7  -4  238.38   29.90
  -5   7   4  284.47   23.80
  -5   7   4  326.57   39.50
  -5   7   4  306.57   24.80
   3  -7  -4  620.34   43.10
  -3  -7   4  569.14   47.30
   3  -7  -4  635.74   50.99
  -3  -7   4  661.63   43.60
  -3  -7   4  543.45   48.40
   3   7  -4  577.14   47.70
  -3   7   4  638.54   43.30
   3   7  -4  660.63   43.40
  -3   7   4  677.03   53.39
  -1  -7   4  181.28   13.90
   1  -7  -4  181.98   25.10
   1  -7  -4  154.58   13.80
  -1  -7   4  169.88   22.00
  -1  -7   4  146.69   19.10
  -1   7   4  201.48   24.80
   1   7  -4  155.58   19.70
   1   7  -4  165.68   23.30
   1   7  -4  148.39   13.80
  -1   7   4  149.39   13.70
   1  -7   4  873.31   55.29
  -1  -7  -4  778.22   55.79
  -1  -7  -4  700.43   64.99
   1  -7   4  814.02   60.49
   1  -7   4  844.12   59.29
  -1  -7  -4  925.71   59.69
  -1   7  -4  787.92   61.69
   1   7   4  783.22   56.99
  -1   7  -4  823.62   59.19
   1   7   4  801.12   56.09
  -1   7  -4  891.01   55.49
  -3  -7  -4   19.90    5.60
   3  -7   4   18.60   10.50
  -3  -7  -4   10.50   10.80
  -3  -7  -4   19.90    5.00
   3  -7   4   15.40    9.60
  -3  -7  -4   16.80   14.50
  -3   7  -4    8.30    9.90
   3   7   4   11.30    6.00
   3   7   4   11.20   10.40
  -3   7  -4    8.60   14.00
   3   7   4    7.40    5.70
   3   7   4   17.20   17.20
  -5  -7  -4   19.50   12.60
  -5  -7  -4   30.50   19.90
  -5  -7  -4   32.30    7.60
   5  -7   4   19.70   11.90
  -5  -7  -4   24.90    7.10
   5  -7   4   40.90   13.50
   5   7   4   20.80    7.60
   5   7   4    8.40   14.80
   5   7   4   23.10    8.20
   5   7   4   17.80   15.60
  -5   7  -4   61.09   18.10
  -5   7  -4   34.70   14.00
  -7  -7  -4   -5.50   23.50
  -7  -7  -4   33.60   14.00
   7  -7   4   42.70   15.40
  -7  -7  -4   51.59   18.50
  -7  -7  -4   47.30   12.30
   7   7   4   38.40   10.30
   7   7   4   49.99   19.50
   7   7   4   62.69   12.40
  -7   7  -4   66.59   26.60
  -7   7  -4   60.19   19.60
  -7   7  -4   37.40   18.80
  -9  -7  -4  166.68   30.00
   9   7   4  142.79   31.50
  -9   7  -4  150.68   29.60
   9   7   4  159.78   20.60
  -9   7  -4  203.08   28.10
  -9   7  -4  134.19   21.20
   9   7   4  152.98   22.00
 -11  -7  -4  -18.90   46.50
 -11  -7  -4   72.79   35.80
  11   7   4   38.80   20.20
 -11   7  -4   76.59   19.70
  11   7   4   60.69   26.90
 -11   7  -4   34.40   36.40
 -11   7  -4  120.19   35.50
 -12  -8   4  190.98   54.09
 -12  -8   4  247.58   33.70
 -12   8   4  233.38   31.20
 -12   8   4  244.98   41.90
 -12   8   4  260.77   35.80
  12   8  -4  258.07   33.50
 -12   8   4  181.18   41.10
 -10  -8   4  675.43   49.90
 -10  -8   4  579.94   71.19
 -10   8   4  509.25   60.99
 -10   8   4  649.14   50.39
 -10   8   4  625.74   59.49
  10   8  -4  667.83   52.29
 -10   8   4  548.45   49.90
   8  -8  -4   78.29   23.80
  -8  -8   4   59.89   13.20
  -8  -8   4   68.79   24.50
  -8   8   4   57.29   14.10
  -8   8   4   45.20   12.10
  -8   8   4   39.10   29.90
   8   8  -4   59.29   14.30
  -6  -8   4  335.87   28.40
  -6  -8   4  306.57   26.20
   6  -8  -4  324.07   36.90
  -6  -8   4  294.37   29.40
  -6  -8   4  334.97   37.60
  -6   8   4  368.66   27.30
  -6   8   4  294.37   28.70
   6   8  -4  291.67   39.30
  -6   8   4  321.07   46.30
   6   8  -4  318.57   27.00
  -4  -8   4   26.90    8.00
  -4  -8   4   42.00   14.30
  -4  -8   4   28.20    8.40
  -4  -8   4   10.70    6.40
   4  -8  -4   13.60   16.10
   4  -8  -4   17.90    6.70
   4   8  -4   35.40   15.40
  -4   8   4   41.80   21.60
  -4   8   4   25.80    7.00
   4   8  -4   29.50    7.50
  -2  -8   4  506.65   43.50
   2  -8  -4  594.24   39.30
  -2  -8   4  547.95   45.70
  -2  -8   4  572.24   39.30
   2  -8  -4  530.95   48.90
   2   8  -4  569.64   39.20
   2   8  -4  556.94   44.40
  -2   8   4  588.74   50.09
  -2   8   4  554.64   39.40
   2   8  -4  537.75   46.40
   0  -8   4    0.60    4.40
   0  -8   4   14.60   10.60
   0  -8  -4    2.50    4.50
   0  -8  -4  -27.70   17.90
   0  -8   4   -1.90    8.60
   0   8  -4   10.80   10.50
   0   8  -4    0.10   14.40
   0   8   4  -17.50   13.30
   0   8  -4    6.10    5.00
   0   8   4   -2.30    5.10
  -2  -8  -4 1475.95   98.89
  -2  -8  -4 1255.27  104.29
   2  -8   4 1427.16   98.59
  -2  -8  -4 1319.07   95.29
   2  -8   4 1528.65  101.59
   2  -8   4 1511.25   94.79
  -2   8  -4 1542.75   94.99
   2   8   4 1331.97   95.69
  -2   8  -4 1467.35  102.19
  -2   8  -4 1542.25   99.29
   2   8   4 1289.87   96.99
  -4  -8  -4  528.45   43.50
   4  -8   4  558.14   42.60
  -4  -8  -4  499.25   37.70
  -4  -8  -4  474.75   37.90
   4  -8   4  616.04   46.40
   4   8   4  502.15   38.20
   4   8   4  523.25   38.20
   4   8   4  447.56   42.90
  -4   8  -4  549.85   49.60
  -4   8  -4  626.14   44.30
  -6  -8  -4  242.88   23.40
   6  -8   4  275.57   29.20
  -6  -8  -4  212.58   23.30
  -6  -8  -4  262.97   33.10
   6   8   4  213.38   30.70
  -6   8  -4  221.28   36.80
   6   8   4  270.07   23.60
  -6   8  -4  262.17   33.10
   6   8   4  232.88   34.70
   6   8   4  302.87   24.30
  -8  -8  -4 1033.70   85.59
   8  -8   4 1027.60   81.09
  -8   8  -4 1138.69   86.79
   8   8   4 1188.08   76.79
   8   8   4  944.91   85.69
   8   8   4 1117.99   77.79
 -10  -8  -4  220.98   43.00
 -10   8  -4  269.27   29.20
  10   8   4  194.28   27.80
 -10   8  -4  237.78   38.90
  10   8   4  254.47   33.10
 -10   8  -4  278.27   39.10
 -12  -8  -4   86.19   44.70
 -12  -8  -4   22.30   59.79
  12   8   4   87.89   24.00
 -12   8  -4   66.79   24.00
 -12   8  -4   28.30   41.70
  12   8   4   76.39   28.90
 -12   8  -4   70.39   41.40
 -11  -9   4   20.50   43.30
 -11  -9   4   28.90   20.00
 -11   9   4   59.69   44.10
 -11   9   4   39.00   22.10
  11   9  -4   -4.60   19.70
 -11   9   4   31.80   22.60
   9  -9  -4  129.09   29.10
  -9  -9   4   98.29   18.00
  -9  -9   4   48.50   33.20
  -9   9   4   79.79   17.80
   9   9  -4  111.99   18.60
  -9   9   4  126.79   18.60
   7  -9  -4  761.42   63.79
  -7  -9   4  685.03   52.59
  -7  -9   4  775.22   67.19
  -7  -9   4  696.73   54.79
  -7   9   4  761.02   53.49
  -7   9   4  644.74   75.39
   7   9  -4  768.52   54.49
   5  -9  -4 1199.58   88.19
  -5  -9   4 1200.48   80.99
  -5  -9   4 1151.98   86.39
  -5  -9   4 1086.19   78.99
  -5  -9   4 1263.97   80.19
   5  -9  -4 1006.00   79.19
  -5   9   4 1110.49   79.59
  -5   9   4 1333.57   94.19
   5   9  -4 1174.28   87.59
   5   9  -4 1200.78   80.09
   3  -9  -4 1355.36   95.59
  -3  -9   4 1173.68   91.69
  -3  -9   4 1341.27   86.69
  -3  -9   4 1272.97   91.29
   3  -9  -4 1349.07   86.39
  -3   9   4 1401.66   97.89
   3   9  -4 1299.27   91.59
   3   9  -4 1256.07   86.49
   3   9  -4 1107.29   94.89
  -3   9   4 1258.47   86.49
  -1  -9   4  990.60   77.49
  -1  -9   4 1117.69   76.19
  -1  -9   4 1143.19   71.69
   1  -9  -4 1096.39   80.59
   1  -9  -4 1047.30   71.59
   1   9  -4 1007.10   75.89
  -1   9   4 1002.40   71.69
   1   9  -4 1118.09   80.49
  -1   9   4  981.40   80.49
   1   9  -4 1065.09   71.59
  -1  -9  -4  558.24   53.29
   1  -9   4  611.94   40.90
   1  -9   4  563.24   45.50
   1  -9   4  610.74   48.00
  -1  -9  -4  591.44   45.80
  -1  -9  -4  582.94   41.30
  -1   9  -4  582.84   40.90
   1   9   4  557.64   41.50
   1   9   4  541.25   43.40
  -1   9  -4  594.24   51.59
  -1   9  -4  666.83   47.00
  -3  -9  -4  702.83   56.09
  -3  -9  -4  668.13   50.59
  -3  -9  -4  680.23   49.99
   3  -9   4  853.41   59.19
   3  -9   4  733.93   54.99
  -3  -9  -4  763.62   66.39
   3   9   4  663.23   50.09
   3   9   4  719.23   51.19
   3   9   4  674.13   53.99
  -3   9  -4  770.52   55.69
  -3   9  -4  747.33   61.09
  -3   9  -4  788.22   49.99
  -5  -9  -4   18.00    8.80
   5  -9   4   25.20   14.90
  -5  -9  -4   17.20   14.20
  -5  -9  -4   18.40    9.90
  -5  -9  -4    5.60   25.40
   5  -9   4   19.20   13.70
   5   9   4   18.60    8.40
   5   9   4    6.00   22.90
  -5   9  -4   30.50   25.00
  -5   9  -4   18.00   16.40
   5   9   4   15.40    8.70
   5   9   4   -6.70   16.80
  -7  -9  -4  -17.10   19.20
  -7  -9  -4   30.10   27.00
   7  -9   4  -20.40   15.70
  -7   9  -4   29.90   23.60
  -7   9  -4   -8.90   20.50
   7   9   4   -6.40   10.60
   7   9   4   -7.60   23.80
   7   9   4    4.60   11.90
  -9  -9  -4  129.79   34.10
   9   9   4  182.28   24.40
   9   9   4  109.09   31.70
   9   9   4  177.18   21.80
  -9   9  -4  198.78   35.50
 -11  -9  -4  350.96   54.19
  11   9   4  296.87   44.30
 -11   9  -4  395.46   51.49
 -11   9  -4  421.36   56.69
  11   9   4  342.47   48.60
 -12 -10   4  420.76   70.99
 -12 -10   4  415.26   48.10
  12  10  -4  441.66   53.69
 -12  10   4  556.24   51.59
 -12  10   4  467.95   76.69
 -10 -10   4  551.64   76.19
 -10 -10   4  432.56   42.70
 -10  10   4  471.05   43.50
  10  10  -4  452.75   45.50
  -8 -10   4 1241.18   85.49
  -8 -10   4 1110.09  100.79
   8 -10  -4 1153.38   97.39
  -8  10   4 1376.16   86.69
   8  10  -4 1154.78   86.39
  -6 -10   4   -1.60   11.80
   6 -10  -4   -9.00   18.20
  -6 -10   4  -18.60   21.80
  -6 -10   4   -5.40    8.40
  -6  10   4   -0.70    9.20
   6  10  -4   13.00   10.20
  -6  10   4   40.60   42.80
   4 -10  -4  236.28   22.30
  -4 -10   4  240.98   22.70
  -4 -10   4  220.48   35.90
   4 -10  -4  304.97   36.60
  -4 -10   4  226.38   31.90
  -4  10   4  256.77   36.40
   4  10  -4  217.98   21.70
   4  10  -4  246.58   36.80
  -4  10   4  222.88   20.80
   2 -10  -4  107.39   13.80
   2 -10  -4  124.79   23.70
  -2 -10   4   94.29   13.70
  -2 -10   4  130.29   19.90
  -2 -10   4  113.59   21.00
   2  10  -4  105.69   13.70
  -2  10   4  117.09   25.80
   2  10  -4   93.39   18.60
  -2  10   4  110.29   13.00
   2  10  -4  116.39   23.10
   0 -10   4  914.01   71.69
   0 -10   4  938.71   68.89
   0 -10  -4  945.61   77.19
   0 -10   4  974.70   64.19
   0 -10  -4  961.10   64.49
   0  10  -4  976.70   69.69
   0  10   4  932.11   64.89
   0  10  -4  962.50   64.39
   0  10  -4  847.02   73.19
  -2 -10  -4  105.19   19.50
  -2 -10  -4   98.59   12.50
   2 -10   4   94.79   11.60
   2 -10   4  126.29   21.10
  -2 -10  -4  132.49   28.80
   2 -10   4  101.99   17.90
  -2  10  -4  101.09   12.30
   2  10   4   99.29   12.50
  -2  10  -4  135.39   20.90
  -2  10  -4  130.59   25.30
   2  10   4   99.99   16.10
   4 -10   4 1874.11  126.89
   4 -10   4 2113.49  132.99
  -4 -10  -4 1924.51  133.39
   4 -10   4 2090.69  136.79
  -4 -10  -4 1742.73  127.39
  -4 -10  -4 1757.42  128.19
  -4  10  -4 1870.01  139.29
   4  10   4 1921.61  128.79
  -4  10  -4 2136.19  127.59
  -4  10  -4 1910.21  132.49
   4  10   4 1873.01  132.09
   4  10   4 1789.82  127.89
   6 -10   4 1421.56   89.89
  -6 -10  -4 1086.79   84.19
  -6 -10  -4 1206.18   91.49
   6 -10   4 1364.26   95.09
   6  10   4 1154.38   84.59
   6  10   4 1040.30   96.29
  -6  10  -4 1309.77   92.09
   6  10   4 1214.48   84.99
   8 -10   4  521.55   48.40
  -8 -10  -4  440.76   51.39
   8  10   4  448.96   43.40
  -8  10  -4  543.45   38.70
  -8  10  -4  458.25   61.89
   8  10   4  461.55   40.70
 -10 -10  -4  709.93   72.99
 -10  10  -4  711.43   73.59
  10  10   4  704.33   60.29
 -10  10  -4  870.71   82.29
  10  10   4  801.12   64.69
 -11 -11   4   48.00   52.89
 -11 -11   4   12.10   22.20
 -11  11   4  -16.60   47.40
  11  11  -4   32.80   24.90
 -11  11   4   15.10   21.60
  -9 -11   4  150.48   41.00
  -9 -11   4  130.99   22.40
   9 -11  -4  159.98   35.50
   9  11  -4  157.68   23.40
  -9  11   4  161.68   23.40
  -7 -11   4  843.52   56.19
   7 -11  -4  778.02   69.49
  -7 -11   4  667.63   71.89
  -7  11   4  713.73   56.89
   7  11  -4  785.92   57.99
  -5 -11   4 1003.50   80.49
   5 -11  -4 1022.00   81.39
  -5  11   4 1017.70   70.29
   5  11  -4  985.50   70.89
   3 -11  -4  936.21   65.19
   3 -11  -4 1051.69   78.59
  -3 -11   4  854.61   73.79
  -3 -11   4  901.31   71.49
  -3 -11   4  936.51   65.69
  -3  11   4  952.50   65.19
   3  11  -4  749.53   82.39
  -3  11   4 1034.30   82.39
   3  11  -4  930.01   73.29
   3  11  -4  996.50   65.59
  -1 -11   4 2027.80  138.89
   1 -11  -4 2090.49  134.19
  -1 -11   4 2064.89  133.89
   1 -11  -4 2111.59  145.19
  -1 -11   4 1922.21  140.59
   1  11  -4 1894.81  139.29
  -1  11   4 1850.21  144.29
  -1  11   4 2017.50  134.29
   1  11  -4 2058.79  134.09
  -1 -11  -4  381.96   54.09
   1 -11   4  387.86   39.40
   1 -11   4  454.85   41.80
   1 -11   4  483.05   32.40
  -1 -11  -4  448.16   33.50
  -1 -11  -4  419.96   39.10
   1  11   4  449.06   33.40
  -1  11  -4  413.76   41.10
   1  11   4  455.25   36.70
  -1  11  -4  444.66   32.40
  -1  11  -4  347.67   49.30
   3 -11   4 1103.69   70.59
  -3 -11  -4  982.70   78.59
   3 -11   4 1131.49   77.19
  -3 -11  -4  907.61   71.59
  -3 -11  -4  817.32   86.19
   3 -11   4 1156.38   80.99
  -3  11  -4  996.00   87.19
   3  11   4  979.30   75.19
  -3  11  -4 1143.39   78.69
   3  11   4  971.20   71.99
  -3  11  -4 1173.38   71.19
   5 -11   4  115.19   14.10
   5 -11   4  144.19   27.40
  -5 -11  -4   70.29   13.10
  -5 -11  -4  111.19   24.70
   5 -11   4  141.99   23.00
  -5 -11  -4   75.39   35.40
   5  11   4   39.60   34.50
   5  11   4   94.79   27.40
   5  11   4  120.49   15.30
   5  11   4   73.39   13.70
  -5  11  -4  116.19   13.50
  -5  11  -4  122.39   22.50
   7 -11   4  108.69   22.70
   7 -11   4   85.19   25.60
  -7 -11  -4   33.30   38.60
  -7 -11  -4   92.59   27.40
   7  11   4   61.69   16.40
   7  11   4   53.99   16.20
  -7  11  -4  129.29   16.10
  -7  11  -4   89.49   16.60
  -9 -11  -4   11.90   51.89
  -9 -11  -4   87.89   33.60
   9 -11   4   98.59   29.30
   9  11   4  139.39   24.50
   9  11   4  120.29   21.00
  -9  11  -4   91.59   37.90
 -11 -11  -4  301.97   53.69
  11  11   4  308.27   44.10
 -11  11  -4  488.65   60.09
 -11  11  -4  412.46   71.19
  11  11   4  290.67   40.80
 -10 -12   4  689.93   58.19
  10 -12  -4  660.93   79.49
 -10 -12   4  817.82   93.99
  10  12  -4  676.23   60.49
 -10  12   4  671.93   59.69
  -8 -12   4   82.89   36.00
   8 -12  -4   93.29   32.90
  -8 -12   4   98.09   18.50
  -8  12   4  107.19   19.70
   8  12  -4  147.29   21.70
   6 -12  -4  464.95   53.79
  -6 -12   4  521.05   36.90
  -6 -12   4  408.06   38.70
  -6 -12   4  466.75   53.29
   6  12  -4  455.35   39.60
  -6  12   4  459.95   38.60
  -4 -12   4   13.60   21.70
   4 -12  -4   63.99   26.50
  -4 -12   4   31.60   19.80
   4  12  -4   33.60   11.70
   4  12  -4  -13.80   37.00
  -4  12   4   25.90    9.90
   2 -12  -4   -6.40   21.90
  -2 -12   4  -14.50   16.70
  -2 -12   4  -10.60   19.40
  -2 -12   4    9.40    9.70
   2 -12  -4    9.80    9.70
  -2  12   4   12.00    8.20
   2  12  -4   11.10    9.20
   2  12  -4   -2.70   23.70
  -2  12   4  -12.50   27.20
   2  12  -4   31.70   21.80
   0 -12   4   33.40   17.10
   0 -12  -4    6.30    9.00
   0 -12   4    4.60   17.90
   0 -12  -4   10.10   27.00
   0 -12   4   -1.00    8.40
   0 -12  -4   30.10   16.40
   0  12   4    7.70   13.60
   0  12   4  -41.40   25.20
   0  12  -4   22.00   26.30
   0  12  -4    9.40   18.60
   0  12   4    1.10    8.30
   0  12  -4    8.10    8.20
   2 -12   4 1116.89   77.89
   2 -12   4 1177.48   84.89
   2 -12   4 1183.18   88.19
  -2 -12  -4 1051.49   85.19
  -2  12  -4 1284.17   85.99
  -2  12  -4 1122.99   95.69
   2  12   4 1021.60   81.99
  -2  12  -4 1224.98   78.59
   2  12   4 1128.19   79.39
  -4 -12  -4  800.72   74.29
   4 -12   4  851.01   61.39
   4 -12   4  975.10   74.89
   4 -12   4  936.11   69.09
  -4  12  -4  990.60   72.99
   4  12   4  805.02   64.19
   4  12   4  797.62   70.59
  -4  12  -4  944.41   62.19
   6 -12   4 1219.08   95.59
   6 -12   4 1318.87   89.59
   6  12   4 1120.99   85.39
   6  12   4 1168.08   84.59
   8 -12   4 1268.57   90.59
  -8 -12  -4  960.40   96.39
   8  12   4 1043.10   85.59
  -8  12  -4 1315.57   99.29
   8  12   4 1067.29   82.19
 -10 -12  -4  115.39   70.59
 -10 -12  -4  162.58   47.20
  10  12   4  242.08   35.60
 -10  12  -4  202.78   47.00
  10  12   4  210.58   28.70
   9 -13  -4  239.88   47.00
  -9 -13   4  273.17   52.09
  -9 -13   4  232.78   28.60
  -9  13   4  252.87   29.60
   9  13  -4  237.88   31.00
  -7 -13   4   84.39   31.70
   7 -13  -4   29.30   27.40
  -7 -13   4   22.50   14.40
  -7  13   4   13.00   13.60
   7  13  -4   53.99   16.30
  -5 -13   4 1162.98   97.99
   5 -13  -4 1207.18  100.59
  -5  13   4 1353.96   87.89
   5  13  -4 1237.88   88.29
   3 -13  -4 1043.90   84.49
  -3 -13   4  792.42   77.89
  -3 -13   4  994.00   77.99
   3  13  -4  963.60   67.89
  -3  13   4  967.50   67.49
   1 -13  -4  253.67   38.50
  -1 -13   4  226.38   37.40
  -1 -13   4  212.98   22.30
  -1 -13   4  221.08   32.70
  -1  13   4  187.28   22.20
   1  13  -4  172.18   36.20
   1  13  -4  218.48   22.10
   1  13  -4  179.28   32.40
  -1 -13  -4  989.40   86.99
   1 -13   4  895.01   64.89
   1 -13   4  959.30   75.99
  -1 -13  -4  998.60   73.69
   1 -13   4  898.81   72.69
  -1  13  -4  992.90   65.69
   1  13   4  888.21   69.29
   1  13   4  886.41   66.19
   3 -13   4  283.67   27.10
  -3 -13  -4  337.87   39.40
   3 -13   4  378.36   38.70
   3 -13   4  305.67   42.00
  -3 -13  -4  269.97   57.29
  -3  13  -4  355.26   43.90
  -3  13  -4  355.26   29.00
   3  13   4  260.97   38.20
   3  13   4  339.97   29.80
   5 -13   4   91.99   15.20
   5 -13   4  113.79   24.00
  -5 -13  -4   42.50   47.70
  -5 -13  -4   46.30   29.70
   5 -13   4  121.99   29.30
   5  13   4  106.19   17.90
  -5  13  -4  113.29   15.20
   5  13   4   98.99   16.90
  -7 -13  -4   64.49   35.10
   7 -13   4  106.89   30.00
  -7 -13  -4  109.39   55.79
   7 -13   4  134.19   27.30
   7  13   4  110.09   21.10
   7  13   4   89.89   19.10
   9 -13   4  312.87   41.80
  -9 -13  -4  267.47   49.60
  -9 -13  -4  123.19   76.39
   9  13   4  220.18   34.90
   9  13   4  216.28   30.40
  -9  13  -4  317.77   57.19
  10 -14  -4  128.29   44.20
 -10 -14   4  155.88   27.50
 -10 -14   4  220.48   61.89
 -10  14   4  156.98   30.30
  10  14  -4  126.89   31.20
  -8 -14   4  221.68   26.90
  -8 -14   4  167.78   43.40
   8 -14  -4  238.48   46.30
  -8  14   4  243.78   30.30
   8  14  -4  226.78   30.20
  -6 -14   4  195.28   37.60
  -6 -14   4  141.19   38.50
   6 -14  -4  213.08   39.90
  -6  14   4  179.38   22.50
   6  14  -4    1.10   64.49
   6  14  -4  160.68   22.70
  -4 -14   4   41.10   25.40
  -4 -14   4    8.70   26.70
   4 -14  -4   67.99   31.80
  -4  14   4   36.60   13.60
   4  14  -4   28.00   14.60
   4  14  -4  -44.70   54.69
  -2 -14   4   37.30   26.00
  -2 -14   4   54.49   24.20
   2 -14  -4   27.20   32.20
   2  14  -4   38.90   13.30
   2  14  -4   46.90   48.00
  -2  14   4   38.50   12.50
   0 -14   4  334.97   45.40
   0 -14  -4  238.38   32.60
   0 -14   4  263.07   39.60
   0 -14  -4  305.97   49.00
   0  14  -4  294.57   25.10
   0  14   4  204.08   32.30
   0  14   4  179.48   25.30
   2 -14   4  197.38   33.60
  -2 -14  -4  216.18   28.90
  -2 -14  -4  161.78   48.10
   2 -14   4  109.59   17.10
   2 -14   4  164.98   27.30
  -2  14  -4  158.58   20.20
  -2  14  -4  147.99   33.20
   2  14   4  152.08   19.30
   2  14   4  156.68   27.40
  -4 -14  -4  420.56   56.39
   4 -14   4  487.05   48.90
   4 -14   4  487.95   54.19
  -4 -14  -4  341.77   75.29
  -4  14  -4  530.45   39.20
   4  14   4  492.05   42.00
  -6 -14  -4  104.19   71.09
  -6 -14  -4  205.68   41.90
   6 -14   4  234.48   39.60
   6 -14   4  206.38   33.70
   6  14   4  190.98   25.80
  -6  14  -4  227.78   28.50
   6  14   4  242.48   31.40
   8 -14   4  374.36   59.79
  -8 -14  -4  360.76   54.39
   8 -14   4  405.86   51.69
  -8 -14  -4  288.17   84.79
   8  14   4  346.77   46.10
  -8  14  -4  435.76   42.00
   8  14   4  270.97   40.30
 -10 -14  -4  145.99   55.79
 -10 -14  -4  226.58   99.19
  10  14   4  109.79   33.40
 -10  14  -4  219.98   52.89
  10  14   4  162.48   29.60
   9 -15  -4    5.90   45.20
  -9 -15   4   45.20   23.90
  -9 -15   4   25.00   46.90
   9  15  -4   12.60   26.80
  -9  15   4    6.80   26.10
   7 -15  -4  144.89   40.30
  -7 -15   4  173.68   44.80
  -7 -15   4  133.69   45.20
  -7  15   4  199.98   25.70
   7  15  -4  154.78   25.50
   5 -15  -4   49.10   34.00
  -5 -15   4  102.19   31.50
  -5 -15   4   73.49   33.30
  -5  15   4   72.59   18.70
   5  15  -4   85.69   19.10
  -3 -15   4  331.87   49.50
  -3 -15   4  341.67   53.79
   3 -15  -4  275.77   47.30
  -3  15   4  240.68   30.40
   3  15  -4  343.07   33.30
  -1 -15   4  397.06   59.99
   1 -15  -4  544.05   69.29
  -1 -15   4  600.84   56.29
   1  15  -4  601.84   44.30
  -1  15   4  503.05   44.00
   1 -15   4   32.50   25.50
   1 -15   4   -9.30   22.40
  -1 -15  -4  -22.90   22.70
  -1 -15  -4  -27.30   36.90
  -1  15  -4    4.70   11.90
   1  15   4    2.30   12.30
  -3 -15  -4  129.59   34.20
   3 -15   4  188.68   34.70
   3 -15   4  151.48   29.00
  -3 -15  -4  206.68   54.99
   3  15   4  157.88   22.60
  -3  15  -4  176.88   20.30
   5 -15   4   22.70   28.70
   5 -15   4  -17.80   23.40
  -5 -15  -4    1.60   31.80
  -5 -15  -4    5.00   61.29
  -5  15  -4   -4.80   15.60
   5  15   4   -5.00   16.10
   7 -15   4   57.79   34.50
  -7 -15  -4    1.90   40.00
   7 -15   4    6.30   26.30
  -7 -15  -4   22.40   87.19
   7  15   4   22.40   20.10
  -7  15  -4   47.50   21.70
   7  15   4    6.40   23.10
  -9 -15  -4  -26.20   50.79
  -9 -15  -4  -26.40   95.29
   9 -15   4   58.79   36.40
   9  15   4   27.90   23.60
  -9  15  -4   56.59   48.70
   9  15   4   32.60   30.90
   8 -16  -4   75.49   42.40
  -8 -16   4   95.59   25.80
  -8 -16   4  -48.30   46.30
   8  16  -4   36.40   28.50
  -8  16   4   39.90   25.00
   6 -16  -4  -48.30   34.30
  -6 -16   4   50.89   36.70
  -6 -16   4   51.89   41.20
  -6  16   4   -0.40   19.40
   6  16  -4  -10.70   19.40
  -4 -16   4  -15.40   33.90
  -4 -16   4   46.60   35.20
   4 -16  -4   30.80   36.40
   4  16  -4   22.00   19.60
  -4  16   4   32.70   17.10
  -2 -16   4   -0.20   28.10
   2 -16  -4   39.30   37.70
  -2 -16   4  -24.40   30.00
  -2  16   4    9.90   15.20
   2  16  -4   22.10   15.20
   0 -16   4  116.69   28.20
   0 -16  -4  116.39   28.70
   0 -16   4   94.89   31.40
   0 -16  -4   -4.00   39.30
   0  16   4   32.80   27.10
   0  16  -4   63.79   16.70
   0  16   4   56.49   16.20
  -2 -16  -4   19.50   50.59
   2 -16   4   33.80   29.20
   2 -16   4   45.10   29.50
  -2 -16  -4   29.90   29.70
   2  16   4   23.00   15.20
  -2  16  -4   26.20   16.80
  -4 -16  -4   10.50   31.30
  -4 -16  -4   67.89   57.29
   4 -16   4   55.99   27.50
   4 -16   4    0.00   27.30
  -4  16  -4   13.30   17.40
   4  16   4    5.80   17.90
  -6 -16  -4   -4.50   98.29
   6 -16   4  192.18   43.10
  -6 -16  -4  196.68   44.40
   6 -16   4  195.58   36.00
  -6  16  -4  231.48   31.60
   6  16   4  237.18   29.20
  -8 -16  -4  168.68  116.99
  -8 -16  -4   61.29   50.49
   8 -16   4   -5.50   38.90
   8 -16   4   37.90   34.60
   8  16   4   39.90   29.20
   8  16   4    0.10   22.50
   7 -17  -4   69.19   40.50
  -7 -17   4  -10.30   52.69
  -7 -17   4   62.09   44.70
  -7  17   4   23.70   25.00
   7  17  -4   26.50   28.30
  -5 -17   4   30.70   46.90
   5 -17  -4   60.89   36.50
  -5 -17   4   92.69   40.20
  -5  17   4   65.29   22.70
   5  17  -4  110.79   26.60
  -3 -17   4   50.49   35.00
   3 -17  -4    3.90   42.30
  -3 -17   4   51.49   39.70
  -3  17   4   28.90   18.50
   3  17  -4    5.60   19.50
   1 -17  -4  -16.40   41.50
  -1 -17   4   30.90   36.00
  -1 -17   4  -13.10   33.10
   1  17  -4   43.20   18.80
  -1  17   4   51.89   16.00
  -1 -17  -4   24.40   43.60
   1 -17   4   16.20   34.10
   1 -17   4   41.10   29.90
  -1 -17  -4   28.40   32.60
  -1  17  -4   25.20   17.40
   1  17   4   35.70   18.10
  -3 -17  -4   -4.60   33.50
   3 -17   4   38.20   32.10
   3 -17   4   74.29   32.00
  -3 -17  -4  -35.80   56.69
  -3  17  -4   41.30   19.00
   3  17   4   19.60   19.40
   5 -17   4  -36.30   29.10
   5 -17   4   -0.30   36.40
  -5 -17  -4   74.49   90.59
  -5 -17  -4   43.10   38.30
  -5  17  -4   16.20   21.90
   5  17   4   28.50   21.70
  -7 -17  -4   57.29   45.00
  -7 -17  -4  139.09  106.59
   7 -17   4   77.39   39.90
   7 -17   4    6.90   34.00
  -7  17  -4    5.30   25.00
  -6 -18   4   89.49   62.19
  -6 -18   4  119.99   47.20
   6 -18  -4   33.00   45.80
  -6  18   4  100.79   29.10
   6  18  -4  107.59   31.40
  -4 -18   4    4.20   37.90
  -4 -18   4   50.19   46.60
   4 -18  -4   -0.90   43.10
  -4  18   4   30.90   20.50
   4  18  -4   35.80   23.30
  -2 -18   4   49.30   42.80
  -2 -18   4   76.09   37.00
   2 -18  -4  -24.00   44.70
  -2  18   4   10.50   19.60
   2  18  -4   43.00   22.90
   0 -18   4   84.79   36.20
   0 -18   4  100.29   39.20
   0 -18  -4   73.99   51.49
   0  18   4   47.40   20.30
   0  18  -4  131.49   25.40
   2 -18   4   15.00   31.20
   2 -18   4   57.69   36.90
  -2 -18  -4   82.79   37.00
  -2 -18  -4   97.89   56.19
   2  18   4   43.50   20.60
  -2  18  -4   71.29   22.10
   4 -18   4   84.39   39.20
  -4 -18  -4   41.00   37.40
   4 -18   4   68.19   35.20
  -4 -18  -4   58.09   70.99
  -4  18  -4   66.99   23.10
   4  18   4   71.39   24.10
  -6 -18  -4  174.98   50.79
   6 -18   4  281.17   45.10
   6 -18   4  243.38   50.59
  -6 -18  -4  223.68  120.69
   6  18   4  239.38   35.10
  -5 -19   4  169.78   50.09
   5 -19  -4  147.59   50.99
  -5 -19   4  173.88   62.79
  -5  19   4  151.88   30.50
   5  19  -4  170.48   36.60
   3 -19  -4  299.37   61.69
  -3 -19   4  312.17   55.29
  -3 -19   4  163.58   57.49
  -3  19   4  347.87   39.70
   3  19  -4  275.37   39.60
  -1 -19   4  318.47   57.69
  -1 -19   4  359.76   52.69
   1 -19  -4  279.27   63.39
   1  19  -4  270.07   39.70
  -1  19   4  320.07   37.50
  -1 -19  -4   66.49   64.69
   1 -19   4  108.89   45.20
   1 -19   4   77.19   37.60
  -1 -19  -4   26.20   40.80
   1  19   4   48.50   22.80
  -1  19  -4   29.00   25.80
  -3 -19  -4  159.98   43.90
   3 -19   4  125.19   45.50
  -3 -19  -4  108.79   72.09
   3 -19   4  121.89   42.20
  -3  19  -4  113.69   28.90
   3  19   4  123.99   28.10
   5 -19   4   35.90   40.50
  -5 -19  -4   99.69   83.59
  -5 -19  -4   40.40   42.50
   5 -19   4   44.30   47.50
  -5  19  -4   76.89   33.50
   5  19   4   40.40   29.20
   4 -20  -4   41.80   51.59
  -4 -20   4  158.48   92.19
  -2 -20   4  -32.30   50.99
   2 -20  -4   29.30   59.79
  -2 -20   4   -6.50   50.99
   2  20  -4   76.89   31.30
  -2  20   4   -6.40   25.50
   0 -20   4  183.78   59.79
   0 -20  -4  151.48   52.49
   0 -20  -4  268.27   67.69
   0 -20   4  212.78   49.80
   0  20   4  200.48   33.90
   0  20  -4  204.38   38.90
  -2 -20  -4   85.19   72.39
   2 -20   4  170.08   49.30
  -2 -20  -4  139.69   53.39
   2 -20   4   93.59   47.70
  -2  20  -4  116.49   30.70
   2  20   4  141.99   30.90
  12   0  -5   39.50   20.40
 -12   0   5   22.80   33.40
 -12   0   5   13.30   19.00
 -10   0   5   38.40   13.40
 -10   0   5   11.60   21.10
  10   0  -5   31.30   15.20
  -8   0   5    9.20   11.10
  -8   0   5    6.80   12.20
  -8   0   5   13.60   13.30
   8   0  -5   -0.30    8.50
   8   0  -5   15.80   20.70
  -8   0   5    6.00    7.80
   6   0  -5   -8.90   11.80
  -6   0   5    4.20    6.60
  -6   0   5   -1.40    9.70
   6   0  -5    1.50    6.00
  -6   0   5   10.10    7.50
  -6   0   5    1.00    5.60
  -4   0   5   -8.20    4.20
   4   0  -5   -0.30    7.50
  -4   0   5   -8.00    7.00
   4   0  -5   -1.30    4.20
   4   0  -5   -3.20    4.00
  -4   0   5    2.30    4.10
  -2   0   5   -2.50    3.10
  -2   0   5    4.80    2.80
   2   0  -5   -0.60    3.90
   2   0  -5   -2.20    2.60
   2   0  -5    1.70    3.00
   0   0   5   -0.80    3.60
   0   0  -5    2.30    2.20
   0   0  -5    2.20    2.90
   0   0   5    1.20    3.00
   0   0  -5   -1.40    4.20
   0   0   5   -1.70    2.10
  -2   0  -5    1.10    2.50
  -2   0  -5   -2.00    4.40
  -2   0  -5   -3.60    6.60
   2   0   5    5.20    5.40
   2   0   5    1.00    3.10
   2   0   5   -5.90    5.40
  -4   0  -5   -1.00    7.60
  -4   0  -5   -0.60    7.10
   4   0   5  -12.80    8.00
   4   0   5   -5.20    4.20
  -4   0  -5    4.30    4.50
  -4   0  -5    8.40    8.70
  -6   0  -5    7.40   11.70
  -6   0  -5    8.20   11.80
   6   0   5   -0.50    6.70
   6   0   5   21.70   13.40
  -6   0  -5   -3.50   11.30
  -6   0  -5   15.80    7.10
  -8   0  -5    9.30   16.80
  -8   0  -5   11.10   12.60
   8   0   5   39.90   22.60
  -8   0  -5    7.00   14.90
  -8   0  -5   -2.60   20.70
   8   0   5    2.00    9.70
 -10   0  -5   14.00   13.20
 -10   0  -5   38.30   25.20
 -10   0  -5   48.50   28.20
  10   0   5   20.30   13.90
 -12   0  -5   -5.30   42.10
  12   0   5  -20.30   20.20
  12   0   5   13.40   18.00
 -12   0  -5  -14.10   34.40
 -13  -1   5   16.00   40.40
  13  -1  -5    6.60   23.50
 -13  -1   5    9.20   22.70
  13   1  -5   11.10   22.20
 -13   1   5  -47.00   37.00
 -13   1   5  -15.80   23.30
  11  -1  -5   44.70   17.00
 -11  -1   5   32.60   15.90
 -11  -1   5   41.40   28.20
 -11   1   5   23.00   16.20
 -11   1   5   37.30   26.00
  11   1  -5   59.19   17.70
   9  -1  -5   22.00   12.10
  -9  -1   5   21.20   19.40
  -9  -1   5   15.70   10.40
  -9   1   5   23.60   21.00
  -9   1   5   16.80   11.80
   9   1  -5   21.40   11.90
   9   1  -5   25.90   30.30
  -9   1   5   20.70   16.60
   7  -1  -5  237.08   20.60
  -7  -1   5  253.97   21.00
  -7  -1   5  248.58   27.60
  -7  -1   5  194.88   21.80
   7  -1  -5  272.27   30.00
  -7  -1   5  201.98   19.40
   7   1  -5  210.08   28.80
  -7   1   5  198.68   19.40
   7   1  -5  215.08   20.30
  -7   1   5  251.47   25.50
  -7   1   5  202.08   21.60
  -7   1   5  197.08   20.90
  -5  -1   5  154.88   14.70
   5  -1  -5  163.08   18.80
  -5  -1   5  154.68   13.90
  -5  -1   5  146.39   15.20
   5  -1  -5  150.38   14.30
  -5  -1   5  168.98   19.30
   5  -1  -5  142.09   13.90
   5   1  -5  158.48   21.00
  -5   1   5  150.28   18.40
  -5   1   5  155.38   14.10
  -5   1   5  155.58   14.80
   5   1  -5  167.18   14.30
  -3  -1   5  326.37   24.30
  -3  -1   5  337.77   26.60
   3  -1  -5  374.86   24.30
  -3  -1   5  335.57   24.20
   3  -1  -5  350.56   24.60
  -3   1   5  313.07   24.40
   3   1  -5  320.77   24.30
  -3   1   5  352.16   24.50
   3   1  -5  378.56   26.30
   3   1  -5  318.17   24.10
  -1  -1   5  239.28   19.90
  -1  -1   5  287.67   18.30
   1  -1  -5  238.68   18.50
  -1  -1   5  287.17   18.80
   1   1  -5  213.68   19.30
  -1   1   5  280.77   18.40
   1   1  -5  282.57   18.70
  -1   1   5  273.47   18.50
  -1   1   5  262.07   18.70
   1   1  -5  268.17   18.30
   1  -1   5   33.80    6.90
   1  -1   5   29.60    6.10
   1  -1   5   35.00    4.60
  -1  -1  -5   35.40    5.50
  -1  -1  -5   39.20    4.70
  -1  -1  -5   46.20    9.20
   1   1   5   42.00    6.50
   1   1   5   44.50    8.50
  -1   1  -5   44.50    7.70
  -1   1  -5   29.80    6.00
   1   1   5   38.80    4.90
  -1   1  -5   33.30    4.30
   3  -1   5 1204.38   79.89
  -3  -1  -5 1115.79   81.19
  -3  -1  -5 1199.18   78.89
   3  -1   5 1071.29   78.49
   3  -1   5 1192.58   76.89
  -3   1  -5 1192.88   76.79
  -3   1  -5 1180.58   80.09
   3   1   5 1103.89   79.99
   3   1   5 1118.19   76.99
  -5  -1  -5    6.90   11.00
  -5  -1  -5   12.80    9.70
  -5  -1  -5   -1.20    5.60
  -5  -1  -5    9.00   11.60
   5  -1   5    7.00    5.10
   5  -1   5   17.40   12.30
  -5   1  -5    4.30    9.30
   5   1   5    6.50    5.30
  -5   1  -5   14.70    9.60
  -5   1  -5    7.60    5.70
   5   1   5   14.00   11.00
   7  -1   5   12.10    8.30
  -7  -1  -5   18.30    9.50
  -7  -1  -5   16.70    6.50
  -7  -1  -5   37.30   15.70
  -7  -1  -5   -4.50   12.50
  -7  -1  -5   19.30   16.30
   7   1   5    8.00    7.70
   7   1   5   16.40   15.70
  -7   1  -5   10.80    8.80
  -7   1  -5    1.30   14.70
   7   1   5   12.60    8.10
  -7   1  -5   -3.30   14.40
  -7   1  -5   19.10   14.40
  -9  -1  -5   66.89   22.40
  -9  -1  -5   27.60   22.50
   9  -1   5   26.90   13.40
  -9  -1  -5   36.30   10.90
   9   1   5   32.70   10.80
   9   1   5   44.20   12.80
   9   1   5  -22.50   26.90
  -9   1  -5   40.20   21.50
  -9   1  -5   16.70   21.30
  -9   1  -5   20.90   20.00
 -11  -1  -5  160.48   36.30
 -11  -1  -5  139.99   40.30
  11  -1   5  144.19   23.00
 -11   1  -5  132.29   33.30
  11   1   5  123.99   20.80
 -11   1  -5  131.89   40.20
  11   1   5  129.99   22.60
 -13  -1  -5   15.90   58.79
 -13  -1  -5   -1.60   42.60
  13   1   5   32.50   22.30
 -13   1  -5   37.10   43.10
 -13   1  -5   28.80   26.20
 -13   1  -5   -8.80   51.19
 -12  -2   5  225.88   39.50
  12  -2  -5  256.47   31.50
 -12  -2   5  200.08   28.30
 -12   2   5  244.88   30.70
  12   2  -5  189.08   29.60
 -12   2   5  220.68   39.40
  10  -2  -5  258.57   28.10
 -10  -2   5  239.38   34.00
 -10  -2   5  229.98   26.40
 -10   2   5  256.47   27.10
 -10   2   5  153.38   36.10
  10   2  -5  298.67   28.00
 -10   2   5  209.38   31.10
  -8  -2   5   -2.50   13.60
  -8  -2   5  -20.10   11.00
  -8  -2   5    8.30   14.90
  -8  -2   5  -14.80    8.50
   8  -2  -5    4.90    9.10
  -8   2   5   -0.20    8.00
  -8   2   5   23.30   14.60
  -8   2   5    1.40   12.10
  -8   2   5    4.70   12.20
  -8   2   5    6.90   14.20
   8   2  -5   -9.40    9.00
   8   2  -5   19.00   19.40
   6  -2  -5    4.20    6.50
  -6  -2   5  -10.10    5.50
  -6  -2   5   -1.90    9.20
  -6  -2   5    1.40    7.60
  -6  -2   5    1.10    6.30
  -6   2   5   13.80    7.50
   6   2  -5    7.20    6.30
  -6   2   5    8.00    7.20
  -6   2   5    2.80    6.00
  -6   2   5   11.90    9.60
   6   2  -5   -9.40   12.10
   4  -2  -5   23.50    6.20
  -4  -2   5   34.10    6.40
   4  -2  -5   40.20    6.40
  -4  -2   5   50.19   10.70
  -4  -2   5   37.60    6.40
   4   2  -5   42.30    9.50
   4   2  -5   39.70    6.50
  -4   2   5   37.50    6.40
  -4   2   5   30.10    7.00
   4   2  -5   32.90    6.30
   2  -2  -5  901.31   63.39
  -2  -2   5  970.60   63.09
  -2  -2   5  918.31   61.29
   2  -2  -5  897.81   61.19
  -2   2   5  918.01   61.29
   2   2  -5  900.11   61.09
  -2   2   5  900.51   60.99
   2   2  -5  932.61   62.69
   2   2  -5  842.72   60.99
  -2   2   5  991.80   61.39
   0  -2   5  258.57   18.80
   0  -2   5  220.98   19.20
   0  -2  -5  233.78   16.80
   0  -2   5  241.08   17.10
   0  -2  -5  267.67   17.50
   0   2  -5  235.48   18.80
   0   2  -5  246.28   18.90
   0   2   5  228.58   17.40
   0   2  -5  261.57   17.10
   0   2   5  241.98   17.00
   2  -2   5 1619.04  101.19
  -2  -2  -5 1388.76  102.29
   2  -2   5 1452.35  103.39
  -2  -2  -5 1499.95  102.49
  -2  -2  -5 1495.15  101.29
   2  -2   5 1568.54  103.19
  -2  -2  -5 1634.44  106.49
  -2   2  -5 1488.05  102.99
   2   2   5 1608.54  101.59
   2   2   5 1556.24  105.09
  -2   2  -5 1639.04  100.99
  -2   2  -5 1468.35  103.59
   4  -2   5 3279.87  212.98
  -4  -2  -5 3025.80  214.48
  -4  -2  -5 3488.55  212.28
   4  -2   5 3311.67  209.58
  -4  -2  -5 3279.07  211.58
   4  -2   5 3192.58  211.78
  -4  -2  -5 2895.51  209.48
   4   2   5 3044.50  213.38
  -4   2  -5 2937.71  211.58
  -4   2  -5 3146.99  212.78
   4   2   5 3311.57  209.98
  -4   2  -5 3367.06  209.48
  -6  -2  -5  229.68   29.50
  -6  -2  -5  187.08   18.90
  -6  -2  -5  213.18   25.40
   6  -2   5  198.88   18.70
  -6  -2  -5  225.28   25.00
  -6   2  -5  189.08   24.40
   6   2   5  260.07   18.70
  -6   2  -5  199.98   23.10
   6   2   5  205.48   27.40
  -6   2  -5  218.58   26.60
  -6   2  -5  185.28   25.70
  -6   2  -5  203.28   18.70
   6   2   5  228.08   19.60
  -8  -2  -5  111.99   25.80
   8  -2   5  136.89   17.60
  -8  -2  -5  149.09   15.00
  -8  -2  -5  133.89   21.00
  -8   2  -5   69.99   15.10
  -8   2  -5   99.29   21.20
  -8   2  -5   66.99   23.60
   8   2   5  111.49   16.30
  -8   2  -5   74.39   21.30
   8   2   5  132.59   23.90
  -8   2  -5   98.09   21.00
 -10  -2  -5   10.40   23.00
 -10  -2  -5   27.70   29.90
  10  -2   5   15.50   14.90
 -10   2  -5   -1.50   22.80
 -10   2  -5   45.40   26.60
  10   2   5   93.89   37.90
  10   2   5   -1.30   14.10
  10   2   5   25.10   13.20
 -12  -2  -5   41.90   35.50
 -12  -2  -5   48.90   54.69
 -12   2  -5   30.60   42.70
 -12   2  -5  -25.60   34.40
  12   2   5    9.30   20.40
  12   2   5    6.40   17.40
 -13  -3   5   -6.90   40.50
 -13  -3   5   73.79   25.70
 -13   3   5   53.29   31.40
 -13   3   5    5.40   39.10
 -13   3   5   14.50   24.40
  13   3  -5   18.90   24.10
 -11  -3   5   69.29   29.60
 -11  -3   5  104.89   19.50
 -11   3   5  109.29   24.10
 -11   3   5  109.99   29.50
  11   3  -5   94.39   20.50
 -11   3   5  115.19   21.70
   9  -3  -5  666.33   48.40
  -9  -3   5  670.93   54.19
  -9  -3   5  631.24   47.30
  -9   3   5  626.04   47.30
  -9   3   5  601.04   52.49
  -9   3   5  552.94   52.79
   9   3  -5  628.44   48.10
   7  -3  -5  492.75   36.80
  -7  -3   5  429.06   37.50
  -7  -3   5  462.85   41.10
  -7  -3   5  499.05   37.00
  -7  -3   5  527.25   36.00
  -7   3   5  434.86   39.10
  -7   3   5  443.96   36.90
  -7   3   5  513.45   36.10
  -7   3   5  503.05   38.90
   7   3  -5  463.85   43.30
   7   3  -5  481.35   36.30
  -7   3   5  503.55   37.40
  -5  -3   5 1881.61  125.79
  -5  -3   5 1880.91  125.59
  -5  -3   5 1965.20  128.39
  -5  -3   5 1736.73  125.19
   5  -3  -5 1911.91  125.19
  -5   3   5 1978.70  125.49
   5   3  -5 1904.01  128.09
  -5   3   5 1892.71  125.19
   5   3  -5 1753.02  125.39
  -5   3   5 1978.80  125.89
   3  -3  -5 2024.30  142.99
  -3  -3   5 1956.80  142.39
   3  -3  -5 2135.79  140.49
  -3  -3   5 2317.97  140.69
  -3  -3   5 2091.29  140.49
  -3   3   5 2257.17  140.89
   3   3  -5 2096.29  140.49
  -3   3   5 2146.59  140.59
  -3   3   5 2055.69  140.29
  -3   3   5 2261.07  143.09
   3   3  -5 2117.59  140.59
   1  -3  -5  248.88   20.00
  -1  -3   5  278.17   21.40
  -1  -3   5  302.27   23.10
   1  -3  -5  269.47   29.20
   1  -3  -5  292.37   20.10
  -1  -3   5  302.37   19.90
  -1   3   5  247.78   20.00
   1   3  -5  282.57   22.50
   1   3  -5  298.17   20.00
   1   3  -5  295.87   21.50
   1   3  -5  318.57   20.10
  -1  -3  -5  250.57   19.50
  -1  -3  -5  231.28   18.00
  -1  -3  -5  244.78   17.70
   1  -3   5  280.37   21.40
  -1  -3  -5  259.47   19.10
  -1   3  -5  249.58   21.00
  -1   3  -5  268.97   21.10
   1   3   5  262.97   18.20
   1   3   5  264.27   18.60
  -1   3  -5  240.18   21.00
   3  -3   5  405.46   27.10
  -3  -3  -5  384.66   30.00
  -3  -3  -5  333.47   27.00
   3  -3   5  388.26   30.00
  -3  -3  -5  379.26   26.50
  -3   3  -5  428.36   26.70
  -3   3  -5  381.86   30.30
   3   3   5  371.46   26.90
   3   3   5  333.67   27.20
  -3   3  -5  418.86   30.70
  -3   3  -5  394.86   31.00
   3   3   5  373.76   32.30
  -5  -3  -5  399.96   33.70
  -5  -3  -5  411.16   39.10
  -5  -3  -5  393.06   28.40
   5  -3   5  380.86   32.80
   5  -3   5  430.96   29.20
  -5  -3  -5  386.86   34.10
  -5  -3  -5  366.36   29.10
  -5   3  -5  387.76   33.10
   5   3   5  373.26   29.40
  -5   3  -5  398.86   34.40
  -5   3  -5  443.86   28.90
   5   3   5  375.46   34.60
   5   3   5  367.66   28.40
  -5   3  -5  395.66   33.40
  -7  -3  -5  139.79   17.00
  -7  -3  -5  137.19   21.50
  -7  -3  -5  123.79   22.30
   7  -3   5  143.39   16.70
  -7  -3  -5  123.89   15.50
  -7  -3  -5  138.29   25.10
  -7   3  -5  146.69   21.40
  -7   3  -5  159.68   24.50
  -7   3  -5  113.69   21.00
  -7   3  -5  189.08   23.20
   7   3   5  158.18   22.90
  -7   3  -5  155.38   17.20
   7   3   5  131.79   15.90
   7   3   5  122.29   17.00
  -9  -3  -5  886.21   81.89
   9  -3   5  978.80   65.89
  -9  -3  -5  803.92   74.09
  -9  -3  -5  924.61   64.59
   9   3   5  767.82   65.69
   9   3   5  865.31   78.09
  -9   3  -5  912.71   73.69
  -9   3  -5 1036.90   76.19
   9   3   5  935.21   64.99
 -11  -3  -5   -1.30   45.60
  11  -3   5   50.69   18.90
 -11  -3  -5   37.10   31.20
  11   3   5   48.70   19.60
 -11   3  -5   40.50   36.20
 -11   3  -5   32.70   31.10
  11   3   5   49.90   17.60
 -13  -3  -5  525.35   78.79
  13   3   5  509.85   55.39
 -13   3  -5  602.54   77.79
 -13   3  -5  593.94   61.09
 -13   3  -5  630.14   90.19
 -12  -4   5  524.95   47.70
 -12  -4   5  507.75   65.99
 -12   4   5  561.54   49.70
 -12   4   5  500.85   64.09
  12   4  -5  580.34   48.30
 -12   4   5  393.16   51.49
 -10  -4   5  246.68   37.70
 -10  -4   5  277.07   29.10
 -10   4   5  292.07   30.30
  10   4  -5  265.67   30.00
 -10   4   5  284.37   38.70
 -10   4   5  195.18   34.50
 -10   4   5  318.87   30.80
  -8  -4   5  207.28   27.30
  -8  -4   5  169.28   19.20
  -8   4   5  163.18   21.20
  -8   4   5  182.48   24.40
  -8   4   5  200.78   26.70
   8   4  -5  181.88   29.10
  -8   4   5  205.58   26.40
  -8   4   5  173.88   19.60
   8   4  -5  186.58   20.90
  -8   4   5  176.68   20.30
  -8   4   5  187.78   25.70
  -6  -4   5  113.99   15.30
  -6  -4   5  115.49   17.40
  -6  -4   5  124.89   13.60
  -6  -4   5  114.09   13.10
   6  -4  -5  112.79   17.50
  -6   4   5  102.19   14.00
   6   4  -5  133.89   19.40
  -6   4   5  122.29   15.20
   6   4  -5  123.69   14.00
  -6   4   5  114.39   15.50
  -6   4   5  134.39   13.40
  -6   4   5   94.49   18.20
  -4  -4   5  233.58   19.20
   4  -4  -5  195.58   25.70
  -4  -4   5  217.78   17.70
   4  -4  -5  244.48   17.90
  -4  -4   5  290.87   25.50
  -4  -4   5  234.98   18.40
  -4   4   5  237.68   18.20
  -4   4   5  219.68   18.70
   4   4  -5  214.78   18.00
  -4   4   5  230.58   18.00
  -4   4   5  156.88   25.70
   2  -4  -5  147.89   12.90
   2  -4  -5  150.28   24.80
  -2  -4   5  170.08   13.30
  -2  -4   5  145.39   16.90
  -2  -4   5  170.28   13.60
   2  -4  -5  193.78   13.60
   2   4  -5  157.18   13.50
   2   4  -5  164.08   12.90
  -2   4   5  177.08   21.80
  -2   4   5  187.38   13.60
  -2   4   5  158.88   13.50
   0  -4   5 1293.77   88.89
   0  -4  -5 1334.97   86.39
   0  -4   5 1344.67   88.89
   0  -4  -5 1255.57   86.39
   0   4   5 1313.67   86.49
   0   4  -5 1285.07   88.59
   0   4  -5 1236.98   88.59
   0   4   5 1389.46   86.49
  -2  -4  -5 2732.63  178.08
  -2  -4  -5 2842.42  179.58
   2  -4   5 2577.44  180.08
  -2  -4  -5 2675.73  177.88
   2   4   5 2604.64  178.08
   2   4   5 2892.21  179.08
   2   4   5 2350.16  182.98
   2   4   5 2707.93  177.98
  -2   4  -5 2846.02  181.68
  -2   4  -5 3105.59  180.98
  -2   4  -5 2507.15  180.08
   4  -4   5 1808.32  114.79
  -4  -4  -5 1718.23  114.39
  -4  -4  -5 1666.33  111.29
  -4  -4  -5 1647.54  111.99
   4   4   5 1671.93  113.99
   4   4   5 1511.85  111.89
  -4   4  -5 1633.54  114.89
   4   4   5 1693.53  111.49
   4   4   5 1590.14  116.99
  -4   4  -5 1790.12  116.59
  -4   4  -5 1784.02  114.99
  -6  -4  -5  903.41   60.69
   6  -4   5  955.50   60.39
   6  -4   5  863.81   63.69
  -6  -4  -5  827.72   59.39
  -6  -4  -5  824.42   64.59
   6   4   5  892.31   60.99
  -6   4  -5  956.10   60.09
  -6   4  -5  788.22   65.99
  -6   4  -5  846.52   64.99
  -6   4  -5  863.41   64.79
   6   4   5  783.42   65.49
   6   4   5  848.52   65.79
   6   4   5  909.91   59.89
  -8  -4  -5  512.45   39.30
  -8  -4  -5  600.04   49.20
   8  -4   5  585.44   40.60
  -8   4  -5  416.16   54.39
   8   4   5  535.85   40.50
  -8   4  -5  529.75   48.60
   8   4   5  510.05   50.49
  -8   4  -5  501.15   48.40
   8   4   5  501.05   41.50
  -8   4  -5  446.26   52.19
  -8   4  -5  578.54   41.40
  10  -4   5  171.08   23.20
 -10  -4  -5  187.78   34.80
  10   4   5  217.08   26.50
  10   4   5  213.88   24.00
  10   4   5  168.58   37.10
 -10   4  -5  180.08   34.50
 -10   4  -5  184.38   34.10
 -12  -4  -5   10.40   57.89
 -12  -4  -5  102.59   40.70
 -12   4  -5  131.89   27.80
 -12   4  -5  146.49   43.10
 -12   4  -5  152.88   48.30
  12   4   5  120.39   29.10
  12   4   5  167.68   25.50
 -13  -5   5  149.39   48.30
 -13  -5   5  107.99   28.80
 -13   5   5   97.69   28.00
  13   5  -5   64.09   23.80
 -13   5   5  111.69   28.70
 -13   5   5  -33.80   39.80
 -11  -5   5  378.46   36.70
 -11  -5   5  384.96   56.39
 -11   5   5  351.96   51.29
 -11   5   5  380.16   38.10
 -11   5   5  312.27   40.70
  11   5  -5  428.46   38.80
  -9  -5   5  315.17   29.50
  -9  -5   5  284.97   42.30
  -9   5   5  292.57   36.70
  -9   5   5  309.47   28.90
  -9   5   5  375.46   41.50
  -9   5   5  296.97   36.30
  -9   5   5  336.87   31.40
  -9   5   5  291.77   40.40
   9   5  -5  314.77   31.40
  -7  -5   5 1759.62  128.79
  -7  -5   5 1713.23  124.49
   7  -5  -5 1739.93  127.99
  -7  -5   5 1731.43  123.89
  -7  -5   5 1783.02  124.99
   7   5  -5 1826.22  129.89
  -7   5   5 1887.11  124.79
  -7   5   5 1989.60  124.29
  -7   5   5 2034.20  124.19
  -7   5   5 2019.50  124.39
   7   5  -5 1921.61  124.59
  -7   5   5 1740.33  128.39
   5  -5  -5 1990.90  136.69
  -5  -5   5 2031.40  132.99
   5  -5  -5 2161.88  132.39
  -5  -5   5 1993.00  132.99
  -5  -5   5 1819.02  132.39
  -5  -5   5 2068.19  136.89
   5   5  -5 1986.20  136.19
   5   5  -5 1881.21  132.69
  -5   5   5 1988.60  132.49
  -5   5   5 2015.00  137.79
  -5   5   5 2013.50  132.59
  -5   5   5 2011.60  133.09
  -3  -5   5 2018.50  139.79
   3  -5  -5 2094.19  136.89
  -3  -5   5 1961.80  136.79
   3  -5  -5 2272.77  136.79
   3  -5  -5 2021.60  141.09
  -3  -5   5 2123.39  137.09
  -3   5   5 1944.31  136.89
   3   5  -5 2129.69  136.99
  -3   5   5 2219.78  141.79
   3   5  -5 1954.20  139.69
   1  -5  -5 5832.22  384.06
  -1  -5   5 5939.91  383.96
  -1  -5   5 6147.98  386.56
   1  -5  -5 6266.17  388.76
  -1  -5   5 6074.09  386.66
  -1   5   5 5516.65  383.86
   1   5  -5 6055.99  386.66
  -1   5   5 5834.12  384.16
   1   5  -5 5259.97  386.06
   1   5  -5 5933.11  383.96
  -1  -5  -5  153.98   14.50
   1  -5   5  151.28   16.50
  -1  -5  -5  128.19   11.20
   1  -5   5  155.58   15.40
  -1  -5  -5  129.89   10.90
   1   5   5  118.59   11.60
  -1   5  -5  125.59   15.30
   1   5   5  145.99   11.90
   1   5   5  119.49   14.50
   3  -5   5   25.60    9.10
  -3  -5  -5   21.30    5.10
  -3  -5  -5  -16.20   12.90
  -3  -5  -5   20.10    5.30
  -3  -5  -5   23.70    9.90
   3   5   5   11.60   10.20
   3   5   5   12.50    5.20
  -3   5  -5   34.40   10.30
   3   5   5   21.50    5.70
  -3   5  -5   14.30    9.00
  -3   5  -5   10.70    9.70
  -5  -5  -5    1.40    5.90
  -5  -5  -5    4.70   10.70
  -5  -5  -5   22.60   17.50
  -5  -5  -5    5.10    6.20
   5  -5   5    2.20   10.10
  -5   5  -5    2.30   11.70
  -5   5  -5    0.60   11.40
   5   5   5   14.20    6.20
   5   5   5    8.00    6.40
  -5   5  -5    1.90   10.50
   5   5   5   12.60   12.80
   5   5   5   13.20   13.60
  -7  -5  -5  416.56   31.40
   7  -5   5  430.46   32.20
  -7  -5  -5  408.46   34.00
   7  -5   5  377.56   37.50
  -7  -5  -5  396.06   40.10
   7   5   5  397.76   32.80
   7   5   5  430.56   40.80
  -7   5  -5  413.86   40.80
   7   5   5  414.76   31.70
   7   5   5  299.07   45.40
  -7   5  -5  445.86   39.60
  -7   5  -5  407.36   42.80
   9  -5   5  575.44   41.40
  -9  -5  -5  512.95   51.79
  -9   5  -5  429.46   51.19
   9   5   5  536.15   41.90
   9   5   5  468.15   43.00
  -9   5  -5  526.65   53.59
 -11  -5  -5  672.03   67.69
  11   5   5  575.54   52.09
  11   5   5  625.34   54.69
 -11   5  -5  623.34   53.59
 -11   5  -5  601.34   72.89
 -11   5  -5  622.94   68.39
 -13  -5  -5  621.84   80.99
 -13   5  -5  660.93   63.19
 -13   5  -5  678.23  103.89
  13   5   5  719.33   61.29
 -13   5  -5  733.43  110.79
  13   5   5  532.45   63.09
 -12  -6   5  315.97   38.50
 -12  -6   5  320.07   53.59
 -12   6   5  275.47   43.80
 -12   6   5  292.67   35.60
 -12   6   5  285.97   33.90
  12   6  -5  283.57   39.90
 -10  -6   5  350.16   44.70
 -10  -6   5  370.56   33.10
 -10   6   5  306.07   44.70
  10   6  -5  395.06   36.60
 -10   6   5  282.37   42.30
 -10   6   5  335.57   48.50
 -10   6   5  268.27   32.90
 -10   6   5  343.87   33.90
  -8  -6   5  182.38   29.90
   8  -6  -5  147.79   24.40
  -8  -6   5  151.68   18.20
  -8   6   5  173.08   19.30
  -8   6   5  152.68   19.10
   8   6  -5  187.98   21.50
  -8   6   5  141.19   24.30
  -8   6   5  134.99   18.60
  -6  -6   5   72.69   11.60
  -6  -6   5   53.99   17.80
  -6  -6   5   85.29   12.00
   6  -6  -5   82.69   17.80
  -6  -6   5   60.99   10.10
  -6   6   5   71.69   12.10
   6   6  -5   82.29   11.70
   6   6  -5   71.09   18.70
  -6   6   5   87.89   11.50
  -6   6   5   90.69   20.50
  -6   6   5   69.89   10.40
  -4  -6   5    0.60    6.30
  -4  -6   5    1.00   11.90
  -4  -6   5    0.10    4.80
   4  -6  -5   13.90   12.90
   4  -6  -5    7.50    4.70
  -4  -6   5    0.80    6.30
  -4   6   5   -4.00   15.70
  -4   6   5    8.30    6.10
   4   6  -5    5.50    5.40
   4   6  -5   14.60   12.80
   2  -6  -5  345.77   35.40
   2  -6  -5  371.56   26.80
  -2  -6   5  344.87   30.40
  -2  -6   5  383.66   27.10
   2   6  -5  379.26   31.80
   2   6  -5  382.56   26.80
   2   6  -5  339.77   31.90
  -2   6   5  407.56   27.00
  -2   6   5  376.96   36.00
   0  -6   5 4193.38  257.07
   0  -6  -5 3703.13  257.37
   0  -6   5 4047.00  260.37
   0  -6   5 3865.51  260.77
   0  -6  -5 4071.99  263.27
   0   6  -5 4065.29  260.47
   0   6   5 3722.03  257.07
   0   6   5 3802.92  257.47
  -2  -6  -5 2356.86  152.88
   2  -6   5 2462.85  156.08
  -2  -6  -5 2409.46  154.98
  -2  -6  -5 2016.10  152.48
   2  -6   5 2414.86  157.38
   2   6   5 2360.56  153.08
  -2   6  -5 2424.76  156.08
   2   6   5 2121.19  152.68
  -2   6  -5 2337.27  157.38
   4  -6   5 2330.27  147.89
  -4  -6  -5 2166.38  144.59
  -4  -6  -5 2293.87  148.29
  -4  -6  -5 2087.49  144.79
   4   6   5 2118.99  144.99
   4   6   5 2101.79  144.59
   4   6   5 2224.98  147.49
  -4   6  -5 2146.09  148.59
  -4   6  -5 2255.47  148.29
  -4   6  -5 2165.68  150.28
   4   6   5 2169.18  151.28
  -6  -6  -5  543.65   38.80
   6  -6   5  562.74   43.60
  -6  -6  -5  541.95   39.30
  -6  -6  -5  498.95   45.70
   6   6   5  501.35   47.80
  -6   6  -5  530.95   45.10
   6   6   5  465.85   47.10
   6   6   5  514.85   39.70
  -6   6  -5  543.85   45.50
  -6   6  -5  560.14   49.90
   6   6   5  536.95   38.90
  -8  -6  -5  345.57   42.20
   8  -6   5  389.16   37.20
   8  -6   5  371.16   30.00
  -8  -6  -5  312.37   31.40
   8   6   5  360.96   32.90
  -8   6  -5  390.96   30.30
   8   6   5  314.37   44.00
   8   6   5  326.57   29.80
  -8   6  -5  314.67   40.60
 -10  -6  -5  398.96   54.19
  10   6   5  409.66   43.10
 -10   6  -5  485.15   55.99
  10   6   5  461.05   41.90
 -10   6  -5  452.15   52.09
 -12  -6  -5  -24.90   57.39
 -12  -6  -5   18.00   39.20
  12   6   5   33.00   22.90
 -12   6  -5    0.70   42.70
 -12   6  -5   -3.70   22.00
 -12   6  -5   -2.90   37.70
  12   6   5   54.49   26.20
 -11  -7   5   40.30   18.40
 -11  -7   5   56.59   39.00
 -11   7   5   40.30   28.00
  11   7  -5   20.30   19.50
 -11   7   5   36.70   21.00
 -11   7   5   41.70   20.80
   9  -7  -5 1145.09   87.19
  -9  -7   5 1155.58   92.19
  -9  -7   5 1151.38   79.39
  -9   7   5 1032.80   79.49
  -9   7   5 1132.49   79.09
  -9   7   5 1031.50   91.79
   9   7  -5 1185.18   80.99
  -7  -7   5  284.87   38.20
   7  -7  -5  294.27   35.10
  -7  -7   5  222.08   27.90
  -7  -7   5  259.57   24.80
  -7   7   5  305.17   24.90
  -7   7   5  307.57   25.50
  -7   7   5  281.07   29.60
  -7   7   5  279.97   25.30
   7   7  -5  285.17   25.70
  -7   7   5  328.97   43.40
  -5  -7   5  449.26   32.90
  -5  -7   5  369.26   31.10
  -5  -7   5  494.95   40.20
   5  -7  -5  396.06   40.50
  -5  -7   5  407.16   32.80
   5   7  -5  383.46   32.00
   5   7  -5  370.46   39.20
  -5   7   5  501.75   33.20
  -5   7   5  507.05   46.10
  -5   7   5  432.86   32.10
   3  -7  -5 1812.72  125.29
  -3  -7   5 1801.32  119.49
   3  -7  -5 1823.52  119.09
  -3  -7   5 1731.13  123.29
  -3   7   5 1724.33  119.39
   3   7  -5 1796.82  119.29
   3   7  -5 1778.42  122.99
  -3   7   5 1899.91  126.29
   1  -7  -5 1061.59   72.49
  -1  -7   5 1090.09   76.29
   1  -7  -5  985.40   81.49
  -1  -7   5 1100.29   76.19
   1   7  -5 1148.69   78.49
  -1   7   5  975.50   80.59
   1   7  -5 1131.69   72.39
  -1   7   5 1067.19   72.59
   1   7  -5 1133.89   76.59
   1  -7   5  606.84   47.10
   1  -7   5  629.64   46.10
  -1  -7  -5  692.53   57.59
  -1  -7  -5  632.34   42.10
  -1  -7  -5  514.25   41.30
  -1   7  -5  647.54   46.40
   1   7   5  604.04   43.30
  -1   7  -5  629.74   48.80
   1   7   5  598.54   42.30
   1   7   5  590.64   41.70
  -3  -7  -5   33.10   17.10
  -3  -7  -5    1.10    5.50
   3  -7   5    4.10    9.10
  -3  -7  -5    6.70    5.30
  -3  -7  -5    3.30   10.70
   3  -7   5    1.30    9.30
  -3   7  -5   -0.60   10.20
   3   7   5  -15.90   10.90
   3   7   5   19.90   16.90
   3   7   5    1.30    5.50
  -3   7  -5   16.00   13.60
   3   7   5    8.70    5.50
  -5  -7  -5  265.07   20.00
  -5  -7  -5  197.88   26.70
   5  -7   5  259.57   25.50
  -5  -7  -5  219.58   19.90
  -5   7  -5  204.98   27.30
   5   7   5  211.48   20.10
  -5   7  -5  270.37   28.40
   5   7   5  226.28   30.00
   5   7   5  214.68   20.50
  -5   7  -5  245.88   31.70
   5   7   5  195.78   32.10
  -7  -7  -5   95.09   14.90
   7  -7   5  131.49   22.40
  -7  -7  -5  145.89   24.00
  -7   7  -5   77.99   23.00
  -7   7  -5  153.38   23.70
   7   7   5  117.89   24.60
  -7   7  -5   64.99   30.40
   7   7   5  109.79   16.10
   7   7   5  127.69   15.20
  -9  -7  -5  626.94   62.49
   9   7   5  626.24   67.49
  -9   7  -5  700.33   52.69
   9   7   5  710.43   51.99
  -9   7  -5  609.84   61.29
   9   7   5  653.53   53.49
  -9   7  -5  693.83   64.69
 -11  -7  -5  309.27   46.50
 -11   7  -5  254.67   46.20
  11   7   5  282.47   33.20
 -11   7  -5  292.77   48.30
 -11   7  -5  375.56   38.80
  11   7   5  372.66   44.70
 -12  -8   5  202.18   52.39
 -12  -8   5  134.29   25.50
 -12   8   5   97.29   36.20
 -12   8   5  164.68   30.40
  12   8  -5  153.28   29.40
 -12   8   5  165.58   27.40
 -12   8   5  149.29   37.70
 -10  -8   5  479.25   57.49
 -10  -8   5  474.75   42.00
  10   8  -5  448.46   43.60
 -10   8   5  531.45   44.10
 -10   8   5  436.46   41.90
  -8  -8   5  102.39   28.10
   8  -8  -5   62.99   25.10
  -8  -8   5   37.80   13.50
   8   8  -5   87.29   15.40
  -8   8   5   63.39   15.10
  -8   8   5  116.79   16.20
  -8   8   5   70.29   31.80
  -8   8   5   62.59   15.10
  -6  -8   5  199.48   26.90
  -6  -8   5  164.78   18.70
  -6  -8   5  174.28   17.70
  -6  -8   5  155.48   19.10
   6  -8  -5  140.29   25.70
  -6   8   5  237.28   35.20
   6   8  -5  146.59   25.90
   6   8  -5  167.18   18.50
  -6   8   5  150.78   18.40
  -6   8   5  165.18   19.70
   4  -8  -5  103.89   12.40
  -4  -8   5  116.09   15.00
   4  -8  -5  129.49   23.50
  -4  -8   5  136.79   19.80
  -4  -8   5   86.49   11.90
  -4   8   5  128.49   24.10
   4   8  -5  108.89   13.20
   4   8  -5   97.49   19.80
  -4   8   5  105.59   13.20
  -2  -8   5  564.24   38.00
  -2  -8   5  547.95   43.60
   2  -8  -5  565.64   49.30
   2  -8  -5  553.34   38.00
   2   8  -5  483.15   46.00
   2   8  -5  520.95   37.90
  -2   8   5  550.34   38.30
   2   8  -5  507.65   43.50
  -2   8   5  529.35   48.50
   0  -8   5  812.62   63.39
   0  -8   5  858.11   62.49
   0  -8  -5  842.22   68.69
   0  -8  -5  844.52   58.49
   0  -8   5  916.31   58.29
   0   8  -5  874.11   58.19
   0   8  -5  892.81   62.99
   0   8   5  842.42   58.79
   0   8  -5  841.02   64.89
   2  -8   5 2344.17  160.08
  -2  -8  -5 2418.76  159.48
  -2  -8  -5 2347.36  156.78
  -2  -8  -5 2366.86  168.38
   2  -8   5 2531.55  162.78
  -2   8  -5 2402.06  160.38
   2   8   5 2218.78  158.18
   2   8   5 2455.65  157.18
  -2   8  -5 2332.17  162.98
   2   8   5 2309.47  156.48
   4  -8   5  813.42   60.19
  -4  -8  -5  762.92   53.09
  -4  -8  -5  820.32   53.19
   4  -8   5  795.42   57.79
  -4  -8  -5  670.13   57.89
   4   8   5  695.73   57.79
   4   8   5  794.22   53.69
   4   8   5  729.23   53.19
  -4   8  -5  821.92   59.09
  -4   8  -5  701.73   63.59
   6  -8   5  461.45   36.40
  -6  -8  -5  344.87   38.30
  -6  -8  -5  327.77   30.50
  -6  -8  -5  336.47   30.50
  -6   8  -5  405.16   52.59
   6   8   5  301.67   41.60
  -6   8  -5  389.06   38.90
   6   8   5  453.95   31.20
   6   8   5  321.87   43.30
   6   8   5  356.56   30.70
  -6   8  -5  396.56   41.60
  -8  -8  -5  634.94   57.39
   8  -8   5  568.24   52.39
   8   8   5  585.04   48.20
  -8   8  -5  630.34   57.59
   8   8   5  653.63   47.30
   8   8   5  488.75   59.79
 -10  -8  -5  -32.60   42.30
 -10  -8  -5   35.30   29.80
 -10   8  -5   -1.40   33.40
  10   8   5   43.40   17.70
  10   8   5   46.90   21.10
 -10   8  -5   52.29   29.50
 -12  -8  -5  100.09   63.69
 -12  -8  -5  -18.30   44.10
 -12   8  -5   60.69   26.40
  12   8   5   58.19   23.40
  12   8   5   28.30   26.90
 -12   8  -5   86.19   43.80
 -12   8  -5  -13.80   40.90
 -11  -9   5  192.78   57.29
 -11  -9   5  155.38   27.20
 -11   9   5  247.28   29.70
  11   9  -5  262.67   31.00
 -11   9   5  140.09   47.10
 -11   9   5  237.48   33.30
   9  -9  -5  390.46   48.70
  -9  -9   5  344.37   34.30
  -9  -9   5  377.86   49.50
  -9   9   5  382.26   36.10
   9   9  -5  374.56   36.50
   7  -9  -5  428.06   48.40
  -7  -9   5  534.95   56.59
  -7  -9   5  458.15   41.20
  -7  -9   5  539.35   38.40
  -7   9   5  507.85   65.99
   7   9  -5  498.05   39.20
  -7   9   5  472.75   38.70
   5  -9  -5 1184.38   85.69
  -5  -9   5 1285.27   92.49
   5  -9  -5 1333.37   94.99
  -5  -9   5 1294.67   86.09
  -5  -9   5 1166.28   84.89
  -5  -9   5 1263.67   86.89
   5   9  -5 1214.28   93.19
  -5   9   5 1308.37   98.49
  -5   9   5 1371.06   86.29
   5   9  -5 1194.98   85.89
   3  -9  -5   79.59   21.20
  -3  -9   5   79.09   17.90
  -3  -9   5   99.09   17.60
  -3  -9   5   90.49   12.60
   3  -9  -5   81.89   10.70
   3   9  -5   94.29   12.50
   3   9  -5   85.59   18.60
  -3   9   5   74.89   10.20
   3   9  -5   63.59   17.10
  -3   9   5  104.79   22.50
  -1  -9   5  524.95   43.40
   1  -9  -5  526.65   49.99
   1  -9  -5  495.45   36.50
  -1  -9   5  514.85   36.40
  -1  -9   5  462.75   41.50
   1   9  -5  552.24   36.80
  -1   9   5  515.95   36.80
   1   9  -5  525.15   43.00
  -1   9   5  490.65   50.19
   1   9  -5  489.55   45.90
   1  -9   5  137.89   12.50
  -1  -9  -5  108.89   17.50
   1  -9   5  161.98   22.30
  -1  -9  -5  108.49   13.40
   1  -9   5  168.18   21.10
  -1  -9  -5  164.68   28.80
  -1   9  -5  118.39   21.90
   1   9   5   99.79   15.50
  -1   9  -5  146.69   20.00
  -1   9  -5  139.29   12.60
   1   9   5   99.99   13.50
  -3  -9  -5    8.10    6.90
  -3  -9  -5   19.60   13.10
  -3  -9  -5   49.90   26.20
  -3  -9  -5   -8.10    5.60
   3  -9   5   -9.50   11.80
   3  -9   5    0.50   11.10
   3   9   5   35.10   22.70
   3   9   5   -5.80   12.60
  -3   9  -5   -7.40   13.30
  -3   9  -5   -0.20   17.40
   3   9   5    2.50    6.40
   3   9   5   -1.80    6.30
   5  -9   5   44.70   16.60
   5  -9   5   40.80   16.30
  -5  -9  -5   11.40   22.20
  -5  -9  -5   35.70   10.10
  -5  -9  -5   30.80   10.70
  -5  -9  -5    4.80   15.80
   5   9   5   41.40   10.30
  -5   9  -5   53.89   25.90
   5   9   5   52.79   20.40
   5   9   5   34.30   22.70
   5   9   5   25.50    9.50
  -5   9  -5   34.10   18.00
  -7  -9  -5  178.98   32.50
   7  -9   5  288.47   32.90
   7   9   5  219.68   26.40
   7   9   5  228.98   24.50
   7   9   5  210.68   35.50
  -7   9  -5  282.47   37.90
   9  -9   5  224.98   34.60
  -9  -9  -5  181.38   39.20
  -9   9  -5  254.47   43.00
   9   9   5  235.28   28.30
   9   9   5  199.48   27.20
 -11  -9  -5  178.38   43.60
 -11  -9  -5   22.20   60.79
  11   9   5  172.98   26.60
 -11   9  -5  162.48   44.00
  11   9   5  110.39   28.40
 -11   9  -5  112.79   46.10
 -12 -10   5  110.49   27.90
 -12 -10   5  175.38   65.89
  12  10  -5   64.19   27.80
 -12  10   5   90.49   30.50
 -12  10   5   41.90   25.50
 -12  10   5   67.09   49.99
  10 -10  -5    6.40   31.40
 -10 -10   5    5.10   18.20
 -10 -10   5   -2.30   40.50
  10  10  -5   38.90   20.40
 -10  10   5   12.90   19.20
 -10  10   5   21.10   18.00
  -8 -10   5   45.80   14.90
  -8 -10   5  113.59   33.80
   8 -10  -5   49.20   26.50
  -8  10   5   69.69   16.30
   8  10  -5   70.39   16.60
  -6 -10   5   11.70    8.70
  -6 -10   5   32.40   22.80
  -6 -10   5   -0.30   13.00
   6 -10  -5   24.30   19.30
   6  10  -5   23.10   10.90
  -6  10   5   -3.00   35.40
  -6  10   5    4.80   10.10
   4 -10  -5   94.39   13.60
  -4 -10   5  149.59   17.30
  -4 -10   5  127.19   23.30
  -4 -10   5  118.59   22.50
   4 -10  -5  121.69   27.20
  -4  10   5   95.19   30.50
  -4  10   5   96.19   13.30
   4  10  -5  111.69   24.20
   2 -10  -5  -11.30   19.80
  -2 -10   5    6.60   14.40
   2 -10  -5   10.30    7.10
  -2 -10   5   11.80    7.90
  -2 -10   5   14.80   14.90
   2  10  -5   -1.80   16.00
  -2  10   5   13.50   20.40
   2  10  -5   10.10    6.70
   2  10  -5   -5.60   16.90
  -2  10   5    6.80    6.90
   0 -10   5  275.77   30.40
   0 -10   5  265.17   21.00
   0 -10  -5  254.57   44.20
   0 -10  -5  248.38   21.50
   0 -10   5  244.48   29.10
   0  10   5  246.08   21.70
   0  10  -5  232.18   36.30
   0  10  -5  271.17   21.30
   0  10  -5  301.57   30.10
  -2 -10  -5   28.40   27.80
  -2 -10  -5   33.70   16.50
   2 -10   5   50.19    8.20
   2 -10   5   55.49   16.10
   2 -10   5   69.19   16.90
  -2 -10  -5   48.10    9.60
  -2  10  -5   46.80   21.00
  -2  10  -5   60.79    8.50
   2  10   5   37.20   12.70
  -2  10  -5   69.19   17.10
   2  10   5   67.09   10.30
   2  10   5    8.00   23.90
   4 -10   5   63.29   17.40
   4 -10   5   35.80   17.80
  -4 -10  -5   17.10   10.70
  -4 -10  -5   86.29   19.40
  -4 -10  -5   42.40    9.50
  -4  10  -5   36.30   25.70
   4  10   5   26.30   28.50
   4  10   5   52.79   10.40
   4  10   5   64.79   17.50
  -4  10  -5   11.80   16.10
  -6 -10  -5  326.47   36.00
   6 -10   5  278.37   34.00
   6 -10   5  307.97   39.40
   6  10   5  301.37   28.00
   6  10   5  259.37   47.00
  -6  10  -5  203.38   34.50
   6  10   5  352.76   27.90
   8 -10   5   47.60   22.60
  -8 -10  -5   12.40   36.60
  -8 -10  -5   29.70   26.00
   8  10   5   28.80   15.60
   8  10   5   34.80   14.40
  -8  10  -5   24.40   27.40
 -10 -10  -5   -4.00   33.90
 -10 -10  -5   -7.50   51.39
 -10  10  -5   19.50   30.40
 -10  10  -5  -20.80   33.60
  10  10   5   34.10   21.60
  10  10   5   24.20   19.10
 -11 -11   5   19.70   48.90
 -11 -11   5   72.79   24.40
 -11  11   5   -3.10   45.90
 -11  11   5  -12.00   23.90
  11  11  -5   50.29   25.30
  -9 -11   5   39.40   40.40
   9 -11  -5   15.50   31.20
  -9 -11   5   37.80   16.60
   9  11  -5   50.79   18.90
  -9  11   5    2.90   16.30
   7 -11  -5   30.90   23.60
  -7 -11   5   63.19   28.00
  -7  11   5   34.50   14.10
  -5 -11   5   72.49   22.50
   5 -11  -5   55.79   24.00
  -5 -11   5   56.09   25.10
  -5  11   5   50.09   11.90
   5  11  -5   55.89   12.00
   3 -11  -5   -0.60    9.70
   3 -11  -5   35.70   22.80
  -3 -11   5   23.50   19.10
  -3 -11   5   14.90   16.80
  -3 -11   5   21.30   10.20
  -3  11   5   11.90    7.90
  -3  11   5   25.50   26.90
   3  11  -5   24.20    9.40
   3  11  -5    1.50   21.60
   3  11  -5   40.10   20.50
   1 -11  -5   24.60   25.20
   1 -11  -5   24.40    8.30
  -1 -11   5   18.20    8.10
  -1 -11   5   18.90   16.10
   1  11  -5   18.80    8.10
  -1  11   5   25.80    7.80
   1  11  -5   19.80   17.60
  -1  11   5  -13.90   23.40
   1  11  -5   41.30   22.50
  -1 -11  -5   11.10   17.20
  -1 -11  -5   40.00    9.20
  -1 -11  -5   12.10   28.70
   1 -11   5   31.80   14.70
   1 -11   5   36.30    8.10
   1 -11   5   52.59   17.50
   1  11   5  -23.90   23.30
  -1  11  -5   36.90    7.90
  -1  11  -5   86.09   25.20
  -1  11  -5   13.70   16.50
   1  11   5   36.30    8.80
   1  11   5   19.50   12.70
  -3 -11  -5  179.58   37.90
  -3 -11  -5  186.18   27.10
   3 -11   5  230.08   27.10
   3 -11   5  140.49   15.90
  -3 -11  -5  139.59   18.80
   3 -11   5  165.18   28.90
   3  11   5  146.09   21.60
  -3  11  -5  165.68   16.70
   3  11   5  173.98   18.90
  -3  11  -5  130.29   31.70
  -3  11  -5  184.48   26.20
  -5 -11  -5   30.20   20.90
   5 -11   5   20.10   17.60
   5 -11   5   14.40   17.80
  -5 -11  -5   22.60   33.80
  -5 -11  -5    7.30   10.00
  -5  11  -5   22.90   21.70
   5  11   5    8.10   10.40
   5  11   5   -6.10    9.70
  -7 -11  -5   42.60   42.00
  -7 -11  -5   40.40   26.60
   7 -11   5   50.69   22.90
  -7  11  -5   51.39   25.80
   7  11   5   27.50   15.10
   7  11   5   37.70   15.90
  -9 -11  -5   -9.80   49.00
  -9 -11  -5    6.80   31.20
   9 -11   5    2.60   27.00
   9  11   5   11.70   17.90
  -9  11  -5   31.30   31.80
   9  11   5    3.70   20.20
 -11 -11  -5  -11.40   42.10
 -11 -11  -5  -34.10   67.29
  11  11   5    1.10   21.70
 -11  11  -5    7.60   49.99
 -11  11  -5   18.60   39.40
  11  11   5    1.80   29.20
 -10 -12   5   72.09   53.09
 -10 -12   5   31.70   21.90
  10 -12  -5   25.10   34.20
 -10  12   5   26.50   21.10
  10  12  -5   50.89   23.30
   8 -12  -5  -10.30   27.80
  -8 -12   5   59.49   33.50
  -8 -12   5    4.30   15.00
  -8  12   5  -14.80   15.70
   8  12  -5   18.20   16.80
   6 -12  -5   82.79   27.40
  -6 -12   5   59.59   28.10
  -6 -12   5  104.79   14.40
   6  12  -5   85.39   16.40
  -6  12   5   87.59   15.80
  -4 -12   5   78.79   23.30
  -4 -12   5   70.69   22.30
   4 -12  -5   50.19   27.90
   4  12  -5  -12.70   37.50
   4  12  -5   52.49   12.80
  -4  12   5   50.09   11.60
  -2 -12   5   17.20   10.20
   2 -12  -5    1.40   10.20
  -2 -12   5   -4.50   16.40
   2 -12  -5   21.30   23.60
  -2 -12   5   11.10   18.30
  -2  12   5    8.80    8.40
  -2  12   5  -22.60   31.70
   2  12  -5    1.40   23.10
   2  12  -5   -2.10   24.70
   0 -12   5   24.00   16.30
   0 -12  -5   13.50    9.70
   0 -12  -5   47.00   27.50
   0 -12   5   24.80   17.60
   0 -12   5   25.90    8.70
   0  12  -5  -16.40   19.40
   0  12   5   19.60    9.80
   0  12  -5   37.10   26.30
   0  12   5   -9.10   29.40
   0  12  -5   21.60    8.10
   2 -12   5  456.25   43.60
  -2 -12  -5  398.86   44.10
   2 -12   5  457.35   45.20
   2 -12   5  464.95   33.70
  -2 -12  -5  403.56   65.69
   2  12   5  434.86   39.40
   2  12   5  474.35   35.80
  -2  12  -5  483.95   34.20
  -2  12  -5  427.36   65.59
  -2  12  -5  432.66   46.90
  -4 -12  -5   19.60   10.00
  -4 -12  -5   -3.10   38.90
   4 -12   5   58.99   19.90
  -4 -12  -5   20.00   24.00
   4 -12   5   36.40   21.30
   4  12   5   33.00   11.80
   4  12   5   20.40   21.90
  -4  12  -5   48.50   24.40
   4  12   5   31.00   11.40
  -6 -12  -5   76.59   45.80
  -6 -12  -5    0.20   26.00
   6 -12   5   14.60   20.00
   6 -12   5   40.00   23.20
   6  12   5   22.40   13.40
   6  12   5   33.50   14.20
   8 -12   5   77.59   30.10
  -8 -12  -5  113.69   55.09
  -8 -12  -5   96.99   33.70
  -8  12  -5  132.09   36.00
   8  12   5  105.39   19.20
 -10 -12  -5   69.59   71.29
 -10 -12  -5   -5.20   39.40
  10  12   5    9.80   26.30
  10  12   5   -0.50   20.20
 -10  12  -5  -47.80   34.90
  -9 -13   5  417.46   43.10
  -9 -13   5  538.95   78.89
   9 -13  -5  406.16   70.39
   9  13  -5  440.36   48.00
  -9  13   5  445.06   45.20
  -7 -13   5  165.58   36.30
  -7 -13   5  209.48   25.10
   7 -13  -5  132.99   36.70
   7  13  -5  174.18   23.20
  -7  13   5  156.48   22.40
   5 -13  -5  302.37   50.99
  -5 -13   5  259.07   38.90
  -5 -13   5  310.97   43.60
   5  13  -5  258.17   29.60
  -5  13   5  317.67   29.70
  -3 -13   5  194.38   31.80
  -3 -13   5  250.57   34.80
   3 -13  -5  247.38   40.70
   3  13  -5  209.08   24.00
  -3  13   5  218.08   23.30
   3  13  -5  172.68   43.80
  -1 -13   5   84.29   21.70
  -1 -13   5   69.89   23.20
  -1 -13   5   43.30   12.20
   1 -13  -5  122.59   35.80
  -1  13   5   65.99   12.20
   1  13  -5   74.79   12.70
   1  13  -5   89.19   30.90
  -1 -13  -5  229.38   29.20
  -1 -13  -5  268.27   43.60
   1 -13   5  192.98   29.00
   1 -13   5  230.38   20.40
   1 -13   5  204.58   31.90
  -1  13  -5  176.88   20.10
   1  13   5  177.98   27.50
   1  13   5  144.79   21.50
  -1  13  -5  174.18   30.20
  -3 -13  -5   -7.80   39.90
  -3 -13  -5    3.20   24.60
   3 -13   5   20.10   10.00
   3 -13   5   33.80   19.70
   3 -13   5   19.20   21.10
  -3  13  -5   30.00   10.40
   3  13   5   27.70   12.20
   3  13   5   23.60   19.60
  -3  13  -5   71.09   28.30
   5 -13   5   12.80   20.80
   5 -13   5   22.20   12.30
   5 -13   5   -0.30   22.60
  -5 -13  -5   23.10   11.90
  -5 -13  -5    9.90   26.70
  -5 -13  -5   47.90   49.30
   5  13   5    8.70   12.60
   5  13   5   15.80   14.30
  -7 -13  -5   55.49   34.60
  -7 -13  -5   89.89   58.39
   7 -13   5   84.39   30.90
   7 -13   5   70.09   27.20
   7  13   5   62.29   19.20
   7  13   5   86.59   18.90
  -9 -13  -5  138.39   83.29
   9 -13   5  265.77   39.90
  -9 -13  -5  200.18   49.50
   9  13   5  265.77   35.30
  -9  13  -5  304.87   53.09
   9  13   5  259.97   30.70
  10 -14  -5  211.78   49.00
 -10 -14   5  258.07   70.89
 -10 -14   5  217.28   32.20
  10  14  -5  187.48   34.20
 -10  14   5  251.67   32.60
   8 -14  -5  167.98   42.40
  -8 -14   5  158.18   23.70
  -8 -14   5  159.08   44.90
   8  14  -5  154.08   26.30
  -8  14   5  148.49   24.20
  -6 -14   5   47.30   32.40
   6 -14  -5   31.90   29.30
  -6 -14   5   13.90   29.60
   6  14  -5   13.70   15.80
  -6  14   5    2.00   15.70
  -4 -14   5   25.60   26.70
   4 -14  -5   12.80   30.50
  -4 -14   5   21.80   27.50
   4  14  -5   41.00   14.60
   4  14  -5  -98.79   56.19
  -4  14   5   14.50   12.50
  -2 -14   5  395.96   47.80
  -2 -14   5  341.07   48.70
   2 -14  -5  453.25   62.59
   2  14  -5  430.06   36.70
  -2  14   5  385.16   34.70
   0 -14  -5  847.32   93.29
   0 -14   5 1080.19   81.49
   0 -14   5 1065.49   78.79
   0  14  -5 1018.80   69.19
   0  14   5  850.21   69.69
   2 -14   5  435.16   53.29
  -2 -14  -5  516.65   53.39
  -2 -14  -5  452.65   73.09
   2 -14   5  587.54   52.29
   2 -14   5  495.15   40.20
   2  14   5  507.95   42.00
   2  14   5  494.45   47.30
  -2  14  -5  601.64   41.50
   4 -14   5  907.11   72.09
   4 -14   5  764.22   60.29
  -4 -14  -5  824.62   76.89
   4 -14   5  927.61   77.59
   4  14   5  800.42   64.29
  -4  14  -5  918.81   63.19
   6 -14   5  304.47   48.90
  -6 -14  -5  226.38   43.90
  -6 -14  -5   89.49   68.69
   6 -14   5  245.08   37.80
   6  14   5  239.28   27.90
   6  14   5  265.67   31.20
   8 -14   5  104.39   33.30
  -8 -14  -5   93.89   79.59
  -8 -14  -5  112.89   44.40
  -8  14  -5   90.39   40.10
   8  14   5   97.89   28.90
   8  14   5  103.89   22.00
 -10 -14  -5   74.89  108.39
   9 -15  -5  190.48   50.89
  -9 -15   5   88.69   54.69
  -9 -15   5  200.68   31.10
  -9  15   5  200.28   31.00
   9  15  -5  140.79   31.20
  -7 -15   5  481.95   69.19
   7 -15  -5  537.65   70.69
  -7  15   5  608.54   50.39
   7  15  -5  484.35   48.90
   5 -15  -5  472.65   65.39
  -5 -15   5  521.15   63.89
  -5 -15   5  433.96   56.09
  -5  15   5  514.75   43.90
   5  15  -5  498.35   45.60
  -3 -15   5  932.21   82.89
   3 -15  -5  998.60   89.39
  -3 -15   5  823.92   77.49
   3  15  -5  868.01   66.49
  -3  15   5  858.71   66.09
  -1 -15   5 1276.77  101.79
   1 -15  -5 1299.17  110.19
  -1 -15   5 1280.17   99.19
  -1  15   5 1249.18   88.89
   1  15  -5 1169.18   88.09
  -1 -15  -5   59.09   43.70
   1 -15   5    4.10   24.80
   1 -15   5   28.50   27.00
  -1 -15  -5   -5.00   24.10
  -1  15  -5   24.90   13.10
   1  15   5   14.40   13.20
   1  15   5   10.90   21.80
   3 -15   5  105.19   30.60
   3 -15   5  109.09   28.90
  -3 -15  -5   94.19   58.89
  -3 -15  -5  118.69   32.90
   3  15   5  111.69   19.60
  -3  15  -5  133.29   18.70
  -5 -15  -5   42.30   63.29
   5 -15   5  135.49   31.00
   5 -15   5   76.19   34.00
  -5 -15  -5  132.59   36.50
  -5  15  -5  139.39   21.30
   7 -15   5  501.65   55.09
   7 -15   5  472.25   64.29
  -7 -15  -5  398.26   59.89
  -7 -15  -5  209.98   93.89
   7  15   5  367.36   43.60
   7  15   5  462.95   50.79
  -9 -15  -5   46.00   49.40
  -9 -15  -5    1.80   98.19
   9 -15   5  113.59   41.70
   9  15   5   64.69   33.60
  -9  15  -5  113.39   54.99
   9  15   5   95.89   26.20
  -8 -16   5    1.70   46.20
   8 -16  -5  170.18   47.30
   8  16  -5   78.79   26.60
  -8  16   5   74.59   25.10
  -6 -16   5    9.20   41.70
  -6 -16   5   44.70   36.70
   6 -16  -5   41.00   36.70
   6  16  -5    7.20   20.30
  -6  16   5   29.50   20.10
   4 -16  -5   93.89   41.40
  -4 -16   5   62.69   36.20
  -4 -16   5   26.40   32.10
  -4  16   5   77.59   18.90
   4  16  -5  107.99   23.50
  -2 -16   5  198.38   41.20
  -2 -16   5  263.47   41.20
   2 -16  -5  192.28   46.50
   2  16  -5  216.28   27.90
  -2  16   5  179.28   24.60
   0 -16  -5  950.40  100.09
   0 -16   5 1018.00   87.49
   0 -16  -5 1151.98   80.79
   0 -16   5 1004.00   81.99
   0  16   5  912.81   71.49
   0  16   5  865.51   75.29
   0  16  -5  937.31   72.69
  -2 -16  -5 1009.00   85.69
  -2 -16  -5  944.41  110.59
   2 -16   5 1067.29   82.19
   2 -16   5 1004.50   86.59
   2  16   5  848.62   71.39
  -2  16  -5  909.41   70.09
  -4 -16  -5  417.36   68.19
  -4 -16  -5  354.66   88.29
   4 -16   5  644.04   61.99
   4 -16   5  617.84   67.39
   4  16   5  466.05   49.70
  -4  16  -5  653.83   51.59
  -6 -16  -5  455.75   58.29
   6 -16   5  521.45   57.49
   6 -16   5  500.25   64.89
  -6 -16  -5  267.07   93.29
   6  16   5  382.96   44.90
   8 -16   5  200.38   40.20
  -8 -16  -5  -40.10  112.69
  -8 -16  -5  116.19   55.29
  -8  16  -5  215.78   46.40
   8  16   5  131.59   35.30
   8  16   5  140.09   30.10
   7 -17  -5  251.77   49.99
  -7 -17   5  151.68   47.80
  -7 -17   5  125.99   51.69
   7  17  -5  187.38   30.70
  -7  17   5  229.68   33.30
  -5 -17   5 1088.99  103.99
  -5 -17   5 1315.77  108.79
   5 -17  -5 1128.19  105.79
   5  17  -5  913.21   86.99
  -5  17   5 1148.69   84.09
   3 -17  -5  749.42   90.19
  -3 -17   5  644.84   73.29
  -3 -17   5  698.53   80.99
   3  17  -5  561.94   56.99
  -3  17   5  593.94   53.49
   1 -17  -5  203.68   50.59
  -1 -17   5  194.18   41.10
  -1 -17   5  120.79   38.70
   1  17  -5  132.99   27.30
  -1  17   5  171.88   23.50
   1 -17   5  373.96   52.79
  -1 -17  -5  336.67   45.60
  -1 -17  -5  325.67   62.89
   1 -17   5  364.36   58.59
  -1  17  -5  278.87   35.90
   1  17   5  274.87   36.30
  -3 -17  -5   10.00   61.79
   3 -17   5   24.80   32.60
  -3 -17  -5   15.70   34.30
   3 -17   5  103.69   31.40
   3  17   5   43.60   21.10
  -3  17  -5   30.70   19.20
  -5 -17  -5   56.69   80.09
   5 -17   5   38.80   32.50
   5 -17   5   58.29   39.50
  -5 -17  -5  -44.40   40.10
   5  17   5   38.20   21.60
  -5  17  -5   88.39   22.90
  -7 -17  -5   99.99   48.50
  -7 -17  -5  167.48  128.09
   7 -17   5   92.89   41.20
   7 -17   5   62.09   41.90
   7  17   5  100.69   26.80
   6 -18  -5   28.10   47.50
  -6 -18   5  -46.90   46.60
  -6  18   5   13.20   23.60
   6  18  -5  -22.20   26.20
   4 -18  -5   50.99   48.00
  -4 -18   5   52.99   45.30
  -4 -18   5   55.09   40.80
  -4  18   5   41.60   22.50
   4  18  -5   43.50   26.10
  -2 -18   5  327.07   51.69
  -2 -18   5  243.68   49.00
   2 -18  -5  199.68   60.59
   2  18  -5  260.27   33.80
  -2  18   5  231.18   33.10
   0 -18   5  243.98   48.00
   0 -18   5  238.08   45.70
   0 -18  -5  185.58   65.39
   0  18   5  198.48   27.50
   0  18  -5  200.68   31.70
   2 -18   5  520.55   73.09
  -2 -18  -5  558.74   66.19
   2 -18   5  587.04   65.99
  -2 -18  -5  576.74   93.19
  -2  18  -5  571.94   53.09
   2  18   5  582.64   53.49
  -4 -18  -5  454.05   70.49
  -4 -18  -5  579.84  107.09
   4 -18   5  614.24   75.19
   4 -18   5  526.25   67.49
   4  18   5  508.75   55.39
  -4  18  -5  563.14   53.19
   6 -18   5  426.76   71.59
   6 -18   5  396.46   53.49
  -6  18  -5  419.96   53.49
   6  18   5  364.26   49.90
   5 -19  -5  202.98   52.99
  -5 -19   5  116.79   48.30
  -5  19   5  297.87   35.60
   5  19  -5  241.68   36.30
  -3 -19   5  288.17   59.19
  -3 -19   5  254.57   51.69
   3 -19  -5  238.98   60.29
   3  19  -5  283.07   39.20
  -3  19   5  248.28   34.40
  -1 -19   5  423.56   57.19
   1 -19  -5  444.76   69.79
  -1 -19   5  343.97   61.19
   1  19  -5  361.56   45.40
  -1  19   5  305.07   44.80
   1 -19   5    9.00   39.80
  -1 -19  -5   21.10   63.79
   1 -19   5   31.50   40.30
   1  19   5  -15.20   22.00
  -1  19  -5   27.40   25.30
  -3 -19  -5   47.90   41.60
   3 -19   5  146.79   43.30
  -3 -19  -5   89.89   69.19
   3 -19   5  114.49   43.40
   3  19   5  101.49   29.30
  -3  19  -5   85.29   30.50
   5 -19   5   55.99   41.60
  -5 -19  -5  158.78   46.30
  -5 -19  -5  109.89  121.49
   5 -19   5  102.29   49.00
  -5  19  -5   65.29   33.60
   5  19   5   58.39   26.90
  -2 -20   5   18.90   51.99
   2 -20  -5   35.20   66.49
  -2 -20   5  -33.80   51.99
   2  20  -5   -9.90   31.70
  -2  20   5   56.59   26.20
   0 -20   5  454.75   68.39
   0 -20   5  498.25   66.29
   0 -20  -5  452.75   80.49
   0  20   5  393.36   47.00
   0  20  -5  522.55   56.69
  -2 -20  -5    4.60   68.49
   2 -20   5   22.70   44.40
   2 -20   5   60.49   44.90
  -2 -20  -5   -5.50   52.69
   2  20   5   -4.40   27.20
  -2  20  -5   27.40   30.10
 -12   0   6  381.96   41.30
 -12   0   6  390.76   51.29
  12   0  -6  384.76   41.60
  10   0  -6   41.40   14.80
 -10   0   6   10.50   22.00
 -10   0   6   46.80   14.20
   8   0  -6  162.68   25.80
  -8   0   6  118.19   21.30
  -8   0   6  112.39   17.50
   8   0  -6  130.99   18.00
  -8   0   6  162.18   17.30
  -8   0   6  134.89   18.40
   6   0  -6  439.86   34.30
  -6   0   6  377.86   30.10
  -6   0   6  432.16   33.80
   6   0  -6  377.36   29.90
  -6   0   6  352.46   30.40
  -6   0   6  408.96   29.90
  -4   0   6 9564.04  623.54
   4   0  -6 9606.34  622.74
   4   0  -6 9739.83  623.04
  -4   0   6 9561.34  622.94
  -4   0   6 8811.92  622.64
   4   0  -6 9999.00  623.74
   2   0  -6  349.17   24.00
  -2   0   6  356.46   24.20
   2   0  -6  340.27   24.50
   2   0  -6  320.67   23.90
  -2   0   6  327.87   24.70
  -2   0   6  326.67   23.60
   0   0   6 3527.85  229.28
   0   0  -6 3474.45  227.98
   0   0  -6 3208.28  227.18
   0   0  -6 3791.42  230.08
   0   0   6 3380.16  227.98
   2   0   6  792.72   54.49
  -2   0  -6  883.11   58.89
   2   0   6  814.22   56.29
   2   0   6  800.82   57.49
  -2   0  -6  723.93   55.59
  -2   0  -6  849.22   54.39
  -4   0  -6 1662.93  115.29
   4   0   6 1688.53  116.39
  -4   0  -6 1695.03  117.59
   4   0   6 1743.43  112.99
   4   0   6 1673.23  115.09
  -4   0  -6 1721.13  112.79
  -6   0  -6 2137.19  147.09
   6   0   6 2351.86  148.39
   6   0   6 2132.69  143.69
  -6   0  -6 2035.90  146.19
  -6   0  -6 2119.89  143.39
  -6   0  -6 2152.08  149.59
  -8   0  -6   43.50   19.40
   8   0   6   31.70   10.90
  -8   0  -6   22.90   14.10
   8   0   6   66.39   23.50
  -8   0  -6   50.89   18.20
  10   0   6   24.00   12.60
 -10   0  -6   21.10   13.00
 -10   0  -6   21.00   26.60
 -10   0  -6   59.79   30.40
  10   0   6   32.10   16.30
  12   0   6   59.29   21.80
 -12   0  -6   86.09   48.40
 -12   0  -6   33.20   38.00
 -13  -1   6  162.08   29.90
 -13  -1   6  127.99   44.20
  13  -1  -6  126.79   28.30
 -13   1   6  199.68   31.40
 -13   1   6  133.99   44.60
  13   1  -6  178.08   30.40
  11  -1  -6  632.64   50.69
 -11  -1   6  532.75   60.29
 -11  -1   6  643.44   49.80
 -11   1   6  479.35   59.99
 -11   1   6  653.33   50.39
  11   1  -6  604.04   51.19
  -9  -1   6 1032.10   74.59
  -9  -1   6  972.90   69.39
   9  -1  -6  966.00   69.69
   9   1  -6 1053.99   70.09
  -9   1   6  979.70   69.29
   9   1  -6  847.92   79.99
  -9   1   6  906.61   73.29
  -7  -1   6 1938.61  136.99
  -7  -1   6 2093.79  139.99
  -7  -1   6 2012.90  137.79
  -7  -1   6 2008.90  137.29
   7  -1  -6 2050.19  137.49
   7  -1  -6 2302.17  140.79
  -7   1   6 1917.11  137.29
   7   1  -6 2083.09  137.39
  -7   1   6 2048.99  137.69
  -7   1   6 2031.30  139.09
  -7   1   6 2118.59  137.29
   7   1  -6 2011.40  139.89
  -5  -1   6 1460.45  104.59
   5  -1  -6 1817.22  106.19
  -5  -1   6 1471.85  104.69
  -5  -1   6 1625.24  106.89
   5  -1  -6 1490.55  104.89
   5  -1  -6 1587.44  104.69
   5   1  -6 1462.05  104.79
  -5   1   6 1457.05  104.59
   5   1  -6 1521.55  104.59
  -5   1   6 1561.74  104.99
  -5   1   6 1709.33  106.29
   5   1  -6 1676.43  107.09
   3  -1  -6  378.66   25.30
   3  -1  -6  360.96   25.40
  -3  -1   6  313.57   27.40
  -3  -1   6  301.87   24.80
  -3   1   6  371.56   25.40
  -3   1   6  347.47   25.20
   3   1  -6  360.56   25.10
   3   1  -6  359.16   25.10
   3   1  -6  345.57   27.00
  -1  -1   6 1741.13  106.49
   1  -1  -6 1626.64  106.39
  -1  -1   6 1642.74  107.09
  -1  -1   6 1544.25  107.19
  -1   1   6 1567.84  106.49
   1   1  -6 1658.83  105.99
   1   1  -6 1520.95  107.19
  -1   1   6 1591.44  105.89
   1   1  -6 1560.94  106.29
  -1   1   6 1673.93  106.19
  -1  -1  -6  147.59   17.80
   1  -1   6  137.79   14.20
  -1  -1  -6  128.89   12.10
  -1  -1  -6  145.09   11.00
   1  -1   6  128.69   13.90
  -1   1  -6  151.68   10.80
   1   1   6  131.09   11.30
   1   1   6  161.28   15.20
  -1   1  -6  128.79   13.00
  -1   1  -6  145.59   15.10
   1   1   6  122.69   12.70
   3  -1   6    3.50    4.20
  -3  -1  -6   14.80    8.70
   3  -1   6   11.30    8.10
   3  -1   6    1.40    6.50
  -3  -1  -6    1.00    6.30
  -3  -1  -6    2.30    3.60
   3   1   6    2.50    6.90
  -3   1  -6    7.50    6.80
   3   1   6    4.50    7.20
  -3   1  -6    4.40    3.60
  -3   1  -6    1.50    6.90
   3   1   6    6.10    4.00
   5  -1   6  293.17   22.50
  -5  -1  -6  307.57   27.60
  -5  -1  -6  294.07   30.90
  -5  -1  -6  272.17   22.30
  -5  -1  -6  286.57   27.20
   5  -1   6  264.67   26.40
   5  -1   6  328.27   30.10
  -5   1  -6  291.27   28.20
   5   1   6  282.37   22.80
  -5   1  -6  253.97   21.90
   5   1   6  298.07   29.40
  -5   1  -6  304.17   27.00
   7  -1   6 1540.55  102.49
  -7  -1  -6 1341.87  106.59
  -7  -1  -6 1588.44  102.59
  -7  -1  -6 1472.95  110.29
  -7  -1  -6 1243.68  105.19
   7  -1   6 1778.12  110.89
  -7   1  -6 1562.04  110.09
  -7   1  -6 1451.15  101.89
  -7   1  -6 1556.64  107.49
   7   1   6 1426.16  102.29
   7   1   6 1603.94  108.99
  -7   1  -6 1532.75  106.49
  -9  -1  -6 1703.13  125.69
  -9  -1  -6 1737.53  112.39
  -9  -1  -6 1474.85  121.19
   9  -1   6 1966.00  115.79
  -9   1  -6 1821.52  125.69
   9   1   6 1427.06  126.19
  -9   1  -6 1590.64  120.99
  -9   1  -6 1469.75  122.49
   9   1   6 1779.22  115.49
  11  -1   6  423.56   43.60
 -11  -1  -6  434.86   53.29
 -11  -1  -6  398.36   57.29
 -11   1  -6  436.26   63.19
  11   1   6  410.06   41.30
 -11   1  -6  534.35   68.19
 -13  -1  -6  405.86   60.49
 -13  -1  -6  333.47   72.99
 -13   1  -6  376.56   54.89
 -13   1  -6  368.46   67.99
  13   1   6  339.67   40.30
  12  -2  -6   50.29   22.80
 -12  -2   6   70.29   21.80
 -12  -2   6   62.99   34.20
 -12   2   6   28.40   34.60
  12   2  -6   63.79   22.30
 -12   2   6   73.49   22.80
  10  -2  -6  208.38   26.50
 -10  -2   6  210.58   25.60
 -10  -2   6  200.28   30.90
  10   2  -6  187.98   23.80
 -10   2   6  199.38   34.90
 -10   2   6  189.68   22.70
 -10   2   6  161.08   27.80
  -8  -2   6   86.79   13.70
   8  -2  -6   98.59   14.20
  -8  -2   6   90.99   18.90
   8   2  -6  107.59   23.60
  -8   2   6   75.69   16.60
  -8   2   6   80.99   15.70
   8   2  -6   88.89   14.30
  -8   2   6  102.99   13.90
  -8   2   6   75.09   17.20
  -8   2   6  106.99   18.40
   6  -2  -6   48.60    9.60
  -6  -2   6   38.80    9.00
  -6  -2   6   77.69   14.10
  -6  -2   6   50.19    8.90
  -6  -2   6   44.40    9.80
   6  -2  -6   54.29   14.50
   6   2  -6   90.09   15.40
   6   2  -6   53.49    9.50
  -6   2   6   60.79    8.70
  -6   2   6   54.59    9.60
  -6   2   6   54.19   12.30
  -4  -2   6  662.63   44.70
   4  -2  -6  628.44   44.70
  -4  -2   6  689.23   47.50
  -4  -2   6  615.64   44.40
   4  -2  -6  707.53   44.60
   4   2  -6  675.13   47.30
  -4   2   6  636.34   44.90
  -4   2   6  618.64   44.60
   4   2  -6  625.04   44.50
   4   2  -6  591.94   44.30
   2  -2  -6 2567.24  163.78
   2  -2  -6 2245.48  161.28
  -2  -2   6 2217.68  161.28
  -2  -2   6 2499.65  161.18
  -2   2   6 2363.86  160.98
   2   2  -6 2478.75  161.18
  -2   2   6 2608.84  161.48
  -2   2   6 2522.75  161.38
   2   2  -6 2490.05  162.78
   2   2  -6 2569.74  161.38
   0  -2  -6   26.70    4.40
   0  -2  -6    9.60    9.80
   0  -2  -6   25.30    3.40
   0  -2   6   20.10    4.20
   0  -2   6   35.50    7.10
   0  -2   6   35.50    7.60
   0   2   6   26.70    3.80
   0   2   6   20.50    8.90
   0   2   6   22.60    4.60
   0   2  -6   22.60    6.20
   0   2  -6   26.40    3.90
   0   2  -6   19.20    6.10
  -2  -2  -6 2578.24  162.68
  -2  -2  -6 2313.97  163.68
  -2  -2  -6 2611.14  167.98
   2  -2   6 2455.45  165.18
   2  -2   6 2466.65  164.48
   2  -2   6 2555.74  162.58
  -2   2  -6 2357.76  164.38
  -2   2  -6 2447.85  165.28
   2   2   6 2486.65  166.68
   2   2   6 2487.95  162.88
  -4  -2  -6 2578.04  185.88
  -4  -2  -6 2859.61  183.18
  -4  -2  -6 2599.74  180.58
   4  -2   6 3065.39  180.68
   4  -2   6 2597.74  183.78
  -4  -2  -6 2711.83  182.68
   4  -2   6 2655.33  182.78
  -4   2  -6 2816.32  183.18
   4   2   6 2650.33  184.78
  -4   2  -6 2659.13  184.18
  -4   2  -6 2936.41  180.48
   4   2   6 2747.33  180.88
   6  -2   6   18.10   11.40
  -6  -2  -6   -0.50    7.40
  -6  -2  -6   14.70   15.60
  -6  -2  -6   25.80   13.70
  -6  -2  -6   24.00   12.20
   6  -2   6   21.90    7.50
  -6   2  -6   35.80   13.90
  -6   2  -6   29.80    7.40
  -6   2  -6   17.10   12.20
  -6   2  -6   12.50   12.50
   6   2   6   24.30    7.50
   6   2   6    2.00   13.90
   8  -2   6  268.77   23.90
  -8  -2  -6  225.48   34.30
  -8  -2  -6  254.57   34.60
   8   2   6  256.97   39.90
  -8   2  -6  204.28   30.80
   8   2   6  224.68   24.50
  -8   2  -6  238.48   25.60
  -8   2  -6  215.48   35.10
  -8   2  -6  223.98   34.20
 -10  -2  -6  -13.20   30.60
  10  -2   6   38.90   14.70
 -10  -2  -6   56.99   26.30
 -10  -2  -6   13.60   15.20
  10   2   6   64.19   16.80
 -10   2  -6   44.70   23.80
 -10   2  -6   32.60   28.70
  10   2   6   37.20   14.50
  12  -2   6   29.20   21.40
 -12  -2  -6   35.30   58.09
 -12  -2  -6   67.99   38.50
 -12   2  -6   60.49   37.50
  12   2   6   26.50   19.30
 -12   2  -6   72.19   43.60
  12   2   6   21.20   21.40
 -13  -3   6  158.18   46.30
 -13  -3   6  155.58   29.00
  13   3  -6  118.89   28.10
 -13   3   6  138.39   28.10
 -13   3   6  118.19   43.90
 -13   3   6  159.68   33.30
 -11  -3   6  195.68   25.20
 -11  -3   6  131.79   33.90
  11   3  -6  164.18   24.30
 -11   3   6  202.18   27.20
 -11   3   6  169.18   32.50
 -11   3   6  195.28   24.40
  -9  -3   6 1244.08   93.39
  -9  -3   6 1204.28   87.69
  -9   3   6 1236.28   87.69
  -9   3   6 1235.08   91.49
  -9   3   6 1263.07   91.59
   9   3  -6 1373.66   88.49
  -7  -3   6  248.88   24.70
  -7  -3   6  229.78   23.80
  -7  -3   6  260.07   29.00
  -7  -3   6  243.58   21.70
   7   3  -6  254.67   22.20
  -7   3   6  285.27   25.90
  -7   3   6  261.17   24.30
  -7   3   6  198.68   24.10
   7   3  -6  280.37   32.80
  -7   3   6  226.68   26.80
  -7   3   6  241.48   21.40
  -5  -3   6 1042.90   71.29
  -5  -3   6  958.50   67.69
  -5  -3   6  925.71   67.39
  -5  -3   6  865.01   67.69
   5  -3  -6 1029.60   67.39
   5   3  -6 1001.60   67.79
   5   3  -6 1004.00   70.69
  -5   3   6  973.00   67.29
  -5   3   6 1095.99   68.29
  -5   3   6 1042.80   67.79
  -3  -3   6 1312.97   98.39
  -3  -3   6 1483.35   96.79
   3  -3  -6 1299.67   99.09
   3  -3  -6 1523.95   96.69
  -3  -3   6 1546.35   96.79
  -3   3   6 1485.05   96.89
  -3   3   6 1438.06   96.69
   3   3  -6 1547.45   99.09
   3   3  -6 1429.26   96.59
  -3   3   6 1535.15   99.99
  -3   3   6 1478.75   96.39
   3   3  -6 1374.36   96.49
   1  -3  -6   -2.80    3.00
   1  -3  -6   13.10   10.60
  -1  -3   6   -1.30    5.90
   1  -3  -6    2.90    3.20
  -1  -3   6    0.30    2.70
  -1  -3   6   -3.80    3.10
   1   3  -6    5.40    5.80
   1   3  -6    0.50    2.70
   1   3  -6    6.60    4.80
   1   3  -6    4.80    4.40
  -1   3   6    3.50    3.10
  -1   3   6   -3.60    3.50
  -1   3   6    4.50    8.80
   1   3  -6    3.60    2.70
  -1  -3  -6    0.90   10.70
  -1  -3  -6    4.00    5.60
   1  -3   6    1.60    5.90
  -1  -3  -6   10.70    4.60
  -1  -3  -6    1.20    2.20
  -1  -3  -6    5.00    3.10
   1   3   6    2.10    3.40
   1   3   6   -1.20    2.90
  -1   3  -6    0.80    5.40
   1   3   6   -6.90    9.10
  -1   3  -6    3.30    6.00
  -1   3  -6   -5.20    5.40
  -3  -3  -6  287.17   22.30
   3  -3   6  233.48   21.90
  -3  -3  -6  223.28   18.60
   3  -3   6  265.67   18.50
  -3  -3  -6  239.98   22.00
  -3   3  -6  247.08   18.00
   3   3   6  213.68   18.80
  -3   3  -6  235.88   23.30
   3   3   6  230.48   25.00
  -3   3  -6  249.28   22.60
  -3   3  -6  254.27   22.90
  -5  -3  -6 1245.48   84.19
  -5  -3  -6 1207.58   87.09
  -5  -3  -6 1223.58   87.29
  -5  -3  -6 1307.77   83.29
   5  -3   6 1411.46   84.29
   5  -3   6 1227.68   87.19
  -5  -3  -6 1181.28   91.49
   5   3   6 1189.58   88.89
  -5   3  -6 1252.07   88.59
  -5   3  -6 1246.28   87.49
   5   3   6 1117.09   84.19
  -5   3  -6 1405.46   83.89
  -5   3  -6 1291.17   89.29
   5   3   6 1124.19   83.19
  -7  -3  -6  183.98   29.20
   7  -3   6  183.68   18.40
  -7  -3  -6  131.49   19.60
  -7  -3  -6  169.48   16.60
  -7  -3  -6  185.68   23.80
  -7  -3  -6  177.48   25.60
  -7   3  -6  165.18   18.30
  -7   3  -6  167.58   27.50
  -7   3  -6  165.98   24.70
   7   3   6  188.08   25.90
  -7   3  -6  162.58   24.60
   7   3   6  147.19   18.80
  -7   3  -6  196.68   23.90
  -9  -3  -6 1306.67   95.79
  -9  -3  -6 1269.57  104.49
   9  -3   6 1334.07   88.29
  -9  -3  -6 1176.68   86.09
  -9   3  -6 1107.19   97.59
  -9   3  -6 1240.98   97.79
   9   3   6 1131.09   99.79
   9   3   6 1413.16   89.49
   9   3   6 1263.07   86.89
  11  -3   6  298.97   34.70
 -11  -3  -6  285.17   42.50
 -11  -3  -6  131.19   57.89
 -11   3  -6  323.27   49.80
  11   3   6  269.67   34.00
  11   3   6  281.77   34.90
 -11   3  -6  227.88   42.70
 -13  -3  -6   68.69   43.80
 -13  -3  -6  -46.20   68.59
 -13   3  -6   74.69   30.50
  13   3   6   54.69   24.20
 -13   3  -6   97.39   45.20
  13   3   6   98.29   29.60
 -13   3  -6   95.79   57.19
 -12  -4   6   78.59   40.40
 -12  -4   6   70.99   22.20
  12   4  -6   68.19   20.70
 -12   4   6  101.69   23.10
 -12   4   6   29.20   34.10
 -12   4   6   73.39   24.50
 -10  -4   6   23.90   26.20
 -10  -4   6    1.70   13.00
  10   4  -6   12.70   14.10
 -10   4   6  -18.80   15.50
 -10   4   6   14.90   22.10
 -10   4   6   24.20   25.70
 -10   4   6    3.60   13.80
  -8  -4   6   16.30    9.90
  -8  -4   6    3.20   16.70
  -8   4   6   42.30   13.80
   8   4  -6   33.00   11.40
  -8   4   6   22.30   14.20
  -8   4   6   17.70   10.90
   8   4  -6   58.89   24.40
  -8   4   6   20.40    9.60
  -6  -4   6   13.60    7.20
  -6  -4   6   27.80   13.80
  -6  -4   6   13.30    8.40
  -6  -4   6   32.50    8.80
   6  -4  -6   26.50   12.50
   6  -4  -6   43.90    7.80
  -6   4   6   22.50    8.70
  -6   4   6   37.00    7.90
   6   4  -6   42.40   15.20
   6   4  -6   19.90    8.00
  -6   4   6   49.80   16.30
  -6   4   6   36.30    8.60
  -4  -4   6  357.86   37.00
   4  -4  -6  452.45   39.50
  -4  -4   6  466.35   33.10
  -4  -4   6  407.96   32.60
   4  -4  -6  535.85   32.90
  -4   4   6  502.55   39.20
   4   4  -6  478.45   37.90
  -4   4   6  434.96   32.90
   4   4  -6  437.56   32.80
   4   4  -6  411.36   32.50
  -4   4   6  495.65   33.00
  -4   4   6  549.15   33.90
  -2  -4   6  214.68   19.30
   2  -4  -6  170.18   14.60
   2  -4  -6  184.08   15.00
  -2  -4   6  191.88   15.20
  -2  -4   6  204.08   15.00
   2  -4  -6  227.18   25.80
  -2   4   6  168.68   14.90
  -2   4   6  202.58   15.20
   2   4  -6  183.48   14.70
   2   4  -6  166.18   19.20
   2   4  -6  200.78   14.60
   0  -4   6  926.81   61.59
   0  -4   6  996.20   61.79
   0  -4  -6  897.01   58.79
   0  -4  -6  834.32   58.39
   0   4   6  835.92   58.59
   0   4  -6  879.01   61.19
   0   4   6  756.52   58.59
   0   4  -6  923.01   61.39
   0   4  -6  870.81   60.69
  -2  -4  -6  522.65   35.20
   2  -4   6  507.75   38.20
  -2  -4  -6  513.65   37.70
  -2  -4  -6  499.15   34.60
   2   4   6  496.05   35.00
   2   4   6  468.85   35.20
   2   4   6  540.75   42.10
  -2   4  -6  514.45   38.50
  -2   4  -6  481.65   38.20
  -2   4  -6  540.45   39.50
  -4  -4  -6  234.48   19.40
   4  -4   6  231.88   23.20
  -4  -4  -6  282.37   24.60
  -4  -4  -6  233.88   18.60
  -4  -4  -6  229.98   24.00
   4   4   6  243.78   27.20
   4   4   6  229.48   19.90
  -4   4  -6  278.67   18.90
  -4   4  -6  254.37   24.60
  -4   4  -6  285.57   26.40
   4   4   6  211.58   18.80
  -4   4  -6  233.68   23.90
  -6  -4  -6  257.67   29.30
  -6  -4  -6  297.07   22.20
   6  -4   6  295.67   28.20
  -6  -4  -6  234.68   22.60
   6  -4   6  311.17   23.00
  -6  -4  -6  286.77   30.60
  -6   4  -6  272.07   31.80
  -6   4  -6  260.47   22.10
  -6   4  -6  231.58   28.90
   6   4   6  248.08   30.30
  -6   4  -6  258.37   30.00
   6   4   6  287.97   22.40
   6   4   6  289.27   23.70
  -8  -4  -6   91.79   21.60
  -8  -4  -6   56.89   10.70
   8  -4   6   70.29   13.20
  -8  -4  -6   26.00   27.60
  -8   4  -6   48.50   19.80
  -8   4  -6   47.00   25.20
   8   4   6   33.90   22.90
  -8   4  -6   64.59   19.30
   8   4   6   86.39   12.30
   8   4   6   55.89   13.80
  -8   4  -6   62.29   14.10
  10  -4   6  -12.20   15.40
 -10  -4  -6   25.80   26.60
 -10  -4  -6  -22.60   38.20
 -10   4  -6    7.60   25.20
  10   4   6   18.20   15.60
  10   4   6    3.30   13.90
 -10   4  -6  -19.30   27.10
 -12  -4  -6   10.70   59.29
 -12  -4  -6  122.89   40.20
  12   4   6   62.19   27.20
  12   4   6  123.69   23.50
 -12   4  -6  168.08   47.00
 -12   4  -6  113.59   41.50
 -12   4  -6  141.39   26.50
 -13  -5   6  -14.70   24.00
 -13  -5   6   43.30   49.90
  13   5  -6   47.80   24.70
 -13   5   6   46.10   40.20
 -13   5   6   15.60   25.90
 -13   5   6   42.40   28.50
 -11  -5   6  132.39   36.80
 -11  -5   6   86.19   19.60
 -11   5   6   73.69   20.80
  11   5  -6   94.69   20.60
 -11   5   6  115.39   31.00
 -11   5   6  124.49   22.50
  -9  -5   6  -23.40   23.50
  -9  -5   6   29.20   13.00
  -9   5   6   19.90   12.90
  -9   5   6    4.70   12.80
  -9   5   6   -3.70   19.20
   9   5  -6    9.50   13.10
  -7  -5   6   23.60   12.70
   7  -5  -6   17.90   15.40
  -7  -5   6   36.90   18.70
  -7  -5   6   35.70    8.80
  -7  -5   6   17.80   11.50
   7   5  -6   12.10   18.90
  -7   5   6   38.20    9.90
  -7   5   6   28.00   12.40
  -7   5   6   63.39   20.10
   7   5  -6   29.20   10.00
  -7   5   6   32.40    9.40
  -7   5   6   43.00   10.50
   5  -5  -6   28.20   15.10
   5  -5  -6   21.70    6.50
  -5  -5   6   19.90    7.50
  -5  -5   6   40.50   13.30
  -5  -5   6   13.80    7.50
  -5  -5   6   11.00    6.10
  -5   5   6   11.00   14.60
   5   5  -6   29.50   12.80
  -5   5   6   11.40    6.10
   5   5  -6   17.40    6.40
  -5   5   6   25.20    7.60
  -5   5   6   11.40    6.40
  -3  -5   6    1.60    5.00
  -3  -5   6   -3.30    4.30
   3  -5  -6   -2.20    4.80
   3  -5  -6  -27.30   13.70
   3  -5  -6   -2.20    4.50
   3   5  -6    1.20    4.70
   3   5  -6  -13.50   12.00
   3   5  -6    4.50    4.40
  -3   5   6    6.50    5.00
  -3   5   6    0.50    4.80
   1  -5  -6  154.48   12.90
   1  -5  -6  141.39   12.30
  -1  -5   6  164.88   12.50
   1  -5  -6  170.58   26.00
  -1  -5   6  151.78   17.00
  -1  -5   6  153.48   17.80
   1   5  -6  164.88   18.20
  -1   5   6  146.09   12.70
   1   5  -6  161.38   18.20
  -1   5   6  136.69   12.80
   1   5  -6  157.28   12.80
   1  -5   6  249.28   22.70
  -1  -5  -6  239.18   18.10
  -1  -5  -6  247.68   18.20
   1  -5   6  239.78   22.00
  -1   5  -6  268.17   23.90
   1   5   6  248.38   18.60
   1   5   6  234.68   18.50
  -1   5  -6  230.08   22.10
  -3  -5  -6   67.79    9.60
  -3  -5  -6   78.89    9.20
   3  -5   6   77.19   13.00
  -3  -5  -6  104.29   14.30
   3   5   6   84.39    9.90
  -3   5  -6   73.79   13.20
   3   5   6   62.79   15.10
   3   5   6   91.69   14.20
   3   5   6   71.09    9.50
  -3   5  -6   66.59   12.90
  -3   5  -6   72.79   13.40
  -5  -5  -6   48.80    8.20
  -5  -5  -6   56.19    9.50
   5  -5   6   54.09   13.20
  -5  -5  -6   70.49   14.10
   5   5   6   64.89    9.90
   5   5   6   79.79   17.80
   5   5   6   53.09    8.40
  -5   5  -6   60.79   14.40
   5   5   6   73.59   15.90
  -5   5  -6   83.89   15.50
  -5   5  -6   63.29   15.90
   7  -5   6   11.60   14.50
   7  -5   6   17.60    8.90
  -7  -5  -6    7.90   23.70
  -7  -5  -6    6.40   19.70
  -7  -5  -6   37.80    9.20
  -7  -5  -6   35.90   11.80
  -7  -5  -6   18.20   16.00
   7   5   6   20.60   17.00
  -7   5  -6   42.40   19.80
   7   5   6   28.10    9.60
   7   5   6   40.80   11.10
  -7   5  -6   28.20   18.80
  -7   5  -6   24.80   14.20
  -7   5  -6   32.80    8.90
   9  -5   6    3.90   11.90
  -9  -5  -6   30.40   22.40
  -9  -5  -6   13.60   34.50
   9   5   6   25.10   28.50
  -9   5  -6   11.80   23.20
   9   5   6    8.30   12.80
  -9   5  -6   -7.20   26.50
   9   5   6   11.30   13.70
 -11  -5  -6   38.60   53.09
 -11  -5  -6  -10.50   31.20
  11   5   6   21.00   17.50
  11   5   6   37.40   20.90
 -11   5  -6   41.00   35.50
 -11   5  -6   -6.40   30.50
 -13  -5  -6   22.10   71.89
 -13  -5  -6   20.50   51.99
  13   5   6  107.99   27.30
 -13   5  -6   91.49   51.39
  13   5   6   53.49   37.70
 -13   5  -6   43.30   28.40
 -13   5  -6   59.19   54.09
 -12  -6   6  -11.30   20.40
 -12  -6   6   67.99   42.80
 -12   6   6   -2.00   35.80
 -12   6   6   -3.90   24.40
  12   6  -6  -15.90   20.70
 -12   6   6  -36.50   20.30
 -10  -6   6   -8.70   29.50
 -10  -6   6  -12.10   14.00
 -10   6   6   25.60   27.10
 -10   6   6    4.80   15.80
 -10   6   6  -34.00   28.00
 -10   6   6   48.10   21.50
 -10   6   6   15.20   15.60
 -10   6   6   -4.20   24.00
  10   6  -6   22.40   16.10
  -8  -6   6   67.89   11.90
  -8  -6   6   49.70   24.00
   8  -6  -6   59.29   20.00
  -8   6   6   77.59   22.80
  -8   6   6   38.20   14.90
  -8   6   6   51.79   12.90
  -8   6   6   46.60   12.00
   8   6  -6   66.09   14.00
  -6  -6   6  143.19   18.70
  -6  -6   6  145.69   23.70
  -6  -6   6  139.99   16.10
   6  -6  -6  149.79   15.90
  -6  -6   6  179.08   19.30
   6  -6  -6  148.99   23.50
   6   6  -6  160.68   16.70
  -6   6   6  152.88   17.20
  -6   6   6  138.59   19.30
  -6   6   6  184.68   26.30
   6   6  -6  187.98   27.70
  -6   6   6  167.38   16.60
  -4  -6   6  103.59   12.50
   4  -6  -6  159.78   23.10
   4  -6  -6  134.89   12.60
  -4  -6   6  116.79   18.40
  -4  -6   6  130.99   14.30
  -4  -6   6   94.59   13.40
  -4   6   6  165.18   27.80
   4   6  -6  115.99   12.80
  -4   6   6  123.69   13.70
  -4   6   6  150.28   14.30
   4   6  -6  145.99   19.90
  -4   6   6  107.89   12.50
   2  -6  -6  111.89   11.80
  -2  -6   6  128.59   17.80
  -2  -6   6  125.79   17.80
  -2  -6   6  128.29   12.20
   2  -6  -6  111.29   11.10
   2  -6  -6  122.79   24.50
  -2   6   6  142.89   23.60
   2   6  -6  110.49   11.60
   2   6  -6  140.59   18.30
  -2   6   6  120.49   11.30
   0  -6  -6    8.50    4.20
   0  -6   6    6.80    7.90
   0  -6  -6   40.60   18.30
   0  -6   6   14.10    9.30
   0   6   6   -6.60   12.60
   0   6   6   12.00    4.60
   0   6  -6   -6.60   10.20
   0   6   6   13.60    4.60
   0   6  -6    7.70    9.40
   2  -6   6   20.40    9.60
   2  -6   6   26.90   10.40
  -2  -6  -6   28.20    9.40
  -2  -6  -6   28.50    6.20
  -2  -6  -6   25.30    5.50
   2   6   6   33.30    6.50
  -2   6  -6   34.80   11.10
   2   6   6   80.19   19.40
  -2   6  -6   37.60   10.20
   2   6   6   27.60    9.80
   2   6   6   31.40    6.20
  -4  -6  -6  208.08   16.60
  -4  -6  -6  187.38   22.50
  -4  -6  -6  192.78   16.60
   4  -6   6  207.88   22.70
  -4   6  -6  185.28   25.20
   4   6   6  149.09   16.70
  -4   6  -6  222.38   24.30
   4   6   6  198.58   16.80
   4   6   6  207.88   24.40
  -4   6  -6  153.18   21.70
   4   6   6  189.88   27.30
  -6  -6  -6   28.40   14.50
  -6  -6  -6    4.80    7.90
  -6  -6  -6    4.20    9.60
  -6  -6  -6    8.00   22.10
   6  -6   6   24.30   13.10
  -6   6  -6    8.20   15.10
   6   6   6   -0.70    8.10
   6   6   6   27.20   18.70
   6   6   6   33.70    9.00
  -6   6  -6   54.39   14.70
   6   6   6   -5.80   15.90
  -6   6  -6   19.20   18.30
  -8  -6  -6   -6.80   12.00
  -8  -6  -6   -5.70   19.20
   8  -6   6   -8.20   16.80
  -8  -6  -6   -8.20   28.60
   8  -6   6    0.70    9.80
   8   6   6    9.50   10.00
   8   6   6   15.90   13.30
   8   6   6   34.10   23.60
  -8   6  -6   -1.90   18.50
  -8   6  -6   28.30   11.20
 -10  -6  -6  -15.00   42.50
 -10  -6  -6   35.90   27.70
  10   6   6   -4.70   17.10
  10   6   6    7.90   16.50
 -10   6  -6   -1.50   27.70
 -10   6  -6   37.20   29.50
 -12  -6  -6   32.80   40.50
 -12  -6  -6  -70.19   59.29
 -12   6  -6   59.19   44.20
  12   6   6   38.80   23.60
 -12   6  -6    3.60   41.20
  12   6   6   71.59   28.00
 -12   6  -6   38.70   24.70
 -11  -7   6  277.97   32.70
 -11  -7   6  195.28   46.20
  11   7  -6  263.97   35.60
 -11   7   6  187.28   32.70
 -11   7   6  190.88   39.20
 -11   7   6  204.68   30.30
 -11   7   6  243.38   29.40
   9  -7  -6  400.16   47.50
  -9  -7   6  489.45   37.20
  -9  -7   6  470.25   55.39
  -9   7   6  373.96   37.50
   9   7  -6  464.15   39.10
  -9   7   6  413.96   37.50
  -9   7   6  395.36   59.69
  -7  -7   6  198.68   19.60
   7  -7  -6  170.28   30.10
  -7  -7   6  170.98   28.10
  -7  -7   6  153.58   20.90
  -7   7   6  151.68   20.10
  -7   7   6  176.68   21.20
  -7   7   6  235.68   38.60
  -7   7   6  200.58   20.20
   7   7  -6  190.48   20.50
   5  -7  -6  129.09   13.00
  -5  -7   6   96.69   13.10
  -5  -7   6   97.29   12.90
   5  -7  -6  154.48   23.50
  -5  -7   6   87.69   18.60
  -5  -7   6   94.29   12.90
   5   7  -6   89.09   12.40
  -5   7   6  116.59   13.60
  -5   7   6  123.89   15.80
  -5   7   6  122.19   23.20
   5   7  -6   88.49   19.00
  -3  -7   6  -13.90    6.20
   3  -7  -6   -1.40   15.30
  -3  -7   6  -18.70    9.70
  -3  -7   6   -9.20    5.90
   3  -7  -6   -0.50    5.60
   3   7  -6    1.50    5.30
  -3   7   6   14.10    5.80
   3   7  -6    9.80   12.00
  -3   7   6    0.20   15.00
   1  -7  -6   74.59   21.10
  -1  -7   6   78.29   13.40
  -1  -7   6   77.49   13.60
   1  -7  -6   67.39    9.30
  -1  -7   6   72.69    8.60
   1   7  -6   78.09    9.10
   1   7  -6   57.69   15.10
   1   7  -6   80.39   14.20
  -1   7   6   63.99    9.00
   1  -7   6   41.50   11.20
  -1  -7  -6   50.29    7.20
  -1  -7  -6   47.20    6.80
   1  -7   6   37.40   10.80
  -1   7  -6   53.69   11.90
  -1   7  -6   43.10   14.30
   1   7   6   57.99    7.90
   1   7   6   50.19    7.00
  -3  -7  -6   12.50    6.30
   3  -7   6   12.20   10.70
  -3  -7  -6  -11.60   15.40
   3  -7   6   35.30   11.50
  -3  -7  -6    8.30    5.50
  -3  -7  -6   17.70   11.00
   3   7   6   10.00    6.10
   3   7   6    8.10    5.90
  -3   7  -6   24.00   11.30
   3   7   6   15.60   11.80
  -3   7  -6   14.30   12.80
   3   7   6   21.70   18.60
   5  -7   6   26.10   12.50
  -5  -7  -6  -25.30   18.70
  -5  -7  -6    5.80    7.20
  -5  -7  -6    7.40    7.60
  -5  -7  -6   -3.70   13.70
   5   7   6   20.50   17.00
   5   7   6   37.00   16.10
  -5   7  -6    8.60   13.80
  -5   7  -6   -9.60   15.50
   5   7   6   18.30    8.00
   5   7   6    9.20    7.50
  -5   7  -6   39.80   15.30
   7  -7   6  181.58   26.90
  -7  -7  -6  219.48   29.00
  -7  -7  -6  133.09   19.40
   7   7   6  143.89   20.00
   7   7   6  122.09   26.90
  -7   7  -6  181.98   27.20
  -7   7  -6  122.69   28.10
   7   7   6  130.19   19.10
  -9  -7  -6  319.57   44.20
  -9   7  -6  148.29   22.50
   9   7   6  199.28   25.20
  -9   7  -6  193.18   34.80
 -11  -7  -6    1.80   57.69
 -11  -7  -6  121.29   38.20
  11   7   6   97.29   22.30
 -11   7  -6  100.29   22.90
  11   7   6   57.79   23.80
 -11   7  -6   87.09   36.50
 -11   7  -6   79.99   40.00
 -12  -8   6  155.68   27.20
 -12  -8   6   71.99   56.29
  12   8  -6  164.48   28.50
 -12   8   6  119.39   26.90
 -12   8   6  106.59   31.60
 -12   8   6  114.69   35.80
 -10  -8   6   88.99   19.00
 -10  -8   6   70.39   36.70
  10   8  -6   64.99   21.30
 -10   8   6  126.89   19.80
 -10   8   6   63.69   21.20
   8  -8  -6   24.60   21.80
  -8  -8   6   26.40   12.30
  -8  -8   6   48.10   26.70
  -8   8   6    2.40   11.70
  -8   8   6    6.10   30.20
  -8   8   6   10.20   11.50
  -8   8   6   -8.30   14.40
   8   8  -6   34.00   13.30
  -6  -8   6   50.29   14.20
  -6  -8   6   66.79   11.00
  -6  -8   6   93.79   21.90
   6  -8  -6   77.09   20.60
  -6  -8   6   43.90   12.40
  -6   8   6   65.99   11.60
  -6   8   6   33.60   23.60
  -6   8   6   49.90   14.30
   6   8  -6   76.89   12.00
   6   8  -6   43.30   22.80
  -4  -8   6  501.25   37.70
   4  -8  -6  525.45   38.10
   4  -8  -6  565.64   49.99
  -4  -8   6  530.95   38.40
  -4  -8   6  530.55   39.10
  -4  -8   6  521.05   46.30
  -4   8   6  524.35   38.40
   4   8  -6  549.25   45.20
  -4   8   6  568.74   52.79
   4   8  -6  514.95   38.30
  -2  -8   6  774.42   57.59
   2  -8  -6  797.82   52.99
  -2  -8   6  720.13   57.89
  -2  -8   6  756.42   52.89
   2  -8  -6  807.52   62.49
  -2   8   6  853.21   53.69
   2   8  -6  764.12   52.99
  -2   8   6  750.92   63.69
   2   8  -6  815.82   58.89
   2   8  -6  642.54   59.59
   0  -8   6 1221.08   84.09
   0  -8  -6 1156.48   79.39
   0  -8   6 1247.68   84.59
   0  -8  -6 1108.79   89.79
   0  -8   6 1192.58   79.09
   0   8  -6 1319.67   84.59
   0   8  -6 1134.39   85.39
   0   8  -6 1189.38   78.99
   0   8   6 1080.49   79.59
   2  -8   6 1128.99   77.39
  -2  -8  -6  982.20   73.59
  -2  -8  -6  959.30   70.69
   2  -8   6 1066.99   75.09
  -2  -8  -6 1231.98   86.69
  -2  -8  -6 1009.80   70.39
   2   8   6 1099.09   73.39
  -2   8  -6 1033.90   78.09
   2   8   6 1029.40   71.19
   2   8   6  983.50   70.59
  -2   8  -6 1067.69   75.29
   4  -8   6 1086.79   72.09
  -4  -8  -6  996.80   67.09
  -4  -8  -6  906.61   66.79
   4  -8   6 1083.29   75.29
  -4  -8  -6 1004.50   71.89
   4   8   6  828.42   78.29
   4   8   6  947.21   67.39
   4   8   6  965.10   70.99
   4   8   6  911.01   67.09
  -4   8  -6 1055.29   72.79
  -4   8  -6  986.70   76.19
  -6  -8  -6  294.87   27.30
  -6  -8  -6  322.37   35.30
  -6  -8  -6  272.57   27.10
   6  -8   6  336.47   34.10
   6   8   6  268.47   40.90
   6   8   6  328.07   27.20
   6   8   6  315.57   27.40
   6   8   6  315.27   43.00
  -6   8  -6  339.07   37.30
  -6   8  -6  314.77   39.80
  -8  -8  -6   69.79   23.80
  -8  -8  -6  -27.50   30.50
   8  -8   6   82.19   23.80
   8   8   6    0.00   29.30
   8   8   6   35.00   13.60
  -8   8  -6   34.60   21.60
   8   8   6   53.29   15.90
 -10  -8  -6    7.00   29.50
 -10  -8  -6  -46.70   42.60
 -10   8  -6  -13.60   28.50
  10   8   6   -9.40   19.90
  10   8   6    4.50   15.90
 -10   8  -6    4.00   34.50
 -12  -8  -6   78.19   63.49
 -12  -8  -6  -18.80   45.60
  12   8   6   38.30   23.80
 -12   8  -6   15.60   25.30
 -12   8  -6   30.50   46.10
  12   8   6   -4.40   31.80
 -11  -9   6  337.47   60.69
 -11  -9   6  290.67   39.40
 -11   9   6  362.66   42.80
  11   9  -6  318.47   43.00
 -11   9   6  336.77   40.10
  -9  -9   6  621.84   68.69
   9  -9  -6  595.24   62.59
  -9  -9   6  630.94   48.70
   9   9  -6  570.14   50.39
  -9   9   6  664.63   49.60
  -9   9   6  582.64   49.70
  -7  -9   6  978.70   80.99
   7  -9  -6 1016.50   78.09
  -7  -9   6  805.82   69.49
  -7  -9   6  994.60   67.99
   7   9  -6  984.00   68.79
  -7   9   6 1054.89   68.59
  -7   9   6  860.11   85.59
   5  -9  -6  677.23   56.99
  -5  -9   6  871.61   65.79
   5  -9  -6  855.01   67.89
  -5  -9   6  773.22   58.69
  -5  -9   6  819.82   56.59
  -5  -9   6  861.91   57.59
  -5   9   6  908.21   71.99
  -5   9   6  838.92   57.49
   5   9  -6  866.11   57.69
   5   9  -6  669.23   66.59
  -3  -9   6  185.78   18.20
   3  -9  -6  210.98   32.50
   3  -9  -6  191.58   18.30
  -3  -9   6  184.08   25.80
   3   9  -6  176.88   17.90
   3   9  -6  182.48   32.10
  -3   9   6  207.48   17.90
   3   9  -6  198.58   26.90
  -3   9   6  216.48   30.10
   1  -9  -6  259.97   22.10
  -1  -9   6  243.78   28.60
   1  -9  -6  325.07   41.40
  -1  -9   6  281.67   29.40
  -1  -9   6  265.87   21.90
   1   9  -6  296.57   21.90
   1   9  -6  263.37   34.00
  -1   9   6  273.77   22.20
   1   9  -6  338.97   30.90
  -1  -9  -6  299.97   30.10
   1  -9   6  335.27   30.70
  -1  -9  -6  302.67   23.90
  -1  -9  -6  344.47   45.20
   1  -9   6  276.07   30.70
  -1   9  -6  337.77   31.80
   1   9   6  298.97   24.40
  -1   9  -6  318.17   35.90
  -3  -9  -6  340.37   31.90
  -3  -9  -6  278.97   24.70
   3  -9   6  341.47   31.50
  -3  -9  -6  341.57   44.40
   3  -9   6  325.87   33.80
  -3  -9  -6  335.97   25.80
  -3   9  -6  368.86   40.00
   3   9   6  297.37   25.20
   3   9   6  284.77   32.00
  -3   9  -6  355.16   32.70
   3   9   6  335.57   26.20
  -5  -9  -6  100.39   14.10
  -5  -9  -6  145.29   17.40
   5  -9   6  133.29   23.30
   5  -9   6  156.88   23.20
  -5  -9  -6  143.99   24.10
   5   9   6  124.09   16.30
   5   9   6  115.89   14.50
   5   9   6  136.49   23.20
   5   9   6   95.49   26.30
  -5   9  -6  136.89   24.70
  -5   9  -6  114.59   31.60
   7  -9   6 1059.09   73.39
  -7  -9  -6  961.30   77.09
  -7   9  -6  901.11   77.99
   7   9   6  958.10   68.09
   7   9   6  755.92   80.19
   7   9   6  974.30   67.29
   9  -9   6  943.31   78.79
  -9  -9  -6  946.91   84.79
   9   9   6  901.01   71.79
   9   9   6  947.81   69.89
  -9   9  -6 1013.30   83.49
 -11  -9  -6  318.67   56.89
 -11   9  -6  340.77   54.39
  11   9   6  340.87   44.20
  11   9   6  321.87   39.00
 -11   9  -6  369.36   56.99
 -10 -10   6   16.90   44.80
 -10 -10   6   31.40   19.00
  10 -10  -6   69.09   31.50
  10  10  -6   19.10   20.00
 -10  10   6    2.00   20.90
 -10  10   6   45.70   18.70
  -8 -10   6   23.20   13.90
  -8 -10   6   18.40   30.90
   8 -10  -6   51.19   25.50
  -8  10   6   12.70   13.50
   8  10  -6   45.80   15.20
  -6 -10   6  348.47   44.80
  -6 -10   6  324.47   31.50
  -6 -10   6  356.76   28.50
   6 -10  -6  361.86   44.30
   6  10  -6  302.07   30.30
  -6  10   6  334.97   49.90
  -6  10   6  350.96   30.30
   4 -10  -6 1898.41  129.09
  -4 -10   6 1712.83  118.49
  -4 -10   6 1797.42  124.59
  -4 -10   6 1708.73  123.19
   4 -10  -6 1637.54  117.89
   4  10  -6 1785.92  118.39
  -4  10   6 1805.82  118.39
  -4  10   6 1782.32  129.49
   4  10  -6 1708.93  125.19
   2 -10  -6  426.86   34.90
   2 -10  -6  441.46   51.09
  -2 -10   6  493.65   35.00
  -2 -10   6  457.25   41.10
  -2 -10   6  480.25   43.00
   2  10  -6  475.75   47.10
   2  10  -6  496.05   43.80
  -2  10   6  509.05   35.10
  -2  10   6  436.56   52.19
   2  10  -6  451.85   34.60
   0 -10   6 1085.69   81.99
   0 -10  -6 1135.09   76.29
   0 -10   6 1188.08   75.79
   0 -10  -6 1062.79   89.99
   0 -10   6 1081.09   82.39
   0  10   6 1073.19   76.59
   0  10  -6 1080.99   85.39
   0  10  -6 1179.38   82.69
   0  10  -6 1162.18   75.99
   2 -10   6  864.71   66.89
   2 -10   6  893.71   64.79
  -2 -10  -6  726.93   59.09
  -2 -10  -6  864.31   65.59
   2  10   6  828.02   62.29
   2  10   6  853.81   59.89
  -2  10  -6  918.21   66.19
  -2  10  -6  944.91   70.89
  -4 -10  -6  881.61   64.79
   4 -10   6 1064.59   71.09
  -4 -10  -6  907.01   63.89
  -4 -10  -6  997.90   71.09
  -4 -10  -6  738.23   86.49
   4 -10   6 1048.70   74.09
   4  10   6  971.90   71.29
   4  10   6  882.71   64.19
  -4  10  -6  944.41   71.39
   4  10   6  875.31   65.09
  -4  10  -6  871.41   79.89
   6 -10   6  683.63   53.69
   6  10   6  608.14   47.20
  -6  10  -6  625.04   58.19
   6  10   6  581.54   46.90
   6  10   6  612.84   66.09
  -8 -10  -6  -16.40   25.60
   8 -10   6   33.00   23.60
  -8 -10  -6   75.99   39.30
  -8  10  -6   29.30   26.10
   8  10   6   42.40   16.60
   8  10   6   34.90   14.50
 -10 -10  -6    9.50   54.09
 -10 -10  -6   42.80   34.70
  10  10   6   21.50   22.70
 -10  10  -6   58.29   33.10
  10  10   6   42.60   20.80
 -11 -11   6  367.26   72.79
 -11 -11   6  365.86   44.50
  11  11  -6  393.96   48.90
 -11  11   6  372.96   47.00
  -9 -11   6 1011.30   73.99
   9 -11  -6 1008.10   91.69
  -9 -11   6  955.20   98.89
  -9  11   6 1020.50   74.89
   9  11  -6  979.80   75.69
  -7 -11   6  789.82   73.79
  -7 -11   6  836.22   58.99
   7 -11  -6  786.72   73.69
   7  11  -6  792.22   60.49
  -7  11   6  829.02   60.49
  -5 -11   6  734.93   67.59
   5 -11  -6  768.62   70.99
   5  11  -6  811.12   58.09
  -5  11   6  847.72   58.09
  -3 -11   6  332.07   39.60
   3 -11  -6  349.57   31.00
  -3 -11   6  363.36   30.30
   3 -11  -6  433.66   46.90
  -3  11   6  364.06   55.59
  -3  11   6  437.86   30.10
   3  11  -6  288.37   42.70
   3  11  -6  274.37   45.00
   3  11  -6  387.96   30.40
  -1 -11   6  179.68   27.80
   1 -11  -6  143.79   18.70
  -1 -11   6  138.49   17.10
  -1 -11   6  199.58   26.10
   1  11  -6  165.88   25.60
   1  11  -6  190.18   17.80
   1  11  -6  211.08   31.50
  -1  11   6  163.88   17.50
  -1 -11  -6   27.20   16.70
   1 -11   6   42.80   16.60
  -1 -11  -6   30.80   30.50
   1 -11   6   38.00   15.90
  -1 -11  -6   40.10    9.80
   1 -11   6   49.70    9.30
  -1  11  -6   34.10    8.50
   1  11   6   33.80   12.60
   1  11   6   44.80    9.80
  -1  11  -6   58.89   25.00
  -1  11  -6   61.19   19.10
   1  11   6    4.20   25.50
  -3 -11  -6  123.89   16.80
   3 -11   6  151.68   25.90
  -3 -11  -6  183.98   25.70
  -3 -11  -6   82.39   35.90
   3 -11   6  127.49   22.10
   3  11   6  149.19   20.50
  -3  11  -6  132.09   25.00
   3  11   6  113.09   16.60
  -3  11  -6   78.69   30.30
  -5 -11  -6  562.14   48.90
   5 -11   6  579.84   46.50
  -5 -11  -6  435.86   37.00
   5 -11   6  502.45   49.50
   5  11   6  361.26   47.80
   5  11   6  401.56   36.90
  -5  11  -6  457.25   51.49
   5  11   6  501.25   38.80
   7 -11   6  954.80   68.09
  -7 -11  -6  770.82   69.29
   7  11   6  634.24   60.19
  -7  11  -6  927.71   77.49
   7  11   6  789.32   60.79
  -9 -11  -6 1174.78  102.59
   9 -11   6 1351.06  100.09
   9  11   6 1141.89   91.59
  -9  11  -6 1361.06  107.59
   9  11   6 1321.87   94.29
 -11 -11  -6  360.06   56.09
  11  11   6  350.06   47.20
 -11  11  -6  470.05   63.99
  11  11   6  385.66   53.39
 -11  11  -6  525.35   66.29
 -10 -12   6   92.49   56.19
  10 -12  -6  209.48   41.30
 -10 -12   6  105.39   25.40
  10  12  -6  130.09   27.70
 -10  12   6  106.09   26.00
  -8 -12   6  105.99   36.90
   8 -12  -6   23.80   30.20
  -8 -12   6   48.70   17.00
   8  12  -6   74.79   19.20
  -8  12   6   48.00   17.70
  -6 -12   6  393.76   51.29
   6 -12  -6  315.07   49.90
  -6 -12   6  345.77   30.30
   6  12  -6  343.47   33.20
  -6  12   6  348.27   32.30
   4 -12  -6  540.75   59.69
  -4 -12   6  519.65   51.59
   4  12  -6  502.35   40.80
  -4  12   6  498.35   40.20
  -2 -12   6 1011.90   71.89
  -2 -12   6 1002.50   78.99
  -2 -12   6 1079.19   81.39
   2 -12  -6 1022.40   87.49
   2  12  -6 1057.59   71.89
  -2  12   6 1011.30   71.99
   0 -12   6  305.57   25.70
   0 -12   6  324.37   37.40
   0 -12   6  308.67   37.10
   0 -12  -6  366.26   50.39
   0  12  -6  297.27   26.50
   0  12   6  295.27   27.00
   0  12  -6  343.57   41.40
   0  12  -6  297.57   39.40
   2 -12   6 1258.77   88.09
   2 -12   6 1068.79   84.49
  -2 -12  -6 1034.60   85.09
   2 -12   6 1060.99   76.79
   2  12   6 1104.19   78.69
  -2  12  -6 1157.78   87.59
   2  12   6 1158.28   81.09
  -2  12  -6 1203.28   77.59
   4 -12   6 1315.57   96.59
   4 -12   6 1316.67   91.69
  -4 -12  -6 1200.38   94.29
  -4  12  -6 1070.09   96.79
   4  12   6 1181.98   92.09
   4  12   6 1187.48   84.09
   4  12   6 1249.18   85.49
  -6 -12  -6  267.97   39.60
   6 -12   6  372.76   46.80
   6 -12   6  348.07   42.40
  -6 -12  -6  181.88   52.59
   6  12   6  315.67   31.40
   6  12   6  288.67   30.30
   8 -12   6  324.37   49.00
  -8 -12  -6  291.97   44.50
  -8  12  -6  373.76   58.89
   8  12   6  312.17   35.50
   8  12   6  286.57   38.10
 -10 -12  -6   59.59   41.90
  10 -12   6   43.80   36.40
 -10 -12  -6    0.20   67.89
  10  12   6   50.59   22.90
 -10  12  -6   41.50   37.10
  10  12   6   70.49   27.60
  -9 -13   6  403.96   59.59
   9 -13  -6  458.75   70.19
  -9 -13   6  494.95   46.80
   9  13  -6  463.45   48.90
  -9  13   6  446.46   47.30
  -7 -13   6  430.96   37.20
   7 -13  -6  388.66   59.39
  -7 -13   6  452.15   61.39
  -7  13   6  398.26   39.00
   7  13  -6  401.56   39.90
   5 -13  -6  631.94   64.99
  -5 -13   6  606.14   58.79
  -5  13   6  591.24   45.80
   5  13  -6  487.65   45.60
  -3 -13   6  148.39   29.40
  -3 -13   6  165.38   28.50
   3 -13  -6  192.08   38.60
   3  13  -6  165.38   22.90
  -3  13   6  176.48   21.30
   3  13  -6  107.79   34.60
   1 -13  -6  -11.10   33.20
  -1 -13   6   28.20   18.20
  -1 -13   6   19.40   11.30
  -1 -13   6   18.20   18.60
  -1  13   6    0.10   10.20
   1  13  -6   38.10   29.40
   1  13  -6    2.00   10.20
  -1 -13  -6   58.89   22.30
   1 -13   6   32.30   20.60
   1 -13   6   48.10   21.00
  -1 -13  -6   18.80   36.20
   1 -13   6   41.40   10.30
  -1  13  -6   20.40   27.00
   1  13   6   49.90   15.70
   1  13   6   79.79   13.40
  -1  13  -6   41.70   10.60
   3 -13   6  121.79   24.10
   3 -13   6   68.79   11.70
  -3 -13  -6   46.20   42.10
  -3 -13  -6   46.00   24.60
   3 -13   6   96.39   25.90
   3  13   6   75.39   22.80
   3  13   6   63.59   14.20
  -5 -13  -6  391.86   51.99
  -5 -13  -6  313.87   32.20
   5 -13   6  367.86   44.70
   5 -13   6  480.65   50.19
   5  13   6  374.66   36.60
   5  13   6  373.16   33.70
  -7 -13  -6  253.27   43.60
   7 -13   6  304.47   43.30
  -7 -13  -6  109.69   65.59
   7  13   6  207.48   28.20
  -7  13  -6  231.58   38.00
   7  13   6  251.47   28.10
   9 -13   6  401.86   57.79
  -9 -13  -6  400.86   59.19
  -9  13  -6  572.24   76.89
   9  13   6  388.86   45.10
   9  13   6  380.06   53.39
 -10 -14   6   -5.60   28.10
  10 -14  -6  -11.40   42.20
 -10 -14   6   49.60   77.59
  10  14  -6   42.30   29.20
  -8 -14   6   48.40   42.40
  -8 -14   6   20.10   18.00
   8 -14  -6    6.40   34.70
  -8  14   6  -21.90   17.80
   8  14  -6  -19.30   21.30
  -6 -14   6   53.29   30.10
   6 -14  -6   19.70   30.90
  -6  14   6   26.00   17.00
   6  14  -6   32.90   17.70
   4 -14  -6  357.16   60.29
  -4 -14   6  380.96   53.29
  -4 -14   6  431.96   52.49
  -4  14   6  413.46   36.50
   2 -14  -6  291.07   45.80
  -2 -14   6  227.98   34.80
  -2 -14   6  237.88   35.90
   2  14  -6  243.38   26.50
  -2  14   6  214.38   26.00
   0 -14   6  944.51   82.39
   0 -14   6 1016.40   79.69
   0 -14  -6 1049.30   97.09
   0  14   6 1020.50   72.79
   0  14  -6 1001.20   71.19
   2 -14   6  489.65   39.80
   2 -14   6  563.24   55.79
  -2 -14  -6  497.35   79.59
  -2 -14  -6  498.65   55.19
   2 -14   6  494.45   51.19
   2  14   6  439.26   46.60
   2  14   6  530.15   42.20
  -2  14  -6  557.94   40.30
  -4 -14  -6  239.58   64.69
   4 -14   6  318.97   50.29
  -4 -14  -6  361.36   44.30
   4 -14   6  339.37   45.90
   4  14   6  296.67   33.20
  -4  14  -6  393.66   32.50
  -6 -14  -6   68.39   62.89
  -6 -14  -6  142.49   37.80
   6 -14   6  194.68   34.80
   6 -14   6  184.28   38.10
   6  14   6  169.78   23.90
   6  14   6  143.89   23.30
  -8 -14  -6   56.29   87.19
  -8 -14  -6  -24.50   39.90
   8 -14   6   11.40   29.90
  -8  14  -6   28.60   37.80
   8  14   6   40.10   24.40
   8  14   6  -29.40   19.60
   9 -15  -6   50.29   46.50
  -9 -15   6  137.49   31.00
  -9 -15   6   56.99   52.59
   9  15  -6   43.40   29.30
  -9  15   6  103.79   27.30
   7 -15  -6  133.59   42.90
  -7 -15   6  156.38   40.10
  -7  15   6  149.69   25.60
   7  15  -6  153.08   26.80
  -5 -15   6  306.27   45.40
   5 -15  -6  343.07   51.39
   5  15  -6  268.67   34.80
  -5  15   6  291.37   34.50
  -3 -15   6   30.20   29.70
  -3 -15   6   13.30   27.20
   3 -15  -6   18.70   37.10
  -3  15   6   50.99   16.10
   3  15  -6   33.40   16.20
  -1 -15   6   49.10   29.60
   1 -15  -6  104.89   38.50
  -1 -15   6   78.59   30.60
  -1  15   6   73.39   16.40
   1  15  -6   78.89   17.30
   1 -15   6   -5.00   24.60
  -1 -15  -6   -8.10   43.30
   1 -15   6   11.40   26.40
   1  15   6   11.70   20.40
   1  15   6    2.80   13.30
  -1  15  -6   -0.50   12.50
   3 -15   6  -15.10   24.10
   3 -15   6    4.00   25.90
  -3 -15  -6  -33.60   26.50
  -3 -15  -6   41.10   59.79
   3  15   6   29.90   15.50
  -3  15  -6   26.30   14.60
  -5 -15  -6  193.08   41.60
   5 -15   6  224.08   35.20
   5 -15   6  253.27   41.80
  -5 -15  -6   73.39   71.79
   5  15   6  192.18   26.30
  -5  15  -6  227.78   26.00
   7 -15   6  110.59   33.00
  -7 -15  -6   39.30   43.90
  -7 -15  -6   32.50   75.99
   7 -15   6   50.69   34.30
   7  15   6   50.39   25.20
   7  15   6   50.79   21.70
  -9 -15  -6  111.89  123.19
  -9 -15  -6   22.90   49.40
   9 -15   6  144.69   42.90
  -9  15  -6   50.69   48.70
   9  15   6   45.60   25.10
   9  15   6   38.80   34.10
  -8 -16   6  105.49   47.40
   8 -16  -6  -15.50   40.40
  -8  16   6    5.60   24.40
   8  16  -6    7.20   25.40
  -6 -16   6   41.50   38.40
   6 -16  -6  -25.10   35.30
  -6  16   6   -3.10   20.10
   6  16  -6   11.60   19.90
   4 -16  -6   30.30   38.60
  -4 -16   6   72.19   35.80
  -4  16   6   26.40   18.00
   4  16  -6   53.79   19.30
  -2 -16   6  150.78   33.80
   2 -16  -6  105.19   44.30
  -2 -16   6   67.99   31.90
   2  16  -6  106.89   21.20
  -2  16   6  113.39   19.80
   0 -16   6   70.69   30.10
   0 -16   6   40.00   27.60
   0 -16  -6   70.69   43.70
   0  16   6   27.80   15.50
   0  16  -6   80.69   20.00
  -2 -16  -6   35.70   31.70
   2 -16   6   31.90   27.60
  -2 -16  -6   26.80   56.39
   2 -16   6   56.09   29.20
   2  16   6   19.70   17.50
  -2  16  -6   54.79   17.40
   4 -16   6   37.20   29.80
  -4 -16  -6   69.09   62.99
  -4 -16  -6   57.59   33.70
   4 -16   6    5.60   31.00
   4  16   6   30.10   17.70
  -4  16  -6    1.80   16.90
   6 -16   6   29.30   34.00
  -6 -16  -6   81.59   87.99
   6 -16   6   42.00   32.40
  -6 -16  -6  -19.70   42.50
   6  16   6   36.00   24.40
   6  16   6   32.30   21.10
   8 -16   6   46.60   38.20
  -8 -16  -6   57.79   50.99
  -8 -16  -6  -39.60  103.49
   8  16   6   35.00   24.70
  -8  16  -6   86.09   46.40
   8  16   6   41.70   31.60
  -7 -17   6   81.49   47.20
   7 -17  -6  -67.59   42.00
  -7  17   6    2.10   24.30
   7  17  -6   91.39   28.90
  -5 -17   6  -24.10   35.70
   5 -17  -6   14.50   41.20
   5  17  -6   -4.90   21.30
  -5  17   6   25.30   21.10
  -3 -17   6   29.00   38.70
   3 -17  -6  109.09   48.60
  -3 -17   6   36.70   37.20
   3  17  -6   91.99   23.00
  -3  17   6   57.39   20.20
  -1 -17   6   37.60   37.30
   1 -17  -6    5.90   44.60
  -1 -17   6  -14.80   32.10
  -1  17   6    0.90   16.70
   1  17  -6    9.00   19.50
   1 -17   6  -12.40   28.80
  -1 -17  -6   12.60   55.09
  -1 -17  -6    8.50   34.20
   1 -17   6   54.19   32.30
   1  17   6   19.40   34.20
  -1  17  -6   20.90   18.50
   1  17   6   -1.30   17.10
  -3 -17  -6   19.60   55.19
   3 -17   6   -2.10   33.10
  -3 -17  -6    0.10   34.20
   3 -17   6   42.60   33.50
   3  17   6   23.80   19.10
  -3  17  -6   22.60   21.00
   5 -17   6   27.40   35.70
  -5 -17  -6   52.09   75.99
   5 -17   6   -1.60   32.60
  -5 -17  -6   38.30   39.90
   5  17   6   14.70   22.50
  -5  17  -6   67.19   25.80
   7 -17   6  -16.50   37.10
  -7 -17  -6    4.70   47.90
   7 -17   6   -1.70   40.40
  -7 -17  -6  -10.60  118.59
   7  17   6   42.60   24.10
   7  17   6   11.10   31.40
  -6 -18   6   43.20   53.09
   6 -18  -6    1.70   43.30
  -6 -18   6   83.49   47.70
  -6  18   6    8.40   24.10
   6  18  -6   18.00   26.50
  -4 -18   6   52.29   39.90
   4 -18  -6  111.99   48.50
  -4 -18   6   21.50   44.10
   4  18  -6   29.00   26.70
  -4  18   6   52.29   23.40
  -2 -18   6  330.37   53.09
  -2 -18   6  275.17   54.29
   2 -18  -6  261.87   60.79
  -2  18   6  264.97   32.40
   2  18  -6  344.57   43.10
   0 -18   6  -16.10   35.30
   0 -18   6   15.20   35.70
   0 -18  -6  -37.40   50.59
   0  18   6   -3.40   19.40
   0  18  -6   55.29   24.00
  -2 -18  -6  112.39   39.90
   2 -18   6  131.79   35.60
   2 -18   6  150.48   41.60
  -2 -18  -6   76.99   63.19
   2  18   6   71.49   23.00
  -2  18  -6  135.09   26.20
  -4 -18  -6  151.48   80.59
   4 -18   6  253.27   43.40
   4 -18   6  247.38   51.99
  -4 -18  -6  176.48   44.60
  -4  18  -6  221.08   33.60
   4  18   6  156.68   29.30
   6 -18   6   22.70   42.20
   6 -18   6   16.20   39.90
  -6 -18  -6   65.39   44.60
  -6  18  -6    4.60   31.20
   6  18   6   30.60   26.60
  -5 -19   6   86.69   47.70
   5 -19  -6  138.79   54.09
  -5 -19   6  139.09   57.99
   5  19  -6  167.28   33.00
  -5  19   6  112.19   29.20
  -3 -19   6  117.69   45.80
   3 -19  -6  151.78   58.99
  -3 -19   6   76.89   53.59
  -3  19   6   92.89   28.70
   3  19  -6  127.69   28.90
   1 -19  -6   26.90   57.29
  -1 -19   6  -33.70   43.30
  -1 -19   6   -2.10   39.00
  -1  19   6  -14.30   20.80
  -1 -19  -6   -6.30   60.29
   1 -19   6   39.40   40.10
   1 -19   6  -21.60   39.20
   1  19   6  -21.50   23.20
  -1  19  -6  -28.70   25.20
  -3 -19  -6  -54.79   81.39
   3 -19   6   84.29   44.40
   3 -19   6   49.40   43.40
  -3 -19  -6  -30.20   46.50
   3  19   6   30.70   24.20
  -3  19  -6   11.00   28.90
  -5 -19  -6  229.58  100.69
   5 -19   6  213.08   56.49
   5 -19   6   72.79   43.70
   2 -20  -6   28.30   67.29
  -2 -20   6   83.39   55.79
  -2 -20   6   33.60   50.59
   2  20  -6  110.09   30.80
  -2  20   6  106.29   27.00
   0 -20   6  614.34   83.19
   0 -20  -6  609.74   88.19
   0 -20   6  528.25   80.79
   0  20   6  511.85   56.99
   0  20  -6  546.75   68.49
  -2 -20  -6  300.47   82.39
  -2 -20  -6  353.96   68.79
   2 -20   6  336.67   61.39
   2 -20   6  382.26   57.79
   2  20   6  261.67   38.50
  -2  20  -6  458.95   61.49
  12   0  -7    8.90   21.00
 -12   0   7   -5.60   20.60
 -12   0   7  -42.90   30.40
 -10   0   7   34.20   14.60
  10   0  -7    2.00   13.50
 -10   0   7   21.90   20.30
   8   0  -7   -1.50   19.90
   8   0  -7    1.50    9.60
  -8   0   7   13.70   13.70
  -8   0   7    4.80    9.20
   6   0  -7   11.90    6.70
  -6   0   7   10.80    6.00
   6   0  -7   15.40   12.40
   6   0  -7   -6.60    6.20
  -6   0   7    7.30    7.10
  -6   0   7   -2.60   10.10
  -4   0   7   -0.30    4.80
  -4   0   7   13.10    5.60
   4   0  -7    3.50    7.70
  -4   0   7   15.20    8.50
   4   0  -7   -1.70    4.80
   4   0  -7   -2.20    4.60
  -2   0   7    3.30    3.50
   2   0  -7    4.20    4.00
  -2   0   7   -4.40    4.70
   2   0  -7    1.70    4.70
   2   0  -7    3.50    3.80
  -2   0   7    3.70    3.70
   0   0   7    3.50    5.00
   0   0   7    7.20    5.10
   0   0   7    4.40    3.30
   0   0  -7   -1.30    3.30
   0   0  -7    1.70    4.50
   0   0  -7   -0.70    6.50
  -2   0  -7   -4.80    7.10
   2   0   7   -4.20    6.50
  -2   0  -7   -0.30    3.40
  -2   0  -7   -3.40    5.40
   2   0   7   -1.50    3.70
   2   0   7   -8.30    6.10
   4   0   7   15.30   10.10
   4   0   7    5.50    4.90
  -4   0  -7    1.50    9.30
   4   0   7    2.50    8.50
  -4   0  -7  -12.10    7.90
  -4   0  -7    2.10    4.80
  -6   0  -7   12.00   13.80
  -6   0  -7   16.90   14.20
   6   0   7    7.80    6.80
  -6   0  -7    0.50    6.90
   6   0   7   -3.60   14.10
  -6   0  -7   -1.20   13.20
   8   0   7    1.90   10.10
  -8   0  -7  -10.70   19.80
  -8   0  -7    4.60   17.10
   8   0   7  -11.70   25.00
 -10   0  -7   -7.30   28.70
  10   0   7   -7.30   13.90
 -10   0  -7    1.40   23.50
 -12   0  -7   32.30   34.70
 -12   0  -7  -27.40   47.50
  12   0   7  -11.90   22.70
 -13  -1   7   14.40   24.50
 -13  -1   7  103.59   40.80
  13  -1  -7   43.60   24.80
  13   1  -7   26.70   24.70
 -13   1   7   49.99   25.10
 -13   1   7  -37.60   38.10
 -11  -1   7   47.90   17.90
 -11  -1   7   33.70   29.40
  11  -1  -7   40.30   18.80
  11   1  -7   72.09   19.20
 -11   1   7   48.70   31.00
 -11   1   7   62.09   18.90
  -9  -1   7  233.98   25.30
  -9  -1   7  225.98   32.40
   9  -1  -7  220.88   25.60
   9   1  -7  241.38   35.40
   9   1  -7  214.48   25.30
  -9   1   7  258.87   25.20
  -9   1   7  232.18   29.50
  -7  -1   7    6.50   12.20
   7  -1  -7   23.90   15.80
  -7  -1   7   15.00    9.30
   7  -1  -7   15.10    8.20
  -7  -1   7   -4.10    7.20
  -7  -1   7  -13.80   10.40
   7   1  -7   -5.80   15.90
  -7   1   7   -1.40   10.20
  -7   1   7   17.10    9.80
  -7   1   7   15.00    7.80
  -7   1   7   20.50   12.70
   7   1  -7    1.10    7.80
  -5  -1   7  258.47   26.20
  -5  -1   7  267.57   22.30
   5  -1  -7  301.17   25.40
   5  -1  -7  293.37   22.90
  -5  -1   7  315.97   23.00
   5  -1  -7  286.47   22.10
  -5   1   7  302.07   23.10
  -5   1   7  280.17   22.50
   5   1  -7  276.97   22.10
  -5   1   7  276.67   25.20
   5   1  -7  308.07   27.80
   5   1  -7  236.38   22.10
  -3  -1   7  144.59   12.30
  -3  -1   7  163.28   12.60
  -3  -1   7  132.59   16.80
   3  -1  -7  133.69   12.50
   3  -1  -7  135.39   12.00
   3   1  -7  146.19   12.40
  -3   1   7  123.29   12.40
  -3   1   7  143.39   12.70
   3   1  -7  131.49   12.20
   3   1  -7  115.69   14.90
   1  -1  -7   -2.60    8.40
  -1  -1   7   12.80    4.30
   1  -1  -7    3.50    3.40
  -1  -1   7    2.30    5.60
  -1  -1   7    9.20    4.80
   1   1  -7   12.90    6.60
  -1   1   7    9.00    3.30
   1   1  -7   10.50    3.60
   1   1  -7    6.70    5.30
  -1   1   7   11.60    4.40
  -1   1   7   10.60    6.10
  -1   1   7    7.70    3.10
  -1  -1  -7   67.49   13.20
   1  -1   7   74.79   10.90
  -1  -1  -7   59.59    8.90
   1  -1   7   64.59    7.80
  -1  -1  -7   63.89    7.00
   1  -1   7   78.89   10.40
  -1   1  -7   49.70   10.70
   1   1   7   41.80    7.90
   1   1   7   66.89   11.30
  -1   1  -7   69.29    9.90
  -1   1  -7   68.99    6.90
   1   1   7   54.09    7.10
  -3  -1  -7  625.14   45.50
  -3  -1  -7  634.64   47.80
   3  -1   7  697.83   49.99
   3  -1   7  654.83   45.50
   3  -1   7  684.03   48.40
  -3  -1  -7  672.53   51.79
  -3   1  -7  717.33   50.69
   3   1   7  679.93   48.20
   3   1   7  640.74   45.70
  -3   1  -7  625.64   48.20
  -3   1  -7  694.93   45.40
   3   1   7  668.13   49.99
  -5  -1  -7   25.90   13.50
   5  -1   7   15.90    6.20
   5  -1   7   42.00   13.70
   5  -1   7    1.40   10.60
  -5  -1  -7   16.90   12.60
  -5  -1  -7   28.20   11.40
  -5  -1  -7   24.50    6.80
  -5   1  -7   25.80    6.70
  -5   1  -7   17.20   11.30
   5   1   7   16.30   12.50
  -5   1  -7   21.80   12.40
   5   1   7   23.30    6.70
  -7  -1  -7   75.19   20.60
   7  -1   7  103.09   23.00
  -7  -1  -7   69.59   17.90
  -7  -1  -7   78.49   19.70
   7  -1   7   63.19   12.00
  -7  -1  -7   75.89   12.40
  -7   1  -7  105.39   21.50
  -7   1  -7   79.99   20.70
   7   1   7   73.89   12.50
   7   1   7   81.59   20.90
  -7   1  -7   76.49   20.40
  -7   1  -7   73.49   12.30
   9  -1   7  170.98   23.00
  -9  -1  -7  121.89   30.80
  -9  -1  -7  168.78   28.10
  -9   1  -7  126.89   26.90
  -9   1  -7  135.09   28.90
  11  -1   7   27.50   17.60
 -11  -1  -7   35.20   41.30
 -11  -1  -7   63.09   30.70
  11   1   7   54.49   19.40
 -11   1  -7   30.30   37.80
 -11   1  -7    5.60   29.50
 -13  -1  -7    5.00   63.89
  13  -1   7    9.50   25.80
 -13  -1  -7   34.60   43.90
 -13   1  -7   69.59   44.80
  13   1   7   25.00   27.90
 -12  -2   7   -0.60   20.40
 -12  -2   7  -14.30   34.00
  12  -2  -7  -19.50   19.90
 -12   2   7  -28.00   33.30
  12   2  -7  -16.20   21.10
 -12   2   7    0.40   20.20
 -10  -2   7    0.30   22.80
 -10  -2   7  -19.70   13.10
  10  -2  -7   16.00   14.70
 -10   2   7  -18.90   27.70
 -10   2   7   13.00   13.80
  10   2  -7    6.90   13.40
 -10   2   7  -33.40   20.20
  -8  -2   7  208.48   28.20
  -8  -2   7  164.48   19.20
   8  -2  -7  181.98   20.60
   8   2  -7  165.68   20.60
  -8   2   7  232.38   25.40
  -8   2   7  142.39   21.40
   8   2  -7  228.28   29.50
  -8   2   7  186.48   19.60
  -6  -2   7  117.99   16.90
  -6  -2   7  177.08   22.50
  -6  -2   7  175.78   15.20
   6  -2  -7  116.59   15.00
  -6  -2   7  151.48   15.70
   6  -2  -7  110.59   15.00
  -6   2   7  112.09   16.40
   6   2  -7  210.58   24.60
  -6   2   7  142.39   15.00
   6   2  -7  139.79   15.00
   4  -2  -7  976.00   68.19
  -4  -2   7  959.70   68.09
  -4  -2   7 1001.30   68.09
   4  -2  -7 1086.99   68.19
  -4  -2   7  978.00   70.99
  -4   2   7  980.90   68.19
  -4   2   7 1042.60   68.19
   4   2  -7 1050.09   68.19
   4   2  -7  945.41   67.89
   4   2  -7 1039.60   70.69
  -2  -2   7  840.42   60.49
  -2  -2   7  976.40   60.39
  -2  -2   7  878.91   62.49
   2   2  -7  917.21   62.29
  -2   2   7  933.41   60.69
  -2   2   7  908.51   60.49
   2   2  -7  926.21   60.59
  -2   2   7  878.31   60.09
   2   2  -7  843.92   60.19
   0  -2  -7    8.50    2.90
   0  -2   7    6.30    5.50
   0  -2   7    6.50    6.40
   0  -2   7   10.50    3.90
   0  -2  -7    6.30    3.70
   0  -2  -7    3.40   11.40
   0   2  -7    6.00    5.90
   0   2   7    9.20    4.00
   0   2  -7    5.00    3.30
   0   2   7    7.50    2.80
   0   2  -7    4.70    5.70
   0   2   7    9.30    7.20
  -2  -2  -7  848.92   59.39
  -2  -2  -7  875.21   60.89
   2  -2   7  896.61   61.89
   2  -2   7  944.81   62.99
  -2  -2  -7  891.81   65.79
   2  -2   7  932.31   59.39
  -2   2  -7  860.61   62.69
  -2   2  -7  960.40   59.19
   2   2   7  806.52   59.49
   2   2   7  917.61   61.29
  -2   2  -7  808.42   61.49
   2   2   7  846.72   64.09
  -4  -2  -7  842.72   60.79
   4  -2   7  919.61   65.79
  -4  -2  -7  868.01   63.59
   4  -2   7  870.21   63.59
  -4  -2  -7  843.82   67.59
  -4  -2  -7  868.11   63.69
   4  -2   7  976.40   60.99
  -4   2  -7  964.70   60.69
  -4   2  -7  844.12   65.19
   4   2   7  846.82   60.89
  -4   2  -7  964.90   64.49
   4   2   7  901.51   66.09
   6  -2   7   34.20   12.80
  -6  -2  -7   30.80   13.50
  -6  -2  -7   39.10   14.20
  -6  -2  -7   35.10   18.60
   6  -2   7   27.60    7.90
  -6  -2  -7   20.00    8.20
  -6   2  -7   16.80   13.90
  -6   2  -7   31.50    8.30
   6   2   7   29.20    7.80
  -6   2  -7   27.20   12.30
   6   2   7    6.40   14.80
  -8  -2  -7    6.80   21.90
  -8  -2  -7   -7.90   17.80
   8  -2   7   -4.20    9.90
  -8   2  -7   -3.00   19.20
  -8   2  -7    5.50   12.70
   8   2   7   -4.50   22.50
  -8   2  -7  -12.30   20.60
   8   2   7   23.80   10.50
  -8   2  -7   30.80   18.80
  10  -2   7   37.40   17.20
 -10  -2  -7   49.50   33.90
 -10  -2  -7   17.80   25.10
 -10   2  -7   23.60   28.00
  10   2   7   83.69   18.40
 -10   2  -7   46.50   25.70
 -12  -2  -7  218.68   45.30
 -12  -2  -7  200.68   66.69
  12  -2   7  260.77   32.80
 -12   2  -7  265.97   50.49
 -12   2  -7  242.08   53.89
  12   2   7  234.68   33.30
 -13  -3   7  369.46   60.99
 -13  -3   7  407.06   50.69
 -13   3   7  398.96   55.19
 -13   3   7  445.26   54.69
  13   3  -7  451.75   49.20
 -13   3   7  404.26   50.99
 -11  -3   7  165.78   34.50
 -11  -3   7   99.99   20.60
  11   3  -7  121.59   21.40
 -11   3   7  107.89   21.70
 -11   3   7  154.88   31.70
 -11   3   7  109.59   24.00
  -9  -3   7  678.63   61.19
  -9  -3   7  687.03   53.59
   9   3  -7  755.72   54.69
  -9   3   7  726.93   54.09
  -9   3   7  671.13   58.59
  -9   3   7  802.62   59.19
  -7  -3   7  701.23   51.69
  -7  -3   7  669.23   55.09
  -7  -3   7  715.63   51.19
  -7  -3   7  664.33   49.50
   7   3  -7  748.93   56.79
  -7   3   7  622.44   50.79
   7   3  -7  600.24   49.30
  -7   3   7  729.03   49.99
  -7   3   7  775.02   50.09
  -7   3   7  708.03   50.79
   5  -3  -7   76.19   16.00
  -5  -3   7   90.19   12.20
  -5  -3   7   83.79   10.50
   5  -3  -7   65.49    9.40
   5   3  -7   69.59   13.50
   5   3  -7   85.99   10.90
  -5   3   7   67.89    9.90
  -3  -3   7  393.96   30.40
   3  -3  -7  419.26   38.50
   3  -3  -7  443.76   30.40
  -3  -3   7  435.96   30.40
  -3  -3   7  421.16   33.60
   3   3  -7  411.86   33.70
  -3   3   7  403.66   30.30
  -3   3   7  450.55   30.70
  -3   3   7  402.36   30.00
   3   3  -7  442.06   30.30
   3   3  -7  446.96   30.50
  -1  -3   7  162.88   13.50
  -1  -3   7  136.59   16.30
   1  -3  -7  198.78   13.30
   1  -3  -7  159.78   13.40
   1   3  -7  160.98   15.30
   1   3  -7  176.28   17.20
  -1   3   7  174.78   13.20
   1   3  -7  161.48   15.20
  -1   3   7  156.68   13.60
   1   3  -7  175.68   13.30
   1  -3   7 1942.61  135.19
  -1  -3  -7 1831.82  132.29
   1  -3   7 2232.38  132.79
  -1  -3  -7 1914.11  133.39
  -1   3  -7 1953.70  135.79
  -1   3  -7 1976.90  135.29
  -1   3  -7 2023.60  135.29
   1   3   7 2263.97  138.29
   1   3   7 1977.70  132.59
   1   3   7 2079.19  133.09
  -3  -3  -7 1475.45  101.79
   3  -3   7 1474.85  102.39
   3  -3   7 1491.85   99.49
  -3  -3  -7 1461.55  101.79
  -3  -3  -7 1501.35   99.79
   3   3   7 1458.35  105.19
  -3   3  -7 1438.46  103.19
  -3   3  -7 1523.65  104.39
  -3   3  -7 1683.93   99.39
  -3   3  -7 1445.96  102.49
   3   3   7 1517.75   99.99
   5  -3   7 2512.65  170.38
  -5  -3  -7 2439.06  167.48
   5  -3   7 2813.62  167.48
  -5  -3  -7 2428.66  174.98
  -5  -3  -7 2404.96  170.48
  -5  -3  -7 2314.07  169.78
  -5   3  -7 2618.14  172.38
   5   3   7 2467.45  172.68
  -5   3  -7 2607.34  173.28
  -5   3  -7 2410.36  170.58
  -5   3  -7 2909.71  167.28
   5   3   7 2386.26  167.68
  -7  -3  -7  422.56   42.90
   7  -3   7  474.35   35.60
  -7  -3  -7  470.25   36.30
   7  -3   7  452.85   40.60
  -7  -3  -7  465.65   45.40
  -7  -3  -7  471.65   51.09
  -7  -3  -7  472.95   33.70
  -7   3  -7  397.86   44.60
  -7   3  -7  461.05   34.90
  -7   3  -7  411.96   44.60
   7   3   7  526.75   36.60
   7   3   7  421.96   46.20
  -7   3  -7  461.15   43.80
  -9  -3  -7  632.54   56.49
   9  -3   7  568.14   46.00
  -9  -3  -7  668.93   70.09
  -9  -3  -7  584.44   43.90
  -9   3  -7  505.15   57.49
   9   3   7  435.86   75.59
   9   3   7  667.93   48.10
  -9   3  -7  543.65   59.09
   9   3   7  583.34   44.60
 -11  -3  -7  467.25   60.69
  11  -3   7  326.77   40.40
  11   3   7  331.57   38.00
 -11   3  -7  386.96   47.70
  11   3   7  362.16   40.40
 -11   3  -7  401.66   65.09
 -13  -3  -7   68.09   75.99
 -13  -3  -7   76.99   47.00
 -13   3  -7   20.70   56.09
 -13   3  -7   20.30   46.20
  13   3   7   13.30   30.90
 -12  -4   7  -28.30   39.00
 -12  -4   7   31.80   21.40
 -12   4   7    7.80   22.50
  12   4  -7   10.80   21.50
 -12   4   7   15.10   22.90
 -12   4   7   10.40   35.90
 -10  -4   7  126.69   20.10
 -10  -4   7  167.58   34.00
 -10   4   7  124.69   20.70
 -10   4   7  110.89   28.10
 -10   4   7  148.19   21.20
 -10   4   7  154.28   25.60
  10   4  -7  144.69   20.60
  -8  -4   7  149.29   18.60
  -8  -4   7  121.29   23.80
  -8   4   7  110.99   19.60
  -8   4   7  122.69   16.10
  -8   4   7  133.89   17.10
   8   4  -7  147.69   19.70
   8   4  -7   94.79   26.90
  -6  -4   7  474.05   41.00
   6  -4  -7  481.05   34.10
  -6  -4   7  452.95   35.90
  -6  -4   7  458.45   34.20
  -6  -4   7  458.05   35.10
  -6   4   7  423.26   35.10
  -6   4   7  440.46   34.40
  -6   4   7  455.85   34.50
   6   4  -7  480.45   40.60
   6   4  -7  479.65   34.80
  -4  -4   7 2262.67  164.68
  -4  -4   7 2539.85  162.58
  -4  -4   7 2287.97  162.28
   4  -4  -7 2467.05  162.28
   4  -4  -7 2404.86  165.78
  -4   4   7 2360.26  162.08
   4   4  -7 2405.96  162.38
  -4   4   7 2550.64  162.68
   4   4  -7 2628.24  162.38
   4   4  -7 2378.46  165.18
  -4   4   7 2684.03  166.58
  -4   4   7 2520.15  162.48
  -2  -4   7 3266.47  214.18
  -2  -4   7 3259.27  214.38
   2  -4  -7 3609.94  219.48
   2  -4  -7 3009.60  214.28
  -2  -4   7 3158.28  216.78
   2  -4  -7 3096.99  213.98
  -2   4   7 3427.66  214.58
   2   4  -7 3154.78  214.08
   2   4  -7 3501.35  217.08
   2   4  -7 3350.16  214.28
  -2   4   7 3134.29  214.18
   0  -4   7 2529.55  185.88
   0  -4  -7 2906.61  183.38
   0  -4  -7 3014.80  183.98
   0   4  -7 2749.32  186.08
   0   4   7 2780.12  183.58
   0   4  -7 2599.54  185.38
   0   4  -7 2829.82  186.18
   0   4   7 2963.90  183.88
  -2  -4  -7  232.98   19.60
  -2  -4  -7  228.38   17.40
  -2  -4  -7  220.78   16.60
  -2  -4  -7  261.07   21.20
   2  -4   7  201.78   20.90
  -2   4  -7  228.38   22.30
  -2   4  -7  217.38   22.60
   2   4   7  208.18   24.80
   2   4   7  230.28   17.20
   2   4   7  220.48   17.90
  -2   4  -7  202.38   20.90
   4  -4   7  320.67   21.80
  -4  -4  -7  269.87   20.90
  -4  -4  -7  274.87   26.00
   4  -4   7  229.28   25.50
  -4  -4  -7  267.47   26.70
  -4  -4  -7  280.57   21.70
  -4   4  -7  274.97   26.40
  -4   4  -7  268.17   28.10
   4   4   7  266.17   22.00
  -4   4  -7  305.57   21.30
   4   4   7  272.37   30.50
  -4   4  -7  259.37   26.90
   4   4   7  270.67   21.00
   6  -4   7   17.30   13.10
  -6  -4  -7   16.30    8.90
  -6  -4  -7   36.00   14.80
  -6  -4  -7   30.10   15.60
  -6  -4  -7   -1.70   20.80
  -6  -4  -7   25.60    7.30
   6  -4   7   44.90    9.00
   6   4   7   20.50    7.80
  -6   4  -7   42.30    8.40
  -6   4  -7   34.00   16.20
   6   4   7    3.50   14.00
  -6   4  -7   28.40   14.90
   6   4   7   22.80    8.20
  -6   4  -7   46.00   16.30
  -8  -4  -7  271.97   34.90
   8  -4   7  265.07   26.40
  -8  -4  -7  289.57   24.80
  -8   4  -7  274.37   38.50
   8   4   7  300.67   44.10
  -8   4  -7  282.27   38.40
   8   4   7  302.07   26.10
  -8   4  -7  284.77   27.10
   8   4   7  243.38   27.10
 -10  -4  -7    0.70   44.40
 -10  -4  -7   14.00   27.60
  10  -4   7   20.30   15.50
  10   4   7   45.40   15.90
 -10   4  -7    2.50   27.80
 -10   4  -7   -4.00   27.00
  10   4   7   24.90   14.70
 -12  -4  -7  333.57   53.79
  12   4   7  385.26   43.30
 -12   4  -7  322.57   55.79
  12   4   7  366.66   45.60
 -12   4  -7  411.06   61.89
 -13  -5   7  371.76   47.00
 -13  -5   7  417.66   62.59
  13   5  -7  328.67   47.80
 -13   5   7  429.06   50.89
 -13   5   7  391.46   52.49
 -13   5   7  377.46   55.09
 -11  -5   7  785.92   77.89
 -11  -5   7  761.32   59.19
 -11   5   7  822.72   60.99
 -11   5   7  694.43   67.19
  11   5  -7  675.33   59.59
 -11   5   7  743.53   60.39
  -9  -5   7  436.86   38.00
  -9  -5   7  414.86   52.79
  -9   5   7  448.76   38.00
  -9   5   7  431.96   39.40
   9   5  -7  503.55   39.30
  -7  -5   7  187.48   27.30
  -7  -5   7  203.98   19.30
  -7  -5   7  201.58   23.50
  -7  -5   7  189.98   23.50
  -7   5   7  199.18   19.90
   7   5  -7  170.18   26.70
  -7   5   7  221.78   21.00
  -7   5   7  177.18   30.60
  -7   5   7  182.28   21.70
   7   5  -7  165.18   20.20
   5  -5  -7 1073.19   79.09
  -5  -5   7  963.40   73.69
  -5  -5   7 1053.89   74.19
  -5  -5   7 1143.79   73.79
  -5  -5   7 1085.49   78.09
   5  -5  -7 1230.18   73.79
  -5   5   7 1088.09   73.69
  -5   5   7 1180.08   74.49
   5   5  -7 1070.09   77.89
  -5   5   7 1099.79   73.79
   5   5  -7  980.90   73.59
  -5   5   7 1026.60   79.19
  -3  -5   7   42.40   11.20
  -3   5   7   35.90   14.80
   3   5  -7   56.19   12.40
  -1  -5   7  682.63   43.50
   1  -5  -7  556.34   43.60
  -1  -5   7  604.54   47.10
  -1  -5   7  627.44   46.70
   1  -5  -7  702.13   43.80
  -1   5   7  621.54   43.80
   1   5  -7  627.44   43.50
   1   5  -7  587.14   46.90
  -1   5   7  678.93   44.00
   1   5  -7  729.13   48.30
  -1  -5  -7 2002.20  137.09
  -1  -5  -7 2125.49  137.49
   1  -5   7 1977.20  140.29
   1   5   7 2160.98  137.59
  -1   5  -7 1915.71  139.59
   1   5   7 2124.89  137.49
  -1   5  -7 2253.57  140.79
  -1   5  -7 2111.09  141.29
  -3  -5  -7 2651.14  165.38
  -3  -5  -7 2577.64  167.28
   3  -5   7 2419.16  168.18
  -3  -5  -7 2363.16  164.58
   3   5   7 2504.65  171.58
   3   5   7 2402.26  165.28
   3   5   7 2639.44  164.98
  -3   5  -7 2631.04  168.78
  -3   5  -7 2324.07  168.28
  -3   5  -7 2523.35  170.08
   5  -5   7  410.36   35.30
  -5  -5  -7  408.26   35.50
  -5  -5  -7  384.86   29.20
  -5  -5  -7  390.56   30.10
  -5  -5  -7  347.77   35.20
   5   5   7  411.96   39.80
   5   5   7  388.86   30.60
  -5   5  -7  363.36   35.60
  -5   5  -7  421.06   36.30
  -5   5  -7  444.36   29.60
   5   5   7  397.46   29.70
  -5   5  -7  399.86   37.90
  -7  -5  -7 1031.40   79.59
  -7  -5  -7 1092.29   72.59
   7  -5   7 1118.89   73.49
   7  -5   7 1002.80   77.99
   7   5   7 1073.69   74.69
  -7   5  -7 1167.08   73.29
  -7   5  -7  970.10   83.79
  -7   5  -7  975.50   81.79
   7   5   7 1073.89   81.79
  -7   5  -7 1049.89   80.69
   7   5   7 1030.50   72.99
   9  -5   7  772.12   53.39
  -9  -5  -7  680.73   64.19
  -9   5  -7  751.12   66.59
   9   5   7  686.13   53.19
   9   5   7  752.52   55.59
  -9   5  -7  541.75   65.09
  11  -5   7  441.16   44.00
 -11  -5  -7  507.45   63.69
 -11   5  -7  417.56   66.39
  11   5   7  432.56   46.60
 -11   5  -7  464.25   65.79
  11   5   7  444.26   44.60
 -12  -6   7   67.39   22.20
 -12  -6   7   27.30   46.30
 -12   6   7   77.59   35.20
  12   6  -7   49.70   23.10
 -12   6   7   40.70   25.20
 -12   6   7   53.29   25.90
 -10  -6   7  410.96   56.59
 -10  -6   7  286.07   31.90
 -10   6   7  303.57   34.00
 -10   6   7  280.47   34.50
  10   6  -7  297.37   33.80
  -8  -6   7  575.24   56.29
  -8  -6   7  541.45   42.40
   8  -6  -7  522.85   50.89
  -8   6   7  525.55   43.20
  -8   6   7  514.55   45.20
   8   6  -7  554.04   43.60
  -8   6   7  598.14   52.49
  -8   6   7  558.34   42.60
  -6  -6   7  211.68   20.90
   6  -6  -7  149.19   26.10
   6  -6  -7  159.38   17.10
  -6   6   7  146.29   18.80
   6   6  -7  208.48   18.20
  -6   6   7  187.58   32.20
  -6   6   7  144.79   17.50
  -6   6   7  159.68   18.30
  -4  -6   7 2508.45  160.48
  -4  -6   7 2478.75  160.18
  -4  -6   7 2267.07  160.18
  -4  -6   7 2259.07  163.78
   4  -6  -7 2646.74  160.18
   4  -6  -7 2396.46  165.48
   4   6  -7 2326.87  160.18
  -4   6   7 2476.15  165.68
  -4   6   7 2346.07  160.18
  -4   6   7 2513.05  160.68
   4   6  -7 2193.78  163.58
  -4   6   7 2622.74  160.18
  -2  -6   7 1815.62  139.39
   2  -6  -7 2176.58  143.59
   2  -6  -7 2144.09  136.49
  -2  -6   7 2155.68  136.49
   2  -6  -7 2122.69  136.39
   2   6  -7 2053.49  136.29
   2   6  -7 2129.29  140.19
  -2   6   7 1999.70  136.29
  -2   6   7 1982.60  136.49
   0  -6   7 2607.54  168.08
   0  -6  -7 2575.24  164.68
   0  -6  -7 2373.96  164.58
   0  -6   7 2511.35  167.98
   0   6   7 2371.16  164.68
   0   6  -7 2711.63  168.48
   0   6  -7 2481.75  168.48
   0   6   7 2394.96  164.48
  -2  -6  -7 1347.47   88.99
   2  -6   7 1387.96   92.99
  -2  -6  -7 1335.57   89.09
  -2  -6  -7 1338.97   91.49
  -2   6  -7 1415.76   94.59
   2   6   7 1292.87   89.29
   2   6   7 1400.06   89.29
  -2   6  -7 1356.26   92.89
  -2   6  -7 1220.68   92.09
   2   6   7 1256.77   90.39
  -4  -6  -7  215.18   23.90
  -4  -6  -7  185.58   16.90
  -4  -6  -7  185.98   16.40
   4  -6   7  202.18   23.60
   4   6   7  184.48   24.50
   4   6   7  174.88   16.90
   4   6   7  163.78   27.50
   4   6   7  177.68   17.20
  -4   6  -7  183.48   26.00
  -4   6  -7  190.18   23.60
  -4   6  -7  196.28   24.80
  -6  -6  -7    7.40    9.50
   6  -6   7   17.00   12.80
  -6  -6  -7   21.50   15.50
  -6  -6  -7  -11.80   22.50
  -6  -6  -7   17.20    8.00
   6   6   7   12.50   18.00
   6   6   7   11.20    8.30
   6   6   7    9.50    8.80
  -6   6  -7    8.50   13.50
  -6   6  -7   -5.80   16.10
  -6   6  -7  -13.30   17.60
   8  -6   7   14.10   19.30
  -8  -6  -7   10.40   20.30
  -8  -6  -7   32.20   32.10
  -8  -6  -7   -6.10   12.40
   8  -6   7   27.70   11.40
  -8   6  -7   16.70   12.30
  -8   6  -7   31.40   22.50
   8   6   7   32.80   11.20
   8   6   7   27.90   25.90
   8   6   7    9.80   11.70
 -10  -6  -7  319.67   44.40
  10  -6   7  215.68   31.70
 -10   6  -7  295.17   46.30
  10   6   7  245.58   35.20
 -10   6  -7  319.27   52.99
  10   6   7  273.07   29.60
 -12  -6  -7  107.59   44.60
 -12  -6  -7   83.89   71.59
 -12   6  -7  184.48   30.40
  12   6   7  163.18   27.80
 -12   6  -7  187.88   48.20
 -12   6  -7  203.48   51.39
  12   6   7  125.19   30.30
 -11  -7   7  529.05   45.20
 -11  -7   7  509.35   62.89
 -11   7   7  472.95   48.40
 -11   7   7  454.35   63.39
  11   7  -7  434.76   47.40
 -11   7   7  509.15   47.00
  -9  -7   7  721.43   55.19
   9  -7  -7  743.13   63.89
  -9  -7   7  777.12   72.29
  -9   7   7  771.72   56.59
  -9   7   7  626.14   68.99
  -9   7   7  743.53   55.29
   9   7  -7  710.83   56.99
  -7  -7   7  238.38   21.10
   7  -7  -7  204.78   32.80
  -7  -7   7  167.48   22.20
  -7  -7   7  235.88   32.40
  -7   7   7  225.78   22.00
  -7   7   7  169.58   21.80
   7   7  -7  216.38   22.60
  -7   7   7  231.28   38.10
  -5  -7   7  172.68   24.70
   5  -7  -7   90.99   12.50
  -5  -7   7  125.09   16.10
  -5  -7   7  113.59   13.60
   5  -7  -7  103.09   22.70
   5   7  -7   91.49   20.20
  -5   7   7  117.39   16.40
   5   7  -7  127.89   14.10
  -5   7   7  113.69   15.20
  -5   7   7   98.29   21.90
   3  -7  -7  129.69   13.60
  -3  -7   7  136.79   20.70
  -3  -7   7  131.59   14.00
   3  -7  -7  138.89   23.40
  -3   7   7  129.59   13.50
   3   7  -7  128.69   13.40
   3   7  -7  101.39   17.80
  -3   7   7   93.09   22.50
   1  -7  -7  352.26   39.60
   1  -7  -7  395.36   26.90
  -1  -7   7  329.67   31.40
  -1  -7   7  357.96   26.40
   1  -7  -7  364.96   26.50
  -1  -7   7  373.86   31.60
   1   7  -7  357.16   26.40
  -1   7   7  362.36   26.80
   1   7  -7  347.17   34.60
  -1   7   7  349.07   26.40
   1   7  -7  417.36   33.60
   1  -7   7  849.32   64.69
  -1  -7  -7  859.61   60.79
  -1  -7  -7  889.31   60.89
   1  -7   7  956.80   65.99
   1   7   7  853.11   60.79
   1   7   7  870.81   61.19
  -1   7  -7 1016.20   65.99
  -1   7  -7  918.81   67.09
  -3  -7  -7  869.61   61.19
  -3  -7  -7  895.61   64.79
   3  -7   7  958.00   65.99
  -3  -7  -7  915.21   61.19
   3   7   7  886.11   64.09
  -3   7  -7  910.11   65.89
  -3   7  -7  936.11   68.19
   3   7   7  815.62   61.39
  -3   7  -7  983.70   66.09
   3   7   7  826.92   61.29
  -5  -7  -7 1789.42  119.59
  -5  -7  -7 1835.52  124.69
  -5  -7  -7 1740.13  120.09
   5  -7   7 1904.51  124.19
   5   7   7 1746.63  120.39
  -5   7  -7 1803.02  125.39
   5   7   7 1704.03  128.19
  -5   7  -7 1884.01  125.49
   5   7   7 1785.12  119.79
  -5   7  -7 1819.42  128.79
   5   7   7 1685.43  124.09
   7  -7   7  404.66   39.80
  -7  -7  -7  393.36   32.40
  -7  -7  -7  414.06   42.90
   7   7   7  305.97   46.50
   7   7   7  403.16   32.00
  -7   7  -7  376.26   42.70
   7   7   7  413.96   34.30
   9  -7   7 1328.97   84.39
  -9  -7  -7 1158.58   95.89
   9  -7   7 1183.88   92.89
   9   7   7 1185.08   84.89
   9   7   7 1119.29   86.69
  -9   7  -7 1174.68   96.29
 -11  -7  -7   89.49   42.60
  11   7   7  209.58   30.30
 -11   7  -7  194.38   42.30
  11   7   7  204.88   27.00
 -11   7  -7  226.78   28.50
 -12  -8   7   93.79   56.89
 -12  -8   7   49.20   24.30
  12   8  -7   33.20   23.50
 -12   8   7   71.29   28.40
 -12   8   7   28.00   23.60
 -10  -8   7   11.30   36.40
 -10  -8   7   21.90   16.50
 -10   8   7   26.40   17.00
 -10   8   7    5.70   18.30
  10   8  -7   42.60   17.60
  -8  -8   7  226.38   26.00
  -8  -8   7  322.57   47.70
   8  -8  -7  262.57   39.40
  -8   8   7  199.18   25.80
  -8   8   7  207.18   26.70
  -8   8   7  249.97   39.80
   8   8  -7  310.57   28.30
  -8   8   7  285.67   26.60
  -6  -8   7  208.98   24.30
  -6  -8   7  225.88   34.20
  -6  -8   7  257.37   21.70
   6  -8  -7  203.98   35.40
   6  -8  -7  220.28   21.20
  -6   8   7  225.98   32.00
  -6   8   7  235.68   23.10
   6   8  -7  239.48   22.30
   4  -8  -7  258.57   33.80
   4  -8  -7  178.28   20.80
  -4  -8   7  237.68   21.60
  -4  -8   7  274.57   20.50
  -4  -8   7  249.78   29.50
  -4  -8   7  255.37   22.10
   4   8  -7  283.97   21.10
   4   8  -7  219.98   30.60
  -4   8   7  215.98   20.80
  -4   8   7  243.08   35.90
  -2  -8   7 2382.06  144.99
   2  -8  -7 2322.37  153.78
  -2  -8   7 2241.28  148.69
   2  -8  -7 2169.48  144.69
  -2  -8   7 2024.30  148.69
  -2   8   7 2100.99  145.09
   2   8  -7 2103.59  149.59
   2   8  -7 2147.59  144.69
   0  -8  -7 1249.28   85.59
   0  -8  -7 1261.07   97.89
   0  -8   7 1365.66   90.79
   0  -8   7 1325.57   90.99
   0  -8  -7 1332.27   86.09
   0   8  -7 1271.47   91.89
   0   8   7 1192.58   86.09
   0   8   7 1300.57   85.49
   0   8  -7 1219.38   90.39
   2  -8   7  146.59   21.60
  -2  -8  -7  153.38   14.30
  -2  -8  -7  153.78   22.10
  -2  -8  -7  145.59   14.80
  -2  -8  -7  214.88   32.80
   2  -8   7  146.19   21.50
  -2   8  -7  194.88   22.90
   2   8   7  189.18   20.10
  -2   8  -7  202.68   26.30
   2   8   7  127.39   14.30
   2   8   7  134.79   14.90
   4  -8   7  758.02   56.19
  -4  -8  -7  733.33   50.19
  -4  -8  -7  724.03   55.19
  -4  -8  -7  730.53   50.29
   4   8   7  671.23   50.29
   4   8   7  668.93   50.49
  -4   8  -7  689.93   60.19
  -4   8  -7  781.62   57.19
  -4   8  -7  709.13   56.49
   4   8   7  722.93   62.79
   4   8   7  688.53   55.49
   6  -8   7   71.79   18.80
  -6  -8  -7   38.80   11.80
  -6  -8  -7   47.60   12.70
  -6  -8  -7   40.80   18.90
  -6  -8  -7  -15.30   24.60
   6   8   7   51.99   11.60
  -6   8  -7   59.59   23.50
   6   8   7   65.09   26.00
   6   8   7   38.30   11.50
  -6   8  -7   52.69   18.50
   6   8   7   49.99   24.50
   8  -8   7  -19.30   19.20
  -8  -8  -7   27.20   33.90
  -8  -8  -7  -21.60   22.90
   8   8   7    8.20   12.80
  -8   8  -7   12.80   21.20
   8   8   7   -1.00   13.60
 -10  -8  -7  121.59   36.50
 -10  -8  -7   66.59   49.90
  10   8   7  111.49   24.20
 -10   8  -7  187.18   38.70
  10   8   7   91.09   20.40
 -10   8  -7  177.48   40.00
 -12  -8  -7  256.87   52.49
 -12   8  -7  299.47   58.59
 -12   8  -7  301.87   35.60
 -12   8  -7  310.07   53.89
  12   8   7  214.48   35.80
  12   8   7  257.17   32.60
 -11  -9   7  152.68   54.09
 -11  -9   7  119.99   24.80
 -11   9   7   58.19   41.10
 -11   9   7  124.29   26.90
  11   9  -7  148.19   27.90
 -11   9   7   97.29   24.50
  -9  -9   7  385.76   53.89
  -9  -9   7  439.06   38.60
   9  -9  -7  384.86   54.59
  -9   9   7  461.25   40.20
   9   9  -7  394.56   40.30
  -9   9   7  448.36   39.80
  -7  -9   7  225.48   35.10
   7  -9  -7  287.77   40.40
  -7  -9   7  285.97   25.10
  -7   9   7  184.38   26.00
  -7   9   7  236.98   25.00
  -7   9   7  269.47   41.30
  -7   9   7  297.97   26.40
   7   9  -7  221.88   26.70
   5  -9  -7  251.17   25.20
  -5  -9   7  251.87   24.60
  -5  -9   7  273.47   27.00
  -5  -9   7  235.58   22.40
  -5  -9   7  260.17   35.90
   5  -9  -7  336.77   39.20
   5   9  -7  300.17   24.50
  -5   9   7  320.87   43.30
  -5   9   7  233.28   23.70
   5   9  -7  263.07   39.00
  -3  -9   7   39.20    9.40
   3  -9  -7   59.99    9.30
   3  -9  -7   47.60   21.80
  -3  -9   7   51.29   15.90
  -3  -9   7   52.99   14.70
  -3   9   7   61.19    9.40
   3   9  -7   60.49   18.30
   3   9  -7   47.20    9.10
   3   9  -7   47.20   18.20
  -3   9   7   40.90   23.70
   1  -9  -7   95.69   25.90
  -1  -9   7   43.90   14.30
   1  -9  -7   47.10    8.20
  -1  -9   7   25.90    7.40
  -1  -9   7   35.90   13.20
  -1   9   7   53.89    8.30
   1   9  -7   53.29   17.80
  -1   9   7   -9.40   19.20
   1   9  -7   41.50    7.90
  -1  -9  -7  398.06   51.29
  -1  -9  -7  404.36   29.80
   1  -9   7  415.66   36.30
   1  -9   7  400.76   37.20
  -1   9  -7  432.06   37.70
   1   9   7  398.36   29.50
   1   9   7  394.26   30.60
  -1   9  -7  370.76   39.80
  -3  -9  -7   64.99   14.90
   3  -9   7   -7.30   12.00
  -3  -9  -7   27.40    8.00
   3  -9   7   28.10   13.70
  -3  -9  -7   90.09   29.90
  -3  -9  -7   12.30    7.60
   3   9   7   19.00   24.50
   3   9   7    7.40   13.30
  -3   9  -7   24.70   19.30
  -3   9  -7    2.20   14.60
   3   9   7   31.70    7.80
   3   9   7   22.90    8.60
  -5  -9  -7  620.64   51.09
  -5  -9  -7  572.64   43.30
  -5  -9  -7  535.35   43.10
   5  -9   7  665.83   50.49
   5   9   7  506.45   52.69
   5   9   7  523.05   57.79
   5   9   7  604.84   43.10
  -5   9  -7  622.64   51.59
   5   9   7  542.55   42.70
  -5   9  -7  613.34   54.49
   7  -9   7  439.36   44.10
  -7  -9  -7  484.05   48.40
  -7   9  -7  402.36   47.80
   7   9   7  434.26   37.60
   7   9   7  380.86   35.50
  -9  -9  -7  119.39   33.20
  -9  -9  -7   -0.80   43.70
   9  -9   7  107.69   29.90
  -9   9  -7  123.19   32.60
   9   9   7  101.59   18.90
 -11  -9  -7  177.08   47.40
  11   9   7  124.59   32.80
  11   9   7  227.68   30.20
 -11   9  -7  287.97   49.90
 -11   9  -7  174.28   51.19
  10 -10  -7   55.19   31.90
 -10 -10   7   89.49   48.00
 -10 -10   7  -10.60   18.40
 -10  10   7   21.40   18.30
  10  10  -7   17.20   20.90
  -8 -10   7   38.10   32.30
   8 -10  -7   70.69   26.70
  -8  10   7   40.60   15.70
   8  10  -7   73.99   16.80
  -6 -10   7  142.29   33.10
   6 -10  -7  155.28   32.00
  -6 -10   7  198.48   21.00
  -6 -10   7  252.87   25.40
   6  10  -7  222.68   22.90
  -6  10   7  160.98   20.60
  -6  10   7  147.19   39.30
   4 -10  -7  228.68   39.20
   4 -10  -7  166.88   21.80
  -4  10   7  202.18   19.70
  -4  10   7  231.48   35.20
   4  10  -7  182.28   29.80
   2 -10  -7   50.49    9.80
   2 -10  -7  102.99   26.50
  -2 -10   7   62.49   17.60
  -2 -10   7   56.69    9.70
  -2 -10   7   61.19   16.70
   2  10  -7   54.59    9.80
   2  10  -7   36.00   22.50
   2  10  -7   53.19   20.20
  -2  10   7   13.90   21.70
  -2  10   7   54.09    9.10
   0 -10  -7  221.48   20.60
   0 -10   7  186.38   28.10
   0 -10  -7  284.97   43.50
   0 -10   7  222.08   28.60
   0 -10   7  236.18   19.60
   0  10  -7  237.18   20.40
   0  10  -7  223.08   36.10
   0  10  -7  258.17   31.80
   0  10   7  238.78   21.10
  -2 -10  -7   73.69   10.30
   2 -10   7   86.99   18.10
  -2 -10  -7   60.29   10.90
   2 -10   7  107.09   21.30
  -2 -10  -7   73.19   18.80
  -2 -10  -7   54.59   31.80
   2  10   7   28.70   14.40
  -2  10  -7   86.49   23.10
   2  10   7   86.19   11.60
  -2  10  -7   78.29   18.90
   2  10   7   75.69   10.80
  -4 -10  -7   44.80   11.40
   4 -10   7   59.79   17.80
  -4 -10  -7   37.40    9.90
   4 -10   7   57.09   17.70
  -4 -10  -7   80.09   17.30
   4  10   7   51.19   11.60
  -4  10  -7   58.99   21.50
   4  10   7   17.90   17.20
   4  10   7   73.29   31.70
   4  10   7   40.40    9.90
  -6 -10  -7  -13.50   21.50
  -6 -10  -7    5.40   29.40
   6 -10   7  -20.20   17.50
  -6  10  -7   16.90   20.10
   6  10   7    3.50   12.10
   6  10   7   -1.70   11.80
   8 -10   7   -9.20   23.30
  -8 -10  -7  -47.90   27.80
  -8 -10  -7  -24.50   41.90
   8  10   7  -10.20   16.60
  -8  10  -7   17.30   24.50
   8  10   7   17.30   14.90
 -10 -10  -7    8.10   57.69
 -10 -10  -7   -4.10   36.60
 -10  10  -7   89.09   35.60
  10  10   7   34.40   19.80
  10  10   7   20.20   23.80
 -11 -11   7   36.60   52.39
 -11 -11   7   12.80   25.20
 -11  11   7    0.20   25.00
  11  11  -7   -4.60   24.10
 -11  11   7   38.80   29.10
  -9 -11   7   -5.60   17.20
   9 -11  -7   35.60   31.70
  -9 -11   7  -44.00   38.30
   9  11  -7   30.20   18.90
  -9  11   7    0.70   16.20
   7 -11  -7    8.80   24.80
  -7 -11   7  -50.29   26.50
  -7 -11   7   17.00   13.00
  -7  11   7   -1.90   12.60
   7  11  -7   15.50   14.40
  -5 -11   7   19.50   20.60
   5 -11  -7   50.89   25.60
   5  11  -7   22.80   12.50
  -5  11   7    9.00   10.60
   3 -11  -7  100.49   27.20
  -3 -11   7   71.89   20.60
  -3 -11   7   89.79   20.30
   3  11  -7   78.29   11.60
   3  11  -7   26.30   25.40
  -3  11   7   26.70   34.80
  -3  11   7   61.59   11.80
  -1 -11   7   30.60    8.70
  -1 -11   7   46.70   16.50
   1 -11  -7   40.00   29.60
   1 -11  -7   26.80    9.50
  -1 -11   7   47.70   17.00
   1  11  -7   30.50   21.00
   1  11  -7   36.50    8.50
   1  11  -7   20.00   21.50
  -1  11   7   31.70    9.00
  -1  11   7   -1.40   27.40
  -1 -11  -7  110.29   31.60
   1 -11   7   50.09   17.00
   1 -11   7   51.69   16.70
  -1 -11  -7   42.60   10.70
   1  11   7    6.60   29.00
  -1  11  -7   61.59   24.70
   1  11   7   49.99   10.30
  -1  11  -7   86.99   21.20
  -1  11  -7   62.99    9.50
  -3 -11  -7  -32.30   33.50
  -3 -11  -7    3.60    8.50
  -3 -11  -7   21.40   19.10
   3 -11   7  -19.70   15.10
  -3 -11  -7   -1.40   11.00
   3 -11   7   -5.30   15.50
   3  11   7   -3.70   35.40
  -3  11  -7   18.70   22.10
   3  11   7    8.20    8.30
   3  11   7    5.50   15.60
   3  11   7   15.50    9.70
  -5 -11  -7   54.99   13.30
  -5 -11  -7   58.89   21.10
  -5 -11  -7   78.79   40.50
   5 -11   7   69.19   20.40
   5 -11   7   52.89   22.10
   5  11   7   32.00   13.00
   5  11   7   61.79   12.90
  -7 -11  -7   -9.00   38.50
   7 -11   7   20.70   23.10
  -7 -11  -7   56.19   24.30
  -7  11  -7   10.30   25.90
   7  11   7    3.10   14.70
   9 -11   7   83.39   31.10
  -9 -11  -7   14.10   51.09
  -9 -11  -7  118.29   35.50
   9  11   7   52.09   19.10
  -9  11  -7   10.50   29.80
   9  11   7   39.60   21.70
 -11 -11  -7   14.40   40.70
 -11 -11  -7 -101.59   69.49
 -11  11  -7    2.30   42.30
  11  11   7   54.69   31.60
  11  11   7  -18.90   23.30
 -11  11  -7  -32.10   47.30
 -10 -12   7   45.40   48.10
  10 -12  -7   -1.10   35.30
 -10 -12   7   24.70   23.40
  10  12  -7   57.59   23.10
 -10  12   7   -2.60   23.00
  -8 -12   7  -18.90   34.30
   8 -12  -7  120.39   32.40
  -8 -12   7   63.49   17.50
   8  12  -7   33.20   17.80
  -8  12   7   30.30   16.10
   6 -12  -7   65.59   31.10
  -6  12   7   75.49   15.30
  -4 -12   7    4.90   22.10
  -4 -12   7   32.00   20.80
   4 -12  -7   18.90   28.80
  -4  12   7   18.00   11.40
   4  12  -7   38.10   11.80
  -2 -12   7  276.07   35.30
   2 -12  -7  264.07   44.10
  -2 -12   7  262.37   25.10
  -2 -12   7  214.58   35.50
   2  12  -7  203.58   34.80
  -2  12   7  269.47   23.70
   2  12  -7  270.47   24.20
   0 -12   7  140.29   17.80
   0 -12   7  160.38   26.20
   0 -12   7  178.68   26.10
   0 -12  -7  184.28   44.50
   0  12   7  188.78   19.80
   0  12  -7  164.28   19.20
   0  12  -7  134.39   28.30
   0  12  -7  143.09   31.50
   2 -12   7   34.60   19.30
   2 -12   7   42.00   19.90
  -2 -12  -7   67.19   37.30
  -2 -12  -7   57.39   21.80
  -2  12  -7   28.70   27.00
   2  12   7   61.39   17.10
   2  12   7   48.60   12.10
  -4 -12  -7  207.68   30.20
   4 -12   7  254.97   35.50
  -4 -12  -7  178.88   49.30
   4 -12   7  223.98   34.10
  -4 -12  -7  161.48   21.40
   4  12   7  209.88   24.50
   4  12   7  181.38   20.60
   4  12   7  179.08   29.10
   6 -12   7   16.00   24.30
  -6 -12  -7  -11.60   25.00
  -6 -12  -7   -1.60   42.60
  -6  12  -7   11.20   24.60
   6  12   7  -15.00   13.30
   6  12   7  -11.20   14.20
   8 -12   7   76.99   29.70
  -8 -12  -7   32.30   59.29
  -8 -12  -7   77.39   34.40
  -8  12  -7   78.69   34.70
   8  12   7   86.19   21.00
   8  12   7   70.49   20.30
  10 -12   7   34.60   36.00
 -10 -12  -7  -16.70   40.90
 -10 -12  -7   38.30   70.19
 -10  12  -7  -28.80   36.80
  10  12   7  -31.70   25.50
  10  12   7    8.00   21.30
  -9 -13   7  193.98   27.70
   9 -13  -7  145.49   44.00
  -9 -13   7   88.59   49.10
   9  13  -7  206.78   31.70
  -9  13   7  273.67   36.00
  -7 -13   7  384.96   34.60
   7 -13  -7  306.57   49.20
  -7 -13   7  390.36   58.29
  -7  13   7  317.37   36.30
   7  13  -7  377.76   37.90
   5 -13  -7   10.00   30.20
  -5 -13   7   57.29   26.80
   5  13  -7   11.60   14.20
  -5  13   7    2.30   12.80
  -3 -13   7   54.39   22.50
   3 -13  -7   69.19   31.80
  -3 -13   7   45.40   24.20
  -3  13   7   52.39   13.60
   3  13  -7   55.69   13.30
   3  13  -7   40.60   29.70
   1 -13  -7   27.80   38.50
  -1 -13   7   52.79   21.80
  -1 -13   7   66.39   23.00
  -1 -13   7   70.09   13.70
   1  13  -7   73.29   12.50
   1  13  -7   18.00   32.20
  -1  13   7   52.49   12.90
   1 -13   7  385.36   31.70
  -1 -13  -7  439.16   62.59
   1 -13   7  371.26   44.40
   1 -13   7  374.26   42.80
  -1  13  -7  436.86   32.00
   1  13   7  380.96   33.80
  -3 -13  -7  208.78   51.99
   3 -13   7  213.08   35.90
  -3 -13  -7  279.97   34.20
   3 -13   7  255.57   38.10
   3  13   7  190.88   22.60
   3  13   7  188.28   28.60
  -5 -13  -7  193.88   58.49
  -5 -13  -7  225.88   36.90
   5 -13   7  220.38   34.40
   5 -13   7  266.77   42.10
   5  13   7  222.48   26.20
   5  13   7  210.48   27.70
  -7 -13  -7  142.39   59.69
   7 -13   7  245.68   37.90
  -7 -13  -7  227.98   41.20
  -7  13  -7  202.18   40.70
   7  13   7  197.08   25.90
  -9 -13  -7  150.98   74.59
  -9 -13  -7  276.97   51.09
   9 -13   7  431.66   57.49
   9  13   7  287.27   38.50
  -9  13  -7  381.16   63.29
   9  13   7  223.98   31.50
  -8 -14   7   71.99   44.90
  -8 -14   7   59.79   20.60
   8 -14  -7  114.79   38.80
   8  14  -7   58.09   24.30
  -8  14   7   47.10   20.90
  -6 -14   7   56.79   32.50
   6 -14  -7   27.90   33.50
  -6  14   7   27.50   17.20
   6  14  -7   54.69   19.90
  -4 -14   7  762.22   76.49
   4 -14  -7  844.92   86.69
  -4 -14   7  853.01   76.19
   4  14  -7  876.41   64.19
  -4  14   7  881.11   63.59
  -2 -14   7  510.25   56.49
  -2 -14   7  668.03   58.49
   2 -14  -7  490.35   66.99
  -2  14   7  581.54   43.20
   2  14  -7  502.55   42.10
   2  14  -7  320.67   73.69
   0 -14  -7  969.50   90.59
   0 -14   7  899.21   72.29
   0 -14   7  772.02   60.89
   0 -14   7  836.12   72.89
   0  14  -7  854.61   61.69
   0  14   7  837.42   62.59
  -2 -14  -7  393.36   51.69
   2 -14   7  431.66   35.80
  -2 -14  -7  517.45   72.09
   2 -14   7  463.35   49.80
   2 -14   7  483.55   52.59
   2  14   7  475.65   45.90
  -2  14  -7  408.36   37.10
   2  14   7  467.25   38.40
   4 -14   7   20.70   25.30
  -4 -14  -7    5.50   54.09
  -4 -14  -7   61.99   31.60
   4 -14   7  100.79   28.80
   4  14   7   70.29   17.00
   4  14   7   55.19   14.60
  -6 -14  -7   36.70   64.89
  -6 -14  -7  -15.80   33.00
   6 -14   7    4.00   27.70
   6 -14   7   10.10   27.50
   6  14   7   -8.20   18.50
   6  14   7   13.50   17.90
  -8 -14  -7  141.49   82.89
   8 -14   7  -15.10   30.70
  -8 -14  -7    1.00   42.00
  -8  14  -7  -18.60   38.20
   8  14   7  -28.60   20.40
   8  14   7   -9.70   24.70
  -9 -15   7  266.37   31.60
   9 -15  -7  124.99   48.30
  -9 -15   7  211.78   57.79
   9  15  -7  198.18   33.80
  -9  15   7  221.38   33.80
   7 -15  -7  221.98   46.50
  -7 -15   7  134.99   43.10
   7  15  -7  126.69   29.10
  -7  15   7  191.68   27.50
   5 -15  -7  459.85   66.59
  -5 -15   7  419.26   61.29
  -5 -15   7  304.37   49.20
  -5  15   7  395.26   39.70
   5  15  -7  400.56   41.30
   3 -15  -7  -15.20   37.40
  -3 -15   7   11.50   28.50
  -3 -15   7   47.80   28.90
   3  15  -7   54.89   16.80
  -3  15   7   13.40   14.80
  -1 -15   7   29.60   26.80
  -1 -15   7   22.60   28.20
   1 -15  -7   64.09   41.60
  -1  15   7   17.10   14.50
   1  15  -7   40.40   14.80
   1 -15   7  226.38   38.60
   1 -15   7  210.48   36.30
  -1 -15  -7  216.28   55.29
  -1  15  -7  215.28   26.90
   1  15   7  197.08   26.10
   1  15   7  182.38   26.70
   3 -15   7 1200.38   97.09
   3 -15   7 1170.98   92.69
  -3 -15  -7 1062.99   93.99
   3  15   7 1116.09   82.19
   5 -15   7  358.36   49.00
   5 -15   7  286.67   50.99
  -5 -15  -7  362.96   49.80
   5  15   7  253.87   36.30
   7 -15   7  586.94   64.69
  -7 -15  -7  520.35   66.59
  -7  15  -7  571.04   74.39
   7  15   7  575.14   53.59
   7  15   7  609.54   55.79
  -9 -15  -7   62.19  118.29
  -8 -16   7  189.58   53.49
   8 -16  -7  192.18   47.80
  -8  16   7  149.69   29.10
   8  16  -7  157.48   35.50
  -6 -16   7  304.97   52.59
   6 -16  -7  457.95   69.69
  -6 -16   7  392.06   53.59
  -6  16   7  378.66   43.90
   6  16  -7  373.16   43.80
   4 -16  -7  835.92   92.59
  -4 -16   7  664.53   80.59
  -4 -16   7  936.71   84.89
  -4  16   7  837.22   64.69
   4  16  -7  821.12   65.19
   2 -16  -7  863.81   95.99
  -2 -16   7  819.92   78.79
  -2 -16   7  798.82   75.19
  -2  16   7  662.83   59.89
   2  16  -7  796.42   60.69
   0 -16   7 1189.68  100.29
   0 -16  -7 1214.38  118.49
   0 -16   7 1106.39  100.29
   0  16  -7 1359.86   90.49
   0  16   7 1278.37   88.79
  -2 -16  -7  568.34   63.19
  -2 -16  -7  709.53   89.99
   2 -16   7  497.65   64.39
   2 -16   7  433.26   58.79
  -2  16  -7  576.04   49.40
   2  16   7  539.45   57.39
   2  16   7  569.14   47.40
  -4 -16  -7   51.59   78.69
  -4 -16  -7  206.28   44.30
   4 -16   7  185.98   36.60
   4 -16   7  152.28   41.20
   4  16   7  147.69   25.40
  -4  16  -7  188.48   25.90
  -6 -16  -7   34.90   89.39
   6 -16   7    5.80   36.60
  -6 -16  -7  -48.30   40.70
   6 -16   7    1.40   33.80
   6  16   7   50.59   26.20
   6  16   7   13.00   20.80
  -8 -16  -7   42.20   53.59
   8 -16   7  -18.30   35.00
  -8 -16  -7   -7.50  121.49
   8  16   7  -29.90   24.30
  -8  16  -7    7.10   44.50
   8  16   7   18.40   34.40
  -7 -17   7  217.28   55.09
   7 -17  -7  286.37   59.19
   7  17  -7  325.47   40.30
  -7  17   7  282.47   37.20
   5 -17  -7   56.09   44.60
  -5 -17   7    6.80   41.50
  -5 -17   7   52.19   38.10
   5  17  -7   36.80   23.30
  -5  17   7   35.50   22.70
  -3 -17   7  196.68   44.00
  -3 -17   7  191.88   49.99
   3 -17  -7  302.17   58.39
   3  17  -7  267.87   30.50
  -3  17   7  211.28   28.40
   1 -17  -7   68.99   47.10
  -1 -17   7   61.49   34.30
  -1 -17   7   67.59   34.80
  -1  17   7   79.99   20.20
   1  17  -7   87.79   22.70
  -1 -17  -7  509.25   83.89
   1 -17   7  436.06   62.99
   1 -17   7  481.35   63.09
   1  17   7  479.65   46.20
  -1  17  -7  521.25   46.20
   3 -17   7  179.98   41.50
  -3 -17  -7  198.28   84.49
   3 -17   7  148.89   42.90
  -3 -17  -7  259.17   45.20
   3  17   7  224.48   28.90
  -3  17  -7  231.58   31.80
   5 -17   7 1160.08  103.39
  -5 -17  -7 1233.48  106.39
   5 -17   7 1125.69   96.39
   5  17   7 1029.70   86.49
   7 -17   7  267.47   45.10
  -7 -17  -7  243.68   60.59
  -7 -17  -7   87.79  117.29
   7  17   7  166.68   38.70
   7  17   7  221.48   33.80
  -7  17  -7  273.77   51.89
  -6 -18   7  188.58   54.99
  -6 -18   7  306.47   59.79
   6 -18  -7  301.97   57.99
   6  18  -7  320.67   41.60
  -6  18   7  370.76   39.40
  -4 -18   7  320.07   59.49
  -4 -18   7  161.78   50.99
   4 -18  -7  298.57   61.39
   4  18  -7  285.07   34.60
  -4  18   7  263.37   34.50
   2 -18  -7  978.40  106.79
  -2 -18   7  830.12   87.99
  -2 -18   7  760.92   89.39
   2  18  -7  688.43   66.09
  -2  18   7  718.13   65.59
   0 -18   7  336.77   52.69
   0 -18  -7  425.66   70.09
   0 -18   7  373.56   52.99
   0  18  -7  314.47   44.90
   0  18   7  325.47   39.90
  -2 -18  -7  133.09   43.40
   2 -18   7  100.99   38.30
   2 -18   7  126.19   43.30
  -2 -18  -7  111.49   68.79
  -2  18  -7  114.19   25.50
   2  18   7   94.19   24.60
   4 -18   7  206.78   45.40
  -4 -18  -7  227.48   86.99
  -4 -18  -7  302.47   51.19
   4 -18   7  222.38   49.80
  -4  18  -7  263.67   32.40
   4  18   7  135.49   30.70
  -6 -18  -7   68.59   50.29
   6 -18   7  -28.00   39.90
  -6 -18  -7  -97.79  123.19
   6 -18   7   -3.60   41.80
   6  18   7   11.40   26.70
   5 -19  -7  344.97   64.79
  -5 -19   7  272.87   65.59
  -3 -19   7   58.89   47.10
   3 -19  -7  -33.70   54.29
  -3 -19   7    6.20   48.10
  -3  19   7   80.19   26.90
   3  19  -7   48.80   31.00
   1 -19  -7  -11.10   58.99
  -1 -19   7   36.20   41.60
  -1 -19   7    1.00   41.40
   1  19  -7   78.19   25.80
  -1  19   7   32.70   23.20
  -1 -19  -7   18.30   58.19
   1 -19   7   74.39   42.30
   1 -19   7   26.40   43.90
  -1  19  -7  110.59   30.90
   1  19   7   96.49   25.70
  -3 -19  -7  290.17  104.69
   3 -19   7  332.07   60.29
   3 -19   7  356.76   56.29
  -3 -19  -7  215.08   56.49
   3  19   7  350.26   41.30
  -3  19  -7  408.06   51.49
  -2 -20   7   43.00   52.59
   2 -20  -7  150.48   65.99
  -2 -20   7   66.49   47.60
  -2  20   7   79.39   27.40
   2  20  -7   64.29   35.80
   0 -20   7  145.39   53.59
   0 -20  -7  155.58   69.49
   0 -20   7   70.39   49.80
   0  20  -7  147.49   33.50
   0  20   7  132.99   30.00
  -2 -20  -7  133.99   71.89
   2 -20   7  271.17   60.09
   2 -20   7  239.08   54.59
  -2  20  -7  292.47   44.00
   2  20   7  220.88   36.60
  12   0  -8   38.70   20.70
 -12   0   8   69.59   34.80
 -12   0   8   63.89   22.60
 -10   0   8  319.97   33.60
 -10   0   8  331.47   42.80
  10   0  -8  386.16   34.70
   8   0  -8 1873.21  131.29
  -8   0   8 1865.91  133.69
  -8   0   8 2072.19  131.39
   8   0  -8 1947.41  134.89
  -6   0   8 1080.19   74.09
  -6   0   8 1020.30   73.89
   6   0  -8 1146.09   76.99
   6   0  -8 1134.89   73.89
   6   0  -8 1054.09   74.09
  -6   0   8 1029.20   75.99
   4   0  -8 3064.79  204.38
  -4   0   8 3124.99  204.38
  -4   0   8 2832.72  204.28
   4   0  -8 3506.65  205.78
   4   0  -8 2992.00  204.38
   2   0  -8 1703.03  120.99
  -2   0   8 2002.90  120.79
   2   0  -8 1889.91  120.79
  -2   0   8 1716.13  120.99
   0   0  -8  168.98   19.90
   0   0  -8  144.39   12.90
   0   0   8  160.18   12.80
   0   0   8  146.59   16.20
   0   0  -8  150.58   14.60
   0   0   8  179.58   15.50
   2   0   8  963.50   70.99
  -2   0  -8 1020.20   69.39
   2   0   8  913.21   69.29
  -2   0  -8  977.40   72.79
  -2   0  -8 1141.19   67.59
   2   0   8  998.90   67.59
   4   0   8    7.30   11.10
   4   0   8    4.30    5.30
  -4   0  -8   18.00    9.50
   4   0   8   -0.50    8.40
  -4   0  -8   -1.00    5.00
  -4   0  -8    5.90   10.40
  -6   0  -8  201.18   28.10
  -6   0  -8  185.48   27.60
   6   0   8  208.58   19.10
  -6   0  -8  196.68   27.20
   6   0   8  190.58   29.10
  -6   0  -8  193.08   18.50
  -8   0  -8  354.86   43.70
   8   0   8  462.65   34.60
   8   0   8  423.36   50.39
  -8   0  -8  394.36   49.20
 -10   0  -8  647.44   73.69
 -10   0  -8  618.24   69.59
  10   0   8  713.53   53.99
  12   0   8  420.06   47.00
 -12   0  -8  451.45   67.89
 -12   0  -8  476.15   60.69
  13  -1  -8  410.96   47.60
 -13  -1   8  379.96   47.10
 -13  -1   8  372.06   57.19
  13   1  -8  364.36   45.20
 -13   1   8  317.47   52.19
 -13   1   8  512.15   49.99
  11  -1  -8  305.77   34.40
 -11  -1   8  284.57   34.00
 -11  -1   8  335.87   43.70
 -11   1   8  266.07   33.80
  11   1  -8  281.87   33.20
 -11   1   8  274.37   38.20
  -9  -1   8  889.21   64.29
   9  -1  -8  878.31   66.69
   9  -1  -8  638.84   57.59
  -9  -1   8  826.42   57.99
  -9   1   8  768.52   62.39
   9   1  -8  789.02   58.49
  -9   1   8  761.72   57.69
   9   1  -8  743.13   69.69
   7  -1  -8  130.99   17.90
  -7  -1   8  136.79   19.80
  -7  -1   8  159.88   18.50
   7  -1  -8  199.88   27.20
  -7  -1   8  162.28   17.30
  -7  -1   8  167.98   22.40
   7   1  -8  159.38   18.10
  -7   1   8  142.09   17.80
  -7   1   8  172.98   23.60
  -7   1   8  150.78   17.80
   7   1  -8  197.78   24.30
   5  -1  -8  172.48   16.60
  -5  -1   8  205.08   21.50
  -5  -1   8  164.78   17.20
   5  -1  -8  174.38   17.10
  -5  -1   8  172.78   16.60
   5   1  -8  197.58   16.50
   5   1  -8  165.48   16.50
  -5   1   8  180.98   17.60
   5   1  -8  181.18   21.80
  -5   1   8  196.08   17.10
   3  -1  -8 1582.94  111.29
  -3  -1   8 1679.63  111.49
   3  -1  -8 1788.12  111.69
  -3  -1   8 1737.73  112.79
  -3  -1   8 1610.84  111.19
   3   1  -8 1831.02  112.79
   3   1  -8 1674.13  111.29
  -3   1   8 1553.94  111.39
  -3   1   8 1729.63  111.39
   3   1  -8 1584.34  111.29
  -1  -1   8  723.83   46.50
  -1  -1   8  657.13   47.70
  -1  -1   8  688.23   48.30
   1  -1  -8  669.13   46.40
  -1   1   8  701.43   49.10
  -1   1   8  600.74   46.20
  -1   1   8  695.63   45.70
   1   1  -8  681.03   47.70
   1   1  -8  663.03   46.30
   1   1  -8  669.23   48.90
  -1   1   8  731.73   45.90
   1  -1   8 1930.51  122.59
  -1  -1  -8 2009.70  122.79
  -1  -1  -8 1746.63  123.49
   1  -1   8 1880.61  125.49
  -1  -1  -8 1888.81  127.59
   1   1   8 1786.32  122.59
  -1   1  -8 1626.14  123.99
  -1   1  -8 1838.02  126.29
  -1   1  -8 2086.99  122.69
   1   1   8 1798.82  123.79
   1   1   8 1820.52  126.19
   3  -1   8 1826.02  124.29
  -3  -1  -8 1995.10  120.59
   3  -1   8 1766.52  120.39
  -3  -1  -8 1843.82  126.69
   3  -1   8 1755.32  122.69
  -3  -1  -8 1738.33  122.39
   3   1   8 1767.42  122.39
   3   1   8 1748.23  120.49
  -3   1  -8 1753.42  125.19
  -3   1  -8 1779.22  122.79
  -3   1  -8 2043.20  120.49
   3   1   8 1762.52  124.69
  -5  -1  -8 1558.14  111.39
  -5  -1  -8 1619.74  115.49
  -5  -1  -8 1571.94  111.09
   5  -1   8 1644.84  111.29
   5  -1   8 1653.13  108.09
   5  -1   8 1541.25  112.59
  -5  -1  -8 1582.54  107.79
  -5   1  -8 1720.93  107.79
  -5   1  -8 1591.54  111.29
  -5   1  -8 1670.83  114.49
   5   1   8 1501.15  112.89
   5   1   8 1642.84  108.29
  -7  -1  -8  585.84   55.39
   7  -1   8  658.93   60.89
  -7  -1  -8  657.83   49.99
  -7  -1  -8  714.93   60.89
   7  -1   8  774.12   50.39
  -7  -1  -8  633.74   57.79
   7   1   8  695.13   59.39
   7   1   8  668.53   49.70
  -7   1  -8  703.33   56.99
  -7   1  -8  735.23   59.49
  -7   1  -8  594.64   57.79
  -7   1  -8  710.13   49.70
  -9  -1  -8  633.84   56.79
  -9  -1  -8  552.14   64.59
   9  -1   8  573.94   47.00
   9   1   8  611.54   47.60
  -9   1  -8  581.34   62.19
  -9   1  -8  518.35   56.69
 -11  -1  -8   80.49   43.50
 -11  -1  -8   98.69   34.50
  11  -1   8   31.30   21.40
 -11   1  -8   93.59   32.10
 -11   1  -8   -3.80   35.70
  11   1   8   79.69   20.50
 -13  -1  -8   67.99   46.20
  13  -1   8   23.90   27.80
 -13  -1  -8   84.39   67.89
 -13   1  -8  -55.49   61.19
 -13   1  -8   78.99   46.10
  13   1   8   -7.00   27.40
 -12  -2   8   72.69   23.40
 -12  -2   8   83.39   39.30
 -12   2   8  106.79   26.20
  12   2  -8   89.79   23.00
 -12   2   8   21.10   31.40
 -10  -2   8  426.96   51.79
 -10  -2   8  445.86   39.20
  10  -2  -8  439.36   39.00
 -10   2   8  444.86   45.40
  10   2  -8  471.15   39.30
 -10   2   8  380.56   38.70
   8  -2  -8  387.96   36.40
  -8  -2   8  487.25   42.80
  -8  -2   8  454.05   36.00
  -8   2   8  455.75   36.40
  -8   2   8  444.66   40.40
   8   2  -8  487.85   36.60
   8   2  -8  469.25   46.90
   6  -2  -8 2145.19  145.99
   6  -2  -8 2362.76  145.69
  -6  -2   8 2253.77  145.79
  -6  -2   8 2124.49  145.69
  -6  -2   8 2156.48  148.29
  -6   2   8 2019.10  145.59
   6   2  -8 2392.06  148.99
   6   2  -8 2184.08  145.69
   6   2  -8 2103.59  145.29
  -6   2   8 2114.49  145.89
  -4  -2   8  410.86   30.90
   4  -2  -8  460.45   30.70
  -4  -2   8  349.37   33.30
  -4  -2   8  449.76   30.90
   4   2  -8  420.16   30.70
   4   2  -8  449.36   34.90
  -4   2   8  446.66   30.90
  -4   2   8  395.26   30.30
  -4   2   8  405.46   31.00
   4   2  -8  414.66   30.30
   2  -2  -8  469.15   34.20
  -2  -2   8  524.45   34.40
  -2  -2   8  442.56   36.30
  -2  -2   8  541.65   33.90
   2   2  -8  513.45   33.90
  -2   2   8  457.65   34.00
  -2   2   8  470.05   34.20
  -2   2   8  481.05   33.70
   0  -2   8  953.20   69.59
   0  -2   8 1056.39   71.99
   0  -2   8  970.80   71.89
   0  -2  -8 1106.99   70.29
   0   2   8 1133.39   74.29
   0   2   8  985.70   69.89
   0   2  -8 1151.88   69.99
   0   2  -8 1008.80   72.59
  -2  -2  -8   21.50   12.50
  -2  -2  -8   22.60    7.20
   2  -2   8   22.50    5.10
  -2  -2  -8   18.00    5.20
   2  -2   8   20.40    9.30
   2  -2   8   14.60    8.30
  -2   2  -8   23.50    8.70
   2   2   8   21.10   10.80
  -2   2  -8   11.70    8.10
  -2   2  -8   18.90    4.50
   2   2   8   22.00    5.30
   2   2   8   18.70    7.80
   4  -2   8  252.57   21.40
   4  -2   8  313.97   29.80
   4  -2   8  251.67   25.70
  -4  -2  -8  243.08   27.00
  -4  -2  -8  307.87   22.00
  -4  -2  -8  285.47   25.80
  -4  -2  -8  276.97   31.20
  -4   2  -8  254.07   25.90
  -4   2  -8  281.27   21.40
  -4   2  -8  289.97   27.20
   4   2   8  280.87   27.70
   4   2   8  270.67   22.10
  -6  -2  -8  228.78   29.20
   6  -2   8  197.38   32.90
  -6  -2  -8  243.78   21.40
   6  -2   8  257.87   21.20
  -6  -2  -8  274.97   36.30
   6  -2   8  204.68   27.00
  -6  -2  -8  237.18   28.50
   6   2   8  249.88   32.00
   6   2   8  221.98   21.30
  -6   2  -8  211.18   29.10
  -6   2  -8  263.37   20.80
  -6   2  -8  232.58   29.90
   8  -2   8  887.91   60.39
  -8  -2  -8  779.52   73.69
  -8  -2  -8  809.32   67.69
   8   2   8  663.73   74.59
  -8   2  -8  879.81   70.29
   8   2   8  847.72   60.89
  -8   2  -8  903.61   73.59
 -10  -2  -8  414.26   68.29
 -10  -2  -8  458.85   55.39
  10  -2   8  405.66   40.00
 -10   2  -8  471.05   61.79
 -10   2  -8  414.36   54.69
  10   2   8  441.56   41.70
 -12  -2  -8  455.25   77.39
  12  -2   8  405.86   48.30
 -12  -2  -8  464.15   69.79
 -12   2  -8  435.46   65.19
 -12   2  -8  423.86   56.49
  12   2   8  468.55   47.40
 -13  -3   8  444.76   61.89
 -13  -3   8  423.86   48.00
  13   3  -8  354.76   49.70
 -13   3   8  387.86   53.19
 -13   3   8  405.86   50.09
 -13   3   8  392.86   44.10
 -11  -3   8  143.09   23.00
 -11  -3   8  128.49   34.70
  11   3  -8  136.79   22.70
 -11   3   8  113.69   26.00
 -11   3   8  126.69   30.30
 -11   3   8  146.09   23.90
  -9  -3   8  161.48   21.80
  -9  -3   8  185.48   29.30
  -9   3   8  213.68   24.20
   9   3  -8  177.98   23.90
  -9   3   8  186.58   27.40
  -9   3   8  216.88   23.70
  -9   3   8  183.28   25.40
   7  -3  -8  190.98   19.30
  -7  -3   8  172.88   23.90
  -7  -3   8  238.68   29.60
  -7  -3   8  150.78   22.10
  -7  -3   8  173.48   18.80
  -7   3   8  201.28   20.30
   7   3  -8  190.48   19.30
   7   3  -8  217.78   32.20
  -7   3   8  204.48   22.90
  -7   3   8  166.28   19.50
   5  -3  -8   82.19   10.90
  -5  -3   8   95.39   15.50
  -5  -3   8   82.99   11.00
  -5  -3   8   87.09   11.50
   5   3  -8   73.39   10.50
  -5   3   8   85.99   11.60
  -5   3   8   89.69   11.00
  -5   3   8   71.69   11.00
   5   3  -8  107.79   15.90
   5   3  -8  120.89   12.40
   3  -3  -8   70.49    9.20
  -3  -3   8   67.59    9.00
  -3  -3   8   67.89   12.70
  -3  -3   8   71.19    8.60
  -3   3   8   64.29    8.60
   3   3  -8   84.99   16.50
  -3   3   8   66.29    9.20
   3   3  -8   65.59    9.10
   3   3  -8   60.99    8.30
  -3   3   8   69.69    9.10
   1  -3  -8    2.30   11.80
   1   3  -8    9.70    6.80
  -1   3   8   10.70    4.50
   1   3  -8   15.40    5.90
   1   3  -8   17.40    7.90
  -1   3   8  -11.00   10.40
  -1  -3  -8 1937.21  134.19
   1  -3   8 2103.59  136.69
   1  -3   8 1891.71  135.99
  -1  -3  -8 2065.69  133.89
  -1   3  -8 2117.69  133.49
  -1   3  -8 1951.50  136.39
   1   3   8 2104.49  133.89
   1   3   8 2154.88  139.09
  -1   3  -8 1907.91  135.99
   3  -3   8  530.55   41.60
   3  -3   8  504.75   43.40
  -3  -3  -8  546.65   41.20
   3  -3   8  530.05   37.70
  -3  -3  -8  527.75   40.60
  -3  -3  -8  583.54   38.30
   3   3   8  515.65   44.30
   3   3   8  515.05   38.20
  -3   3  -8  547.75   41.70
  -3   3  -8  582.14   37.80
  -3   3  -8  576.24   42.80
  -5  -3  -8 1122.09   78.89
  -5  -3  -8 1139.49   88.39
   5  -3   8 1312.77   79.09
  -5  -3  -8 1196.78   82.69
   5  -3   8 1175.48   82.49
  -5  -3  -8 1082.09   81.89
   5   3   8 1114.79   79.19
   5   3   8 1116.59   84.79
  -5   3  -8 1149.58   83.09
  -5   3  -8 1177.18   84.59
  -5   3  -8 1163.68   85.29
  -7  -3  -8  720.83   55.79
  -7  -3  -8  654.73   62.79
   7  -3   8  740.93   48.70
  -7  -3  -8  530.55   48.60
  -7  -3  -8  594.44   56.79
   7  -3   8  635.24   53.69
  -7   3  -8  562.64   57.49
  -7   3  -8  744.73   48.40
  -7   3  -8  711.63   57.29
  -7   3  -8  670.13   59.39
   7   3   8  727.03   49.40
   7   3   8  586.54   59.29
  -9  -3  -8  118.19   25.60
  -9  -3  -8  117.99   37.70
   9  -3   8  105.69   17.40
   9   3   8  115.59   18.70
  -9   3  -8   96.49   29.50
  -9   3  -8   43.90   29.10
 -11  -3  -8   67.79   33.90
 -11  -3  -8   -2.00   55.99
  11  -3   8   42.60   20.30
  11   3   8   85.49   19.50
  11   3   8   66.59   20.60
 -11   3  -8   79.59   34.10
 -11   3  -8   84.89   40.50
 -13  -3  -8   15.10   50.69
  13   3   8   34.70   28.90
 -13   3  -8   20.50   47.40
 -12  -4   8   45.80   22.90
 -12  -4   8   45.20   42.20
  12   4  -8   51.29   22.20
 -12   4   8   56.59   24.40
 -12   4   8   76.79   25.10
 -12   4   8   31.80   32.80
 -10  -4   8   32.90   15.20
 -10  -4   8   28.10   28.90
  10   4  -8   49.90   16.30
 -10   4   8   51.39   17.90
 -10   4   8   25.70   17.10
  -8  -4   8  484.85   37.10
  -8  -4   8  577.84   47.50
   8   4  -8  438.16   37.30
  -8   4   8  429.46   36.80
  -8   4   8  446.26   37.60
   8   4  -8  409.06   50.39
   6  -4  -8   88.79   11.70
  -6  -4   8  108.49   18.50
  -6  -4   8   68.99   12.10
  -6  -4   8   83.69   12.10
  -6  -4   8   88.69   13.00
   6   4  -8  105.89   17.90
   6   4  -8   97.99   12.80
  -6   4   8  107.79   14.40
  -6   4   8  115.09   14.90
  -6   4   8  101.59   13.70
   4  -4  -8  432.56   41.70
   4  -4  -8  431.46   33.90
  -4  -4   8  465.35   34.50
  -4  -4   8  482.65   34.60
  -4  -4   8  451.95   38.90
  -4   4   8  460.55   34.40
   4   4  -8  547.05   39.40
  -4   4   8  497.65   34.40
   4   4  -8  491.55   34.40
   4   4  -8  505.65   34.30
  -4   4   8  484.15   34.90
  -2  -4   8  596.34   43.60
   2  -4  -8  625.64   43.40
   2  -4  -8  686.93   52.39
  -2  -4   8  566.64   46.30
   2  -4  -8  646.54   43.90
  -2   4   8  600.24   43.80
  -2   4   8  630.74   43.60
   2   4  -8  652.53   47.30
   2   4  -8  682.43   43.70
   2   4  -8  664.73   43.40
   0  -4  -8  271.27   20.90
   0  -4   8  241.98   24.10
   0   4  -8  278.97   24.00
   0   4  -8  268.67   23.50
   0   4   8  274.37   20.30
   0   4  -8  278.47   24.90
   0   4   8  270.47   20.70
   0   4  -8  299.57   20.20
  -2  -4  -8   -2.80   14.50
  -2  -4  -8    0.10    3.50
  -2  -4  -8    0.00    8.50
  -2  -4  -8    2.20    4.60
  -2  -4  -8    9.20    7.00
   2  -4   8   10.60    8.70
  -2   4  -8    6.80    7.40
   2   4   8    3.30    4.80
   2   4   8    6.50    4.60
  -2   4  -8    7.10    8.40
   2   4   8  -12.10   11.00
  -2   4  -8    2.80    9.30
   4  -4   8    6.70    5.80
  -4  -4  -8   36.90   10.90
  -4  -4  -8   18.30    7.00
  -4  -4  -8   11.00   17.10
   4  -4   8   10.30    9.90
  -4  -4  -8   17.00   10.10
   4   4   8   13.00    6.70
  -4   4  -8   22.20   11.20
   4   4   8   19.70   13.80
  -4   4  -8    3.30   10.80
  -4   4  -8    0.10    5.50
  -4   4  -8    9.40   11.40
  -6  -4  -8    9.20   15.10
  -6  -4  -8   -7.20    6.50
  -6  -4  -8   -3.00    7.90
   6  -4   8   -1.80    7.20
   6  -4   8    5.20   12.30
  -6  -4  -8   14.90   15.20
  -6   4  -8   17.20   13.00
   6   4   8  -11.20   14.90
   6   4   8  -11.00    7.10
  -6   4  -8    5.00    7.60
  -6   4  -8   -3.30   15.50
  -6   4  -8   -5.60   15.70
   6   4   8   11.60    7.80
  -8  -4  -8  103.99   24.90
  -8  -4  -8   59.49   33.00
   8  -4   8  120.29   16.70
   8   4   8  108.89   30.70
  -8   4  -8  159.78   18.50
  -8   4  -8  123.49   25.00
   8   4   8  128.59   18.60
  10  -4   8   66.79   17.20
 -10  -4  -8   16.20   46.10
 -10  -4  -8   77.39   27.80
 -10   4  -8  104.19   32.90
  10   4   8   57.29   18.70
  10   4   8   80.79   17.70
 -10   4  -8   89.59   34.00
 -12  -4  -8  169.18   45.50
  12  -4   8  115.79   27.70
 -12   4  -8  143.19   48.80
  12   4   8  128.89   29.00
 -12   4  -8   92.49   46.50
  12   4   8  145.69   25.50
 -13  -5   8   38.70   27.70
 -13  -5   8   15.90   50.99
 -13   5   8   17.20   27.50
  13   5  -8   64.89   27.00
 -13   5   8   -1.00   31.50
 -11  -5   8   17.00   18.70
 -11  -5   8   -1.80   34.70
 -11   5   8    8.40   19.40
  11   5  -8    9.50   18.70
 -11   5   8    3.90   20.70
 -11   5   8   35.40   29.30
  -9  -5   8   44.40   14.20
  -9  -5   8   32.80   27.70
   9   5  -8   38.30   15.00
  -9   5   8   10.20   14.70
  -9   5   8   48.80   15.20
   7  -5  -8   46.80   11.20
  -7  -5   8   58.99   19.30
  -7  -5   8   59.69   11.40
  -7  -5   8   35.40   14.60
   7   5  -8   53.19   21.90
   7   5  -8   68.19   12.20
  -7   5   8   65.59   12.00
  -7   5   8   71.39   18.90
  -7   5   8   54.49   11.50
   5  -5  -8   30.50   16.20
  -5  -5   8   24.00    8.10
  -5  -5   8   37.90   14.00
  -5  -5   8   24.80    7.50
   5  -5  -8   15.80    7.40
   5   5  -8   29.20   15.40
  -5   5   8   17.50    8.70
   5   5  -8   22.20    7.10
  -5   5   8   24.10    7.30
  -5   5   8   20.00    7.80
  -5   5   8   10.20   16.00
   3  -5  -8    4.00    5.70
  -3  -5   8   -2.90    5.40
   3  -5  -8    4.30   17.20
   3  -5  -8   -2.70    5.70
  -3  -5   8   -1.60    4.70
  -3  -5   8  -11.70    9.30
   3   5  -8   -1.40    4.80
   3   5  -8    6.30    5.10
  -3   5   8  -10.10   14.40
  -3   5   8   -2.90    5.10
   3   5  -8    9.80   11.20
  -3   5   8    1.30    5.10
   1  -5  -8  181.18   15.10
  -1  -5   8  189.08   19.60
   1  -5  -8  179.98   14.70
   1   5  -8  190.58   19.20
   1   5  -8  189.48   21.10
  -1   5   8  155.98   14.60
  -1   5   8  176.38   14.60
   1   5  -8  175.98   19.10
  -1  -5  -8   31.60    5.30
  -1  -5  -8   30.20    5.80
   1  -5   8   30.30   10.30
  -1  -5  -8   -0.90   13.30
  -1   5  -8   19.90   10.20
   1   5   8   23.90    5.50
  -1   5  -8   33.50    9.40
  -1   5  -8   17.60    9.30
   1   5   8   33.80    6.10
  -3  -5  -8   43.00    7.60
  -3  -5  -8   41.10    6.60
   3  -5   8   41.80   11.60
  -3  -5  -8   44.60   11.70
  -3  -5  -8   56.19   11.60
  -3  -5  -8    4.40   16.90
   3   5   8   42.80    7.30
  -3   5  -8   23.50   12.40
   3   5   8   50.09   15.70
   3   5   8   56.09    7.50
  -3   5  -8   40.50   11.60
  -3   5  -8   39.40   12.90
  -5  -5  -8  251.07   21.30
  -5  -5  -8  250.77   20.30
  -5  -5  -8  261.47   27.20
   5  -5   8  249.48   28.10
  -5  -5  -8  277.07   28.20
  -5   5  -8  240.08   30.70
   5   5   8  258.97   31.80
   5   5   8  208.88   21.60
  -5   5  -8  227.98   28.70
  -5   5  -8  234.38   27.90
   5   5   8  273.27   21.00
  -7  -5  -8   17.30   17.20
  -7  -5  -8   10.00    8.30
   7  -5   8   20.30   15.30
   7  -5   8    9.80    9.00
  -7  -5  -8  -12.60   26.30
  -7   5  -8    7.10   17.00
   7   5   8   -7.60    9.90
   7   5   8   13.50    9.40
   7   5   8   11.10   20.10
  -7   5  -8    1.70    9.80
  -9  -5  -8  -10.90   39.10
   9  -5   8  -15.10   12.80
  -9  -5  -8   42.80   24.10
   9   5   8   34.70   15.70
   9   5   8   25.20   13.20
  -9   5  -8  -16.60   23.00
  -9   5  -8  -23.50   23.50
 -11  -5  -8  -38.10   33.20
  11  -5   8   -0.50   19.00
 -11  -5  -8    1.00   57.59
  11   5   8   32.90   18.10
 -11   5  -8   48.10   36.90
  11   5   8   42.40   22.00
 -11   5  -8  -27.30   36.30
 -12  -6   8   90.79   25.20
 -12  -6   8   29.00   45.20
 -12   6   8  -20.10   27.00
  12   6  -8   47.40   23.40
 -12   6   8   14.60   23.00
 -10  -6   8   97.69   19.40
 -10  -6   8  113.59   36.70
 -10   6   8   86.39   18.30
  10   6  -8   91.89   19.50
 -10   6   8   84.99   21.20
  -8  -6   8  102.79   15.70
  -8  -6   8  108.99   27.50
   8  -6  -8   85.59   24.40
   8   6  -8  106.09   16.70
  -8   6   8  138.49   17.30
  -8   6   8  106.69   15.80
  -8   6   8  105.49   23.30
   6  -6  -8   42.80    8.80
  -6  -6   8   73.59   18.00
   6  -6  -8   46.10   17.60
  -6  -6   8   46.60   12.20
  -6  -6   8   56.19    9.40
  -6  -6   8   49.80   11.50
  -6   6   8   48.60   12.50
   6   6  -8   52.39   10.10
   6   6  -8   32.30   18.70
  -6   6   8   52.19   10.30
  -6   6   8   48.50   17.40
  -6   6   8   42.00    9.90
  -4  -6   8   -0.30    5.80
  -4  -6   8    1.10   11.40
   4  -6  -8   -0.90   16.00
   4  -6  -8    0.50    6.60
  -4  -6   8   10.90    7.20
  -4   6   8    4.40    6.40
  -4   6   8    6.70    6.60
   4   6  -8   -8.30    6.30
  -4   6   8   12.70   16.50
   4   6  -8    2.00    6.00
   4   6  -8  -12.80   12.60
  -4   6   8   -0.70    7.10
   2  -6  -8   38.70   18.70
   2  -6  -8   16.70    5.90
  -2  -6   8    4.80    9.90
  -2  -6   8   20.80    6.10
   2  -6  -8   14.80    5.70
  -2  -6   8   27.30   10.00
   2   6  -8   22.50    5.50
  -2   6   8   25.90    6.30
   2   6  -8   32.50   12.30
  -2   6   8   10.90   16.10
   2   6  -8   16.80    5.40
  -2   6   8   17.20    5.70
   0  -6  -8   51.49    7.60
   0  -6   8   58.29   13.20
   0  -6   8   56.09   12.60
   0  -6  -8   59.19    8.30
   0   6   8   68.79    9.20
   0   6  -8   86.09   14.80
   0   6  -8   33.00   12.80
   0   6   8   70.49    8.60
   0   6  -8   44.40   13.20
  -2  -6  -8   93.79   14.10
   2  -6   8   79.29   15.40
  -2  -6  -8   91.19   12.60
  -2  -6  -8   67.09    8.80
  -2  -6  -8   64.29    9.60
  -2   6  -8   71.89   14.10
  -2   6  -8   72.39   14.60
   2   6   8   67.79    9.40
   2   6   8   92.49   19.30
  -2   6  -8   89.09   16.10
   2   6   8   83.69   10.10
  -4  -6  -8   -5.00   10.60
  -4  -6  -8    6.20   18.00
  -4  -6  -8   10.80    6.60
  -4  -6  -8    9.50    6.80
  -4  -6  -8    4.10   11.00
   4  -6   8   13.30   12.10
  -4   6  -8    0.40   12.90
   4   6   8    7.20   15.40
  -4   6  -8   14.80   10.40
   4   6   8   15.70    6.80
   4   6   8   19.90    7.00
  -4   6  -8   -2.40   13.20
  -6  -6  -8    7.70   10.00
  -6  -6  -8   22.50   24.40
   6  -6   8    5.90   14.30
  -6  -6  -8   19.30   15.50
  -6  -6  -8   11.40   17.80
  -6  -6  -8  -10.10    7.60
   6   6   8   -0.90    8.40
   6   6   8  -13.30    7.80
  -6   6  -8  -15.00   18.60
   6   6   8  -10.80   18.80
  -6   6  -8   -2.50   18.70
  -6   6  -8  -10.70   13.40
  -8  -6  -8   40.50   14.00
  -8  -6  -8    9.70   34.20
   8  -6   8   27.10   21.10
  -8  -6  -8   97.19   27.10
   8  -6   8   84.39   13.80
  -8   6  -8   80.29   15.20
   8   6   8   79.49   13.90
   8   6   8   76.39   16.50
  -8   6  -8   63.59   23.40
 -10  -6  -8    1.20   50.99
  10  -6   8    3.00   17.00
 -10  -6  -8   24.10   29.10
  10   6   8   -6.20   18.70
 -10   6  -8   -9.40   30.60
 -10   6  -8   31.00   28.40
  10   6   8   -6.50   15.50
 -12  -6  -8  122.49   72.19
 -12  -6  -8  -71.79   41.10
 -12   6  -8  -39.20   43.90
  12   6   8  -27.70   22.80
  12   6   8   18.60   26.00
 -12   6  -8  -10.50   46.40
 -11  -7   8   51.39   40.80
 -11  -7   8  -13.20   18.70
  11   7  -8   11.90   19.60
 -11   7   8    7.60   20.30
 -11   7   8   37.40   22.30
   9  -7  -8  287.67   42.70
  -9  -7   8  272.87   31.10
  -9  -7   8  307.67   43.30
  -9   7   8  325.07   32.00
   9   7  -8  300.17   31.90
  -9   7   8  260.87   31.20
  -9   7   8  318.67   48.00
   7  -7  -8   92.09   22.70
  -7  -7   8   53.29   16.30
  -7  -7   8   99.89   25.30
  -7  -7   8   89.29   13.90
   7  -7  -8   88.99   13.00
  -7   7   8   99.99   25.00
   7   7  -8   78.79   14.10
  -7   7   8  100.49   14.90
  -7   7   8   88.99   13.70
   5  -7  -8  208.08   33.60
   5  -7  -8  233.58   19.60
  -5  -7   8  204.18   19.90
  -5  -7   8  197.28   21.50
  -5  -7   8  189.88   21.00
  -5  -7   8  198.08   30.10
   5   7  -8  230.08   19.90
  -5   7   8  246.68   31.00
  -5   7   8  224.28   20.10
   5   7  -8  250.37   34.60
  -5   7   8  221.08   20.50
  -5   7   8  216.48   22.20
  -3  -7   8   17.80    6.90
   3  -7  -8   22.70   19.60
  -3  -7   8   37.80   13.80
  -3  -7   8   27.20    6.50
   3  -7  -8   13.30    6.60
   3  -7  -8   14.00    6.50
   3   7  -8   13.20   14.30
  -3   7   8   15.50    6.80
  -3   7   8    0.80   16.10
   3   7  -8   29.90    7.20
  -3   7   8    9.10    6.30
  -1  -7   8  227.58   24.40
  -1  -7   8  247.88   18.40
   1  -7  -8  253.67   40.30
  -1  -7   8  224.58   24.30
   1  -7  -8  223.78   18.80
   1  -7  -8  231.48   18.70
   1   7  -8  264.17   27.10
  -1   7   8  228.28   18.60
   1   7  -8  230.48   18.40
   1   7  -8  206.28   26.70
  -1   7   8  232.28   18.90
   1  -7   8  261.87   25.40
   1  -7   8  232.48   25.80
  -1  -7  -8  241.28   19.70
  -1  -7  -8  253.17   19.50
   1   7   8  244.78   19.70
  -1   7  -8  217.68   27.60
  -1   7  -8  269.07   27.50
   1   7   8  275.67   20.40
  -3  -7  -8  252.27   19.20
  -3  -7  -8  237.38   26.00
   3  -7   8  258.67   26.10
  -3  -7  -8  248.38   19.70
   3   7   8  229.58   19.70
   3   7   8  189.88   24.60
   3   7   8  230.18   34.20
   3   7   8  236.98   19.90
  -3   7  -8  204.08   26.20
  -3   7  -8  189.58   25.50
  -3   7  -8  264.37   30.60
   5  -7   8  533.85   42.80
  -5  -7  -8  473.85   43.00
  -5  -7  -8  530.05   36.70
  -5  -7  -8  495.95   37.50
  -5   7  -8  489.55   46.00
  -5   7  -8  503.15   50.39
   5   7   8  510.55   36.90
   5   7   8  485.75   48.40
   5   7   8  526.55   38.00
  -5   7  -8  473.55   43.00
   5   7   8  405.26   45.10
   7  -7   8   70.99   20.70
  -7  -7  -8  -15.60   29.30
  -7  -7  -8   58.99   20.40
  -7  -7  -8    9.40   11.50
   7   7   8   50.19   13.40
   7   7   8   25.40   27.90
  -7   7  -8   42.00   20.60
   7   7   8   49.30   11.50
  -9  -7  -8   47.30   27.90
  -9  -7  -8   -4.10   43.90
   9  -7   8   48.30   24.50
   9  -7   8   57.29   15.10
   9   7   8   84.39   15.90
  -9   7  -8   79.59   28.60
 -11  -7  -8   72.39   41.30
 -11  -7  -8  -48.30   61.69
 -11   7  -8   40.00   43.50
 -11   7  -8   94.79   39.10
  11   7   8   70.59   22.30
  11   7   8   18.40   24.40
 -12  -8   8   32.40   24.60
 -12  -8   8   59.39   57.69
 -12   8   8   12.20   29.10
  12   8  -8   18.00   24.90
 -12   8   8   -8.60   23.30
  10  -8  -8   87.69   31.10
 -10  -8   8  115.89   40.70
 -10  -8   8  106.99   21.00
  10   8  -8   86.19   22.60
 -10   8   8   92.89   20.50
 -10   8   8  115.09   23.60
  -8  -8   8  282.07   31.40
   8  -8  -8  349.37   43.30
  -8  -8   8  364.26   51.29
  -8   8   8  388.16   53.09
   8   8  -8  333.57   32.50
  -8   8   8  345.27   31.20
  -8   8   8  295.57   30.80
   6  -8  -8  425.86   47.00
  -6  -8   8  414.66   45.10
   6  -8  -8  460.95   34.00
  -6  -8   8  389.46   35.90
  -6  -8   8  487.35   34.40
   6   8  -8  450.25   35.00
  -6   8   8  451.75   34.50
  -6   8   8  461.85   35.60
  -6   8   8  390.86   48.20
   4  -8  -8  194.08   29.60
  -4  -8   8  211.38   26.60
   4  -8  -8  140.49   18.30
   4  -8  -8  188.68   17.40
  -4  -8   8  203.78   19.20
  -4  -8   8  207.88   17.70
  -4  -8   8  186.28   19.50
   4   8  -8  180.68   17.90
  -4   8   8  163.38   17.70
  -4   8   8  200.88   31.80
   4   8  -8  138.89   23.80
  -4   8   8  161.18   17.40
  -2  -8   8 1476.85   93.89
  -2  -8   8 1263.57   97.79
  -2  -8   8 1416.36   97.69
   2  -8  -8 1552.44  105.89
   2  -8  -8 1406.66   93.69
  -2   8   8 1311.77   93.89
   2   8  -8 1407.66   93.49
   2   8  -8 1371.66   99.69
   2   8  -8 1376.06   99.09
   0  -8  -8  146.99   15.40
   0  -8   8  164.88   22.10
   0  -8   8  147.59   21.60
   0  -8  -8  140.39   15.20
   0  -8  -8  206.98   32.00
   0   8  -8  177.68   24.10
   0   8   8  166.98   14.50
   0   8   8  173.38   15.60
   0   8  -8  157.38   22.40
   2  -8   8   -8.50   10.80
  -2  -8  -8    7.40   19.30
  -2  -8  -8   -1.60    6.10
  -2  -8  -8    3.70   12.20
  -2  -8  -8    2.20    6.10
   2  -8   8   -2.40   11.90
   2   8   8   -7.70   11.00
   2   8   8    8.90    6.70
  -2   8  -8    2.70   15.50
   2   8   8   -4.40   20.00
  -2   8  -8  -10.60   12.30
  -4  -8  -8  352.66   26.60
  -4  -8  -8  349.47   34.40
  -4  -8  -8  289.87   26.30
   4  -8   8  376.76   34.10
   4   8   8  367.06   34.80
  -4   8  -8  322.77   34.10
  -4   8  -8  314.57   38.60
  -4   8  -8  361.86   36.70
   4   8   8  279.57   40.80
   4   8   8  340.37   27.10
   4   8   8  334.47   27.20
   6  -8   8  348.37   38.10
  -6  -8  -8  333.27   39.50
  -6  -8  -8  372.96   29.90
   6   8   8  310.37   29.40
   6   8   8  338.77   29.70
  -6   8  -8  421.66   39.20
   6   8   8  305.87   47.70
  -8  -8  -8  210.48   35.20
   8  -8   8  245.88   33.40
  -8   8  -8  213.18   33.90
   8   8   8  180.68   23.00
   8   8   8  188.88   25.50
 -10  -8  -8   26.50   53.29
 -10  -8  -8  150.88   39.00
  10   8   8  196.58   27.40
  10   8   8  145.09   22.40
 -10   8  -8  167.28   38.30
 -10   8  -8  170.88   41.60
 -12  -8  -8  286.77   54.39
  12   8   8  236.58   33.00
  12   8   8  231.78   36.90
 -12   8  -8  369.46   38.30
 -12   8  -8  277.87   61.39
 -12   8  -8  304.27   59.79
 -11  -9   8  218.68   32.40
 -11  -9   8  312.97   64.79
 -11   9   8  274.57   32.80
 -11   9   8  276.87   36.20
  11   9  -8  302.57   35.00
   9  -9  -8  228.48   37.80
  -9  -9   8  256.37   43.80
  -9  -9   8  225.98   28.00
   9   9  -8  200.98   27.60
  -9   9   8  232.58   31.50
  -9   9   8  233.08   30.50
  -7  -9   8  128.79   16.30
   7  -9  -8  109.69   25.10
  -7  -9   8   88.79   26.80
  -7   9   8   95.49   16.00
  -7   9   8  100.99   33.50
   7   9  -8   89.99   16.60
  -7   9   8   85.99   14.80
   5  -9  -8  -23.00   21.10
  -5  -9   8   10.50   18.80
  -5  -9   8    1.20   12.60
  -5  -9   8   19.00   10.40
  -5  -9   8    5.10    8.70
  -5   9   8  -27.20   24.70
   5   9  -8   -8.90    8.80
  -5   9   8   -0.20    8.80
  -3  -9   8  365.06   32.20
  -3  -9   8  366.86   27.30
  -3  -9   8  359.66   35.30
   3  -9  -8  316.87   26.50
   3  -9  -8  309.77   43.70
  -3   9   8  303.77   25.90
   3   9  -8  256.77   36.70
   3   9  -8  357.46   26.20
  -3   9   8  276.17   38.90
   3   9  -8  280.17   34.30
  -1  -9   8  224.68   28.50
  -1  -9   8  318.37   22.20
   1  -9  -8  262.97   22.50
  -1  -9   8  284.97   29.00
   1  -9  -8  247.48   41.90
  -1   9   8  254.77   22.40
   1   9  -8  298.67   22.00
   1   9  -8  284.17   31.40
   1   9  -8  259.97   33.00
  -1  -9  -8 1016.60   79.99
   1  -9   8  930.81   68.79
   1  -9   8  897.51   69.59
  -1  -9  -8  883.41   62.69
  -1  -9  -8  929.11   63.19
  -1   9  -8  957.40   69.59
  -1   9  -8  887.81   71.29
   1   9   8  883.51   62.89
   1   9   8  940.11   63.69
  -3  -9  -8 1313.07   95.09
  -3  -9  -8 1325.67   90.49
   3  -9   8 1379.36   95.79
  -3  -9  -8 1292.77   90.19
   3  -9   8 1386.06   98.19
   3   9   8 1359.46   91.29
  -3   9  -8 1338.17  100.79
   3   9   8 1321.27   90.59
   3   9   8 1316.77   93.09
  -3   9  -8 1363.36   96.49
   5  -9   8 1275.07   84.49
  -5  -9  -8 1105.29   77.69
  -5  -9  -8 1220.38   83.99
  -5  -9  -8 1048.90   77.49
   5   9   8 1016.80   84.49
  -5   9  -8 1089.79   84.99
   5   9   8 1125.19   77.79
  -5   9  -8 1148.49   87.49
   5   9   8 1145.29   77.99
   5   9   8 1071.39   91.79
   7  -9   8  678.03   54.29
  -7  -9  -8  470.85   54.09
   7   9   8  573.54   44.40
  -7   9  -8  528.45   54.79
  -9  -9  -8  371.66   50.89
   9  -9   8  270.97   40.50
  -9   9  -8  290.27   44.80
   9   9   8  290.77   32.20
   9   9   8  209.78   31.80
 -11  -9  -8  -22.50   41.60
 -11  -9  -8   57.29   67.09
 -11   9  -8  -18.30   48.10
  11   9   8   27.10   25.80
 -11   9  -8   16.10   39.30
  11   9   8   28.80   21.90
  10 -10  -8  430.86   58.69
 -10 -10   8  407.56   59.39
 -10 -10   8  391.46   42.20
 -10  10   8  344.67   43.80
 -10  10   8  363.26   40.50
  10  10  -8  287.97   42.00
  -8 -10   8 1087.29   72.49
  -8 -10   8  983.80   86.19
   8 -10  -8  978.60   83.99
  -8  10   8 1011.30   71.29
   8  10  -8  920.81   72.69
  -8  10   8  947.61   72.49
  -6 -10   8  514.35   43.50
  -6 -10   8  529.55   40.90
  -6 -10   8  450.05   53.99
   6 -10  -8  592.64   56.89
   6  10  -8  556.54   42.30
  -6  10   8  546.65   63.19
  -6  10   8  530.05   42.50
  -4 -10   8 3157.68  222.48
   4 -10  -8 3347.47  226.28
  -4 -10   8 3374.26  217.38
   4  10  -8 3285.47  216.78
  -4  10   8 3242.58  228.48
  -4  10   8 3222.58  216.88
  -2 -10   8  580.04   39.50
   2 -10  -8  492.25   39.50
  -2 -10   8  568.64   46.50
  -2 -10   8  524.85   46.80
   2 -10  -8  608.24   56.99
   2  10  -8  565.74   39.20
   2  10  -8  487.05   50.29
  -2  10   8  486.25   39.20
   0 -10  -8  413.86   32.10
   0 -10   8  413.56   38.80
   0 -10  -8  420.56   52.59
   0 -10   8  457.85   40.50
   0  10  -8  430.86   45.90
   0  10   8  398.96   32.30
   0  10  -8  439.06   43.10
   2 -10   8  162.98   24.50
  -2 -10  -8  203.48   28.20
  -2 -10  -8  144.79   17.40
  -2 -10  -8  204.98   37.40
  -2 -10  -8  128.69   15.80
   2 -10   8  164.08   23.40
   2  10   8  166.48   18.90
   2  10   8  146.19   16.90
  -2  10  -8  150.68   28.10
   2  10   8  138.19   15.90
  -2  10  -8  177.78   27.00
  -4 -10  -8   49.20   31.70
  -4 -10  -8   37.00   19.00
   4 -10   8   37.30   18.00
  -4 -10  -8   15.40    9.90
  -4 -10  -8   19.30   10.70
   4 -10   8   58.49   19.00
   4  10   8  -12.80   32.00
   4  10   8   29.10   16.80
   4  10   8   26.90   10.10
   4  10   8   18.50    9.10
  -4  10  -8   44.40   22.90
   6 -10   8   22.30   18.90
  -6 -10  -8   29.90   23.90
  -6 -10  -8  -39.40   31.20
  -6  10  -8    2.10   21.90
   6  10   8   15.60   12.50
   6  10   8   -8.50   11.90
   8 -10   8  760.82   65.39
  -8 -10  -8  681.93   69.19
  -8  10  -8  662.83   68.69
   8  10   8  662.33   55.89
   8  10   8  699.13   53.69
  10 -10   8  772.42   73.59
 -10 -10  -8  579.84   80.29
  10  10   8  690.23   57.49
  10  10   8  644.94   61.69
 -10  10  -8  706.83   78.79
  11 -11  -8  491.65   75.09
 -11 -11   8  465.55   66.99
 -11 -11   8  480.15   50.49
  11  11  -8  387.16   54.19
 -11  11   8  446.76   52.29
 -11  11   8  509.15   51.79
   9 -11  -8  268.67   44.40
  -9 -11   8  237.18   48.50
  -9 -11   8  307.37   35.30
   9  11  -8  308.07   38.10
  -9  11   8  253.37   35.70
   7 -11  -8   80.39   30.20
  -7 -11   8   82.29   32.40
  -7 -11   8  103.49   17.60
   7  11  -8   84.99   17.70
  -7  11   8   83.59   17.70
  -5 -11   8  -15.00   21.00
   5 -11  -8   42.20   27.00
  -5  11   8    9.60   11.00
   5  11  -8   24.00   12.50
  -3 -11   8  965.50   67.69
  -3 -11   8  963.90   73.89
  -3 -11   8  891.51   74.89
   3 -11  -8  938.31   82.59
  -3  11   8  935.31   67.49
   3  11  -8 1043.40   67.49
  -1 -11   8  127.39   22.30
  -1 -11   8  131.39   22.80
   1 -11  -8  199.88   39.00
  -1 -11   8  149.69   16.20
   1 -11  -8  112.69   15.00
   1  11  -8  118.79   26.20
  -1  11   8  111.29   15.80
   1  11  -8  128.59   15.80
   1  11  -8   90.19   25.00
   1 -11   8  664.83   52.59
  -1 -11  -8  528.55   68.19
   1 -11   8  659.23   54.59
  -1 -11  -8  583.24   45.40
  -1  11  -8  573.54   60.79
  -1  11  -8  648.94   56.89
   1  11   8  633.24   45.70
  -3 -11  -8  939.41   67.59
   3 -11   8  862.01   68.59
   3 -11   8  927.21   67.29
  -3 -11  -8  707.03   58.09
  -3 -11  -8  711.13   86.59
   3  11   8  948.81   60.59
   3  11   8  841.12   63.89
   3  11   8  735.83   58.59
  -3  11  -8  902.31   71.79
  -5 -11  -8  921.31   72.19
   5 -11   8  931.21   72.19
  -5  11  -8  941.21   73.69
   5  11   8  874.11   64.79
   5  11   8  828.52   63.49
  -7 -11  -8  848.02   75.89
   7 -11   8 1004.80   74.39
   7  11   8  803.92   65.19
   7  11   8  817.42   65.69
  -7  11  -8  949.11   78.39
   9 -11   8  394.16   52.89
  -9 -11  -8  302.17   49.50
   9  11   8  328.27   39.90
  -9  11  -8  360.96   52.39
   9  11   8  387.76   44.00
 -11 -11  -8  -18.60   71.89
  11  11   8  -54.39   29.90
 -10 -12   8  181.58   27.60
  10 -12  -8  177.08   43.90
 -10 -12   8  115.09   52.49
  10  12  -8  163.18   30.40
 -10  12   8  152.38   29.30
  -8 -12   8  547.85   75.39
   8 -12  -8  603.54   67.09
  -8 -12   8  594.54   49.40
   8  12  -8  582.34   52.09
  -8  12   8  607.24   50.89
  -6 -12   8 1609.34  118.79
   6 -12  -8 1565.84  120.19
  -6  12   8 1535.95  106.09
   6  12  -8 1434.36  106.29
  -4 -12   8  610.74   54.09
  -4 -12   8  464.65   55.09
   4 -12  -8  630.34   63.89
   4  12  -8  440.26   57.99
  -4  12   8  500.75   42.50
   4  12  -8  590.24   43.00
   2 -12  -8  718.73   70.99
  -2 -12   8  681.13   57.39
  -2 -12   8  580.44   53.39
  -2 -12   8  585.34   45.20
   2  12  -8  667.93   45.00
   2  12  -8  434.26   62.19
  -2  12   8  560.44   45.00
   0 -12  -8  316.67   53.49
   0 -12   8  281.17   36.20
   0 -12   8  247.28   24.70
   0 -12   8  306.07   35.80
   0  12   8  329.17   27.10
   0  12  -8  294.97   52.19
   0  12  -8  288.97   25.90
   2 -12   8   39.10   21.70
   2 -12   8   84.09   20.90
  -2 -12  -8   44.90   24.30
  -2 -12  -8   27.90   39.00
   2  12   8   59.39   12.20
   2  12   8   71.39   16.30
   4 -12   8  155.68   28.00
  -4 -12  -8  125.59   29.20
  -4 -12  -8  115.59   16.50
   4 -12   8  151.28   28.80
  -4 -12  -8   72.99   48.00
   4  12   8  153.58   19.00
   4  12   8  139.29   26.60
   4  12   8  139.39   16.80
  -6 -12  -8  219.18   33.80
   6 -12   8  207.18   34.90
  -6 -12  -8  123.89   53.69
   6  12   8  210.38   24.50
   6  12   8  168.98   23.70
  -6  12  -8  227.98   36.10
  -8 -12  -8   60.59   59.79
  -8 -12  -8  185.78   37.50
   8 -12   8  174.78   35.20
   8  12   8  147.29   23.80
   8  12   8  136.19   25.30
  -8  12  -8  179.48   37.00
 -10 -12  -8  317.07   51.69
  10 -12   8  302.97   49.90
  10  12   8  249.38   33.10
 -10  12  -8  302.77   51.49
  10  12   8  292.77   38.60
  -9 -13   8  275.47   59.69
  -9 -13   8  343.97   41.50
   9 -13  -8  394.76   56.29
   9  13  -8  339.87   46.40
  -9  13   8  434.46   44.40
  -7 -13   8   50.09   32.80
   7 -13  -8   34.10   31.60
  -7 -13   8   -3.40   17.50
   7  13  -8   -2.80   18.60
  -7  13   8   16.70   16.60
  -5 -13   8  101.49   32.30
   5 -13  -8  173.48   38.70
  -5  13   8  120.09   19.50
   5  13  -8  110.09   19.00
  -3 -13   8    4.00   23.40
   3 -13  -8   35.50   30.50
  -3 -13   8   37.70   22.40
   3  13  -8   19.50   12.00
  -3  13   8   11.00   12.10
   3  13  -8  -55.59   30.20
   1 -13  -8  592.24   70.69
  -1 -13   8  639.04   45.00
  -1 -13   8  648.04   57.39
  -1 -13   8  571.94   54.29
   1  13  -8  629.34   44.80
  -1  13   8  555.44   45.30
   1  13  -8  396.66   72.99
   1 -13   8 1171.18   81.39
   1 -13   8 1090.59   90.29
   1 -13   8 1159.08   93.19
  -1  13  -8 1275.17   82.19
   1  13   8 1213.68   83.19
   3 -13   8  516.65   50.89
  -3 -13  -8  446.56   69.09
  -3 -13  -8  395.16   53.79
   3 -13   8  464.35   50.49
   3  13   8  519.55   46.80
   3  13   8  392.16   38.30
   3  13   8  433.96   35.70
   5 -13   8 1525.75  111.39
  -5 -13  -8 1365.46  107.89
   5 -13   8 1502.35  105.99
   5  13   8 1269.47   96.99
   5  13   8 1351.76   98.49
   7 -13   8  227.78   38.40
  -7 -13  -8  154.78   41.20
  -7 -13  -8   95.69   56.69
   7  13   8  236.88   31.50
   7  13   8  152.78   25.80
  -7  13  -8  157.48   40.70
  -9 -13  -8   -0.90   64.69
  -9 -13  -8   86.49   42.60
   9 -13   8  162.18   40.30
   9  13   8  147.19   28.40
   9  13   8   94.79   23.80
  -9  13  -8  144.29   41.50
  -8 -14   8  463.35   58.79
  -8 -14   8  320.07   44.30
   8 -14  -8  401.26   68.09
   8  14  -8  382.26   48.10
  -8  14   8  522.55   45.80
   6 -14  -8  172.48   44.80
  -6 -14   8  235.68   42.70
   6  14  -8  265.97   32.60
  -6  14   8  216.38   26.90
   4 -14  -8  478.55   59.79
  -4 -14   8  372.26   52.49
  -4 -14   8  411.96   54.39
   4  14  -8  313.57   36.40
  -4  14   8  353.96   35.60
   2 -14  -8  421.36   64.59
  -2 -14   8  300.07   46.20
  -2 -14   8  338.57   46.30
   2  14  -8  337.27   33.60
  -2  14   8  340.07   32.50
   0 -14   8  274.37   28.80
   0 -14  -8  453.65   73.89
   0 -14   8  208.28   36.20
   0 -14   8  290.77   43.60
   0  14   8  364.76   31.50
   0  14  -8  317.27   31.70
  -2 -14  -8   49.10   49.50
   2 -14   8  139.49   29.60
  -2 -14  -8  134.39   31.50
   2 -14   8  169.68   34.00
   2  14   8  173.48   24.50
  -2  14  -8  147.29   18.30
   2  14   8  154.38   20.00
   4 -14   8   43.00   25.60
  -4 -14  -8  -55.39   54.39
   4 -14   8    8.90   24.80
  -4 -14  -8   43.70   31.20
   4  14   8    0.60   15.00
   6 -14   8   43.00   30.20
  -6 -14  -8   50.89   70.09
  -6 -14  -8   87.09   34.90
  -6  14  -8   65.99   29.80
   6  14   8   45.60   19.20
   6  14   8   78.79   20.10
  -8 -14  -8   -1.30   82.69
   8 -14   8  216.28   37.50
  -8 -14  -8   68.69   44.90
   8  14   8   78.79   24.50
   8  14   8  101.09   27.10
  -8  14  -8  118.09   40.90
   9 -15  -8   60.19   44.90
  -9 -15   8   73.29   28.60
  -9 -15   8   84.29   74.49
  -9  15   8   55.99   27.10
   9  15  -8   44.50   29.50
   7 -15  -8   55.09   38.60
  -7 -15   8    1.90   39.20
   7  15  -8  -10.50   23.40
  -7  15   8  -22.10   20.50
   5 -15  -8  102.19   41.10
  -5 -15   8   81.19   36.10
  -5 -15   8   43.40   35.00
  -5  15   8   23.30   18.30
   5  15  -8   78.89   19.50
  -3 -15   8  151.68   33.90
  -3 -15   8  149.69   36.20
   3 -15  -8  179.08   45.40
  -3  15   8  103.69   19.50
   3  15  -8  235.58   29.90
   1 -15  -8    4.50   41.50
  -1 -15   8   -5.20   25.30
  -1 -15   8   35.90   28.40
  -1  15   8   -0.40   14.00
   1  15  -8   12.80   14.20
  -1 -15  -8  160.88   51.29
   1 -15   8  123.09   33.40
   1 -15   8  202.78   34.10
  -1  15  -8  162.38   21.20
   1  15   8  160.98   21.80
  -3 -15  -8  403.96   57.19
   3 -15   8  296.17   42.50
   3 -15   8  311.77   50.99
  -3 -15  -8  293.67   63.69
   3  15   8  286.57   33.70
  -5 -15  -8   82.99   63.59
   5 -15   8   70.19   32.80
  -5 -15  -8   58.09   38.40
   5 -15   8    9.80   30.40
   5  15   8   22.80   19.00
   7 -15   8  160.58   37.60
  -7 -15  -8  140.39   78.79
  -7 -15  -8  155.78   47.90
  -7  15  -8  166.08   44.10
   7  15   8  161.98   27.20
   7  15   8  133.79   29.80
  -8 -16   8   77.39   49.00
   8 -16  -8   -2.40   44.70
  -8  16   8   13.90   24.50
   8  16  -8   22.40   29.80
  -6 -16   8   27.30   42.10
  -6 -16   8   62.29   42.30
   6 -16  -8   41.90   41.50
  -6  16   8   64.69   23.40
   6  16  -8   70.49   25.70
   4 -16  -8   76.79   44.90
  -4 -16   8   48.90   37.80
  -4 -16   8   94.69   35.70
  -4  16   8   32.50   19.30
   4  16  -8   79.99   20.00
  -2 -16   8   10.60   32.70
  -2 -16   8   25.90   32.10
   2 -16  -8   86.19   42.20
  -2  16   8   43.50   17.20
   2  16  -8   52.29   19.40
   0 -16   8   51.99   32.50
   0 -16  -8  151.98   50.99
   0 -16   8   91.19   32.00
   0  16   8   99.49   18.30
   0  16  -8   71.19   19.10
   2 -16   8   45.40   30.40
   2 -16   8   30.20   31.60
  -2 -16  -8   65.39   32.70
  -2 -16  -8    2.70   56.49
  -2  16  -8   18.10   15.70
   2  16   8   51.29   18.40
   4 -16   8   86.69   34.80
   4 -16   8   99.59   33.40
  -4 -16  -8  -53.39   70.29
  -4 -16  -8   14.10   36.90
   4  16   8   86.99   21.30
   6 -16   8   40.20   34.30
  -6 -16  -8   -9.90   43.00
  -6 -16  -8   -0.50   83.19
   6 -16   8  -15.20   35.80
   6  16   8  -10.10   26.30
   6  16   8   24.20   22.80
  -8 -16  -8   91.29  104.09
  -7 -17   8  -79.29   49.80
   7 -17  -8   33.20   47.20
  -7  17   8  -26.60   24.80
   7  17  -8   14.80   29.50
  -5 -17   8   77.19   46.00
   5 -17  -8   41.20   48.60
  -5 -17   8   57.09   39.90
   5  17  -8   54.69   25.70
  -5  17   8   36.40   22.60
  -3 -17   8   -6.10   35.60
  -3 -17   8   72.29   38.50
   3 -17  -8   15.60   46.20
   3  17  -8   39.30   21.10
  -3  17   8    2.10   18.80
   1 -17  -8   18.10   45.80
  -1 -17   8    0.80   32.00
  -1 -17   8   12.10   32.40
  -1  17   8   -9.70   17.50
   1  17  -8   23.20   18.60
  -1 -17  -8   58.89   59.09
   1 -17   8   24.40   33.30
   1 -17   8   28.80   33.60
  -1  17  -8   30.30   18.50
   1  17   8   -3.20   18.50
  -3 -17  -8  108.69   39.60
   3 -17   8    7.80   36.40
   3 -17   8   95.29   37.80
  -3 -17  -8    1.80   61.49
   3  17   8   42.50   19.30
  -3  17  -8   86.99   24.90
  -5 -17  -8  138.49   84.19
  -5 -17  -8    4.80   42.00
   5 -17   8   51.69   37.00
   5 -17   8   60.09   38.30
   5  17   8   37.20   22.80
  -7 -17  -8   94.19  113.59
   7 -17   8   -0.10   38.80
  -6 -18   8   34.20   48.10
   6 -18  -8  132.49   50.99
   6  18  -8  108.29   32.90
  -6  18   8  100.29   28.20
  -4 -18   8  169.78   49.30
  -4 -18   8  104.69   50.99
   4 -18  -8  169.88   57.89
  -4  18   8  150.48   27.40
   4  18  -8  139.99   31.50
   2 -18  -8   59.09   53.39
  -2 -18   8   -3.50   42.50
  -2 -18   8    1.70   39.20
  -2  18   8   32.40   22.40
   2  18  -8   80.99   24.80
   0 -18  -8   36.90   53.19
   0 -18   8   98.69   41.80
   0 -18   8  134.99   41.90
   0  18   8   99.39   23.80
   0  18  -8  119.39   31.10
   2 -18   8   35.30   38.60
  -2 -18  -8    3.50   68.69
   2 -18   8  -38.50   37.20
  -2 -18  -8   79.99   44.70
  -2  18  -8    7.70   26.50
   2  18   8    1.10   22.70
   4 -18   8   38.20   41.20
  -4 -18  -8   -3.80   43.50
   4 -18   8   63.59   39.10
  -4 -18  -8   -8.00   87.39
   4  18   8   18.30   23.60
  -6 -18  -8  -44.40  105.19
  -3 -19   8  176.18   55.29
  -3 -19   8  242.68   53.69
   3 -19  -8  145.79   61.99
   3  19  -8  202.98   34.30
  -3  19   8  147.89   30.70
  -1 -19   8   37.70   46.50
  -1 -19   8   53.09   43.90
   1 -19  -8  -36.40   54.69
  -1  19   8   17.50   23.10
   1  19  -8   64.89   30.70
   1 -19   8  182.68   51.29
   1 -19   8  144.49   49.20
  -1 -19  -8   67.79   67.89
  -1  19  -8  200.78   38.00
   1  19   8  154.18   28.10
   3 -19   8  449.16   58.79
   3 -19   8  320.97   59.19
  -3 -19  -8  323.07   85.99
  -3 -19  -8  225.48   60.09
  -3  19  -8  359.96   39.90
   3  19   8  366.96   41.00
   2 -20  -8  176.88   92.99
  -2 -20   8  251.37   61.59
   0 -20   8   94.39   48.90
   0 -20  -8   73.39   68.09
   0 -20   8   69.39   53.19
   0  20   8   55.39   28.00
   0  20  -8   85.39   33.30
  -2 -20  -8   58.09   79.39
   2 -20   8   90.69   53.19
 -12   0   9   -8.40   38.00
  12   0  -9   -3.90   20.40
 -12   0   9   22.40   23.40
 -10   0   9   14.00   15.60
 -10   0   9   -2.30   23.20
  10   0  -9  -10.20   14.90
  -8   0   9    7.70   16.90
   8   0  -9   13.10   10.60
  -8   0   9    1.40    9.90
   8   0  -9   21.30   19.80
   6   0  -9   -9.20   13.90
  -6   0   9   -0.50   11.70
  -6   0   9    1.10    8.00
   6   0  -9   -3.50    7.50
   6   0  -9   -0.70    7.30
  -6   0   9   -4.20    6.90
  -4   0   9    2.50    8.90
  -4   0   9    9.90    6.30
  -4   0   9   -0.40    5.60
   4   0  -9   -5.50    5.30
   4   0  -9    3.40    8.70
   4   0  -9   -9.80    4.80
   2   0  -9   -0.40    6.40
  -2   0   9   -2.40    4.40
   2   0  -9    4.00    4.20
   2   0  -9    2.60    4.70
  -2   0   9   -2.60    4.30
   0   0   9    1.60    6.90
   0   0   9    2.30    3.80
   0   0   9    7.50    7.10
   0   0  -9    6.30    6.50
   0   0  -9   -7.70    9.00
   0   0  -9   -1.50    4.70
   2   0   9   -7.40    8.80
  -2   0  -9    1.10    8.20
   2   0   9    4.10    4.50
   2   0   9    4.10    7.50
  -2   0  -9    0.70    9.70
  -2   0  -9   -3.40    4.40
   4   0   9   -2.50    5.50
  -4   0  -9    1.50   12.40
  -4   0  -9   -0.50    5.30
   4   0   9   -5.80    8.40
  -4   0  -9   -1.60    9.40
   4   0   9    0.20   12.20
  -6   0  -9   -4.20   14.90
   6   0   9   -0.40   15.70
   6   0   9   -5.30    7.70
  -6   0  -9    6.10    8.10
  -6   0  -9   -3.10   15.60
  -6   0  -9   23.10   15.60
  -8   0  -9   19.80   22.60
  -8   0  -9   22.00   20.70
   8   0   9  -10.10   11.00
  10   0   9  -16.10   15.80
 -10   0  -9  -16.00   33.20
 -10   0  -9   11.20   28.40
  12   0   9   30.30   23.70
 -12   0  -9   -6.80   50.49
 -12   0  -9   52.69   39.20
 -13  -1   9  155.98   32.90
  13  -1  -9   82.49   27.40
 -13  -1   9  120.99   47.60
 -13   1   9   33.30   41.80
  13   1  -9   84.09   27.10
 -13   1   9  173.18   31.70
 -11  -1   9   -7.70   17.80
  11  -1  -9   -6.90   18.50
 -11  -1   9  -15.20   31.40
 -11   1   9    8.80   19.00
 -11   1   9   16.00   26.60
  11   1  -9  -12.70   16.30
   9  -1  -9   46.10   15.00
  -9  -1   9   59.79   14.30
   9  -1  -9   21.50   25.00
  -9  -1   9   32.60   21.00
   9   1  -9   30.20   28.90
  -9   1   9   53.99   20.70
   9   1  -9   44.10   14.70
  -9   1   9   69.79   15.70
  -7  -1   9   28.60   15.50
  -7  -1   9   10.50   11.10
   7  -1  -9    6.20    9.00
   7  -1  -9  -11.80    9.40
   7  -1  -9   -9.90   14.60
  -7  -1   9    5.50    9.20
  -7   1   9    0.10   14.10
   7   1  -9   -8.00    8.70
   7   1  -9   -8.20   16.20
  -7   1   9    7.10   11.20
  -7   1   9   16.30    8.80
  -5  -1   9  319.47   25.20
   5  -1  -9  345.87   25.10
  -5  -1   9  348.67   29.30
   5  -1  -9  288.37   24.70
  -5  -1   9  288.57   24.80
   5   1  -9  304.47   24.50
  -5   1   9  319.27   24.70
  -5   1   9  310.37   25.50
   5   1  -9  315.77   29.00
   5   1  -9  298.87   24.70
  -3  -1   9   81.89   10.60
  -3  -1   9   85.29   10.70
  -3  -1   9   92.19   13.70
   3  -1  -9   94.59   10.30
   3  -1  -9   92.19   10.60
  -3   1   9  103.09   11.10
   3   1  -9  113.99   10.60
  -3   1   9   79.29   10.20
   3   1  -9   81.49   10.30
   1  -1  -9  363.16   26.20
  -1  -1   9  345.47   28.40
  -1  -1   9  360.96   27.90
  -1  -1   9  345.17   26.00
   1   1  -9  366.16   30.90
  -1   1   9  386.26   25.30
   1   1  -9  329.77   25.80
  -1   1   9  372.06   26.20
  -1   1   9  392.26   29.70
   1   1  -9  317.07   27.40
  -1  -1  -9  649.04   50.29
  -1  -1  -9  596.74   45.10
   1  -1   9  640.14   47.40
   1  -1   9  636.74   43.70
  -1  -1  -9  709.73   44.10
   1  -1   9  565.04   45.80
   1   1   9  673.53   44.00
  -1   1  -9  682.83   43.90
   1   1   9  617.24   45.60
  -1   1  -9  615.54   46.20
   1   1   9  620.04   48.00
  -1   1  -9  625.04   48.40
   3  -1   9   35.80   12.80
   3  -1   9   31.80    6.90
  -3  -1  -9   42.70   14.20
  -3  -1  -9   41.70   10.40
   3  -1   9   40.00   10.20
  -3  -1  -9   42.50    6.80
   3   1   9   35.20    6.90
  -3   1  -9   32.30    9.80
  -3   1  -9   25.80   11.20
  -3   1  -9   54.99    7.70
   3   1   9   42.10   11.60
   3   1   9   30.20    9.30
  -5  -1  -9  124.59   17.80
  -5  -1  -9  104.39   13.40
   5  -1   9   93.49   16.60
   5  -1   9  152.88   21.00
  -5  -1  -9  115.49   20.80
   5  -1   9  106.59   13.80
  -5  -1  -9  119.19   19.10
  -5   1  -9   91.79   17.00
   5   1   9  101.79   13.10
  -5   1  -9   86.29   19.40
  -5   1  -9  112.69   13.50
   5   1   9  112.09   19.30
   7  -1   9   57.99   11.90
  -7  -1  -9   58.59   21.50
  -7  -1  -9   77.29   25.00
  -7  -1  -9   61.79   13.80
   7  -1   9   91.29   26.90
  -7  -1  -9   74.09   20.00
  -7   1  -9   65.79   20.40
  -7   1  -9   43.30   22.20
  -7   1  -9   69.49   12.70
   7   1   9   64.09   11.80
  -7   1  -9   95.59   24.50
   7   1   9   70.99   24.10
  -9  -1  -9   14.50   28.90
  -9  -1  -9   -5.40   23.70
   9  -1   9   26.20   14.10
  -9   1  -9   -4.40   22.50
  -9   1  -9   -3.10   27.20
   9   1   9    2.50   13.60
  11  -1   9  -15.00   18.90
 -11  -1  -9  -59.39   41.90
 -11  -1  -9   -7.40   35.40
 -11   1  -9   17.30   31.30
  11   1   9    8.50   19.90
 -11   1  -9   41.10   39.20
 -12  -2   9  157.78   26.70
 -12  -2   9  192.78   43.40
  12   2  -9  141.89   26.30
 -12   2   9  184.58   28.70
 -12   2   9  152.98   29.70
 -12   2   9  213.38   39.90
  10  -2  -9  131.49   20.90
 -10  -2   9  114.59   19.10
 -10  -2   9  118.99   29.80
 -10   2   9   92.69   30.50
  10   2  -9  137.69   20.40
 -10   2   9  111.19   20.20
 -10   2   9   65.09   24.30
  -8  -2   9  198.78   26.20
   8  -2  -9  162.98   20.60
   8  -2  -9  149.09   22.50
  -8  -2   9  169.58   20.70
  -8   2   9  145.89   19.20
   8   2  -9  148.59   26.70
  -8   2   9  162.28   22.90
   8   2  -9  173.78   21.20
  -6  -2   9 1066.29   72.79
  -6  -2   9  986.60   69.09
   6  -2  -9  970.90   69.19
  -6  -2   9 1027.50   69.19
   6  -2  -9  988.00   68.69
   6   2  -9  955.50   68.79
  -6   2   9 1133.09   69.49
   6   2  -9  877.11   68.69
   6   2  -9 1047.60   72.99
  -6   2   9  933.51   69.29
   4  -2  -9   16.10    6.10
  -4  -2   9   13.80    9.70
  -4  -2   9   19.90    6.30
  -4  -2   9   18.50    6.20
   4   2  -9   10.30    5.90
   4   2  -9   23.40    6.40
  -4   2   9    8.50    6.10
  -4   2   9   26.60    6.60
  -4   2   9   11.90    6.40
  -2  -2   9  217.08   18.40
  -2  -2   9  226.48   17.90
  -2  -2   9  220.68   22.40
  -2   2   9  287.37   18.90
  -2   2   9  233.88   18.30
   2   2  -9  181.48   21.20
   2   2  -9  234.68   18.60
  -2   2   9  258.27   18.00
   2   2  -9  228.28   17.90
   0  -2   9  257.57   22.40
   0  -2   9  243.48   22.40
   0  -2   9  254.97   18.90
   0  -2  -9  237.08   19.40
   0   2  -9  252.47   23.80
   0   2  -9  227.88   22.00
   0   2   9  246.48   24.60
   0   2   9  247.98   19.30
   0   2  -9  285.37   19.30
   2  -2   9  897.81   59.59
   2  -2   9  899.61   62.49
   2  -2   9  900.31   63.79
  -2  -2  -9  853.61   59.69
  -2  -2  -9  922.11   68.09
  -2  -2  -9  816.82   61.09
  -2   2  -9  771.62   61.99
   2   2   9  875.91   65.09
   2   2   9  850.91   59.89
  -2   2  -9  981.90   59.69
  -2   2  -9  870.91   63.99
   2   2   9  916.31   61.79
  -4  -2  -9  -11.60   13.50
   4  -2   9    7.40   13.30
  -4  -2  -9   -3.50    5.50
   4  -2   9    3.40    9.80
  -4  -2  -9    3.40    9.90
  -4  -2  -9   -5.30   13.70
   4  -2   9   13.80    6.10
  -4   2  -9   13.10   10.80
  -4   2  -9   11.90    5.90
  -4   2  -9    1.20   10.40
   4   2   9    2.60   10.80
   4   2   9    6.90    6.30
  -6  -2  -9   57.59   17.90
  -6  -2  -9   36.30   21.10
  -6  -2  -9   53.29   16.20
   6  -2   9   55.09    9.80
   6  -2   9   29.50   18.80
   6  -2   9   41.70   14.40
  -6  -2  -9   51.29   10.10
  -6   2  -9   39.60    8.90
   6   2   9   40.80   18.30
   6   2   9   37.30    9.40
  -6   2  -9   34.80   16.00
  -6   2  -9   54.79   17.40
  -8  -2  -9  241.88   37.20
   8  -2   9  238.88   25.60
  -8  -2  -9  254.87   45.50
  -8   2  -9  240.08   43.10
   8   2   9  248.48   27.20
  -8   2  -9  348.07   39.60
 -10  -2  -9  306.27   44.30
  10  -2   9  281.17   32.30
 -10  -2  -9  257.07   49.10
 -10   2  -9  215.18   39.20
  10   2   9  269.77   33.90
 -10   2  -9  282.77   44.30
  12  -2   9  302.87   36.10
 -12  -2  -9  230.18   73.29
 -12  -2  -9  334.97   55.19
 -12   2  -9  320.57   49.99
  12   2   9  345.87   43.20
 -12   2  -9  256.37   59.89
 -13  -3   9  108.19   49.90
 -13  -3   9  117.99   30.10
 -13   3   9  184.88   43.70
 -13   3   9  147.59   33.50
 -13   3   9  154.48   32.80
  13   3  -9  177.98   31.10
 -11  -3   9   47.90   18.90
 -11  -3   9   59.29   35.00
 -11   3   9   66.59   21.40
 -11   3   9   89.89   23.50
 -11   3   9   53.89   28.10
  11   3  -9   63.49   20.00
  -9  -3   9   -5.00   22.00
  -9  -3   9   -8.90   11.70
   9   3  -9   -0.70   12.30
  -9   3   9   -5.10   14.30
  -9   3   9  -15.50   12.80
  -9   3   9   18.30   20.60
  -7  -3   9   27.90   12.90
  -7  -3   9   15.30    9.10
   7  -3  -9   36.10   11.10
  -7  -3   9    2.10   13.50
  -7  -3   9   23.40   15.90
  -7   3   9   15.40   13.10
   7   3  -9  -11.00   18.30
   7   3  -9   26.00    9.10
  -7   3   9    9.30   10.10
  -7   3   9   17.80   10.10
   5  -3  -9  304.87   22.90
  -5  -3   9  238.68   27.60
  -5  -3   9  233.78   22.60
  -5  -3   9  304.27   22.80
   5   3  -9  263.07   28.70
  -5   3   9  286.57   23.50
   5   3  -9  251.57   22.30
   5   3  -9  271.87   22.90
  -5   3   9  290.67   22.70
  -5   3   9  295.57   23.00
  -3  -3   9  724.43   54.49
  -3  -3   9  755.92   51.59
   3  -3  -9  766.42   51.79
   3  -3  -9  663.43   58.19
  -3  -3   9  758.22   51.19
   3   3  -9  742.83   51.49
  -3   3   9  767.52   51.59
  -3   3   9  760.02   51.69
   3   3  -9  819.22   55.19
  -3   3   9  740.93   50.99
   3   3  -9  718.13   51.09
   1  -3  -9  402.46   27.00
  -1  -3   9  391.16   27.70
   1  -3  -9  411.56   28.00
  -1  -3   9  407.06   31.40
   1   3  -9  380.76   30.50
  -1   3   9  366.16   27.00
   1   3  -9  397.66   27.70
  -1   3   9  380.66   27.80
   1   3  -9  354.06   29.70
   1   3  -9  340.57   31.20
  -1  -3  -9 1556.84  111.19
  -1  -3  -9 1489.65  110.59
   1  -3   9 1636.94  113.29
   1  -3   9 1722.23  114.09
  -1   3  -9 1707.13  113.49
   1   3   9 1731.33  110.89
  -1   3  -9 1565.64  110.39
  -1   3  -9 1727.23  114.19
   1   3   9 1745.43  111.99
   1   3   9 1828.32  116.69
   3  -3   9 1000.80   67.19
  -3  -3  -9  982.10   69.99
   3  -3   9 1034.80   72.49
  -3  -3  -9 1054.99   67.59
  -3  -3  -9  990.20   70.39
   3  -3   9  859.31   70.09
   3   3   9  974.20   73.49
  -3   3  -9  987.10   70.79
  -3   3  -9  953.70   71.99
  -3   3  -9 1045.90   67.09
   3   3   9 1042.10   67.89
  -5  -3  -9 1285.97   91.49
   5  -3   9 1314.77   87.69
  -5  -3  -9 1337.87   98.79
  -5  -3  -9 1342.47   91.59
  -5  -3  -9 1312.47   88.09
   5  -3   9 1357.96   91.89
  -5   3  -9 1264.47   93.29
  -5   3  -9 1234.58   92.09
   5   3   9 1163.08   87.99
  -5   3  -9 1225.48   94.29
   5   3   9 1267.97   94.09
  -5   3  -9 1430.86   87.49
  -7  -3  -9  265.07   33.10
   7  -3   9  240.58   31.50
   7  -3   9  221.58   23.00
  -7  -3  -9  218.98   35.40
  -7   3  -9  297.47   34.70
   7   3   9  248.38   23.80
   7   3   9  195.28   31.90
  -7   3  -9  245.98   23.90
  -7   3  -9  176.38   33.80
  -9  -3  -9  -11.00   35.30
   9  -3   9   45.30   16.40
  -9  -3  -9   42.60   23.90
  -9   3  -9   58.09   30.50
   9   3   9   81.69   16.50
  -9   3  -9  103.99   29.50
 -11  -3  -9   54.89   36.50
  11  -3   9   39.30   21.00
 -11  -3  -9  -33.40   58.69
 -11   3  -9   28.60   37.60
  11   3   9   64.79   20.80
 -11   3  -9   62.19   33.90
 -12  -4   9  231.98   51.39
 -12  -4   9  219.28   30.80
  12   4  -9  191.98   30.70
 -12   4   9  261.27   34.80
 -12   4   9  210.38   33.50
 -12   4   9  306.97   41.00
 -10  -4   9  529.15   66.19
 -10  -4   9  615.84   48.90
  10   4  -9  542.65   48.60
 -10   4   9  668.23   51.09
 -10   4   9  598.44   50.49
  -8  -4   9 1109.39   84.79
  -8  -4   9 1139.59   77.69
   8   4  -9 1099.29   77.89
   8   4  -9 1084.29   88.49
  -8   4   9 1121.49   78.29
  -8   4   9 1064.99   77.59
   6  -4  -9  284.47   33.90
  -6  -4   9  350.26   27.70
  -6  -4   9  384.36   34.40
  -6  -4   9  306.17   26.50
   6  -4  -9  306.07   26.40
  -6   4   9  296.27   27.10
  -6   4   9  327.27   28.40
  -6   4   9  344.57   27.00
   6   4  -9  336.37   26.70
   6   4  -9  313.17   34.50
  -4  -4   9 1845.52  117.29
   4  -4  -9 1870.61  121.79
  -4  -4   9 2018.20  117.69
  -4  -4   9 1677.63  119.89
   4  -4  -9 1658.63  116.89
  -4   4   9 1746.13  117.19
   4   4  -9 1705.73  116.89
   4   4  -9 1600.64  119.89
   4   4  -9 1646.54  116.99
  -4   4   9 1711.23  116.79
  -4   4   9 1833.32  117.49
  -2  -4   9 1482.55   95.99
  -2  -4   9 1598.34   95.89
  -2  -4   9 1342.47   98.59
   2  -4  -9 1539.95   96.39
   2  -4  -9 1424.26   95.59
  -2   4   9 1301.27   95.99
   2   4  -9 1377.46   95.49
  -2   4   9 1313.07   95.59
   2   4  -9 1502.55   99.29
   2   4  -9 1510.75   96.09
   0  -4  -9  111.19   10.80
   0  -4   9   93.39   14.10
   0  -4  -9   89.09    9.20
   0  -4   9   81.89    9.60
   0   4   9   61.09   17.20
   0   4  -9   85.79   14.20
   0   4   9   99.09   10.10
   0   4  -9   90.29   13.60
   0   4  -9  104.49    9.90
   0   4   9   81.19    9.60
   0   4  -9  100.99   14.90
  -2  -4  -9   -0.70   15.60
  -2  -4  -9   21.20    4.80
   2  -4   9   45.10   10.30
  -2  -4  -9   38.40    9.10
  -2  -4  -9   27.70    6.60
  -2  -4  -9   26.20   11.00
   2   4   9   32.20    6.80
   2   4   9   39.70   14.30
  -2   4  -9   38.80   11.20
  -2   4  -9   42.70   11.70
  -2   4  -9   41.70   11.30
   4  -4   9 1495.25   93.49
  -4  -4  -9 1285.97   93.59
   4  -4   9 1386.16   97.09
  -4  -4  -9 1438.86   96.69
  -4  -4  -9 1354.56   96.69
   4   4   9 1327.87  100.69
  -4   4  -9 1484.75   93.19
   4   4   9 1447.56   94.39
  -4   4  -9 1279.07   99.19
  -4   4  -9 1386.16   98.89
  -4   4  -9 1424.36   98.09
  -6  -4  -9  988.50   76.79
   6  -4   9 1078.79   70.89
   6  -4   9 1071.69   76.69
  -6  -4  -9  968.70   76.29
  -6  -4  -9 1052.69   71.69
  -6   4  -9 1132.99   70.99
   6   4   9  960.70   71.49
  -6   4  -9  972.20   79.99
  -6   4  -9 1082.29   78.79
   6   4   9  969.90   78.69
  -6   4  -9  978.90   78.29
  -8  -4  -9  488.85   48.40
   8  -4   9  491.05   37.80
   8  -4   9  522.85   47.30
   8   4   9  451.85   39.20
  -8   4  -9  378.16   38.20
  -8   4  -9  460.55   51.99
 -10  -4  -9 1176.18  105.09
  10  -4   9 1366.36   94.59
 -10   4  -9 1411.86  114.19
 -10   4  -9 1262.97  107.59
  10   4   9 1387.06   96.59
  12  -4   9  372.06   43.20
 -12  -4  -9  223.08   52.29
 -12   4  -9  244.28   53.99
 -12   4  -9  257.17   56.69
  12   4   9  243.38   35.80
 -11  -5   9   38.10   37.80
 -11  -5   9   63.59   19.60
 -11   5   9   44.90   20.90
 -11   5   9   15.60   22.70
  11   5  -9   38.20   20.10
  -9  -5   9   22.20   26.10
  -9  -5   9   12.40   12.90
   9   5  -9    8.00   13.30
  -9   5   9   16.40   15.40
  -9   5   9   37.80   14.10
  -7  -5   9  415.06   41.80
  -7  -5   9  506.25   39.10
  -7  -5   9  559.14   48.80
   7  -5  -9  494.95   39.40
   7   5  -9  471.35   49.80
  -7   5   9  522.25   39.70
  -7   5   9  552.34   39.70
   7   5  -9  538.75   39.50
  -5  -5   9   49.60    9.50
   5  -5  -9   32.20    8.10
  -5  -5   9   36.90    8.40
   5  -5  -9   62.99   17.10
  -5  -5   9   16.60   13.90
   5   5  -9   39.90   16.40
  -5   5   9   22.40    8.00
  -5   5   9   29.00    8.10
   5   5  -9   32.70    8.00
   5   5  -9   35.10    8.40
  -5   5   9   12.50    9.30
   3  -5  -9 1437.76   99.09
   3  -5  -9 1562.84  106.19
  -3  -5   9 1536.35   99.09
  -3  -5   9 1443.46   98.99
  -3  -5   9 1473.35  102.79
   3   5  -9 1476.65   98.79
  -3   5   9 1431.96   98.89
  -3   5   9 1457.65   99.09
   3   5  -9 1416.96  102.79
   3   5  -9 1565.54   98.99
   1  -5  -9 2139.59  136.99
   1  -5  -9 2116.79  136.39
  -1  -5   9 2015.50  140.09
   1   5  -9 2258.27  136.79
  -1   5   9 2016.60  136.79
   1   5  -9 1908.81  139.89
   1   5  -9 2079.99  139.59
   1   5  -9 1945.11  138.39
  -1   5   9 2110.59  136.69
   1  -5   9  616.54   47.30
  -1  -5  -9  655.53   43.00
  -1  -5  -9  525.35   43.20
   1   5   9  597.04   43.40
  -1   5  -9  656.13   47.10
   1   5   9  707.73   43.40
  -1   5  -9  627.14   48.50
  -1   5  -9  689.03   47.70
   1   5   9  537.75   52.39
  -3  -5  -9 3398.56  218.58
  -3  -5  -9 3267.07  221.18
  -3  -5  -9 3245.88  221.48
  -3  -5  -9 3187.78  219.28
   3  -5   9 3409.16  222.88
  -3   5  -9 3451.75  223.58
   3   5   9 3312.47  219.58
  -3   5  -9 3572.84  223.48
   3   5   9 3183.28  226.08
   3   5   9 3369.86  218.88
  -3   5  -9 3242.68  224.68
  -5  -5  -9  569.84   43.70
  -5  -5  -9  627.54   42.20
  -5  -5  -9  561.54   48.60
   5  -5   9  585.34   48.90
  -5  -5  -9  611.44   48.40
   5   5   9  597.14   42.50
   5   5   9  520.55   52.19
  -5   5  -9  639.94   53.59
   5   5   9  684.13   44.30
  -5   5  -9  595.34   49.80
  -5   5  -9  581.34   50.09
   7  -5   9   24.80   16.50
   7  -5   9   30.90    9.80
  -7  -5  -9  -20.10   27.40
  -7  -5  -9   23.80    9.10
  -7  -5  -9   41.90   18.80
  -7   5  -9   23.90   19.40
   7   5   9   12.50   23.00
   7   5   9   15.60    9.70
   7   5   9   24.10   11.50
  -7   5  -9    8.60   10.30
   9  -5   9  184.08   21.50
  -9  -5  -9  125.69   20.30
  -9  -5  -9  193.98   32.40
  -9   5  -9  196.18   32.40
   9   5   9  153.28   21.80
  -9   5  -9  174.98   33.50
 -11  -5  -9  -10.90   57.69
  11  -5   9   70.69   22.20
 -11  -5  -9   91.69   39.90
 -11   5  -9  135.99   46.00
 -11   5  -9   93.49   38.90
  11   5   9  113.09   26.60
 -12  -6   9  429.16   45.60
 -12  -6   9  422.16   63.49
 -12   6   9  448.36   49.50
  12   6  -9  340.67   46.80
 -12   6   9  381.86   46.00
 -10  -6   9  718.03   56.19
 -10  -6   9  725.23   77.39
  10   6  -9  707.23   56.89
 -10   6   9  673.13   56.39
 -10   6   9  723.43   57.29
  -8  -6   9  987.10   72.29
  -8  -6   9 1197.98   84.49
  -8   6   9 1028.70   72.09
  -8   6   9  924.71   78.89
  -8   6   9 1054.79   72.59
   8   6  -9  938.21   72.49
   6  -6  -9  887.21   68.99
  -6  -6   9  842.72   62.99
   6  -6  -9  933.41   61.39
  -6  -6   9  895.41   61.69
  -6  -6   9  846.02   62.49
  -6  -6   9  885.41   67.69
   6   6  -9  744.63   69.29
  -6   6   9  855.01   70.29
  -6   6   9  973.20   61.89
   6   6  -9  897.21   61.79
  -6   6   9  826.52   62.99
  -6   6   9  865.01   61.49
  -4  -6   9  942.11   67.99
   4  -6  -9  822.82   71.09
   4  -6  -9  858.11   62.99
  -4  -6   9  891.71   63.39
  -4  -6   9  960.30   63.79
   4   6  -9  930.21   63.29
  -4   6   9  952.20   63.89
   4   6  -9  961.60   63.09
  -4   6   9  931.71   63.49
   4   6  -9  881.71   68.19
  -4   6   9  973.10   63.49
   2  -6  -9  428.06   31.50
   2  -6  -9  468.45   44.80
  -2  -6   9  420.36   36.60
   2  -6  -9  456.95   32.10
   2   6  -9  434.96   31.40
  -2   6   9  390.56   31.70
  -2   6   9  435.96   31.80
   2   6  -9  453.05   31.60
   2   6  -9  497.05   38.10
   0  -6  -9    3.80    5.00
   0  -6  -9   11.90    5.70
   0  -6  -9   20.20   16.50
   0  -6   9   12.50   10.10
   0   6   9    3.10    4.90
   0   6   9    1.50    5.20
   0   6  -9   10.00   10.80
   0   6   9   -5.90   16.40
   0   6  -9   13.50    9.30
   0   6  -9   20.50   11.00
   2  -6   9  165.08   22.20
  -2  -6  -9  185.58   16.20
  -2  -6  -9  174.48   15.30
  -2  -6  -9  190.08   21.50
  -2  -6  -9  164.68   19.70
   2   6   9  169.58   16.10
  -2   6  -9  227.08   22.40
  -2   6  -9  208.58   23.70
   2   6   9  192.18   31.40
   2   6   9  201.68   16.10
  -2   6  -9  142.09   23.90
  -4  -6  -9  307.87   24.00
  -4  -6  -9  336.77   30.50
  -4  -6  -9  318.37   25.10
  -4  -6  -9  293.57   30.70
   4  -6   9  342.87   32.10
  -4   6  -9  304.77   30.80
  -4   6  -9  300.77   34.10
   4   6   9  335.77   25.60
   4   6   9  318.07   24.70
   4   6   9  298.97   36.60
  -4   6  -9  285.57   32.20
  -6  -6  -9  785.02   63.59
  -6  -6  -9  834.02   56.59
   6  -6   9  891.91   63.99
  -6  -6  -9  711.73   63.59
  -6   6  -9  676.93   66.49
   6   6   9  871.31   58.59
   6   6   9  893.71   57.29
  -6   6  -9  832.42   65.49
   6   6   9  725.43   68.59
   8  -6   9 1059.99   68.09
   8  -6   9  966.00   76.29
  -8  -6  -9  887.31   67.09
  -8  -6  -9  866.01   77.99
  -8   6  -9  982.00   68.69
   8   6   9  961.30   70.19
  -8   6  -9  948.31   79.89
   8   6   9  912.81   66.89
 -10  -6  -9  655.03   70.09
  10  -6   9  613.14   50.39
  10   6   9  644.64   54.19
 -10   6  -9  643.44   72.09
  10   6   9  484.45   50.99
 -10   6  -9  660.93   71.49
 -12  -6  -9  455.45   62.99
  12   6   9  320.07   45.30
 -12   6  -9  539.05   73.89
 -12   6  -9  399.86   65.59
  12   6   9  475.65   49.90
 -11  -7   9   23.90   20.50
 -11  -7   9   88.49   44.40
 -11   7   9   94.99   23.00
  11   7  -9   91.59   22.10
 -11   7   9  116.09   24.70
   9  -7  -9   -1.80   24.70
  -9  -7   9    2.70   14.00
  -9  -7   9   40.20   31.20
   9   7  -9  -10.70   15.20
  -9   7   9   22.90   15.90
  -9   7   9   22.10   15.00
  -9   7   9    9.20   26.50
  -7  -7   9  119.39   27.00
  -7  -7   9   86.49   14.00
   7  -7  -9   92.39   21.60
   7  -7  -9   61.99   14.40
   7   7  -9   82.39   14.80
  -7   7   9   90.69   14.50
  -7   7   9  113.29   15.60
  -7   7   9   97.39   24.40
   5  -7  -9  799.92   56.09
  -5  -7   9  858.71   63.59
   5  -7  -9  827.62   66.19
  -5  -7   9  814.02   56.69
  -5  -7   9  810.12   57.09
  -5  -7   9  788.72   57.29
  -5   7   9  721.93   57.49
   5   7  -9  738.03   64.79
   5   7  -9  806.82   56.39
  -5   7   9  889.21   56.79
  -5   7   9  770.42   56.59
  -5   7   9  810.32   67.89
   3  -7  -9 1459.45  105.69
   3  -7  -9 1364.16   96.29
  -3  -7   9 1546.05   96.99
   3  -7  -9 1376.06   96.59
  -3  -7   9 1564.04  101.99
   3   7  -9 1488.85   96.59
  -3   7   9 1384.16   96.69
   3   7  -9 1382.96   96.09
   3   7  -9 1403.66  101.89
  -1  -7   9 1108.09   79.79
   1  -7  -9 1211.58   88.29
   1  -7  -9 1175.08   74.69
  -1  -7   9 1104.69   78.99
   1  -7  -9 1127.69   74.99
  -1   7   9 1034.90   74.69
   1   7  -9 1166.68   80.29
  -1   7   9 1049.70   74.99
   1   7  -9 1028.20   79.49
  -1  -7  -9 3858.01  224.48
  -1  -7  -9 3198.88  224.28
   1  -7   9 3434.56  228.58
  -1   7  -9 3516.05  228.68
  -1   7  -9 3237.98  228.98
   1   7   9 3566.44  224.68
  -1   7  -9 3087.09  227.18
   1   7   9 3390.16  224.58
   3  -7   9  361.06   34.50
  -3  -7  -9  386.86   28.60
  -3  -7  -9  393.46   28.10
  -3  -7  -9  383.56   32.40
  -3  -7  -9  366.86   33.60
   3   7   9  401.26   29.10
   3   7   9  370.56   41.60
   3   7   9  338.47   28.40
  -3   7  -9  327.17   34.00
  -3   7  -9  380.26   38.10
  -3   7  -9  421.76   35.80
  -5  -7  -9 1128.39   85.89
  -5  -7  -9 1168.88   85.69
   5  -7   9 1300.17   86.89
  -5  -7  -9 1202.48   81.59
  -5  -7  -9 1166.68   80.49
  -5   7  -9 1233.78   87.79
  -5   7  -9 1149.58   92.39
   5   7   9 1169.08   80.79
  -5   7  -9 1140.19   88.69
   5   7   9 1221.88   82.09
   5   7   9 1151.88   92.09
  -7  -7  -9  353.26   41.20
  -7  -7  -9  280.77   28.00
   7  -7   9  331.87   39.40
  -7   7  -9  340.87   41.70
   7   7   9  280.87   30.20
   7   7   9  300.77   27.80
  -9  -7  -9  -28.60   42.60
  -9  -7  -9   -0.90   26.90
   9  -7   9  -10.60   24.30
  -9   7  -9  -15.80   27.00
   9   7   9   23.30   16.70
   9   7   9    3.20   13.50
  11  -7   9    4.00   19.50
 -11  -7  -9  -14.50   61.09
 -11  -7  -9   36.30   39.80
  11   7   9   14.80   22.10
  11   7   9   24.10   20.80
 -11   7  -9   -5.40   37.40
 -11   7  -9   -5.00   45.60
 -12  -8   9  676.53   94.69
 -12  -8   9  479.55   51.09
 -12   8   9  577.14   56.89
  12   8  -9  390.36   51.99
 -12   8   9  437.16   51.19
 -10  -8   9  431.26   41.50
 -10  -8   9  512.75   75.59
  10  -8  -9  428.76   57.39
 -10   8   9  370.36   40.80
  10   8  -9  422.66   43.00
 -10   8   9  407.86   43.40
  -8  -8   9  411.16   50.19
  -8  -8   9  316.97   31.40
   8  -8  -9  385.36   43.20
  -8   8   9  342.47   32.10
   8   8  -9  300.37   32.50
  -8   8   9  274.07   30.80
  -8   8   9  258.07   39.10
  -6  -8   9  635.64   45.60
   6  -8  -9  594.24   57.29
   6  -8  -9  578.34   44.80
  -6  -8   9  590.94   46.90
  -6  -8   9  644.04   57.19
  -6   8   9  644.64   46.20
  -6   8   9  588.54   45.20
  -6   8   9  579.54   60.79
   6   8  -9  649.34   45.70
  -4  -8   9  328.17   26.60
   4  -8  -9  308.87   24.90
  -4  -8   9  305.37   34.00
  -4  -8   9  359.56   25.40
   4  -8  -9  267.87   26.10
  -4  -8   9  316.47   26.40
   4  -8  -9  308.07   41.50
   4   8  -9  252.77   36.00
   4   8  -9  303.07   25.30
  -4   8   9  312.27   25.50
  -4   8   9  297.77   25.40
   2  -8  -9   96.99   11.70
   2  -8  -9  159.88   29.60
  -2  -8   9   97.09   16.50
  -2  -8   9   95.59   18.60
   2  -8  -9  100.59   11.80
  -2  -8   9   97.79   13.10
  -2   8   9  101.29   12.40
   2   8  -9  107.49   12.60
   2   8  -9  117.99   20.20
  -2   8   9   81.89   11.00
   2   8  -9  109.09   19.90
   0  -8   9  112.49   18.40
   0  -8  -9   82.19   11.00
   0  -8  -9   93.19   11.60
   0  -8   9   78.79   16.40
   0  -8  -9  173.88   30.30
   0   8  -9  117.19   19.40
   0   8   9  104.89   11.60
   0   8   9  118.19   12.60
   0   8  -9   82.29   18.10
  -2  -8  -9   74.09   10.00
  -2  -8  -9   45.60   23.00
  -2  -8  -9   63.69   14.50
  -2  -8  -9   63.89    9.20
   2  -8   9   73.29   17.80
  -2   8  -9   94.79   17.80
  -2   8  -9   54.59   18.00
  -2   8  -9   98.99   17.50
   2   8   9   73.79   10.50
   2   8   9   63.79   12.60
  -4  -8  -9  112.79   14.30
  -4  -8  -9  102.79   19.80
   4  -8   9   89.09   19.30
  -4  -8  -9  115.39   15.10
  -4   8  -9  107.19   25.50
   4   8   9  115.69   19.80
  -4   8  -9  137.99   21.10
   4   8   9  109.19   13.50
  -4   8  -9  109.49   22.80
   4   8   9  138.59   15.30
   4   8   9   95.49   24.20
   6  -8   9  312.97   37.60
  -6  -8  -9  369.26   38.20
  -6  -8  -9  261.07   27.10
   6   8   9  296.17   27.50
   6   8   9  300.27   27.20
  -6   8  -9  314.27   38.10
  -8  -8  -9  717.73   69.89
   8  -8   9  856.01   68.19
   8   8   9  801.02   57.59
  -8   8  -9  817.72   72.49
   8   8   9  679.23   59.09
 -10  -8  -9  378.26   52.59
 -10   8  -9  423.76   61.19
 -10   8  -9  297.77   50.19
  10   8   9  346.77   43.10
  10   8   9  281.77   35.20
 -11  -9   9  112.99   56.89
 -11  -9   9   -3.60   22.40
 -11   9   9   -2.50   22.40
  11   9  -9  -52.39   22.50
 -11   9   9   32.30   26.70
  -9  -9   9   19.80   18.10
   9  -9  -9   67.39   28.60
  -9  -9   9  108.49   36.50
  -9   9   9   33.90   16.90
  -9   9   9   55.79   19.30
   9   9  -9   46.30   18.00
  -7  -9   9   21.70   12.90
   7  -9  -9   47.30   13.30
  -7  -9   9   26.20   26.20
   7  -9  -9   51.59   23.40
  -7   9   9    2.20   30.90
   7   9  -9   36.40   13.30
  -7   9   9   46.50   13.20
  -7   9   9   45.90   13.30
  -5  -9   9   25.40   13.60
  -5  -9   9   51.59   19.50
   5  -9  -9   10.30   21.80
  -5  -9   9   35.50    9.80
  -5  -9   9   16.10   11.70
  -5   9   9   25.30   28.90
   5   9  -9   26.50   10.00
  -5   9   9   19.70    9.90
  -5   9   9   16.10    9.40
   3  -9  -9  366.26   31.00
  -3  -9   9  370.16   31.10
   3  -9  -9  426.96   47.70
  -3  -9   9  383.36   38.30
   3   9  -9  414.66   30.60
   3   9  -9  420.86   43.40
  -3   9   9  398.96   30.60
  -1  -9   9  650.43   45.10
   1  -9  -9  629.24   45.30
   1  -9  -9  677.13   63.39
   1  -9  -9  592.24   45.50
  -1  -9   9  675.43   52.29
  -1  -9   9  615.54   51.39
   1   9  -9  693.13   45.10
   1   9  -9  625.14   54.49
   1   9  -9  676.63   54.39
  -1   9   9  616.24   45.80
   1  -9   9  214.68   26.50
   1  -9   9  250.97   27.30
  -1  -9  -9  179.78   18.20
  -1  -9  -9  184.18   18.40
  -1  -9  -9  281.27   43.20
   1   9   9  218.68   19.40
   1   9   9  180.38   18.10
  -1   9  -9  248.88   31.30
  -1   9  -9  203.38   32.30
  -3  -9  -9  802.82   56.49
  -3  -9  -9  771.92   61.79
  -3  -9  -9  857.01   56.79
   3  -9   9  890.81   63.59
  -3   9  -9  778.22   64.19
   3   9   9  825.82   59.99
   3   9   9  793.32   57.29
  -3   9  -9  759.32   62.49
   3   9   9  805.22   57.09
  -3   9  -9  834.42   70.69
   5  -9   9   53.39   19.80
  -5  -9  -9   30.30   17.90
  -5  -9  -9   37.20   12.10
  -5  -9  -9   16.30   27.60
  -5  -9  -9   56.89   13.00
   5   9   9   79.39   12.60
   5   9   9   45.10   22.30
   5   9   9   30.40   11.50
  -5   9  -9   70.99   20.60
  -7  -9  -9   91.99   26.80
   7  -9   9   87.39   24.80
  -7  -9  -9    0.70   36.60
  -7   9  -9  117.79   26.00
   7   9   9  107.39   16.40
   7   9   9  100.89   17.60
  -9  -9  -9   28.70   30.30
  -9  -9  -9  -10.80   45.00
   9  -9   9   32.80   28.30
  -9   9  -9   53.39   31.50
   9   9   9   23.10   20.00
   9   9   9   54.09   17.20
 -11  -9  -9  129.39   43.40
 -11  -9  -9   -3.40   63.79
 -11   9  -9   62.59   44.00
  11   9   9   86.09   27.60
 -11   9  -9   29.20   51.59
  11   9   9   51.59   23.30
 -10 -10   9   43.20   49.10
 -10 -10   9   29.10   22.00
  10 -10  -9   23.30   36.30
 -10  10   9   25.60   22.90
  10  10  -9   50.49   22.60
 -10  10   9   19.60   20.20
  -8 -10   9  225.28   40.40
   8 -10  -9  188.08   35.70
  -8 -10   9  241.88   30.50
   8  10  -9  308.87   31.90
  -8  10   9  249.38   31.10
  -6 -10   9   26.60   12.10
  -6 -10   9   15.30   15.70
   6 -10  -9   37.60   27.10
  -6 -10   9   60.79   23.80
  -6  10   9   15.80   37.90
  -6  10   9   54.49   13.40
   6  10  -9   55.69   13.50
   4 -10  -9  279.27   42.10
  -4 -10   9  295.37   37.60
  -4 -10   9  241.88   27.20
  -4  10   9  288.47   24.20
  -4  10   9  169.38   39.00
   4  10  -9  259.37   23.90
   2 -10  -9    9.90    9.50
  -2 -10   9  -12.60   13.90
   2 -10  -9   19.50   27.90
  -2 -10   9    7.90    8.80
  -2 -10   9  -20.20   15.70
  -2  10   9    2.30    7.60
   2  10  -9   21.90   21.80
  -2  10   9    2.80   26.30
   2  10  -9    9.60    7.70
   2  10  -9   55.69   27.00
   0 -10  -9    1.20    8.40
   0 -10   9    2.50   14.10
   0 -10  -9   42.10   29.90
   0 -10  -9    9.50    8.10
   0 -10   9   -0.40   15.40
   0  10  -9  -20.00   19.30
   0  10   9   60.59   28.70
   0  10   9   13.20    8.10
   0  10  -9   24.10   19.60
  -2 -10  -9  129.59   15.10
  -2 -10  -9   87.79   13.30
   2 -10   9  119.29   20.70
   2 -10   9  112.69   21.80
  -2 -10  -9  109.89   20.70
  -2 -10  -9  150.38   36.50
   2  10   9  164.38   16.60
   2  10   9  121.09   14.80
   2  10   9  141.89   18.40
  -2  10  -9  104.59   25.40
  -2  10  -9  122.49   27.30
  -4 -10  -9  112.19   15.20
   4 -10   9  142.69   23.70
  -4 -10  -9   91.49   15.60
  -4 -10  -9   95.39   34.40
  -4 -10  -9  137.59   23.80
  -4  10  -9  138.89   26.40
   4  10   9  129.29   15.70
   4  10   9  133.09   24.20
   4  10   9  129.09   15.50
  -6 -10  -9   -0.10   36.60
  -6 -10  -9   33.50   23.80
   6 -10   9   11.20   19.80
   6  10   9   13.20   12.30
  -6  10  -9   50.79   21.10
   6  10   9    9.80   12.50
  -8 -10  -9   69.99   30.40
   8 -10   9   19.80   27.30
  -8 -10  -9  -24.10   43.60
  -8  10  -9   49.60   26.70
   8  10   9   58.69   18.20
   8  10   9   38.90   15.50
  10 -10   9  215.78   41.00
 -10 -10  -9  212.58   47.80
 -10 -10  -9   89.29   64.09
  10  10   9  192.78   31.20
  10  10   9  179.78   26.60
 -10  10  -9  178.08   44.40
 -11 -11   9   46.20   27.50
 -11 -11   9  -77.99   56.89
  11 -11  -9   90.29   46.10
 -11  11   9   48.50   29.10
  11  11  -9   43.10   28.00
 -11  11   9   37.90   25.80
  -9 -11   9  -32.90   39.50
   9 -11  -9  -34.20   30.50
  -9 -11   9  -17.40   19.30
  -9  11   9    4.20   19.80
   9  11  -9    5.00   19.60
  -9  11   9  -12.20   17.70
   7 -11  -9    5.70   25.00
  -7 -11   9  -15.70   13.90
  -7 -11   9   23.70   29.40
   7  11  -9   -5.80   15.60
  -7  11   9    2.10   15.20
  -5 -11   9   -6.70   23.30
   5 -11  -9   -2.70   27.80
  -5  11   9    4.30   10.90
   5  11  -9    5.30   11.80
  -3 -11   9   38.10   12.30
  -3 -11   9   29.60   19.50
  -3 -11   9   59.49   18.30
   3 -11  -9  -24.30   27.80
  -3  11   9   16.80    9.90
   3  11  -9   19.00   22.40
  -1 -11   9   26.10    9.20
   1 -11  -9    1.30   14.00
  -1 -11   9    9.30   17.90
   1 -11  -9    6.10   35.70
  -1 -11   9   30.20   16.50
  -1  11   9   13.60   32.40
   1  11  -9    4.70   23.60
   1  11  -9   32.70    9.10
  -1  11   9   23.80    8.70
   1  11  -9   24.50   23.20
   1 -11   9   42.60   17.70
  -1 -11  -9   46.70   12.60
   1 -11   9   55.39   18.00
  -1 -11  -9   26.00   37.50
  -1  11  -9   21.90   24.30
  -1  11  -9   79.59   26.80
   1  11   9   67.89   11.90
   3 -11   9  -23.20   18.60
  -3 -11  -9  -41.80   34.00
  -3 -11  -9   -2.70    9.80
  -3 -11  -9   15.70   19.10
   3 -11   9   -9.30   17.40
   3  11   9   19.00   15.90
   3  11   9    5.80   10.20
   3  11   9    0.90    9.00
  -5 -11  -9   49.20   38.90
   5 -11   9   14.20   21.50
   5  11   9   13.40   11.20
   5  11   9   21.90   13.20
  -5  11  -9  -16.80   20.50
  -7 -11  -9   34.80   28.90
  -7 -11  -9  -34.60   39.70
   7 -11   9   20.70   23.50
  -7  11  -9    9.00   22.60
   7  11   9    1.90   14.80
   7  11   9    7.90   16.50
  -9 -11  -9   -4.70   37.00
   9 -11   9   25.80   34.60
  -9 -11  -9  -23.20   52.49
   9  11   9    5.00   22.40
  -9  11  -9   37.70   32.70
   9  11   9    9.40   19.10
 -10 -12   9   35.60   24.40
  10 -12  -9   24.50   42.60
 -10 -12   9   14.80   49.00
 -10  12   9    9.80   23.30
  10  12  -9   10.90   25.20
  -8 -12   9  163.88   24.90
  -8 -12   9  116.59   42.50
   8 -12  -9  129.89   37.40
   8  12  -9  147.99   24.80
  -8  12   9  163.18   24.50
  -6 -12   9   29.50   28.40
   6 -12  -9   56.59   32.20
   6  12  -9   81.59   17.50
  -6  12   9   52.29   15.30
   4 -12  -9  143.49   35.80
  -4 -12   9  173.98   31.70
  -4  12   9  172.28   20.80
   4  12  -9  162.78   22.60
  -2 -12   9   57.39   13.20
  -2 -12   9   74.99   22.00
   2 -12  -9   56.79   36.30
  -2 -12   9   74.29   22.10
   2  12  -9  -36.80   40.80
  -2  12   9   67.89   12.90
   2  12  -9   97.09   13.30
   0 -12   9   90.39   12.60
   0 -12   9   76.79   22.20
   0 -12  -9   64.79   40.00
   0 -12   9  108.39   23.60
   0  12  -9   67.49   32.20
   0  12  -9  100.09   12.80
   0  12   9   85.39   14.20
   2 -12   9    9.10   18.90
  -2 -12  -9  -10.60    9.70
   2 -12   9   16.50   17.70
   2  12   9   -3.20   15.20
   2  12   9   -7.80    9.60
   2  12   9    9.30   10.30
  -4 -12  -9  -11.50   12.40
   4 -12   9   -5.30   21.80
  -4 -12  -9   65.19   24.80
  -4 -12  -9   39.80   41.70
   4 -12   9    0.90   20.80
   4  12   9    6.50   11.40
   4  12   9   37.00   13.30
   4  12   9   16.00   24.50
   6 -12   9   52.99   26.80
  -6 -12  -9   53.89   28.50
  -6 -12  -9   84.29   48.30
   6  12   9   20.60   15.60
  -6  12  -9   58.19   28.40
   6  12   9   45.10   16.40
  -8 -12  -9  -56.39   52.89
   8 -12   9   25.70   29.90
  -8 -12  -9   93.59   33.20
   8  12   9   54.19   21.90
  -8  12  -9   43.80   32.00
   8  12   9   74.49   20.30
  10 -12   9   52.39   42.20
 -10 -12  -9  137.49   43.40
 -10 -12  -9 -130.69   70.69
  10  12   9   76.59   25.60
 -10  12  -9    8.80   40.60
  10  12   9  110.49   30.80
   9 -13  -9  -42.90   36.60
  -9 -13   9  -34.70   22.00
  -9 -13   9   43.60   45.00
  -9  13   9  -10.40   20.10
   9  13  -9   10.10   24.00
   7 -13  -9   23.30   33.20
  -7 -13   9   40.60   36.40
   7  13  -9   35.40   18.60
  -7  13   9   36.70   17.40
  -5 -13   9   32.90   29.20
   5 -13  -9   91.29   36.30
  -5  13   9   18.30   14.70
   5  13  -9   57.49   16.10
  -3 -13   9  362.16   44.50
   3 -13  -9  412.56   59.39
  -3 -13   9  300.57   41.20
  -3  13   9  311.47   29.70
   3  13  -9  199.48   41.80
   3  13  -9  325.37   30.10
  -1 -13   9  361.06   47.80
  -1 -13   9  416.06   45.90
   1 -13  -9  458.25   61.49
  -1 -13   9  391.46   34.00
  -1  13   9  341.27   34.20
   1  13  -9  462.85   33.90
   1 -13   9  538.95   52.89
  -1 -13  -9  501.05   77.19
   1 -13   9  534.05   55.49
   3 -13   9  127.09   29.20
  -3 -13  -9  156.68   32.30
  -3 -13  -9  143.29   50.39
   3 -13   9  217.28   34.40
   3  13   9  158.28   26.70
   3  13   9  154.58   20.70
   3  13   9  167.88   21.20
  -5 -13  -9  227.58   39.20
   5 -13   9  244.98   36.90
  -5 -13  -9  213.78   57.69
   5  13   9  242.48   27.90
   5  13   9  202.98   29.60
  -5  13  -9  275.47   38.30
  -7 -13  -9   41.50   55.69
   7 -13   9   57.29   32.10
  -7 -13  -9   25.50   33.90
   7  13   9   20.80   20.30
   7  13   9   57.09   19.10
  -7  13  -9   68.79   32.80
   9 -13   9   -8.40   36.60
  -9 -13  -9   31.60   76.09
  -9 -13  -9  -20.10   41.10
  -9  13  -9  -18.50   35.10
   9  13   9   13.20   27.30
   9  13   9    5.50   21.10
   8 -14  -9  288.67   54.89
  -8 -14   9  369.06   59.39
  -8 -14   9  308.27   41.40
  -8  14   9  361.46   43.20
   8  14  -9  349.17   49.00
  -6 -14   9  285.07   46.90
   6 -14  -9  266.77   49.60
   6  14  -9  281.47   38.00
  -6  14   9  228.28   29.70
  -4 -14   9  202.88   34.50
  -4 -14   9  196.78   36.20
   4 -14  -9  166.28   46.00
   4  14  -9  201.48   23.80
  -4  14   9  198.98   24.40
   2 -14  -9  263.97   52.19
  -2 -14   9  262.67   42.40
  -2 -14   9  303.77   43.00
   2  14  -9  213.58   28.20
  -2  14   9  222.78   25.80
   0 -14  -9   91.39   46.90
   0 -14   9   28.00   24.40
   0 -14   9   55.99   15.00
   0 -14   9  125.79   28.40
   0  14   9   61.89   15.50
   0  14  -9   61.09   13.40
  -2 -14  -9   21.70   28.40
   2 -14   9   58.49   25.70
   2 -14   9   43.70   24.60
  -2 -14  -9  -34.90   47.10
   2  14   9   56.09   15.50
  -4 -14  -9   56.59   54.39
   4 -14   9  110.19   30.40
  -4 -14  -9   98.69   35.20
   4 -14   9   58.79   29.70
   4  14   9   81.09   16.30
   4  14   9   89.89   18.80
  -6 -14  -9   56.39   67.49
   6 -14   9  233.28   40.00
  -6 -14  -9  193.88   42.70
  -6  14  -9  227.88   43.00
   6  14   9  236.78   32.40
   6  14   9  199.88   29.40
  -8 -14  -9  422.46   58.49
  -8 -14  -9  221.38   86.89
   8 -14   9  475.65   61.49
  -8  14  -9  570.24   64.49
   8  14   9  356.06   45.20
   8  14   9  399.16   53.19
   7 -15  -9   85.69   41.10
  -7 -15   9   35.60   45.30
   7  15  -9   77.19   25.10
  -7  15   9   88.49   24.60
   5 -15  -9  134.79   46.40
  -5 -15   9   73.99   34.10
  -5 -15   9  136.69   36.70
  -5  15   9   90.79   21.90
   5  15  -9  106.29   21.20
  -3 -15   9  481.45   57.59
   3 -15  -9  407.76   71.69
  -3 -15   9  501.35   60.39
   3  15  -9  425.76   42.10
  -3  15   9  438.56   40.50
  -1 -15   9  854.11   79.99
  -1 -15   9  905.81   78.69
   1 -15  -9  902.51  101.79
  -1  15   9  878.41   67.59
   1  15  -9  979.00   67.09
   1 -15   9  605.64   61.39
   1 -15   9  640.14   64.79
  -1 -15  -9  551.94   86.99
   1  15   9  524.05   47.20
   3 -15   9  828.82   77.09
   3 -15   9  909.41   76.99
  -3 -15  -9  786.62   78.59
   3  15   9  752.72   62.89
  -5 -15  -9  189.28   47.50
  -5 -15  -9  222.78   79.09
   5 -15   9  399.36   47.30
   5 -15   9  352.36   57.29
   5  15   9  328.87   36.50
   5  15   9  246.68   36.60
   7 -15   9  143.99   39.70
  -7 -15  -9   89.39   87.39
  -7 -15  -9  142.89   48.90
   7  15   9  126.09   26.30
  -7  15  -9  100.69   40.10
   7  15   9  126.69   31.40
   8 -16  -9  751.32   93.99
  -8 -16   9  794.82  116.69
   8  16  -9  724.23   70.99
   6 -16  -9  310.47   59.99
  -6 -16   9  288.77   52.29
  -6  16   9  402.16   43.50
   6  16  -9  341.07   42.70
   4 -16  -9  465.05   80.59
  -4 -16   9  470.45   66.29
  -4 -16   9  507.95   65.49
   4  16  -9  403.76   45.30
  -4  16   9  515.75   45.60
   2 -16  -9  347.27   57.59
  -2 -16   9  286.87   45.60
  -2 -16   9  317.67   47.40
   2  16  -9  257.07   35.90
  -2  16   9  293.87   35.80
   0 -16  -9   32.60   50.59
   0 -16   9  -26.10   31.50
   0 -16   9   55.59   33.60
   0  16  -9   45.60   16.50
   0  16   9   54.19   17.20
  -2 -16  -9   52.99   36.80
  -2 -16  -9   58.39   63.49
   2 -16   9  -43.70   29.70
   2 -16   9    0.90   29.70
  -2  16  -9  -18.50   17.80
   2  16   9    1.00   16.40
   4 -16   9  275.17   44.90
  -4 -16  -9  347.87   50.79
  -4 -16  -9   91.59   73.79
   4 -16   9  355.96   58.59
   4  16   9  272.57   37.90
   6 -16   9  455.85   66.49
  -6 -16  -9  321.37   58.69
  -6  16  -9  464.75   69.99
   6  16   9  447.56   49.50
   6  16   9  449.56   47.40
  -7 -17   9  -38.40   52.49
   7 -17  -9   46.50   45.40
   7  17  -9   19.90   30.40
   5 -17  -9  134.69   53.99
  -5 -17   9  169.18   46.80
  -5 -17   9  170.38   45.30
  -5  17   9  173.88   28.10
   5  17  -9  142.99   30.60
  -3 -17   9  422.76   55.19
  -3 -17   9  423.06   68.29
   3 -17  -9  395.46   64.39
  -3  17   9  324.17   44.00
   3  17  -9  457.05   47.90
  -1 -17   9  447.26   66.79
  -1 -17   9  519.15   65.29
   1 -17  -9  449.76   69.59
  -1  17   9  368.46   45.60
   1  17  -9  539.65   50.29
  -1 -17  -9  805.22  125.09
   1 -17   9  896.71   91.19
   1 -17   9  917.01   88.29
  -1  17  -9 1123.49   79.29
   1  17   9  869.01   72.29
  -3 -17  -9  252.97   84.09
  -3 -17  -9  543.65   70.19
   3 -17   9  511.05   66.69
   3 -17   9  434.96   67.59
   3  17   9  467.85   44.60
  -5 -17  -9  317.77   54.49
   5 -17   9  357.96   55.29
  -5 -17  -9   87.69   95.79
   5 -17   9  393.66   51.99
   5  17   9  293.27   37.20
   4 -18  -9  226.38   67.99
  -4 -18   9  349.77   54.89
  -4 -18   9  331.37   55.79
  -4  18   9  228.78   34.10
   4  18  -9  226.18   37.50
  -2 -18   9   48.40   41.40
   2 -18  -9   65.29   58.59
  -2 -18   9   90.39   42.60
  -2  18   9   57.19   23.80
   2  18  -9   78.89   27.40
   0 -18  -9  124.69   69.09
   0 -18   9    7.70   40.10
   0 -18   9   69.29   41.70
   0  18  -9   95.39   25.90
   0  18   9   38.50   22.20
   2 -18   9   91.99   41.10
  -2 -18  -9  123.79   72.59
   2 -18   9  106.39   44.80
   2  18   9  141.19   27.20
  -2  18  -9  160.28   28.30
   4 -18   9  180.08   46.30
  -4 -18  -9   -1.60   92.29
   4 -18   9  209.18   46.60
  -4 -18  -9  235.88   51.39
   4  18   9  223.18   31.10
  -3 -19   9  374.56   64.59
   3 -19  -9  258.87   77.89
  -3 -19   9  238.88   57.89
  -3  19   9  258.67   35.90
   3  19  -9  271.27   43.80
  -1 -19   9  299.37   56.69
  -1 -19   9  284.07   60.19
   1 -19  -9  188.78   69.39
   1  19  -9  471.65   58.39
  -1  19   9  300.07   36.40
   1 -19   9  460.65   70.29
  -1 -19  -9  542.35   98.89
   1 -19   9  404.46   62.39
  -1  19  -9  515.75   58.79
   1  19   9  460.45   51.49
   3 -19   9  278.87   56.39
  -3 -19  -9  285.17   87.39
  -3 -19  -9  175.98   78.39
   3 -19   9  320.37   56.79
   3  19   9  264.67   36.30
   0 -20   9  -53.99   50.69
   0 -20  -9   -3.50   80.49
 -12   0  10  437.76   56.29
 -12   0  10  491.05   49.40
  12   0 -10  430.96   47.10
  10   0 -10  530.85   46.20
 -10   0  10  633.34   48.10
 -10   0  10  472.35   57.69
   8   0 -10 2132.99  141.29
  -8   0  10 1828.02  143.59
   8   0 -10 2079.09  144.19
  -8   0  10 2298.07  141.79
  -6   0  10   42.90   10.10
   6   0 -10   51.79   16.00
  -6   0  10   48.20   10.30
   6   0 -10   49.60   10.00
   6   0 -10   38.00    9.40
  -6   0  10   66.79   15.00
   4   0 -10  177.38   16.70
  -4   0  10  168.28   20.80
  -4   0  10  202.18   17.60
   4   0 -10  181.88   21.80
  -4   0  10  189.08   17.30
   4   0 -10  192.88   17.10
  -2   0  10   10.20    8.40
  -2   0  10   18.60    5.60
   2   0 -10   11.80    5.10
  -2   0  10   17.10    5.40
   2   0 -10   16.40    6.00
  -2   0  10   15.80    7.70
   0   0  10  928.61   62.59
   0   0 -10  920.51   64.69
   0   0 -10  880.11   59.19
   0   0  10  805.42   58.79
   0   0 -10  870.71   60.49
   0   0  10  817.62   60.49
  -2   0 -10  617.34   48.20
   2   0  10  672.63   45.80
  -2   0 -10  700.93   45.80
   2   0  10  661.43   50.59
   2   0  10  611.14   48.10
  -2   0 -10  688.63   52.89
  -4   0 -10 1860.51  134.59
   4   0  10 1964.50  137.19
  -4   0 -10 2142.89  131.79
   4   0  10 1854.71  131.79
   4   0  10 2066.79  135.09
  -4   0 -10 1988.50  139.59
  -6   0 -10  866.71   69.89
  -6   0 -10  923.31   70.19
  -6   0 -10  973.50   64.29
  -6   0 -10  928.01   74.99
   6   0  10  854.61   71.99
   8   0  10  678.03   49.60
  -8   0 -10  595.04   59.09
  -8   0 -10  607.24   64.59
  10   0  10 1033.10   70.49
 -10   0 -10  913.11   91.29
 -10   0 -10  720.93   84.99
 -12   0 -10  120.39   47.00
 -12   0 -10   90.59   58.79
  12   0  10  122.09   29.20
  13  -1 -10   32.20   26.80
 -13  -1  10  -48.20   46.60
 -13  -1  10   16.40   28.80
  13   1 -10   17.30   26.50
 -13   1  10   38.10   43.90
 -13   1  10   72.09   30.70
  11  -1 -10  -12.40   17.90
 -11  -1  10    8.40   18.80
 -11  -1  10   -4.30   31.50
 -11   1  10    5.90   19.10
  11   1 -10  -25.30   17.40
 -11   1  10   13.50   28.40
   9  -1 -10   86.79   16.90
   9  -1 -10  110.19   29.00
  -9  -1  10  110.19   17.30
  -9  -1  10  110.79   25.30
   9   1 -10   60.89   29.20
  -9   1  10  113.19   23.40
   9   1 -10   92.49   17.60
  -9   1  10  123.29   18.40
   7  -1 -10  951.90   61.19
   7  -1 -10  686.63   57.49
   7  -1 -10  835.42   57.49
  -7  -1  10  826.22   62.29
  -7  -1  10  713.13   56.99
  -7  -1  10  747.93   58.39
   7   1 -10  853.31   57.69
   7   1 -10  857.81   63.29
   7   1 -10  668.73   57.19
  -7   1  10  867.31   57.79
  -7   1  10  793.12   58.39
  -5  -1  10  605.64   44.90
   5  -1 -10  553.44   41.20
  -5  -1  10  595.34   41.60
   5  -1 -10  583.94   41.30
  -5  -1  10  562.74   41.40
   5   1 -10  516.85   41.10
   5   1 -10  532.85   41.00
  -5   1  10  536.95   41.30
  -5   1  10  646.84   42.00
   5   1 -10  600.34   45.00
  -3  -1  10 2977.60  195.78
   3  -1 -10 2747.82  195.68
  -3  -1  10 3120.79  197.18
  -3  -1  10 3111.49  195.48
   3   1 -10 2960.80  195.38
  -3   1  10 2896.11  195.38
   3   1 -10 3119.39  195.88
   3   1 -10 3036.30  197.18
  -3   1  10 2680.23  195.58
  -3   1  10 3030.70  194.98
  -1  -1  10 3587.14  232.68
  -1  -1  10 3553.74  234.18
   1  -1 -10 3490.55  232.78
  -1  -1  10 3609.94  234.58
  -1   1  10 3884.81  236.18
  -1   1  10 3287.97  231.58
   1   1 -10 3273.47  233.78
   1   1 -10 3795.02  236.38
   1   1 -10 3573.94  232.68
  -1   1  10 3384.26  232.58
  -1  -1 -10 1145.39   75.79
   1  -1  10 1175.28   79.69
  -1  -1 -10 1124.99   77.19
  -1  -1 -10 1172.08   82.39
   1  -1  10 1135.19   75.59
   1  -1  10 1101.59   77.79
  -1   1 -10 1031.40   77.69
   1   1  10 1064.79   77.09
   1   1  10 1207.48   80.69
   1   1  10 1091.79   75.69
  -1   1 -10 1137.39   80.79
  -3  -1 -10  773.92   62.89
  -3  -1 -10  758.52   57.39
   3  -1  10  787.72   59.99
   3  -1  10  810.32   54.99
   3  -1  10  804.92   58.09
  -3  -1 -10  802.12   54.69
  -3   1 -10  766.62   61.09
  -3   1 -10  868.21   54.79
  -3   1 -10  855.91   58.49
   3   1  10  729.73   57.29
   3   1  10  807.62   55.19
   3   1  10  791.52   60.19
  -5  -1 -10   26.30   14.40
  -5  -1 -10   24.90   16.00
  -5  -1 -10   60.59   17.10
  -5  -1 -10   42.50    8.40
   5  -1  10   39.90   17.00
   5  -1  10   39.60   12.70
   5  -1  10   36.00    8.30
   5   1  10   55.29    9.00
  -5   1 -10   31.20    8.00
   5   1  10   34.20   16.60
  -5   1 -10   30.30   14.00
  -5   1 -10   49.30   16.20
  -7  -1 -10   16.90   21.40
   7  -1  10   -4.30   29.70
  -7  -1 -10   12.20   19.10
   7  -1  10   17.70   10.40
   7   1  10   44.60   10.90
  -7   1 -10   38.80   19.60
   7   1  10    8.00   24.00
  -7   1 -10    8.90   11.50
  -7   1 -10   18.60   20.60
   9  -1  10   57.79   15.70
  -9  -1 -10   52.69   33.20
  -9  -1 -10   47.30   25.20
  -9   1 -10   59.19   27.20
  -9   1 -10   39.50   31.30
   9   1  10   54.89   15.60
 -11  -1 -10  262.17   49.60
  11  -1  10  243.78   31.30
 -11  -1 -10  221.78   54.39
 -11   1 -10  262.47   51.09
  11   1  10  263.27   32.00
 -11   1 -10  198.78   44.00
 -12  -2  10  277.37   34.60
 -12  -2  10  234.68   45.40
 -12   2  10  246.58   34.90
 -12   2  10  169.48   43.10
  12   2 -10  237.08   33.00
 -12   2  10  260.87   35.90
 -10  -2  10  664.83   50.29
 -10  -2  10  634.24   65.19
  10  -2 -10  657.13   50.29
 -10   2  10  539.55   50.99
 -10   2  10  535.25   57.99
 -10   2  10  568.64   62.09
  10   2 -10  612.04   50.49
  -8  -2  10  728.73   52.49
  -8  -2  10  676.93   58.89
   8  -2 -10  664.93   52.19
  -8   2  10  708.53   53.09
   8   2 -10  720.83   52.49
   8   2 -10  667.83   61.89
   6  -2 -10  462.75   35.80
  -6  -2  10  459.35   40.70
  -6  -2  10  486.25   35.60
   6  -2 -10  445.36   35.10
  -6  -2  10  476.25   35.90
   6   2 -10  503.05   41.30
   6   2 -10  491.85   35.00
  -6   2  10  420.06   35.20
  -6   2  10  439.76   36.20
   6   2 -10  450.95   35.60
   4  -2 -10  100.29   13.00
  -4  -2  10  107.39   16.50
  -4  -2  10  116.29   13.30
  -4   2  10  103.39   13.80
   4   2 -10  111.39   12.60
  -4   2  10  100.79   13.10
   4   2 -10  173.28   20.90
  -4   2  10  118.19   13.50
   4   2 -10  146.29   13.70
   2  -2 -10   22.30    5.90
  -2  -2  10    8.30    4.90
  -2  -2  10    7.50    8.10
   2  -2 -10    9.30   17.20
  -2  -2  10   20.40    5.90
  -2   2  10   16.00    5.40
   2   2 -10  -21.70   11.10
  -2   2  10   14.50    4.90
   2   2 -10   13.40    5.50
  -2   2  10   29.80    6.40
   2   2 -10   15.00    4.80
   0  -2 -10   29.30    6.70
   0  -2  10   22.40   10.50
   0  -2  10   37.80    6.40
   0  -2 -10    0.40   14.20
   0   2  10   32.50   11.10
   0   2  10   26.20    6.20
   0   2 -10   42.20    6.50
   0   2 -10   45.60    9.90
   0   2 -10   25.20   10.90
   2  -2  10 1227.48   85.69
   2  -2  10 1304.47   84.69
  -2  -2 -10 1227.78   89.89
  -2  -2 -10 1262.87   81.79
   2  -2  10 1232.28   81.49
  -2  -2 -10 1098.69   82.99
   2   2  10 1113.99   83.19
  -2   2 -10 1106.69   84.19
   2   2  10 1182.68   86.79
  -2   2 -10 1199.78   86.69
  -2   2 -10 1409.56   81.69
   2   2  10 1203.08   81.89
  -4  -2 -10  607.84   50.09
  -4  -2 -10  641.84   49.30
   4  -2  10  694.23   52.99
  -4  -2 -10  689.93   46.10
   4  -2  10  670.43   45.80
  -4  -2 -10  640.14   55.99
   4  -2  10  619.94   49.70
  -4   2 -10  629.54   50.09
   4   2  10  627.04   46.10
  -4   2 -10  700.63   45.60
  -4   2 -10  670.93   53.09
   4   2  10  585.84   51.59
   6  -2  10  986.30   76.29
  -6  -2 -10  995.80   83.09
   6  -2  10 1065.99   81.79
  -6  -2 -10 1023.60   72.29
  -6  -2 -10 1034.30   77.59
  -6  -2 -10  970.60   77.69
   6  -2  10 1111.39   72.19
  -6   2 -10 1063.29   80.99
  -6   2 -10  945.71   78.19
  -6   2 -10 1148.09   71.99
   6   2  10  926.51   80.69
   6   2  10 1095.19   72.59
   8  -2  10 1022.00   72.99
  -8  -2 -10  999.60   89.09
  -8   2 -10  992.00   86.29
   8   2  10 1051.69   73.59
 -10  -2 -10  368.56   55.19
 -10  -2 -10  356.26   57.39
  10  -2  10  329.07   38.10
  10   2  10  340.97   38.50
 -10   2 -10  358.76   52.09
 -10   2 -10  391.26   51.89
 -12  -2 -10  389.86   81.89
 -12  -2 -10  436.16   58.29
  12  -2  10  403.86   46.30
 -12   2 -10  365.46   66.49
  12   2  10  485.75   49.00
 -12   2 -10  340.17   58.79
 -13  -3  10   31.50   32.30
 -13  -3  10   77.99   51.89
 -13   3  10   43.70   30.60
 -13   3  10   -4.70   46.00
  13   3 -10   40.00   27.00
 -13   3  10    9.30   30.60
 -11  -3  10   16.20   19.40
 -11  -3  10   26.40   37.00
 -11   3  10  -63.59   27.70
  11   3 -10    9.50   19.90
 -11   3  10  -10.20   20.40
 -11   3  10   14.10   21.20
  -9  -3  10  128.89   19.60
  -9  -3  10  150.08   29.50
  -9   3  10  169.58   20.30
   9   3 -10  122.09   19.20
  -9   3  10  107.49   19.90
  -7  -3  10  271.47   32.20
  -7  -3  10  162.28   21.00
   7  -3 -10  162.08   20.50
  -7   3  10  227.48   21.70
   7   3 -10  195.18   20.80
   7   3 -10  223.18   27.90
  -7   3  10  213.08   21.50
  -5  -3  10  601.44   44.50
  -5  -3  10  715.13   45.20
   5  -3 -10  614.44   44.70
  -5  -3  10  603.44   49.30
  -5   3  10  600.34   44.30
   5   3 -10  591.44   44.10
  -5   3  10  615.64   45.00
   5   3 -10  637.14   44.80
   5   3 -10  620.14   50.29
  -5   3  10  635.34   45.00
  -3  -3  10  412.36   31.60
  -3  -3  10  493.35   31.60
  -3  -3  10  436.36   35.00
   3  -3 -10  414.56   31.80
   3  -3 -10  420.86   43.10
  -3   3  10  446.96   31.60
  -3   3  10  423.86   31.60
   3   3 -10  463.65   31.60
   3   3 -10  406.26   30.90
  -3   3  10  436.66   31.10
   3   3 -10  393.96   36.70
  -1  -3  10  671.73   46.90
   1  -3 -10  614.64   42.70
  -1  -3  10  675.53   46.20
   1  -3 -10  679.93   43.90
  -1  -3  10  553.94   43.20
   1   3 -10  630.14   43.50
  -1   3  10  539.55   42.60
   1   3 -10  662.63   46.90
  -1   3  10  603.04   43.50
   1   3 -10  662.33   47.40
   1  -3  10  622.54   48.40
   1  -3  10  703.73   50.39
  -1  -3 -10  691.73   45.60
   1  -3  10  621.14   45.00
  -1  -3 -10  631.54   46.40
   1   3  10  649.64   47.20
   1   3  10  632.64   45.40
   1   3  10  663.03   51.59
  -1   3 -10  671.53   49.30
  -1   3 -10  754.62   45.60
  -1   3 -10  568.94   48.20
  -3  -3 -10  210.08   18.90
  -3  -3 -10  229.38   25.50
  -3  -3 -10  224.78   22.50
   3  -3  10  190.68   23.80
   3  -3  10  238.18   28.20
   3  -3  10  254.57   18.90
  -3  -3 -10  151.58   28.70
  -3   3 -10  217.28   24.20
   3   3  10  234.68   27.60
   3   3  10  232.28   19.70
  -3   3 -10  233.98   24.50
  -3   3 -10  275.17   18.90
  -5  -3 -10  195.78   27.20
   5  -3  10  193.18   26.70
  -5  -3 -10  262.27   28.40
  -5  -3 -10  220.78   20.40
  -5  -3 -10  266.27   37.80
   5  -3  10  223.38   34.90
   5  -3  10  249.58   20.60
  -5   3 -10  231.68   20.30
   5   3  10  253.37   21.20
  -5   3 -10  253.17   28.90
  -5   3 -10  216.18   29.70
   5   3  10  195.88   28.60
   7  -3  10    9.00   10.00
  -7  -3 -10    4.90   25.50
   7  -3  10    5.10   17.60
  -7  -3 -10   37.00   19.30
  -7   3 -10   12.60   17.90
  -7   3 -10   14.60   12.00
   7   3  10    9.20   10.30
   7   3  10   10.10   23.90
   9  -3  10   82.09   17.40
  -9  -3 -10   36.70   26.50
  -9  -3 -10   79.29   41.50
  -9   3 -10  118.79   31.10
   9   3  10   64.99   16.70
  -9   3 -10   64.89   30.80
 -11  -3 -10   26.80   36.20
 -11  -3 -10  -30.70   58.29
  11  -3  10   33.00   20.00
 -11   3 -10   72.09   41.20
 -11   3 -10   33.60   40.50
  11   3  10   54.39   21.90
 -12  -4  10  225.28   50.99
 -12  -4  10  271.37   34.70
 -12   4  10  259.67   37.10
  12   4 -10  218.78   32.80
 -12   4  10  213.78   32.80
 -10  -4  10   86.69   19.60
 -10  -4  10  136.99   35.70
 -10   4  10  109.89   22.80
 -10   4  10  112.29   20.80
  10   4 -10  126.29   21.00
  -8  -4  10  191.78   28.50
  -8  -4  10  185.88   22.70
  -8   4  10  161.38   23.10
  -8   4  10  179.68   21.40
   8   4 -10  200.88   23.00
   6  -4 -10  167.68   17.70
  -6  -4  10  173.38   22.30
  -6  -4  10  143.09   19.20
  -6  -4  10  114.49   16.50
  -6   4  10  133.19   17.80
   6   4 -10  151.58   18.80
  -6   4  10  159.28   18.40
  -6   4  10  121.19   18.00
   6   4 -10  139.69   23.00
  -4  -4  10   11.50    7.00
  -4  -4  10    2.80   11.20
   4  -4 -10    9.00   17.20
  -4  -4  10   12.20    6.70
   4  -4 -10   -6.80    5.80
   4   4 -10    0.30   12.20
  -4   4  10  -25.90   15.20
  -4   4  10   -0.30    7.00
   4   4 -10    7.90    6.10
  -4   4  10    8.80    6.90
  -4   4  10   -1.90    5.90
   4   4 -10   17.90    7.20
  -2  -4  10   16.50   10.60
  -2  -4  10   35.80    6.90
   2  -4 -10   51.89   23.50
   2  -4 -10   30.90    6.60
  -2  -4  10   24.70    5.90
   2  -4 -10   31.70    7.20
   2   4 -10   39.80   11.80
   2   4 -10   29.20    6.10
   2   4 -10   18.80    6.40
  -2   4  10   31.80    6.40
  -2   4  10   -0.90   14.80
  -2   4  10   21.70    6.70
   0  -4  10   61.29    8.30
   0  -4 -10   48.20    7.00
   0  -4 -10   52.69    8.20
   0  -4  10   56.69   11.90
   0   4 -10   56.89    7.70
   0   4 -10   50.89   12.90
   0   4  10   68.49   17.00
   0   4 -10   43.90   11.20
   0   4  10   57.09    8.10
   0   4  10   38.60    6.80
   0   4 -10   50.49   11.20
   2  -4  10   11.50    5.20
  -2  -4 -10    6.80    5.20
  -2  -4 -10    8.40    8.50
   2  -4  10   16.00   10.40
  -2  -4 -10    7.40   11.30
  -2  -4 -10    0.10   17.20
  -2   4 -10   11.10    5.90
  -2   4 -10    8.60   11.00
   2   4  10   10.30   12.70
  -2   4 -10    6.20    9.30
   2   4  10    8.70    5.50
  -2   4 -10   16.50   10.50
  -4  -4 -10  507.55   43.40
  -4  -4 -10  514.85   39.70
   4  -4  10  578.34   39.50
  -4  -4 -10  602.34   44.70
   4  -4  10  585.84   44.30
  -4   4 -10  555.04   45.10
  -4   4 -10  506.95   45.80
  -4   4 -10  523.65   47.10
   4   4  10  549.54   40.20
   4   4  10  542.45   48.20
  -4   4 -10  589.44   39.20
  -6  -4 -10  217.78   25.10
   6  -4  10  277.57   31.20
   6  -4  10  275.37   22.80
  -6  -4 -10  241.98   32.90
  -6  -4 -10  271.77   31.60
  -6   4 -10  266.47   22.50
   6   4  10  191.68   34.80
  -6   4 -10  253.67   32.20
   6   4  10  254.87   24.10
  -6   4 -10  236.28   32.60
  -6   4 -10  242.08   38.30
   8  -4  10   49.40   13.10
  -8  -4 -10   67.29   23.70
  -8  -4 -10   -3.80   35.30
   8  -4  10   50.19   22.10
  -8   4 -10   41.10   22.20
   8   4  10   57.09   14.00
 -10  -4 -10   31.30   30.50
  10  -4  10   53.59   18.20
 -10  -4 -10   33.30   50.49
 -10   4 -10    2.90   40.00
  10   4  10   89.39   20.50
 -10   4 -10   83.69   36.40
 -12  -4 -10   35.50   42.00
 -12  -4 -10   79.99   72.39
  12  -4  10    4.10   25.30
 -12   4 -10   34.60   47.50
  12   4  10   83.79   25.90
 -12   4 -10   16.10   45.90
 -11  -5  10   -2.30   19.40
 -11  -5  10  -14.70   40.80
 -11   5  10   11.60   20.00
 -11   5  10   12.70   21.50
  11   5 -10   14.20   19.00
  -9  -5  10    4.00   14.20
  -9  -5  10   57.39   28.20
  -9   5  10   12.80   14.40
   9   5 -10   14.20   14.40
  -9   5  10  -24.90   14.30
  -7  -5  10   11.20   10.00
  -7  -5  10   13.60   18.20
   7  -5 -10   14.60   11.70
   7   5 -10   14.90   22.10
  -7   5  10   -1.60   10.90
   7   5 -10   -8.00    9.50
  -7   5  10    0.00   10.50
  -5  -5  10   14.10   13.80
   5  -5 -10   24.00    8.60
  -5  -5  10   41.90    9.30
  -5  -5  10   25.60    8.20
   5  -5 -10   18.10   17.50
   5   5 -10   17.20    8.20
  -5   5  10   -6.10   17.40
  -5   5  10   17.70    7.60
   5   5 -10   28.60   17.30
  -5   5  10   15.90    8.00
   5   5 -10   16.90    8.40
  -5   5  10   29.90   10.00
  -3  -5  10  130.89   14.40
   3  -5 -10  143.89   14.50
   3  -5 -10  198.28   27.60
  -3  -5  10  133.39   14.80
  -3  -5  10  146.79   19.50
   3   5 -10  137.69   20.40
  -3   5  10  150.78   14.70
   3   5 -10  147.49   13.90
  -3   5  10  105.19   14.70
  -3   5  10  156.28   15.10
   3   5 -10  160.38   14.70
  -1  -5  10    8.10    5.70
   1  -5 -10   23.20    6.20
  -1  -5  10   14.00   10.10
   1  -5 -10   21.60    5.60
   1  -5 -10   25.60   16.30
   1   5 -10    3.90    8.40
  -1   5  10  -10.80   16.30
   1   5 -10   12.70    5.90
   1   5 -10   -3.40    9.40
   1   5 -10    1.20   10.70
  -1   5  10   14.20    5.20
  -1   5  10   11.00    4.90
  -1  -5 -10   14.40    6.10
   1  -5  10   11.80    9.80
  -1  -5 -10   10.10    4.80
  -1  -5 -10   -5.30   17.60
   1   5  10   43.70   15.90
   1   5  10   11.80    5.40
  -1   5 -10   30.90   10.70
   1   5  10    7.40    5.00
  -1   5 -10    7.70    8.20
  -1   5 -10   -1.80   10.40
   3  -5  10  154.18   22.40
  -3  -5 -10  187.08   15.30
  -3  -5 -10  201.58   22.90
  -3  -5 -10  212.18   20.90
  -3  -5 -10  170.18   16.70
  -3   5 -10  159.68   22.80
   3   5  10  202.88   16.80
  -3   5 -10  166.78   25.30
   3   5  10  197.88   16.40
  -3   5 -10  144.59   22.00
   3   5  10  164.88   27.40
  -5  -5 -10   41.40   16.50
  -5  -5 -10   12.30   14.70
  -5  -5 -10   26.20    9.70
   5  -5  10   15.90   15.00
  -5  -5 -10    5.00   24.10
  -5   5 -10   15.70   19.00
   5   5  10   22.10    8.50
  -5   5 -10   49.80   15.10
   5   5  10  -22.40   17.40
  -5   5 -10   40.80   17.30
   7  -5  10   19.50   18.60
  -7  -5 -10   63.29   20.60
   7  -5  10   37.30   10.70
  -7  -5 -10   -1.90   30.60
  -7   5 -10   41.70   12.20
   7   5  10   36.60   12.30
  -7   5 -10   27.60   21.00
  -9  -5 -10  -31.90   15.00
  -9  -5 -10   -7.00   25.20
   9  -5  10  -12.90   14.10
  -9  -5 -10  -17.30   42.80
  -9   5 -10  -20.10   26.00
  -9   5 -10  -28.50   24.60
   9   5  10    3.10   15.20
  11  -5  10   48.20   20.80
 -11  -5 -10    3.20   38.50
 -11  -5 -10   -3.50   61.89
  11   5  10   42.40   22.60
 -11   5 -10   78.19   44.00
 -11   5 -10   70.39   43.60
 -12  -6  10   27.10   24.80
 -12  -6  10   42.80   51.69
  12   6 -10   88.39   23.40
 -12   6  10   54.59   25.40
 -12   6  10   61.89   30.30
 -10  -6  10  111.79   37.30
 -10  -6  10   -1.20   16.60
 -10   6  10   11.50   17.00
  10   6 -10   -9.10   16.30
 -10   6  10   32.00   19.80
  -8  -6  10  235.18   35.00
  -8  -6  10  177.68   25.50
   8   6 -10  207.08   26.10
  -8   6  10  221.58   25.80
  -8   6  10  240.08   25.70
   6  -6 -10   10.40   10.10
  -6  -6  10   18.70   13.30
  -6  -6  10   30.10   12.50
  -6  -6  10   41.40   11.30
   6  -6 -10   35.70   19.70
  -6  -6  10   59.09   19.90
   6   6 -10   45.30   11.00
   6   6 -10   23.10   20.70
  -6   6  10   44.30   10.30
  -6   6  10   34.80   10.30
   4  -6 -10   49.80    9.60
   4  -6 -10   23.30   19.70
  -4  -6  10   60.09   15.50
  -4  -6  10   44.50    9.20
  -4  -6  10   50.99    9.70
   4   6 -10   58.59    9.40
  -4   6  10   59.79    9.60
   4   6 -10   52.19    9.10
  -4   6  10   12.40   18.50
   4   6 -10   65.59   17.60
  -4   6  10   37.30    9.90
  -4   6  10   38.90    8.90
   2  -6 -10   67.09   10.10
  -2  -6  10  101.49   16.70
   2  -6 -10   74.59   10.10
   2  -6 -10   93.19   25.40
  -2  -6  10   65.99    9.60
  -2  -6  10   83.29    9.80
   2   6 -10   75.39    9.80
  -2   6  10   66.89    9.60
  -2   6  10   75.69   10.00
   2   6 -10   80.09   15.70
   0  -6 -10   -2.40    5.20
   0  -6 -10   -6.90    6.20
   0  -6 -10    5.20   16.40
   0  -6  10   14.80   11.30
   0   6  10   14.30   17.80
   0   6 -10    2.60   11.40
   0   6  10    4.20    5.10
   0   6 -10    0.00   11.80
   0   6  10    5.90    5.70
   0   6 -10   -0.70    8.70
   2  -6  10   77.79   15.50
  -2  -6 -10   64.79    9.40
  -2  -6 -10   66.59   12.40
  -2  -6 -10  106.89   15.80
  -2  -6 -10   66.49    8.80
  -2   6 -10   72.29   14.80
  -2   6 -10   81.59   16.50
   2   6  10   71.79    9.50
  -2   6 -10   60.69   15.40
   2   6  10   92.19   19.30
   2   6  10   81.59   11.20
  -4  -6 -10   -9.60   11.70
  -4  -6 -10   10.60    6.30
   4  -6  10   23.60   13.20
  -4  -6 -10    9.80   12.10
  -4  -6 -10   -4.50    7.70
  -4  -6 -10   21.00   21.70
   4   6  10   12.10    7.20
  -4   6 -10   14.80   15.30
   4   6  10  -16.80   17.50
  -4   6 -10  -12.10   16.40
   4   6  10    5.40    7.60
  -4   6 -10   -1.00   10.80
  -6  -6 -10   27.60   29.50
  -6  -6 -10   28.50   16.10
   6  -6  10    9.80   17.10
  -6  -6 -10    6.90   20.10
  -6  -6 -10   10.80    8.30
  -6   6 -10   19.60    9.20
   6   6  10   16.10   24.40
  -6   6 -10   45.00   18.40
   6   6  10   12.20   10.20
   8  -6  10   15.80   11.70
  -8  -6 -10  -25.10   21.20
   8  -6  10  -11.10   20.30
  -8  -6 -10  -14.10   12.40
  -8  -6 -10   -6.80   40.20
   8   6  10   13.10   13.90
  -8   6 -10   -4.00   22.80
  -8   6 -10  -25.60   15.70
 -10  -6 -10   45.90   33.20
 -10  -6 -10   11.40   52.79
  10  -6  10   43.80   17.30
 -10   6 -10  -10.20   31.50
 -10   6 -10   33.20   38.60
  10   6  10   11.20   19.70
  12  -6  10    2.90   25.00
 -12  -6 -10   39.10   77.29
 -12  -6 -10   10.10   44.30
 -12   6 -10   52.69   54.09
  12   6  10  -33.40   26.20
 -12   6 -10  -49.20   44.30
 -11  -7  10   65.09   47.70
 -11  -7  10   13.10   20.30
 -11   7  10   41.80   25.60
  11   7 -10   28.30   22.50
 -11   7  10   -1.30   21.40
  -9  -7  10   50.19   17.00
  -9  -7  10   88.69   32.50
  -9   7  10   38.40   17.80
  -9   7  10   50.39   15.50
   9   7 -10   34.40   16.60
  -7  -7  10    1.00   11.60
   7  -7 -10    4.30   19.40
  -7  -7  10   10.60   22.90
   7  -7 -10    2.10   12.70
   7   7 -10    4.00   11.40
  -7   7  10    2.90   11.00
  -7   7  10   32.90   11.50
   5  -7 -10   72.89   11.70
  -5  -7  10   95.99   13.00
  -5  -7  10   57.59   12.80
   5  -7 -10   71.09   21.50
  -5  -7  10   61.79   18.10
  -5  -7  10   74.69   12.50
  -5   7  10   20.50   22.20
   5   7 -10   60.19   11.00
  -5   7  10   91.49   12.20
  -5   7  10   71.09   14.10
   5   7 -10   57.99   21.30
  -5   7  10   87.69   12.20
  -3  -7  10  490.45   35.30
  -3  -7  10  501.75   41.70
  -3  -7  10  508.65   36.00
   3  -7 -10  417.86   34.90
   3  -7 -10  536.25   35.90
   3  -7 -10  495.25   51.19
  -3   7  10  453.55   35.20
   3   7 -10  423.66   43.20
   3   7 -10  498.25   35.10
  -3   7  10  477.15   35.50
   3   7 -10  506.95   35.10
  -1  -7  10   91.19   18.10
   1  -7 -10  166.58   29.50
   1  -7 -10  146.19   13.80
   1  -7 -10  128.09   13.70
  -1   7  10  124.69   13.10
   1   7 -10  110.69   18.50
   1   7 -10  116.29   19.70
   1   7 -10   82.99   17.80
  -1   7  10  118.29   13.00
  -1  -7 -10  561.84   40.90
  -1  -7 -10  546.15   41.20
   1  -7  10  608.24   47.30
  -1   7 -10  599.34   47.80
   1   7  10  613.54   41.60
  -1   7 -10  511.95   45.70
   1   7  10  586.94   41.60
  -1   7 -10  653.83   49.20
  -3  -7 -10  299.17   23.20
  -3  -7 -10  317.57   29.70
  -3  -7 -10  247.98   22.10
  -3  -7 -10  248.78   26.70
   3  -7  10  306.77   30.60
  -3   7 -10  247.28   32.10
   3   7  10  254.27   36.20
  -3   7 -10  281.37   34.20
   3   7  10  282.97   23.30
   3   7  10  313.17   23.40
  -3   7 -10  284.17   29.70
  -5  -7 -10    4.40   16.40
   5  -7  10  -27.80   14.90
  -5  -7 -10   10.70   11.10
  -5  -7 -10   16.50   15.10
  -5  -7 -10   -5.90   27.10
  -5  -7 -10    3.40    7.90
   5   7  10    3.30    8.20
  -5   7 -10   -7.60   22.40
   5   7  10   -1.70    9.10
  -5   7 -10   17.20   14.30
   5   7  10   23.40   23.50
  -7  -7 -10   53.39   23.50
   7  -7  10    1.30   19.20
  -7  -7 -10    3.10   33.90
  -7  -7 -10    2.90   11.80
   7   7  10   12.30   12.30
  -7   7 -10   12.50   21.10
   7   7  10    6.20   10.30
   9  -7  10   22.90   26.30
  -9  -7 -10   18.80   27.90
   9  -7  10   26.40   14.70
  -9  -7 -10   46.30   48.30
  -9   7 -10    6.00   29.20
   9   7  10   56.39   15.10
   9   7  10   35.20   17.20
  11  -7  10   32.60   21.00
 -11  -7 -10   11.00   40.00
 -11  -7 -10   25.70   63.49
 -11   7 -10   25.50   50.19
  11   7  10   49.00   21.90
  11   7  10   44.00   24.40
 -11   7 -10   37.80   41.20
 -12  -8  10  194.68   56.59
 -12  -8  10   75.59   29.20
  12   8 -10  121.79   29.60
 -12   8  10  118.39   32.60
 -12   8  10  122.59   27.70
 -10  -8  10  618.74   71.89
 -10  -8  10  510.35   47.30
  10   8 -10  519.85   48.70
 -10   8  10  424.46   46.30
 -10   8  10  534.95   49.80
   8  -8 -10  153.58   29.30
  -8  -8  10   88.09   31.90
  -8  -8  10  135.39   19.50
  -8   8  10   75.29   36.70
  -8   8  10  113.09   19.10
  -8   8  10  108.59   19.10
   8   8 -10  167.68   21.20
  -6  -8  10  115.39   19.00
  -6  -8  10  156.78   28.10
  -6  -8  10  134.19   19.20
   6  -8 -10  162.08   20.40
   6  -8 -10  194.48   29.70
  -6   8  10  173.68   19.40
  -6   8  10  157.18   19.00
   6   8 -10  140.29   20.30
  -4  -8  10   56.69   17.70
   4  -8 -10   49.50    9.80
  -4  -8  10   44.40   11.00
   4  -8 -10   46.20   24.10
   4  -8 -10   33.20   10.70
  -4  -8  10   64.39   10.20
  -4   8  10   46.30   10.20
  -4   8  10  -19.30   23.80
  -4   8  10   47.60   10.30
   4   8 -10   58.29    9.90
   4   8 -10   24.70   20.60
   4   8 -10   59.09    9.70
  -2  -8  10  370.66   34.90
   2  -8 -10  310.67   45.90
   2  -8 -10  354.96   27.30
   2  -8 -10  335.27   27.20
  -2  -8  10  337.07   26.90
  -2  -8  10  356.06   32.90
   2   8 -10  360.76   26.50
  -2   8  10  315.37   26.50
   2   8 -10  354.26   36.70
  -2   8  10  348.17   26.90
   2   8 -10  358.96   36.40
   0  -8 -10    9.20   27.70
   0  -8 -10    0.50    6.40
   0  -8 -10   10.20    7.70
   0  -8  10   16.00   14.00
   0   8  10    0.80   22.20
   0   8 -10   11.00   10.70
   0   8  10    3.10    6.10
   0   8 -10    3.30   15.20
   0   8 -10  -29.80   14.80
   0   8  10   14.90    6.80
   2  -8  10  404.96   38.00
  -2  -8 -10  405.96   30.00
  -2  -8 -10  397.16   30.70
   2   8  10  416.86   31.00
  -2   8 -10  368.76   40.30
   2   8  10  410.56   30.90
  -2   8 -10  454.05   39.40
  -2   8 -10  371.76   37.10
  -4  -8 -10  938.01   61.09
   4  -8  10  902.11   68.09
  -4  -8 -10  969.90   67.79
  -4  -8 -10  886.51   65.89
  -4  -8 -10  841.72   61.59
   4   8  10  837.82   75.19
  -4   8 -10  831.02   69.99
   4   8  10  879.41   61.89
  -4   8 -10  788.22   74.89
  -4   8 -10  857.31   67.59
   4   8  10  903.41   61.79
   6  -8  10  190.38   29.80
  -6  -8 -10  208.38   29.80
  -6  -8 -10  182.18   21.80
   6   8  10  172.18   21.30
  -6   8 -10  209.68   34.70
   6   8  10  194.78   23.30
   8  -8  10  530.05   58.09
  -8  -8 -10  518.25   59.09
  -8   8 -10  544.25   61.19
   8   8  10  635.24   50.19
   8   8  10  642.14   46.90
 -10  -8 -10   99.59   38.90
  10  -8  10  122.19   23.50
 -10   8 -10  144.09   40.30
  10   8  10  166.98   28.30
  10   8  10  113.09   21.90
 -11  -9  10   25.70   47.30
 -11  -9  10    0.30   22.80
  11   9 -10    5.10   26.20
 -11   9  10    9.40   23.30
 -11   9  10  -21.20   27.10
  -9  -9  10   -0.40   36.20
   9  -9 -10   35.70   30.00
  -9  -9  10   33.60   18.60
  -9   9  10   56.19   19.60
  -9   9  10   66.79   19.30
   9   9 -10  101.59   20.80
   7  -9 -10  267.77   32.30
  -7  -9  10  311.47   47.70
  -7  -9  10  356.86   33.10
   7  -9 -10  363.56   46.60
  -7   9  10  408.06   32.70
  -7   9  10  315.47   49.10
   7   9 -10  384.56   34.10
  -7   9  10  422.76   33.30
   5  -9 -10  259.77   42.70
  -5  -9  10  298.37   24.40
  -5  -9  10  247.88   38.40
   5  -9 -10  245.88   24.50
  -5  -9  10  240.78   26.00
  -5   9  10  227.48   24.10
  -5   9  10  247.18   25.50
   5   9 -10  287.47   24.40
  -3  -9  10  924.21   73.49
  -3  -9  10 1078.29   67.49
   3  -9 -10 1118.09   81.49
   3  -9 -10  836.92   66.89
  -3   9  10  917.21   66.49
   3   9 -10  819.02   76.29
  -3   9  10  978.00   67.19
   3   9 -10 1056.59   67.09
  -1  -9  10 1205.18   75.49
  -1  -9  10 1120.09   81.39
   1  -9 -10 1166.48   92.69
  -1  -9  10 1111.99   82.49
   1  -9 -10 1087.99   75.69
   1  -9 -10 1099.09   75.79
   1   9 -10 1053.09   83.49
  -1   9  10 1055.09   75.99
   1   9 -10 1114.99   84.19
  -1  -9 -10  574.44   68.39
  -1  -9 -10  470.95   37.20
   1  -9  10  518.35   44.70
  -1  -9 -10  529.75   37.30
  -1   9 -10  514.75   47.90
   1   9  10  479.85   37.00
  -1   9 -10  476.55   49.50
  -1   9 -10  511.55   43.40
   1   9  10  528.15   37.80
  -3  -9 -10  804.32   59.49
  -3  -9 -10  812.82   59.59
   3  -9  10  908.41   66.59
  -3  -9 -10  867.71   64.89
   3   9  10  877.51   59.99
  -3   9 -10  828.92   66.39
   3   9  10  815.32   80.69
  -3   9 -10  788.72   68.49
   3   9  10  955.10   60.29
   5  -9  10  242.88   34.30
  -5  -9 -10  161.28   25.50
  -5  -9 -10  166.78   20.80
  -5  -9 -10  166.98   27.30
  -5   9 -10  207.78   31.00
   5   9  10  157.68   20.90
   5   9  10  166.58   20.60
  -7  -9 -10   14.50   38.90
  -7  -9 -10   -8.20   23.90
   7  -9  10   -0.80   22.50
   7   9  10    3.50   13.90
   7   9  10    2.40   12.90
  -7   9 -10   -2.70   21.20
  -9  -9 -10    4.60   49.70
   9  -9  10  -40.40   28.50
  -9  -9 -10  -13.00   33.20
  -9   9 -10   20.30   30.90
   9   9  10    7.90   17.80
   9   9  10    0.80   18.60
 -11  -9 -10  117.59   44.20
 -11  -9 -10    4.70   73.89
  11   9  10  136.29   30.10
 -11   9 -10  124.19   47.00
  11   9  10  191.18   28.80
 -10 -10  10   99.09   25.50
  10 -10 -10  168.68   41.10
 -10 -10  10   77.99   46.30
  10  10 -10  141.39   26.70
 -10  10  10  127.29   24.90
 -10  10  10  128.09   26.80
  -8 -10  10 1146.19   97.79
  -8 -10  10  958.60   79.19
   8 -10 -10 1057.89   92.99
  -8  10  10 1166.48   80.69
   8  10 -10 1181.38   81.79
  -8  10  10 1147.19   79.89
  -6 -10  10  312.77   27.00
   6 -10 -10  340.97   48.70
  -6 -10  10  367.06   41.30
  -6 -10  10  249.38   30.70
  -6  10  10  253.57   28.80
  -6  10  10  248.18   26.30
   6  10 -10  206.58   28.00
   4 -10 -10  171.28   34.50
  -4 -10  10  186.88   23.70
  -4 -10  10  149.39   27.90
  -4  10  10  121.69   16.90
   4  10 -10  172.68   19.60
  -2 -10  10  437.66   42.70
  -2 -10  10  490.55   34.10
  -2 -10  10  426.56   41.80
   2 -10 -10  423.76   34.80
   2 -10 -10  456.45   57.79
   2  10 -10  416.06   49.20
  -2  10  10  463.65   33.90
   2  10 -10  320.37   46.20
   2  10 -10  453.75   33.70
   0 -10 -10  835.12   79.69
   0 -10 -10  792.32   54.69
   0 -10 -10  701.13   54.89
   0 -10  10  850.11   62.39
   0 -10  10  709.53   61.69
   0  10 -10  759.32   65.49
   0  10  10  804.12   55.49
   0  10  10  765.32   54.39
   0  10 -10  794.12   65.89
  -2 -10 -10   68.89   11.70
  -2 -10 -10   84.89   11.70
   2 -10  10   97.89   20.60
  -2 -10 -10  125.99   39.80
   2  10  10  -14.90   36.10
   2  10  10   83.29   13.00
  -2  10 -10   41.40   24.50
  -2  10 -10   91.49   20.10
  -2  10 -10   82.99   26.90
   2  10  10   91.69   12.10
  -4 -10 -10  720.43   59.69
  -4 -10 -10  745.93   60.79
   4 -10  10  978.40   69.39
   4  10  10  873.91   60.79
   4  10  10  888.91   60.29
  -4  10 -10  895.41   69.79
   6 -10  10 1601.84  111.69
  -6 -10 -10 1424.56  111.39
   6  10  10 1538.05  104.19
  -6  10 -10 1469.65  113.09
  -8 -10 -10  425.46   52.89
   8 -10  10  356.96   45.40
  -8  10 -10  321.37   45.50
   8  10  10  254.97   32.90
   8  10  10  260.57   35.80
 -10 -10 -10  548.15   78.89
  10 -10  10  683.23   74.89
  10  10  10  634.04   54.99
 -10  10 -10  694.03   80.49
  10  10  10  583.64   60.59
  11 -11 -10    2.00   44.40
  -9 -11  10   14.10   20.60
   9 -11 -10   40.80   34.60
  -9 -11  10  -47.50   41.70
  -9  11  10   10.90   18.90
   9  11 -10   24.30   21.20
  -7 -11  10  746.53   53.59
  -7 -11  10  541.05   69.09
   7 -11 -10  668.53   70.19
  -7  11  10  698.23   53.99
   7  11 -10  657.73   53.89
  -5 -11  10 1041.90   92.69
   5 -11 -10 1164.68   98.29
   5  11 -10 1248.68   83.09
  -5  11  10 1206.08   82.89
  -3 -11  10 1310.57   92.09
  -3 -11  10 1296.57   97.99
  -3 -11  10 1361.16  100.49
   3 -11 -10 1362.06  110.79
  -3  11  10 1380.26   92.39
   3  11 -10 1325.17   91.39
   1 -11 -10 1954.70  154.78
  -1 -11  10 2166.88  144.59
  -1 -11  10 2088.29  145.19
   1  11 -10 2366.06  137.79
  -1  11  10 1947.91  138.09
   1  11 -10 1768.32  146.69
  -1 -11 -10  156.18   19.90
   1 -11  10  242.08   31.10
   1 -11  10  204.78   29.20
  -1 -11 -10  186.78   46.20
   1  11  10  165.08   18.50
  -1  11 -10  147.89   33.10
   1  11  10  160.48   20.50
  -3 -11 -10   89.09   13.80
   3 -11  10   87.49   24.60
  -3 -11 -10  159.28   24.00
  -3 -11 -10  112.39   45.50
   3  11  10   65.19   26.00
   3  11  10   99.29   15.10
   3  11  10  119.19   15.10
  -3  11 -10  126.69   24.60
  -5 -11 -10  171.08   46.10
   5 -11  10  225.58   33.00
  -5 -11 -10  221.38   32.20
   5  11  10  168.68   23.70
   5  11  10  172.48   24.50
  -5  11 -10  194.38   33.70
  -7 -11 -10   11.20   30.40
  -7 -11 -10   21.80   44.50
   7 -11  10   53.39   28.40
  -7  11 -10   46.60   26.60
   7  11  10   38.10   16.80
   7  11  10   64.49   17.50
  -9 -11 -10  -54.69   56.89
  -9 -11 -10  -27.30   39.10
   9 -11  10   17.60   34.70
   9  11  10   19.30   18.50
   9  11  10   18.50   23.60
  -9  11 -10    2.90   35.00
 -10 -12  10  906.51  106.89
  10 -12 -10  664.63   86.89
 -10 -12  10  690.13   63.89
 -10  12  10  717.63   64.79
  10  12 -10  659.83   65.49
  -8 -12  10  253.17   33.20
  -8 -12  10  230.08   46.40
   8 -12 -10  246.38   45.10
  -8  12  10  306.07   35.90
   8  12 -10  262.17   31.80
  -6 -12  10  459.65   59.19
   6 -12 -10  513.55   64.89
  -6 -12  10  496.15   40.70
  -6  12  10  473.15   42.10
   6  12 -10  502.95   43.50
   4 -12 -10  142.69   40.60
  -4 -12  10  127.89   28.50
  -4  12  10  115.49   18.30
   4  12 -10  172.68   22.50
   2 -12 -10  113.69   37.90
  -2 -12  10   55.29   14.70
  -2 -12  10   66.19   23.20
  -2 -12  10   53.49   23.40
   2  12 -10  103.49   13.60
  -2  12  10   78.99   14.50
   2  12 -10   18.50   41.20
   0 -12  10   78.99   21.50
   0 -12 -10   38.10   41.60
   0 -12  10   52.09   23.40
   0  12  10  101.69   14.70
   0  12 -10   99.69   13.20
   0  12 -10   77.59   33.20
  -2 -12 -10  956.40   71.89
   2 -12  10 1141.09   82.09
   2 -12  10 1056.89   83.39
   2  12  10  948.61   71.89
   2  12  10 1126.69   73.99
  -4 -12 -10  929.61   72.89
   4 -12  10 1067.29   74.69
  -4 -12 -10  640.74  103.49
  -4  12 -10  982.40   74.69
   4  12  10  800.82   62.39
   4  12  10  744.13   62.89
  -6 -12 -10  500.25   53.69
   6 -12  10  426.26   56.29
   6  12  10  453.85   41.90
  -6  12 -10  453.05   53.79
   6  12  10  497.95   41.50
  -8 -12 -10  590.84   72.29
   8 -12  10  739.13   69.79
   8  12  10  668.93   55.69
  -8  12 -10  713.03   72.99
   8  12  10  623.54   57.29
 -10 -12 -10  -42.40   73.89
  10 -12  10  194.28   47.90
 -10 -12 -10  173.48   49.40
 -10  12 -10  263.97   50.29
  10  12  10  200.98   33.10
  10  12  10  133.49   27.90
   9 -13 -10  391.46   65.09
  -9 -13  10  176.98   32.30
  -9 -13  10  240.18   53.09
  -9  13  10  231.78   31.20
   9  13 -10  251.97   34.50
  -7 -13  10   99.79   39.10
  -7 -13  10  119.79   22.20
   7 -13 -10   93.99   38.40
   7  13 -10  106.79   23.40
  -7  13  10   94.69   20.70
  -5 -13  10  416.66   57.29
   5 -13 -10  428.96   66.79
  -5  13  10  439.16   41.20
   5  13 -10  499.55   41.70
   3 -13 -10  899.81   90.29
  -3 -13  10  891.31   76.59
  -3 -13  10  906.71   80.49
   3  13 -10  906.71   66.39
  -3  13  10  955.50   66.89
  -1 -13  10  319.77   44.50
  -1 -13  10  317.67   44.60
  -1 -13  10  311.17   31.00
   1 -13 -10  435.86   67.09
   1  13 -10  388.06   64.99
   1  13 -10  345.87   30.50
  -1  13  10  315.17   31.50
   1 -13  10 1333.97   99.29
   1 -13  10 1374.96   99.19
  -1 -13 -10 1068.29  115.29
   1  13  10 1296.17   89.99
  -3 -13 -10  353.96   70.29
  -3 -13 -10  431.26   37.20
   3 -13  10  471.85   52.39
  -3 -13 -10  502.75   52.69
   3 -13  10  497.95   52.89
   3  13  10  436.36   47.90
   3  13  10  407.96   36.60
   3  13  10  462.45   39.00
  -5 -13 -10   28.30   51.19
  -5 -13 -10   -2.00   29.90
   5 -13  10  -11.80   26.60
   5  13  10   26.40   15.40
   5  13  10   18.40   16.40
  -5  13 -10    3.50   26.40
  -7 -13 -10   -3.70   62.99
   7 -13  10   75.79   34.90
  -7 -13 -10   51.29   34.70
   7  13  10   71.59   22.40
  -7  13 -10   82.69   31.90
   7  13  10   63.89   20.40
  -9 -13 -10    1.60   75.99
  -9 -13 -10  146.09   45.90
   9 -13  10  100.89   43.50
   9  13  10  127.49   31.80
  -9  13 -10  130.49   40.60
   9  13  10  151.38   26.50
   8 -14 -10  151.38   48.80
  -8 -14  10  258.27   32.50
  -8 -14  10  150.78   50.19
  -8  14  10  202.98   28.30
   8  14 -10  188.18   30.40
  -6 -14  10   72.99   39.10
   6 -14 -10   27.10   40.80
  -6  14  10   75.89   20.70
   6  14 -10   84.49   21.70
  -4 -14  10   18.70   27.50
   4 -14 -10    8.20   37.40
  -4 -14  10   17.50   28.30
   4  14 -10   11.90   15.90
  -4  14  10   -3.40   13.70
   2 -14 -10  -47.70   39.80
  -2 -14  10   41.80   27.60
  -2 -14  10  -12.10   23.90
  -2  14  10  -11.10   13.20
   2  14 -10    4.60   13.70
   0 -14 -10   48.20   51.39
   0 -14  10   36.80   14.30
   0 -14  10   42.70   27.00
   0 -14  10   66.29   27.40
   0  14 -10   66.89   15.30
   0  14  10   64.49   15.80
   2 -14  10  110.49   29.40
   2 -14  10  129.69   31.40
  -2 -14 -10  188.48   52.39
   2  14  10  157.98   20.10
  -4 -14 -10  293.67   73.69
  -4 -14 -10  423.06   60.29
   4 -14  10  476.85   56.29
   4 -14  10  515.65   57.49
   4  14  10  409.16   37.90
  -4  14 -10  419.16   53.79
   4  14  10  427.86   40.70
  -6 -14 -10  236.38   45.70
   6 -14  10  273.87   43.20
  -6  14 -10  266.97   44.80
   6  14  10  223.78   30.50
   6  14  10  233.98   32.90
   8 -14  10  219.68   43.50
  -8 -14 -10  131.19   48.20
  -8 -14 -10  114.29   79.09
  -8  14 -10  299.47   47.00
   8  14  10  221.68   29.60
   8  14  10  191.78   33.30
   7 -15 -10  143.49   47.50
  -7 -15  10  189.28   48.40
  -7  15  10  168.98   28.30
   7  15 -10  211.78   33.00
  -5 -15  10   81.89   35.90
   5 -15 -10   62.09   45.20
  -5 -15  10   64.89   36.10
   5  15 -10   67.59   19.80
  -5  15  10   38.90   19.60
  -3 -15  10   19.40   29.80
   3 -15 -10   79.89   43.30
  -3 -15  10   20.20   31.20
  -3  15  10   11.50   16.50
   3  15 -10   37.80   19.10
  -1 -15  10  330.07   56.19
  -1 -15  10  473.65   54.49
   1 -15 -10  518.95   70.39
   1  15 -10  510.45   41.20
  -1  15  10  358.86   39.30
   1 -15  10   54.19   28.40
   1 -15  10   65.89   30.10
  -1 -15 -10   56.19   56.49
   1  15  10   72.79   17.30
  -1  15 -10   63.69   15.30
  -3 -15 -10   10.30   34.20
   3 -15  10   53.69   32.90
  -3 -15 -10   40.60   58.49
   3 -15  10   51.89   30.60
   3  15  10   60.09   18.00
  -5 -15 -10   13.80   40.80
   5 -15  10   54.29   33.60
  -5 -15 -10  172.48   68.59
   5  15  10   96.49   21.70
  -5  15 -10   59.19   33.20
   5  15  10   78.69   21.40
  -7 -15 -10   79.79   48.60
   7 -15  10  119.79   38.10
  -7 -15 -10  -22.90   81.99
  -7  15 -10   60.79   35.90
   7  15  10    9.80   22.90
   7  15  10   36.20   25.40
   6 -16 -10   90.79   47.10
  -6 -16  10   10.10   41.30
   6  16 -10   35.80   27.50
  -6  16  10  -11.50   21.40
   4 -16 -10  -22.40   46.70
  -4 -16  10  -11.10   35.30
  -4 -16  10   93.59   39.00
  -4  16  10   13.00   19.30
   4  16 -10   46.60   20.70
   2 -16 -10  -24.50   43.40
  -2 -16  10  -22.90   33.60
  -2 -16  10  -28.60   36.60
   2  16 -10   -0.10   19.50
  -2  16  10   13.00   17.70
   0 -16  10   36.60   33.20
   0 -16  10   -4.40   31.40
   0 -16 -10   61.39   50.69
   0  16 -10   31.90   20.70
   0  16  10   19.40   16.90
   2 -16  10  -12.20   32.00
  -2 -16 -10  -45.70   60.09
   2 -16  10   41.10   29.80
   2  16  10   10.00   16.70
   4 -16  10   14.30   34.40
  -4 -16 -10   21.80   41.80
   4 -16  10   -2.90   34.30
  -4 -16 -10  -55.59   69.99
   4  16  10   42.70   19.70
  -6 -16 -10   81.29   49.60
  -6 -16 -10   55.99   93.49
   6 -16  10  154.88   41.60
  -6  16 -10  100.39   40.50
   6  16  10   82.69   23.90
   6  16  10  107.59   26.40
  -5 -17  10   56.19   44.00
  -5 -17  10   72.09   44.30
   5 -17 -10   87.99   54.49
  -5  17  10    7.40   22.40
   5  17 -10   67.09   26.30
  -3 -17  10   36.20   40.90
  -3 -17  10   37.90   40.90
   3 -17 -10  -76.19   49.40
   3  17 -10   23.00   22.80
  -3  17  10   38.40   21.90
   1 -17 -10   22.10   52.09
  -1 -17  10   13.40   37.30
  -1 -17  10   -4.00   34.80
   1  17 -10   36.70   23.30
  -1  17  10   -3.90   18.60
   1 -17  10  -13.40   33.10
  -1 -17 -10   40.10   55.69
   1 -17  10   54.89   38.60
  -1  17 -10   -6.80   19.90
   1  17  10   23.60   18.70
  -3 -17 -10   -1.20   76.39
   3 -17  10   37.90   39.30
   3 -17  10   35.00   37.90
  -3 -17 -10   42.60   43.20
   3  17  10   37.50   20.00
  -5 -17 -10  -36.10   44.00
  -5 -17 -10 -105.39   86.89
   5 -17  10  -29.30   36.60
  -5  17 -10   -6.20   35.10
   5  17  10  -30.70   23.40
  -4 -18  10   -1.40   42.60
   4 -18 -10  -51.09   53.39
  -4 -18  10   15.80   49.10
   4  18 -10  -10.20   27.00
  -4  18  10   25.20   24.40
  -2 -18  10   36.10   39.50
   2 -18 -10   25.30   55.59
  -2 -18  10    0.70   41.80
   2  18 -10   36.80   30.60
  -2  18  10   20.40   24.50
   0 -18  10   30.50   41.60
   0 -18  10  -15.00   38.20
   0 -18 -10  -89.09   58.09
   0  18  10   19.20   22.00
   0  18 -10   -5.10   24.20
   2 -18  10  138.79   46.20
  -2 -18 -10  108.09   70.89
   2 -18  10  118.19   42.80
   2  18  10  102.89   26.20
   4 -18  10  181.68   48.50
  -4 -18 -10  154.38   54.79
  -4 -18 -10  100.79   87.69
   4 -18  10   64.69   42.80
   4  18  10   88.59   26.30
  -3 -19  10  216.48   54.99
   3 -19 -10  148.29   66.29
  -3 -19  10  135.89   57.79
  -3  19  10  108.39   30.70
   3  19 -10  172.78   39.10
  -1 -19  10  414.46   67.99
  -1 -19  10  396.06   64.99
   1 -19 -10  400.26   79.59
   1  19 -10  515.55   56.79
  -1  19  10  439.46   49.20
   1 -19  10   60.99   46.30
   1 -19  10  126.99   47.30
  -1 -19 -10   71.29   73.29
   1  19  10  121.59   25.70
  -1  19 -10  137.39   31.90
  -3 -19 -10   57.59   75.09
   3 -19  10   33.60   48.00
   3 -19  10  135.09   47.30
   3  19  10   43.30   27.10
 -12   0  11   -8.60   24.20
 -12   0  11   -4.60   41.70
  12   0 -11  -31.90   22.80
 -10   0  11   -4.50   26.90
  10   0 -11   -3.40   14.90
 -10   0  11    8.60   16.60
   8   0 -11  -45.40   20.10
   8   0 -11    1.10   11.20
  -8   0  11   -0.60   13.00
  -8   0  11   14.30   19.20
   6   0 -11   -1.90    8.00
   6   0 -11   -2.50   15.40
  -6   0  11   -2.60    9.20
  -6   0  11   19.00   13.60
  -6   0  11  -10.70    8.00
   6   0 -11    1.20   10.00
   4   0 -11   -2.20    6.10
  -4   0  11   -2.30    6.70
   4   0 -11   -0.40   10.40
  -4   0  11   -0.70    6.10
   4   0 -11   -2.10    6.70
   2   0 -11    0.10    5.60
  -2   0  11   -0.10    5.60
  -2   0  11    0.00    7.60
  -2   0  11   -5.30    5.10
   2   0 -11   -2.70    7.90
   2   0 -11    9.40   16.30
   0   0 -11   13.60   11.40
   0   0 -11    0.60    7.80
   0   0 -11    1.90    5.30
   0   0  11   -0.10    5.00
   0   0  11   -2.10    8.10
   0   0  11   -1.20    7.70
   2   0  11    4.60   10.30
   2   0  11    4.00    8.90
   2   0  11   -3.80    4.70
  -2   0 -11  -18.70    8.00
  -2   0 -11    8.30   11.40
  -2   0 -11   -2.90    5.40
   4   0  11  -10.10    5.70
   4   0  11   -6.00   13.80
  -4   0 -11  -12.50   13.30
  -4   0 -11   -1.90    6.60
  -4   0 -11    5.10   11.90
   4   0  11   -7.40    9.60
   6   0  11   20.30    9.20
   6   0  11   16.10   20.70
  -6   0 -11   -0.70   17.90
  -6   0 -11   17.80   16.10
  -6   0 -11    2.80    9.50
  -6   0 -11    7.00   18.30
  -8   0 -11   -4.80   27.00
  -8   0 -11    2.20   22.30
   8   0  11   12.00   13.30
 -10   0 -11   17.30   30.60
  10   0  11   39.60   17.90
 -10   0 -11   24.20   39.50
  12   0  11    0.40   24.80
 -12   0 -11    7.80   55.69
 -12   0 -11   -9.00   45.90
 -13  -1  11   11.60   49.90
 -13  -1  11    5.10   28.90
 -13   1  11  -38.60   28.90
  13   1 -11    3.70   26.30
 -13   1  11   36.30   49.20
 -11  -1  11  -21.30   19.90
  11  -1 -11   -5.50   19.20
 -11  -1  11  -18.70   35.00
 -11   1  11    7.00   31.40
 -11   1  11  -17.70   20.30
  11   1 -11   10.00   19.50
   9  -1 -11   10.40   14.40
   9  -1 -11   39.90   25.70
  -9  -1  11   14.30   14.90
  -9  -1  11   49.20   23.60
   9   1 -11   55.19   29.20
  -9   1  11    9.70   14.70
  -9   1  11   66.19   23.50
   9   1 -11   15.10   13.40
   7  -1 -11   75.09   13.60
   7  -1 -11   78.79   19.40
  -7  -1  11   84.19   18.40
  -7  -1  11   57.49   12.60
   7   1 -11  100.09   20.80
   7   1 -11   79.59   13.70
  -7   1  11   69.79   13.00
   5  -1 -11   64.29   10.80
  -5  -1  11   74.89   11.60
  -5  -1  11   92.89   15.40
  -5  -1  11   78.49   10.80
   5  -1 -11   77.09   11.20
  -5   1  11   68.19   10.70
  -5   1  11   81.39   11.70
   5   1 -11   63.09   10.70
   5   1 -11   56.39   14.80
   5   1 -11   55.09    9.90
   3  -1 -11  125.29   13.60
  -3  -1  11  105.29   13.10
  -3  -1  11  117.09   13.60
  -3  -1  11  124.09   16.30
   3   1 -11  113.19   18.60
  -3   1  11  145.99   13.50
  -3   1  11  121.89   13.50
   3   1 -11  126.99   12.50
  -3   1  11  130.99   12.60
   3   1 -11  123.19   13.50
  -1  -1  11  255.87   22.60
  -1  -1  11  219.18   18.10
   1  -1 -11  224.78   18.40
  -1  -1  11  176.58   21.40
   1   1 -11  233.88   18.40
   1   1 -11  223.08   25.90
   1   1 -11  204.78   21.30
  -1   1  11  212.38   23.50
  -1   1  11  213.48   18.00
  -1  -1 -11   74.99   11.70
   1  -1  11   78.79   14.20
   1  -1  11   66.99    9.50
   1  -1  11   62.79   12.30
  -1  -1 -11   73.39   17.40
  -1  -1 -11   66.79    9.30
   1   1  11   61.59   10.70
   1   1  11   82.49   15.00
  -1   1 -11   76.59   15.80
  -1   1 -11   69.49   12.20
   1   1  11   66.69    9.50
   3  -1  11   70.29   15.80
   3  -1  11   67.99    9.30
  -3  -1 -11   67.39   12.70
  -3  -1 -11   76.59   18.80
   3  -1  11   66.09   13.70
  -3  -1 -11   53.89    9.20
   3   1  11   41.50   11.70
   3   1  11   69.79   10.00
  -3   1 -11   76.69   14.80
  -3   1 -11   73.49   16.00
  -3   1 -11   67.99    9.10
   3   1  11   55.89   14.20
   5  -1  11  -13.80   15.60
  -5  -1 -11    2.00    7.90
  -5  -1 -11   12.60   13.70
  -5  -1 -11   23.80   17.90
   5  -1  11    1.00    7.40
  -5  -1 -11   26.80   14.00
   5  -1  11    7.90   12.50
  -5   1 -11   15.80    8.30
  -5   1 -11   14.00   14.20
   5   1  11   11.40   17.10
  -5   1 -11    5.50   13.90
   5   1  11    4.60    7.70
   7  -1  11   16.00   10.20
  -7  -1 -11   39.00   20.90
  -7  -1 -11   -5.10   22.60
  -7   1 -11  -14.80   20.40
   7   1  11   -2.10   10.10
  -7   1 -11    2.50   20.10
  -9  -1 -11  -12.40   24.90
  -9  -1 -11   18.50   34.10
   9  -1  11   15.90   14.40
  -9   1 -11   20.00   30.20
   9   1  11   -0.50   14.20
  -9   1 -11    1.20   28.60
 -11  -1 -11   77.39   37.00
 -11  -1 -11   50.69   49.20
  11  -1  11  157.98   24.30
 -11   1 -11   90.29   46.80
  11   1  11  148.59   25.20
 -11   1 -11  176.68   44.50
 -12  -2  11  128.19   27.80
 -12  -2  11  101.89   44.00
 -12   2  11   95.99   30.70
 -12   2  11  115.39   28.90
 -12   2  11   -1.20   39.30
  12   2 -11   94.59   26.20
 -10  -2  11  170.88   23.90
 -10  -2  11  150.88   35.30
  10   2 -11  181.88   25.80
 -10   2  11  165.68   31.70
 -10   2  11  145.19   25.20
  -8  -2  11  105.99   23.50
   8  -2 -11   57.29   15.20
  -8  -2  11   51.89   14.40
   8   2 -11   77.69   15.40
   8   2 -11   66.49   25.00
  -8   2  11   62.89   14.90
  -6  -2  11   -1.40   13.50
  -6  -2  11   11.30    8.50
   6  -2 -11    3.00   10.00
  -6  -2  11   -0.20   10.00
   6   2 -11  -10.30   15.50
  -6   2  11  -12.30    8.60
  -6   2  11   13.80    8.60
   6   2 -11    1.10    8.00
   6   2 -11   -1.70    9.70
  -6   2  11    1.40   10.30
   4  -2 -11   33.90    8.30
  -4  -2  11   64.89    9.60
  -4  -2  11   35.50   12.90
  -4  -2  11   55.49    9.40
   4   2 -11   58.39   14.10
  -4   2  11   66.29    8.70
   4   2 -11   47.60    9.00
   4   2 -11   43.30    8.90
  -4   2  11   77.59   10.50
  -4   2  11   59.09    9.30
   2  -2 -11  375.26   29.20
  -2  -2  11  424.46   28.50
  -2  -2  11  403.16   28.90
  -2  -2  11  434.76   33.30
   2   2 -11  355.96   32.60
  -2   2  11  374.06   28.70
  -2   2  11  360.96   28.10
   2   2 -11  361.76   29.00
  -2   2  11  446.16   35.10
   2   2 -11  409.56   28.30
  -2   2  11  387.56   29.20
   0  -2  11  673.73   48.50
   0  -2  11  740.33   52.69
   0  -2  11  660.73   51.59
   0  -2 -11  728.93   49.30
   0   2 -11  739.63   49.00
   0   2  11  685.23   54.29
   0   2 -11  743.83   51.79
   0   2 -11  702.53   53.59
   0   2  11  691.63   48.90
  -2  -2 -11  580.14   39.40
   2  -2  11  577.54   43.00
  -2  -2 -11  472.65   41.20
   2  -2  11  515.75   43.90
  -2  -2 -11  592.54   51.09
   2  -2  11  564.74   39.10
  -2   2 -11  496.25   43.00
   2   2  11  524.85   41.60
   2   2  11  551.64   39.60
  -2   2 -11  628.24   39.30
  -2   2 -11  570.04   45.70
   2   2  11  588.24   46.00
  -4  -2 -11  763.62   63.39
   4  -2  11  757.92   59.59
   4  -2  11  817.52   52.49
  -4  -2 -11  658.93   55.89
   4  -2  11  794.02   56.99
  -4  -2 -11  729.63   52.39
   4   2  11  715.33   59.19
  -4   2 -11  813.22   52.29
  -4   2 -11  682.73   59.49
  -4   2 -11  738.33   57.49
   4   2  11  748.33   52.69
  -6  -2 -11  112.69   23.00
  -6  -2 -11  170.28   25.60
   6  -2  11  117.19   30.20
  -6  -2 -11  105.59   16.00
  -6  -2 -11  161.88   29.60
   6  -2  11  134.59   16.70
   6  -2  11  128.99   21.90
   6   2  11  126.19   17.70
  -6   2 -11  103.79   24.70
  -6   2 -11  127.19   17.30
  -6   2 -11  110.69   23.50
   6   2  11  144.09   27.30
  -8  -2 -11  334.97   55.89
  -8  -2 -11  293.77   38.90
   8  -2  11  312.67   31.40
   8   2  11  351.76   32.50
  -8   2 -11  368.86   46.80
  -8   2 -11  322.37   48.80
  10  -2  11   65.99   19.60
 -10  -2 -11    4.00   42.70
 -10  -2 -11   -7.40   32.20
 -10   2 -11   30.90   31.20
  10   2  11   62.59   18.70
 -10   2 -11    0.20   35.70
  12  -2  11   46.70   26.20
 -12  -2 -11   -5.50   71.99
 -12  -2 -11   36.00   44.80
 -12   2 -11   39.40   45.20
  12   2  11   41.20   25.30
 -12   2 -11   26.20   50.29
 -11  -3  11   59.69   21.40
 -11  -3  11   79.39   41.00
  11   3 -11   30.10   21.60
 -11   3  11   35.90   21.60
 -11   3  11   11.30   21.80
  -9  -3  11  547.25   43.90
  -9  -3  11  597.34   60.99
  -9   3  11  525.55   44.20
  -9   3  11  496.05   43.70
   9   3 -11  486.75   43.60
  -7  -3  11  459.65   35.40
  -7  -3  11  400.96   42.40
  -7   3  11  424.16   34.50
  -7   3  11  396.16   35.10
   7   3 -11  481.55   45.40
   7   3 -11  410.06   34.40
   5  -3 -11  498.95   41.60
  -5  -3  11  557.64   45.80
  -5  -3  11  545.05   41.70
  -5  -3  11  573.64   42.00
  -5   3  11  592.64   42.00
  -5   3  11  562.34   41.40
   5   3 -11  574.04   41.50
   5   3 -11  656.33   42.30
   5   3 -11  573.04   47.90
  -5   3  11  592.94   42.40
  -3  -3  11 1691.93  110.39
   3  -3 -11 1610.44  110.99
  -3  -3  11 1541.45  113.19
  -3  -3  11 1758.42  111.09
   3   3 -11 1676.73  110.89
  -3   3  11 1649.04  110.99
   3   3 -11 1702.23  113.79
  -3   3  11 1585.24  110.59
   3   3 -11 1723.93  110.39
  -3   3  11 1631.94  110.19
   1  -3 -11  201.08   16.70
  -1  -3  11  217.78   22.40
  -1  -3  11  176.98   21.40
  -1  -3  11  209.88   17.20
   1  -3 -11  207.68   17.50
  -1   3  11  182.38   16.00
  -1   3  11  204.88   26.00
   1   3 -11  214.68   23.10
   1   3 -11  202.68   22.40
   1   3 -11  224.88   17.70
  -1   3  11  199.88   17.20
   1  -3  11  274.07   25.90
   1  -3  11  335.57   30.20
   1  -3  11  273.97   21.40
  -1  -3 -11  288.57   23.70
  -1  -3 -11  291.97   22.20
   1   3  11  264.27   28.70
  -1   3 -11  286.97   27.10
  -1   3 -11  305.57   22.20
   1   3  11  272.27   24.10
   1   3  11  241.58   21.50
  -1   3 -11  276.57   26.30
  -3  -3 -11   44.10   12.60
  -3  -3 -11   46.70    8.30
   3  -3  11   56.89    8.90
   3  -3  11   39.00   12.50
  -3  -3 -11    7.90   19.70
   3  -3  11   87.89   17.70
  -3  -3 -11   56.99   16.90
   3   3  11   31.40   14.50
  -3   3 -11   23.00   12.50
  -3   3 -11   54.89   13.80
   3   3  11   46.30    9.30
  -5  -3 -11   34.40    9.90
   5  -3  11   28.60   13.30
   5  -3  11   40.80    9.10
  -5  -3 -11   37.10   15.10
  -5  -3 -11   59.79   24.20
   5  -3  11    3.00   19.40
  -5  -3 -11   62.79   17.80
  -5   3 -11   19.50   14.50
   5   3  11   12.30   17.00
   5   3  11   42.60    9.80
  -5   3 -11   29.60    8.20
  -5   3 -11   35.40   17.80
  -7  -3 -11   46.90   29.30
  -7  -3 -11   39.80   20.10
   7  -3  11   22.30   10.80
   7  -3  11   16.80   18.40
   7   3  11   40.40   11.90
  -7   3 -11    9.10   21.90
  -7   3 -11   11.70   13.60
  -9  -3 -11  493.05   84.59
   9  -3  11  651.43   47.50
  -9  -3 -11  511.35   60.49
  -9   3 -11  508.45   64.49
   9   3  11  562.84   48.40
  -9   3 -11  562.94   67.09
 -11  -3 -11  428.06   54.49
  11  -3  11  339.67   40.40
 -11  -3 -11  134.59   69.59
  11   3  11  328.27   43.80
 -11   3 -11  350.46   55.19
 -11   3 -11  293.67   55.19
 -12  -4  11  587.04   53.99
 -12  -4  11  592.34   87.19
 -12   4  11  500.75   53.49
 -12   4  11  491.45   54.39
  12   4 -11  403.96   51.49
 -10  -4  11  264.77   41.40
 -10  -4  11  202.08   25.30
 -10   4  11  209.78   25.90
  10   4 -11  127.49   24.50
 -10   4  11  232.38   31.00
  -8  -4  11  171.08   22.20
  -8  -4  11  162.38   30.10
   8   4 -11  190.48   23.70
  -8   4  11  193.68   21.70
  -8   4  11  216.88   24.20
  -6  -4  11    7.20   15.60
   6  -4 -11   -4.20    9.60
  -6  -4  11   15.30   11.20
  -6  -4  11   15.60    9.20
   6   4 -11   -0.90    8.10
   6   4 -11   -4.00   17.90
   6   4 -11    3.10   10.50
  -6   4  11    1.60    8.60
  -6   4  11  -10.40   12.30
  -6   4  11    2.60    9.30
  -4  -4  11  211.48   26.60
  -4  -4  11  244.78   20.80
   4  -4 -11  252.17   35.20
  -4  -4  11  236.58   21.10
   4  -4 -11  246.78   20.90
  -4   4  11  243.58   20.40
   4   4 -11  242.08   20.00
   4   4 -11  247.48   29.10
  -4   4  11  214.78   20.50
  -4   4  11  223.48   21.00
   4   4 -11  237.28   20.50
   2  -4 -11   18.20    6.70
  -2  -4  11   30.00   10.80
   2  -4 -11   23.10   21.60
  -2  -4  11    5.60    5.70
   2   4 -11   27.80   12.00
  -2   4  11   17.80    5.80
   2   4 -11   23.90    5.90
  -2   4  11   28.40    6.60
  -2   4  11   17.70    6.60
   2   4 -11   16.00    7.00
  -2   4  11   -4.50   16.30
   0  -4  11  130.89   19.70
   0  -4  11  150.28   13.70
   0  -4 -11  152.88   15.10
   0  -4 -11  147.29   13.50
   0   4  11  181.88   24.80
   0   4 -11  128.19   19.50
   0   4  11  152.68   14.30
   0   4 -11  167.48   14.50
   0   4  11  140.49   13.30
   0   4 -11  155.38   19.60
   0   4 -11  152.98   21.00
  -2  -4 -11 1013.90   68.99
   2  -4  11  943.81   72.59
  -2  -4 -11  931.01   70.19
   2  -4  11 1052.39   68.49
  -2  -4 -11 1059.89   71.89
   2   4  11  905.41   68.89
  -2   4 -11 1046.70   73.29
  -2   4 -11  975.00   74.29
   2   4  11  961.60   75.89
  -2   4 -11 1144.79   68.69
  -2   4 -11 1076.09   74.09
  -4  -4 -11 1097.99   79.29
   4  -4  11 1262.17   79.19
  -4  -4 -11 1135.59   82.89
   4  -4  11 1111.49   83.19
  -4  -4 -11 1207.18   83.19
  -4   4 -11 1217.48   78.79
   4   4  11 1205.38   79.89
   4   4  11 1079.29   86.79
  -4   4 -11 1177.98   85.69
  -4   4 -11 1149.19   86.89
  -4   4 -11 1125.19   84.19
  -6  -4 -11 1262.77   99.09
   6  -4  11 1354.66   98.69
  -6  -4 -11 1346.87   99.89
   6  -4  11 1480.05   93.39
  -6   4 -11 1345.97  101.19
   6   4  11 1236.58  102.39
   6   4  11 1325.17   94.09
  -6   4 -11 1506.95   92.89
   8  -4  11 1338.87  101.49
  -8  -4 -11 1182.58  102.79
   8  -4  11 1388.76   94.29
   8   4  11 1410.66   95.29
  -8   4 -11 1395.66  106.99
  10  -4  11   21.40   17.60
 -10  -4 -11   23.20   54.99
 -10  -4 -11   33.50   31.90
  10   4  11   27.50   19.80
 -10   4 -11   11.10   34.50
 -10   4 -11   -7.90   33.30
 -12  -4 -11   12.60   43.40
  12  -4  11   18.90   24.40
 -12  -4 -11   -8.90   73.39
  12   4  11   48.70   26.70
 -12   4 -11   54.49   50.19
 -12   4 -11    8.80   49.00
 -11  -5  11  353.46   55.49
 -11  -5  11  350.96   39.80
 -11   5  11  303.27   40.90
  11   5 -11  286.47   39.70
 -11   5  11  366.46   41.60
  -9  -5  11  354.16   47.00
  -9  -5  11  440.66   36.70
  -9   5  11  347.67   36.20
   9   5 -11  364.86   35.40
  -9   5  11  342.57   37.20
  -7  -5  11 1655.93  119.69
  -7  -5  11 1649.73  114.09
   7   5 -11 1661.03  113.89
   7   5 -11 1543.55  120.29
  -7   5  11 1719.33  113.49
  -7   5  11 1766.62  114.29
   5  -5 -11 2071.09  142.59
   5  -5 -11 2085.99  147.99
  -5  -5  11 2278.27  142.99
  -5  -5  11 1803.02  145.89
  -5  -5  11 2170.78  142.99
   5   5 -11 2065.39  142.49
  -5   5  11 2210.78  142.59
   5   5 -11 2258.47  147.29
  -5   5  11 2328.57  143.49
  -5   5  11 2055.09  142.79
   5   5 -11 2165.48  142.69
  -3  -5  11  511.65   37.50
   3  -5 -11  570.54   50.39
   3  -5 -11  462.35   37.50
  -3  -5  11  567.44   43.30
  -3  -5  11  525.85   37.50
   3   5 -11  525.95   43.90
  -3   5  11  504.25   37.80
  -3   5  11  460.15   37.10
  -3   5  11  509.85   37.70
   3   5 -11  565.34   37.20
   3   5 -11  546.65   37.70
  -1  -5  11 1686.13  116.79
   1  -5 -11 1624.24  113.29
   1  -5 -11 1743.03  112.49
  -1   5  11 1678.73  112.69
   1   5 -11 1690.53  115.89
  -1   5  11 1658.83  113.29
   1   5 -11 1706.33  112.99
   1   5 -11 1790.02  117.39
   1   5 -11 1693.83  116.59
   1  -5  11  143.29   20.10
  -1  -5 -11  167.18   14.80
  -1  -5 -11  142.99   13.20
  -1   5 -11  127.19   19.80
   1   5  11  135.09   13.90
  -1   5 -11  142.69   22.20
  -1   5 -11  128.69   19.20
   1   5  11  149.79   25.70
   1   5  11  126.89   13.50
  -3  -5 -11  111.79   16.40
  -3  -5 -11   87.69   12.00
  -3  -5 -11  132.29   17.20
   3  -5  11  113.29   18.50
  -3   5 -11   88.49   18.70
   3   5  11   94.29   13.60
  -3   5 -11  121.99   20.20
   3   5  11   91.89   21.30
  -3   5 -11  143.59   20.60
   5  -5  11    3.10    7.60
  -5  -5 -11    8.20   15.70
  -5  -5 -11  -16.10   14.70
   5  -5  11   -5.00   13.90
  -5  -5 -11   -2.10   24.50
  -5  -5 -11   20.30   10.70
  -5   5 -11  -11.70   18.80
   5   5  11   10.40   19.20
  -5   5 -11    6.90    7.70
  -5   5 -11    4.40   14.80
   5   5  11   23.30    9.10
  -5   5 -11  -10.30   18.30
   7  -5  11  929.51   57.99
   7  -5  11  743.53   65.79
  -7  -5 -11  750.12   67.59
   7   5  11  643.14   58.09
  -7   5 -11  864.41   57.79
  -7   5 -11  808.12   68.99
  -9  -5 -11  607.84   66.89
   9  -5  11  697.83   52.79
  -9   5 -11  713.03   70.09
   9   5  11  580.04   53.59
  11  -5  11  634.44   52.79
 -11  -5 -11  562.24   78.09
 -11   5 -11  589.54   82.39
  11   5  11  451.15   57.99
 -11   5 -11  641.94   87.49
 -12  -6  11  323.67   46.40
 -12  -6  11  504.05   72.09
 -12   6  11  521.75   52.99
 -12   6  11  323.97   47.00
  12   6 -11  342.57   46.40
 -10  -6  11  347.47   49.70
 -10  -6  11  320.57   37.50
 -10   6  11  375.46   40.40
 -10   6  11  363.96   36.70
  10   6 -11  325.37   38.00
  -8  -6  11  673.13   47.90
  -8  -6  11  582.04   59.99
   8   6 -11  561.94   46.90
  -8   6  11  547.75   48.20
  -8   6  11  602.24   46.80
   6  -6 -11   15.30   20.70
  -6  -6  11    5.20   17.90
  -6  -6  11    8.10   10.40
  -6  -6  11   17.10   13.60
   6  -6 -11   23.00   10.60
   6   6 -11   33.80   23.60
   6   6 -11   15.20   10.10
  -6   6  11   31.30   10.70
  -6   6  11    3.90   22.20
  -6   6  11   29.60   10.40
  -4  -6  11  219.58   29.20
   4  -6 -11  218.38   20.70
   4  -6 -11  302.97   34.90
  -4  -6  11  208.28   21.40
  -4  -6  11  228.08   20.50
  -4   6  11  209.18   21.80
   4   6 -11  231.48   20.10
   4   6 -11  194.78   30.20
  -4   6  11  206.68   20.40
  -4   6  11  211.48   20.50
   4   6 -11  223.98   20.40
  -2  -6  11  442.96   38.10
  -2  -6  11  477.95   33.00
   2  -6 -11  467.65   50.99
   2  -6 -11  449.16   32.50
   2  -6 -11  500.75   33.80
  -2  -6  11  441.56   32.80
   2   6 -11  424.06   32.70
   2   6 -11  458.05   39.20
  -2   6  11  410.66   32.60
   2   6 -11  460.35   32.40
  -2   6  11  425.36   33.00
   0  -6 -11 1786.32  114.69
   0  -6 -11 1734.13  113.59
   0  -6  11 1596.94  118.19
   0   6  11 1692.83  113.99
   0   6 -11 1632.94  118.49
   0   6 -11 1850.71  119.09
   0   6  11 1676.03  114.29
   0   6 -11 1724.73  117.39
  -2  -6 -11  998.30   66.29
  -2  -6 -11  887.01   63.59
   2  -6  11  911.71   68.49
  -2  -6 -11  897.21   62.59
  -2  -6 -11  885.81   64.89
  -2   6 -11  938.21   68.29
  -2   6 -11  906.81   69.99
   2   6  11  919.41   63.19
  -2   6 -11  991.60   69.49
   2   6  11  970.80   63.99
   2   6  11  856.11   72.49
  -4  -6 -11 1867.01  134.39
  -4  -6 -11 1977.20  130.59
   4  -6  11 2187.88  137.29
  -4  -6 -11 2056.89  135.49
  -4  -6 -11 1907.61  131.89
   4   6  11 1939.31  141.39
   4   6  11 1937.31  132.19
  -4   6 -11 1971.50  137.89
  -4   6 -11 1868.91  139.69
   4   6  11 2035.30  131.09
  -4   6 -11 1910.11  137.69
   6  -6  11 1319.87   99.19
   6  -6  11 1458.05   91.99
  -6  -6 -11 1424.96   99.19
  -6   6 -11 1380.96  101.69
   6   6  11 1155.38   92.79
   8  -6  11  490.35   50.29
  -8  -6 -11  403.46   51.39
   8  -6  11  484.85   39.10
   8   6  11  479.25   41.50
  -8   6 -11  474.75   54.89
   8   6  11  435.66   37.50
 -10  -6 -11  120.09   39.40
 -10  -6 -11   31.20   58.49
  10  -6  11  201.68   24.50
 -10   6 -11  155.58   39.50
 -10   6 -11  176.98   41.80
  10   6  11  132.19   26.40
 -11  -7  11   21.70   42.90
 -11  -7  11   27.70   21.70
 -11   7  11   49.80   22.50
 -11   7  11   -1.70   24.60
  11   7 -11   17.40   22.00
  -9  -7  11  412.26   58.69
  -9  -7  11  456.55   40.30
  -9   7  11  440.86   42.10
  -9   7  11  419.66   39.00
   9   7 -11  382.66   40.40
  -7  -7  11  639.34   51.19
  -7  -7  11  654.23   62.49
   7  -7 -11  643.94   60.89
  -7   7  11  724.73   51.29
  -7   7  11  689.13   51.19
   7   7 -11  710.73   52.29
  -5  -7  11  498.75   39.50
  -5  -7  11  518.75   38.30
  -5  -7  11  522.95   46.80
   5  -7 -11  488.55   38.20
   5  -7 -11  516.35   50.09
   5   7 -11  411.86   50.09
  -5   7  11  553.04   38.50
  -5   7  11  516.95   38.80
   5   7 -11  481.25   38.00
   5   7 -11  503.45   38.60
   3  -7 -11 1732.23  119.59
  -3  -7  11 1731.93  119.19
   3  -7 -11 1678.73  118.99
  -3  -7  11 1668.33  123.99
  -3  -7  11 1941.71  119.79
   3  -7 -11 1943.61  130.49
  -3   7  11 1815.62  119.69
   3   7 -11 1707.03  125.59
  -3   7  11 1804.52  119.69
   3   7 -11 1843.72  119.29
   3   7 -11 1777.42  119.19
   1  -7 -11  316.37   24.20
   1  -7 -11  291.57   24.90
   1  -7 -11  362.06   55.69
  -1  -7  11  320.37   31.60
   1   7 -11  350.26   33.80
   1   7 -11  320.37   28.80
  -1   7  11  292.17   24.60
  -1   7  11  286.67   24.40
  -1  -7 -11  470.25   35.00
   1  -7  11  508.65   41.50
  -1  -7 -11  467.45   34.30
   1   7  11  468.05   34.90
   1   7  11  463.65   34.60
  -1   7 -11  470.15   42.30
  -1   7 -11  454.65   39.40
  -1   7 -11  489.05   43.20
  -3  -7 -11  281.47   23.90
   3  -7  11  321.77   31.80
  -3  -7 -11  309.47   30.00
  -3  -7 -11  266.57   28.00
  -3  -7 -11  300.17   22.90
  -3   7 -11  283.57   35.10
   3   7  11  275.57   39.70
   3   7  11  283.17   24.00
   3   7  11  301.97   24.50
  -3   7 -11  282.17   31.20
  -3   7 -11  245.98   35.70
  -5  -7 -11   64.79   18.00
  -5  -7 -11   58.89   19.20
  -5  -7 -11   -2.10   28.50
  -5  -7 -11   69.59   10.80
   5  -7  11   61.69   19.40
   5   7  11  100.29   12.20
   5   7  11   74.09   13.00
  -5   7 -11  101.39   21.90
  -7  -7 -11  103.49   15.90
  -7  -7 -11   75.39   24.30
  -7  -7 -11   67.49   39.40
   7  -7  11  109.59   26.80
   7   7  11  119.59   18.60
  -7   7 -11  123.69   27.50
   7   7  11  138.69   16.20
   9  -7  11  433.56   38.40
  -9  -7 -11  488.05   56.29
   9  -7  11  337.57   54.09
  -9   7 -11  419.36   58.79
   9   7  11  341.57   41.30
  11  -7  11  378.96   45.10
 -11  -7 -11  416.26   57.29
 -11   7 -11  381.96   60.19
  11   7  11  425.56   50.59
  11   7  11  353.86   46.80
 -11   7 -11  360.86   65.99
 -10  -8  11  374.26   39.80
 -10  -8  11  377.86   51.89
 -10   8  11  327.67   41.30
 -10   8  11  299.47   38.60
  10   8 -11  343.87   41.00
  -8  -8  11   46.80   29.70
  -8  -8  11   30.70   15.60
   8  -8 -11   25.40   26.50
  -8   8  11   38.40   16.40
  -8   8  11   30.20   15.70
  -8   8  11   18.60   36.10
   8   8 -11    3.10   15.70
  -6  -8  11  142.99   21.50
   6  -8 -11  232.48   32.10
  -6  -8  11  138.39   27.80
  -6  -8  11  170.08   20.80
   6  -8 -11  154.48   18.80
  -6   8  11  176.28   21.90
  -6   8  11  146.09   20.40
   6   8 -11  144.69   18.90
  -4  -8  11   90.99   20.60
   4  -8 -11   91.29   12.80
   4  -8 -11  115.29   29.30
  -4  -8  11   92.19   13.00
  -4  -8  11  109.99   14.40
   4  -8 -11   67.39   13.60
  -4   8  11   84.49   13.60
   4   8 -11   58.49   24.80
   4   8 -11  134.79   14.50
  -4   8  11   86.99   13.40
   4   8 -11  105.79   12.70
   2  -8 -11  669.53   52.69
   2  -8 -11  717.73   52.29
  -2  -8  11  786.42   58.89
   2  -8 -11  819.82   71.59
  -2  -8  11  815.42   52.69
   2   8 -11  747.73   60.99
  -2   8  11  764.22   52.79
  -2   8  11  736.33   52.59
   2   8 -11  802.32   52.29
   2   8 -11  713.93   56.39
   2   8 -11  703.13   59.59
   0  -8  11  204.08   27.30
   0  -8 -11  314.77   47.10
   0  -8 -11  227.68   19.70
   0  -8 -11  187.58   18.50
   0   8 -11  193.18   30.90
   0   8  11  207.88   18.30
   0   8  11  201.88   18.20
   0   8 -11  198.38   30.50
   0   8 -11  156.98   25.40
  -2  -8 -11  673.53   47.80
  -2  -8 -11  620.54   47.10
   2  -8  11  806.02   55.89
   2   8  11  523.55   65.09
  -2   8 -11  746.23   53.89
   2   8  11  659.73   47.80
   2   8  11  684.63   48.10
  -2   8 -11  667.93   56.09
  -2   8 -11  635.04   57.09
  -4  -8 -11  999.40   69.59
  -4  -8 -11  874.61   65.89
  -4  -8 -11  988.20   71.59
   4  -8  11 1007.50   72.89
  -4  -8 -11  859.81   64.49
  -4   8 -11 1011.20   72.79
   4   8  11  944.51   65.59
   4   8  11  869.21   65.99
   6  -8  11  279.97   41.70
  -6  -8 -11  380.06   42.10
  -6  -8 -11  355.66   29.70
   6   8  11  321.17   29.50
  -6   8 -11  346.27   42.70
   6   8  11  341.77   31.80
   8  -8  11  543.75   57.39
  -8  -8 -11  561.54   58.79
   8   8  11  531.75   45.80
   8   8  11  524.55   42.90
  -8   8 -11  432.66   60.29
  10  -8  11  123.39   36.50
 -10  -8 -11  -82.99   62.49
 -10  -8 -11   26.70   37.10
  10   8  11   73.49   24.70
 -10   8 -11  104.59   38.40
  10   8  11   66.99   20.40
 -11  -9  11  217.08   54.89
 -11  -9  11  215.78   33.10
 -11   9  11  251.07   33.50
 -11   9  11  264.47   35.10
  11   9 -11  186.08   31.60
   9  -9 -11  252.37   41.20
  -9  -9  11  263.37   48.50
  -9  -9  11  216.68   29.20
  -9   9  11  287.07   34.00
   9   9 -11  259.67   36.10
  -9   9  11  225.48   29.10
   7  -9 -11  101.69   29.70
  -7  -9  11   86.69   17.40
  -7  -9  11   74.89   27.60
  -7   9  11   41.00   37.10
   7   9 -11   95.79   17.40
  -7   9  11   89.99   16.50
  -7   9  11   78.79   17.10
  -5  -9  11  723.03   51.59
   5  -9 -11  694.13   51.79
  -5  -9  11  691.83   63.19
   5  -9 -11  678.83   67.19
  -5  -9  11  675.93   53.49
  -5   9  11  671.23   52.29
  -5   9  11  762.32   51.69
   5   9 -11  753.52   51.99
   3  -9 -11   81.29   29.40
   3  -9 -11   56.09   13.00
  -3  -9  11   64.19   20.10
  -3  -9  11   75.39   12.50
   3  -9 -11   81.79   12.80
  -3   9  11   61.59   11.10
   3   9 -11   86.59   11.90
  -3   9  11   64.59   11.30
   3   9 -11   21.40   26.40
   1  -9 -11  231.58   23.10
  -1  -9  11  236.18   32.00
   1  -9 -11  323.57   54.09
   1  -9 -11  270.97   23.20
   1   9 -11  297.17   39.60
  -1   9  11  251.17   22.70
  -1   9  11  292.07   22.90
   1   9 -11  274.47   28.80
   1   9 -11  249.58   34.40
  -1  -9 -11  392.76   30.60
  -1  -9 -11  455.85   64.79
   1  -9  11  412.66   40.10
  -1  -9 -11  383.86   31.10
   1   9  11  364.26   30.60
   1   9  11  437.26   30.60
  -1   9 -11  333.57   42.60
  -1   9 -11  373.16   37.10
  -1   9 -11  395.46   43.20
  -3  -9 -11   52.59   31.00
  -3  -9 -11    4.80    9.90
  -3  -9 -11   31.80   16.60
  -3  -9 -11   28.60   13.70
  -3  -9 -11    2.80    9.50
   3  -9  11    5.10   16.30
  -3   9 -11    0.80   24.30
   3   9  11    7.30    9.10
  -3   9 -11   31.10   14.80
   3   9  11   21.30   10.10
  -5  -9 -11   20.10   34.20
  -5  -9 -11   -0.90   11.80
   5  -9  11   30.20   21.70
  -5  -9 -11  -20.60   19.30
  -5  -9 -11   -8.40   19.40
  -5   9 -11    4.60   16.60
   5   9  11    9.00   10.80
   5   9  11   14.20   12.20
   7  -9  11  107.09   28.40
  -7  -9 -11   77.89   28.30
  -7  -9 -11   -8.80   38.10
  -7   9 -11   78.59   27.00
   7   9  11   95.59   16.00
   7   9  11   98.09   17.50
  -9  -9 -11  271.07   46.70
   9  -9  11  328.77   45.50
   9   9  11  287.97   30.30
  -9   9 -11  291.27   46.00
   9   9  11  205.48   31.40
 -11  -9 -11  309.97   53.39
 -11  -9 -11   54.19   73.89
  11   9  11  168.58   33.30
  11   9  11  196.08   30.10
 -11   9 -11  215.18   49.90
 -11   9 -11  244.68   50.59
 -10 -10  11   -5.10   45.80
 -10 -10  11  -14.90   22.00
  10 -10 -11   -2.20   41.30
 -10  10  11   49.10   21.40
  10  10 -11   19.80   23.20
 -10  10  11   30.50   24.70
   8 -10 -11   18.90   28.70
  -8 -10  11   -5.60   16.70
  -8 -10  11   45.30   32.10
  -8  10  11   16.10   16.70
  -8  10  11   17.20   17.60
   8  10 -11   25.50   18.00
  -6 -10  11   49.20   27.50
   6 -10 -11   58.29   28.10
  -6 -10  11   43.10   19.10
   6 -10 -11   51.29   15.10
  -6 -10  11   97.39   15.50
  -6  10  11   57.09   14.60
  -6  10  11   95.19   17.00
   6  10 -11  109.49   16.50
   4 -10 -11  -50.39   28.90
  -4 -10  11   16.20   14.30
   4 -10 -11   23.70   10.90
  -4 -10  11   28.20   21.70
  -4  10  11   12.50   36.50
  -4  10  11   18.40   11.00
   4  10 -11   17.30   11.20
  -4  10  11   21.40   10.40
  -2 -10  11   33.00    9.80
   2 -10 -11   -4.30   33.40
  -2 -10  11   42.90   17.80
   2 -10 -11   11.40   10.40
  -2 -10  11   34.20   17.60
   2  10 -11   14.00   21.30
  -2  10  11   11.30    8.80
  -2  10  11  -20.00   32.20
   2  10 -11   28.30    8.60
   0 -10  11  115.99   22.80
   0 -10  11   98.49   21.60
   0 -10 -11  112.19   14.00
   0 -10 -11  137.39   41.30
   0 -10 -11  117.69   14.70
   0  10  11  128.89   15.40
   0  10 -11  137.49   21.20
   0  10  11   96.69   14.40
   0  10 -11   90.79   23.70
  -2 -10 -11  144.99   41.90
  -2 -10 -11   59.09   12.50
  -2 -10 -11   70.99   12.60
   2 -10  11   93.29   23.80
  -2  10 -11  102.09   22.30
   2  10  11  104.49   13.70
  -2  10 -11   67.69   28.40
   2  10  11   80.49   12.10
   4 -10  11  -15.90   18.90
  -4 -10 -11    6.80   33.30
  -4 -10 -11  -10.80   19.10
  -4 -10 -11   24.20   18.70
   4  10  11    2.10   11.10
  -4  10 -11   23.30   18.10
   4  10  11   11.00   10.40
   6 -10  11   96.89   25.80
  -6 -10 -11   82.09   25.60
  -6 -10 -11   49.40   40.80
  -6  10 -11   94.99   26.70
   6  10  11   73.49   16.80
   6  10  11  104.49   16.90
  -8 -10 -11   82.69   33.30
  -8 -10 -11   44.00   50.59
   8 -10  11   67.59   31.30
  -8  10 -11   21.80   30.50
   8  10  11   44.10   21.80
   8  10  11   34.70   16.20
 -10 -10 -11   35.90   44.00
  10 -10  11   74.19   41.40
 -10 -10 -11  -75.69   69.19
  10  10  11   73.89   21.10
 -10  10 -11   50.09   42.00
  10  10  11   52.79   27.80
   9 -11 -11   55.99   36.00
  -9 -11  11   54.29   40.30
  -9 -11  11    5.10   21.00
   9  11 -11   31.70   21.60
  -9  11  11   41.60   22.10
  -9  11  11   45.20   20.80
   7 -11 -11    6.20   30.50
  -7 -11  11   29.70   31.00
  -7 -11  11   16.50   16.50
  -7  11  11   18.20   16.00
  -7  11  11  -14.00   15.40
   7  11 -11   54.09   16.70
  -5 -11  11   71.99   14.10
  -5 -11  11   80.39   27.70
   5 -11 -11   41.20   32.50
   5  11 -11   58.79   15.10
  -5  11  11   24.10   13.80
  -3 -11  11   16.10   13.70
  -3 -11  11   41.40   24.20
   3 -11 -11   17.30   31.70
  -3 -11  11   31.40   18.80
  -3  11  11   15.00   11.10
   3  11 -11   22.20   10.30
  -1 -11  11   60.59   19.80
   1 -11 -11   36.80   12.40
   1 -11 -11   78.29   37.00
  -1 -11  11   65.99   20.10
   1  11 -11   13.80   24.50
  -1  11  11   64.59   11.80
   1  11 -11   50.79   10.60
  -1 -11 -11    1.80   10.50
  -1 -11 -11  -11.90   39.00
   1 -11  11   -5.80   17.00
   1 -11  11   17.40   19.90
   1  11  11    6.60    9.20
  -1  11 -11    1.60   27.90
  -1  11 -11   27.40   17.00
   1  11  11    7.90   10.30
  -3 -11 -11   61.09   20.30
  -3 -11 -11   40.20   45.20
   3 -11  11   25.90   20.20
  -3 -11 -11   10.30   12.50
   3  11  11    4.20   10.80
  -3  11 -11  -25.50   18.20
   3  11  11   10.80   10.70
   5 -11  11    6.80   23.10
  -5 -11 -11   -1.90   36.20
  -5 -11 -11   16.70   24.70
   5  11  11  -13.10   13.30
   5  11  11    8.90   13.20
  -5  11 -11   -5.40   19.50
  -7 -11 -11   -0.10   32.50
  -7 -11 -11   -0.50   48.60
   7 -11  11   28.10   28.50
  -7  11 -11    7.30   24.90
   7  11  11   14.20   18.10
   7  11  11    2.10   15.40
  -9 -11 -11   14.40   40.30
   9 -11  11   90.39   36.00
  -9 -11 -11  -34.40   63.29
   9  11  11   21.30   19.30
   9  11  11   30.60   24.40
  -9  11 -11   11.30   36.30
 -10 -12  11   44.60   27.00
  10 -12 -11   -8.50   43.80
 -10 -12  11   52.59   51.09
  10  12 -11   32.20   26.80
 -10  12  11   -3.60   26.50
  -8 -12  11   25.80   21.90
  -8 -12  11   18.70   40.20
   8 -12 -11   24.40   33.50
   8  12 -11   16.60   20.00
  -8  12  11    6.80   18.70
  -6 -12  11  183.58   37.60
   6 -12 -11  204.18   42.70
   6  12 -11  164.18   22.90
  -6  12  11  148.09   21.20
  -4 -12  11   33.70   26.80
   4 -12 -11   57.29   33.00
  -4  12  11    3.70   12.50
  -2 -12  11  104.49   23.60
  -2 -12  11  139.09   29.50
  -2 -12  11  100.09   17.10
   2 -12 -11  126.89   43.40
   2  12 -11  109.69   15.10
  -2  12  11   82.39   15.50
   2  12 -11   86.29   43.20
   0 -12  11   42.10   22.10
   0 -12 -11    5.20   38.10
   0 -12  11   -0.30   19.50
   0  12  11   23.90   11.00
   0  12 -11   18.60   29.90
   0  12  11  -13.10    9.60
   2 -12  11  100.19   27.30
  -2 -12 -11  157.18   49.90
  -2 -12 -11  113.89   17.10
   2  12  11  153.88   21.40
   2  12  11  128.39   16.90
  -2  12 -11  167.98   27.60
  -4 -12 -11   48.30   49.10
   4 -12  11   80.39   25.00
  -4 -12 -11   45.60   24.40
   4  12  11   41.00   14.90
  -4  12 -11   30.00   23.80
   4  12  11   34.50   14.20
   4  12  11  -29.00   34.60
  -6 -12 -11    3.40   49.40
   6 -12  11   -5.70   27.60
  -6 -12 -11   23.90   28.40
   6  12  11    0.00   15.40
   6  12  11   27.10   14.80
  -6  12 -11   23.10   24.10
  -8 -12 -11  -45.50   58.49
  -8 -12 -11   61.89   37.60
   8 -12  11   98.99   36.10
  -8  12 -11   67.69   34.60
   8  12  11   97.99   24.50
   8  12  11   76.29   20.40
   9 -13 -11  168.58   45.30
  -9 -13  11  158.98   28.00
  -9 -13  11   34.20   49.50
  -9  13  11   99.79   25.20
   9  13 -11  111.69   30.50
  -7 -13  11  186.78   43.00
   7 -13 -11  154.18   42.30
   7  13 -11  177.18   25.30
  -7  13  11  130.59   23.80
  -5 -13  11  103.59   33.10
   5 -13 -11  125.59   42.20
  -5  13  11  112.49   19.60
   5  13 -11   63.89   17.80
  -3 -13  11  440.16   49.70
   3 -13 -11  449.95   69.19
  -3 -13  11  446.66   52.29
   3  13 -11  420.66   37.90
  -3  13  11  435.66   37.80
  -1 -13  11   29.10   13.80
   1 -13 -11   54.49   48.60
  -1 -13  11   22.80   22.70
  -1 -13  11   69.69   24.20
   1  13 -11   76.89   59.79
  -1  13  11   68.59   15.40
   1  13 -11   52.79   12.60
   1 -13  11  155.38   30.70
  -1 -13 -11  119.69   47.90
   1 -13  11  145.39   31.00
   1  13  11  140.19   19.20
  -3 -13 -11   80.29   52.29
   3 -13  11  105.29   29.90
  -3 -13 -11   33.50   29.80
   3  13  11   -6.80   32.70
   3  13  11   88.49   14.60
   3  13  11   37.70   15.50
  -3  13 -11  117.69   27.10
  -5 -13 -11   40.70   31.90
   5 -13  11   26.40   28.50
  -5 -13 -11   18.50   51.09
   5  13  11    7.40   16.10
   5  13  11    2.30   16.10
  -5  13 -11   -5.60   26.30
  -7 -13 -11   74.89   35.70
  -7 -13 -11  -51.29   59.29
   7 -13  11    8.00   32.50
   7  13  11   49.70   23.00
  -7  13 -11   15.40   30.10
   7  13  11    8.70   19.20
   9 -13  11  126.79   45.10
  -9 -13 -11  144.09   44.80
  -9 -13 -11   34.90   81.99
   9  13  11   99.89   24.20
   9  13  11   86.99   31.30
  -9  13 -11   93.39   41.60
   8 -14 -11  147.79   48.90
  -8 -14  11  206.48   31.40
  -8 -14  11  144.69   52.49
   8  14 -11  225.68   30.30
  -8  14  11  159.78   27.30
   6 -14 -11   63.29   40.90
  -6 -14  11   -3.20   37.60
   6  14 -11   37.10   20.10
  -6  14  11   -9.50   19.50
  -4 -14  11   43.50   31.30
   4 -14 -11   19.90   41.50
  -4 -14  11   65.19   33.10
  -4  14  11   42.30   17.00
   4  14 -11   49.00   16.20
   4  14 -11   -7.20   38.20
  -2 -14  11  137.69   38.20
  -2 -14  11  224.28   35.30
   2 -14 -11  224.88   54.09
   2  14 -11  175.68   22.90
  -2  14  11  196.18   23.70
   0 -14  11  581.14   59.79
   0 -14  11  581.94   59.99
   0 -14 -11  569.44   85.69
   0  14  11  539.25   47.00
   2 -14  11  140.59   34.40
  -2 -14 -11  107.89   52.09
   2 -14  11  181.28   35.70
   2  14  11  199.08   22.70
   4 -14  11  687.83   63.29
  -4 -14 -11  543.85   65.59
  -4 -14 -11  354.06   77.89
   4  14  11  469.55   45.20
  -4  14 -11  644.54   61.99
   4  14  11  527.45   47.00
   6 -14  11  729.23   69.99
  -6 -14 -11  538.25   63.59
  -6  14 -11  579.04   66.19
   6  14  11  528.75   49.70
   6  14  11  517.35   51.29
  -8 -14 -11   -8.30   76.89
   8 -14  11  149.69   41.80
  -8 -14 -11  131.49   48.10
   8  14  11   74.89   29.60
  -8  14 -11   78.59   39.30
   8  14  11  172.18   26.70
   7 -15 -11  652.73   82.89
  -7 -15  11  477.25   69.19
   7  15 -11  600.84   55.89
  -7  15  11  625.24   57.79
   5 -15 -11  571.04   74.49
  -5 -15  11  422.86   56.49
  -5  15  11  394.26   43.60
   5  15 -11  413.76   44.50
  -3 -15  11  247.38   43.30
   3 -15 -11  279.67   54.49
  -3 -15  11  380.46   53.39
   3  15 -11  239.38   29.00
  -3  15  11  215.88   27.60
  -1 -15  11  862.11   80.29
  -1 -15  11  979.40   81.89
   1 -15 -11  990.50  106.99
   1  15 -11  927.81   66.49
  -1  15  11  743.83   66.59
   1 -15  11   78.89   32.90
  -1 -15 -11   38.00   57.79
   1 -15  11   38.90   28.90
   1  15  11   45.30   16.80
  -3 -15 -11   59.39   38.10
   3 -15  11   75.09   31.50
   3 -15  11   45.30   32.90
  -3 -15 -11   59.69   56.39
   3  15  11   53.19   17.80
   3  15  11   68.69   20.00
  -5 -15 -11  -17.50   38.50
   5 -15  11    5.70   33.30
  -5 -15 -11   22.00   82.09
  -5  15 -11    4.70   32.70
   5  15  11   20.60   19.80
   5  15  11   18.00   19.90
  -7 -15 -11   65.49   85.59
   7 -15  11  309.97   48.50
  -7 -15 -11  281.57   55.19
   7  15  11  263.07   35.50
   7  15  11  283.97   34.00
  -7  15 -11  333.57   58.19
  -6 -16  11   28.60   44.30
   6 -16 -11   92.39   50.29
  -6  16  11   45.90   23.10
   6  16 -11   64.19   26.40
  -4 -16  11   23.30   36.10
  -4 -16  11   21.00   41.90
   4 -16 -11   -9.80   48.50
  -4  16  11   70.49   21.70
   4  16 -11   17.70   21.60
  -2 -16  11   86.19   36.30
  -2 -16  11  126.79   38.20
   2 -16 -11   94.09   53.89
   2  16 -11  116.49   24.60
  -2  16  11   80.69   21.80
   0 -16  11  379.36   50.79
   0 -16  11  352.26   56.59
   0 -16 -11  407.56   72.79
   0  16 -11  285.57   39.90
   0  16  11  253.37   35.90
   2 -16  11  573.94   66.99
  -2 -16 -11  301.67   83.19
   2 -16  11  624.04   66.39
   2  16  11  454.05   45.50
  -4 -16 -11  514.65   61.29
   4 -16  11  476.45   60.29
  -4  16 -11  482.95   63.59
   6 -16  11  692.83   75.79
  -6 -16 -11  515.35   73.49
   6  16  11  497.25   51.89
  -6  16 -11  567.44   72.79
   6  16  11  533.85   55.59
  -5 -17  11  768.62   91.39
   5 -17 -11  778.22  106.89
  -5 -17  11  692.33   88.69
  -5  17  11  726.53   64.79
   5  17 -11  742.23   72.79
  -3 -17  11  543.85   81.69
   3 -17 -11  718.43   98.79
  -3 -17  11  697.53   82.39
   3  17 -11  593.94   56.39
  -3  17  11  590.64   57.39
   1 -17 -11  175.28   64.99
  -1 -17  11  123.49   41.50
  -1 -17  11  183.28   43.20
  -1  17  11  187.68   27.60
   1  17 -11  158.28   30.80
   1 -17  11  491.25   67.59
   1 -17  11  410.06   58.39
  -1 -17 -11  538.75   94.39
   1  17  11  449.66   45.20
   3 -17  11  -28.30   36.30
  -3 -17 -11  -11.00   80.09
  -3 -17 -11    3.50   47.00
   3 -17  11   30.60   37.90
   3  17  11  -15.20   19.80
  -5 -17 -11  -41.20   49.30
   5 -17  11   65.39   42.20
   5  17  11   63.09   24.80
  -5  17 -11   12.90   39.10
  -4 -18  11   28.00   47.80
   4 -18 -11   36.40   60.19
  -4 -18  11   -6.50   47.70
  -4  18  11   24.90   25.70
   4  18 -11   39.30   28.00
  -2 -18  11  226.38   52.79
   2 -18 -11  364.56   73.39
  -2 -18  11  193.68   46.70
  -2  18  11  249.58   34.10
   2  18 -11  302.77   36.90
   0 -18  11  154.28   47.50
   0 -18 -11  189.58   74.79
   0 -18  11  234.88   48.00
   0  18 -11  226.48   37.00
   0  18  11  221.78   31.20
  -2 -18 -11  509.25  103.49
   2 -18  11  679.13   79.89
   2 -18  11  627.14   79.59
   2  18  11  535.85   56.19
  -4 -18 -11  548.65   79.69
   4 -18  11  764.82   85.49
  -4  18 -11  784.82   81.79
   4  18  11  592.74   63.49
   3 -19 -11   91.89   66.49
  -3 -19  11  235.78   59.99
  -1 -19  11  304.87   58.79
  -1 -19  11  328.77   57.39
   1 -19 -11  267.27   71.59
   1  19 -11  377.96   48.30
  -1  19  11  218.68   34.30
   1 -19  11   41.50   47.10
   1 -19  11    6.20   42.80
  -1 -19 -11   56.39   74.29
   1  19  11   12.90   24.00
  -1  19 -11  -41.20   30.70
 -12   0  12  474.95   53.69
 -12   0  12  710.23   81.49
  12   0 -12  461.65   50.79
  10   0 -12  -12.80   17.10
 -10   0  12   20.90   28.30
 -10   0  12    9.20   18.20
  -8   0  12   19.10   12.40
   8   0 -12   11.10   22.00
   8   0 -12   -3.60   11.70
   6   0 -12   75.69   18.90
  -6   0  12  113.99   17.90
   6   0 -12   69.19   12.60
   6   0 -12   48.30   13.20
  -6   0  12   96.89   13.50
  -6   0  12   67.59   12.50
  -4   0  12 1588.54  103.49
   4   0 -12 1542.75  103.59
   4   0 -12 1399.36  103.49
  -4   0  12 1628.44  103.99
   2   0 -12  190.48   16.50
  -2   0  12  167.18   15.00
  -2   0  12  198.58   16.80
   2   0 -12  135.99   18.00
  -2   0  12  155.58   19.80
  -2   0  12  202.18   20.80
   0   0 -12 5027.60  355.36
   0   0  12 5579.24  357.76
   0   0  12 5368.36  353.96
   0   0 -12 5678.73  354.26
   0   0 -12 5708.93  359.96
   0   0  12 5067.29  355.26
  -2   0 -12 2711.93  183.18
   2   0  12 2617.04  175.88
  -2   0 -12 2491.65  177.98
  -2   0 -12 2956.30  176.08
   2   0  12 2546.25  178.08
   2   0  12 2629.84  180.48
   4   0  12  202.78   18.50
  -4   0 -12  184.28   18.80
  -4   0 -12  235.18   31.60
   4   0  12  214.98   30.00
   4   0  12  196.98   24.50
  -4   0 -12  180.68   23.40
  -6   0 -12  880.41   65.59
  -6   0 -12  920.21   72.09
  -6   0 -12  980.30   78.09
   8   0  12  167.88   21.40
  -8   0 -12  239.78   37.20
  -8   0 -12  150.88   35.20
 -10   0 -12  -24.40   39.20
  10   0  12   26.50   18.10
 -10   0 -12   12.30   32.90
 -12   0 -12   54.79   58.49
 -12   0 -12   52.49   47.00
  12   0  12    7.50   26.60
 -11  -1  12  619.64   56.59
  11  -1 -12  627.54   55.19
 -11  -1  12  747.83   77.09
  11   1 -12  620.04   55.19
 -11   1  12  732.93   72.59
 -11   1  12  576.84   56.29
  -9  -1  12  798.02   71.29
  -9  -1  12  867.31   61.89
   9  -1 -12  818.12   60.99
   9   1 -12  711.53   73.59
  -9   1  12  767.02   60.99
  -9   1  12  820.42   68.99
   9   1 -12  807.02   60.69
   7  -1 -12  556.74   45.40
  -7  -1  12  556.74   51.39
  -7  -1  12  616.34   45.70
  -7   1  12  611.74   46.30
   7   1 -12  597.54   45.30
   7   1 -12  664.33   53.49
  -5  -1  12 1410.86  100.59
  -5  -1  12 1413.76   98.49
   5  -1 -12 1459.65   98.49
  -5  -1  12 1427.06   98.19
   5  -1 -12 1431.36   98.29
   5   1 -12 1558.44  100.99
   5   1 -12 1594.54   98.49
  -5   1  12 1443.16   98.49
  -5   1  12 1366.26   98.19
   5   1 -12 1401.06   98.39
  -3  -1  12  578.94   43.40
   3  -1 -12  582.84   43.60
  -3  -1  12  581.34   42.90
  -3  -1  12  576.94   45.70
   3   1 -12  650.83   43.80
  -3   1  12  602.34   42.40
  -3   1  12  631.64   43.20
   3   1 -12  604.64   43.00
   3   1 -12  652.63   46.80
  -3   1  12  647.04   43.70
   1  -1 -12  644.84   43.10
  -1  -1  12  621.14   46.60
  -1  -1  12  570.84   45.10
  -1  -1  12  582.64   42.50
  -1   1  12  595.34   47.30
   1   1 -12  615.64   45.50
   1   1 -12  636.64   42.80
   1   1 -12  621.84   49.10
  -1   1  12  546.35   42.50
  -1  -1 -12   19.70    9.50
   1  -1  12   15.90    6.40
  -1  -1 -12   14.00    6.30
   1  -1  12   19.40   11.90
   1  -1  12    0.00    9.10
  -1  -1 -12   19.40   14.20
   1   1  12   22.10    7.00
   1   1  12   13.80    8.40
  -1   1 -12   14.90   11.20
  -1   1 -12   41.60   13.30
   1   1  12   21.30   11.00
  -1   1 -12   22.60    7.20
   3  -1  12  522.95   34.40
  -3  -1 -12  457.65   33.80
  -3  -1 -12  428.06   37.60
  -3  -1 -12  454.85   45.00
   3  -1  12  428.86   38.30
   3  -1  12  449.86   40.90
  -3   1 -12  462.15   33.80
   3   1  12  466.95   34.10
  -3   1 -12  462.65   42.80
   3   1  12  421.36   40.20
  -3   1 -12  446.06   38.20
   3   1  12  514.25   38.50
   5  -1  12  775.22   49.00
   5  -1  12  624.24   53.19
  -5  -1 -12  664.63   54.19
   5  -1  12  560.74   57.19
  -5  -1 -12  723.13   62.39
  -5  -1 -12  649.54   48.40
   5   1  12  623.54   48.60
  -5   1 -12  655.13   58.49
  -5   1 -12  668.73   55.09
   5   1  12  655.23   58.69
  -5   1 -12  730.53   48.30
   7  -1  12  798.52   58.29
  -7  -1 -12  739.83   75.39
  -7  -1 -12  776.52   67.79
  -7   1 -12  810.22   73.99
  -7   1 -12  776.92   67.29
   7   1  12  832.82   58.99
   9  -1  12  618.74   50.19
  -9  -1 -12  490.15   62.89
  -9  -1 -12  596.04   75.99
  -9   1 -12  646.14   72.29
   9   1  12  633.94   51.09
  -9   1 -12  586.14   64.49
 -11  -1 -12  394.16   65.59
 -11  -1 -12  629.04   95.69
  11  -1  12  485.45   50.09
  11   1  12  578.74   51.39
 -11   1 -12  396.86   58.19
 -11   1 -12  493.25   85.39
 -12  -2  12   26.60   25.40
 -12  -2  12  121.69   47.20
 -12   2  12   17.00   26.60
 -12   2  12   -3.70   41.10
  12   2 -12   39.30   24.10
 -12   2  12   16.00   27.70
 -10  -2  12  180.78   25.20
 -10  -2  12  147.89   37.80
  10   2 -12  119.19   22.90
 -10   2  12  201.68   24.90
 -10   2  12  167.08   25.00
  -8  -2  12   49.60   14.80
  -8  -2  12   38.00   22.00
  -8   2  12   17.40   14.10
   8   2 -12   32.20   27.10
   8   2 -12   34.80   14.00
  -8   2  12   53.49   14.70
  -6  -2  12  163.98   22.20
  -6  -2  12  160.58   17.80
  -6  -2  12  148.49   19.80
   6  -2 -12  107.99   16.40
   6   2 -12  123.59   16.20
  -6   2  12  129.99   17.20
  -6   2  12  124.59   15.30
   6   2 -12  135.69   21.90
   6   2 -12  112.29   17.00
  -6   2  12  134.69   16.60
   4  -2 -12   20.20    8.10
  -4  -2  12    7.40   11.50
  -4  -2  12   29.60    8.50
  -4  -2  12   26.90    8.30
  -4   2  12   30.70    7.70
  -4   2  12   26.00    8.30
  -4   2  12   36.50    8.40
   4   2 -12   11.60    8.00
   4   2 -12   20.20    8.10
   4   2 -12   13.50   14.10
  -2  -2  12 2253.37  157.28
  -2  -2  12 2362.76  158.68
  -2  -2  12 2477.25  159.78
   2  -2 -12 2479.95  157.68
  -2   2  12 2149.19  156.18
   2   2 -12 2468.65  159.68
  -2   2  12 2352.16  157.48
  -2   2  12 2389.76  156.78
   2   2 -12 2271.07  156.38
  -2   2  12 2458.25  161.48
   2   2 -12 2465.35  157.58
   0  -2  12 1889.71  127.19
   0  -2  12 1998.00  130.79
   0  -2  12 1855.01  129.99
   0  -2 -12 1843.32  127.59
   0   2 -12 1804.42  129.69
   0   2  12 1941.41  132.79
   0   2 -12 1962.10  132.49
   0   2 -12 1942.51  127.49
   0   2  12 2004.30  127.69
   2  -2  12 1198.38   81.09
  -2  -2 -12 1103.79   79.49
  -2  -2 -12 1116.69   88.19
   2  -2  12 1194.48   82.49
   2  -2  12 1125.99   77.29
  -2  -2 -12 1091.69   77.29
  -2   2 -12 1117.29   83.59
   2   2  12 1118.49   77.69
   2   2  12 1120.69   83.59
  -2   2 -12 1137.09   81.19
  -2   2 -12 1271.47   77.59
   2   2  12 1113.39   79.69
  -4  -2 -12 1573.24  112.39
  -4  -2 -12 1599.14  109.19
   4  -2  12 1565.64  115.19
  -4  -2 -12 1652.93  120.19
   4  -2  12 1554.04  112.99
   4  -2  12 1779.72  109.49
  -4  -2 -12 1634.24  112.89
   4   2  12 1523.15  115.69
  -4   2 -12 1477.45  113.09
  -4   2 -12 1726.63  109.09
   4   2  12 1713.33  109.89
  -4   2 -12 1673.03  117.19
  -6  -2 -12    4.50   21.00
   6  -2  12    1.00    9.40
  -6  -2 -12   -0.50   22.20
  -6  -2 -12    9.80   19.10
   6  -2  12    1.00   15.70
  -6   2 -12   -0.30   11.20
  -6   2 -12  -14.90   17.00
   6   2  12    9.60   10.00
   8  -2  12  472.15   39.50
  -8  -2 -12  413.06   51.29
  -8  -2 -12  418.36   63.99
  -8   2 -12  472.85   56.99
  -8   2 -12  412.26   52.79
   8   2  12  463.95   39.40
  10  -2  12    6.90   18.90
 -10  -2 -12  -12.10   30.60
 -10  -2 -12   37.70   46.70
  10   2  12   18.90   17.50
 -10   2 -12    6.90   37.30
 -10   2 -12    1.80   36.50
 -12  -2 -12  -13.30   42.30
  12  -2  12   -7.00   25.10
 -12  -2 -12   -8.20   76.59
 -12   2 -12   75.29   48.30
  12   2  12   72.89   27.80
 -12   2 -12  137.49   58.29
 -11  -3  12   20.90   41.30
 -11  -3  12   32.50   22.30
 -11   3  12   41.30   21.80
  11   3 -12   22.60   22.00
 -11   3  12   23.40   22.20
  -9  -3  12  751.22   57.09
  -9  -3  12  695.73   69.19
  -9   3  12  705.63   57.09
   9   3 -12  747.23   56.59
  -9   3  12  740.33   56.99
  -7  -3  12  289.47   37.70
  -7  -3  12  283.37   27.80
  -7   3  12  283.47   28.80
  -7   3  12  282.57   28.10
   7   3 -12  301.87   27.40
   7   3 -12  345.67   40.60
  -5  -3  12  195.08   22.00
   5  -3 -12  272.17   33.90
  -5  -3  12  229.58   22.30
  -5  -3  12  227.78   28.80
   5  -3 -12  231.78   22.60
  -5   3  12  297.57   22.40
   5   3 -12  260.17   23.30
   5   3 -12  210.88   31.20
   5   3 -12  209.78   21.00
  -5   3  12  242.38   22.70
  -5   3  12  254.77   21.80
  -3  -3  12 1013.90   66.79
  -3  -3  12 1044.90   67.59
   3  -3 -12  927.21   67.39
  -3  -3  12  970.00   70.59
  -3   3  12  996.70   66.59
  -3   3  12  855.61   74.59
  -3   3  12 1084.99   67.39
   3   3 -12  924.41   66.49
   3   3 -12  995.40   67.49
  -3   3  12 1015.20   67.79
   3   3 -12  932.31   70.59
  -1  -3  12   20.30   10.30
  -1  -3  12   30.20    7.10
   1  -3 -12   16.30   18.00
   1  -3 -12   26.70    7.20
   1   3 -12   32.30   11.60
  -1   3  12   34.20    6.00
  -1   3  12   27.80    6.40
   1   3 -12   39.90   12.70
   1   3 -12   27.40    7.60
  -1   3  12   35.70    7.60
  -1   3  12   23.70   14.10
   1  -3  12  138.59   23.30
  -1  -3 -12  107.39   13.80
   1  -3  12   96.39   11.50
  -1  -3 -12  100.59   12.00
   1  -3  12   86.99   14.60
   1   3  12   94.89   11.80
  -1   3 -12   85.29   15.70
  -1   3 -12   95.29   16.90
   1   3  12   90.79   17.70
  -1   3 -12  111.19   12.80
   1   3  12  107.99   15.50
   3  -3  12   63.29   18.40
   3  -3  12   44.30   13.30
  -3  -3 -12    9.30    7.20
   3  -3  12   29.20    8.00
  -3  -3 -12   39.80   12.10
  -3  -3 -12   34.70   15.40
  -3  -3 -12   -7.10   18.90
  -3   3 -12   21.90   13.10
   3   3  12   20.70   15.90
  -3   3 -12   33.70    7.80
  -3   3 -12   30.30   13.50
   3   3  12   27.30    8.60
  -5  -3 -12 1057.99   88.39
   5  -3  12 1141.49   72.29
   5  -3  12 1114.29   77.59
  -5  -3 -12  936.91   72.09
  -5  -3 -12 1046.20   77.19
  -5  -3 -12  990.20   76.69
   5  -3  12  892.41   80.39
  -5   3 -12 1057.59   80.69
  -5   3 -12 1027.80   79.59
  -5   3 -12 1179.98   71.79
   5   3  12 1055.59   72.69
   5   3  12  944.41   80.79
   7  -3  12  125.29   16.30
  -7  -3 -12  112.79   38.10
   7  -3  12   90.39   24.50
  -7  -3 -12   62.99   24.70
   7   3  12  105.49   17.00
  -7   3 -12  107.89   28.10
   9  -3  12  366.16   35.70
  -9  -3 -12  345.77   45.00
  -9  -3 -12  346.67   62.19
  -9   3 -12  335.47   58.89
   9   3  12  371.56   37.50
  -9   3 -12  332.97   49.00
 -11  -3 -12  344.97   56.39
  11  -3  12  488.75   46.20
 -11  -3 -12  262.87   76.49
  11   3  12  467.85   48.10
 -11   3 -12  416.96   66.49
 -11   3 -12  379.96   63.99
 -12  -4  12    3.40   25.30
 -12  -4  12    2.90   49.10
 -12   4  12   72.69   26.50
 -12   4  12   30.70   28.20
  12   4 -12   38.80   26.70
 -10  -4  12   72.09   20.90
 -10  -4  12  101.29   35.70
 -10   4  12   93.39   22.40
  10   4 -12   46.80   19.80
 -10   4  12   98.99   20.80
  -8  -4  12    2.60   14.30
  -8  -4  12   17.30   22.90
  -8   4  12   12.10   13.20
  -8   4  12   13.90   14.30
   8   4 -12    6.90   13.20
   6  -4 -12    2.50   10.70
  -6  -4  12  -22.60    9.10
  -6  -4  12    7.80   15.00
  -6  -4  12   -9.30   11.70
  -6   4  12    6.60    9.50
   6   4 -12   10.00   12.40
  -6   4  12   24.50    9.70
   6   4 -12   -8.40    8.30
   6   4 -12   -1.20   19.90
   4  -4 -12  244.08   37.50
  -4  -4  12  291.17   30.10
  -4  -4  12  310.97   24.30
   4  -4 -12  255.77   23.80
  -4  -4  12  281.87   24.00
  -4   4  12  301.97   24.10
   4   4 -12  285.17   23.20
   4   4 -12  309.57   24.30
  -4   4  12  277.77   23.60
   4   4 -12  280.47   32.60
  -4   4  12  290.77   24.80
   2  -4 -12   88.29   11.20
   2  -4 -12   27.70   20.20
  -2  -4  12   89.19   16.60
  -2  -4  12   85.49   11.60
   2   4 -12   88.39   16.80
  -2   4  12   75.29   10.30
  -2   4  12  100.09   12.00
   2   4 -12   81.79   11.40
  -2   4  12   75.49   10.10
   0  -4  12   63.59    8.80
   0  -4 -12   60.89    8.30
   0  -4  12   38.90   13.60
   0  -4 -12   72.59   10.30
   0   4 -12   49.99   14.10
   0   4 -12   83.09   11.00
   0   4 -12   64.89   14.00
   0   4  12   58.29    8.20
   0   4  12   54.19   16.80
   0   4  12   57.09    9.20
   0   4 -12   69.09   14.20
  -2  -4 -12  206.48   22.30
   2  -4  12  227.78   18.70
   2  -4  12  237.48   25.70
  -2  -4 -12  220.98   27.20
  -2  -4 -12  212.68   19.80
  -2   4 -12  227.08   27.60
  -2   4 -12  191.08   26.30
   2   4  12  259.27   20.30
  -2   4 -12  243.58   19.60
  -2   4 -12  260.37   26.00
   2   4  12  203.88   29.30
  -4  -4 -12  259.37   30.00
   4  -4  12  316.77   23.90
   4  -4  12  305.77   30.20
  -4  -4 -12  259.57   24.40
  -4  -4 -12  321.77   32.40
  -4   4 -12  244.38   35.60
  -4   4 -12  325.17   24.00
  -4   4 -12  279.07   31.30
   4   4  12  249.68   24.10
  -4   4 -12  334.47   33.60
   4   4  12  313.37   36.40
  -6  -4 -12   20.70   23.20
   6  -4  12   76.99   12.50
   6  -4  12   72.99   20.20
  -6  -4 -12   28.10   30.50
  -6  -4 -12   38.00   20.50
  -6   4 -12   80.59   12.60
   6   4  12   71.89   14.00
  -6   4 -12   60.29   19.50
   8  -4  12   26.50   22.70
   8  -4  12    7.30   13.70
  -8  -4 -12    0.80   40.20
  -8  -4 -12    4.10   24.20
  -8   4 -12   -3.80   24.80
   8   4  12   25.00   14.40
 -10  -4 -12   41.50   56.29
 -10  -4 -12   -6.60   31.10
  10  -4  12   15.00   18.90
 -10   4 -12  -26.00   34.20
 -10   4 -12   38.30   37.20
  10   4  12   -1.90   19.30
 -12  -4 -12   52.59   54.19
  12  -4  12   21.10   25.70
 -12  -4 -12   99.59   77.89
  12   4  12   43.90   30.40
 -12   4 -12   74.79   47.30
 -12   4 -12   66.99   56.79
 -11  -5  12   66.39   23.90
 -11  -5  12  134.99   41.70
 -11   5  12   32.80   26.00
 -11   5  12   60.99   24.30
  11   5 -12   65.09   24.70
  -9  -5  12   28.10   16.50
  -9  -5  12   44.10   31.00
   9   5 -12   34.00   16.80
  -9   5  12   -0.70   16.40
  -9   5  12   28.60   16.10
  -7  -5  12   30.90   20.40
   7  -5 -12   52.29   20.60
  -7  -5  12   44.20   13.60
  -7   5  12   62.09   13.00
  -7   5  12   43.40   13.20
   7   5 -12   48.40   13.30
   5  -5 -12  101.29   14.10
  -5  -5  12  131.29   22.30
  -5  -5  12  105.99   13.60
   5  -5 -12  113.69   24.30
  -5  -5  12  103.89   14.20
  -5   5  12   95.69   14.70
  -5   5  12  120.19   16.30
  -5   5  12  106.49   13.30
   5   5 -12  106.19   14.40
   5   5 -12   88.39   13.80
   5   5 -12   64.49   21.00
   3  -5 -12   36.80   24.60
   3  -5 -12   41.30    9.00
  -3  -5  12   46.80    9.50
  -3  -5  12   41.80   15.30
  -3  -5  12   77.79    9.30
   3   5 -12   46.10   15.80
   3   5 -12   53.19    8.50
   3   5 -12   62.69    9.80
  -3   5  12   49.50    8.90
  -3   5  12   69.19   10.30
  -3   5  12    6.00   19.90
  -3   5  12   50.79   10.00
   1  -5 -12    1.70   19.00
   1  -5 -12   24.70    6.30
  -1  -5  12   16.60   12.90
  -1  -5  12   17.20    6.90
   1  -5 -12   15.80    7.30
   1   5 -12   -6.40   12.70
   1   5 -12    6.40    6.80
  -1   5  12   13.00    6.20
   1   5 -12   22.40   12.00
   1   5 -12   29.00   11.70
  -1   5  12   18.50    7.40
  -1   5  12  -12.60   17.50
   1  -5  12   11.00    6.60
  -1  -5 -12   -3.60    6.90
   1  -5  12   -1.20   11.90
  -1  -5 -12    2.70   20.10
  -1  -5 -12    0.60    5.30
   1   5  12    0.80    6.00
   1   5  12    0.70   14.40
  -1   5 -12    2.30   12.00
  -1   5 -12    3.30    6.40
   1   5  12    1.60    6.00
  -1   5 -12   -5.10   12.00
  -1   5 -12   -3.40   10.70
  -3  -5 -12   88.29   15.40
  -3  -5 -12  111.29   13.10
  -3  -5 -12  112.59   17.80
   3  -5  12   99.79   12.70
   3  -5  12   96.79   17.10
   3   5  12   76.49   20.90
  -3   5 -12   87.29   19.20
  -3   5 -12  105.49   18.60
  -3   5 -12   84.29   19.40
  -3   5 -12   97.69   13.10
   3   5  12  101.29   13.60
  -5  -5 -12   -4.10   27.80
   5  -5  12   30.00   17.60
  -5  -5 -12    8.10   11.00
  -5  -5 -12    4.30   16.30
  -5  -5 -12   -4.10   17.30
   5  -5  12   16.00    8.90
   5   5  12   12.80   10.10
  -5   5 -12   -3.90    8.30
  -5   5 -12   11.20   16.60
   5   5  12   -3.30   21.50
   7  -5  12   21.20   22.60
  -7  -5 -12   56.79   37.40
  -7  -5 -12   24.40   22.00
   7  -5  12   59.49   12.60
   7   5  12   36.20   13.90
  -7   5 -12   46.00   14.50
  -7   5 -12   51.49   23.10
   9  -5  12   -8.80   16.30
   9  -5  12    8.40   26.90
  -9  -5 -12   20.90   28.20
  -9  -5 -12   -8.60   47.20
   9   5  12    2.10   17.40
  -9   5 -12    4.60   30.50
 -11  -5 -12  -29.50   67.79
  11  -5  12   17.90   23.20
 -11  -5 -12   50.09   37.70
  11   5  12   19.10   24.90
 -11   5 -12  -25.00   43.80
 -11   5 -12    0.30   49.00
 -12  -6  12   -2.70   53.09
 -12  -6  12    8.00   26.30
 -12   6  12    1.90   26.00
  12   6 -12   41.20   27.10
 -12   6  12   22.90   29.30
 -10  -6  12   52.19   36.50
 -10  -6  12   76.99   21.30
 -10   6  12   45.90   19.30
 -10   6  12   20.60   21.60
  10   6 -12   66.49   20.60
  -8  -6  12   -1.90   15.40
  -8  -6  12   64.09   27.60
  -8   6  12   18.80   13.20
   8   6 -12    9.00   13.70
  -8   6  12    1.50   14.60
  -6  -6  12   45.90   12.60
  -6  -6  12   19.40   19.20
   6  -6 -12   32.20   12.70
   6  -6 -12   -0.50   21.60
  -6   6  12   43.60   12.00
   6   6 -12   42.10   11.00
  -6   6  12   50.49   12.50
   6   6 -12   29.20   29.60
  -6   6  12   11.00   23.50
   6   6 -12    8.40   13.20
  -4  -6  12    5.80    8.60
   4  -6 -12   -2.30    8.60
  -4  -6  12  -19.50   13.50
   4  -6 -12   31.30   23.60
  -4  -6  12   -2.00    8.90
  -4   6  12    2.70   21.50
   4   6 -12    1.90    8.70
   4   6 -12    1.20   17.30
   4   6 -12   11.00    7.80
  -4   6  12    1.70   10.20
  -4   6  12   -9.50    7.60
  -4   6  12    1.30    8.60
   2  -6 -12  102.49   11.30
  -2  -6  12   93.99   12.80
   2  -6 -12   79.69   11.60
   2  -6 -12  154.58   29.90
  -2  -6  12  100.79   18.10
   2   6 -12   66.89   17.50
  -2   6  12   93.99   11.90
   2   6 -12   88.19   11.90
   2   6 -12   93.49   11.50
  -2   6  12   83.19   11.30
   2   6 -12  100.29   17.00
   0  -6  12   49.40   14.70
   0  -6 -12   59.79   10.10
   0  -6 -12   66.39    8.40
   0  -6 -12   14.70   21.10
   0   6 -12   55.29   14.50
   0   6 -12   58.99   15.70
   0   6  12   60.09    9.50
   0   6  12   62.59    8.40
   0   6 -12   70.89   14.30
   0   6  12    3.60   20.40
   2  -6  12   12.30   12.80
  -2  -6 -12   21.70   13.10
  -2  -6 -12   14.90   21.00
  -2  -6 -12    7.20   10.20
  -2  -6 -12   21.90    6.60
  -2  -6 -12   21.70    7.80
   2   6  12   36.10   18.20
   2   6  12    7.70    6.90
  -2   6 -12   21.30   12.80
  -2   6 -12   21.80   15.50
  -2   6 -12  -10.60   14.50
   2   6  12   30.20    7.80
  -4  -6 -12   16.20   15.20
  -4  -6 -12   18.20   14.30
  -4  -6 -12    3.30   25.20
   4  -6  12   -8.10   14.70
  -4  -6 -12   -2.10    9.30
  -4   6 -12   -3.50   19.30
   4   6  12    8.50   22.70
  -4   6 -12   14.10   14.90
  -4   6 -12   16.60   21.30
   4   6  12  -14.10    8.40
   6  -6  12   23.60   20.50
   6  -6  12   25.60    9.60
  -6  -6 -12   10.20   17.30
  -6  -6 -12   12.20   36.10
  -6   6 -12   11.00   10.70
   6   6  12   12.50   12.20
  -6   6 -12   20.10   21.40
  -8  -6 -12   37.70   44.10
  -8  -6 -12    8.00   24.60
   8  -6  12   32.70   23.80
   8  -6  12   18.00   12.80
  -8   6 -12   15.50   24.90
   8   6  12   21.20   15.80
 -10  -6 -12  -15.00   61.59
 -10  -6 -12   24.30   33.00
  10  -6  12   -5.10   19.30
  10   6  12  -30.30   19.80
 -10   6 -12   91.19   35.80
 -10   6 -12   30.60   37.40
 -11  -7  12   63.69   24.60
 -11  -7  12   37.70   44.50
 -11   7  12  103.99   23.60
  11   7 -12   82.59   25.20
 -11   7  12   37.40   28.90
  -9  -7  12  281.17   44.80
  -9  -7  12  178.98   26.40
  -9   7  12  238.18   31.90
  -9   7  12  215.48   29.80
   9   7 -12  216.58   29.80
   7  -7 -12   70.69   24.90
  -7  -7  12   55.19   25.30
  -7  -7  12   60.09   15.70
  -7   7  12   91.29   14.60
  -7   7  12  116.29   16.90
  -7   7  12   33.30   29.20
   7   7 -12   67.79   15.50
  -5  -7  12  107.99   15.10
  -5  -7  12  133.89   17.20
   5  -7 -12  162.68   30.10
  -5  -7  12  141.39   24.20
   5  -7 -12  119.39   16.60
   5   7 -12  105.99   29.20
   5   7 -12  107.09   15.60
  -5   7  12  137.99   16.10
  -5   7  12  134.99   17.70
   5   7 -12  115.79   15.00
   3  -7 -12   89.79   28.30
  -3  -7  12   64.29   11.30
   3  -7 -12   77.89   11.90
  -3  -7  12   73.89   19.70
  -3  -7  12   81.29   11.60
   3  -7 -12   72.59   11.40
   3   7 -12   93.89   11.40
  -3   7  12   60.49   10.80
   3   7 -12   81.79   11.00
  -3   7  12   93.59   12.80
   3   7 -12  103.89   22.20
  -1  -7  12   -5.80   13.40
   1  -7 -12   22.50    7.10
   1  -7 -12   26.40    8.70
   1  -7 -12   66.09   33.60
   1   7 -12   34.80   12.20
   1   7 -12   -1.60   15.90
   1   7 -12   48.90   15.20
  -1   7  12  -23.60   23.00
  -1   7  12   17.90    7.60
  -1   7  12   17.90    8.10
  -1  -7 -12    0.70    6.70
  -1  -7 -12   12.30    8.10
  -1  -7 -12   35.20   23.90
   1  -7  12   -6.10   13.20
  -1   7 -12   13.00   15.80
   1   7  12   14.20    7.40
   1   7  12   -2.40    6.80
  -1   7 -12   -2.10   16.30
  -1   7 -12   18.80   12.10
   1   7  12   38.60   23.50
  -3  -7 -12   -5.80   12.30
  -3  -7 -12  -10.10   23.70
  -3  -7 -12    2.30    8.40
  -3  -7 -12    0.40   13.10
   3  -7  12   18.90   15.20
  -3  -7 -12   -6.00    7.00
  -3   7 -12   10.30   19.80
   3   7  12   -6.20    7.40
   3   7  12   23.70    8.80
   3   7  12   16.80   22.90
  -3   7 -12  -11.30   12.60
  -3   7 -12  -10.00   17.70
  -5  -7 -12  150.38   24.70
  -5  -7 -12  156.68   18.10
   5  -7  12  167.88   28.00
  -5  -7 -12  187.38   27.80
  -5   7 -12  189.68   28.80
   5   7  12  215.68   21.20
  -7  -7 -12    9.60   39.70
  -7  -7 -12   98.19   16.00
   7  -7  12  126.39   28.30
  -7  -7 -12  124.29   27.70
  -7   7 -12  115.89   30.90
   7   7  12  134.29   19.50
  -9  -7 -12   76.69   32.10
  -9  -7 -12  -31.70   53.39
   9  -7  12   75.89   32.20
   9  -7  12   76.69   18.10
   9   7  12   65.59   22.30
  -9   7 -12   86.99   32.90
 -11  -7 -12  -54.39   67.89
  11  -7  12   82.29   24.10
 -11  -7 -12  105.89   42.10
 -11   7 -12  111.89   47.20
 -11   7 -12   -8.60   55.39
  11   7  12   76.89   29.30
 -10  -8  12   -3.20   21.40
 -10  -8  12   24.90   42.80
  10   8 -12   44.80   21.90
 -10   8  12   38.90   19.80
 -10   8  12   34.30   21.60
  -8  -8  12   21.60   16.60
  -8  -8  12    2.20   29.10
   8  -8 -12    5.40   25.90
  -8   8  12   18.70   14.90
  -8   8  12   23.40   17.10
   8   8 -12    1.30   16.00
  -8   8  12  -26.80   36.30
  -6  -8  12  113.09   15.90
   6  -8 -12   64.09   27.20
  -6  -8  12   92.99   27.00
  -6   8  12  109.79   15.60
  -6   8  12   85.59   15.40
   6   8 -12  114.09   16.90
  -6   8  12   63.39   30.70
  -4  -8  12  279.17   34.30
   4  -8 -12  221.68   22.50
  -4  -8  12  209.58   21.50
   4  -8 -12  250.37   43.80
  -4  -8  12  257.57   24.20
  -4   8  12  164.38   21.30
   4   8 -12  244.08   21.20
  -4   8  12  199.98   22.20
   4   8 -12  209.58   20.70
  -2  -8  12  363.86   38.50
   2  -8 -12  381.96   30.30
   2  -8 -12  356.46   29.70
   2  -8 -12  422.46   54.09
   2   8 -12  329.87   38.10
   2   8 -12  363.16   33.60
  -2   8  12  379.06   29.70
   2   8 -12  414.26   43.00
   2   8 -12  373.96   28.40
  -2   8  12  378.26   29.10
   0  -8 -12  983.20   73.69
   0  -8 -12 1206.98  100.89
   0  -8 -12 1143.49   75.09
   0  -8  12 1056.19   80.29
   0   8 -12 1133.39   78.89
   0   8  12 1020.60   74.29
   0   8  12 1131.69   74.49
   0   8 -12 1083.99   82.79
  -2  -8 -12  774.52   56.89
  -2  -8 -12  786.52   57.69
   2  -8  12  910.31   65.09
   2   8  12  813.02   57.69
  -2   8 -12  872.91   63.79
   2   8  12  798.92   57.79
  -2   8 -12  832.32   68.39
  -2   8 -12  816.02   66.69
   2   8  12  802.02   73.89
  -4  -8 -12  352.66   37.50
  -4  -8 -12  320.57   36.10
   4  -8  12  360.96   40.80
  -4  -8 -12  335.67   28.90
  -4   8 -12  394.86   39.80
   4   8  12  382.66   31.10
   4   8  12  406.06   30.30
   6  -8  12  246.48   35.60
  -6  -8 -12  152.78   23.00
  -6  -8 -12  258.77   34.10
   6   8  12  185.98   24.70
  -6   8 -12  238.38   39.10
   6   8  12  199.18   22.50
   8  -8  12  135.89   35.10
  -8  -8 -12  119.39   35.00
   8   8  12  133.79   19.20
  -8   8 -12  160.68   36.40
   8   8  12  182.58   23.90
 -10  -8 -12   50.89   37.90
 -10  -8 -12  -31.70   66.69
  10  -8  12   21.90   34.50
  10   8  12   22.30   23.70
  10   8  12   22.30   19.30
 -10   8 -12   36.60   40.00
 -11  -9  12  264.77   67.29
 -11  -9  12  261.47   38.30
 -11   9  12  279.27   35.50
  11   9 -12  266.27   36.10
 -11   9  12  284.37   38.20
  -9  -9  12  300.17   39.60
  -9  -9  12  328.77   50.49
   9  -9 -12  308.57   45.30
  -9   9  12  423.56   40.00
  -9   9  12  384.06   40.10
   9   9 -12  390.96   41.10
  -7  -9  12  474.35   59.09
   7  -9 -12  517.85   58.49
  -7  -9  12  553.24   43.80
  -7   9  12  517.25   43.50
  -7   9  12  553.74   44.20
   7   9 -12  502.05   44.30
  -5  -9  12  653.43   46.60
   5  -9 -12  745.93   63.09
   5  -9 -12  588.14   46.90
  -5  -9  12  626.34   59.89
  -5  -9  12  569.74   48.60
  -5   9  12  612.54   46.50
  -5   9  12  565.24   46.70
   5   9 -12  601.24   46.40
  -3  -9  12  144.79   19.50
   3  -9 -12  154.18   36.60
  -3  -9  12  144.09   26.10
   3  -9 -12  142.29   18.80
  -3   9  12  139.29   16.30
   3   9 -12  130.59   16.80
  -3   9  12  136.79   17.40
   1  -9 -12  120.19   17.50
  -1  -9  12  150.48   23.10
   1  -9 -12  116.29   15.50
   1  -9 -12  221.98   41.90
   1   9 -12  133.69   29.40
   1   9 -12  128.39   23.20
   1   9 -12  145.19   20.70
  -1   9  12  125.49   15.30
  -1   9  12  120.79   16.10
  -1  -9 -12   10.60   10.00
   1  -9  12   16.80   15.80
  -1  -9 -12   -2.20    8.50
  -1  -9 -12   27.60   36.60
  -1   9 -12   13.60   22.10
   1   9  12   -8.40    8.30
  -1   9 -12   44.00   22.50
  -1   9 -12   -4.10   12.50
   1   9  12   27.20   34.00
   1   9  12    5.50    8.00
  -3  -9 -12   55.79   13.40
   3  -9  12   83.09   22.20
  -3  -9 -12   85.89   19.70
  -3  -9 -12   70.09   11.80
  -3  -9 -12   86.09   17.50
   3   9  12  100.89   13.70
   3   9  12   88.99   13.20
  -3   9 -12  101.09   21.10
  -5  -9 -12  284.47   28.10
  -5  -9 -12  358.76   40.60
  -5  -9 -12  296.97   39.50
   5   9  12  289.77   29.80
   5   9  12  309.97   28.60
  -5   9 -12  329.77   41.20
   7  -9  12  390.76   51.09
  -7  -9 -12  335.27   50.49
   7   9  12  394.16   34.30
   7   9  12  339.57   35.30
  -7   9 -12  372.66   51.09
  -9  -9 -12  353.16   49.99
   9  -9  12  336.47   49.10
   9   9  12  286.97   35.30
  -9   9 -12  281.27   50.49
   9   9  12  303.97   36.60
 -10 -10  12   -2.50   23.40
 -10 -10  12  -43.10   43.60
  10 -10 -12  -80.09   41.20
  10  10 -12    2.30   23.40
 -10  10  12   -1.90   26.90
 -10  10  12   47.90   22.50
  -8 -10  12    7.30   32.60
   8 -10 -12   -5.40   28.30
  -8 -10  12   61.89   19.50
  -8  10  12   49.70   17.20
  -8  10  12   43.90   19.20
   8  10 -12   41.10   19.30
  -6 -10  12    7.70   27.30
  -6 -10  12   25.50   14.10
   6 -10 -12   -7.80   29.80
  -6  10  12   21.00   13.50
   6  10 -12   -5.20   13.70
  -6  10  12   18.20   13.80
  -4 -10  12  548.95   54.29
   4 -10 -12  479.95   41.00
   4 -10 -12  507.65   62.69
  -4 -10  12  467.85   42.50
  -4  10  12  554.04   41.30
   4  10 -12  550.54   40.50
  -4  10  12  547.45   40.90
   2 -10 -12  408.16   61.59
   2 -10 -12  320.47   30.10
  -2 -10  12  390.56   29.80
  -2 -10  12  369.86   42.30
   2  10 -12  348.57   36.70
  -2  10  12  348.37   29.20
   2  10 -12  271.47   42.60
  -2  10  12  375.76   29.50
   0 -10 -12  825.52   63.99
   0 -10  12  935.71   72.29
   0 -10 -12  958.90   94.49
   0 -10 -12  869.81   63.89
   0  10 -12  954.80   70.29
   0  10  12  945.41   63.69
   0  10 -12  815.22   74.09
   0  10  12  975.90   64.39
  -2 -10 -12 1053.79  111.19
  -2 -10 -12 1013.90   78.59
   2 -10  12 1349.47   89.09
  -2 -10 -12 1193.48   79.19
   2  10  12 1222.58   79.29
   2  10  12 1043.50   78.59
  -2  10 -12 1107.89   85.39
   4 -10  12  343.47   43.00
  -4 -10 -12  353.26   40.20
  -4 -10 -12  307.67   36.30
  -4  10 -12  281.87   39.40
   4  10  12  356.76   30.40
   4  10  12  343.57   30.00
  -6 -10 -12  239.88   36.50
   6 -10  12  325.87   43.40
   6  10  12  215.38   28.50
   6  10  12  221.98   27.40
  -6  10 -12  232.88   40.90
   8 -10  12   89.39   34.00
  -8 -10 -12   80.69   34.20
  -8 -10 -12  -22.20   53.79
   8  10  12   80.89   22.80
   8  10  12   80.19   18.70
  -8  10 -12  139.99   34.70
  10 -10  12  -16.00   39.90
 -10 -10 -12  -51.89   75.19
 -10 -10 -12   48.60   43.40
  10  10  12   13.30   27.10
 -10  10 -12   17.20   42.20
  10  10  12   26.10   21.00
  -9 -11  12  512.75   49.99
   9 -11 -12  541.65   68.29
  -9 -11  12  514.75   64.99
   9  11 -12  473.05   52.09
  -9  11  12  503.25   50.19
  -9  11  12  499.65   49.70
  -7 -11  12  621.64   67.69
   7 -11 -12  472.15   66.79
  -7 -11  12  664.13   48.40
  -7  11  12  532.05   47.50
  -7  11  12  549.05   48.70
   7  11 -12  583.64   50.59
  -5 -11  12 1012.70   85.69
   5 -11 -12  920.91   73.49
   5 -11 -12 1120.79   93.89
  -5  11  12 1057.39   73.49
   5  11 -12  954.20   73.99
  -5  11  12 1167.48   74.89
   3 -11 -12 1450.05  104.79
  -3 -11  12 1273.07   93.59
   3 -11 -12 1076.89   83.49
  -3 -11  12 1216.68   84.09
   3  11 -12 1245.98   83.29
  -3  11  12 1024.50   83.49
   3  11 -12 1234.48   87.29
   1 -11 -12  386.86   55.09
  -1 -11  12  335.67   39.70
   1  11 -12  292.47   39.50
  -1  11  12  269.67   27.10
   1  11 -12  318.97   34.60
  -1  11  12  281.07   26.10
   1 -11  12   39.60   21.90
  -1 -11 -12   -6.00   12.40
  -1 -11 -12  -89.89   41.30
  -1  11 -12    8.40   17.60
   1  11  12    8.40   10.50
   1  11  12   10.40    9.70
  -3 -11 -12  419.96   40.30
   3 -11  12  502.85   50.19
  -3 -11 -12  558.64   87.39
   3  11  12  441.06   36.10
   3  11  12  446.46   36.80
  -3  11 -12  365.26   46.50
  -5 -11 -12  950.20   79.59
   5 -11  12 1036.70   79.09
   5  11  12  853.21   67.79
  -5  11 -12 1015.60   78.39
   5  11  12  831.02   67.09
   7 -11  12  364.86   53.49
  -7 -11 -12  254.07   43.60
  -7  11 -12  307.07   50.69
   7  11  12  297.27   34.40
   7  11  12  258.07   34.30
  -9 -11 -12  603.74   68.79
   9 -11  12  564.14   69.19
   9  11  12  491.05   49.10
  -9  11 -12  483.75   74.49
   9  11  12  494.65   52.99
 -10 -12  12  177.88   55.89
 -10 -12  12  140.59   30.90
  10 -12 -12   70.69   47.20
  10  12 -12   58.89   29.30
  -8 -12  12   28.70   21.90
  -8 -12  12   53.49   41.60
   8 -12 -12   14.80   35.30
   8  12 -12   -3.90   23.10
  -8  12  12  -15.30   18.40
  -8  12  12   27.10   21.00
   6 -12 -12   65.19   37.70
  -6 -12  12   34.60   33.50
  -6 -12  12   80.99   18.50
  -6  12  12   95.89   19.20
   6  12 -12   81.89   19.70
  -4 -12  12   93.69   32.10
   4 -12 -12  107.69   42.40
  -4  12  12  111.79   18.10
   4  12 -12  120.29   18.50
   2 -12 -12 1499.85  120.39
  -2 -12  12 1316.07  103.59
  -2 -12  12 1391.16  101.39
  -2 -12  12 1217.68   92.89
  -2  12  12 1375.26   92.39
  -2  12  12 1330.37   93.79
   2  12 -12 1365.26   92.79
   0 -12  12 1306.17   94.69
   0 -12 -12 1152.18   84.09
   0 -12  12 1235.68   93.79
   0 -12 -12 1138.59  113.29
   0  12  12 1154.88   84.99
   0  12  12 1181.08   83.29
   0  12 -12 1283.47   90.59
   2 -12  12 1231.68   84.99
  -2 -12 -12  772.12  110.89
   2  12  12  926.51   71.89
   2  12  12  980.10   71.19
  -2  12 -12 1081.09   81.59
  -4 -12 -12  875.61  120.29
  -4 -12 -12 1026.70   84.79
  -4 -12 -12 1171.48   88.19
   4 -12  12 1360.66   92.39
   4  12  12 1158.18   80.49
   4  12  12 1088.39   79.79
  -4  12 -12 1079.89   88.99
  -6 -12 -12  126.99   35.20
  -6 -12 -12   42.20   56.59
   6 -12  12  140.29   35.50
   6  12  12  138.19   20.50
  -6  12 -12  138.59   31.50
   6  12  12  124.79   22.00
  -8 -12 -12  145.39   43.40
   8 -12  12  256.07   40.70
  -8 -12 -12   40.30   59.19
  -8  12 -12  215.68   42.10
   8  12  12  184.68   30.40
   8  12  12  163.98   25.70
  -9 -13  12  351.46   63.99
  -9 -13  12  419.56   49.30
   9 -13 -12  472.25   75.59
  -9  13  12  427.96   48.10
   9  13 -12  365.06   45.60
  -7 -13  12  385.96   41.70
   7 -13 -12  440.66   69.69
  -7 -13  12  452.95   60.39
  -7  13  12  382.76   42.70
   7  13 -12  453.15   42.80
   5 -13 -12  284.37   51.09
  -5 -13  12  224.78   42.30
   5  13 -12  240.58   32.40
  -5  13  12  346.27   34.10
  -3 -13  12  176.08   35.50
  -3 -13  12  282.07   41.90
   3 -13 -12  310.97   54.39
   3  13 -12  280.87   29.20
  -3  13  12  229.28   28.60
  -1 -13  12   62.79   15.30
  -1 -13  12   94.19   26.70
   1 -13 -12   46.40   50.29
  -1 -13  12   33.60   26.70
  -1  13  12   69.89   15.40
  -1 -13 -12  -40.20   45.40
  -1 -13 -12    1.70   15.20
   1 -13  12   -0.60   25.00
   1  13  12    3.60   11.90
   1  13  12   11.00   12.70
  -1  13 -12   22.80   22.30
  -3 -13 -12   18.60   55.19
  -3 -13 -12   21.90   29.40
   3 -13  12   70.39   29.50
  -3  13 -12    0.50   25.00
   3  13  12   39.40   14.70
   3  13  12   53.29   15.80
   5 -13  12  252.77   39.40
  -5 -13 -12  237.68   63.49
  -5 -13 -12  175.38   36.70
   5  13  12  168.78   25.00
  -5  13 -12  277.07   42.80
   5  13  12  208.38   26.10
  -7 -13 -12  287.77   43.50
   7 -13  12  348.07   48.50
  -7 -13 -12   93.49   75.09
   7  13  12  268.57   31.60
   7  13  12  261.07   33.60
  -7  13 -12  259.07   44.10
   9 -13  12  415.86   58.29
  -9 -13 -12  109.29   87.89
   8 -14 -12   -5.90   41.20
  -8 -14  12   49.30   54.89
  -8 -14  12   21.60   26.30
  -8  14  12   11.30   21.70
   8  14 -12   47.30   26.40
   6 -14 -12   33.80   43.90
  -6 -14  12   39.30   38.50
  -6  14  12  -17.70   19.80
   6  14 -12   19.60   20.50
   4 -14 -12  337.87   57.39
  -4 -14  12  260.77   42.60
  -4 -14  12  298.07   41.00
  -4  14  12  257.77   33.00
   4  14 -12  289.17   36.90
   2 -14 -12  273.97   56.29
  -2 -14  12  204.08   37.70
  -2 -14  12  195.58   36.10
   2  14 -12  235.48   28.50
  -2  14  12  218.38   25.40
   0 -14 -12  540.25   79.19
   0 -14  12  515.45   57.79
   0 -14  12  517.05   60.29
   0  14  12  440.06   42.90
   2 -14  12  324.77   44.20
  -2 -14 -12  240.88   62.99
   2  14  12  222.78   30.40
   2  14  12  212.48   26.80
  -2  14 -12  320.57   44.90
  -4 -14 -12  221.98   68.89
   4 -14  12  278.97   42.70
  -4 -14 -12  294.77   44.30
  -4  14 -12  250.07   42.20
   4  14  12  251.67   33.20
   4  14  12  239.38   31.50
  -6 -14 -12  165.48   69.09
   6 -14  12  305.57   48.10
  -6 -14 -12  256.57   47.90
   6  14  12  213.88   29.00
  -6  14 -12  312.67   51.09
   6  14  12  226.48   31.10
  -8 -14 -12  -35.40   43.60
   8 -14  12   25.90   39.60
  -8 -14 -12 -107.09   78.59
  -8  14 -12    8.20   37.20
   8  14  12   51.69   24.50
   8  14  12  -28.60   25.00
   7 -15 -12   73.49   49.10
  -7 -15  12  114.19   48.00
   7  15 -12   95.09   28.60
  -7  15  12   70.99   25.50
   5 -15 -12  172.48   52.39
  -5 -15  12  148.19   44.60
   5  15 -12  179.98   27.60
  -5  15  12  161.08   26.60
  -3 -15  12    6.10   31.50
  -3 -15  12   15.20   35.30
   3 -15 -12   -2.90   46.20
   3  15 -12   20.00   20.30
  -3  15  12   14.10   17.60
   1 -15 -12   57.09   53.39
  -1 -15  12   31.50   32.10
  -1 -15  12   73.69   32.20
  -1  15  12   93.99   18.80
   1  15 -12   62.89   17.30
  -1 -15 -12   -5.80   53.89
   1 -15  12   55.69   31.90
   1 -15  12  -44.90   30.60
   1  15  12   14.60   16.20
  -3 -15 -12    0.40   58.89
   3 -15  12   43.50   32.90
   3  15  12  -22.30   18.30
  -3  15 -12   38.60   30.20
   5 -15  12   22.50   35.70
  -5 -15 -12  -66.79   69.39
  -5 -15 -12   -9.90   41.10
   5  15  12   36.20   20.90
   5  15  12  -12.10   20.50
  -5  15 -12   39.80   31.70
  -7 -15 -12   86.19   88.19
  -7 -15 -12   28.70   46.80
   7 -15  12  124.89   42.50
  -7  15 -12  130.39   38.40
   7  15  12   65.69   25.90
   7  15  12   86.79   29.50
  -6 -16  12  -19.50   45.40
   6 -16 -12  -28.70   52.39
  -6  16  12   13.10   23.50
   6  16 -12    8.90   25.40
   4 -16 -12  -55.89   50.09
  -4 -16  12   26.80   36.70
  -4 -16  12   57.59   39.10
   4  16 -12   25.30   23.40
  -4  16  12   29.50   20.80
  -2 -16  12   18.80   34.30
  -2 -16  12   82.49   36.40
   2 -16 -12   -1.90   55.09
  -2  16  12   37.00   19.60
   2  16 -12   39.30   19.80
   0 -16  12   -9.50   31.50
   0 -16  12    0.80   36.30
   0 -16 -12   50.29   57.29
   0  16 -12   34.20   20.70
   0  16  12   10.50   18.10
   2 -16  12   61.09   38.40
  -2 -16 -12  -55.89   64.19
   2 -16  12  -16.80   32.70
  -2  16 -12   28.00   30.00
   2  16  12    0.30   19.00
  -4 -16 -12   78.49   46.70
   4 -16  12  142.79   41.30
  -4 -16 -12   93.89   67.39
   4  16  12   77.59   23.20
  -4  16 -12   47.90   37.60
   4  16  12   44.30   22.10
  -6 -16 -12  -51.99   87.79
  -6 -16 -12   35.60   53.69
   6 -16  12   62.99   42.90
   6  16  12   11.50   23.80
  -6  16 -12   74.29   35.10
   6  16  12    5.50   27.90
  -5 -17  12   50.89   45.50
   5 -17 -12  -22.30   54.39
  -5  17  12   16.20   23.30
   5  17 -12   24.60   31.50
   3 -17 -12   57.19   56.19
  -3 -17  12   37.00   39.30
  -3 -17  12   16.80   44.90
   3  17 -12    5.50   24.70
  -3  17  12   29.90   21.80
  -1 -17  12   13.60   39.70
   1 -17 -12  -37.20   61.09
  -1 -17  12    6.00   34.30
  -1  17  12    4.40   21.00
   1  17 -12   31.90   21.20
   1 -17  12   49.40   38.90
  -1 -17 -12   30.40   63.79
   1 -17  12  -51.79   38.10
   1  17  12   12.20   19.60
   3 -17  12   82.29   40.20
  -3 -17 -12    6.90   76.19
  -3  17 -12   35.30   35.20
   3  17  12    5.90   21.20
  -5 -17 -12 -121.59   81.19
  -5 -17 -12   -1.40   51.49
   5 -17  12   15.50   41.10
   5  17  12   53.99   26.30
  -5  17 -12  -67.29   38.80
   5  17  12    8.20   25.40
   4 -18 -12  -13.70   60.59
  -4 -18  12  -11.40   52.29
  -4 -18  12  -21.20   43.40
   4  18 -12    2.10   28.00
  -4  18  12   35.70   25.60
   2 -18 -12  320.87   67.19
  -2 -18  12  187.48   49.99
  -2 -18  12  181.58   50.09
   2  18 -12  260.97   35.40
  -2  18  12  204.78   32.00
   0 -18 -12   66.89   67.69
   0 -18  12   73.19   43.80
   0 -18  12  153.28   47.00
   0  18  12  105.99   24.40
   2 -18  12   81.19   45.00
  -2 -18 -12   17.80   73.09
   2 -18  12   91.99   46.30
   2  18  12   47.60   24.00
  -4 -18 -12   59.99   92.99
  -1 -19  12   48.00   48.50
  -1 -19  12   55.99   52.19
   1 -19 -12   35.00   62.29
   1  19 -12   74.39   37.20
   1 -19  12    4.50   47.60
  -1 -19 -12   75.59  101.99
 -12   0  13   24.60   44.30
 -12   0  13   18.80   25.40
  12   0 -13   10.60   22.50
 -10   0  13    9.30   30.40
 -10   0  13   14.80   18.10
  10   0 -13   40.50   18.90
  -8   0  13  -15.20   21.80
   8   0 -13    8.10   12.70
  -8   0  13    5.40   13.10
   8   0 -13    1.90   22.70
   6   0 -13    3.60    9.20
  -6   0  13  -21.90   11.20
  -6   0  13    3.60    9.90
   4   0 -13   -2.80    6.90
   4   0 -13   -0.40    8.10
  -4   0  13    4.90    7.60
  -4   0  13    1.80    7.60
   2   0 -13   -0.50   17.90
   2   0 -13    4.90    6.70
  -2   0  13   -1.90    9.70
  -2   0  13    1.40    6.30
   2   0 -13  -11.20    9.80
  -2   0  13   -2.60    5.30
   0   0 -13   -0.80   14.10
   0   0 -13   14.60   10.20
   0   0 -13   13.90    7.00
   0   0  13   12.80    9.30
   0   0  13    3.40    5.90
   0   0  13   -0.20   10.30
   2   0  13    0.30   13.00
  -2   0 -13  -13.40   13.90
   2   0  13    5.60    6.10
   2   0  13    9.60   10.20
  -2   0 -13    4.00    6.90
  -2   0 -13   19.30   10.40
  -4   0 -13    5.80    8.50
  -4   0 -13    5.20   16.10
   4   0  13   -2.10   17.20
   4   0  13    9.80   12.70
   4   0  13    9.60    7.70
  -4   0 -13   11.60   13.30
   6   0  13    1.40    9.80
  -6   0 -13  -15.10   20.70
   6   0  13   -9.30   15.80
   8   0  13   -1.30   12.80
  -8   0 -13   -9.70   29.20
  -8   0 -13   -1.20   26.40
  10   0  13    5.50   18.10
 -10   0 -13  -13.10   31.70
 -10   0 -13   21.10   43.80
  12   0  13   -4.10   25.00
 -12   0 -13  -45.90   60.89
 -11  -1  13   83.19   38.70
 -11  -1  13   22.90   23.00
  11  -1 -13   49.20   23.50
 -11   1  13   27.40   22.40
 -11   1  13   78.89   39.60
  11   1 -13   14.90   20.80
  -9  -1  13  203.88   27.50
   9  -1 -13  219.38   27.00
  -9  -1  13  187.78   31.80
   9  -1 -13  147.69   31.70
   9   1 -13  187.58   24.50
  -9   1  13  309.07   42.60
   9   1 -13  144.09   35.50
  -9   1  13  169.28   24.10
   7  -1 -13   42.40   13.30
  -7  -1  13   22.80   12.70
  -7  -1  13   43.30   19.10
   7   1 -13   23.00   12.30
  -7   1  13   34.20   13.70
   7   1 -13   25.00   22.90
  -5  -1  13  198.58   20.60
  -5  -1  13  177.08   19.80
   5  -1 -13  185.58   21.00
  -5  -1  13  204.38   27.10
   5   1 -13  191.58   19.60
  -5   1  13  232.68   19.80
  -5   1  13  199.28   20.10
   5   1 -13  192.18   29.00
  -5   1  13  212.78   21.30
   5   1 -13  205.78   21.80
  -3  -1  13   40.10    8.90
  -3  -1  13   24.40    7.80
  -3  -1  13   22.90   12.30
   3  -1 -13   43.90    9.30
   3   1 -13   23.30    8.70
  -3   1  13   45.30    9.00
  -3   1  13   41.50    8.40
   3   1 -13   35.00    8.30
   3   1 -13   22.20   12.30
  -3   1  13   37.30    7.90
  -1  -1  13  126.49   16.20
  -1  -1  13  132.59   21.50
  -1  -1  13   98.09   13.00
   1  -1 -13  133.19   13.80
  -1   1  13  124.59   18.60
  -1   1  13  108.49   14.70
   1   1 -13  112.39   16.00
   1   1 -13  128.09   14.00
   1   1 -13  117.99   20.30
  -1   1  13   87.79   12.60
   1  -1  13   26.50   12.80
   1  -1  13    8.90    7.10
  -1  -1 -13  -14.40   15.40
  -1  -1 -13   14.40    6.80
  -1  -1 -13    9.60   10.20
   1  -1  13   17.90    9.60
  -1   1 -13    5.40   11.40
   1   1  13    5.40    6.70
   1   1  13    8.00   11.50
  -1   1 -13   13.40   12.70
   1   1  13   -1.40    8.90
  -1   1 -13   16.20    7.30
   3  -1  13  181.88   26.60
   3  -1  13  168.78   17.00
  -3  -1 -13  179.88   27.80
   3  -1  13  151.98   23.40
  -3  -1 -13  178.18   23.00
  -3  -1 -13  176.38   17.50
  -3   1 -13  149.39   21.10
  -3   1 -13  169.88   17.50
  -3   1 -13  181.38   26.90
   3   1  13  161.28   24.10
   3   1  13  190.38   23.00
   3   1  13  168.48   17.30
  -5  -1 -13   23.30   11.20
   5  -1  13   39.40   10.50
   5  -1  13   24.40   15.10
   5  -1  13  -11.90   19.60
  -5  -1 -13   43.80   18.30
  -5  -1 -13   30.30   21.60
   5   1  13   32.00   14.80
  -5   1 -13   18.20   19.20
   5   1  13   63.19   23.20
   5   1  13   34.20   10.00
  -5   1 -13   30.00   21.10
  -5   1 -13   34.60   11.20
  -7  -1 -13  124.99   33.40
   7  -1  13  105.49   17.10
  -7  -1 -13   79.69   29.20
  -7   1 -13   77.69   25.60
  -7   1 -13   62.69   28.80
   7   1  13  102.09   17.30
  -9  -1 -13   24.20   28.40
  -9  -1 -13   89.69   39.80
   9  -1  13   25.20   18.10
  -9   1 -13   61.09   30.60
  -9   1 -13   23.00   33.70
   9   1  13   46.50   17.60
 -11  -1 -13    6.20   36.20
  11  -1  13   11.80   23.10
 -11  -1 -13   52.39   53.99
  11   1  13    6.60   23.90
 -11   1 -13   87.59   50.09
 -11   1 -13   58.79   42.30
 -12  -2  13   18.10   26.80
 -12  -2  13   85.39   49.80
 -12   2  13    5.70   26.60
 -12   2  13   -3.50   25.40
  12   2 -13   15.60   24.90
 -10  -2  13   37.10   33.70
 -10  -2  13    3.00   18.00
 -10   2  13   30.30   19.40
 -10   2  13   27.20   17.00
  10   2 -13    3.10   17.80
  -8  -2  13  173.08   29.00
  -8  -2  13  201.08   23.00
   8   2 -13  145.49   22.00
   8   2 -13  144.99   32.40
  -8   2  13  180.88   25.20
  -8   2  13  203.38   22.00
  -6  -2  13  130.39   16.90
  -6  -2  13  130.69   17.30
  -6  -2  13  171.18   22.90
   6   2 -13   95.99   21.50
  -6   2  13  142.49   18.60
   6   2 -13  130.79   17.40
  -6   2  13  125.99   17.10
  -6   2  13  109.39   17.80
  -4  -2  13  201.78   25.60
  -4  -2  13  218.18   19.90
  -4  -2  13  202.78   19.90
   4  -2 -13  187.88   19.90
   4   2 -13  173.88   27.10
  -4   2  13  208.48   20.00
  -4   2  13  194.88   18.70
   4   2 -13  210.18   20.00
  -4   2  13  184.48   19.50
   4   2 -13  231.48   18.90
  -2  -2  13  499.85   39.30
   2  -2 -13  449.16   36.60
  -2  -2  13  503.55   40.10
  -2  -2  13  555.54   37.10
   2   2 -13  444.06   39.80
  -2   2  13  526.45   36.10
  -2   2  13  451.45   42.00
   2   2 -13  510.65   43.20
  -2   2  13  514.45   36.70
  -2   2  13  507.45   35.30
   2   2 -13  513.95   36.60
   0  -2  13  559.44   45.30
   0  -2  13  573.04   40.40
   0  -2  13  558.24   43.90
   0  -2 -13  574.84   41.00
   0   2  13  576.94   47.00
   0   2 -13  609.34   40.90
   0   2 -13  531.25   44.10
   0   2 -13  588.44   47.40
   0   2  13  529.65   40.50
  -2  -2 -13  349.96   30.00
   2  -2  13  345.67   25.70
  -2  -2 -13  229.78   40.60
   2  -2  13  351.96   33.70
   2  -2  13  307.47   31.10
  -2  -2 -13  337.17   26.20
   2   2  13  328.57   26.20
  -2   2 -13  356.36   26.30
   2   2  13  318.77   29.50
   2   2  13  337.37   33.80
  -2   2 -13  354.86   34.30
  -2   2 -13  304.77   31.70
  -4  -2 -13  218.78   33.00
  -4  -2 -13  166.28   19.90
   4  -2  13  219.48   19.40
  -4  -2 -13  203.98   27.10
   4  -2  13  173.58   25.80
   4  -2  13  238.48   33.50
   4   2  13  210.48   19.70
  -4   2 -13  182.08   28.70
  -4   2 -13  247.38   20.20
  -4   2 -13  182.38   29.70
   4   2  13  191.18   30.90
   6  -2  13   20.80   10.80
   6  -2  13   30.60   17.40
  -6  -2 -13   -8.90   24.30
  -6  -2 -13   25.50   21.70
  -6   2 -13    8.70   13.10
   6   2  13   -2.50   10.90
  -6   2 -13    9.40   18.70
   8  -2  13   24.30   13.90
  -8  -2 -13    5.70   24.20
  -8  -2 -13   -2.10   33.50
   8   2  13   10.60   14.10
  -8   2 -13   24.00   26.40
  -8   2 -13   -6.90   26.60
  10  -2  13  152.08   25.20
 -10  -2 -13  118.49   37.90
 -10  -2 -13  107.79   51.89
 -10   2 -13  115.69   43.70
  10   2  13  153.68   24.80
 -10   2 -13  130.39   41.50
 -12  -2 -13   73.79   81.99
  12  -2  13   64.59   28.90
  12   2  13  102.59   29.10
 -11  -3  13  590.94   71.69
 -11  -3  13  343.67   41.30
 -11   3  13  462.55   45.90
 -11   3  13  358.26   45.20
  11   3 -13  341.87   42.30
  -9  -3  13  384.76   34.20
  -9  -3  13  340.77   42.40
  -9   3  13  260.47   33.70
   9   3 -13  300.47   34.40
  -9   3  13  301.27   32.80
  -7  -3  13  331.27   31.00
  -7  -3  13  282.97   38.20
  -7   3  13  390.36   32.00
   7   3 -13  295.37   43.90
  -7   3  13  350.26   30.40
   7   3 -13  325.37   30.90
  -5  -3  13   37.00   10.40
  -5  -3  13   19.00   10.00
  -5  -3  13   19.60   15.90
   5  -3 -13   26.00   10.10
  -5   3  13   21.90    9.50
  -5   3  13   40.60    9.50
   5   3 -13   18.00   16.30
   5   3 -13   25.70    8.50
   5   3 -13   20.70   10.80
  -5   3  13   22.80   11.20
   3  -3 -13  101.09   28.20
  -3  -3  13   86.49   10.70
   3  -3 -13   81.79   11.40
  -3  -3  13   62.19   10.90
  -3  -3  13   78.59   15.40
  -3   3  13  100.29   12.50
  -3   3  13   77.99   10.10
   3   3 -13   78.19   17.10
  -3   3  13   72.49   17.50
  -3   3  13   81.19   11.10
   3   3 -13   79.69   11.30
   3   3 -13   79.59   10.90
   1  -3 -13   91.19   12.10
  -1  -3  13  108.19   16.40
  -1  -3  13  102.59   12.10
  -1   3  13  109.19   11.80
   1   3 -13  109.69   18.00
  -1   3  13  104.69   12.70
  -1   3  13  108.29   19.30
   1   3 -13  107.09   16.90
  -1   3  13   86.19   10.90
   1   3 -13  100.69   14.00
  -1  -3 -13  597.64   46.10
   1  -3  13  549.35   48.10
   1  -3  13  602.04   43.80
   1  -3  13  677.33   51.59
  -1  -3 -13  692.43   45.10
  -1   3 -13  723.33   44.70
  -1   3 -13  611.14   50.69
  -1   3 -13  598.54   48.70
   1   3  13  629.94   52.19
   1   3  13  593.34   44.10
   1   3  13  570.34   46.00
  -3  -3 -13   53.69    9.60
   3  -3  13   84.09   20.00
   3  -3  13   49.99    9.50
  -3  -3 -13   44.50   22.80
   3  -3  13   52.09   15.30
  -3  -3 -13   44.60   12.80
  -3  -3 -13   52.09   15.30
  -3   3 -13   31.60   15.10
  -3   3 -13   47.80   16.40
   3   3  13   53.29   16.20
  -3   3 -13   49.90    9.90
   3   3  13   58.69   11.20
  -5  -3 -13  790.42   79.69
   5  -3  13  814.52   66.79
   5  -3  13  988.60   61.39
  -5  -3 -13  883.81   68.19
  -5  -3 -13  809.22   66.89
   5   3  13  784.02   72.99
  -5   3 -13  948.71   60.99
  -5   3 -13  876.01   71.29
   5   3  13  935.81   62.09
  -5   3 -13  665.73   69.69
  -7  -3 -13  689.03   66.29
   7  -3  13  783.02   64.79
  -7  -3 -13  539.25   80.49
   7  -3  13  769.22   55.89
   7   3  13  811.52   56.99
  -7   3 -13  799.72   70.19
  -9  -3 -13  241.08   37.80
   9  -3  13  215.88   26.40
  -9  -3 -13  118.89   56.19
  -9   3 -13  172.48   41.00
  -9   3 -13  203.98   41.40
   9   3  13  226.38   26.60
  11  -3  13  299.27   34.20
 -11  -3 -13   84.29   70.19
 -11  -3 -13  342.77   48.60
 -11   3 -13  159.98   52.79
  11   3  13  264.67   33.70
 -11   3 -13  261.07   59.69
 -12  -4  13   33.40   47.60
 -12  -4  13   16.20   27.50
 -12   4  13   16.20   28.10
  12   4 -13   26.80   27.60
 -12   4  13    6.00   26.40
 -10  -4  13    0.30   33.70
 -10  -4  13    6.50   20.10
 -10   4  13  -33.50   19.50
  10   4 -13   -0.30   18.70
 -10   4  13   17.50   20.30
  -8  -4  13  254.87   30.20
  -8  -4  13  362.36   45.90
  -8   4  13  316.17   31.20
  -8   4  13  291.27   31.80
   8   4 -13  298.17   30.40
  -6  -4  13  989.90   83.19
  -6  -4  13 1296.37   88.69
  -6  -4  13 1244.48   83.59
   6   4 -13 1221.08   83.09
   6   4 -13 1218.48   89.79
  -6   4  13 1232.68   82.89
  -6   4  13 1220.18   83.69
  -4  -4  13 1775.62  119.19
  -4  -4  13 1730.93  118.79
   4  -4 -13 1577.34  119.09
   4  -4 -13 1922.41  126.99
  -4  -4  13 1969.00  123.59
  -4   4  13 1771.92  119.49
  -4   4  13 1892.41  118.89
   4   4 -13 1688.83  118.49
   4   4 -13 1729.63  119.29
   4   4 -13 1593.24  122.69
  -4   4  13 1871.91  119.39
   2  -4 -13  346.97   28.60
  -2  -4  13  364.36   28.10
  -2  -4  13  300.77   32.80
   2   4 -13  390.56   28.60
  -2   4  13  341.17   26.90
  -2   4  13  455.25   41.00
   2   4 -13  358.96   34.60
  -2   4  13  356.56   28.20
  -2   4  13  372.06   27.70
   2   4 -13  345.97   32.70
   0  -4 -13 1142.69   80.69
   0  -4  13 1173.18   79.89
   0  -4  13 1159.38   84.19
   0   4 -13 1324.17   80.39
   0   4 -13 1248.98   85.19
   0   4  13 1083.69   80.29
   0   4  13 1251.97   88.39
   0   4 -13 1218.38   84.79
   0   4 -13 1122.79   84.69
   0   4  13 1120.69   79.39
   2  -4  13  169.68   16.40
  -2  -4 -13  159.38   21.40
  -2  -4 -13  220.38   25.10
   2  -4  13  151.88   24.00
   2  -4  13  165.98   25.60
  -2  -4 -13  188.38   18.10
  -2   4 -13  187.78   26.10
  -2   4 -13  147.39   25.70
  -2   4 -13  188.48   24.70
   2   4  13  182.58   17.70
   2   4  13  177.28   26.80
  -2   4 -13  188.68   17.80
  -4  -4 -13  313.37   33.50
   4  -4  13  399.26   27.60
  -4  -4 -13  333.07   36.30
   4  -4  13  354.26   35.10
   4   4  13  289.87   40.70
  -4   4 -13  288.57   40.90
   4   4  13  324.07   28.00
  -4   4 -13  326.17   40.00
  -4   4 -13  377.96   27.80
  -4   4 -13  331.77   36.30
   6  -4  13  361.16   41.30
   6  -4  13  346.67   30.00
  -6  -4 -13  322.27   40.90
   6   4  13  319.87   31.50
  -6   4 -13  364.96   43.60
  -6   4 -13  356.86   30.80
   8  -4  13   29.50   15.20
   8  -4  13    6.90   23.90
  -8  -4 -13    2.20   25.40
   8   4  13   11.60   14.70
  -8   4 -13    6.40   27.20
 -10  -4 -13  204.68   40.30
  10  -4  13  287.07   36.20
  10   4  13  229.58   31.20
 -10   4 -13  278.77   49.40
 -10   4 -13  217.18   47.60
 -11  -5  13  453.55   51.69
 -11  -5  13  635.04   79.89
  11   5 -13  600.54   51.89
 -11   5  13  502.45   51.39
 -11   5  13  543.85   53.99
  -9  -5  13 1040.20   78.69
  -9  -5  13 1151.08   92.29
  -9   5  13  970.10   78.09
   9   5 -13 1085.99   78.39
  -9   5  13 1143.39   80.09
  -7  -5  13  524.35   41.90
  -7  -5  13  567.34   50.29
   7   5 -13  508.55   40.90
  -7   5  13  533.55   41.40
  -7   5  13  442.86   41.60
  -5  -5  13 1477.75  100.29
  -5  -5  13 1634.04  105.99
   5  -5 -13 1448.85  107.19
  -5  -5  13 1460.35  100.29
   5  -5 -13 1288.87   99.89
   5   5 -13 1329.57  100.19
  -5   5  13 1504.75  100.29
   5   5 -13 1513.75  106.59
  -5   5  13 1523.35   99.79
   5   5 -13 1574.94   99.79
  -5   5  13 1424.56  100.69
  -3  -5  13   63.79   11.20
   3  -5 -13   45.40    9.90
  -3  -5  13   75.29   16.40
   3  -5 -13   51.99   29.40
  -3  -5  13   63.59   10.20
   3   5 -13   55.89   17.60
  -3   5  13   68.99   11.10
  -3   5  13   49.99   10.50
  -3   5  13    4.20   21.40
  -3   5  13   62.69    9.80
   3   5 -13   61.19   10.00
   3   5 -13   62.79   10.70
  -1  -5  13   23.30    8.50
   1  -5 -13   33.20    7.00
  -1  -5  13   10.60   12.80
   1  -5 -13   25.50    8.50
   1  -5 -13  -17.00   20.50
  -1   5  13   26.00    6.80
   1   5 -13   35.00   13.00
  -1   5  13   18.50    7.70
   1   5 -13    9.60    7.80
  -1   5  13   41.30   19.90
   1   5 -13   17.00   14.70
   1   5 -13   30.20   12.70
   1  -5  13   19.40    7.00
  -1  -5 -13   25.30    8.50
   1  -5  13    8.10   12.40
  -1  -5 -13  -41.90   21.20
  -1  -5 -13   27.20    6.40
  -1   5 -13    9.30    7.60
  -1   5 -13   19.40   12.10
  -1   5 -13    0.10   13.90
   1   5  13   13.40    6.10
   1   5  13   22.40    7.30
  -1   5 -13   10.50   12.70
   1   5  13   25.00   17.80
  -3  -5 -13  780.42   56.29
  -3  -5 -13  711.23   51.79
   3  -5  13  743.93   58.09
  -3  -5 -13  670.83   54.39
   3  -5  13  765.72   51.19
  -3   5 -13  772.82   51.19
   3   5  13  666.33   51.99
   3   5  13  705.73   63.59
  -3   5 -13  731.33   58.39
  -3   5 -13  665.03   59.59
  -3   5 -13  768.72   59.99
   5  -5  13  917.81   57.89
  -5  -5 -13  711.23   63.89
  -5  -5 -13  872.41   65.49
   5  -5  13  876.91   66.69
   5   5  13  674.33   58.39
  -5   5 -13  780.92   66.29
  -5   5 -13  857.41   57.59
  -7  -5 -13 1844.62  139.29
   7  -5  13 2097.29  130.99
   7  -5  13 1981.00  138.79
  -7   5 -13 1998.00  142.19
   7   5  13 1712.73  131.59
   9  -5  13  883.41   64.09
  -9  -5 -13  760.82   78.89
   9  -5  13  814.12   75.99
   9   5  13  863.11   66.19
  -9   5 -13  800.42   86.99
 -11  -5 -13   35.50   73.59
  11  -5  13  228.88   31.20
 -11  -5 -13  211.48   48.80
 -11   5 -13  237.28   52.89
 -11   5 -13  180.18   52.19
  11   5  13  196.58   31.80
 -10  -6  13  -40.20   20.40
 -10  -6  13   54.29   41.70
 -10   6  13   20.70   23.00
  10   6 -13   -9.30   19.60
 -10   6  13   22.50   18.90
  -8  -6  13  373.76   50.99
  -8  -6  13  315.37   34.10
   8   6 -13  322.27   33.00
  -8   6  13  393.66   33.40
  -8   6  13  301.27   33.80
  -6  -6  13  382.66   34.20
   6  -6 -13  439.66   48.10
  -6  -6  13  451.55   45.90
   6   6 -13  431.26   34.20
  -6   6  13  349.87   34.60
  -6   6  13  419.96   34.10
   4  -6 -13 1795.42  128.79
  -4  -6  13 1900.71  124.69
   4  -6 -13 1655.03  119.39
  -4  -6  13 1752.22  119.09
  -4  -6  13 1922.01  119.29
   4   6 -13 1579.54  124.69
   4   6 -13 1822.52  119.19
  -4   6  13 1636.84  119.29
  -4   6  13 1802.32  118.89
  -4   6  13 1788.22  119.39
   4   6 -13 1791.42  118.69
   2  -6 -13  689.03   51.09
  -2  -6  13  739.03   58.59
  -2  -6  13  728.93   51.79
   2  -6 -13  710.73   52.29
   2  -6 -13  933.91   79.79
   2   6 -13  680.13   58.49
  -2   6  13  751.32   52.19
   2   6 -13  727.43   57.09
   2   6 -13  764.22   51.89
   2   6 -13  728.73   55.29
  -2   6  13  741.23   51.59
   0  -6  13 1231.88   92.29
   0  -6 -13 1285.67   87.99
   0  -6 -13 1265.27   86.29
   0   6  13 1215.68   86.69
   0   6 -13 1331.47   92.99
   0   6  13 1317.27   97.99
   0   6 -13 1272.37   91.79
   0   6  13 1317.97   87.69
   0   6 -13 1420.06   87.29
   0   6 -13 1226.08   92.49
  -2  -6 -13 1499.25  105.79
   2  -6  13 1529.95  109.69
  -2  -6 -13 1587.64  103.39
  -2  -6 -13 1512.85  104.69
   2   6  13 1441.66  114.39
  -2   6 -13 1453.95  110.39
   2   6  13 1601.14  104.19
  -2   6 -13 1578.64  110.39
  -2   6 -13 1538.55  111.79
   2   6  13 1729.73  105.39
  -4  -6 -13  268.27   35.80
   4  -6  13  336.87   37.10
  -4  -6 -13  310.27   33.80
  -4   6 -13  304.17   37.30
   4   6  13  344.77   27.40
  -6  -6 -13   35.70   20.70
  -6  -6 -13   -3.10   35.40
   6  -6  13   55.09   22.80
   6  -6  13   74.39   12.90
  -6   6 -13   51.39   12.90
   6   6  13   51.59   14.60
  -8  -6 -13   81.39   51.39
   8  -6  13    5.10   14.10
   8  -6  13   42.30   25.50
  -8  -6 -13   18.10   28.00
  -8   6 -13    3.70   26.00
   8   6  13   29.70   16.10
  10  -6  13  455.85   43.30
 -10  -6 -13  445.76   59.39
 -10   6 -13  520.55   79.29
 -10   6 -13  422.46   59.99
  10   6  13  385.26   47.20
 -11  -7  13  317.27   57.29
 -11  -7  13  257.57   37.50
 -11   7  13  309.77   35.70
  11   7 -13  267.07   35.50
 -11   7  13  307.07   38.00
  -9  -7  13  559.84   45.80
  -9  -7  13  537.35   63.89
  -9   7  13  430.26   44.50
   9   7 -13  450.95   44.80
  -9   7  13  484.75   43.80
  -7  -7  13  574.54   61.09
  -7  -7  13  533.75   48.40
   7  -7 -13  597.74   59.89
  -7   7  13  661.23   49.20
  -7   7  13  678.23   48.70
   7   7 -13  633.64   49.10
  -5  -7  13   82.79   14.40
  -5  -7  13   92.09   21.50
   5  -7 -13   52.79   14.30
   5  -7 -13   51.69   27.10
  -5  -7  13   77.69   15.20
   5   7 -13   43.90   14.20
  -5   7  13   61.59   13.30
  -5   7  13   -2.50   27.50
  -5   7  13   79.29   13.30
   5   7 -13   80.39   13.00
  -3  -7  13   -5.30   15.80
   3  -7 -13    8.50   27.90
   3  -7 -13    1.20   10.00
  -3  -7  13   14.40    8.80
  -3  -7  13    3.00    9.20
   3  -7 -13   11.70    9.90
   3   7 -13   -7.70    8.90
  -3   7  13   13.20   25.70
   3   7 -13   29.30   20.70
  -3   7  13  -12.40    7.60
  -3   7  13    7.80    9.30
   3   7 -13   -4.60    8.10
   1  -7 -13  117.99   12.70
   1  -7 -13  110.19   13.70
  -1  -7  13   88.89   19.30
   1  -7 -13  174.08   40.90
   1   7 -13  125.89   20.40
  -1   7  13   50.49   26.00
  -1   7  13   95.99   12.40
   1   7 -13  108.19   13.40
   1   7 -13   87.49   21.50
   1   7 -13  123.19   21.10
  -1   7  13   94.19   13.30
  -1  -7 -13  213.18   22.40
   1  -7  13  219.68   30.70
  -1  -7 -13  222.98   20.50
   1   7  13  253.57   21.00
  -1   7 -13  234.78   32.10
   1   7  13  226.38   35.30
  -1   7 -13  273.27   35.70
   1   7  13  244.68   21.20
  -1   7 -13  232.78   28.70
  -3  -7 -13  264.17   21.60
  -3  -7 -13  230.98   29.80
  -3  -7 -13  212.38   24.60
   3  -7  13  285.47   34.00
  -3  -7 -13  252.37   28.30
  -3   7 -13  249.08   32.40
  -3   7 -13  220.08   33.90
   3   7  13  279.37   22.80
   3   7  13  280.37   24.10
  -5  -7 -13 1557.84  121.89
   5  -7  13 1788.62  124.39
  -5  -7 -13 1814.92  115.99
  -5  -7 -13 1656.33  122.59
  -5   7 -13 1791.22  126.59
   5   7  13 1763.12  118.49
  -7  -7 -13  537.95   56.99
   7  -7  13  653.03   59.39
  -7   7 -13  553.94   62.29
  -7   7 -13  555.74   47.10
   7   7  13  599.04   47.80
  -9  -7 -13  699.83   74.89
   9  -7  13  743.33   57.99
   9  -7  13  738.93   72.79
  -9   7 -13  787.22   81.59
   9   7  13  681.83   61.39
  11  -7  13  264.97   33.80
 -11  -7 -13  225.68   52.49
  11   7  13  181.28   35.50
 -11   7 -13  183.08   54.19
 -11   7 -13  358.26   63.69
 -10  -8  13    9.30   22.80
 -10  -8  13   -0.40   42.50
  10   8 -13  -21.40   22.30
 -10   8  13   17.40   21.00
 -10   8  13   -1.00   23.50
   8  -8 -13   93.39   30.30
  -8  -8  13   90.89   19.40
  -8  -8  13   72.49   31.60
  -8   8  13   72.09   39.60
  -8   8  13   66.49   18.60
   8   8 -13   92.79   19.30
  -8   8  13  120.29   20.70
  -6  -8  13  612.94   47.70
   6  -8 -13  666.53   63.19
   6   8 -13  595.44   47.80
  -6   8  13  549.74   47.00
  -6   8  13  656.03   47.60
  -4  -8  13  249.88   24.30
   4  -8 -13  217.68   26.50
   4  -8 -13  319.07   45.70
  -4  -8  13  263.27   26.50
  -4  -8  13  234.78   37.00
  -4   8  13  262.37   25.10
   4   8 -13  269.57   24.30
  -4   8  13  271.77   25.40
   4   8 -13  302.77   25.00
   2  -8 -13  816.02   55.79
  -2  -8  13  732.53   62.39
   2  -8 -13  921.11   79.99
   2  -8 -13  698.73   54.39
   2   8 -13  739.63   61.29
   2   8 -13  786.32   58.39
   2   8 -13  819.52   54.29
  -2   8  13  772.12   54.69
  -2   8  13  722.73   54.69
   0  -8 -13 1211.58   86.19
   0  -8  13 1254.87   92.09
   0  -8 -13 1197.58   84.89
   0  -8 -13 1519.65  114.29
   0   8 -13 1156.58   94.39
   0   8  13 1216.18   85.69
   0   8 -13 1351.66   90.89
   0   8  13 1355.36   85.79
   0   8 -13 1139.79   92.89
   2  -8  13  227.98   28.90
  -2  -8 -13  186.78   18.40
  -2  -8 -13  148.59   19.80
   2   8  13  181.68   19.70
   2   8  13  170.28   19.00
  -2   8 -13  175.88   29.60
  -2   8 -13  189.78   27.90
  -4  -8 -13  564.44   42.90
  -4  -8 -13  546.35   48.80
   4  -8  13  575.84   54.29
  -4  -8 -13  632.14   51.59
   4   8  13  610.74   45.40
   4   8  13  637.94   44.30
  -4   8 -13  579.64   53.89
  -6  -8 -13   25.00   38.60
  -6  -8 -13   14.30   23.50
  -6  -8 -13  -13.40   12.20
   6  -8  13   44.00   24.70
  -6   8 -13   24.90   21.30
   6   8  13    5.10   11.10
   6   8  13   19.00   13.60
  -8  -8 -13  -25.40   51.79
  -8  -8 -13  -18.00   29.00
   8  -8  13   24.90   29.50
  -8   8 -13    7.80   29.60
   8   8  13   24.40   17.70
 -10  -8 -13  -33.10   69.49
  10  -8  13   52.39   37.40
  10  -8  13   42.10   22.20
 -10  -8 -13   31.80   39.30
 -10   8 -13   39.20   40.30
  10   8  13   24.50   22.80
 -11  -9  13  123.29   31.40
 -11  -9  13  213.28   54.29
 -11   9  13  141.09   29.30
  11   9 -13  116.39   30.80
 -11   9  13  141.29   33.50
  -9  -9  13  432.36   63.39
  -9  -9  13  431.96   43.00
  -9   9  13  410.16   42.20
   9   9 -13  357.56   43.00
  -9   9  13  379.56   42.90
   7  -9 -13  278.97   39.40
  -7  -9  13  217.58   30.30
  -7  -9  13  253.37   41.00
   7   9 -13  223.08   30.60
  -7   9  13  238.78   29.80
  -7   9  13  299.87   29.80
  -5  -9  13   28.10   24.20
  -5  -9  13   24.10   12.30
   5  -9 -13   23.50   30.50
   5  -9 -13   29.00   15.00
   5   9 -13   25.20   12.30
  -5   9  13   32.30   36.40
  -5   9  13   36.70   13.10
  -5   9  13   49.99   13.10
   3  -9 -13   10.00   10.80
  -3  -9  13   14.10   11.30
  -3  -9  13   16.60   19.40
   3  -9 -13  -36.20   33.00
  -3   9  13   -6.40   33.80
   3   9 -13    1.50    8.70
  -3   9  13    9.40    9.00
  -3   9  13    5.40    9.40
   1  -9 -13  -29.10   38.50
   1  -9 -13  -15.10   10.20
  -1  -9  13  -33.30   17.40
   1  -9 -13  -15.60   10.70
  -1   9  13   14.60   34.40
   1   9 -13   -1.30   19.10
  -1   9  13   14.00    9.10
   1   9 -13   22.80   13.30
  -1   9  13   -2.60    8.80
   1  -9  13  216.58   31.70
  -1  -9 -13  170.68   20.40
  -1  -9 -13  194.98   22.40
   1   9  13  179.98   20.20
   1   9  13  169.08   19.50
  -1   9 -13  180.08   28.00
   3  -9  13   27.50   19.60
  -3  -9 -13    6.00   14.50
  -3  -9 -13   32.50   34.00
  -3  -9 -13   -1.30   18.20
  -3  -9 -13    0.50   10.40
  -3   9 -13    5.40   15.70
   3   9  13   12.90    9.70
   3   9  13  -15.00    9.90
  -5  -9 -13  118.59   26.10
  -5  -9 -13   62.89   23.90
   5  -9  13  143.99   28.40
  -5   9 -13  124.89   26.90
   5   9  13   95.59   17.30
   5   9  13  135.89   16.30
  -7  -9 -13  216.48   38.60
   7  -9  13  328.17   42.90
   7   9  13  280.47   29.20
  -7   9 -13  300.27   48.60
   7   9  13  241.38   28.80
   9  -9  13  135.79   37.20
  -9  -9 -13  -11.00   59.29
  -9  -9 -13  116.69   40.50
  -9   9 -13  128.99   41.00
   9   9  13   98.99   27.50
 -10 -10  13   39.20   25.10
 -10 -10  13  -45.40   44.60
  10 -10 -13   11.10   43.80
 -10  10  13   53.99   28.70
 -10  10  13   26.70   22.30
  10  10 -13  -13.00   24.30
  -8 -10  13   47.90   19.40
  -8 -10  13   38.00   36.00
   8 -10 -13   42.80   31.20
  -8  10  13   44.00   19.20
  -8  10  13   42.60   19.70
   8  10 -13   37.60   20.70
  -6 -10  13  -12.50   15.00
  -6 -10  13   -1.50   30.20
   6 -10 -13   -4.50   30.50
  -6  10  13    0.70   15.10
  -6  10  13   33.20   14.30
   6  10 -13   15.90   15.00
   4 -10 -13    3.30   33.80
  -4 -10  13   68.49   25.90
   4 -10 -13   34.20   14.20
   4  10 -13   41.80   12.30
  -4  10  13   45.90   13.10
  -4  10  13   42.80   12.70
   4  10 -13   64.49   13.00
   2 -10 -13  -10.70   37.00
   2 -10 -13   63.59   14.40
  -2 -10  13   93.19   25.60
   2  10 -13   29.10   23.20
  -2  10  13   67.99   12.80
   2  10 -13   87.29   17.90
  -2  10  13  100.99   13.90
   0 -10 -13  192.98   24.30
   0 -10  13  195.08   30.80
   0 -10 -13  264.07   53.99
   0  10 -13  231.48   30.40
   0  10 -13  236.58   41.50
   0  10  13  228.08   22.10
   0  10  13  238.18   22.80
  -2 -10 -13   12.60   12.60
   2 -10  13   20.10   20.80
  -2 -10 -13   89.59   44.00
  -2  10 -13   16.00   15.90
   2  10  13    8.60   10.50
   2  10  13   -1.80    9.80
  -4 -10 -13   43.60   39.30
  -4 -10 -13   11.10   20.50
  -4 -10 -13   58.89   21.90
   4 -10  13   23.20   22.50
   4  10  13   40.30   14.50
   4  10  13   21.20   12.40
  -4  10 -13   28.50   20.30
   6 -10  13    4.90   24.70
  -6 -10 -13   25.50   27.20
  -6 -10 -13    5.30   46.40
  -6  10 -13  -14.40   22.00
   6  10  13   25.70   14.10
   6  10  13  -12.40   15.30
   8 -10  13   25.00   32.80
  -8 -10 -13   76.39   57.69
  -8 -10 -13   55.29   37.00
   8  10  13    7.80   16.50
   8  10  13   34.80   21.50
  -8  10 -13   37.50   34.40
 -10 -10 -13  -50.79   72.19
 -10 -10 -13  -14.10   44.10
  10 -10  13  -23.40   40.50
  10  10  13   39.20   21.20
  10  10  13  -31.80   25.30
 -10  10 -13   30.80   43.90
  -9 -11  13   33.40   45.30
  -9 -11  13   32.40   23.20
   9 -11 -13   54.89   39.40
   9  11 -13   35.60   26.70
  -9  11  13   40.90   24.70
  -9  11  13   69.49   22.50
  -7 -11  13   46.90   38.00
  -7 -11  13  -22.20   17.60
   7 -11 -13    0.90   34.00
  -7  11  13   -5.40   16.20
   7  11 -13  -19.90   18.00
  -7  11  13   35.10   18.30
  -5 -11  13   27.80   13.70
  -5 -11  13  -19.50   17.90
   5 -11 -13   28.10   35.80
  -5 -11  13  -13.60   27.80
   5  11 -13   28.40   14.50
  -5  11  13   47.10   14.10
  -5  11  13   62.79   15.10
  -3 -11  13  -14.70   15.00
   3 -11 -13   17.20   39.50
  -3 -11  13    8.00   22.80
   3 -11 -13  -16.70   13.50
  -3  11  13  -31.20   11.20
   3  11 -13  -19.50   10.80
   3  11 -13   -8.10   16.10
  -3  11  13  -22.40   10.90
   1 -11 -13   -1.20   14.00
  -1 -11  13  -19.00   20.40
   1 -11 -13  -28.00   40.40
   1  11 -13    3.90   27.30
  -1  11  13   10.00   10.20
   1  11 -13  -12.00   16.20
  -1  11  13   -3.20   10.80
  -1 -11 -13   12.00   42.20
   1 -11  13   22.70   22.30
  -1 -11 -13   12.90   14.50
  -1  11 -13   15.60   18.10
   1  11  13   11.20   11.90
   1  11  13   25.30   10.90
  -3 -11 -13  156.68   49.30
   3 -11  13    9.80   22.90
  -3 -11 -13   56.19   22.60
   3  11  13   39.60   13.30
  -3  11 -13   40.40   20.30
   3  11  13   20.70   12.70
  -5 -11 -13  -26.10   41.80
  -5 -11 -13  -26.40   26.80
   5 -11  13    3.30   25.40
   5  11  13    3.40   14.30
  -5  11 -13  -12.90   22.00
   5  11  13    7.00   14.60
   7 -11  13   47.80   35.10
  -7 -11 -13    2.70   34.50
  -7 -11 -13  -42.50   52.89
   7  11  13    0.20   16.30
  -7  11 -13    3.30   30.90
   7  11  13   13.20   18.10
  -9 -11 -13 -102.19   42.20
   9 -11  13   65.79   41.10
  -9 -11 -13   72.79   72.59
  -9  11 -13  -19.30   39.10
   9  11  13   17.10   20.50
   9  11  13   24.50   25.40
  -8 -12  13   32.90   49.00
  -8 -12  13   -7.60   20.20
   8 -12 -13  -14.50   35.40
   8  12 -13   -9.30   21.30
  -8  12  13  -54.09   21.90
  -8  12  13   17.10   19.30
  -6 -12  13   80.29   36.70
   6 -12 -13  154.98   43.20
  -6  12  13  131.99   21.50
  -6  12  13  150.78   22.00
   6  12 -13  175.18   25.00
   4 -12 -13  -12.00   40.50
  -4 -12  13  -20.70   28.20
   4  12 -13   -0.10   15.10
  -4  12  13    9.70   14.00
  -2 -12  13   42.20   26.70
   2 -12 -13    0.80   45.70
   2  12 -13   27.60   19.60
   2  12 -13  100.59   47.00
   2  12 -13   65.29   13.00
  -2  12  13   67.99   13.70
  -2  12  13   62.19   14.60
   0 -12  13  241.38   36.20
   0 -12 -13  221.18   55.29
   0 -12 -13  215.28   28.30
   0  12  13  227.68   24.60
   0  12 -13  251.57   33.80
   0  12  13  250.37   26.90
   2 -12  13   60.49   26.80
  -2 -12 -13   75.59   51.49
   2  12  13   49.20   13.60
   2  12  13   57.19   15.50
  -2  12 -13   28.10   23.20
  -4 -12 -13   21.90   55.89
   4 -12  13   25.40   25.40
  -4 -12 -13    6.00   23.50
  -4 -12 -13   39.40   25.30
   4  12  13   16.00   14.80
  -4  12 -13   12.70   22.40
   4  12  13   16.80   14.20
   6 -12  13   27.50   32.50
  -6 -12 -13    3.90   32.80
  -6 -12 -13   48.10   56.09
   6  12  13   20.20   18.50
  -6  12 -13  -15.20   26.50
   6  12  13   31.30   16.30
   8 -12  13   71.29   36.80
  -8 -12 -13   51.39   43.40
  -8 -12 -13   17.00   61.99
  -8  12 -13  -11.60   34.70
   8  12  13   31.00   26.20
   8  12  13   31.40   20.70
  -9 -13  13  103.29   54.29
   9 -13 -13  108.99   49.90
  -9 -13  13  143.49   29.40
  -9  13  13  105.69   27.10
   9  13 -13  134.49   29.90
   7 -13 -13  172.18   44.60
  -7 -13  13  163.98   27.40
  -7 -13  13  217.18   47.30
   7  13 -13  191.88   29.30
  -7  13  13  192.18   26.20
   5 -13 -13   59.79   43.50
  -5 -13  13    2.00   32.30
   5  13 -13   40.10   18.20
  -5  13  13   49.90   18.20
   3 -13 -13   -7.10   46.70
  -3 -13  13    2.00   29.70
   3  13 -13   12.80   16.00
  -3  13  13   -8.10   14.30
   3  13 -13  -97.79   57.29
   3  13 -13   21.10   18.80
  -1 -13  13  -15.20   27.50
   1 -13 -13   39.00   16.20
   1 -13 -13    5.90   50.99
   1  13 -13   24.80   21.70
  -1  13  13   26.10   13.60
   1 -13  13  138.89   32.70
  -1 -13 -13  107.29   52.59
   1  13  13  105.09   18.50
   1  13  13   87.19   16.10
  -1  13 -13  117.99   29.40
  -3 -13 -13   79.39   57.09
  -3 -13 -13   44.50   32.20
   3 -13  13   23.90   27.60
   3  13  13   21.20   15.50
  -3  13 -13   20.20   25.00
   3  13  13   15.40   15.50
   5 -13  13  378.56   47.70
  -5 -13 -13  296.97   42.60
  -5 -13 -13  183.48   70.89
   5  13  13  339.57   35.60
  -5  13 -13  289.07   49.20
   5  13  13  298.37   34.80
   7 -13  13  164.98   43.00
  -7 -13 -13  188.48   41.50
  -7 -13 -13   40.30   73.29
   7  13  13  175.78   30.30
  -7  13 -13  141.69   38.10
   7  13  13  167.08   25.60
  -8 -14  13   85.29   53.29
  -8 -14  13  121.79   28.10
   8 -14 -13   52.69   42.90
  -8  14  13   92.99   26.30
   8  14 -13   92.19   27.70
   6 -14 -13   90.19   47.70
  -6 -14  13  159.38   45.70
  -6  14  13  102.89   25.70
   6  14 -13   92.49   25.20
  -4 -14  13  571.24   70.79
   4 -14 -13  714.73   85.99
  -4  14  13  579.34   53.69
   4  14 -13  730.93   56.19
   4  14 -13  717.73   64.29
  -2 -14  13  386.56   52.19
   2 -14 -13  444.76   64.79
  -2 -14  13  284.47   44.00
   2  14 -13  372.16   44.60
   2  14 -13  300.77   33.40
  -2  14  13  254.07   33.60
   0 -14 -13  366.76   68.69
   0 -14  13  245.98   40.90
   0  14  13  290.37   33.60
   0  14 -13  312.37   46.50
  -2 -14 -13  570.74   81.99
   2 -14  13  550.14   61.19
   2  14  13  469.85   43.40
   2  14  13  496.15   44.70
  -2  14 -13  530.15   59.69
   4 -14  13   73.89   34.90
  -4 -14 -13    0.30   65.69
  -4 -14 -13   93.69   39.40
  -4  14 -13   88.49   29.50
   4  14  13   55.39   20.10
   4  14  13   67.59   19.90
  -6 -14 -13  -16.50   39.80
   6 -14  13   36.30   37.60
  -6 -14 -13   -4.10   70.99
  -6  14 -13   35.90   30.90
   6  14  13   74.19   22.60
   6  14  13   24.90   20.70
  -8 -14 -13 -127.69   84.99
   7 -15 -13   69.89   49.70
  -7 -15  13  -10.00   48.40
  -7  15  13  149.59   28.90
   7  15 -13  105.79   30.30
  -5 -15  13  547.95   78.09
   5 -15 -13  489.95   71.29
  -5  15  13  427.06   46.00
   5  15 -13  444.06   49.50
   3 -15 -13   34.30   50.29
  -3 -15  13   32.40   39.80
  -3 -15  13   77.09   37.40
  -3  15  13   32.30   18.20
   3  15 -13   49.00   21.10
  -1 -15  13  -14.00   32.60
  -1 -15  13   40.60   34.60
   1 -15 -13  113.39   56.19
  -1  15  13   46.30   17.50
  -1 -15 -13  -28.60   60.19
   1 -15  13   -6.40   32.50
  -1  15 -13    7.40   26.80
  -3 -15 -13  190.58   77.09
   3 -15  13  468.25   59.09
   3  15  13  318.47   39.30
  -3  15 -13  346.07   57.29
   3  15  13  344.17   38.20
  -5 -15 -13  359.86   52.79
   5 -15  13  339.77   49.90
  -5 -15 -13  186.78   84.19
   5  15  13  266.57   38.40
   5  15  13  292.07   38.60
  -5  15 -13  313.87   53.59
  -7 -15 -13  400.36   65.39
  -7 -15 -13  239.18   96.39
   7 -15  13  499.05   72.09
   7  15  13  459.55   53.39
  -7  15 -13  483.25   73.39
   7  15  13  400.16   48.30
   6 -16 -13  473.15   70.79
  -6 -16  13  273.27   59.89
  -6  16  13  336.67   46.40
   6  16 -13  314.97   45.70
   4 -16 -13  523.85   80.09
  -4 -16  13  576.64   81.99
  -4 -16  13  620.64   79.29
   4  16 -13  625.54   54.59
  -4  16  13  584.34   54.39
   2 -16 -13  556.04   82.69
  -2 -16  13  606.84   71.89
  -2 -16  13  535.35   65.49
   2  16 -13  406.26   48.20
  -2  16  13  369.36   46.90
   0 -16  13  560.54   71.79
   0 -16 -13  545.75   84.69
   0 -16  13  438.96   67.79
   0  16 -13  542.45   58.49
   0  16  13  494.05   48.70
   2 -16  13  309.87   48.10
  -2 -16 -13   86.09   73.49
   2  16  13  276.57   35.60
  -2  16 -13  296.67   47.70
  -4 -16 -13   58.69   80.39
   4 -16  13  356.16   50.39
  -4 -16 -13   73.89   54.39
  -4  16 -13  227.08   43.00
   4  16  13  184.08   28.20
   4  16  13  208.18   29.70
  -6 -16 -13   -9.50   53.19
   6 -16  13   10.80   44.00
  -6 -16 -13  115.29   96.29
   6  16  13  -16.70   23.40
  -6  16 -13    4.30   35.20
   6  16  13   81.09   29.30
   5 -17 -13  176.08   63.59
  -5 -17  13   71.29   49.10
  -5  17  13   34.80   24.80
   5  17 -13   36.20   28.10
  -3 -17  13   25.50   41.10
  -3 -17  13   48.10   42.70
   3 -17 -13  -58.09   57.89
  -3  17  13   33.20   23.00
   3  17 -13   62.29   24.80
  -1 -17  13   32.40   42.60
  -1 -17  13   25.30   40.20
   1 -17 -13 -113.39   63.19
  -1  17  13  -14.80   21.50
   1  17 -13    1.10   25.70
  -1 -17 -13  242.48   79.99
   1 -17  13  356.56   51.99
   1  17  13  293.37   40.20
  -1  17 -13  343.77   59.89
  -3 -17 -13   30.70   72.69
   3 -17  13   75.99   42.00
   3  17  13   16.20   21.70
  -3  17 -13    7.00   41.30
  -5 -17 -13  379.06   93.79
  -2 -18  13  511.75   72.79
  -2 -18  13  694.03   89.79
   2 -18 -13  670.93  112.09
  -2  18  13  625.74   58.39
   2  18 -13  604.14   64.19
   0 -18 -13  627.94  105.89
   0 -18  13  688.23   87.09
   0 -18  13  622.84   84.99
   0  18  13  609.44   58.29
   2 -18  13   45.00   46.90
  -2 -18 -13    9.80   73.39
   2  18  13   47.90   25.70
  -2  18 -13   53.89   40.30
  12   0 -14   91.69   28.00
 -12   0  14  137.09   30.80
 -12   0  14  215.48   49.50
  10   0 -14   75.99   21.50
 -10   0  14   88.79   22.80
 -10   0  14  181.08   36.40
   8   0 -14 1082.79   80.49
   8   0 -14 1001.60   72.99
  -8   0  14  925.41   78.09
  -8   0  14 1020.40   73.19
   6   0 -14  190.98   20.60
  -6   0  14  216.28   21.60
  -6   0  14  122.89   19.60
  -4   0  14 1937.11  124.89
   4   0 -14 1900.31  125.09
  -4   0  14 1940.41  125.79
   4   0 -14 1682.83  125.49
   2   0 -14 2019.40  136.39
   2   0 -14 2080.69  135.29
  -2   0  14 2061.99  137.79
  -2   0  14 2019.30  133.49
  -2   0  14 1922.91  134.89
   0   0  14 1044.10   77.69
   0   0 -14 1050.09   76.49
   0   0  14 1054.89   76.09
   0   0 -14 1097.89   73.99
   0   0  14 1152.88   73.89
   0   0 -14 1068.49   82.19
   2   0  14  788.62   58.59
  -2   0 -14  751.42   54.59
  -2   0 -14  821.32   65.49
   2   0  14  790.82   54.39
   2   0  14  739.93   61.09
  -4   0 -14   28.90   19.80
  -4   0 -14   48.00   16.60
   4   0  14   11.30   19.10
  -4   0 -14   25.00    9.70
   4   0  14   35.30   14.60
   4   0  14   42.30    9.80
   6   0  14  429.36   32.40
  -6   0 -14  294.27   50.49
   6   0  14  339.17   41.30
   8   0  14   95.69   18.60
  -8   0 -14  100.49   34.50
  -8   0 -14   88.89   37.40
 -10   0 -14  718.13   92.29
  10   0  14  689.23   57.69
 -10   0 -14  545.65   76.89
 -11  -1  14  524.65   73.49
 -11  -1  14  430.76   47.50
 -11   1  14  378.66   49.90
  11   1 -14  445.86   47.80
 -11   1  14  530.95   68.79
 -11   1  14  534.65   49.70
  -9  -1  14  141.79   23.00
   9  -1 -14  164.08   22.90
  -9  -1  14  199.38   33.10
   9   1 -14  159.38   23.00
   9   1 -14  130.29   35.40
  -9   1  14  193.28   24.70
  -7  -1  14   30.50   19.50
   7  -1 -14   63.79   14.60
  -7  -1  14   27.10   14.30
   7   1 -14   54.19   13.70
  -7   1  14   48.20   15.20
   7   1 -14   45.10   23.90
  -5  -1  14  187.58   21.50
   5  -1 -14  171.78   22.60
  -5  -1  14  223.78   20.60
  -5  -1  14  239.08   28.60
  -5   1  14  189.68   19.60
   5   1 -14  173.38   22.60
  -5   1  14  168.98   22.10
   5   1 -14  180.48   19.00
   5   1 -14  249.08   30.80
  -5   1  14  172.98   20.60
   3  -1 -14   40.10    9.70
  -3  -1  14   68.29   10.10
  -3  -1  14   57.29   13.70
  -3  -1  14   48.30    8.50
  -3   1  14   58.59    8.80
  -3   1  14   24.80   12.90
   3   1 -14   45.70    9.90
  -3   1  14   60.59   10.90
   3   1 -14   46.20    8.60
  -3   1  14   55.79    9.40
   3   1 -14   18.20   14.00
  -1  -1  14 1038.60   76.09
  -1  -1  14 1065.49   73.29
  -1  -1  14 1142.39   77.59
   1  -1 -14 1000.20   73.39
   1   1 -14 1135.59   81.09
  -1   1  14 1083.19   73.39
  -1   1  14 1165.08   78.49
   1   1 -14 1017.50   75.89
  -1   1  14  966.40   74.79
   1   1 -14 1114.89   73.69
   1  -1  14 1231.98   90.79
   1  -1  14 1186.48   88.69
  -1  -1 -14 1342.27   86.39
  -1  -1 -14 1349.86   96.89
  -1  -1 -14 1126.99   87.69
   1  -1  14 1297.57   85.69
  -1   1 -14 1108.69   88.59
   1   1  14 1320.27   91.59
  -1   1 -14 1437.66   94.59
   1   1  14 1183.18   87.79
  -1   1 -14 1347.77   86.19
   1   1  14 1264.17   85.79
  -3  -1 -14 1341.77   97.89
  -3  -1 -14 1260.77   87.09
   3  -1  14 1270.37   91.19
   3  -1  14 1263.97   93.59
  -3  -1 -14 1154.58   90.59
   3  -1  14 1298.27   87.29
  -3   1 -14 1446.96   87.29
   3   1  14 1280.67   87.39
   3   1  14 1141.09   93.89
  -3   1 -14 1352.36   91.29
   3   1  14 1178.48   90.29
  -3   1 -14 1350.56   97.19
  -5  -1 -14 1046.20   86.89
   5  -1  14 1295.87   81.29
   5  -1  14 1187.28   86.19
  -5  -1 -14 1150.18   95.19
   5   1  14 1181.78   81.19
  -5   1 -14  994.10   89.79
  -5   1 -14 1232.88   93.59
  -5   1 -14 1147.89   80.79
   5   1  14 1209.68   86.09
  -7  -1 -14  750.92   77.59
  -7  -1 -14  644.04   69.99
   7  -1  14  854.61   57.99
  -7   1 -14  774.62   74.59
   7   1  14  733.83   57.59
   9  -1  14  432.36   41.40
  -9  -1 -14  351.36   57.29
  -9  -1 -14  419.56   51.99
  -9   1 -14  421.56   67.69
  -9   1 -14  449.06   54.39
   9   1  14  385.66   40.90
 -11  -1 -14  108.09   59.99
  11  -1  14   65.19   26.30
 -11  -1 -14   33.90   38.40
  11   1  14   82.29   25.10
 -11   1 -14   44.10   56.09
 -11   1 -14   71.39   43.00
 -12  -2  14  107.29   28.80
 -12  -2  14   64.79   48.10
  12   2 -14   77.59   27.30
 -12   2  14   50.59   30.20
 -12   2  14   38.00   26.50
 -10  -2  14  442.76   43.30
 -10  -2  14  409.46   51.09
 -10   2  14  356.36   42.90
  10   2 -14  426.36   42.20
 -10   2  14  488.45   44.70
  -8  -2  14  185.08   28.50
  -8  -2  14  185.88   25.80
  -8   2  14  184.68   21.50
   8   2 -14  148.79   34.20
  -8   2  14  192.28   24.10
   8   2 -14  152.48   21.80
  -6  -2  14  971.60   74.29
  -6  -2  14  964.40   69.39
  -6  -2  14  861.61   70.49
  -6   2  14 1019.60   68.29
   6   2 -14  977.30   68.79
  -6   2  14 1010.60   69.49
   6   2 -14 1025.10   74.69
  -4  -2  14 1042.90   67.19
   4  -2 -14  923.01   67.79
  -4  -2  14  988.80   67.59
  -4  -2  14  874.11   70.49
   4   2 -14  869.71   67.29
  -4   2  14 1000.30   67.19
   4   2 -14  961.30   71.49
   4   2 -14  984.20   66.69
  -4   2  14 1022.90   66.49
  -4   2  14  979.50   67.69
  -2  -2  14  184.78   23.30
   2  -2 -14  214.18   19.80
  -2  -2  14  216.98   18.80
  -2  -2  14  179.78   24.00
   2   2 -14  191.18   29.10
  -2   2  14  202.18   19.60
  -2   2  14  221.18   18.40
  -2   2  14  203.18   17.60
   2   2 -14  200.98   24.60
   2   2 -14  187.08   18.90
  -2   2  14  166.28   26.30
   0  -2  14 2192.38  135.29
   0  -2 -14 1983.70  135.39
   0  -2  14 2142.79  139.19
   0  -2 -14 1759.62  136.09
   0  -2  14 2077.89  138.29
   0   2  14 2082.49  140.89
   0   2  14 1824.22  135.99
   0   2 -14 1974.20  137.99
   0   2 -14 2286.77  135.59
   0   2  14 1845.32  134.99
   0   2 -14 2136.29  141.49
  -2  -2 -14   35.60    8.90
  -2  -2 -14   52.39   13.00
   2  -2  14   40.90   15.60
   2  -2  14   24.20   14.00
   2  -2  14   54.49    8.90
  -2  -2 -14   20.50   23.70
   2   2  14   42.60   16.80
  -2   2 -14   21.10   15.00
  -2   2 -14   44.50    9.00
   2   2  14   65.29   13.50
   2   2  14   52.49    9.50
  -2   2 -14   61.99   15.70
   4  -2  14   11.80   19.40
  -4  -2 -14   -9.50    9.10
   4  -2  14  -10.60    7.90
   4  -2  14    3.70   14.20
  -4  -2 -14   -9.20   20.60
  -4  -2 -14    3.40   14.60
   4   2  14   -3.20    8.40
   4   2  14  -14.80   17.50
  -4   2 -14    8.80   16.60
   4   2  14   -9.60   13.90
  -4   2 -14   -1.20    8.70
  -4   2 -14   25.60   16.90
  -6  -2 -14   85.39   30.50
   6  -2  14   80.39   14.40
  -6  -2 -14   93.09   27.30
   6  -2  14   60.19   21.60
  -6   2 -14   74.39   26.20
   6   2  14   94.59   15.30
   8  -2  14  210.58   29.00
  -8  -2 -14  233.38   38.60
  -8  -2 -14  247.88   47.70
  -8   2 -14  253.17   39.30
   8   2  14  208.98   28.90
  -8   2 -14  205.58   41.90
  10  -2  14  293.17   38.10
 -10  -2 -14  267.97   62.69
 -10  -2 -14  256.07   45.80
 -10   2 -14  372.36   56.99
  10   2  14  270.07   34.40
 -10   2 -14  378.46   54.99
 -11  -3  14  157.28   45.50
 -11  -3  14  159.38   27.00
 -11   3  14  155.68   29.50
  11   3 -14  143.69   28.50
 -11   3  14  158.78   29.10
  -9  -3  14   24.30   17.20
  -9  -3  14   39.80   28.90
  -9   3  14   15.90   16.40
  -9   3  14   15.80   18.40
   9   3 -14   49.10   18.00
  -7  -3  14  148.19   21.10
  -7  -3  14  239.38   30.00
   7   3 -14  146.09   31.40
  -7   3  14  220.38   24.90
  -7   3  14  234.18   24.20
   7   3 -14  204.68   24.20
   5  -3 -14   30.90   12.00
  -5  -3  14   19.20   11.10
  -5  -3  14  -10.20    9.40
  -5  -3  14   14.70   16.00
  -5   3  14   41.10   11.40
  -5   3  14   33.60    9.60
   5   3 -14   -4.10    8.40
   5   3 -14    9.00   17.40
  -5   3  14   27.90   10.20
   5   3 -14   14.60   11.50
  -3  -3  14  200.88   17.60
  -3  -3  14  151.58   17.70
  -3  -3  14  192.58   25.80
   3  -3 -14  153.88   18.70
  -3   3  14  155.48   28.20
  -3   3  14  200.68   18.50
   3   3 -14  179.38   23.20
  -3   3  14  172.38   18.80
   3   3 -14  171.08   16.50
  -3   3  14  178.18   17.40
   3   3 -14  160.68   18.20
  -1  -3  14   25.20   13.60
  -1  -3  14   51.99   16.10
  -1  -3  14   30.60    8.10
   1  -3 -14   30.50    8.70
   1   3 -14   33.20   15.10
  -1   3  14   27.50    6.60
  -1   3  14   53.19   15.50
  -1   3  14   24.70    8.00
   1   3 -14   36.70    9.00
   1   3 -14   62.09   15.50
   1  -3  14  916.01   65.39
  -1  -3 -14 1047.60   67.99
   1  -3  14  999.10   70.29
  -1  -3 -14  887.21   66.09
   1  -3  14  922.91   72.79
   1   3  14  885.61   67.29
   1   3  14 1002.90   73.59
  -1   3 -14 1007.60   70.69
   1   3  14  853.81   65.59
  -1   3 -14  957.30   72.39
  -1   3 -14 1045.40   66.19
   3  -3  14  391.06   42.90
  -3  -3 -14  334.47   29.60
   3  -3  14  386.76   36.10
  -3  -3 -14  436.16   36.20
   3  -3  14  358.56   28.70
  -3  -3 -14  340.27   33.60
  -3   3 -14  403.66   29.30
  -3   3 -14  335.97   38.10
   3   3  14  377.26   29.60
  -3   3 -14  289.47   36.40
   3   3  14  349.17   40.70
  -5  -3 -14  296.57   36.00
  -5  -3 -14  217.48   31.50
   5  -3  14  254.47   33.70
   5  -3  14  280.27   25.50
  -5  -3 -14  204.68   43.30
  -5   3 -14  295.27   26.30
   5   3  14  257.47   25.60
  -5   3 -14  317.67   38.50
   7  -3  14  514.95   51.59
   7  -3  14  522.25   42.00
  -7  -3 -14  390.06   54.09
  -7  -3 -14  470.15   74.09
   7   3  14  513.55   42.60
  -7   3 -14  556.14   58.29
   9  -3  14  182.18   24.70
  -9  -3 -14  134.99   34.90
  -9  -3 -14   14.10   51.09
  -9   3 -14  132.29   38.00
   9   3  14  122.69   22.80
  -9   3 -14  111.99   39.40
 -11  -3 -14   -1.50   71.29
  11  -3  14  -20.60   24.30
 -11  -3 -14   62.29   40.00
  11   3  14   25.70   24.50
 -11   3 -14   43.10   50.39
 -11   3 -14   88.99   50.69
 -12  -4  14   93.79   54.59
 -12  -4  14  133.09   29.50
 -12   4  14  112.79   31.90
  12   4 -14   96.29   28.40
 -12   4  14   54.09   28.70
 -10  -4  14   39.00   37.90
 -10  -4  14    6.50   19.10
 -10   4  14   -4.60   17.80
 -10   4  14  -18.80   22.10
  10   4 -14  -12.00   20.10
  -8  -4  14  189.38   23.60
  -8  -4  14  175.98   31.60
  -8   4  14  182.68   23.30
   8   4 -14  213.68   26.60
  -8   4  14  220.58   27.40
  -6  -4  14  204.58   23.80
  -6  -4  14  212.88   28.70
   6   4 -14  224.08   22.50
  -6   4  14  200.68   23.20
  -6   4  14  202.08   24.10
   6   4 -14  246.58   33.20
   4  -4 -14  297.17   43.00
  -4  -4  14  275.97   25.60
   4  -4 -14  261.37   26.50
  -4  -4  14  288.47   25.50
  -4  -4  14  309.27   34.20
   4   4 -14  339.07   36.90
  -4   4  14  286.57   25.30
  -4   4  14  343.57   26.70
   4   4 -14  278.77   24.00
   4   4 -14  305.87   26.20
  -4   4  14  264.77   25.80
   2  -4 -14  125.89   18.50
  -2  -4  14  189.18   24.90
  -2  -4  14  131.99   17.50
  -2   4  14  162.38   15.60
  -2   4  14  153.48   16.90
  -2   4  14  168.38   16.70
   2   4 -14  163.28   17.80
  -2   4  14  186.98   29.60
   2   4 -14  201.98   24.60
   0  -4  14   97.39   13.10
   0  -4 -14  122.79   15.80
   0  -4  14  119.09   18.80
   0  -4 -14   96.69   12.00
   0   4  14  101.29   14.00
   0   4 -14  108.09   19.40
   0   4 -14   80.99   16.40
   0   4  14   92.59   11.80
   0   4 -14  107.59   14.30
   0   4 -14   84.99   17.70
   0   4  14  174.18   26.60
  -2  -4 -14   23.10   16.90
   2  -4  14   12.50   13.50
  -2  -4 -14   16.10   24.60
  -2  -4 -14   37.90   12.00
  -2  -4 -14   25.60    9.00
   2  -4  14   -8.00   19.10
   2  -4  14   29.70    7.90
  -2   4 -14    0.80   14.80
   2   4  14   20.20    8.40
  -2   4 -14   24.10    8.90
   2   4  14    8.40   17.40
  -2   4 -14   26.60   14.10
  -4  -4 -14   12.10   15.50
   4  -4  14    1.30    8.10
  -4  -4 -14    0.10   10.30
   4  -4  14    1.40   14.60
  -4  -4 -14   -1.90   27.20
  -4  -4 -14   -6.30   17.00
  -4   4 -14    5.30   15.20
   4   4  14   -3.00   20.80
  -4   4 -14   14.60   20.80
   4   4  14   27.10   10.10
  -4   4 -14  -17.70   19.60
  -4   4 -14    8.40    9.20
  -6  -4 -14  -26.40   34.60
  -6  -4 -14   -7.10   21.30
   6  -4  14    6.30   11.30
   6  -4  14   18.00   20.00
  -6   4 -14  -11.60   21.10
   6   4  14   11.50   11.20
  -6   4 -14   -3.80   13.60
   8  -4  14   24.10   26.60
  -8  -4 -14  -25.20   45.30
  -8  -4 -14   -3.50   25.70
   8  -4  14   54.09   16.90
  -8   4 -14   39.30   30.60
   8   4  14   19.20   16.20
  10  -4  14  174.78   27.40
 -10  -4 -14  201.48   42.90
 -10   4 -14  221.98   48.00
 -10   4 -14  131.89   45.90
  10   4  14  142.29   29.10
 -11  -5  14   28.50   25.70
 -11  -5  14   26.30   46.50
 -11   5  14    8.80   26.20
 -11   5  14   -2.50   22.10
  11   5 -14   13.40   23.70
  -9  -5  14  103.19   33.30
  -9  -5  14   79.39   19.90
   9   5 -14   90.09   21.10
  -9   5  14  105.39   19.30
  -9   5  14   91.49   21.00
  -7  -5  14   12.30   14.70
  -7  -5  14   23.90   24.70
   7   5 -14    8.30   13.20
  -7   5  14   48.60   15.10
  -7   5  14   38.90   13.00
   5  -5 -14   62.69   24.90
  -5  -5  14   16.00   12.10
  -5  -5  14   49.90   11.60
  -5  -5  14   44.50   18.10
  -5   5  14   34.50   11.80
   5   5 -14   37.20   14.70
   5   5 -14   32.50    9.90
   5   5 -14    4.30   21.50
  -5   5  14   -8.00   23.10
   3  -5 -14   -3.80    9.20
  -3  -5  14    7.00   14.60
  -3  -5  14    7.50    8.80
   3  -5 -14    2.80   26.00
  -3  -5  14   10.80    8.40
  -3   5  14   12.90    8.90
   3   5 -14  -41.60   16.80
  -3   5  14  -19.00   20.80
   3   5 -14   -5.20    8.40
  -3   5  14   13.40    7.40
   1  -5 -14    4.50    8.30
   1  -5 -14   -6.80   22.50
   1  -5 -14    1.30    6.90
  -1  -5  14   12.30   13.50
  -1  -5  14   -1.40    7.80
  -1   5  14    5.90    7.70
   1   5 -14   -6.90   15.90
   1   5 -14   17.30   11.70
  -1   5  14    0.80   17.60
  -1   5  14   13.90    7.00
   1   5 -14   15.20   12.80
   1   5 -14   -1.60    8.30
  -1  -5 -14   17.40   24.40
   1  -5  14   70.19   16.90
  -1  -5 -14   38.90   10.10
  -1  -5 -14   40.80    7.90
   1  -5  14   57.49    9.20
  -1   5 -14   64.19   17.10
  -1   5 -14   45.00   14.50
  -1   5 -14   69.19   10.70
  -1   5 -14   62.49   16.80
   1   5  14   46.60   18.80
   1   5  14   44.20    9.30
   3  -5  14   89.09   19.30
  -3  -5 -14   68.29   14.90
  -3  -5 -14   66.69   18.60
  -3  -5 -14   -3.40   27.20
   3  -5  14   79.59   11.10
  -3  -5 -14   58.49   12.70
  -3   5 -14  100.59   12.50
  -3   5 -14   73.19   18.40
  -3   5 -14   57.49   20.90
  -3   5 -14   46.20   21.30
   3   5  14   79.19   12.60
   3   5  14   61.99   24.70
   5  -5  14  132.19   15.70
   5  -5  14  124.89   26.40
  -5  -5 -14  123.59   25.40
  -5  -5 -14  124.49   24.40
  -5   5 -14  140.69   16.20
   5   5  14  134.49   18.60
  -5   5 -14  129.29   25.40
   7  -5  14    0.90   12.50
  -7  -5 -14   11.20   26.10
  -7  -5 -14   15.00   39.40
   7  -5  14   36.90   24.60
  -7   5 -14   12.90   25.30
   7   5  14   17.10   14.90
  -9  -5 -14   52.29   32.00
   9  -5  14   46.90   31.80
  -9  -5 -14    6.10   54.39
   9  -5  14   32.50   17.00
   9   5  14   21.00   19.50
  -9   5 -14   24.00   35.10
 -11  -5 -14  -26.70   73.39
  11  -5  14  -13.90   24.10
 -11  -5 -14   41.30   42.70
  11   5  14  -40.70   25.40
 -11   5 -14  -16.80   46.30
 -11   5 -14  -33.30   44.80
 -10  -6  14    3.70   20.50
 -10  -6  14   -0.90   36.40
 -10   6  14   -6.10   22.00
 -10   6  14   46.00   20.60
  10   6 -14    6.00   20.00
  -8  -6  14   19.10   28.60
  -8  -6  14   31.10   16.40
   8   6 -14   24.30   15.70
  -8   6  14   24.20   17.80
  -8   6  14    5.70   13.80
  -6  -6  14    1.40   22.70
   6  -6 -14   -1.30   23.60
  -6  -6  14   21.20   13.20
  -6   6  14  -17.40   27.50
   6   6 -14   27.40   11.70
  -6   6  14   26.50   13.10
  -6   6  14   51.39   12.00
  -4  -6  14    6.80    9.70
  -4  -6  14   25.20   10.80
   4  -6 -14   14.60   11.70
  -4  -6  14   16.40   17.70
   4  -6 -14  -11.40   26.50
  -4   6  14    0.50   23.90
  -4   6  14   15.80   12.00
  -4   6  14   12.10    8.70
  -4   6  14   16.00   10.70
   4   6 -14   46.60   23.40
   4   6 -14   11.30    9.10
   4   6 -14    6.30   10.70
   2  -6 -14   36.80   10.30
  -2  -6  14   33.90   15.00
   2  -6 -14   42.80   36.90
   2  -6 -14   36.00    9.50
  -2  -6  14   24.90    9.90
   2   6 -14   43.40   14.40
  -2   6  14  -29.70   22.70
  -2   6  14   26.40    8.90
   2   6 -14   39.10   10.20
   2   6 -14   47.60   19.70
  -2   6  14   42.20    8.60
   0  -6 -14   34.40   10.60
   0  -6  14   52.49    8.70
   0  -6 -14   -9.00   23.90
   0  -6 -14   25.30    8.40
   0  -6  14   30.00   16.30
   0   6 -14   64.29   11.00
   0   6 -14   41.70   14.90
   0   6 -14   21.30   17.70
   0   6  14   40.50    8.60
   0   6  14   42.20   10.10
   0   6 -14   21.10   15.00
   0   6  14   71.19   22.30
  -2  -6 -14    8.90   27.20
   2  -6  14   41.30   16.60
  -2  -6 -14   37.70   15.80
  -2  -6 -14   51.69    8.20
  -2  -6 -14   46.80   11.50
  -2  -6 -14   49.00   13.30
  -2   6 -14   42.40   16.00
  -2   6 -14   28.00   20.50
   2   6  14   38.20   10.10
  -2   6 -14   42.20    9.70
   2   6  14   41.70   23.30
   2   6  14   43.90    9.70
  -2   6 -14   22.70   19.20
   4  -6  14   15.60    9.10
  -4  -6 -14   13.10   29.90
  -4  -6 -14   -5.90   15.70
   4  -6  14    7.30   17.60
  -4  -6 -14   20.00   16.90
  -4   6 -14    5.30    9.80
   4   6  14   25.70   10.10
  -4   6 -14   19.30   18.10
   6  -6  14  -16.30   21.20
   6  -6  14    0.50   11.10
  -6  -6 -14  -52.49   37.70
  -6  -6 -14   38.90   21.90
  -6   6 -14   -4.40   13.60
  -6   6 -14    0.20   19.60
   6   6  14    1.50   12.70
  -8  -6 -14   43.70   30.30
   8  -6  14   30.10   26.30
   8  -6  14   38.70   16.90
  -8  -6 -14   -7.70   50.89
  -8   6 -14   63.49   30.00
   8   6  14   84.29   20.00
 -10  -6 -14   43.30   37.50
 -10  -6 -14  -27.30   65.69
  10  -6  14   31.90   21.80
 -10   6 -14   61.89   45.20
  10   6  14   -2.10   23.30
 -10   6 -14   55.09   38.70
 -11  -7  14  105.39   48.70
 -11  -7  14   81.49   26.00
  11   7 -14   18.40   23.90
 -11   7  14   15.40   28.50
 -11   7  14   57.19   25.70
  -9  -7  14   56.29   20.30
  -9  -7  14   77.59   35.10
  -9   7  14  101.59   20.00
   9   7 -14   78.89   21.90
  -9   7  14   87.49   22.80
  -7  -7  14   27.20   16.20
  -7  -7  14   34.70   30.40
   7  -7 -14   51.49   27.30
  -7   7  14   47.10   16.80
   7   7 -14   58.89   16.60
  -7   7  14   33.50   33.40
  -7   7  14   49.50   14.80
  -5  -7  14   28.00   14.50
   5  -7 -14   22.10   26.30
  -5  -7  14   10.00   11.50
  -5  -7  14    2.50   20.80
   5   7 -14   14.90   10.80
  -5   7  14   27.80   29.00
  -5   7  14   34.30   10.90
   5   7 -14   11.90   13.10
  -5   7  14   28.90   12.00
  -3  -7  14  -34.10   15.90
   3  -7 -14    3.80   30.40
  -3  -7  14   14.00   10.00
   3  -7 -14   16.50   10.90
  -3  -7  14   -2.80    9.00
  -3   7  14   10.00   11.30
  -3   7  14   27.20    9.10
  -3   7  14    8.90    9.60
  -3   7  14   18.90   27.00
   3   7 -14   -1.60    8.10
   3   7 -14    2.60   22.60
   3   7 -14   12.70   10.20
   1  -7 -14  279.17   25.20
   1  -7 -14  242.98   22.90
   1  -7 -14  433.66   67.89
  -1  -7  14  292.37   33.30
  -1   7  14  282.57   24.00
   1   7 -14  260.27   23.60
  -1   7  14  259.97   22.90
   1   7 -14  282.27   37.80
   1   7 -14  264.17   35.10
   1   7 -14  243.68   30.60
  -1  -7 -14  312.67   30.60
   1  -7  14  344.77   38.70
  -1  -7 -14  378.26   27.90
  -1   7 -14  411.76   38.00
   1   7  14  357.06   48.10
   1   7  14  357.26   28.90
   1   7  14  398.06   29.60
  -1   7 -14  318.27   43.50
  -1   7 -14  351.46   40.90
  -3  -7 -14   45.30   17.40
   3  -7  14   20.60   17.30
  -3  -7 -14    8.80   30.90
  -3  -7 -14   36.60    8.80
  -3  -7 -14   42.70   15.10
   3   7  14   22.00    9.70
   3   7  14   45.60   12.10
  -3   7 -14   51.49   18.50
  -5  -7 -14  255.47   37.20
  -5  -7 -14  246.38   33.40
   5  -7  14  241.48   33.70
  -5   7 -14  255.57   40.00
   5   7  14  185.28   25.60
   7  -7  14  180.88   31.90
  -7  -7 -14  112.39   28.40
  -7  -7 -14    0.70   46.00
   7   7  14  105.39   20.20
  -7   7 -14  129.29   28.60
   9  -7  14   18.60   31.90
  -9  -7 -14   26.10   57.79
   9  -7  14   10.90   17.70
  -9  -7 -14   15.10   33.90
  -9   7 -14   20.90   35.80
   9   7  14    5.60   21.10
 -10  -8  14   89.89   23.00
 -10  -8  14   46.30   42.00
 -10   8  14  127.49   27.60
  10   8 -14   -1.60   24.70
 -10   8  14   45.20   23.00
   8  -8 -14   66.49   30.40
  -8  -8  14   46.10   19.60
  -8  -8  14   70.79   33.70
  -8   8  14   64.79   19.90
  -8   8  14  -13.60   43.00
  -8   8  14   86.69   19.50
   8   8 -14   77.29   20.10
  -6  -8  14  612.44   47.40
  -6  -8  14  581.44   60.79
   6  -8 -14  671.13   63.49
   6   8 -14  604.84   47.40
  -6   8  14  592.94   46.20
  -6   8  14  513.95   46.50
  -4  -8  14  188.48   24.00
   4  -8 -14  158.98   20.80
  -4  -8  14  189.18   21.10
  -4  -8  14  193.28   31.70
   4  -8 -14  209.68   40.40
  -4   8  14  157.68   21.30
   4   8 -14  220.58   22.40
   4   8 -14  136.99   20.30
  -4   8  14  158.58   22.10
  -2  -8  14  360.96   37.10
   2  -8 -14  338.27   30.10
   2  -8 -14  414.26   65.49
   2   8 -14  253.47   37.50
  -2   8  14  316.47   27.70
  -2   8  14  307.97   26.80
   2   8 -14  358.76   34.40
   0  -8  14  546.55   48.60
   0  -8 -14  499.55   40.50
   0  -8 -14  509.65   38.30
   0   8  14  548.45   38.70
   0   8 -14  537.35   50.59
   0   8  14  500.45   39.20
   0   8  14  365.66   59.19
   0   8 -14  578.14   46.20
  -2  -8 -14    0.50   11.50
  -2  -8 -14   42.00   30.60
   2  -8  14  -34.50   16.70
  -2  -8 -14   -1.30    8.80
   2   8  14  -15.30    8.80
  -2   8 -14  -12.20   23.20
  -2   8 -14    2.90   14.80
   2   8  14   -1.10   10.00
  -4  -8 -14   14.60   19.00
  -4  -8 -14   -4.30   31.60
  -4  -8 -14    7.90    9.70
  -4  -8 -14   71.69   18.50
   4  -8  14   24.30   20.40
   4   8  14   35.10   11.20
   4   8  14   27.30   12.50
  -4   8 -14   56.99   20.10
  -6  -8 -14  118.79   28.70
   6  -8  14   93.89   29.10
  -6  -8 -14   62.59   45.30
  -6  -8 -14   66.79   15.90
  -6   8 -14  113.29   29.60
   6   8  14   83.99   18.60
  -8  -8 -14   27.20   30.40
   8  -8  14   13.70   31.00
  -8  -8 -14   17.40   56.19
  -8   8 -14    0.60   29.70
   8   8  14   59.59   19.60
  10  -8  14   51.99   38.40
 -10  -8 -14   44.50   42.20
 -10  -8 -14  -31.00   73.79
  10   8  14   35.50   28.00
 -10   8 -14  109.99   45.80
  -9  -9  14  171.18   28.90
   9  -9 -14  188.38   40.80
  -9  -9  14  125.29   45.60
  -9   9  14  189.28   28.00
  -9   9  14  157.78   27.00
   9   9 -14  174.08   27.90
  -7  -9  14  -17.80   32.90
   7  -9 -14  -45.70   28.50
  -7  -9  14   14.30   17.30
  -7   9  14   -1.80   17.30
   7   9 -14    2.00   15.90
  -7   9  14    9.10   15.40
  -5  -9  14   78.79   27.90
  -5  -9  14  101.19   15.80
   5  -9 -14   93.69   33.30
  -5   9  14   58.29   14.80
   5   9 -14   77.09   15.60
  -5   9  14   81.19   16.20
  -3  -9  14  153.68   29.30
  -3  -9  14  170.98   22.10
   3  -9 -14  175.88   42.40
   3  -9 -14  157.08   19.30
   3   9 -14  147.79   18.30
  -3   9  14  144.09   20.10
  -3   9  14  137.99   19.00
   1  -9 -14  280.07   30.40
   1  -9 -14  253.17   30.00
  -1  -9  14  359.96   40.50
   1   9 -14  277.87   42.20
  -1   9  14  382.66   28.50
  -1   9  14  357.26   28.20
   1   9 -14  350.06   35.00
   1  -9  14  980.30   71.49
  -1  -9 -14 1039.90   95.09
  -1  -9 -14  830.82   63.39
  -1  -9 -14  772.32   61.29
  -1   9 -14  855.91   68.29
   1   9  14  840.02   61.89
   1   9  14  945.11   62.09
  -1   9 -14  810.42   75.49
   3  -9  14  620.44   59.69
  -3  -9 -14  674.33   53.99
  -3  -9 -14  647.34   50.29
   3   9  14  740.23   50.39
   3   9  14  635.84   50.89
  -3   9 -14  762.22   60.29
  -5  -9 -14  507.45   52.49
   5  -9  14  433.86   54.39
   5   9  14  534.55   39.90
  -5   9 -14  506.85   54.19
   5   9  14  486.05   41.60
   7  -9  14  356.56   53.29
  -7  -9 -14  341.47   52.49
   7   9  14  396.76   35.50
   7   9  14  352.96   38.20
  -7   9 -14  368.16   56.19
  -9  -9 -14  252.27   48.10
   9  -9  14  325.47   49.30
   9   9  14  218.08   34.40
  -9   9 -14  337.87   49.80
 -10 -10  14  166.68   52.89
 -10 -10  14  232.08   33.50
 -10  10  14  191.78   30.60
 -10  10  14  207.08   34.80
  10  10 -14  203.48   31.80
  -8 -10  14  812.32   67.59
  -8 -10  14  806.82   85.49
   8 -10 -14  835.92   81.29
   8  10 -14  833.92   65.99
  -8  10  14  827.92   65.09
  -8  10  14  786.52   64.99
  -6 -10  14  354.36   52.19
   6 -10 -14  346.27   59.49
  -6 -10  14  372.66   35.20
  -6  10  14  358.56   35.90
  -6  10  14  327.17   35.80
   6  10 -14  390.46   36.20
  -4 -10  14 1740.93  123.59
   4 -10 -14 1685.83  129.29
  -4 -10  14 1678.43  111.99
  -4  10  14 1702.03  112.69
  -4  10  14 1562.14  112.79
   4  10 -14 1605.84  112.29
   4  10 -14 1591.34  112.19
   2 -10 -14  412.46   66.39
  -2 -10  14  323.07   44.00
   2 -10 -14  343.57   36.00
   2  10 -14  473.95   40.50
   2  10 -14  419.66   48.20
  -2  10  14  448.56   34.10
  -2  10  14  393.06   33.60
   0 -10 -14  466.95   41.40
   0 -10 -14  611.34   72.29
   0 -10  14  609.44   53.39
   0  10  14  512.65   39.70
   0  10 -14  561.74   47.00
   0  10  14  466.65   38.80
   0  10 -14  404.26   55.39
   2 -10  14  364.16   45.40
  -2 -10 -14  359.26   58.49
   2  10  14  360.56   32.00
   2  10  14  339.57   31.00
  -2  10 -14  388.86   41.70
  -4 -10 -14  297.77   36.10
   4 -10  14  336.87   45.40
  -4 -10 -14  261.67   37.80
   4  10  14  307.87   30.10
  -4  10 -14  336.07   41.80
   4  10  14  328.57   32.00
   6 -10  14   57.49   28.20
  -6 -10 -14    6.00   46.70
  -6 -10 -14    4.60   28.50
   6  10  14   72.39   15.90
   6  10  14   59.89   18.20
  -6  10 -14    9.00   26.30
   8 -10  14  104.09   37.80
  -8 -10 -14  126.39   40.70
  -8 -10 -14  -80.09   57.89
  -8  10 -14   70.99   39.80
   8  10  14   87.09   19.00
   8  10  14   80.39   24.90
   9 -11 -14   60.49   43.20
  -9 -11  14  204.08   53.59
  -9 -11  14   93.19   26.40
  -9  11  14   28.10   26.20
  -9  11  14   71.99   25.30
   9  11 -14   95.49   27.60
   7 -11 -14   -1.40   36.00
  -7 -11  14   19.90   20.20
  -7 -11  14  -10.30   35.70
  -7  11  14  -36.30   18.50
  -7  11  14   -8.70   17.30
   7  11 -14    4.10   20.00
  -5 -11  14  231.78   39.60
   5 -11 -14  217.68   43.30
  -5  11  14  207.28   24.10
   5  11 -14  181.78   23.60
  -5  11  14  224.48   24.70
   3 -11 -14   26.50   41.90
  -3 -11  14   25.40   27.00
  -3 -11  14   43.90   16.60
   3 -11 -14    1.00   15.90
   3  11 -14   30.70   18.00
  -3  11  14   46.90   14.30
   3  11 -14   58.89   13.20
  -3  11  14   -1.90   13.10
   1 -11 -14   18.10   15.30
  -1 -11  14   26.20   24.10
   1 -11 -14  -71.79   44.90
   1  11 -14   14.10   16.70
  -1  11  14   18.30   12.10
  -1  11  14   48.50   12.90
   1  11 -14   35.90   28.80
  -1 -11 -14  798.82  104.59
   1 -11  14  799.22   68.19
   1  11  14  720.33   56.19
   1  11  14  794.82   57.19
  -1  11 -14  740.53   63.99
   3 -11  14 1561.74  110.19
  -3 -11 -14 1235.58  136.99
   3  11  14 1416.86   99.99
  -3  11 -14 1484.75  108.59
  -5 -11 -14  835.92   77.69
   5 -11  14 1025.40   78.49
   5  11  14  859.51   64.69
   5  11  14  782.82   65.49
  -5  11 -14  889.31   76.09
  -7 -11 -14  497.35   65.19
   7 -11  14  592.84   65.39
  -7  11 -14  516.15   63.99
   7  11  14  414.36   44.00
   7  11  14  507.15   46.60
   9 -11  14  296.07   50.19
  -9 -11 -14  244.98   52.59
   9  11  14  262.87   31.30
  -9  11 -14  240.38   54.69
   9  11  14  245.68   37.60
  -8 -12  14  178.08   51.09
   8 -12 -14  119.89   43.30
  -8 -12  14  149.49   27.00
   8  12 -14  129.69   28.90
  -8  12  14  113.39   24.80
   6 -12 -14  758.62   83.19
  -6 -12  14  686.53   76.99
  -6  12  14  677.83   56.99
   6  12 -14  732.63   57.69
  -6  12  14  702.53   57.19
   4 -12 -14  607.94   78.79
  -4 -12  14  504.65   62.19
   4  12 -14  578.04   46.30
  -4  12  14  568.84   47.20
  -4  12  14  559.54   45.60
  -2 -12  14  560.94   48.00
  -2 -12  14  636.24   60.79
   2 -12 -14  478.95   86.69
  -2  12  14  689.83   47.70
   2  12 -14  601.84   54.49
  -2  12  14  627.64   48.60
   0 -12  14 1254.27   91.19
   0 -12 -14 1065.59  114.89
   0  12  14 1082.09   79.89
   0  12  14 1122.39   78.59
   0  12 -14 1072.09   85.79
  -2 -12 -14    8.90   49.80
   2 -12  14    9.00   26.00
   2  12  14   15.80   14.40
   2  12  14   26.20   14.00
  -2  12 -14   48.80   21.80
   4 -12  14   65.29   30.30
  -4 -12 -14   65.89   54.49
  -4 -12 -14  166.18   29.90
  -4 -12 -14    0.70   24.80
   4  12  14   57.79   18.00
   4  12  14   71.89   17.50
  -4  12 -14   97.79   27.70
  -6 -12 -14   80.59   39.80
  -6 -12 -14   72.99   56.49
   6 -12  14  126.49   37.50
   6  12  14  106.69   19.90
  -6  12 -14  142.49   34.10
   6  12  14   95.09   22.90
   8 -12  14  208.28   42.00
  -8 -12 -14   46.50   66.29
  -8 -12 -14  197.58   48.40
  -8  12 -14  171.68   44.70
   8  12  14  175.98   30.70
   8  12  14  122.29   24.70
  -7 -13  14  168.28   26.10
  -7 -13  14  138.99   49.70
   7 -13 -14   72.09   44.00
   7  13 -14  163.68   28.40
  -7  13  14  151.48   26.20
   5 -13 -14  -13.90   42.70
  -5 -13  14   39.20   38.70
   5  13 -14    1.90   19.30
  -5  13  14   15.00   18.60
   3 -13 -14   67.69   48.80
  -3 -13  14   45.90   33.70
  -3  13  14   11.00   15.00
   3  13 -14  -59.59   58.19
   3  13 -14   23.60   15.90
   3  13 -14   11.20   21.50
   1 -13 -14  474.55   69.89
  -1 -13  14  368.56   47.90
  -1  13  14  355.76   34.70
   1  13 -14  265.77   44.60
   1 -13  14  886.81   78.19
  -1 -13 -14  731.83  108.19
   1  13  14  913.31   65.89
  -1  13 -14  899.11   74.59
   1  13  14  842.32   64.19
  -3 -13 -14  297.47   69.19
   3 -13  14  236.18   38.30
  -3  13 -14  235.28   36.80
   3  13  14  245.28   31.10
   3  13  14  214.98   30.70
  -5 -13 -14 1100.49   83.19
   5 -13  14 1024.80   84.39
   5  13  14  801.42   66.69
   5  13  14  683.53   66.89
  -5  13 -14  906.61   79.79
   7 -13  14  385.06   55.29
  -7 -13 -14  459.85   64.89
  -7 -13 -14  148.69   79.29
   7  13  14  337.77   43.60
  -7  13 -14  301.67   49.20
   7  13  14  364.86   41.30
   8 -14 -14  279.07   55.29
  -8 -14  14  300.87   38.30
  -8 -14  14  154.88   56.79
  -8  14  14  314.27   38.60
   8  14 -14  246.98   38.80
   6 -14 -14  177.88   53.39
  -6 -14  14  159.28   45.90
   6  14 -14  161.78   29.90
  -6  14  14  147.29   26.30
   4 -14 -14  360.06   63.69
  -4 -14  14  533.95   66.09
   4  14 -14  330.67   41.40
  -4  14  14  362.26   38.90
   2 -14 -14  499.25   70.79
  -2 -14  14  360.46   55.19
   2  14 -14  355.86   44.00
  -2  14  14  370.06   37.50
   0 -14  14   88.19   32.60
   0 -14 -14    0.30   56.39
   0  14 -14   32.20   27.20
   2 -14  14   41.50   32.00
  -2 -14 -14  -13.80   58.09
  -2  14 -14   57.19   27.80
   2  14  14   22.60   16.90
   2  14  14   24.60   17.30
  -4 -14 -14   45.90   69.59
   4 -14  14   70.49   34.80
  -4 -14 -14   -9.10   38.80
  -4  14 -14   -6.60   28.00
   4  14  14   12.40   21.00
   4  14  14   28.40   18.70
  -6 -14 -14  -62.89   73.89
   6 -14  14   29.70   40.70
  -6 -14 -14   31.60   41.70
   6  14  14    9.00   20.50
  -6  14 -14   56.09   32.30
   6  14  14   26.10   22.80
  -7 -15  14   -5.50   48.30
   7 -15 -14  -21.50   50.59
  -7  15  14   11.30   25.50
   7  15 -14   -7.90   26.80
  -5 -15  14  -30.20   42.00
   5 -15 -14   30.80   54.49
  -5  15  14   24.20   21.60
   5  15 -14   32.70   23.40
  -3 -15  14   81.39   39.90
   3 -15 -14  140.09   60.29
   3  15 -14  101.69   31.20
   3  15 -14   94.09   24.60
  -3  15  14  114.09   21.30
  -1 -15  14   41.40   37.40
   1 -15 -14   36.30   57.29
  -1  15  14   67.69   19.60
   1  15 -14   43.20   29.90
  -1 -15 -14  -53.09   59.39
   1 -15  14    1.70   33.90
   1  15  14   15.30   17.10
  -1  15 -14   29.10   31.50
   1  15  14   27.20   17.30
  -3 -15 -14  154.28   75.39
   3 -15  14  251.47   42.60
  -3  15 -14  195.58   39.50
   3  15  14  257.07   31.00
   3  15  14  264.17   34.40
  -5 -15 -14   -1.70   81.39
  -5 -15 -14   89.89   47.80
   5 -15  14   85.59   41.20
  -5  15 -14   12.10   31.90
   5  15  14   44.10   21.40
   5  15  14    3.00   23.00
   6 -16 -14  -30.70   57.39
  -6 -16  14   53.99   50.59
   6  16 -14   10.70   26.10
  -6  16  14   -7.40   23.50
   4 -16 -14  154.78   62.19
  -4 -16  14  120.99   49.99
   4  16 -14   93.29   36.70
  -4  16  14  114.39   25.90
   4  16 -14  113.39   26.70
   2 -16 -14  -11.20   58.79
  -2 -16  14   -8.50   40.20
  -2  16  14  -13.40   20.10
   2  16 -14    6.80   30.70
   2  16 -14  -11.30   23.20
   0 -16  14   48.80   39.50
   0 -16 -14   91.39   67.89
   0  16  14    9.40   20.90
   0  16 -14   -9.60   31.90
  -2 -16 -14   83.39   70.09
   2 -16  14  -20.20   37.30
  -2  16 -14  -20.90   32.80
   2  16  14  -14.70   20.30
   2  16  14   27.40   20.40
  -4 -16 -14 -103.89   53.89
  -4 -16 -14  -14.80   78.89
   4 -16  14    7.80   41.20
  -4  16 -14   81.39   34.00
   4  16  14   28.70   22.20
   4  16  14  -13.30   23.60
   5 -17 -14   75.19   66.19
   3 -17 -14   -1.40   61.59
  -3 -17  14  -10.40   43.00
   3  17 -14   -6.00   32.80
  -3  17  14   -4.10   23.00
   3  17 -14    2.90   24.20
  -1 -17  14   30.60   44.40
   1 -17 -14  -42.60   64.49
  -1  17  14  -12.50   21.70
   1  17 -14   24.60   32.40
   1  17 -14   15.50   26.00
   1 -17  14   52.39   41.70
  -1 -17 -14  -17.30   69.79
   1  17  14   57.09   22.30
  -1  17 -14   33.00   39.30
  -3 -17 -14  -48.80   71.89
   3 -17  14  -24.60   42.20
   3  17  14   -6.80   23.10
  -3  17 -14    9.90   36.70
  -2 -18  14   64.49   51.99
   2 -18 -14  103.79   73.69
   2  18 -14   87.59   38.20
  -2  18  14   34.50   25.70
   2  18 -14   52.79   30.20
   0 -18  14  129.19   53.99
   0 -18 -14  170.28   81.89
   0  18  14  129.29   28.40
   0  18 -14   76.09   40.20
  -2 -18 -14   84.39   81.79
 -12   0  15   22.20   29.90
 -12   0  15   51.89   47.80
 -10   0  15    4.20   20.00
 -10   0  15    4.40   33.00
  10   0 -15   -2.70   18.70
   8   0 -15  -19.70   14.00
  -8   0  15   14.10   22.70
  -8   0  15    7.60   15.30
  -6   0  15  -17.60   11.10
   6   0 -15    2.30   10.00
  -4   0  15   12.30    8.90
  -4   0  15    3.30    8.10
   4   0 -15   13.30   10.80
  -4   0  15    6.20    9.00
  -2   0  15   12.70   11.40
   2   0 -15    9.30   12.00
  -2   0  15  -13.30   11.70
   2   0 -15    7.70    8.90
   2   0 -15    9.70   21.90
  -2   0  15   -4.90    8.00
   0   0 -15    0.10   18.60
   0   0 -15    3.00   12.20
   0   0  15    9.60    7.30
   0   0  15   -2.50   12.40
   0   0  15   14.20   10.30
   0   0 -15   -3.00    7.70
  -2   0 -15   -8.90   13.40
   2   0  15   -2.90    7.20
   2   0  15    8.70   16.00
  -2   0 -15    6.40    8.90
  -2   0 -15   -0.20   18.00
   2   0  15    1.50   12.40
   4   0  15   -6.60    9.00
  -4   0 -15  -12.80   10.70
  -4   0 -15  -20.10   20.70
   4   0  15  -24.20   20.10
  -4   0 -15  -18.50   17.70
   4   0  15   29.90   16.40
   6   0  15   -4.80   19.80
   6   0  15    7.60   11.60
  -6   0 -15  -26.60   25.60
  -8   0 -15   11.00   32.20
   8   0  15  -28.90   15.60
 -10   0 -15    0.90   36.20
 -10   0 -15   -8.90   45.40
  10   0  15  -32.60   20.20
 -11  -1  15  -32.60   24.70
 -11  -1  15  106.39   42.90
  11   1 -15  -11.80   22.00
 -11   1  15    7.40   23.10
 -11   1  15    2.10   23.20
  -9  -1  15   10.80   16.30
  -9  -1  15   74.29   27.70
   9   1 -15  -17.50   32.80
   9   1 -15    6.20   16.30
  -9   1  15    2.60   17.90
  -9   1  15   15.30   16.80
  -7  -1  15   18.80   21.60
  -7  -1  15   13.40   13.70
  -7   1  15   22.80   13.40
   7   1 -15   20.80   12.50
  -7   1  15   26.50   13.90
   7   1 -15   26.10   23.60
  -5  -1  15  139.79   19.50
  -5  -1  15  177.98   24.90
  -5  -1  15  157.78   21.20
  -5   1  15  160.48   20.00
   5   1 -15  168.28   18.80
   5   1 -15  202.78   30.30
  -5   1  15  157.58   18.80
  -5   1  15  162.28   18.70
  -3  -1  15   25.40    8.20
   3  -1 -15    7.80    9.70
  -3  -1  15   26.40   13.30
  -3  -1  15   32.10    9.60
  -3   1  15   13.00   13.20
  -3   1  15   30.20   10.00
  -3   1  15   14.80    7.40
   3   1 -15   11.70   14.10
   3   1 -15    8.00   10.30
  -3   1  15   22.30    8.50
   3   1 -15   25.50    7.20
  -1  -1  15   87.49   16.00
  -1  -1  15   84.59   14.80
   1  -1 -15   59.59   11.30
  -1  -1  15   75.79   11.40
  -1   1  15   79.09   11.40
   1   1 -15   56.39   20.10
   1   1 -15   62.49   15.40
   1   1 -15   76.19   11.50
  -1   1  15   77.19   17.00
  -1   1  15   75.59   14.00
   1  -1  15  343.07   33.30
   1  -1  15  400.46   28.70
  -1  -1 -15  351.26   33.00
   1  -1  15  397.96   37.20
  -1  -1 -15  368.26   44.50
  -1  -1 -15  317.47   29.50
   1   1  15  320.27   34.80
   1   1  15  367.86   28.80
  -1   1 -15  435.06   29.70
  -1   1 -15  337.67   34.00
  -1   1 -15  364.66   40.30
   1   1  15  326.47   32.20
  -3  -1 -15   31.50   10.80
   3  -1  15   33.10   19.50
  -3  -1 -15   35.70   15.80
   3  -1  15   61.19   16.10
   3  -1  15   66.49   11.00
  -3  -1 -15   48.30   22.80
   3   1  15   74.89   12.60
  -3   1 -15   75.49   12.10
  -3   1 -15   61.69   16.10
  -3   1 -15   66.69   21.50
   3   1  15   42.00   20.90
   3   1  15   66.69   16.90
   5  -1  15  179.18   20.30
   5  -1  15  140.69   24.60
  -5  -1 -15  159.38   34.60
   5   1  15  162.18   25.10
   5   1  15  166.08   19.90
  -5   1 -15  189.38   31.70
   7  -1  15   57.79   15.40
  -7  -1 -15   60.19   30.10
   7  -1  15   52.59   25.00
  -7  -1 -15   39.90   32.60
   7   1  15   67.29   16.10
  -7   1 -15   53.89   30.60
   9  -1  15    5.50   17.70
  -9  -1 -15   37.20   34.50
  -9  -1 -15   10.90   40.30
  -9   1 -15  -18.50   34.50
  -9   1 -15   21.40   38.90
   9   1  15   25.20   18.60
  11  -1  15   15.30   25.70
 -11  -1 -15   42.90   39.20
 -11  -1 -15   -6.70   60.79
  11   1  15    1.00   23.10
 -11   1 -15  -23.80   54.09
 -11   1 -15  -11.60   41.00
 -12  -2  15  248.88   52.49
 -12  -2  15  105.59   31.40
 -12   2  15  131.39   37.60
 -12   2  15  130.09   32.20
  12   2 -15  138.69   31.20
 -10  -2  15  366.36   45.40
 -10  -2  15  288.17   37.70
  10   2 -15  248.48   35.20
 -10   2  15  246.08   33.00
 -10   2  15  265.77   31.70
  -8  -2  15   62.49   25.50
  -8  -2  15   36.20   16.10
   8   2 -15  -12.00   32.40
  -8   2  15   54.39   16.90
  -8   2  15   60.89   15.20
   8   2 -15   47.90   15.80
  -6  -2  15  503.55   39.70
  -6  -2  15  441.16   46.60
   6   2 -15  503.95   47.80
  -6   2  15  543.05   38.80
  -6   2  15  479.15   39.90
   6   2 -15  463.95   38.60
  -4  -2  15  119.59   21.10
   4  -2 -15  100.59   17.10
  -4  -2  15  156.18   18.10
  -4  -2  15  134.39   17.40
   4   2 -15  155.68   23.20
   4   2 -15  156.58   16.10
   4   2 -15  121.89   16.80
  -4   2  15  138.89   18.00
  -4   2  15  151.58   16.70
  -4   2  15  160.68   18.50
   2  -2 -15    0.50   23.00
   2  -2 -15   15.00    9.40
  -2  -2  15    8.10    8.10
  -2  -2  15    4.10   12.00
  -2  -2  15    2.00   11.70
  -2   2  15    7.40    6.50
   2   2 -15   -6.10   13.50
  -2   2  15    3.50    8.00
   2   2 -15    1.20    8.60
  -2   2  15   13.70    7.80
  -2   2  15   25.80   15.50
   0  -2  15  234.48   21.30
   0  -2  15  241.18   26.60
   0  -2 -15  224.28   24.80
   0  -2  15  251.97   29.50
   0  -2 -15  249.97   22.80
   0   2 -15  167.28   27.20
   0   2  15  261.87   30.60
   0   2 -15  292.47   22.90
   0   2  15  245.28   21.70
   0   2 -15  276.77   32.00
  -2  -2 -15   68.99   15.40
   2  -2  15   87.59   11.50
  -2  -2 -15   56.69   11.80
  -2  -2 -15   46.30   24.90
   2  -2  15   81.09   17.10
   2  -2  15   48.00   18.40
  -2   2 -15   60.99   17.10
  -2   2 -15   63.69   11.20
   2   2  15   75.69   18.40
   2   2  15   70.39   15.10
  -2   2 -15   47.60   19.80
   2   2  15   61.99   10.70
  -4  -2 -15   18.10   17.90
  -4  -2 -15  -20.20   23.90
   4  -2  15  -21.30   14.60
   4  -2  15    4.80    9.40
   4   2  15   14.00   14.80
   4   2  15   15.00   10.00
  -4   2 -15    8.30   18.50
  -4   2 -15   -8.80   19.30
  -4   2 -15   -9.90   10.20
   6  -2  15  268.37   25.00
   6  -2  15  157.28   29.10
  -6  -2 -15  290.47   37.60
  -6  -2 -15  239.88   42.30
   6   2  15  186.48   24.40
  -6   2 -15  184.48   37.40
  -8  -2 -15  324.67   54.59
   8  -2  15  328.57   34.30
  -8  -2 -15  300.17   45.50
   8   2  15  299.67   34.40
  -8   2 -15  297.97   45.30
  -8   2 -15  317.77   49.90
 -10  -2 -15   -0.70   59.59
  10  -2  15   62.19   23.30
 -10  -2 -15   58.99   36.60
 -10   2 -15   64.29   40.40
 -10   2 -15   42.30   45.20
  10   2  15   89.19   25.00
 -11  -3  15  334.27   53.29
 -11  -3  15  242.08   34.20
 -11   3  15  289.97   41.20
  11   3 -15  326.47   40.10
 -11   3  15  298.17   38.30
  -9  -3  15   -0.10   17.90
  -9  -3  15   63.59   31.00
  -9   3  15    7.50   18.70
   9   3 -15   16.40   17.20
  -9   3  15   41.80   18.20
  -7  -3  15   26.60   15.30
  -7  -3  15   45.80   23.80
   7   3 -15   25.00   27.70
   7   3 -15   40.40   14.80
  -7   3  15   33.60   13.50
  -7   3  15   37.50   15.20
  -5  -3  15  321.77   27.90
  -5  -3  15  253.97   35.20
  -5  -3  15  246.58   25.90
  -5   3  15  318.27   25.60
  -5   3  15  299.77   26.90
   5   3 -15  237.78   38.10
  -5   3  15  288.77   28.70
   5   3 -15  282.77   25.10
  -3  -3  15  599.44   53.59
  -3  -3  15  695.03   49.80
   3  -3 -15  673.23   50.49
   3   3 -15  712.43   50.39
   3   3 -15  628.94   54.79
  -3   3  15  671.33   56.49
  -3   3  15  731.73   48.70
  -3   3  15  699.03   50.09
  -3   3  15  735.33   49.40
   3   3 -15  686.93   48.40
  -1  -3  15  253.77   29.70
   1  -3 -15  266.07   24.30
  -1  -3  15  289.97   23.40
  -1  -3  15  332.07   32.80
  -1   3  15  249.97   23.40
  -1   3  15  274.77   22.00
  -1   3  15  251.57   34.00
  -1   3  15  294.67   22.60
   1   3 -15  259.47   24.60
   1   3 -15  279.07   32.70
   1   3 -15  284.77   32.60
   1  -3  15 1017.40   75.59
   1  -3  15 1004.50   67.49
   1  -3  15  926.51   71.89
  -1  -3 -15  945.91   68.29
   1   3  15  958.00   69.69
  -1   3 -15  874.11   72.49
   1   3  15  940.61   67.69
  -1   3 -15 1102.19   68.19
   1   3  15 1001.50   75.79
  -1   3 -15  992.10   75.29
   3  -3  15  428.36   31.20
  -3  -3 -15  370.36   36.20
   3  -3  15  423.06   47.80
  -3  -3 -15  359.76   32.30
   3  -3  15  417.26   39.20
  -3   3 -15  405.06   31.60
  -3   3 -15  430.86   42.20
   3   3  15  377.36   43.90
   3   3  15  375.36   31.50
  -3   3 -15  312.27   42.10
   5  -3  15  711.93   47.40
  -5  -3 -15  503.95   54.39
  -5  -3 -15  493.65   56.59
   5  -3  15  668.43   56.29
  -5   3 -15  589.04   59.09
   5   3  15  658.13   47.80
  -5   3 -15  670.93   48.10
   7  -3  15  161.08   21.50
  -7  -3 -15   84.39   45.50
   7  -3  15  174.28   30.90
  -7  -3 -15  175.68   34.30
  -7   3 -15  165.88   35.00
   7   3  15  138.19   21.10
  -9  -3 -15   26.00   31.90
   9  -3  15   16.20   18.70
  -9  -3 -15    3.60   55.29
  -9   3 -15   17.90   34.70
   9   3  15   17.80   19.00
  -9   3 -15   21.40   38.50
 -11  -3 -15   27.90   41.50
 -11  -3 -15   -9.70   72.99
  11  -3  15   15.20   27.10
 -11   3 -15   63.29   51.79
 -11   3 -15   23.90   46.10
  11   3  15   44.60   26.40
 -10  -4  15  226.98   30.80
 -10  -4  15  274.17   44.60
 -10   4  15  269.77   34.20
 -10   4  15  231.18   30.50
  10   4 -15  273.07   37.30
  -8  -4  15 1163.38   84.69
  -8  -4  15 1165.78   93.89
   8   4 -15 1195.78   84.79
  -8   4  15 1174.38   84.59
  -8   4  15 1199.78   85.29
  -6  -4  15  892.51   67.69
  -6  -4  15  820.72   60.69
  -6   4  15  837.92   61.19
   6   4 -15  723.13   71.79
   6   4 -15  828.62   59.99
  -6   4  15  841.12   60.09
  -4  -4  15 1647.64  118.39
  -4  -4  15 1653.43  114.59
  -4  -4  15 1593.24  113.69
  -4   4  15 1789.12  113.99
   4   4 -15 1674.73  113.79
   4   4 -15 1590.04  114.69
  -4   4  15 1836.52  121.89
  -4   4  15 1643.94  114.39
  -4   4  15 1704.73  114.99
   4   4 -15 1802.12  120.39
  -2  -4  15  321.97   26.00
  -2  -4  15  264.87   32.50
   2  -4 -15  262.87   27.40
   2   4 -15  271.17   33.30
  -2   4  15  271.77   36.30
   2   4 -15  364.36   35.60
  -2   4  15  315.87   25.60
  -2   4  15  319.97   24.50
   2   4 -15  343.37   26.70
  -2   4  15  307.77   26.00
   0  -4  15   32.40    8.50
   0  -4  15   30.00   14.90
   0  -4 -15   28.20   10.70
   0  -4 -15   -9.40   24.70
   0   4  15   42.10    9.30
   0   4  15   32.00   18.00
   0   4 -15   38.90   16.60
   0   4 -15   32.60   15.30
   0   4 -15   17.80   14.80
   0   4 -15   41.20   10.10
   2  -4  15    8.00    7.60
  -2  -4 -15  -14.60   16.80
   2  -4  15   12.80   14.90
  -2  -4 -15   -0.20   26.70
   2  -4  15  -19.70   21.10
  -2  -4 -15   18.50   13.30
  -2  -4 -15   -5.00   10.50
  -2   4 -15  -22.00   16.60
  -2   4 -15    6.00    9.60
   2   4  15   17.30   19.50
  -2   4 -15   -1.50   14.80
   2   4  15   -2.50    8.50
  -4  -4 -15  304.47   33.50
  -4  -4 -15  214.68   31.50
   4  -4  15  296.87   33.90
   4  -4  15  204.68   22.40
   4   4  15  221.48   23.80
  -4   4 -15  207.18   36.10
  -4   4 -15  262.17   24.10
  -6  -4 -15  887.71   77.69
   6  -4  15  963.70   67.99
   6  -4  15  935.51   76.69
  -6   4 -15  936.31   81.09
   6   4  15  960.90   68.59
  -8  -4 -15  153.38   35.50
   8  -4  15  202.58   38.40
   8  -4  15  216.08   28.90
   8   4  15  214.88   26.90
  -8   4 -15  205.78   40.20
 -10  -4 -15  583.04   81.69
  10  -4  15  651.43   55.19
 -10   4 -15  692.23   77.99
  10   4  15  545.55   58.49
 -10   4 -15  524.65   87.29
 -11  -5  15   75.69   26.40
 -11  -5  15  119.59   47.10
 -11   5  15  138.89   31.10
 -11   5  15   86.59   24.10
  11   5 -15  102.09   28.30
  -9  -5  15  278.07   42.80
  -9  -5  15  280.17   35.60
   9   5 -15  327.97   35.80
  -9   5  15  288.67   36.30
  -9   5  15  257.67   34.00
  -7  -5  15  216.18   34.30
  -7  -5  15  192.98   26.10
  -7   5  15  228.98   26.20
   7   5 -15  192.78   25.30
  -7   5  15  201.98   27.30
  -5  -5  15   72.99   21.50
   5  -5 -15   94.89   27.60
  -5  -5  15   51.79   14.50
  -5  -5  15   85.89   15.10
   5   5 -15   84.79   27.10
  -5   5  15   82.99   13.00
  -5   5  15   83.89   15.70
   5   5 -15   81.59   13.20
  -5   5  15   36.00   27.30
  -3  -5  15  298.17   34.40
   3  -5 -15  354.96   45.80
  -3  -5  15  279.77   25.50
   3  -5 -15  241.48   27.50
  -3   5  15  289.17   24.30
  -3   5  15  270.77   26.00
   3   5 -15  327.57   24.10
   3   5 -15  271.57   25.80
  -3   5  15  343.87   44.50
   3   5 -15  280.27   39.50
  -3   5  15  281.57   26.20
  -1  -5  15 2081.99  135.79
   1  -5 -15 2064.29  129.59
   1  -5 -15 1790.22  130.99
  -1  -5  15 2017.70  130.29
  -1   5  15 1945.91  130.79
   1   5 -15 1851.61  135.29
   1   5 -15 1976.60  130.69
   1   5 -15 1841.12  134.99
   1   5 -15 1954.20  135.59
  -1   5  15 1911.51  129.69
  -1   5  15 1989.10  139.29
   1  -5  15  501.95   46.80
   1  -5  15  540.45   39.70
  -1  -5 -15  537.55   41.90
   1   5  15  521.15   52.59
  -1   5 -15  509.25   47.90
   1   5  15  523.15   40.10
  -1   5 -15  652.03   40.80
  -1   5 -15  451.95   48.10
  -1   5 -15  611.74   48.70
   3  -5  15 1143.29   74.09
  -3  -5 -15 1074.19   79.09
   3  -5  15 1143.99   81.69
  -3  -5 -15  992.90   77.19
  -3   5 -15  884.31   84.19
  -3   5 -15 1102.99   82.79
  -3   5 -15 1164.58   74.19
   3   5  15 1044.20   74.99
  -5  -5 -15  921.01   70.49
   5  -5  15  840.32   71.19
  -5  -5 -15  727.13   73.39
   5   5  15  761.12   62.39
  -5   5 -15 1004.80   62.19
  -5   5 -15  844.12   72.99
  -7  -5 -15  244.58   37.60
   7  -5  15  164.68   34.90
   7  -5  15  206.68   27.50
  -7   5 -15  204.58   39.40
   7   5  15  224.18   29.20
  -9  -5 -15  259.47   42.20
   9  -5  15  235.98   30.00
   9  -5  15  223.48   41.70
  -9   5 -15  291.07   50.59
   9   5  15  279.47   32.50
 -11  -5 -15   48.60   45.60
 -11  -5 -15   10.50   80.29
  11  -5  15   -5.00   24.90
 -11   5 -15   60.89   63.89
  11   5  15  -36.80   33.30
 -10  -6  15  386.66   52.59
 -10  -6  15  342.37   40.20
  10   6 -15  290.87   41.20
 -10   6  15  326.57   40.80
 -10   6  15  288.37   41.20
  -8  -6  15  839.32   63.39
  -8  -6  15  767.62   75.79
  -8   6  15  865.31   62.49
  -8   6  15  812.12   63.19
   8   6 -15  811.12   62.99
  -6  -6  15  858.41   63.09
   6  -6 -15  783.32   73.49
  -6  -6  15  705.53   70.79
  -6   6  15  971.80   62.79
   6   6 -15  914.71   62.39
  -6   6  15  848.02   63.39
   4  -6 -15  511.15   59.19
  -4  -6  15  547.05   41.90
  -4  -6  15  555.34   41.70
  -4  -6  15  566.94   49.99
   4   6 -15  508.95   43.10
  -4   6  15  478.95   41.80
   4   6 -15  558.64   40.60
   4   6 -15  623.64   56.79
  -4   6  15  576.54   41.00
   2  -6 -15  133.09   17.80
   2  -6 -15  204.98   47.40
  -2  -6  15  122.89   17.10
  -2  -6  15  124.29   23.40
   2   6 -15  123.39   15.60
   2   6 -15  114.29   26.00
  -2   6  15  163.68   32.20
   2   6 -15  139.99   22.90
  -2   6  15  146.19   17.50
   2   6 -15  132.89   21.00
  -2   6  15  127.99   15.50
   0  -6  15  163.28   23.90
   0  -6 -15  137.49   15.20
   0  -6  15  138.09   15.50
   0  -6 -15   96.29   16.80
   0   6 -15  160.18   22.90
   0   6 -15  114.09   23.00
   0   6  15  154.38   17.10
   0   6  15  160.08   30.10
   0   6 -15  114.09   26.10
   0   6 -15  183.78   18.40
   0   6  15  128.19   15.50
  -2  -6 -15    2.80   13.10
  -2  -6 -15    7.90   11.40
   2  -6  15   -3.50    8.70
   2  -6  15   25.20   16.40
  -2  -6 -15   40.10   30.70
  -2   6 -15    8.00   20.50
   2   6  15    1.50    9.40
  -2   6 -15    8.40   21.30
  -2   6 -15   -3.90    9.10
  -2   6 -15    6.20   14.10
   4  -6  15   71.69   11.70
  -4  -6 -15   45.30   20.40
  -4  -6 -15   82.09   20.40
  -4  -6 -15    8.70   34.30
   4  -6  15   51.59   21.70
   4   6  15   56.39   13.20
  -4   6 -15   45.80   20.90
   6  -6  15  614.34   61.29
   6  -6  15  641.14   47.70
  -6  -6 -15  559.24   60.49
  -6   6 -15  655.43   61.69
   6   6  15  637.04   49.10
  -6   6 -15  583.84   49.00
   8  -6  15  795.82   68.39
   8  -6  15  735.33   53.29
  -8  -6 -15  642.64   69.29
  -8   6 -15  535.95   73.09
   8   6  15  534.45   53.29
  10  -6  15  582.04   50.39
 -10  -6 -15  484.55   62.99
 -10   6 -15  370.76   61.59
  10   6  15  498.55   55.89
 -10   6 -15  517.75   85.49
 -11  -7  15  268.67   36.50
 -11  -7  15  311.37   57.29
  11   7 -15  245.58   36.80
 -11   7  15  275.07   34.90
 -11   7  15  301.37   38.90
  -9  -7  15    5.50   20.20
  -9  -7  15  -38.40   36.50
  -9   7  15   31.30   18.10
   9   7 -15    8.90   19.60
  -9   7  15   20.30   21.60
  -7  -7  15  -10.10   15.90
  -7  -7  15   40.20   29.10
   7  -7 -15   -7.30   26.40
  -7   7  15   -0.50   14.80
  -7   7  15  -71.19   34.90
   7   7 -15   -9.10   14.00
  -7   7  15   34.90   16.10
   5  -7 -15  302.37   48.50
  -5  -7  15  270.07   42.20
  -5  -7  15  313.07   28.70
   5   7 -15  299.57   27.80
  -5   7  15  297.67   30.50
  -5   7  15  295.77   27.90
  -3  -7  15  728.43   59.89
  -3  -7  15  765.12   50.59
   3  -7 -15  657.33   76.59
  -3   7  15  716.73   50.89
  -3   7  15  689.23   50.09
   3   7 -15  721.93   50.89
  -3   7  15  539.25   51.69
   1  -7 -15  297.37   26.50
   1  -7 -15  297.47   29.50
  -1  -7  15  318.97   36.60
  -1  -7  15  329.17   26.20
   1   7 -15  327.57   33.30
   1   7 -15  308.77   40.10
   1   7 -15  314.47   40.70
   1   7 -15  365.96   27.30
  -1   7  15  274.07   27.20
  -1   7  15  342.27   26.50
  -1   7  15  278.27   43.90
  -1  -7 -15 2362.56  166.98
   1  -7  15 2528.45  174.58
  -1  -7 -15 2223.88  168.88
  -1   7 -15 2432.76  175.88
   1   7  15 2593.24  168.78
  -1   7 -15 2830.52  167.98
  -1   7 -15 2687.13  174.78
   1   7  15 2551.24  167.88
   3  -7  15  646.24   53.69
  -3  -7 -15  545.45   48.80
  -3  -7 -15  482.15   46.40
   3   7  15  603.74   44.10
  -3   7 -15  548.35   52.99
   5  -7  15  661.23   58.99
  -5  -7 -15  586.34   56.69
  -5   7 -15  623.24   59.49
   5   7  15  614.84   49.10
  -7  -7 -15  541.65   60.89
   7  -7  15  618.84   46.70
   7  -7  15  536.55   62.39
  -7   7 -15  601.54   64.59
   7   7  15  574.44   48.70
  -9  -7 -15   50.99   35.50
  -9  -7 -15    5.00   63.49
   9  -7  15  -60.69   33.60
   9  -7  15   19.90   19.50
  -9   7 -15  -27.90   38.40
   9   7  15   39.80   22.70
 -10  -8  15  269.87   35.90
 -10  -8  15  289.87   55.39
 -10   8  15  323.37   39.50
 -10   8  15  357.96   42.60
  10   8 -15  369.66   44.20
  -8  -8  15  370.86   39.10
   8  -8 -15  311.17   45.40
  -8  -8  15  327.27   51.19
  -8   8  15  357.26   38.20
  -8   8  15  391.16   37.70
   8   8 -15  328.77   37.00
  -6  -8  15  506.35   58.79
   6  -8 -15  518.45   63.69
  -6  -8  15  539.05   44.90
  -6   8  15  594.34   45.70
   6   8 -15  541.35   45.10
  -6   8  15  584.64   44.70
   4  -8 -15  316.97   47.30
  -4  -8  15  283.67   27.50
  -4  -8  15  293.07   41.20
  -4  -8  15  285.37   30.30
  -4   8  15  297.37   28.70
   4   8 -15  286.47   27.30
   4   8 -15  276.87   29.50
  -4   8  15  288.67   28.40
  -2  -8  15   49.40   12.20
   2  -8 -15   45.50   14.40
   2  -8 -15   12.90   44.00
  -2  -8  15   33.50   20.80
  -2   8  15   34.00   37.90
  -2   8  15   40.90   10.80
   2   8 -15   64.49   18.20
  -2   8  15   50.19   11.90
   2   8 -15   33.50   19.80
   2   8 -15   68.29   12.60
   0  -8  15  217.08   31.90
   0  -8 -15  175.68   21.50
   0  -8 -15  153.68   20.70
   0   8  15  173.58   20.70
   0   8 -15  220.98   30.70
   0   8  15  213.68   20.20
   0   8 -15  193.08   29.60
  -2  -8 -15    6.50    9.30
  -2  -8 -15   44.80   33.60
   2  -8  15   14.80   19.40
   2   8  15   12.50   10.00
  -2   8 -15   14.20   17.00
   2   8  15   28.80   12.40
  -4  -8 -15   78.89   14.10
  -4  -8 -15   99.09   22.20
  -4  -8 -15  102.69   22.60
   4  -8  15  121.99   27.70
  -4  -8 -15   -0.60   35.80
  -4   8 -15  129.09   27.20
   4   8  15   84.29   14.40
   4   8  15  114.69   17.20
  -6  -8 -15  171.68   31.00
  -6  -8 -15   61.19   47.80
   6  -8  15  211.78   36.00
   6   8  15  161.38   24.20
  -6   8 -15  171.98   33.60
   8  -8  15  377.36   51.49
  -8  -8 -15  344.57   51.39
   8   8  15  407.96   42.40
  -8   8 -15  425.26   61.19
  10  -8  15  233.78   50.89
 -10  -8 -15  245.18   52.29
  10   8  15  250.07   38.60
 -10   8 -15  354.26   61.09
  -9  -9  15   70.69   46.40
  -9  -9  15   54.19   24.70
  -9   9  15  127.79   24.10
  -9   9  15  124.29   25.60
   9   9 -15   87.49   25.20
  -7  -9  15   66.29   18.80
  -7  -9  15   51.19   33.20
   7  -9 -15   58.99   32.70
  -7   9  15   97.09   20.20
   7   9 -15   55.69   19.70
  -7   9  15   94.49   18.60
  -5  -9  15    1.70   13.60
   5  -9 -15   -4.60   31.40
  -5  -9  15   67.49   28.90
  -5   9  15   20.80   15.80
   5   9 -15   15.30   13.50
  -5   9  15   13.00   13.00
  -3  -9  15  145.19   20.50
   3  -9 -15  180.98   42.90
  -3  -9  15  167.78   18.80
  -3  -9  15  114.09   30.10
  -3   9  15  139.29   18.80
  -3   9  15  161.98   20.60
   3   9 -15  169.78   19.70
   3   9 -15  159.88   21.20
  -1  -9  15  642.04   55.99
   1  -9 -15  542.75   88.59
   1   9 -15  535.05   55.49
  -1   9  15  565.04   43.70
   1   9 -15  598.94   50.79
  -1   9  15  587.64   44.10
   1  -9  15   81.59   25.70
  -1  -9 -15  143.69   43.00
  -1  -9 -15   83.89   13.90
  -1   9 -15   79.29   20.70
  -1   9 -15   72.89   29.50
   1   9  15   80.19   15.10
   1   9  15   90.29   13.90
  -3  -9 -15  339.27   32.50
  -3  -9 -15  374.46   42.30
   3  -9  15  477.65   47.20
  -3  -9 -15  367.16   37.10
   3   9  15  366.36   33.90
   3   9  15  376.36   32.30
  -3   9 -15  390.26   44.80
   5  -9  15   31.00   28.60
  -5  -9 -15  -25.40   40.10
  -5  -9 -15   24.50   24.50
   5   9  15   26.60   12.40
  -5   9 -15   45.60   25.40
   5   9  15   40.00   15.40
  -7  -9 -15   -3.90   49.80
  -7  -9 -15  -16.20   30.30
   7  -9  15  -22.40   30.90
  -7   9 -15    1.00   31.10
   7   9  15   16.40   18.90
  -9  -9 -15  -64.39   64.89
   9  -9  15   51.69   38.70
  -9  -9 -15   89.29   42.10
   9   9  15   67.19   24.80
  -9   9 -15   15.30   38.30
 -10 -10  15  136.29   59.09
 -10 -10  15   50.99   29.20
 -10  10  15   54.29   30.00
 -10  10  15   76.99   26.00
  10  10 -15   33.00   26.30
   8 -10 -15  230.18   44.70
  -8 -10  15  277.07   52.39
  -8 -10  15  243.98   31.90
  -8  10  15  271.27   32.90
  -8  10  15  350.96   37.10
   8  10 -15  255.27   32.10
  -6 -10  15  -15.20   15.60
  -6 -10  15  -17.90   30.80
   6 -10 -15  -14.90   33.40
  -6  10  15    0.50   17.90
   6  10 -15  -20.80   16.20
  -6  10  15   36.00   16.30
   4 -10 -15   99.49   38.70
  -4 -10  15  135.49   30.60
  -4  10  15   95.49   16.90
   4  10 -15   79.09   16.10
  -4  10  15  103.99   16.40
   4  10 -15   71.89   18.10
   2 -10 -15   86.69   46.20
  -2 -10  15  115.99   27.50
  -2  10  15  117.39   17.00
  -2  10  15  112.29   17.10
   2  10 -15  125.59   22.30
   2  10 -15   86.89   27.10
   0 -10 -15  -54.69   45.90
   0 -10  15   17.10   24.40
   0  10  15   23.20   11.40
   0  10 -15   23.50   29.60
   0  10 -15   10.60   17.20
   0  10  15   -2.60   10.70
   2 -10  15   24.00   25.10
  -2 -10 -15  158.28   47.80
   2  10  15   29.10   12.40
  -2  10 -15   66.09   21.90
   4 -10  15   93.19   27.90
  -4 -10 -15   44.90   23.80
  -4 -10 -15  -11.20   42.00
  -4 -10 -15   29.60   24.80
  -4  10 -15   45.40   24.80
   4  10  15   66.39   15.90
   4  10  15   37.50   14.10
   6 -10  15  179.58   34.80
  -6 -10 -15  131.89   34.70
  -6 -10 -15   16.00   52.89
  -6  10 -15  157.38   33.50
   6  10  15  142.79   23.20
   6  10  15  144.09   20.40
   8 -10  15   28.60   37.70
  -8 -10 -15  -38.40   61.09
  -8 -10 -15   -1.20   39.40
   8  10  15   70.09   23.80
   8  10  15   27.60   18.40
  -8  10 -15   43.00   38.00
   9 -11 -15  -76.09   43.90
  -9 -11  15   55.89   49.80
  -9 -11  15   42.70   26.80
  -9  11  15    6.00   24.20
   9  11 -15   27.40   26.40
  -9  11  15  -23.90   26.60
   7 -11 -15  -25.60   36.30
  -7 -11  15   -3.00   19.00
  -7 -11  15   11.90   36.90
   7  11 -15   -6.80   19.60
  -7  11  15  -19.90   20.40
  -7  11  15  -21.70   17.30
  -5 -11  15    6.80   32.70
  -5 -11  15   16.40   15.20
   5 -11 -15   36.60   40.40
  -5  11  15   26.50   16.00
   5  11 -15   20.90   16.60
  -5  11  15  -19.20   13.80
   3 -11 -15  -13.20   45.10
  -3 -11  15   68.09   18.50
  -3 -11  15   31.50   29.70
  -3  11  15   48.70   14.90
  -3  11  15   35.80   14.50
   3  11 -15   33.80   13.00
   1 -11 -15  -62.69   46.30
  -1 -11  15    8.20   26.50
   1  11 -15   -3.00   17.70
  -1  11  15   14.00   12.20
   1  11 -15    1.00   29.20
  -1  11  15   13.80   12.70
  -1 -11 -15   58.39   52.09
   1 -11  15  -13.40   24.50
  -1  11 -15  -11.40   18.80
   1  11  15    4.10   13.90
   1  11  15    2.10   13.40
  -3 -11 -15   32.80   53.69
   3 -11  15   22.40   26.90
   3  11  15   -9.60   13.30
  -3  11 -15    3.70   21.80
   3  11  15    2.20   14.80
  -5 -11 -15    2.20   49.00
   5 -11  15    4.50   29.10
  -5 -11 -15  -41.30   28.50
   5  11  15   18.40   18.30
  -5  11 -15  -10.60   25.30
   5  11  15   20.70   15.20
  -7 -11 -15 -107.49   58.89
  -7 -11 -15   24.70   36.60
   7 -11  15   16.80   34.20
   7  11  15    3.60   20.60
   7  11  15  -33.10   16.70
  -7  11 -15   27.00   33.40
  -9 -11 -15  -56.89   74.69
   9 -11  15    8.10   42.60
  -8 -12  15  110.49   26.70
   8 -12 -15   84.59   43.60
  -8 -12  15  166.08   48.70
  -8  12  15  132.29   27.20
   8  12 -15   50.19   28.60
  -8  12  15   97.89   24.80
  -6 -12  15   75.59   22.10
   6 -12 -15  102.89   44.20
  -6 -12  15   79.79   40.50
  -6  12  15  127.89   22.80
   6  12 -15  104.69   24.70
  -6  12  15  112.89   20.80
   4 -12 -15  -21.60   45.50
  -4 -12  15   14.30   30.60
   4  12 -15  -12.60   16.50
  -4  12  15   17.40   14.80
  -4  12  15    8.70   16.70
  -2 -12  15   20.70   29.00
   2 -12 -15   25.20   51.89
   2  12 -15   10.50   35.70
  -2  12  15   34.30   14.60
   2  12 -15   37.90   19.90
  -2  12  15   28.00   14.60
   0 -12 -15   44.50   54.39
   0 -12  15   54.49   29.30
   0  12 -15   28.30   20.30
   0  12  15   46.40   14.90
   0  12  15   51.19   15.30
  -2 -12 -15  104.69   53.89
   2 -12  15   17.10   27.50
   2  12  15   54.49   17.40
  -2  12 -15   58.29   24.30
   2  12  15   39.90   15.50
   4 -12  15   20.80   30.50
  -4 -12 -15   71.39   29.70
  -4 -12 -15   -9.90   57.99
  -4 -12 -15   -0.70   27.70
   4  12  15   45.80   18.30
  -4  12 -15   64.09   26.00
   4  12  15   53.29   16.80
   6 -12  15   99.39   36.90
  -6 -12 -15   41.10   37.50
  -6 -12 -15   28.60   54.99
  -6  12 -15   33.40   33.80
   6  12  15   95.89   19.30
   6  12  15   86.09   22.60
   8 -12  15   44.00   38.90
  -8 -12 -15   14.30   48.20
  -8 -12 -15   64.49   71.09
   8  12  15  114.39   28.60
   8  12  15   61.59   22.80
  -8  12 -15   40.40   40.50
   7 -13 -15   59.09   47.70
  -7 -13  15   47.70   46.50
  -7 -13  15  -38.20   23.20
   7  13 -15  -12.90   23.90
  -7  13  15  -32.20   18.90
   5 -13 -15   -2.10   48.60
  -5 -13  15   51.99   36.90
  -5  13  15    5.40   18.80
  -5  13  15   55.79   19.70
   5  13 -15   44.00   20.90
  -3 -13  15  170.38   38.40
   3 -13 -15  273.07   56.79
  -3  13  15  139.29   22.30
   3  13 -15  162.18   28.10
  -3  13  15  170.68   23.10
   3  13 -15  217.78   27.40
   3  13 -15   48.10   71.79
   1 -13 -15  243.68   61.39
  -1 -13  15  205.08   39.40
  -1  13  15  160.48   23.00
   1  13 -15  193.38   28.70
  -1  13  15  143.79   22.20
  -1 -13 -15  738.93   88.29
   1 -13  15  631.04   63.19
   1  13  15  500.65   46.90
   1  13  15  530.55   47.70
  -1  13 -15  586.24   56.79
   3 -13  15  154.78   37.40
  -3 -13 -15  102.59   59.89
   3  13  15  170.18   24.40
  -3  13 -15  167.98   32.60
   3  13  15  181.98   24.70
  -5 -13 -15   97.59   36.00
  -5 -13 -15   -0.70   69.49
   5 -13  15   91.59   36.20
   5  13  15   63.99   20.10
  -5  13 -15  114.79   31.90
   5  13  15   80.89   23.30
  -7 -13 -15   -5.50   75.39
   7 -13  15   83.79   43.70
  -7 -13 -15   94.69   44.40
   7  13  15   41.50   26.90
   7  13  15   37.00   21.70
  -7  13 -15   53.69   39.00
  -6 -14  15  429.26   61.59
   6 -14 -15  311.57   66.29
   6  14 -15  449.76   46.30
  -6  14  15  357.46   46.60
  -4 -14  15  196.68   46.80
   4 -14 -15  116.59   55.99
   4  14 -15  189.08   28.20
  -4  14  15  174.78   25.70
  -2 -14  15    8.80   36.60
   2 -14 -15  175.78   55.99
   2  14 -15   23.00   17.50
   2  14 -15   45.50   22.60
  -2  14  15   17.80   18.10
   0 -14 -15    6.20   57.29
   0 -14  15   14.70   34.60
   0  14 -15   34.50   23.20
   0  14  15   85.29   19.20
   0  14  15   53.19   18.70
   2 -14  15   41.10   33.90
  -2 -14 -15  -41.20   58.69
  -2  14 -15    5.90   25.00
   2  14  15  -24.80   17.80
   2  14  15   16.50   17.80
  -4 -14 -15    7.50   69.89
   4 -14  15   95.09   36.50
  -4 -14 -15   54.19   44.10
   4  14  15   49.60   21.30
   4  14  15   94.59   23.50
  -4  14 -15   82.99   31.50
  -6 -14 -15  119.89   85.09
  -6 -14 -15  184.58   45.90
   6 -14  15  114.79   44.20
   6  14  15  104.09   24.60
   6  14  15  189.18   30.70
  -6  14 -15  151.28   38.50
  -5 -15  15  152.28   47.40
   5 -15 -15  187.68   62.69
  -5  15  15  109.49   25.70
   5  15 -15  125.99   29.10
   3 -15 -15  257.47   69.89
  -3 -15  15  334.57   49.90
  -3  15  15  274.07   37.40
   3  15 -15  286.17   38.10
   3  15 -15  275.47   48.60
  -1 -15  15  664.63   74.09
   1 -15 -15  606.14   89.79
   1  15 -15  587.94   62.59
  -1  15  15  549.05   52.19
   1 -15  15  427.46   61.09
  -1 -15 -15  372.06   72.89
  -1  15 -15  362.36   52.99
   1  15  15  285.77   38.40
   1  15  15  355.86   38.00
   3 -15  15  559.34   68.59
   3  15  15  476.95   45.30
  -3  15 -15  447.26   59.69
   3  15  15  412.16   47.30
   5 -15  15  379.86   55.59
  -5 -15 -15  403.26   58.79
   5  15  15  333.17   43.30
   5  15  15  304.57   42.20
  -5  15 -15  319.87   49.10
   4 -16 -15  391.66   76.39
  -4 -16  15  384.66   63.79
   4  16 -15  484.35   57.79
  -4  16  15  399.86   47.10
   2 -16 -15  158.58   77.09
  -2 -16  15  135.69   45.70
   2  16 -15  130.99   35.00
  -2  16  15  117.29   25.20
   2  16 -15  143.49   28.60
   0 -16  15   31.10   42.00
   0 -16 -15   62.19   75.09
   0  16 -15  -21.60   31.80
   0  16  15  -21.80   20.40
   2 -16  15   18.30   41.00
  -2 -16 -15  -18.80   64.69
  -2  16 -15    7.50   30.00
   2  16  15   -2.10   21.50
   4 -16  15   56.59   42.20
  -4 -16 -15   13.40   80.29
   4  16  15   52.89   26.80
   4  16  15   59.19   25.00
  -4  16 -15   36.10   35.20
  -3 -17  15  571.24   69.59
   3 -17 -15  546.45   81.49
   3  17 -15  384.16   69.69
   3  17 -15  471.25   54.69
  -3  17  15  358.46   50.59
  -1 -17  15  378.46   59.59
   1 -17 -15  421.76   83.29
  -1  17  15  363.56   46.00
   1  17 -15  314.47   49.40
  -1 -17 -15  321.37   92.39
   1 -17  15  444.66   63.59
  -1  17 -15  451.85   66.49
   1  17  15  528.05   49.10
   3 -17  15  365.86   59.99
   3  17  15  357.26   46.20
   3  17  15  372.46   46.90
  -3  17 -15  424.06   63.79
 -10   0  16  306.57   44.90
 -10   0  16  314.97   39.30
  10   0 -16  270.07   38.30
   8   0 -16  752.82   58.19
  -8   0  16  748.03   58.59
  -6   0  16  216.48   26.80
   6   0 -16  306.07   26.70
  -4   0  16  195.58   22.50
  -4   0  16  243.08   23.00
  -4   0  16  236.78   21.20
   2   0 -16   50.69   15.10
   2   0 -16   45.80   11.60
   2   0 -16    3.50   24.20
  -2   0  16   35.00   14.40
  -2   0  16   49.00   11.20
  -2   0  16   38.00   14.00
   0   0 -16  418.96   47.90
   0   0 -16  304.47   34.90
   0   0 -16  396.66   31.90
   0   0  16  415.66   38.40
   0   0  16  422.06   30.60
   0   0  16  355.66   34.70
  -2   0 -16  204.78   23.00
  -2   0 -16  174.38   27.80
   2   0  16  192.68   27.10
   2   0  16  235.18   34.00
  -2   0 -16  215.48   35.30
   2   0  16  229.08   20.60
   4   0  16  895.01   69.49
   4   0  16  900.41   64.19
  -4   0 -16  786.62   70.79
  -4   0 -16 1030.30   80.69
   6   0  16 1832.12  136.39
  -6   0 -16 1889.91  145.99
   6   0  16 1996.50  130.79
  -8   0 -16  458.95   69.79
  -8   0 -16  692.13   80.39
   8   0  16  655.63   52.39
 -10   0 -16  560.14   67.59
  10   0  16  544.85   54.99
 -10   0 -16  521.65   92.29
 -11  -1  16  114.99   41.50
 -11  -1  16   18.90   23.80
 -11   1  16   12.10   23.20
 -11   1  16  -27.00   26.80
  11   1 -16   -7.80   23.20
  -9  -1  16   -5.90   17.90
  -9  -1  16   52.49   31.10
   9   1 -16   -1.90   19.40
  -9   1  16   12.90   18.40
   9   1 -16  -44.20   43.20
  -9   1  16   -4.60   15.80
  -7  -1  16  378.46   34.90
  -7  -1  16  309.87   44.60
   7   1 -16  351.16   48.70
  -7   1  16  427.96   34.60
   7   1 -16  362.26   34.80
  -7   1  16  375.96   34.60
  -5  -1  16  501.05   41.00
  -5  -1  16  499.75   45.90
  -5  -1  16  462.45   40.40
   5   1 -16  497.45   39.00
  -5   1  16  488.95   40.60
  -5   1  16  465.25   41.10
   5   1 -16  634.64   47.60
  -5   1  16  573.34   38.90
  -3  -1  16  617.24   43.00
   3  -1 -16  477.45   45.20
  -3  -1  16  681.13   45.60
  -3  -1  16  539.35   48.60
  -3  -1  16  613.74   43.80
  -3   1  16  663.23   49.80
  -3   1  16  629.14   43.30
  -3   1  16  608.44   45.00
  -3   1  16  636.14   44.10
   3   1 -16  555.64   46.00
  -1  -1  16 1137.89   84.49
  -1  -1  16 1231.48   85.89
   1  -1 -16 1099.49   81.69
  -1   1  16 1278.87   81.69
   1   1 -16 1361.86   92.29
  -1   1  16 1130.09   83.19
   1   1 -16 1119.39   84.39
   1   1 -16 1119.89   81.59
  -1   1  16 1220.18   86.59
   1  -1  16 1396.86  100.29
   1  -1  16 1375.26   96.69
  -1  -1 -16 1541.05   97.99
   1  -1  16 1369.16  102.49
  -1  -1 -16 1426.06  100.29
  -1   1 -16 1462.75  100.79
  -1   1 -16 1494.05   97.59
   1   1  16 1301.27   99.29
   1   1  16 1452.05  102.89
   1   1  16 1400.86   97.09
  -1   1 -16 1489.75  106.99
  -3  -1 -16  672.23   61.09
  -3  -1 -16  694.83   52.19
   3  -1  16  569.94   57.79
  -3  -1 -16  618.04   47.20
   3  -1  16  611.34   45.90
   3  -1  16  657.63   52.09
   3   1  16  600.64   51.09
  -3   1 -16  578.94   46.70
   3   1  16  657.53   46.50
   3   1  16  612.44   59.49
  -3   1 -16  614.44   58.39
  -3   1 -16  600.84   53.29
   5  -1  16  287.17   36.20
   5  -1  16  318.27   28.70
  -5  -1 -16  292.87   49.20
   5   1  16  260.87   37.40
   5   1  16  304.47   28.90
  -5   1 -16  308.97   46.90
   7  -1  16   30.70   24.70
  -7  -1 -16  -13.50   32.40
  -7  -1 -16   37.40   31.40
   7  -1  16    5.30   15.10
   7   1  16   15.10   14.70
  -7   1 -16   18.60   30.40
   9  -1  16   49.30   20.20
  -9  -1 -16   -0.70   35.30
  -9  -1 -16   21.60   45.50
  -9   1 -16   11.60   36.50
   9   1  16   24.00   20.10
  -9   1 -16   30.90   43.90
 -11  -1 -16  238.38   69.19
 -11  -1 -16  135.69   44.30
  11  -1  16   84.99   28.00
 -11   1 -16   76.99   61.09
 -11   1 -16   31.60   46.30
  11   1  16  118.79   27.90
 -10  -2  16  430.66   47.00
 -10  -2  16  493.95   70.89
  10   2 -16  485.25   47.20
 -10   2  16  489.65   47.70
 -10   2  16  532.35   49.00
  -8  -2  16  344.97   51.09
  -8  -2  16  357.36   35.90
   8   2 -16  341.87   47.50
  -8   2  16  387.96   35.40
   8   2 -16  411.46   36.30
  -8   2  16  356.46   36.70
  -6  -2  16  288.57   42.10
  -6  -2  16  343.67   32.30
  -6   2  16  395.46   33.60
   6   2 -16  358.76   31.70
  -6   2  16  436.36   32.90
   6   2 -16  314.67   44.20
  -4  -2  16  258.77   33.80
  -4  -2  16  262.57   26.00
  -4  -2  16  259.57   25.90
   4   2 -16  301.57   25.00
  -4   2  16  310.47   26.80
  -4   2  16  308.67   25.00
   4   2 -16  276.27   37.50
  -4   2  16  303.57   27.20
  -2  -2  16   34.80   10.20
  -2  -2  16   26.30   14.30
   2  -2 -16   19.10   22.70
  -2  -2  16   15.00   13.70
   2  -2 -16   33.90   11.70
  -2   2  16   30.90   10.00
   2   2 -16   36.30   21.20
  -2   2  16   30.10    8.90
   2   2 -16   23.00   15.70
  -2   2  16   19.30   15.10
  -2   2  16   23.60    8.00
   2   2 -16   15.10   10.70
   0  -2  16    2.20   15.40
   0  -2  16    8.50   12.80
   0  -2 -16   10.70   24.40
   0  -2 -16    5.00   10.20
   0  -2 -16   -1.00   12.90
   0  -2  16  -10.80    7.60
   0   2 -16    1.80   16.20
   0   2  16   -1.00   15.60
   0   2 -16    7.10    9.50
   0   2 -16   16.10   16.70
   0   2  16  -13.10   11.60
   0   2  16    1.30    7.70
  -2  -2 -16  260.47   25.90
   2  -2  16  267.57   22.40
  -2  -2 -16  215.68   28.10
   2  -2  16  282.77   30.70
   2  -2  16  203.08   34.40
   2   2  16  221.78   34.10
   2   2  16  257.37   29.10
   2   2  16  257.87   22.80
  -2   2 -16  242.18   33.30
  -2   2 -16  266.77   24.30
  -2   2 -16  261.97   36.70
  -4  -2 -16  199.68   40.60
  -4  -2 -16  210.68   27.80
   4  -2  16  196.78   28.10
   4  -2  16  213.88   21.90
   4   2  16  179.78   22.30
  -4   2 -16  207.68   24.70
   4   2  16  194.58   29.60
  -4   2 -16  199.98   34.40
   6  -2  16  758.22   55.49
   6  -2  16  729.83   63.89
  -6  -2 -16  696.33   77.99
  -6   2 -16  703.53   73.29
   6   2  16  717.13   55.49
  -8  -2 -16  690.73   92.79
  -8  -2 -16  607.04   75.09
   8  -2  16  816.72   61.39
   8   2  16  833.62   61.19
  -8   2 -16  817.92   84.69
  -8   2 -16  730.43   76.49
 -10  -2 -16  226.38   49.80
 -10  -2 -16  230.28   72.49
  10  -2  16  207.18   31.80
 -10   2 -16  205.58   47.90
 -10   2 -16  233.18   57.59
  10   2  16  195.88   31.40
 -11  -3  16   21.80   25.20
 -11  -3  16   51.89   43.70
  11   3 -16   31.40   24.70
 -11   3  16   27.50   27.40
 -11   3  16    3.90   23.40
  -9  -3  16   64.69   34.00
  -9  -3  16    0.70   18.90
   9   3 -16   29.90   18.70
  -9   3  16   57.29   18.30
  -9   3  16   44.60   20.60
  -7  -3  16  140.99   28.50
  -7  -3  16  121.49   19.10
  -7   3  16  113.39   20.20
   7   3 -16  122.19   19.80
   7   3 -16   92.29   32.70
  -7   3  16  169.68   22.70
  -5  -3  16  583.24   46.90
  -5  -3  16  501.55   52.59
  -5  -3  16  631.54   46.60
   5   3 -16  579.14   56.59
  -5   3  16  666.23   45.60
   5   3 -16  643.74   45.50
  -5   3  16  612.94   46.90
  -3  -3  16  621.24   42.50
  -3  -3  16  503.65   48.60
  -3  -3  16  624.54   44.00
  -3   3  16  551.44   50.89
   3   3 -16  478.15   49.20
   3   3 -16  472.45   43.90
  -3   3  16  642.44   44.30
  -3   3  16  649.34   43.40
  -3   3  16  627.64   42.40
  -1  -3  16  671.13   51.59
  -1  -3  16  648.44   46.20
  -1  -3  16  671.83   53.39
   1  -3 -16  620.64   47.90
  -1   3  16  660.43   56.59
   1   3 -16  647.74   47.40
  -1   3  16  558.44   46.50
   1   3 -16  676.03   53.59
   1   3 -16  636.74   54.69
   1  -3  16  676.73   48.30
  -1  -3 -16  597.64   50.09
   1  -3  16  689.83   59.19
   1  -3  16  690.33   54.39
   1   3  16  667.63   51.69
  -1   3 -16  724.33   49.50
  -1   3 -16  633.74   54.79
   1   3  16  710.93   58.99
  -1   3 -16  729.23   59.69
   1   3  16  638.44   48.60
   3  -3  16  -10.20   29.20
   3  -3  16  -15.20   15.50
  -3  -3 -16    8.90   15.60
   3  -3  16   15.90   10.10
  -3  -3 -16    4.20   28.50
   3   3  16    2.30    9.40
   3   3  16    4.70   14.00
  -3   3 -16    7.70   11.00
  -3   3 -16   -0.60   18.10
  -3   3 -16   28.00   22.30
  -5  -3 -16   47.90   25.40
  -5  -3 -16   23.20   33.60
   5  -3  16   52.99   13.50
   5  -3  16   34.00   21.00
   5   3  16   33.30   12.90
  -5   3 -16   32.20   22.40
   7  -3  16    5.70   25.60
   7  -3  16   -5.90   15.20
  -7  -3 -16  -26.70   26.30
  -7  -3 -16   -5.30   45.20
   7   3  16    5.90   15.40
  -7   3 -16    4.50   29.00
  -9  -3 -16   82.09   35.70
  -9  -3 -16   28.40   58.29
   9  -3  16   99.09   22.70
   9   3  16   47.40   21.20
  -9   3 -16  124.09   38.40
  -9   3 -16  116.79   44.20
  11  -3  16   16.20   26.60
  11   3  16   68.19   29.00
 -10  -4  16   18.40   42.20
 -10  -4  16   69.49   24.10
  10   4 -16   39.10   23.80
 -10   4  16   74.19   24.70
 -10   4  16   91.69   23.40
  -8  -4  16   21.00   30.60
  -8  -4  16   36.90   18.80
  -8   4  16   44.40   17.70
  -8   4  16   42.50   15.50
   8   4 -16   44.90   17.70
  -6  -4  16  160.68   28.80
  -6   4  16  148.59   18.70
   6   4 -16  123.69   33.40
  -6   4  16  178.68   23.90
   6   4 -16  150.88   19.50
  -4  -4  16   14.50   10.40
  -4  -4  16   -7.40   18.30
  -4  -4  16   31.00   10.90
   4  -4 -16  -26.30   30.10
   4   4 -16   21.70    9.70
  -4   4  16    1.70   18.90
   4   4 -16   38.70   23.40
  -4   4  16    9.20   12.80
  -4   4  16   13.20    9.50
  -4   4  16   -0.10   11.40
  -2  -4  16   53.49   11.30
   2  -4 -16   20.40   26.00
   2  -4 -16   34.80   13.70
  -2  -4  16   32.00   17.70
  -2   4  16   30.70   19.30
   2   4 -16   46.60   16.80
  -2   4  16   64.99    9.50
  -2   4  16   70.99   12.40
   2   4 -16   52.29   19.70
   2   4 -16   34.00   12.60
  -2   4  16   60.09   10.40
   0  -4  16   33.00   19.60
   0  -4 -16   35.40   13.50
   0  -4 -16   -1.20   27.00
   0  -4  16   57.29   11.20
   0  -4  16   78.59   16.70
   0   4  16   44.00   21.50
   0   4 -16   54.39   18.20
   0   4 -16   77.49   20.60
   0   4  16   57.89   11.10
   0   4 -16   39.90   17.60
   0   4 -16   58.59   12.00
   2  -4  16  217.88   20.80
   2  -4  16  248.78   33.80
  -2  -4 -16  198.48   24.80
   2  -4  16  261.07   32.00
  -2  -4 -16  223.38   31.70
  -2   4 -16  242.28   23.10
  -2   4 -16  194.68   29.80
   2   4  16  183.48   33.10
   2   4  16  206.88   22.10
  -2   4 -16  234.08   32.80
  -4  -4 -16   20.00   33.50
   4  -4  16   89.79   23.60
   4  -4  16  125.09   15.90
  -4  -4 -16  114.69   22.70
  -4  -4 -16  119.59   25.70
   4   4  16  131.99   17.40
  -4   4 -16  117.69   16.90
  -4   4 -16  101.89   25.30
  -6  -4 -16   26.00   42.50
  -6  -4 -16  114.99   28.80
   6  -4  16  162.28   19.90
   6  -4  16  112.49   29.90
  -6   4 -16  138.09   32.40
   6   4  16  163.68   21.10
   8  -4  16  159.98   23.30
   8  -4  16  173.18   37.40
  -8  -4 -16  171.18   38.30
   8   4  16  142.69   23.90
  -8   4 -16  127.09   38.40
  10  -4  16  288.07   38.10
 -10  -4 -16  270.37   49.10
 -10  -4 -16   43.70   70.39
 -10   4 -16  220.28   49.70
  10   4  16  177.98   31.80
 -10   4 -16  177.78   56.39
 -11  -5  16  -66.89   24.70
 -11  -5  16    7.00   46.80
 -11   5  16  -17.10   23.40
  11   5 -16  -17.30   25.50
 -11   5  16  -27.40   27.10
  -9  -5  16  -30.10   33.90
  -9  -5  16   -5.10   18.60
  -9   5  16   14.90   17.80
  -9   5  16    1.90   20.00
   9   5 -16   -7.50   18.80
  -7  -5  16   -5.40   26.90
  -7  -5  16   28.50   15.40
  -7   5  16  -10.30   15.30
  -7   5  16    5.00   12.90
   7   5 -16   18.60   14.40
  -5  -5  16  -27.60   20.00
  -5  -5  16    7.70   11.90
  -5  -5  16   -9.00   14.10
   5  -5 -16  -43.50   25.60
  -5   5  16   -3.20   12.70
   5   5 -16  -13.80   30.00
  -5   5  16   10.60   10.90
   5   5 -16   -4.90   10.50
  -5   5  16   -7.80   26.80
  -3  -5  16   50.59   17.70
   3  -5 -16   55.19   38.20
  -3  -5  16   64.29   13.10
  -3   5  16   28.10   11.70
  -3   5  16   26.10   22.10
  -3   5  16   51.59   12.10
   3   5 -16   24.40   12.20
   3   5 -16   27.10   22.20
  -3   5  16   32.80    9.50
   1  -5 -16   17.10   12.60
   1  -5 -16  -15.60   26.80
  -1  -5  16   29.00   17.70
  -1  -5  16   37.90   10.00
  -1   5  16   18.80   21.30
  -1   5  16   25.40    8.10
   1   5 -16   25.00   11.00
   1   5 -16   25.40   16.10
   1   5 -16   26.10   17.50
  -1   5  16   39.90   10.20
   1   5 -16    5.50   20.20
  -1  -5 -16   10.70   30.30
   1  -5  16    8.40   15.20
  -1  -5 -16    8.70   12.00
   1  -5  16   10.50    9.30
   1   5  16   -4.30   23.10
  -1   5 -16   -8.40   20.10
  -1   5 -16   -7.10    9.40
  -1   5 -16   32.40   18.40
   1   5  16   -2.70    8.60
  -1   5 -16   22.80   16.00
  -3  -5 -16   18.20   33.60
   3  -5  16   98.59   23.40
   3  -5  16  128.49   16.10
  -3  -5 -16  119.29   22.70
  -3  -5 -16   86.69   19.40
   3   5  16  116.49   16.10
  -3   5 -16  116.19   25.40
  -3   5 -16  111.39   15.20
   5  -5  16   -0.40   11.60
  -5  -5 -16   17.30   38.30
   5  -5  16   -9.80   22.90
  -5  -5 -16   13.30   21.40
   5   5  16    9.20   12.90
  -5   5 -16   -4.90   14.60
  -5   5 -16   -9.40   21.90
  -7  -5 -16    4.00   46.00
   7  -5  16   -2.50   15.00
   7  -5  16   49.10   28.30
  -7  -5 -16   58.09   28.80
  -7   5 -16   23.90   29.60
   7   5  16   23.50   17.20
  -9  -5 -16   37.80   36.20
   9  -5  16   56.39   35.90
   9  -5  16  -10.00   20.50
  -9  -5 -16  -41.00   59.59
  -9   5 -16    9.90   38.70
   9   5  16   22.20   21.30
 -10  -6  16   20.20   23.40
 -10  -6  16   38.40   42.90
 -10   6  16   44.50   26.70
  10   6 -16   14.80   24.10
 -10   6  16   26.40   21.30
  -8  -6  16   24.20   18.80
  -8  -6  16    3.10   33.40
   8   6 -16    9.00   16.60
  -8   6  16  -13.50   18.10
  -8   6  16   19.20   15.10
  -6  -6  16   81.89   27.50
   6  -6 -16   36.40   28.70
  -6  -6  16   66.39   16.30
  -6   6  16   60.29   15.00
  -6   6  16   79.19   17.30
   6   6 -16   75.99   15.80
  -6   6  16   18.70   33.30
  -4  -6  16   13.50   11.60
   4  -6 -16  -13.10   28.70
  -4  -6  16   -6.70   19.30
  -4  -6  16   -8.20   12.10
  -4   6  16   -1.60   28.70
  -4   6  16    5.00   12.60
   4   6 -16    2.80    9.30
  -4   6  16   -9.50    9.50
  -2  -6  16   19.30   17.80
   2  -6 -16   78.09   41.60
  -2  -6  16  -12.30    9.80
  -2   6  16   21.70   10.70
  -2   6  16    9.50    9.90
   2   6 -16   10.30   18.00
   2   6 -16   -2.00   15.60
   2   6 -16    0.70   11.70
   2   6 -16   15.20   24.90
  -2   6  16   20.50    9.60
  -2   6  16   11.10   24.90
   0  -6 -16    8.80   11.70
   0  -6  16  -15.90   16.40
   0  -6 -16   -1.00   28.50
   0  -6  16    6.80    9.00
   0  -6 -16  -16.40    8.10
   0   6  16  -19.40   25.30
   0   6  16    8.90   10.80
   0   6 -16   35.30   15.60
   0   6  16    5.30    8.00
   0   6 -16   -0.20   22.90
   0   6 -16   16.30   10.80
   0   6 -16    6.30   18.80
   2  -6  16   14.10    9.80
   2  -6  16   -3.30   17.80
  -2  -6 -16  -28.50   32.20
   2   6  16    8.10   10.20
  -2   6 -16   12.00   24.00
  -2   6 -16   23.60   10.70
  -2   6 -16    8.20   15.40
  -4  -6 -16   33.90   20.60
  -4  -6 -16   31.30   20.00
   4  -6  16    7.30   20.80
  -4  -6 -16   19.80   35.40
   4  -6  16   27.50   10.40
  -4   6 -16   18.20   13.20
  -4   6 -16    8.60   19.20
   4   6  16   21.70   11.90
   6  -6  16   86.99   28.90
  -6  -6 -16  102.29   31.20
  -6  -6 -16  -27.00   42.50
   6  -6  16   89.49   17.10
  -6   6 -16  100.39   28.90
   6   6  16  106.89   19.20
  -8  -6 -16   62.29   34.80
  -8  -6 -16   93.59   60.19
   8  -6  16   30.40   18.20
   8  -6  16   56.99   32.40
   8   6  16   23.60   20.00
  -8   6 -16   31.80   35.50
 -10  -6 -16   93.09   76.49
  10  -6  16   10.70   24.40
 -10  -6 -16  -16.40   40.40
 -10   6 -16   40.80   42.30
  10   6  16  -16.00   27.10
 -10   6 -16   33.80   44.60
  -9  -7  16   10.10   20.10
  -9  -7  16  -20.20   40.30
   9   7 -16   10.50   20.10
  -9   7  16   13.30   22.70
  -9   7  16    5.30   18.70
  -7  -7  16  -20.80   28.90
  -7  -7  16    6.90   15.90
  -7   7  16   39.30   39.30
   7   7 -16   31.40   14.90
  -7   7  16    0.60   16.70
  -7   7  16  -17.20   14.40
  -5  -7  16   98.79   29.00
   5  -7 -16   99.59   29.40
  -5  -7  16   86.89   16.50
  -5   7  16   83.49   16.90
  -5   7  16   23.80   35.80
  -5   7  16   77.79   14.90
   5   7 -16   77.29   15.00
  -3  -7  16  300.97   29.10
   3  -7 -16  305.47   53.29
  -3  -7  16  331.17   39.40
  -3   7  16  350.96   29.80
   3   7 -16  271.57   29.80
  -3   7  16  293.17   27.20
   3   7 -16  344.07   26.90
  -1  -7  16  103.09   24.30
   1  -7 -16  132.39   15.90
  -1  -7  16  120.79   15.70
   1  -7 -16  215.58   45.30
   1   7 -16  128.79   16.60
  -1   7  16  127.29   17.30
   1   7 -16  104.09   27.00
  -1   7  16  117.89   35.10
  -1   7  16  141.29   17.60
   1   7 -16  171.88   27.10
  -1  -7 -16  302.57   29.40
   1  -7  16  377.26   42.80
  -1   7 -16  427.16   39.70
   1   7  16  347.57   29.60
  -1   7 -16  344.47   45.80
  -1   7 -16  365.16   30.10
   1   7  16  384.16   31.10
  -3  -7 -16  124.79   22.30
  -3  -7 -16   16.30   34.20
   3  -7  16   82.49   23.80
  -3  -7 -16   88.29   20.00
  -3   7 -16  121.89   24.00
   3   7  16  142.39   19.10
  -5  -7 -16  -20.40   20.50
   5  -7  16   28.90   23.40
  -5  -7 -16   27.90   40.60
  -5   7 -16   -2.60   22.00
   5   7  16   -3.50   13.80
   7  -7  16  -15.50   29.00
   7  -7  16   36.30   16.00
  -7  -7 -16  -21.00   50.49
  -7  -7 -16   36.90   30.40
   7   7  16   13.40   17.80
  -7   7 -16   25.30   28.30
   9  -7  16  -26.40   36.00
   9  -7  16   52.49   20.60
  -9  -7 -16   20.60   35.80
  -9  -7 -16   35.50   68.39
  -9   7 -16   -4.60   41.40
   9   7  16   14.90   23.40
 -10  -8  16  249.48   57.59
 -10  -8  16  266.17   36.30
 -10   8  16  296.37   39.60
 -10   8  16  328.57   43.70
  10   8 -16  390.86   43.80
   8  -8 -16  129.79   36.40
  -8  -8  16  114.79   41.90
  -8  -8  16   97.49   22.40
   8   8 -16  102.69   21.50
  -8   8  16   94.39   20.70
  -8   8  16   75.69   22.30
   6  -8 -16   67.49   32.40
  -6  -8  16   52.49   16.60
  -6  -8  16   59.39   31.20
   6   8 -16   64.79   17.40
  -6   8  16  -55.99   44.30
  -6   8  16   30.40   17.40
  -6   8  16   47.60   14.80
  -4  -8  16  331.07   29.70
  -4  -8  16  212.68   36.80
  -4  -8  16  310.77   32.80
   4  -8 -16  373.26   53.69
  -4   8  16  351.06   31.70
  -4   8  16  341.77   29.90
   4   8 -16  289.27   28.80
  -2  -8  16  127.79   27.70
  -2  -8  16  161.88   19.80
   2  -8 -16  231.88   51.09
  -2   8  16  149.19   20.60
  -2   8  16  156.98   19.20
   2   8 -16  120.59   17.30
   2   8 -16  160.68   27.70
   0  -8 -16   41.30   11.50
   0  -8  16   10.00   21.10
   0   8 -16   14.40   26.50
   0   8 -16   29.60   18.10
   0   8  16   26.50   11.50
   0   8  16   53.59   10.70
  -2  -8 -16  160.58   19.20
   2  -8  16   80.49   26.00
   2   8  16  161.08   19.90
   2   8  16  156.18   20.50
  -2   8 -16  169.88   29.70
   4  -8  16  438.06   49.40
  -4  -8 -16  351.76   41.50
  -4  -8 -16  334.97   42.20
  -4   8 -16  321.67   46.70
   4   8  16  411.16   34.50
   6  -8  16  158.18   36.30
  -6  -8 -16   55.29   50.59
  -6  -8 -16  168.28   32.60
   6   8  16  163.58   23.30
  -6   8 -16  142.09   31.80
  -8  -8 -16  389.06   52.29
   8  -8  16  331.37   50.59
   8   8  16  282.97   41.40
  -8   8 -16  386.36   63.79
  -9  -9  16   21.30   45.50
  -9  -9  16  -12.40   23.00
   9   9 -16   -5.80   22.60
  -9   9  16  -18.10   20.20
  -9   9  16  -21.50   24.20
  -7  -9  16  397.06   57.79
  -7  -9  16  330.97   36.10
   7  -9 -16  410.66   62.89
  -7   9  16  306.77   38.00
   7   9 -16  287.17   35.90
  -7   9  16  335.07   36.30
   5  -9 -16  455.75   54.19
  -5  -9  16  339.07   33.80
  -5  -9  16  399.26   51.89
  -5   9  16  318.37   34.50
   5   9 -16  362.76   35.30
   3  -9 -16  393.46   68.29
  -3  -9  16  458.35   50.29
  -3  -9  16  457.15   36.50
  -3   9  16  397.96   37.10
  -3   9  16  377.36   35.10
   3   9 -16  473.05   35.10
   3   9 -16  436.06   36.90
  -1  -9  16 1339.07   95.49
   1  -9 -16 1358.06  126.09
   1   9 -16 1021.40   94.09
  -1   9  16 1210.78   85.39
  -1   9  16 1214.88   85.09
   1   9 -16 1286.17   91.59
  -1  -9 -16  699.83   84.89
   1  -9  16  624.64   61.89
   1   9  16  685.43   49.60
  -1   9 -16  678.43   59.29
   1   9  16  641.04   50.59
  -3  -9 -16  262.97   34.10
   3  -9  16  249.68   37.60
   3   9  16  279.67   28.90
   3   9  16  267.27   26.60
  -3   9 -16  228.08   41.40
  -5  -9 -16   32.00   24.00
   5  -9  16   28.00   29.90
  -5  -9 -16   37.30   44.40
  -5   9 -16   14.10   26.40
   5   9  16   61.89   18.10
   7  -9  16    3.90   33.50
  -7  -9 -16   -6.20   30.90
  -7  -9 -16   29.50   55.49
  -7   9 -16    5.40   30.30
   7   9  16  -27.20   19.90
  -9  -9 -16    3.00   40.60
  -9  -9 -16  -34.00   68.29
   9  -9  16   22.80   39.40
   9   9  16   23.70   27.10
  -9   9 -16   41.30   42.40
   8 -10 -16  695.93   80.19
  -8 -10  16  639.04   58.59
  -8 -10  16  715.63   80.49
  -8  10  16  734.43   59.69
  -8  10  16  682.23   59.89
   8  10 -16  673.23   58.89
   6 -10 -16  469.65   58.89
  -6 -10  16  350.06   39.30
  -6 -10  16  378.46   51.89
  -6  10  16  406.16   38.50
  -6  10  16  416.06   40.90
   6  10 -16  406.56   41.50
  -4 -10  16   46.10   14.90
   4 -10 -16   71.49   42.70
  -4 -10  16   38.10   30.20
  -4  10  16   35.60   13.70
  -4  10  16   30.60   16.10
   4  10 -16   37.90   14.20
   2 -10 -16  444.26   64.59
  -2 -10  16  514.85   54.09
   2  10 -16  506.25   45.80
   2  10 -16  378.16   52.69
  -2  10  16  420.16   37.50
  -2  10  16  408.46   36.70
   0 -10 -16  363.76   66.39
   0 -10  16  239.68   39.00
   0  10 -16  337.77   39.60
   0  10  16  272.57   28.30
   0  10  16  266.67   28.60
   2 -10  16  445.76   49.50
  -2 -10 -16  276.77   56.99
  -2  10 -16  420.06   47.90
   2  10  16  315.87   33.00
   2  10  16  402.66   35.20
   4 -10  16  355.36   44.10
  -4 -10 -16  199.28   31.60
  -4 -10 -16  245.48   36.60
   4  10  16  243.58   28.60
  -4  10 -16  273.77   46.10
   4  10  16  267.17   30.60
   6 -10  16 1559.14  114.59
  -6 -10 -16 1444.66  112.29
   6  10  16 1416.36   99.19
  -6  10 -16 1397.26  115.69
   6  10  16 1335.97  101.89
   8 -10  16  306.17   51.39
  -8 -10 -16  367.66   53.89
   8  10  16  334.47   43.00
  -8  10 -16  347.57   53.19
  -9 -11  16   78.59   49.99
  -9 -11  16   15.50   29.00
   9 -11 -16  -49.60   48.10
  -9  11  16   -9.70   25.20
  -9  11  16  -18.40   28.20
   9  11 -16   -2.70   26.50
  -7 -11  16  356.66   42.20
   7 -11 -16  460.05   71.99
  -7 -11  16  522.45   62.59
  -7  11  16  428.06   46.50
  -7  11  16  395.06   42.70
   7  11 -16  457.35   45.70
  -5 -11  16  826.02   77.29
  -5 -11  16  844.42   60.59
   5 -11 -16  823.52   88.39
   5  11 -16  798.12   61.59
  -5  11  16  807.22   60.69
  -5  11  16  683.63   61.19
   3 -11 -16  209.98   53.29
  -3 -11  16  210.88   36.80
  -3  11  16  146.59   23.20
   3  11 -16  218.78   29.60
  -3  11  16  199.98   26.70
   3  11 -16  194.38   22.60
  -1 -11  16  912.71   75.39
   1 -11 -16  769.02  104.59
  -1  11  16  779.02   60.89
   1  11 -16  711.93   76.79
   1  11 -16  949.01   68.89
  -1  11  16  779.72   60.79
  -1 -11 -16  650.03   88.69
   1 -11  16  524.15   61.69
  -1  11 -16  552.34   55.59
   1  11  16  530.05   45.70
   1  11  16  581.54   45.90
  -3 -11 -16  209.58   60.79
   3 -11  16  284.37   41.50
   3  11  16  289.67   29.70
  -3  11 -16  254.17   39.20
   3  11  16  227.38   30.20
   5 -11  16  445.76   61.69
  -5 -11 -16  450.35   58.89
  -5  11 -16  345.87   55.09
   5  11  16  455.45   41.50
   5  11  16  432.86   39.30
   7 -11  16  -24.00   37.40
  -7 -11 -16    8.70   66.59
  -7 -11 -16   30.90   37.20
  -7  11 -16  -11.60   35.70
   7  11  16  -12.90   22.40
   7  11  16  -21.50   18.30
  -8 -12  16  192.78   30.10
  -8 -12  16  125.79   49.80
   8 -12 -16  188.78   49.20
  -8  12  16  140.99   29.70
  -8  12  16  138.99   26.20
   8  12 -16  120.89   32.20
   6 -12 -16  205.48   49.90
  -6 -12  16  142.19   25.80
  -6 -12  16  214.08   49.99
  -6  12  16  151.98   25.10
   6  12 -16  175.38   26.70
  -6  12  16  197.98   27.40
  -4 -12  16  281.97   47.60
   4 -12 -16  324.57   60.09
  -4  12  16  257.37   33.60
  -4  12  16  232.78   32.70
   4  12 -16  254.47   32.50
  -2 -12  16   35.60   30.80
   2 -12 -16   75.89   54.79
  -2  12  16    0.80   15.40
   2  12 -16   19.50   19.70
   2  12 -16    4.80   34.80
  -2  12  16   18.40   14.80
   0 -12 -16   11.40   53.29
   0 -12  16   57.29   31.60
   0  12 -16   -9.90   22.00
   0  12  16   23.20   15.60
   0  12  16   -8.90   13.90
  -2 -12 -16  287.67   71.89
   2 -12  16  287.17   44.10
  -2  12 -16  262.07   43.80
   2  12  16  284.67   31.90
   2  12  16  236.98   30.90
  -4 -12 -16  662.33   62.79
   4 -12  16  494.65   63.39
  -4 -12 -16  346.07   79.69
   4  12  16  464.95   43.00
   4  12  16  466.05   45.20
  -4  12 -16  472.55   58.19
  -6 -12 -16  502.85   57.49
   6 -12  16  448.26   55.09
   6  12  16  303.17   37.90
  -6  12 -16  376.16   60.69
   6  12  16  382.06   42.80
   7 -13 -16   35.00   49.99
  -7 -13  16   41.10   47.00
   7  13 -16   59.59   26.50
  -7  13  16   68.89   25.50
  -5 -13  16   95.09   41.60
   5 -13 -16  185.98   54.69
  -5  13  16  171.38   25.60
   5  13 -16  182.68   28.10
  -5  13  16  151.18   25.60
   3 -13 -16  947.51  102.99
  -3 -13  16 1029.10   86.29
  -3  13  16  924.31   71.19
   3  13 -16  873.81   77.19
  -3  13  16  909.31   70.69
   3  13 -16  991.50   69.79
   1 -13 -16  334.97   69.59
  -1 -13  16  387.06   51.29
  -1  13  16  246.08   34.90
  -1  13  16  339.77   35.30
   1  13 -16  336.47   45.30
  -1 -13 -16  574.44   86.69
   1 -13  16  635.24   71.09
  -1  13 -16  651.73   64.09
   1  13  16  618.34   53.09
   1  13  16  710.63   53.39
  -3 -13 -16  394.16   86.29
   3 -13  16  572.74   68.19
   3  13  16  507.35   47.90
   3  13  16  600.24   49.00
  -3  13 -16  594.94   62.69
   5 -13  16  -21.50   35.40
  -5 -13 -16  -42.50   75.49
  -5 -13 -16   63.99   37.70
   5  13  16   36.00   24.10
  -5  13 -16   -1.30   31.20
   5  13  16   25.10   19.00
  -7 -13 -16   -7.60   78.99
   7 -13  16  101.69   47.30
  -7 -13 -16  162.08   49.60
   7  13  16   99.49   29.20
   7  13  16   99.59   24.10
  -7  13 -16   80.99   39.90
   6 -14 -16  168.38   57.49
  -6 -14  16  178.98   52.39
  -6  14  16  150.08   28.30
   6  14 -16  212.48   33.20
  -4 -14  16   39.50   43.50
   4 -14 -16   -9.60   57.39
   4  14 -16   28.70   20.80
  -4  14  16   55.99   21.50
  -4  14  16   -5.90   19.40
   2 -14 -16   35.90   60.09
  -2 -14  16    5.40   38.20
  -2  14  16  -19.20   17.80
   2  14 -16   16.60   24.60
  -2  14  16   -0.70   18.00
   0 -14  16  103.59   38.60
   0 -14 -16   54.39   58.79
   0  14  16   71.79   20.50
   0  14  16   51.89   19.90
   0  14 -16   70.09   25.70
  -2 -14 -16   62.99   70.79
   2 -14  16   93.09   37.30
  -2  14 -16   91.99   31.20
   2  14  16   92.69   22.40
   2  14  16   66.99   20.70
   4 -14  16  191.18   44.00
  -4 -14 -16  214.48   75.79
  -4  14 -16  191.38   39.60
   4  14  16  187.28   27.90
   4  14  16  201.78   29.30
  -6 -14 -16  263.67   50.69
  -6 -14 -16   57.39   86.29
   6 -14  16  153.18   45.90
   6  14  16  175.58   31.30
  -6  14 -16  107.99   40.40
   6  14  16  147.59   25.90
  -5 -15  16  110.09   52.49
   5 -15 -16  209.98   65.39
  -5  15  16  156.88   27.00
   5  15 -16  130.49   29.70
   3 -15 -16   26.00   62.59
  -3 -15  16   46.40   42.30
   3  15 -16   89.09   30.10
  -3  15  16   68.79   22.50
   3  15 -16   90.79   23.50
  -1 -15  16  285.87   50.99
   1 -15 -16  241.98   78.19
  -1  15  16  225.08   29.50
  -1  15  16  262.97   30.90
   1  15 -16  259.77   46.20
  -1 -15 -16   30.80   65.59
   1 -15  16  105.99   44.30
  -1  15 -16    6.20   28.20
   1  15  16   48.20   20.30
   1  15  16   65.99   20.80
   3 -15  16   44.60   41.40
  -3 -15 -16   33.50   72.69
  -3  15 -16    0.00   31.60
   3  15  16   29.40   22.90
   3  15  16   32.90   22.60
   5 -15  16   38.90   42.50
  -5 -15 -16   10.10   54.19
  -5 -15 -16   35.30   88.29
  -5  15 -16   65.49   35.90
   5  15  16   47.90   23.60
   5  15  16   36.10   26.70
   4 -16 -16   82.79   63.69
  -4 -16  16  -13.10   46.80
  -4  16  16  -12.40   22.60
   4  16 -16    1.70   31.90
  -2 -16  16   60.19   47.20
   2 -16 -16  -43.80   64.39
   2  16 -16  -24.00   29.40
   2  16 -16    7.80   24.70
  -2  16  16   33.80   23.10
   0 -16  16    9.20   43.90
   0 -16 -16  -25.60   74.59
   0  16 -16    2.40   28.20
   0  16  16  -19.90   21.90
  -2 -16 -16  124.79   70.09
   2 -16  16  -39.90   44.20
   2  16  16   76.79   24.70
   2  16  16   23.30   23.70
  -2  16 -16    0.00   32.60
  -4 -16 -16  -13.10   77.19
   4 -16  16 -102.39   43.40
   4  16  16   60.69   28.00
   4  16  16    8.50   24.30
  -4  16 -16   -5.10   35.60
   3 -17 -16   34.00   67.49
  -1 -17  16    9.00   47.30
   1 -17 -16   35.60   73.09
   1  17 -16   25.40   33.90
  -1  17  16  -22.40   23.10
   1 -17  16   79.29   53.19
  -1 -17 -16  -58.29   80.79
  -1  17 -16    9.40   33.30
   1  17  16  -27.30   23.20
 -10   0  17   23.60   22.60
 -10   0  17   28.70   22.50
  -8   0  17  -18.80   16.60
  -6   0  17   -2.30   13.20
  -6   0  17   -2.10   12.10
  -4   0  17  -15.00   11.30
  -4   0  17   -0.30   10.50
  -4   0  17   -6.30    8.20
  -2   0  17    3.30   14.40
  -2   0  17    8.30   14.10
   2   0 -17    1.60   11.60
   2   0 -17    9.40   26.90
  -2   0  17  -10.10    9.20
   0   0  17   11.40   13.20
   0   0  17   -8.40    8.20
   0   0 -17    2.20   14.50
   0   0 -17  -15.60   11.50
   0   0  17    7.40   17.40
   0   0 -17  -34.50   24.00
   2   0  17   -6.60    8.50
  -2   0 -17    0.10   21.50
   2   0  17   18.60   20.90
  -2   0 -17   21.20   17.00
  -2   0 -17    3.00   12.70
   2   0  17   -6.80   14.20
   4   0  17   10.30   17.80
   4   0  17   -8.40   11.50
  -4   0 -17   18.90   26.00
   6   0  17   -2.90   22.80
  -6   0 -17   16.50   31.60
   6   0  17   -2.40   13.60
  -8   0 -17   19.60   41.10
  -8   0 -17  -36.10   34.10
   8   0  17   23.60   19.00
  10   0  17  -30.20   23.60
 -10   0 -17   43.60   52.89
 -10   0 -17   17.70   41.50
 -11  -1  17   18.20   27.00
 -11  -1  17    2.80   43.00
  11   1 -17    7.60   24.40
 -11   1  17   -0.10   22.10
 -11   1  17  -20.60   27.50
  -9  -1  17   41.50   34.30
  -9  -1  17   45.20   20.40
  -9   1  17   40.30   21.30
  -9   1  17   26.00   18.20
   9   1 -17   55.19   20.40
  -7  -1  17   45.20   24.40
  -7  -1  17   47.20   16.60
   7   1 -17   71.09   16.80
  -7   1  17   64.09   17.30
  -7   1  17   86.19   15.90
  -5  -1  17   55.19   14.20
  -5  -1  17   76.99   15.40
  -5  -1  17   79.79   21.20
   5   1 -17   84.19   22.00
  -5   1  17   79.69   13.10
   5   1 -17   96.29   13.80
  -5   1  17   79.59   16.30
   3  -1 -17   32.40   25.40
  -3  -1  17   12.50   10.40
  -3  -1  17   13.90    7.80
  -3  -1  17   -1.60   15.30
  -3  -1  17    2.80    9.30
  -3   1  17    8.00    9.70
  -3   1  17   15.20   10.30
   3   1 -17   28.70   17.60
  -3   1  17   16.40    8.20
  -3   1  17   13.60   15.10
   1  -1 -17   -6.20   24.50
  -1  -1  17   34.50   10.90
  -1  -1  17   68.89   16.40
   1  -1 -17   46.90   13.30
   1  -1 -17   41.20   15.70
  -1  -1  17   54.69   16.70
  -1   1  17   71.09   11.60
  -1   1  17   25.20   15.00
   1   1 -17   52.39   16.10
   1   1 -17   48.50   23.90
   1   1 -17   44.70   13.00
  -1   1  17   33.90   13.60
  -1  -1 -17  -29.50   24.60
  -1  -1 -17    2.40   12.40
   1  -1  17   -5.20    9.00
   1  -1  17    6.20   13.80
  -1  -1 -17  -22.10   15.30
  -1   1 -17   12.20   19.60
   1   1  17   -1.00   13.70
  -1   1 -17  -22.00   10.90
   1   1  17   -3.40   16.30
   1   1  17   -0.20    9.30
  -1   1 -17  -34.80   16.20
  -3  -1 -17   38.00   26.70
   3  -1  17   54.29   17.80
  -3  -1 -17   45.50   17.80
   3  -1  17   57.79   11.40
   3   1  17   56.39   18.30
  -3   1 -17    8.20   20.50
   3   1  17   24.90   12.10
  -3   1 -17   33.90   24.00
   5  -1  17   -5.10   20.00
   5  -1  17   17.00   12.60
  -5  -1 -17  -23.00   27.00
   5   1  17   -7.00   20.30
  -5   1 -17  -26.80   26.20
   5   1  17   -1.70   12.30
  -7  -1 -17   86.19   34.80
   7  -1  17   62.89   19.30
   7  -1  17   31.40   29.20
  -7  -1 -17   94.99   39.00
   7   1  17   98.99   20.70
  -7   1 -17   61.49   36.20
   9  -1  17  -26.00   20.60
  -9  -1 -17   29.20   37.40
  -9  -1 -17   30.60   48.60
  -9   1 -17   27.30   39.10
   9   1  17    3.20   20.20
  -9   1 -17  -17.50   44.80
 -10  -2  17  296.77   40.30
 -10  -2  17  321.47   48.10
 -10   2  17  271.77   37.10
 -10   2  17  244.28   33.50
  10   2 -17  214.68   32.50
  -8  -2  17   79.99   29.20
  -8  -2  17   61.69   17.90
  -8   2  17   90.19   17.80
   8   2 -17   80.19   20.50
  -8   2  17   94.49   19.60
  -6  -2  17    0.00   13.30
  -6  -2  17   13.30   22.20
  -6   2  17  -17.10   12.30
   6   2 -17    2.90   13.10
  -6   2  17    6.80   12.70
   6   2 -17   -0.20   26.00
  -4  -2  17  -20.20   16.30
  -4  -2  17    1.50   10.80
  -4  -2  17   -3.50   10.80
  -4   2  17   -6.30    8.50
   4   2 -17  -15.50    9.20
  -4   2  17    7.50   12.00
   4   2 -17  -12.20   21.20
  -4   2  17   -8.50   11.80
  -2  -2  17  217.68   28.50
  -2  -2  17  190.28   27.20
  -2  -2  17  180.78   20.80
  -2   2  17  206.88   21.20
  -2   2  17  199.18   20.20
   2   2 -17  170.78   24.40
   2   2 -17  150.48   20.40
   2   2 -17  289.27   40.20
  -2   2  17  188.98   18.90
  -2   2  17  260.27   30.50
   0  -2  17  248.78   32.00
   0  -2 -17  241.38   25.30
   0  -2  17  224.68   21.80
   0  -2  17  170.88   27.90
   0   2 -17  213.88   37.50
   0   2  17  242.88   22.20
   0   2 -17  205.48   24.80
   0   2  17  234.08   27.00
   0   2  17  268.77   33.00
   0   2 -17  210.98   28.30
  -2  -2 -17   98.89   19.60
   2  -2  17  116.29   26.60
   2  -2  17  115.99   14.90
   2  -2  17  124.99   22.20
   2   2  17  127.19   15.80
  -2   2 -17  122.39   17.80
  -2   2 -17  135.69   25.00
   2   2  17  107.59   19.30
   2   2  17  118.99   26.10
   4  -2  17  897.71   61.79
  -4  -2 -17  784.32   70.09
   4  -2  17  856.51   68.89
  -4  -2 -17  842.92   83.99
   4   2  17  836.72   61.89
   4   2  17  792.72   66.59
  -4   2 -17  908.91   76.89
  -6  -2 -17  265.17   40.60
  -6  -2 -17  230.38   48.90
   6  -2  17  306.47   30.40
   6  -2  17  275.77   37.10
  -6   2 -17  206.58   40.40
   6   2  17  260.57   30.00
  -8  -2 -17  149.69   37.00
   8  -2  17   74.09   20.50
  -8  -2 -17   79.69   50.69
  -8   2 -17   84.49   34.40
   8   2  17   65.59   20.50
  -8   2 -17   64.19   39.90
 -10  -2 -17   75.69   41.30
 -10  -2 -17  -26.90   67.89
  10  -2  17  113.79   28.40
 -10   2 -17  149.29   55.49
  10   2  17  104.59   27.60
 -10   2 -17  110.79   45.70
 -11  -3  17  -50.69   25.60
 -11  -3  17  -46.80   44.20
 -11   3  17  -19.20   25.90
 -11   3  17   28.60   24.50
  11   3 -17   23.50   24.50
  -9  -3  17  160.18   40.80
  -9  -3  17   86.29   22.90
  -9   3  17  128.49   24.80
   9   3 -17   37.80   20.60
  -9   3  17   95.59   20.60
  -7  -3  17  666.83   63.29
  -7  -3  17  620.74   51.69
  -7   3  17  586.54   52.49
  -7   3  17  761.92   52.09
   7   3 -17  658.93   51.89
  -5  -3  17  611.44   55.89
  -5  -3  17  610.84   48.90
  -5  -3  17  639.34   49.30
   5   3 -17  609.84   59.59
   5   3 -17  740.73   48.30
  -5   3  17  725.13   48.40
  -5   3  17  507.05   49.00
  -3  -3  17 1367.16   90.09
  -3  -3  17 1279.77   94.39
  -3   3  17 1386.46   89.19
  -3   3  17 1282.77   96.09
  -3   3  17 1364.16   88.49
   3   3 -17 1131.69   93.89
  -3   3  17 1256.37   89.99
  -1  -3  17  298.47   25.60
  -1  -3  17  232.78   32.90
  -1  -3  17  349.07   37.10
  -1   3  17  296.17   37.90
   1   3 -17  328.27   38.10
   1   3 -17  270.77   36.80
  -1   3  17  296.77   26.10
   1   3 -17  274.47   28.30
   1  -3  17  451.75   47.90
  -1  -3 -17  349.77   35.90
   1  -3  17  358.06   38.70
   1  -3  17  400.46   30.60
  -1   3 -17  331.57   39.70
   1   3  17  365.36   30.70
   1   3  17  365.36   34.90
  -1   3 -17  373.76   32.40
   1   3  17  350.86   44.70
  -1   3 -17  426.06   43.80
   3  -3  17  172.98   26.60
  -3  -3 -17  179.08   25.60
   3  -3  17  191.08   20.90
   3   3  17  169.78   22.00
   3   3  17  193.58   24.40
  -3   3 -17  195.68   33.20
  -3   3 -17  192.68   25.50
  -5  -3 -17  144.99   33.70
   5  -3  17  126.99   28.90
  -5  -3 -17   33.40   37.60
   5  -3  17  122.09   18.40
  -5   3 -17  101.59   31.00
   5   3  17  143.99   19.40
   7  -3  17    1.60   26.20
  -7  -3 -17  -35.70   44.70
  -7  -3 -17   15.40   31.70
   7  -3  17   -2.10   16.30
  -7   3 -17   36.60   33.30
   7   3  17    9.30   16.80
  -9  -3 -17  191.58   43.30
  -9  -3 -17   81.59   64.89
   9  -3  17  209.38   30.50
  -9   3 -17  254.07   53.39
  -9   3 -17  286.87   49.10
   9   3  17  277.47   37.00
 -10  -4  17  259.37   49.99
 -10  -4  17  143.19   28.50
 -10   4  17  183.78   30.50
 -10   4  17  143.29   26.10
  10   4 -17  121.79   28.90
  -8  -4  17  124.89   21.30
  -8  -4  17  143.89   35.90
   8   4 -17  100.99   21.50
  -8   4  17  104.79   18.70
  -8   4  17   70.09   20.80
  -6  -4  17  104.99   18.80
  -6  -4  17  156.58   30.10
   6   4 -17  106.89   18.60
  -6   4  17  135.49   17.50
  -6   4  17  136.29   19.70
  -4  -4  17   37.10   12.10
  -4  -4  17   12.70   18.10
  -4  -4  17   28.40   11.90
  -4   4  17   -5.90   12.10
  -4   4  17    0.50   10.20
  -4   4  17   -6.30   21.20
   4   4 -17   25.50   10.00
   4   4 -17  -30.40   24.80
  -4   4  17   -3.40   12.40
   2  -4 -17   46.70   29.10
  -2  -4  17   42.10   17.90
  -2  -4  17   53.69   12.90
  -2   4  17   52.39   11.10
   2   4 -17   31.20   13.70
  -2   4  17   64.79   12.80
  -2   4  17   67.09   10.60
   2   4 -17   46.00   19.90
   2   4 -17   92.39   23.70
  -2   4  17   50.59   21.00
   0  -4  17  381.16   43.80
   0  -4  17  392.26   41.80
   0  -4  17  438.76   32.90
   0   4 -17  358.06   42.50
   0   4 -17  429.36   34.30
   0   4  17  432.56   33.80
   0   4 -17  377.96   44.10
   0   4  17  415.76   49.50
   0   4 -17  433.06   44.40
  -2  -4 -17 1067.59   77.79
  -2  -4 -17  972.60   76.59
   2  -4  17 1101.79   72.99
   2  -4  17  891.91   85.79
   2  -4  17 1095.19   80.69
   2   4  17 1043.00   74.09
  -2   4 -17 1070.29   73.99
  -2   4 -17 1137.39   83.39
   4  -4  17 1154.38   83.09
   4  -4  17 1122.29   73.79
  -4  -4 -17  904.71   80.19
  -4  -4 -17 1036.70   81.99
  -4   4 -17 1036.70   85.79
   4   4  17 1001.40   74.39
  -6  -4 -17  494.95   57.39
   6  -4  17  559.54   43.60
   6  -4  17  524.05   57.39
  -6   4 -17  477.75   59.29
   6   4  17  502.05   43.90
   8  -4  17  432.16   39.90
  -8  -4 -17  327.57   48.60
   8  -4  17  361.76   50.39
   8   4  17  358.96   40.70
  -8   4 -17  288.07   53.79
 -10  -4 -17   98.79   43.10
 -10  -4 -17  -27.10   71.49
  10  -4  17   82.39   26.00
 -10   4 -17   56.79   49.80
 -10   4 -17  136.99   54.09
  10   4  17  103.29   28.00
 -11  -5  17  250.37   39.30
 -11  -5  17  340.57   60.39
 -11   5  17  265.27   39.10
  11   5 -17  219.58   35.50
  -9  -5  17  103.59   24.40
  -9  -5  17  176.08   46.70
  -9   5  17  163.18   23.90
   9   5 -17  171.08   27.80
  -9   5  17  140.09   27.50
  -7  -5  17  330.77   46.20
  -7  -5  17  404.26   38.20
  -7   5  17  453.65   38.60
   7   5 -17  398.66   37.70
  -7   5  17  404.56   38.90
   5  -5 -17 1368.46  114.69
  -5  -5  17 1520.55  103.49
  -5  -5  17 1525.45  109.29
  -5   5  17 1574.94  112.19
  -5   5  17 1309.27  103.49
  -5   5  17 1629.14  103.19
   5   5 -17 1528.85  102.59
   3  -5 -17  384.06   57.39
  -3  -5  17  319.57   37.70
  -3  -5  17  309.47   28.20
   3   5 -17  230.98   31.10
   3   5 -17  310.47   39.20
  -3   5  17  364.96   44.30
  -3   5  17  256.07   28.40
  -3   5  17  324.77   25.90
  -3   5  17  280.97   29.00
  -1  -5  17 1100.09   75.59
  -1   5  17 1025.60   74.79
  -1   5  17 1148.39   88.59
   1   5 -17 1028.20   85.19
  -1   5  17 1027.90   76.19
   1   5 -17 1140.39   83.59
   1   5 -17 1070.49   83.29
  -1   5  17 1179.48   74.99
   1   5 -17 1107.59   76.69
   1  -5  17  353.96   29.10
   1  -5  17  322.67   38.90
  -1   5 -17  373.96   40.30
  -1   5 -17  364.26   30.90
  -1   5 -17  312.37   42.50
   1   5  17  343.97   29.80
   3  -5  17   16.70   21.90
  -3  -5 -17    0.90   18.50
   3  -5  17    9.60   10.60
  -3  -5 -17    6.80   34.90
  -3  -5 -17  -16.20   16.20
  -3   5 -17    4.40   20.90
  -3   5 -17   14.20   12.90
   3   5  17    0.00   11.90
   5  -5  17    4.10   13.00
   5  -5  17  -32.70   23.00
  -5  -5 -17  -18.20   22.60
  -5  -5 -17   26.80   42.60
   5   5  17   12.80   14.90
  -5   5 -17  -12.60   23.50
  -7  -5 -17  189.58   37.30
   7  -5  17  181.48   36.10
   7  -5  17  181.38   23.90
  -7   5 -17  160.78   38.20
   7   5  17  139.79   24.30
  -9  -5 -17  207.88   45.60
   9  -5  17  201.08   44.30
   9  -5  17  178.38   29.00
  -9  -5 -17   74.69   68.09
   9   5  17  257.87   32.20
  -9   5 -17  192.98   48.70
 -10  -6  17  298.37   54.59
 -10  -6  17  211.08   33.50
 -10   6  17  261.57   34.70
  10   6 -17  258.07   35.90
 -10   6  17  221.88   31.20
  -8  -6  17  377.96   48.60
  -8  -6  17  281.37   36.20
  -8   6  17  343.37   34.30
  -8   6  17  269.47   35.50
   8   6 -17  244.28   35.90
   6  -6 -17   24.70   30.50
  -6  -6  17  -14.20   15.60
  -6  -6  17   32.70   29.50
  -6   6  17   41.00   14.30
  -6   6  17   28.40   16.40
  -6   6  17  -41.50   34.70
   6   6 -17   21.80   13.40
   4  -6 -17   28.60   32.60
  -4  -6  17    9.00   12.10
  -4  -6  17   -6.20   22.00
  -4  -6  17   10.30   14.40
   4   6 -17  -11.60   10.30
  -4   6  17   -5.10   10.30
  -4   6  17   13.50   29.10
  -4   6  17   -5.10   13.70
  -2  -6  17   60.89   21.90
  -2  -6  17   79.19   13.20
  -2   6  17   68.99   11.70
   2   6 -17   68.39   22.00
  -2   6  17   53.69   14.40
  -2   6  17   61.79   12.80
  -2   6  17   57.39   26.80
   2   6 -17   19.90   14.10
   0  -6  17 1080.19   75.19
   0  -6 -17 1094.79   74.59
   0  -6  17 1061.69   84.09
   0   6 -17 1070.59   83.39
   0   6  17 1059.99   76.49
   0   6 -17 1155.28   76.19
   0   6  17 1142.89   74.99
   0   6 -17 1018.60   84.69
   2  -6  17  745.23   55.59
   2  -6  17  806.12   66.79
  -2  -6 -17  793.22   60.29
  -2   6 -17  800.52   66.79
   2   6  17  704.03   56.99
  -2   6 -17  839.02   56.79
  -4  -6 -17  832.62   65.59
   4  -6  17  800.42   55.69
   4  -6  17  740.83   68.79
  -4  -6 -17  618.84   63.19
  -4   6 -17  841.12   57.49
   4   6  17  727.33   57.59
  -4   6 -17  769.42   69.19
  -6  -6 -17  831.72   86.79
   6  -6  17 1195.88   74.19
   6  -6  17 1020.20   86.19
  -6   6 -17  983.50   89.89
   6   6  17  951.70   74.39
  -8  -6 -17  466.25   66.09
   8  -6  17  467.95   42.50
   8  -6  17  398.26   61.29
  -8   6 -17  432.56   70.49
   8   6  17  424.66   46.70
 -10  -6 -17  355.36   58.59
  10  -6  17  448.36   46.90
 -10   6 -17  309.77   74.19
  10   6  17  294.57   40.80
 -10   6 -17  295.17   62.79
  -9  -7  17  235.08   49.20
  -9  -7  17  185.38   28.60
  -9   7  17  198.98   30.80
  -9   7  17  187.88   27.70
   9   7 -17  238.18   31.60
  -7  -7  17  719.33   69.59
  -7  -7  17  671.13   53.89
  -7   7  17  576.64   53.89
  -7   7  17  648.84   52.39
   7   7 -17  654.33   52.79
  -5  -7  17  316.67   44.60
  -5  -7  17  262.87   30.20
   5  -7 -17  321.17   51.79
  -5   7  17  282.07   31.80
   5   7 -17  251.27   27.70
  -5   7  17  288.87   29.00
   3  -7 -17 1071.59  113.29
  -3  -7  17 1220.08   90.89
  -3  -7  17 1289.47   83.09
  -3   7  17 1234.08   82.09
  -3   7  17 1189.68  106.39
  -3   7  17 1243.88   83.49
   3   7 -17  969.20   83.99
  -1  -7  17  546.25   40.60
   1  -7 -17  470.15   40.50
  -1  -7  17  541.25   54.29
   1  -7 -17  759.82   83.29
   1   7 -17  528.15   49.80
   1   7 -17  611.14   42.90
  -1   7  17  535.95   42.10
   1   7 -17  480.15   53.69
  -1   7  17  513.65   40.40
  -1  -7 -17  152.68   20.60
   1  -7  17  207.38   31.20
  -1   7 -17  212.38   33.40
   1   7  17  209.58   20.70
   1   7  17  202.28   22.90
  -1   7 -17  182.18   34.70
  -1   7 -17  214.58   23.40
   3  -7  17  294.87   42.30
  -3  -7 -17  321.17   35.10
  -3  -7 -17  324.47   37.70
  -3   7 -17  253.67   28.40
  -3   7 -17  247.78   40.50
   3   7  17  251.07   28.90
   5  -7  17   39.60   13.90
  -5  -7 -17   21.10   43.50
   5  -7  17   10.90   26.90
  -5  -7 -17   60.49   26.40
  -5   7 -17   74.49   26.40
   5   7  17   54.89   17.10
  -7  -7 -17   18.30   30.80
   7  -7  17   -6.10   32.10
   7  -7  17   13.30   16.90
  -7  -7 -17   62.99   54.89
  -7   7 -17   41.30   33.00
   7   7  17    6.10   18.70
  -9  -7 -17  114.39   41.60
   9  -7  17  109.29   24.60
   9  -7  17   87.79   41.20
  -9  -7 -17   50.89   71.69
  -9   7 -17  125.39   46.40
   9   7  17  102.49   27.20
 -10  -8  17  406.16   65.29
 -10  -8  17  441.16   54.49
  10   8 -17  412.46   48.50
 -10   8  17  366.06   47.90
 -10   8  17  392.66   49.60
  -8  -8  17   42.50   40.20
  -8  -8  17   48.20   21.10
   8   8 -17   23.00   21.10
  -8   8  17   62.99   19.90
  -8   8  17    0.80   21.50
  -6  -8  17    3.80   16.30
   6  -8 -17   44.90   33.70
  -6  -8  17   43.30   33.70
  -6   8  17   -6.30   17.50
   6   8 -17   28.30   16.20
  -6   8  17   -5.90   14.20
  -4  -8  17   33.80   27.80
  -4  -8  17   48.90   14.90
   4  -8 -17  -57.39   36.90
  -4  -8  17    2.20   16.10
  -4   8  17   16.40   14.70
  -4   8  17   19.30   12.60
   4   8 -17   24.50   12.40
  -2  -8  17  331.17   30.30
  -2  -8  17  335.47   45.20
   2  -8 -17  419.56   67.19
  -2   8  17  339.57   31.50
   2   8 -17  355.96   38.80
   2   8 -17  286.87   31.80
  -2   8  17  356.96   30.20
   0  -8 -17  161.58   45.90
   0  -8 -17  186.28   23.20
   0  -8  17  195.38   30.60
   0   8 -17  237.68   33.10
   0   8  17  220.78   24.70
   0   8 -17  214.58   24.00
   0   8 -17  165.48   35.30
   0   8  17  206.08   22.40
  -2  -8 -17  449.76   39.10
   2  -8  17  558.84   53.69
  -2   8 -17  577.24   52.49
   2   8  17  510.55   42.10
  -4  -8 -17  395.66   49.80
   4  -8  17  553.54   58.89
  -4  -8 -17  517.55   50.49
   4   8  17  498.25   42.80
  -4   8 -17  569.74   55.19
   6  -8  17  225.48   39.40
  -6  -8 -17   10.20   53.49
  -6  -8 -17  164.48   33.10
   6   8  17  157.08   23.90
  -6   8 -17  142.99   34.90
   8  -8  17  216.48   47.10
   8  -8  17  263.37   31.30
  -8  -8 -17  328.17   49.00
  -8   8 -17  341.07   53.69
   8   8  17  221.68   33.10
  -9  -9  17  339.67   56.19
  -9  -9  17  296.17   40.20
   9   9 -17  289.87   37.00
  -9   9  17  292.77   40.00
  -9   9  17  229.28   36.70
  -7  -9  17    2.80   19.20
   7  -9 -17   26.70   35.70
  -7  -9  17   41.50   38.90
  -7   9  17    9.50   16.90
   7   9 -17   52.29   20.80
  -7   9  17   14.90   20.80
  -5  -9  17  400.76   54.89
  -5  -9  17  395.66   38.20
   5  -9 -17  406.96   65.49
   5   9 -17  416.06   37.70
  -5   9  17  433.26   38.20
  -5   9  17  414.96   39.90
  -3  -9  17  213.08   34.30
  -3  -9  17  224.98   26.40
   3  -9 -17  289.47   53.49
  -3   9  17  254.07   25.30
   3   9 -17  190.18   25.50
  -3   9  17  218.18   27.10
   1  -9 -17  170.28   58.99
  -1  -9  17  145.09   29.50
  -1   9  17  150.28   20.50
  -1   9  17  128.19   18.10
   1   9 -17   62.69   30.40
   1   9 -17  161.98   26.70
   1  -9  17  360.26   49.30
   1   9  17  369.56   33.20
   1   9  17  382.06   34.90
  -1   9 -17  414.96   47.00
  -3  -9 -17   69.29   43.90
   3  -9  17  -14.20   25.50
   3   9  17    7.70   11.40
   3   9  17   10.20   14.80
  -3   9 -17  -15.90   23.80
   5  -9  17   35.60   31.10
  -5  -9 -17   34.50   26.90
  -5  -9 -17  -20.80   44.60
   5   9  17   52.99   19.40
  -5   9 -17   50.49   27.90
   7  -9  17  142.39   40.70
  -7  -9 -17   98.19   34.90
  -7  -9 -17    0.90   56.39
   7   9  17  113.09   24.90
  -7   9 -17  158.88   39.10
  -9  -9 -17  167.58   49.30
   9  -9  17  259.77   51.19
  -9  -9 -17   -5.00   73.89
   9   9  17  178.88   32.20
  -9   9 -17  195.18   50.79
  -8 -10  17   20.60   46.10
   8 -10 -17  -59.29   39.80
  -8 -10  17   22.70   22.70
   8  10 -17   15.00   22.60
  -8  10  17   21.40   21.50
  -8  10  17   -3.10   25.60
  -6 -10  17   92.19   20.80
   6 -10 -17   25.00   40.50
  -6 -10  17   57.99   37.90
  -6  10  17   61.09   17.60
   6  10 -17   77.39   20.70
   4 -10 -17  120.89   43.30
  -4 -10  17   83.29   34.60
  -4 -10  17   60.59   17.00
  -4  10  17   28.60   18.30
   4  10 -17   75.99   16.70
  -4  10  17   34.10   16.00
   2 -10 -17  -46.40   49.40
  -2 -10  17   17.20   27.80
   2  10 -17   30.70   28.70
  -2  10  17    0.30   14.50
  -2  10  17   19.70   13.50
   2  10 -17    8.00   20.00
   0 -10  17    7.70   26.80
   0 -10 -17  149.39   61.49
   0  10  17   -8.30   12.50
   0  10  17   -8.50   13.70
   0  10 -17   10.70   20.30
  -2 -10 -17  115.89   50.39
   2 -10  17  134.49   32.60
   2  10  17  126.69   18.50
  -2  10 -17  140.59   29.90
   2  10  17  131.89   20.20
  -4 -10 -17   24.80   27.90
  -4 -10 -17  -13.30   30.50
  -4 -10 -17  -30.80   48.90
   4 -10  17   40.10   30.50
   4  10  17   30.00   16.90
  -4  10 -17    8.20   27.50
   4  10  17   17.80   14.80
  -6 -10 -17  -61.79   56.49
  -6 -10 -17  138.49   36.20
   6 -10  17   76.89   36.20
  -6  10 -17  111.29   35.20
   6  10  17   82.29   24.70
  -8 -10 -17   99.49   43.60
  -8 -10 -17  -62.79   69.29
   8 -10  17   78.59   41.30
  -8  10 -17   42.30   40.20
   8  10  17   57.79   26.30
   7 -11 -17   12.90   42.20
  -7 -11  17  -21.80   45.10
  -7 -11  17   21.10   21.80
  -7  11  17   38.20   24.10
  -7  11  17   18.00   18.80
   7  11 -17   27.70   24.50
  -5 -11  17  -39.90   32.80
  -5 -11  17  -18.50   16.30
   5 -11 -17   51.49   44.80
  -5  11  17    7.10   15.60
   5  11 -17   17.60   19.80
  -5  11  17   27.10   18.80
  -3 -11  17   17.90   28.50
   3 -11 -17  -67.79   51.29
  -3  11  17   -2.10   14.50
  -3  11  17    0.10   16.30
  -1 -11  17   35.10   29.70
   1 -11 -17  -14.90   55.89
   1  11 -17   31.60   21.20
  -1  11  17   21.80   16.20
  -1  11  17   -5.60   14.00
  -1 -11 -17  -94.59   56.49
   1 -11  17   38.00   30.40
   1  11  17   31.20   15.80
  -1  11 -17    3.60   24.30
   1  11  17   -9.10   15.40
  -3 -11 -17  -55.89   51.79
   3 -11  17   39.80   29.70
  -3  11 -17   32.80   26.40
   3  11  17    2.20   15.00
   3  11  17   10.50   17.00
  -5 -11 -17   24.90   58.79
   5 -11  17   -4.70   34.40
  -5 -11 -17   43.60   32.20
  -5  11 -17   14.40   30.60
   5  11  17   26.00   18.70
   5  11  17   34.30   16.90
   7 -11  17   47.30   40.00
  -7 -11 -17   47.70   39.70
  -7 -11 -17  -32.50   67.59
  -7  11 -17   19.60   38.10
   7  11  17   24.40   20.20
   7  11  17    7.00   23.50
  -8 -12  17  -74.99   47.90
  -8 -12  17   20.50   28.30
   8 -12 -17   28.00   47.70
   8  12 -17   26.10   28.30
  -8  12  17   48.50   29.50
  -8  12  17   27.30   23.20
  -6 -12  17   -9.00   20.30
   6 -12 -17    8.00   44.90
  -6 -12  17   32.60   43.10
  -6  12  17  -27.30   20.70
  -6  12  17   30.40   19.70
   6  12 -17   40.10   23.10
  -4 -12  17   13.80   37.70
   4 -12 -17  -73.49   45.80
   4  12 -17  -16.80   17.90
  -4  12  17  -21.60   18.20
  -4  12  17   14.80   16.10
   2 -12 -17   72.79   56.89
  -2 -12  17   14.90   33.00
  -2  12  17   38.50   17.40
   2  12 -17    9.90   22.80
  -2  12  17   37.70   16.50
   0 -12  17   52.39   32.90
   0 -12 -17  -84.49   55.89
   0  12 -17   -9.20   24.50
   0  12  17    4.70   15.80
   0  12  17   12.70   16.30
  -2 -12 -17   68.69   63.69
   2 -12  17   51.39   32.00
   2  12  17   52.89   17.10
   2  12  17   87.19   19.20
  -2  12 -17   70.89   28.20
  -4 -12 -17   15.90   68.09
   4 -12  17   -4.90   33.20
   4  12  17   35.40   17.90
  -4  12 -17   57.69   31.40
   4  12  17   -0.40   20.10
   6 -12  17   38.10   37.90
  -6 -12 -17  -70.79   40.40
  -6 -12 -17   56.29   65.69
   6  12  17   39.50   24.50
  -6  12 -17   29.50   36.20
   6  12  17    7.20   18.50
  -7 -13  17  206.48   32.00
   7 -13 -17  183.68   56.89
  -7 -13  17  248.68   56.59
  -7  13  17  181.88   31.70
  -7  13  17  200.18   30.80
   7  13 -17  224.18   35.40
   5 -13 -17   84.89   50.49
  -5 -13  17  100.19   47.00
  -5  13  17   42.70   20.50
  -5  13  17   51.89   23.30
   5  13 -17   44.90   23.70
   3 -13 -17  307.87   62.79
  -3 -13  17  218.58   46.90
  -3  13  17  218.08   27.60
   3  13 -17  190.98   26.50
  -3  13  17  224.78   27.30
   3  13 -17  163.28   32.40
  -1 -13  17  256.67   46.70
   1 -13 -17  167.98   63.59
  -1  13  17  222.28   27.60
   1  13 -17  235.28   35.50
  -1  13  17  238.68   28.20
  -1 -13 -17   76.49   67.79
   1 -13  17  140.09   41.90
   1  13  17  172.88   24.00
  -1  13 -17  140.59   33.00
   1  13  17  194.38   26.50
   3 -13  17   96.79   38.20
  -3 -13 -17   39.70   68.19
   3  13  17   78.09   22.10
  -3  13 -17  119.79   33.30
   3  13  17   46.50   20.20
  -5 -13 -17  157.48   84.89
  -5 -13 -17   96.49   39.40
   5 -13  17   72.29   40.30
   5  13  17   42.90   20.50
   5  13  17   10.60   25.10
  -5  13 -17   73.69   35.60
  -6 -14  17  -45.50   45.00
   6 -14 -17   34.00   54.89
   6  14 -17    4.00   26.60
  -6  14  17   -7.10   24.50
  -6  14  17  -47.20   23.20
   4 -14 -17  -42.10   59.19
  -4 -14  17   -8.30   39.00
  -4  14  17  -22.60   22.40
  -4  14  17  -11.60   20.70
   4  14 -17  -10.10   23.00
  -2 -14  17   52.59   43.80
   2 -14 -17   -0.60   66.49
  -2  14  17   25.80   18.30
  -2  14  17   64.59   21.10
   2  14 -17   -1.60   27.30
   0 -14  17  625.24   73.39
   0 -14 -17  548.35   91.39
   0  14 -17  557.84   62.19
   0  14  17  628.74   51.39
   0  14  17  543.85   51.49
  -2 -14 -17  276.67   82.69
   2 -14  17  287.57   50.59
   2  14  17  278.67   31.90
  -2  14 -17  258.17   43.40
   2  14  17  263.97   31.00
   4 -14  17  371.96   54.39
  -4  14 -17  338.77   58.19
   4  14  17  386.36   42.90
   4  14  17  269.37   34.30
  -6 -14 -17  239.58  101.29
   5 -15 -17  625.44   89.29
  -5 -15  17  564.24   80.59
  -5  15  17  607.24   57.49
   5  15 -17  648.34   62.69
   3 -15 -17  143.29   72.99
  -3 -15  17  188.58   50.09
   3  15 -17  231.78   35.60
  -3  15  17  211.78   28.40
   1 -15 -17  455.55   90.09
  -1 -15  17  567.34   73.19
  -1  15  17  559.04   50.49
   1  15 -17  510.25   61.89
  -1  15  17  445.46   49.99
  -1 -15 -17  -68.29   64.99
   1 -15  17   32.90   45.50
   1  15  17   19.70   20.60
   1  15  17   83.79   23.10
  -1  15 -17   40.80   33.80
  -3 -15 -17  -84.49   71.29
   3 -15  17  -44.90   41.60
   3  15  17   44.70   24.50
  -3  15 -17  -47.90   34.30
   3  15  17  -25.40   23.20
   4 -16 -17   46.40   64.19
   2 -16 -17  279.47   76.69
  -2 -16  17   89.89   53.99
   2  16 -17   99.69   36.50
  -2  16  17  107.99   26.90
   0 -16 -17  165.98   88.59
   0 -16  17  247.88   53.49
   0  16  17  300.27   34.90
   0  16 -17  257.27   43.10
   0  16  17  322.97   41.80
   2 -16  17  520.65   79.19
  -2 -16 -17  515.45   95.59
  -2  16 -17  528.15   70.09
   2  16  17  594.64   55.59
   2  16  17  470.35   53.39
   1 -17 -17  200.88   78.59
 -10   0  18  144.19   26.20
 -10   0  18  146.49   27.10
  -8   0  18   12.10   17.30
  -8   0  18   17.20   16.80
  -6   0  18   10.70   12.30
  -6   0  18    9.10   14.00
  -4   0  18 1393.26   90.19
  -4   0  18 1295.17   92.09
  -4   0  18 1259.97   90.69
   2   0 -18   91.09   20.90
  -2   0  18  116.69   17.00
  -2   0  18  113.99   21.00
  -2   0  18  134.39   20.60
   0   0  18  662.33   54.79
   0   0 -18  554.94   49.30
   0   0  18  578.44   44.10
   0   0  18  569.64   48.00
  -2   0 -18 1424.46  110.19
   2   0  18 1538.85  105.09
  -2   0 -18 1668.13  119.19
   2   0  18 1540.95  109.29
   4   0  18  491.35   53.59
  -4   0 -18  590.44   64.99
   4   0  18  667.03   47.20
  -6   0 -18 1118.59  100.49
   6   0  18 1136.29   80.09
   6   0  18 1025.30   87.79
  -8   0 -18  110.59   46.90
  -8   0 -18  173.18   44.90
   8   0  18  147.29   25.30
 -10   0 -18   42.30   57.19
  10   0  18   -6.10   24.40
 -10   0 -18   -4.00   45.50
 -11  -1  18  474.05   73.29
 -11  -1  18  392.06   49.99
 -11   1  18  436.96   52.69
 -11   1  18  397.86   50.09
  -9  -1  18  462.15   47.30
   9   1 -18  484.15   47.70
  -9   1  18  529.45   47.90
  -9   1  18  564.44   48.30
  -7  -1  18  712.63   65.49
  -7  -1  18  642.14   53.29
  -7   1  18  567.84   53.29
   7   1 -18  696.43   53.19
  -7   1  18  758.42   52.99
  -5  -1  18  806.42   60.29
  -5  -1  18  826.72   58.49
  -5  -1  18  791.72   64.69
   5   1 -18  902.51   67.09
  -5   1  18  742.83   60.29
  -5   1  18  822.92   58.79
  -3  -1  18  135.09   17.30
  -3  -1  18  114.89   21.40
  -3  -1  18   83.19   18.00
  -3   1  18   71.39   15.80
  -3   1  18  121.89   16.00
  -3   1  18  113.79   19.60
  -1  -1  18  162.78   22.80
  -1  -1  18  148.29   19.10
   1  -1 -18  162.88   22.40
  -1  -1  18  177.68   29.00
   1   1 -18   88.29   29.80
   1   1 -18  138.69   23.90
  -1   1  18  146.09   20.00
  -1   1  18  145.79   23.30
  -1   1  18  160.78   19.50
   1  -1  18   40.30   15.60
  -1  -1 -18  -39.20   27.20
   1  -1  18   32.70   11.30
   1  -1  18   45.00   22.70
  -1  -1 -18   35.50   17.10
   1   1  18   40.50   12.00
  -1   1 -18   21.30   20.40
  -1   1 -18   71.99   23.20
   1   1  18   12.70   21.40
   1   1  18   32.00   15.40
   3  -1  18    8.40   18.30
  -3  -1 -18   -9.10   27.40
   3  -1  18   11.70   11.10
   3   1  18   -2.50   10.60
   3   1  18    6.10   17.00
  -3   1 -18   -0.50   25.00
  -5  -1 -18  176.78   41.10
   5  -1  18  173.28   31.50
   5  -1  18  202.08   25.00
   5   1  18  186.78   23.10
  -5   1 -18  167.58   37.90
   5   1  18  173.78   31.40
  -7  -1 -18  455.15   75.69
   7  -1  18  486.55   45.30
  -7  -1 -18  539.65   59.99
   7  -1  18  453.75   58.29
  -7   1 -18  438.86   72.29
   7   1  18  476.85   44.70
   9  -1  18  694.13   58.39
  -9  -1 -18  696.73  102.99
  -9  -1 -18  531.45   82.09
  -9   1 -18  733.83   96.99
  -9   1 -18  512.45   71.29
   9   1  18  701.23   58.69
 -10  -2  18  102.09   27.00
 -10  -2  18  226.48   45.80
 -10   2  18  129.69   27.80
 -10   2  18  180.08   28.10
  10   2 -18   92.89   27.10
  -8  -2  18   32.10   17.20
  -8  -2  18   58.59   32.10
  -8   2  18   56.39   18.50
   8   2 -18   32.60   18.20
  -8   2  18   32.10   19.70
  -6  -2  18  320.07   41.20
  -6  -2  18  305.47   30.30
   6   2 -18  277.47   40.20
   6   2 -18  272.57   30.30
  -6   2  18  328.57   31.40
  -6   2  18  252.67   29.80
  -4  -2  18   58.89   14.20
  -4  -2  18   69.99   22.90
  -4  -2  18   66.59   15.00
   4   2 -18   52.49   24.70
  -4   2  18   89.19   12.70
  -4   2  18   62.39   15.00
  -4   2  18   78.99   16.00
   4   2 -18   61.09   12.20
  -2  -2  18 1103.49   82.49
  -2  -2  18 1188.08   83.39
  -2  -2  18 1072.79   78.69
  -2   2  18 1240.28   79.49
   2   2 -18  978.20   83.39
  -2   2  18 1186.78   85.39
   0  -2 -18 1038.40   77.49
   0  -2  18 1026.20   73.79
   0  -2  18 1097.49   78.79
   0  -2  18 1096.49   81.09
   0   2 -18 1190.68   85.89
   0   2  18 1167.88   74.59
   0   2  18 1040.40   82.39
   0   2 -18  974.50   75.49
   0   2  18  992.10   76.29
   0   2 -18  976.00   79.29
   2  -2  18  188.08   20.90
   2  -2  18  232.88   29.00
  -2  -2 -18  163.78   25.60
  -2   2 -18  125.09   26.80
   2   2  18  212.58   22.10
   2   2  18  201.08   28.80
  -2   2 -18  222.18   34.70
  -4  -2 -18  953.70  105.49
   4  -2  18 1269.97   84.19
   4  -2  18 1152.98   91.29
   4   2  18 1181.88   89.39
  -4   2 -18 1285.27   99.29
   4   2  18 1231.58   84.49
   6  -2  18  108.19   19.90
   6  -2  18  137.29   31.30
  -6  -2 -18   96.59   46.10
  -6  -2 -18  117.69   37.50
  -6   2 -18  151.98   36.70
   6   2  18  132.89   21.50
  -8  -2 -18   84.69   57.89
  -8  -2 -18  133.09   40.70
   8  -2  18  113.99   23.20
   8   2  18   96.09   22.70
  -8   2 -18   97.49   35.90
  -8   2 -18  144.79   47.50
 -10  -2 -18   13.60   42.50
  10  -2  18   33.50   26.90
 -10  -2 -18   16.50   68.59
  10   2  18  -13.30   24.40
 -10   2 -18   31.60   45.70
 -10   2 -18   -5.70   55.59
  -9  -3  18  345.37   47.80
  -9  -3  18  279.87   36.70
  -9   3  18  262.67   38.90
  -9   3  18  342.27   39.70
   9   3 -18  327.37   38.20
  -7  -3  18  442.36   58.39
  -7  -3  18  407.06   41.00
  -7   3  18  495.15   41.20
   7   3 -18  507.95   41.10
  -7   3  18  453.15   41.90
  -5  -3  18  148.89   27.50
  -5  -3  18  131.29   19.90
  -5   3  18  136.19   20.50
  -5   3  18  155.08   17.80
   5   3 -18  103.89   29.70
   5   3 -18  145.89   20.50
  -3  -3  18  947.41   71.79
  -3  -3  18  990.90   66.99
  -3   3  18  911.81   66.99
   3   3 -18  822.72   72.89
  -3   3  18  916.21   64.89
  -3   3  18  895.71   65.79
  -3   3  18 1007.10   74.29
  -1  -3  18   95.89   13.80
   1  -3 -18    6.70   30.60
  -1  -3  18   64.79   19.40
  -1   3  18   60.09   13.30
   1   3 -18  123.49   26.30
   1   3 -18   44.10   21.70
   1   3 -18   32.50   15.70
  -1   3  18   82.19   23.00
   1  -3  18   37.50   17.00
  -1  -3 -18   -1.40   16.70
   1  -3  18   18.20   10.50
  -1  -3 -18    5.90   32.20
   1  -3  18   28.80   28.20
  -1   3 -18   18.40   21.10
   1   3  18   15.40   11.00
  -1   3 -18    9.40   21.50
  -1   3 -18    7.30   13.70
   1   3  18   16.50   14.90
  -3  -3 -18   -5.00   20.50
   3  -3  18   72.79   13.60
   3  -3  18   60.99   20.90
  -3  -3 -18  -40.10   32.90
   3   3  18   41.50   14.10
   3   3  18   30.40   18.10
  -3   3 -18   -2.50   23.80
   5  -3  18  443.96   36.30
   5  -3  18  379.66   47.90
  -5  -3 -18  372.66   54.29
   5   3  18  383.36   35.40
  -5   3 -18  305.67   56.59
   7  -3  18  143.29   35.70
  -7  -3 -18  208.78   40.40
  -7  -3 -18   42.60   52.59
   7  -3  18  180.28   24.10
  -7   3 -18  136.39   41.10
   7   3  18  129.09   23.20
   9  -3  18  302.67   35.00
  -9  -3 -18  219.08   48.20
  -9   3 -18  289.57   57.19
   9   3  18  288.27   35.60
  -9   3 -18  268.87   49.99
 -10  -4  18   79.39   48.40
 -10  -4  18  118.49   28.60
  10   4 -18  129.19   27.40
 -10   4  18   98.59   29.40
 -10   4  18  115.49   24.40
  -8  -4  18  -25.80   33.80
  -8  -4  18  -12.10   17.70
  -8   4  18    7.30   16.60
   8   4 -18    8.20   18.60
  -8   4  18   19.60   19.40
  -6  -4  18    6.30   15.00
  -6  -4  18   -0.10   25.10
  -6   4  18   -4.00   13.20
   6   4 -18  -10.10   13.20
  -6   4  18  -27.30   16.10
  -4  -4  18   -0.50   12.90
  -4  -4  18   -0.40   14.00
  -4  -4  18   -3.20   19.10
   4  -4 -18  -52.59   35.20
  -4   4  18    8.10   11.00
   4   4 -18    1.30   10.90
  -4   4  18   -6.40   22.30
  -4   4  18   13.80   14.00
   4   4 -18   18.20   29.10
  -2  -4  18  150.28   19.50
  -2  -4  18  131.39   24.70
   2  -4 -18   61.49   34.00
  -2   4  18  132.39   26.80
   2   4 -18  139.89   27.20
  -2   4  18  132.49   17.10
  -2   4  18  147.29   17.00
  -2   4  18  150.38   18.60
   2   4 -18  127.39   28.20
   0  -4  18  157.98   24.40
   0  -4  18  162.68   19.50
   0  -4  18  212.78   28.90
   0   4 -18  116.99   25.30
   0   4 -18  167.98   29.00
   0   4 -18  128.19   19.30
   0   4  18  111.99   31.20
   0   4  18  156.78   20.10
   0   4 -18  111.49   28.90
   2  -4  18  193.58   20.80
   2  -4  18  169.78   27.60
  -2  -4 -18  167.28   23.80
  -2  -4 -18  240.78   29.10
  -2   4 -18  143.49   21.30
   2   4  18  218.68   23.50
  -2   4 -18  178.58   30.90
   4  -4  18   84.89   25.70
   4  -4  18   62.09   15.30
  -4  -4 -18  124.29   28.60
  -4  -4 -18   25.20   26.80
  -4   4 -18  106.09   28.90
   4   4  18   84.29   16.40
  -6  -4 -18  146.69   34.70
   6  -4  18   80.09   31.20
   6  -4  18  183.48   22.40
  -6   4 -18   98.19   34.60
   6   4  18  139.09   21.70
  -8  -4 -18  -81.89   56.59
  -8  -4 -18   69.49   38.30
   8  -4  18  -13.70   34.80
   8  -4  18   20.10   20.80
   8   4  18   55.39   21.10
  -8   4 -18  -20.90   40.10
 -10  -4 -18  -75.19   72.99
 -10  -4 -18   27.20   46.10
  10  -4  18    4.90   26.30
 -10   4 -18   58.89   53.99
  10   4  18   33.40   28.30
  -9  -5  18   38.10   20.50
  -9  -5  18   -8.90   38.70
   9   5 -18  -13.20   22.80
  -9   5  18  -17.50   23.00
  -9   5  18   14.00   19.40
  -7  -5  18   46.10   33.60
  -7  -5  18   -6.40   17.00
  -7   5  18   -6.30   14.80
   7   5 -18    2.40   16.70
  -7   5  18  -11.50   18.10
  -5  -5  18   64.89   16.00
   5  -5 -18   62.49   35.60
  -5  -5  18   80.49   27.90
  -5   5  18   42.90   28.20
  -5   5  18   71.99   15.10
  -5   5  18   94.69   17.90
   5   5 -18   86.59   15.70
  -3  -5  18    4.70   20.20
   3  -5 -18  -31.30   44.80
  -3  -5  18   33.00   13.60
  -3   5  18    8.40    9.50
  -3   5  18   -1.60   13.40
  -3   5  18    6.10   12.90
  -3   5  18    8.60   26.00
  -1  -5  18   22.20   18.90
   1  -5 -18   23.00   33.70
  -1  -5  18   18.10   10.80
   1   5 -18  -16.70   19.90
  -1   5  18   17.20   12.10
   1   5 -18   11.00   20.00
  -1   5  18   13.00   11.20
  -1   5  18   24.90    8.90
  -1   5  18   33.80   28.10
   1   5 -18    7.70   14.80
   1  -5  18    6.30   10.60
  -1  -5 -18  -24.50   35.20
   1  -5  18   18.70   19.70
  -1   5 -18    4.90   18.40
  -1   5 -18   36.50   24.90
  -1   5 -18   31.80   14.10
   1   5  18   -8.90   11.40
  -3  -5 -18  -35.40   37.20
   3  -5  18   39.80   23.60
  -3  -5 -18   89.29   22.40
   3  -5  18   64.49   13.70
  -3  -5 -18   75.69   21.90
   3   5  18   59.99   15.40
  -3   5 -18   48.70   24.50
  -3   5 -18   53.09   27.00
   5  -5  18   35.00   14.70
  -5  -5 -18   -3.70   24.10
   5  -5  18    0.20   26.80
  -5  -5 -18    8.50   44.50
  -5   5 -18   35.00   26.60
   5   5  18    4.30   15.00
  -7  -5 -18    4.80   53.69
   7  -5  18   24.10   31.90
  -7  -5 -18   44.80   32.50
   7  -5  18   53.39   18.40
  -7   5 -18   20.30   32.80
   7   5  18   18.30   19.60
  -9  -5 -18  -46.00   67.79
   9  -5  18   65.39   40.00
  -9  -5 -18   56.69   40.50
   9  -5  18   74.99   24.60
   9   5  18   77.19   25.10
  -9   5 -18   32.10   43.70
 -10  -6  18   67.09   25.50
 -10  -6  18  177.68   53.19
 -10   6  18   77.79   23.60
 -10   6  18   68.09   29.70
  10   6 -18   67.69   27.60
  -8  -6  18   18.10   21.20
  -8  -6  18  -24.80   35.20
  -8   6  18   -4.80   21.50
  -8   6  18   12.60   17.10
   8   6 -18    0.70   19.70
  -6  -6  18  -30.00   27.70
  -6  -6  18   25.40   15.80
   6  -6 -18   37.70   33.20
   6   6 -18   13.70   16.00
  -6   6  18   15.90   35.70
  -6   6  18    3.00   18.10
  -6   6  18  -18.30   14.20
   4  -6 -18   21.00   35.80
  -4  -6  18   -9.70   23.60
  -4  -6  18    3.20   13.70
   4   6 -18   -0.60   10.90
  -4   6  18    9.50   15.00
  -4   6  18   27.70   11.80
  -4   6  18   31.50   30.70
  -2  -6  18   47.80   13.90
  -2  -6  18   86.99   22.70
   2  -6 -18   66.99   53.49
  -2   6  18   54.89   14.80
   2   6 -18   68.99   22.40
  -2   6  18   67.69   12.20
  -2   6  18   73.69   15.90
   2   6 -18   49.99   21.40
  -2   6  18   18.40   32.00
   0  -6 -18  -20.00   35.20
   0  -6  18   -8.50   20.00
   0  -6  18   -7.40   10.80
   0  -6 -18   12.20   10.40
   0   6  18    9.90    9.20
   0   6 -18   -8.60   18.30
   0   6 -18   20.90   14.40
   0   6  18    8.60   12.10
   0   6 -18    9.30   25.70
   2  -6  18   22.40   21.10
  -2  -6 -18   17.80   17.80
   2  -6  18  -23.60   10.80
  -2  -6 -18  -15.50   36.90
   2   6  18   24.20   12.90
  -2   6 -18   -4.30   14.10
  -2   6 -18   23.10   22.50
   4  -6  18   26.50   12.40
   4  -6  18   53.79   26.30
  -4  -6 -18   41.70   23.00
  -4  -6 -18   26.00   39.80
  -4  -6 -18   40.50   27.20
   4   6  18   34.00   14.80
  -4   6 -18   21.90   27.10
  -6  -6 -18   27.60   31.20
   6  -6  18    6.10   16.30
  -6  -6 -18   63.79   50.49
   6  -6  18    4.30   29.00
   6   6  18    5.60   17.30
  -6   6 -18  -19.70   28.40
  -8  -6 -18    3.50   35.80
   8  -6  18   30.40   36.70
  -8  -6 -18   22.30   67.79
   8  -6  18   15.50   19.60
   8   6  18   11.70   22.80
  -8   6 -18    7.90   36.90
  -9  -7  18  126.49   26.30
  -9  -7  18   49.70   45.50
   9   7 -18  108.69   27.80
  -9   7  18   70.69   23.00
  -9   7  18   80.29   27.50
  -7  -7  18  118.49   38.70
  -7  -7  18   86.19   21.80
   7  -7 -18  108.19   37.10
   7   7 -18  119.69   22.80
  -7   7  18  108.39   22.90
  -7   7  18   85.79   20.10
   5  -7 -18  127.89   36.60
  -5  -7  18  120.19   19.80
  -5  -7  18   73.99   32.70
  -5   7  18   91.19   19.90
   5   7 -18   79.89   17.30
  -5   7  18  133.89   17.70
  -5   7  18   45.30   44.20
   3  -7 -18    8.70   50.39
  -3  -7  18   58.19   16.30
  -3  -7  18  100.09   29.10
  -3   7  18   84.59   17.30
  -3   7  18   94.49   15.00
  -1  -7  18   -3.20   23.80
  -1  -7  18    9.30   11.50
   1  -7 -18    7.90   13.90
  -1   7  18   23.10   13.50
  -1   7  18    8.80   10.10
   1   7 -18   17.20   24.90
   1   7 -18   38.10   16.50
   1   7 -18  -15.20   19.70
  -1  -7 -18  -11.80   11.50
   1  -7  18   12.90   10.90
   1  -7  18   21.20   22.00
  -1  -7 -18  -27.40   37.30
  -1   7 -18   -7.00   14.10
   1   7  18    7.40   10.80
   1   7  18    2.50   12.40
  -1   7 -18   21.10   20.10
   3  -7  18   10.80   11.60
  -3  -7 -18  -12.90   20.40
  -3  -7 -18  109.29   42.40
   3  -7  18   33.20   24.80
  -3  -7 -18   16.00   22.10
  -3   7 -18   17.40   23.50
  -3   7 -18  -12.20   15.60
   3   7  18  -25.50   14.10
   5  -7  18   41.10   28.60
   5  -7  18   36.20   14.90
  -5  -7 -18   26.50   48.10
  -5  -7 -18   87.39   28.40
  -5   7 -18   45.30   28.80
   5   7  18   28.70   16.90
   7  -7  18   43.10   35.70
   7  -7  18   87.69   20.20
  -7  -7 -18   24.40   57.49
  -7  -7 -18   36.30   35.90
   7   7  18   89.39   24.00
  -7   7 -18   77.49   37.70
  -9  -7 -18   38.00   70.49
  -9  -7 -18  151.18   43.90
   9  -7  18  104.79   45.30
   9  -7  18  189.88   28.70
  -9   7 -18  183.48   51.49
   9   7  18  172.48   32.00
  -8  -8  18   66.29   45.60
  -8  -8  18    7.80   21.40
  -8   8  18   20.10   24.60
  -8   8  18   77.59   19.80
   8   8 -18   24.80   21.40
  -6  -8  18   84.59   20.10
   6  -8 -18   51.59   37.60
  -6  -8  18  101.89   36.60
   6   8 -18   62.09   19.10
  -6   8  18   77.69   17.50
  -6   8  18   59.79   20.80
  -4  -8  18  161.98   21.90
  -4  -8  18  115.09   30.80
   4  -8 -18  141.99   44.60
  -4   8  18  111.19   20.50
  -4   8  18  131.69   19.00
  -2  -8  18  296.67   39.90
   2  -8 -18  358.96   65.79
  -2  -8  18  292.87   27.90
  -2   8  18  264.57   29.50
   2   8 -18  242.98   39.90
  -2   8  18  276.97   28.10
   0  -8  18  690.73   64.09
   0  -8 -18  734.53   88.49
   0  -8  18  685.13   50.09
   0   8  18  633.54   50.09
   0   8  18  681.73   52.39
   0   8 -18  559.04   71.99
   0   8 -18  687.63   60.39
   0   8 -18  755.52   52.49
  -2  -8 -18  204.78   26.70
   2  -8  18  375.06   45.00
  -2   8 -18  244.38   36.90
  -2   8 -18  271.07   29.20
   2   8  18  233.98   28.40
   4  -8  18  409.26   55.69
  -4  -8 -18  363.06   46.60
  -4   8 -18  353.46   38.10
  -4   8 -18  478.75   53.99
   4   8  18  369.86   37.20
   6  -8  18  375.66   50.09
  -6  -8 -18  268.67   41.10
  -6   8 -18  332.77   55.29
   6   8  18  312.97   36.90
  -8  -8 -18  124.09   78.09
   8  -8  18  115.09   43.50
  -8  -8 -18   70.99   38.30
  -8   8 -18   15.10   41.90
   8   8  18   48.80   25.80
  -9  -9  18  247.28   35.30
  -9  -9  18  252.27   60.09
   9   9 -18  210.78   34.10
  -9   9  18  241.78   36.10
  -9   9  18  317.67   40.70
   7  -9 -18  394.86   54.69
  -7  -9  18  415.46   57.99
  -7  -9  18  313.97   38.30
  -7   9  18  423.96   41.10
   7   9 -18  425.36   42.20
  -7   9  18  405.36   45.10
   5  -9 -18  626.84   76.49
  -5  -9  18  535.35   66.99
  -5  -9  18  580.94   49.70
  -5   9  18  600.94   48.80
  -5   9  18  609.54   51.29
   5   9 -18  637.84   49.40
  -3  -9  18  215.18   26.90
  -3  -9  18  264.27   39.80
   3  -9 -18  201.38   51.49
  -3   9  18  205.98   26.20
  -3   9  18  218.18   25.60
   1  -9 -18  306.47   70.29
  -1  -9  18  216.78   38.10
   1   9 -18  230.08   36.10
   1   9 -18  163.18   38.50
  -1   9  18  173.98   24.60
  -1   9  18  219.98   27.30
   1  -9  18  -21.40   26.80
  -1  -9 -18   79.59   44.80
   1   9  18    5.10   13.10
  -1   9 -18   30.70   22.00
   1   9  18   17.70   14.70
  -3  -9 -18   57.19   47.10
   3  -9  18   38.70   28.20
  -3   9 -18   43.00   25.00
   3   9  18   30.10   16.80
   3   9  18   35.60   13.60
  -5  -9 -18   56.29   30.20
  -5  -9 -18   54.39   51.89
   5  -9  18   80.09   35.70
  -5   9 -18  115.19   33.40
   5   9  18  127.39   23.40
  -7  -9 -18  303.27   46.80
   7  -9  18  313.57   52.59
  -7   9 -18  355.16   61.59
   7   9  18  277.27   36.30
  -8 -10  18  -29.20   45.30
   8 -10 -18  -48.00   43.30
  -8 -10  18  -36.40   23.10
  -8  10  18   36.10   26.70
   8  10 -18   -7.80   25.00
  -8  10  18  -10.60   21.90
  -6 -10  18   -0.80   35.70
   6 -10 -18   10.70   40.00
  -6 -10  18   41.40   18.70
  -6  10  18  -20.30   20.50
   6  10 -18    6.40   20.00
  -6  10  18   19.80   16.80
   4 -10 -18  279.97   53.79
  -4 -10  18  289.27   32.80
  -4 -10  18  310.87   44.90
  -4  10  18  265.67   30.60
  -4  10  18  242.88   33.90
   4  10 -18  267.17   29.50
   2 -10 -18  470.65   68.89
  -2 -10  18  371.06   54.69
  -2  10  18  351.66   33.50
   2  10 -18  303.27   36.80
  -2  10  18  383.26   36.00
   2  10 -18  335.37   55.09
   0 -10  18  460.35   55.99
   0 -10 -18  455.45   80.79
   0  10  18  454.25   38.80
   0  10 -18  428.16   50.39
   0  10  18  428.16   38.90
   2 -10  18  815.92   70.99
  -2 -10 -18  641.24   93.19
  -2  10 -18  759.12   70.49
   2  10  18  708.23   56.99
   2  10  18  713.73   55.39
  -4 -10 -18  565.04   63.19
   4 -10  18  659.53   67.29
  -4  10 -18  507.25   63.49
   4  10  18  485.45   47.40
   4  10  18  559.94   45.70
  -6 -10 -18  521.05   64.09
   6 -10  18  566.54   72.99
   6  10  18  330.07   45.50
  -8 -10 -18   71.79   73.39
   8 -10  18  115.99   47.00
  -8 -10 -18  109.79   46.80
  -8  10 -18  116.29   44.60
   8  10  18  107.29   29.00
   7 -11 -18  483.25   85.99
  -7 -11  18  558.74   53.79
  -7 -11  18  594.24   82.39
  -7  11  18  561.24   57.79
  -7  11  18  664.73   53.49
   7  11 -18  652.63   56.89
   5 -11 -18  555.04   87.09
  -5 -11  18  669.43   79.19
  -5 -11  18  614.34   53.99
  -5  11  18  660.93   56.79
   5  11 -18  804.22   58.39
  -5  11  18  665.33   54.99
  -3 -11  18  619.64   66.29
   3 -11 -18  474.25   75.79
  -3  11  18  416.76   43.90
  -3  11  18  510.45   43.20
  -1 -11  18   75.99   34.60
   1 -11 -18   -4.50   61.29
   1  11 -18   41.70   24.50
  -1  11  18    0.50   14.60
  -1  11  18   32.10   16.70
  -1 -11 -18 -101.99   62.79
   1 -11  18    7.70   29.50
   1  11  18   -7.60   14.60
  -1  11 -18    1.60   26.00
   1  11  18  -12.30   16.20
  -3 -11 -18   72.99   62.69
   3 -11  18   27.60   33.00
   3  11  18   -8.60   17.90
   3  11  18   12.70   15.80
  -3  11 -18   -7.40   29.40
   5 -11  18  249.08   47.70
  -5 -11 -18   51.29   62.09
  -5 -11 -18  201.28   41.70
  -5  11 -18  273.27   44.70
   5  11  18  152.48   28.80
   5  11  18  172.28   23.50
  -7 -11 -18   27.90   74.09
   7 -11  18  217.98   50.09
  -7 -11 -18  295.37   50.19
   7  11  18  196.78   34.10
  -7  11 -18  250.07   47.50
  -6 -12  18  340.27   56.69
  -6 -12  18  288.57   37.40
   6 -12 -18  284.87   58.89
   6  12 -18  292.67   35.80
  -6  12  18  261.87   37.80
  -6  12  18  316.17   35.70
  -4 -12  18   86.99   39.30
   4 -12 -18   60.69   53.39
   4  12 -18  156.18   24.30
  -4  12  18  129.99   24.50
  -4  12  18  103.09   21.50
  -2 -12  18  499.45   66.39
   2 -12 -18  504.25   76.89
  -2  12  18  408.06   41.50
  -2  12  18  340.27   39.50
   2  12 -18  450.35   53.09
   0 -12  18  465.75   64.19
   0 -12 -18  525.05   89.39
   0  12  18  450.45   43.70
   0  12 -18  518.85   56.39
   0  12  18  454.05   43.30
   2 -12  18  406.46   54.29
   2  12  18  404.86   41.10
  -2  12 -18  396.26   55.09
   2  12  18  325.07   38.10
   4 -12  18  902.81   88.09
  -4  12 -18  879.71   82.49
   4  12  18  811.82   67.49
   4  12  18  765.02   64.09
  -6 -12 -18  186.18   50.19
   6 -12  18  318.77   51.19
  -6 -12 -18  161.18   72.39
  -6  12 -18  253.87   49.60
   6  12  18  222.18   35.00
   6  12  18  231.28   28.50
   7 -13 -18  412.36   64.99
   5 -13 -18  115.09   60.39
  -5 -13  18  114.69   50.59
   5  13 -18  191.98   30.70
  -5  13  18  159.58   27.30
  -5  13  18  173.68   27.90
   3 -13 -18  200.78   65.49
  -3 -13  18  176.48   47.00
   3  13 -18  184.98   35.20
  -3  13  18  221.08   27.20
  -3  13  18  194.58   27.90
   1 -13 -18   92.89   61.29
  -1 -13  18  119.09   43.40
  -1  13  18  146.59   23.40
  -1  13  18  141.09   25.30
   1  13 -18  126.49   31.90
  -1 -13 -18   -6.60   65.59
   1 -13  18   39.50   38.40
   1  13  18  -13.40   19.60
  -1  13 -18  -17.50   28.00
   1  13  18    8.90   18.50
  -3 -13 -18   22.90   74.69
   3 -13  18  -12.30   38.80
  -3  13 -18   58.49   33.40
   3  13  18  -40.20   18.40
   3  13  18   14.20   21.70
  -5 -13 -18   77.89   43.90
   5 -13  18   69.99   43.10
  -5 -13 -18   51.69   81.19
   5  13  18   56.49   27.30
   5  13  18  103.39   22.90
  -5  13 -18   48.00   38.00
   6 -14 -18   45.80   58.69
   4 -14 -18  174.78   65.39
  -4 -14  18  162.58   46.80
  -4  14  18  115.49   28.10
  -4  14  18  131.99   26.30
   4  14 -18  176.18   27.80
  -2 -14  18  195.78   47.60
   2 -14 -18   43.60   68.69
  -2  14  18  145.79   24.90
  -2  14  18   75.39   23.10
   2  14 -18   86.09   33.10
   0 -14  18  310.27   53.19
   0 -14 -18  185.68   73.59
   0  14 -18  315.37   50.69
   0  14  18  273.57   38.30
   0  14  18  292.27   38.80
   2 -14  18  370.76   56.09
  -2 -14 -18  276.37   86.69
   2  14  18  376.46   41.40
   2  14  18  354.16   43.00
  -2  14 -18  395.96   61.29
  -4 -14 -18  103.79   84.99
   4 -14  18   74.69   43.70
  -4  14 -18  180.98   43.10
   4  14  18  183.18   29.60
   4  14  18  105.69   25.70
   3 -15 -18  173.68   75.89
  -3 -15  18  -11.60   50.79
  -3  15  18   79.39   26.20
  -3  15  18   72.99   23.40
  -1 -15  18   57.39   46.80
   1  15 -18   52.59   31.70
  -1  15  18   43.00   25.10
  -1  15  18   -7.30   22.00
  -1 -15 -18   13.50   69.89
   1 -15  18   25.90   43.50
  -1  15 -18   14.10   32.50
   1  15  18    1.70   23.60
  -3 -15 -18  -63.29   78.59
   3 -15  18  -24.00   44.20
  -3  15 -18  -15.60   34.60
   3  15  18    1.50   24.60
   3  15  18  -22.20   26.90
   2 -16 -18  105.69   74.29
  -2 -16  18   42.60   50.69
   2  16 -18   -7.80   34.90
  -2  16  18    8.30   25.70
  -2  16  18  -22.80   24.40
   0 -16 -18  -85.89   81.89
   0 -16  18   21.40   48.30
   0  16  18   75.19   27.20
   0  16 -18   59.79   36.60
   0  16  18   45.70   24.30
  -2 -16 -18  149.09   84.49
 -10   0  19  -27.30   20.90
 -10   0  19   13.90   26.00
  -8   0  19   -1.80   15.80
  -8   0  19    6.70   18.90
  -6   0  19   30.20   15.50
  -6   0  19   -3.80   12.90
  -4   0  19    3.00   10.20
  -4   0  19   22.50   15.70
  -4   0  19    8.70   13.60
  -2   0  19   -8.20   11.50
   2   0 -19   -4.00   19.40
   2   0 -19   -8.60   31.60
  -2   0  19   -2.70   18.00
  -2   0  19    9.00   16.10
   0   0  19    7.20   21.90
   0   0 -19  -15.60   28.70
   0   0  19   -1.60   16.00
   0   0 -19   -8.00   18.80
   0   0  19   13.60   11.60
   2   0  19   11.60   11.10
   2   0  19   -4.90   17.90
  -2   0 -19   -5.00   26.80
  -2   0 -19   10.60   22.20
  -4   0 -19   16.10   29.40
   4   0  19   20.00   22.10
   4   0  19  -11.40   13.60
   6   0  19  -10.90   27.30
   6   0  19   18.40   17.10
  -6   0 -19   21.60   34.90
  -8   0 -19   34.70   40.70
   8   0  19   -1.00   21.50
  -8   0 -19  -15.40   44.40
  -9  -1  19  201.98   30.60
  -9  -1  19  192.98   29.10
  -9   1  19  219.88   32.20
  -9   1  19  236.28   28.60
  -7  -1  19  -51.29   27.40
  -7  -1  19   -3.20   16.10
  -7  -1  19    4.00   15.20
  -7   1  19   16.20   15.20
  -7   1  19   -5.30   17.10
  -5  -1  19   23.40   22.10
  -5  -1  19   32.50   11.40
  -5  -1  19    5.80   15.10
  -5   1  19   32.20   15.60
  -5   1  19   15.80   11.80
  -3  -1  19   27.30   14.50
   3  -1 -19   40.60   30.10
  -3  -1  19   25.00   18.40
  -3   1  19   30.50   12.20
  -3   1  19   31.20   17.80
   1  -1 -19   60.99   19.30
  -1  -1  19   78.29   14.50
  -1  -1  19   73.79   19.20
  -1  -1  19   57.89   19.80
  -1   1  19   75.99   13.80
  -1   1  19   13.10   19.30
   1   1 -19   27.40   28.90
   1   1 -19   54.89   20.90
  -1  -1 -19   23.10   17.90
  -1  -1 -19   -8.10   29.30
   1  -1  19   44.20   25.10
   1  -1  19    2.50   17.30
   1  -1  19   16.40   11.00
   1   1  19    5.00   16.50
  -1   1 -19   32.20   26.00
  -1   1 -19  -18.60   22.30
   1   1  19   13.00   11.10
   3  -1  19  140.99   19.10
  -3  -1 -19   77.39   34.80
   3  -1  19   92.69   23.50
   3   1  19  110.69   23.30
   3   1  19  119.79   18.20
  -3   1 -19  153.68   36.00
   5  -1  19  157.98   20.60
  -5  -1 -19  118.49   40.30
   5  -1  19  123.59   29.20
   5   1  19  137.99   20.50
  -5   1 -19  115.79   38.00
   5   1  19  152.28   30.20
  -7  -1 -19   65.79   44.20
   7  -1  19  -34.20   31.20
  -7  -1 -19  -36.50   36.30
   7  -1  19   27.40   19.30
   7   1  19   45.10   19.80
  -7   1 -19   21.80   40.80
  -9  -1 -19   58.79   58.19
   9  -1  19  169.68   29.40
  -9  -1 -19   85.59   45.40
   9   1  19  183.28   28.50
  -9   1 -19  132.99   51.19
  -9   1 -19  141.69   56.69
 -10  -2  19   49.20   25.10
 -10  -2  19  119.59   44.40
 -10   2  19   67.79   23.90
 -10   2  19   58.49   28.40
  10   2 -19   59.79   24.90
  -8  -2  19    8.50   20.30
  -8  -2  19   57.39   37.30
  -8   2  19  -19.50   19.60
  -8   2  19    4.90   18.10
   8   2 -19   27.70   19.00
  -6  -2  19  175.68   24.20
  -6  -2  19  192.28   31.60
  -6   2  19  197.98   25.20
   6   2 -19  112.09   36.30
   6   2 -19  227.58   25.60
  -6   2  19  208.88   26.00
  -4  -2  19  219.48   31.40
  -4  -2  19  196.78   26.70
   4  -2 -19  255.77   50.29
  -4  -2  19  198.68   26.80
  -4  -2  19  212.18   23.60
   4   2 -19  243.68   33.80
  -4   2  19  256.27   27.00
  -4   2  19  243.78   24.20
  -2  -2  19  449.76   43.20
  -2  -2  19  410.86   35.10
  -2  -2  19  376.86   42.30
  -2   2  19  438.96   35.70
  -2   2  19  399.56   44.80
   2   2 -19  422.46   46.00
   0  -2  19  229.88   25.10
   0  -2 -19  272.07   32.40
   0  -2  19  270.87   35.40
   0  -2  19  277.77   43.00
   0   2 -19  236.08   32.30
   0   2  19  211.78   30.10
   0   2 -19  368.86   45.00
   0   2  19  228.18   39.50
   0   2  19  251.97   25.50
   2  -2  19  271.37   38.00
   2  -2  19  290.67   26.30
  -2  -2 -19  268.67   38.10
   2   2  19  264.87   34.20
   2   2  19  231.88   26.20
  -2   2 -19  275.27   47.30
   4  -2  19  125.69   19.20
   4  -2  19   98.59   27.50
  -4  -2 -19   24.50   39.80
   4   2  19  125.99   19.20
  -4   2 -19  150.38   34.90
   4   2  19  140.39   25.50
  -6  -2 -19  -10.50   33.90
   6  -2  19   18.60   17.90
  -6  -2 -19  -16.90   43.80
   6  -2  19   25.20   26.80
  -6   2 -19   25.60   33.90
   6   2  19  -11.40   16.30
  -8  -2 -19   57.49   58.39
  -8  -2 -19   -9.80   37.70
   8  -2  19   -0.70   22.70
  -8   2 -19   15.40   36.80
   8   2  19    0.90   20.40
  -8   2 -19  -26.20   43.70
  -9  -3  19   67.09   24.10
  -9  -3  19  132.39   44.50
  -9   3  19  101.89   25.70
   9   3 -19  111.09   26.60
  -9   3  19   47.00   20.90
  -7  -3  19  394.66   39.80
  -7  -3  19  476.45   55.29
   7   3 -19  428.46   40.90
  -7   3  19  378.76   41.40
  -7   3  19  527.25   40.60
  -5  -3  19  148.99   21.30
  -5  -3  19  172.18   28.40
  -5   3  19  175.78   24.30
   5   3 -19   64.79   32.40
   5   3 -19  178.78   21.10
  -5   3  19  169.58   22.20
   3  -3 -19   97.09   33.90
  -3  -3  19  140.09   19.50
  -3  -3  19  144.49   26.00
  -3   3  19  132.79   16.00
   3   3 -19  111.79   27.40
  -3   3  19  125.29   25.00
  -3   3  19  119.59   18.00
  -3   3  19  169.38   21.10
  -1  -3  19  111.39   24.00
  -1  -3  19  193.48   28.70
  -1  -3  19  160.28   19.20
  -1   3  19  157.58   19.70
   1   3 -19  109.49   28.00
   1   3 -19  160.78   29.00
  -1   3  19  139.99   28.50
   1  -3  19  305.57   38.60
   1  -3  19  331.57   27.70
  -1  -3 -19  249.78   35.00
  -1   3 -19  299.57   44.60
   1   3  19  285.57   33.00
   1   3  19  280.67   27.70
   3  -3  19  393.06   43.50
   3  -3  19  309.07   29.60
  -3  -3 -19  328.27   41.20
   3   3  19  281.47   38.80
  -3   3 -19  243.58   39.70
   3   3  19  295.07   29.90
   5  -3  19  434.36   54.59
  -5  -3 -19  404.06   60.69
   5  -3  19  516.45   41.10
  -5   3 -19  554.44   64.69
   5   3  19  417.56   40.60
  -7  -3 -19  267.17   45.90
   7  -3  19  303.87   45.90
   7  -3  19  293.97   37.30
   7   3  19  269.07   32.70
  -7   3 -19  281.27   51.19
  -9  -3 -19   54.99   69.69
  -9  -3 -19  236.68   48.80
   9  -3  19  285.87   33.90
   9   3  19  244.48   33.70
  -9   3 -19  272.17   57.79
  -9   3 -19  187.38   49.99
 -10  -4  19    8.80   45.30
 -10  -4  19   83.69   25.50
 -10   4  19    7.20   21.70
 -10   4  19    1.90   27.30
  10   4 -19   22.10   25.10
  -8  -4  19  112.09   23.80
  -8  -4  19  125.59   41.30
   8   4 -19  140.99   24.60
  -8   4  19   97.89   24.40
  -8   4  19  152.08   22.30
  -6  -4  19  243.38   39.30
  -6  -4  19  216.18   30.00
   6   4 -19  291.97   29.70
  -6   4  19  278.67   30.50
  -6   4  19  229.48   32.40
  -4  -4  19  701.63   48.40
   4  -4 -19  494.45   79.09
  -4  -4  19  558.44   46.50
  -4  -4  19  582.64   57.79
   4   4 -19  610.54   45.20
  -4   4  19  560.74   47.90
  -4   4  19  584.94   59.19
  -4   4  19  613.24   45.90
  -2  -4  19  533.05   46.70
  -2  -4  19  452.35   37.00
  -2   4  19  437.86   37.40
  -2   4  19  439.36   54.99
  -2   4  19  455.05   34.90
   2   4 -19  320.47   46.10
  -2   4  19  419.76   36.90
   2   4 -19  480.95   49.80
   0  -4  19 1041.80   83.59
   0  -4  19  945.31   76.89
   0  -4  19 1000.90   70.29
   0   4 -19  951.20   81.39
   0   4 -19 1082.69   82.59
   0   4  19  955.80   70.99
  -2  -4 -19  605.44   57.09
   2  -4  19  670.23   49.00
   2  -4  19  655.13   60.49
  -2   4 -19  691.53   65.99
   2   4  19  643.94   50.69
   4  -4  19  256.47   37.50
  -4  -4 -19  273.67   36.10
   4  -4  19  197.88   26.60
  -4   4 -19  162.58   37.90
   4   4  19  222.88   27.40
  -6  -4 -19  -25.80   47.50
  -6  -4 -19  112.69   33.30
   6  -4  19  112.59   19.70
   6  -4  19   84.79   32.40
  -6   4 -19  104.49   37.80
   6   4  19  103.09   21.60
   8  -4  19  -19.00   21.00
   8  -4  19   70.99   38.20
  -8  -4 -19   33.50   62.19
  -8  -4 -19  -20.80   36.50
   8   4  19   76.19   22.90
  -8   4 -19   38.70   41.70
  -9  -5  19  782.72   86.09
  -9  -5  19  597.04   61.19
  -9   5  19  780.62   60.99
  -9   5  19  742.63   63.19
   9   5 -19  751.82   62.59
  -7  -5  19  108.99   22.80
  -7  -5  19  124.39   37.10
  -7   5  19  105.99   23.70
   7   5 -19  127.69   22.90
  -7   5  19  128.29   20.10
  -5  -5  19  603.84   63.19
   5  -5 -19  593.24   70.39
  -5  -5  19  658.83   50.79
  -5   5  19  630.44   49.90
  -5   5  19  605.64   51.89
   5   5 -19  671.33   49.90
  -5   5  19  671.93   66.49
  -3  -5  19  102.29   17.70
   3  -5 -19   87.69   53.49
  -3  -5  19   76.79   25.60
  -3   5  19   56.09   29.00
  -3   5  19   73.89   13.90
  -3   5  19   89.99   17.90
  -1  -5  19  -36.40   20.30
  -1  -5  19   -1.60   11.20
   1  -5 -19   16.90   35.50
  -1   5  19   -8.10   12.00
   1   5 -19    9.80   21.80
   1   5 -19   -5.10   22.80
  -1   5  19   -7.60   12.50
   1  -5  19   69.09   25.10
  -1  -5 -19   16.90   39.20
   1  -5  19   89.29   13.70
   1   5  19   57.99   15.30
  -1   5 -19   92.19   25.70
   3  -5  19 1173.18   81.39
  -3  -5 -19 1166.48   87.79
   3  -5  19 1225.98   92.29
  -3  -5 -19 1052.29   86.99
  -3   5 -19 1126.99   93.99
   3   5  19 1166.88   82.49
   5  -5  19  597.44   44.80
  -5  -5 -19  461.05   57.99
   5  -5  19  535.15   61.69
   5   5  19  451.45   44.70
  -5   5 -19  498.75   62.39
   7  -5  19  420.76   40.90
  -7  -5 -19  310.77   48.80
   7  -5  19  401.46   60.19
  -7   5 -19  346.07   54.29
   7   5  19  321.27   41.20
  -9  -5 -19  561.64   88.09
   9  -5  19  741.43   61.19
   9  -5  19  678.93   83.29
  -9   5 -19  602.74  102.49
   9   5  19  682.13   63.19
  -8  -6  19  120.09   27.10
  -8  -6  19  204.08   47.30
   8   6 -19  202.58   29.90
  -8   6  19  170.28   24.50
  -8   6  19  190.18   29.70
   6  -6 -19   36.60   35.10
  -6  -6  19   52.29   32.70
  -6  -6  19   16.00   19.00
  -6   6  19   36.30   16.10
   6   6 -19   -0.60   15.70
  -6   6  19    5.90   18.70
  -6   6  19   17.20   34.60
   4  -6 -19  529.85   78.49
  -4  -6  19  587.44   48.50
  -4  -6  19  515.55   59.49
  -4  -6  19  540.35   47.40
  -4   6  19  605.64   48.50
   4   6 -19  637.54   45.60
  -4   6  19  639.14   46.20
  -4   6  19  619.54   70.99
  -2  -6  19 1002.30   88.89
  -2  -6  19 1103.29   78.79
   2   6 -19 1044.20   86.99
   2   6 -19 1149.89   88.09
  -2   6  19 1224.38   78.09
  -2   6  19 1146.99   79.79
   0  -6  19  678.63   51.09
   0  -6  19  751.72   64.99
   0   6 -19  700.33   61.89
   0   6 -19  602.34   67.99
   0   6  19  719.73   52.99
   2  -6  19  827.42   71.19
   2  -6  19  822.82   58.89
  -2   6 -19  851.11   73.39
   2   6  19  747.53   60.19
   4  -6  19  204.48   37.00
  -4  -6 -19  187.48   32.60
   4  -6  19  215.58   27.30
   4   6  19  272.87   29.10
  -4   6 -19  287.47   46.90
   6  -6  19    4.30   17.20
   6  -6  19  -11.20   32.30
  -6  -6 -19  -24.00   53.59
  -6  -6 -19   26.30   31.60
   6   6  19    0.20   18.50
  -6   6 -19   20.00   31.70
   8  -6  19    6.50   37.20
  -8  -6 -19   11.20   68.19
   8  -6  19   68.29   22.50
  -8  -6 -19   69.09   38.80
  -8   6 -19   59.09   43.00
   8   6  19   -5.80   23.50
  -9  -7  19  213.28   32.10
  -9  -7  19  159.08   52.29
  -9   7  19  198.18   33.70
  -9   7  19  208.38   30.80
   9   7 -19  186.88   32.40
  -7  -7  19  346.37   37.40
  -7  -7  19  289.77   48.70
  -7   7  19  300.17   36.30
   7   7 -19  330.87   37.80
  -7   7  19  336.57   40.60
   5  -7 -19  184.58   42.10
  -5  -7  19  143.09   23.30
  -5  -7  19  158.28   38.50
  -5   7  19  179.38   21.80
  -5   7  19  198.98   25.40
   5   7 -19  151.58   22.50
  -3  -7  19   78.19   29.90
  -3  -7  19   69.89   17.60
   3  -7 -19  -95.69   53.89
  -3   7  19   79.89   15.80
  -3   7  19   76.69   18.80
  -1  -7  19  -21.50   11.40
   1  -7 -19  116.49   52.99
  -1  -7  19    7.00   25.50
   1   7 -19  -41.20   27.80
  -1   7  19    0.70   13.50
  -1   7  19   -4.80   10.90
   1   7 -19   29.40   22.00
   1  -7  19  381.26   47.60
   1  -7  19  401.56   32.60
  -1   7 -19  344.67   48.10
   1   7  19  402.96   34.50
  -1   7 -19  319.97   38.20
   1   7  19  382.96   32.50
   3  -7  19  234.88   36.90
  -3  -7 -19  168.58   29.90
   3  -7  19  224.88   25.20
  -3  -7 -19  217.08   33.00
  -3   7 -19  191.08   36.90
   3   7  19  198.98   25.60
   5  -7  19  745.53   70.49
   5  -7  19  617.64   52.19
  -5  -7 -19  636.94   66.19
  -5   7 -19  594.04   69.89
   5   7  19  643.74   53.59
   7  -7  19  133.49   43.60
   7  -7  19  237.78   28.70
  -7  -7 -19  188.08   42.90
  -7   7 -19  279.17   49.50
   7   7  19  246.58   32.40
  -8  -8  19   76.99   46.70
  -8  -8  19   18.30   23.30
  -8   8  19   -4.80   24.00
  -8   8  19    5.90   19.60
   8   8 -19    4.90   22.90
   6  -8 -19  289.87   51.19
  -6  -8  19  312.37   36.20
  -6  -8  19  394.16   56.99
  -6   8  19  323.27   39.70
  -6   8  19  295.37   35.00
   6   8 -19  346.67   36.10
   4  -8 -19  380.66   54.39
  -4  -8  19  240.78   40.10
  -4  -8  19  239.18   33.30
  -4   8  19  320.97   29.70
  -4   8  19  272.77   33.40
  -2  -8  19  472.45   38.40
  -2  -8  19  503.25   55.19
   2  -8 -19  399.36   74.69
   2   8 -19  506.75   50.09
  -2   8  19  507.15   40.50
  -2   8  19  360.76   38.00
   0  -8  19 1022.70   86.09
   0  -8  19 1017.50   72.29
   0  -8 -19  903.41  106.89
   0   8 -19 1116.39   84.89
   0   8 -19 1037.90   76.39
   0   8  19 1065.79   72.79
   0   8  19  974.10   74.19
   2  -8  19  237.48   36.70
  -2   8 -19  179.08   24.20
   2   8  19  165.18   23.40
  -2   8 -19  245.68   42.30
   2   8  19  195.08   25.00
   4  -8  19  351.56   45.70
  -4  -8 -19  264.17   36.70
  -4   8 -19  354.96   51.99
   4   8  19  281.57   33.70
  -6  -8 -19   31.40   60.09
  -6  -8 -19   51.19   32.70
   6  -8  19   -0.70   36.50
   6   8  19   34.40   20.10
  -6   8 -19  -38.70   32.20
  -8  -8 -19  -55.79   74.59
  -8  -8 -19    1.60   39.40
   8  -8  19   10.40   41.90
  -8   8 -19   49.70   44.10
   8   8  19   10.60   25.30
  -7  -9  19   95.89   45.20
  -7  -9  19  189.18   27.60
   7  -9 -19  124.39   46.90
  -7   9  19  192.98   31.30
   7   9 -19  207.18   29.30
  -7   9  19  198.38   27.30
  -5  -9  19   79.99   21.10
  -5  -9  19   70.59   37.70
   5  -9 -19   49.60   41.00
  -5   9  19   70.39   18.20
  -5   9  19   71.09   21.40
   5   9 -19   74.29   20.40
  -3  -9  19  -39.90   33.10
   3  -9 -19   66.29   47.60
  -3  -9  19   10.20   16.20
  -3   9  19  -12.30   16.30
  -3   9  19    7.30   14.20
  -1  -9  19   82.59   30.80
   1  -9 -19   43.70   64.59
   1   9 -19   49.10   24.40
  -1   9  19   40.20   14.90
  -1   9  19   69.39   17.20
   1  -9  19   51.59   30.50
  -1  -9 -19   44.40   49.70
   1   9  19   76.49   19.10
   1   9  19   49.20   15.10
  -1   9 -19   80.09   26.20
  -3  -9 -19   92.49   49.40
   3  -9  19   53.59   30.50
   3   9  19   17.50   17.90
   3   9  19   37.50   14.40
  -3   9 -19   38.60   26.50
   5  -9  19  125.39   39.30
  -5  -9 -19  132.39   36.40
  -5   9 -19  169.98   38.70
   5   9  19  149.39   26.80
  -7  -9 -19  429.26   57.29
   7  -9  19  439.96   58.39
   7   9  19  416.26   48.70
  -7   9 -19  445.86   73.69
  -8 -10  19  -21.50   53.39
  -8 -10  19  -25.60   24.70
  -8  10  19  -25.70   28.70
  -8  10  19   -6.90   24.00
   8  10 -19    4.70   26.40
  -6 -10  19    8.40   43.30
   6 -10 -19   62.19   46.30
  -6 -10  19   31.30   20.70
   6  10 -19   31.30   22.00
  -6  10  19    4.00   22.30
  -6  10  19   43.40   18.60
   4 -10 -19   99.99   50.69
  -4 -10  19  135.29   35.30
  -4 -10  19  101.29   22.50
  -4  10  19   89.89   19.50
  -4  10  19  128.39   22.70
   4  10 -19  128.89   21.70
  -2 -10  19   24.90   15.60
  -2 -10  19    6.00   32.70
   2 -10 -19   -6.80   56.39
  -2  10  19   11.80   14.90
   2  10 -19  -13.50   31.80
   2  10 -19   38.50   24.30
  -2  10  19   16.40   17.10
   0 -10  19   88.09   34.70
   0 -10 -19  119.89   72.09
   0  10 -19   94.29   27.20
   0  10  19   85.89   19.40
   0  10  19  119.59   18.70
   2 -10  19   51.99   32.80
  -2 -10 -19   41.80   50.29
   2  10  19   39.10   15.70
   2  10  19   39.70   18.50
  -2  10 -19   79.49   27.70
  -4 -10 -19  102.79   55.79
  -4 -10 -19  -10.00   31.20
   4 -10  19   -2.00   35.00
   4  10  19    3.10   16.90
  -4  10 -19   45.40   30.00
   4  10  19    8.20   19.00
  -6 -10 -19   26.60   36.00
   6 -10  19  -11.30   40.70
  -6 -10 -19   98.99   65.99
   6  10  19  -25.20   22.60
  -6  10 -19   31.10   36.50
   7 -11 -19  -17.40   48.60
  -7 -11  19  -13.50   44.30
  -7 -11  19    9.10   23.00
   7  11 -19    1.60   26.00
  -7  11  19    0.80   26.20
  -7  11  19  -23.10   20.30
  -5 -11  19   25.90   41.40
   5 -11 -19    6.50   49.60
  -5 -11  19  -12.00   20.40
   5  11 -19   33.10   20.80
  -5  11  19   20.80   22.70
  -5  11  19   39.80   18.00
  -3 -11  19   34.10   38.30
   3 -11 -19   -3.80   59.09
  -3  11  19   55.29   20.20
  -3  11  19   41.80   19.00
   1 -11 -19  -85.29   62.39
  -1 -11  19  -86.49   33.70
   1  11 -19   11.90   24.10
  -1  11  19    7.00   16.20
  -1  11  19    1.40   17.70
  -1 -11 -19   19.80   71.19
   1 -11  19   30.10   35.70
  -1  11 -19   16.10   26.90
   1  11  19  -23.10   18.10
   1  11  19    7.00   15.80
  -3 -11 -19   72.89   58.49
   3 -11  19  -33.10   34.70
   3  11  19   17.80   20.00
   3  11  19   -1.30   17.00
  -3  11 -19  -38.50   30.60
   5 -11  19   37.80   39.30
  -5 -11 -19    3.80   38.50
  -5 -11 -19   54.29   64.79
  -5  11 -19   45.80   33.40
   5  11  19   22.70   18.00
   5  11  19  -26.30   23.20
  -7 -11 -19   87.49   77.79
   7 -11  19  -63.79   57.39
  -6 -12  19   56.19   23.20
  -6 -12  19   51.69   51.49
   6 -12 -19  103.99   58.59
  -6  12  19   41.00   25.90
   6  12 -19   54.69   26.20
  -6  12  19   49.70   21.10
   4 -12 -19   51.89   50.19
  -4 -12  19   -1.90   39.40
  -4  12  19   11.70   22.50
  -4  12  19    3.90   18.90
   4  12 -19   44.10   22.20
   2 -12 -19  100.89   63.89
  -2 -12  19   80.99   40.20
  -2  12  19   89.79   21.80
  -2  12  19   91.49   21.00
   2  12 -19  118.89   30.10
   0 -12 -19  -11.80   73.59
   0 -12  19   84.79   41.40
   0  12 -19  147.79   35.50
   0  12  19  106.09   23.70
   0  12  19  128.89   21.80
  -2 -12 -19 -125.09   70.69
   2 -12  19  -34.80   36.40
  -2  12 -19  -58.29   31.50
   2  12  19   10.90   18.20
   2  12  19   30.20   21.40
   4 -12  19   20.60   38.40
  -4 -12 -19   62.69   76.69
  -4  12 -19   19.20   35.80
   4  12  19  -31.90   22.70
   4  12  19   30.80   19.20
  -6 -12 -19  -20.40   70.39
  -6 -12 -19   24.90   48.40
   6 -12  19  -52.89   41.80
  -6  12 -19   44.40   39.00
   6  12  19   -4.10   20.70
   6  12  19    5.80   26.40
  -5 -13  19   35.00   46.80
   5 -13 -19   -4.40   59.89
  -5  13  19  -10.40   24.90
   5  13 -19   44.80   25.90
  -5  13  19   19.20   21.90
   3 -13 -19   34.80   62.59
  -3 -13  19   39.80   43.50
  -3  13  19   22.80   22.30
   3  13 -19   57.29   31.90
  -3  13  19   25.50   19.80
   1 -13 -19  -21.20   61.59
  -1 -13  19  -37.30   42.30
  -1  13  19   13.80   22.80
   1  13 -19   20.50   29.40
  -1  13  19   19.80   19.60
  -1 -13 -19    8.30   69.69
   1 -13  19   42.90   39.70
  -1  13 -19   58.79   31.50
   1  13  19   32.10   21.10
   1  13  19   44.00   23.40
  -3 -13 -19   57.99   79.29
   3 -13  19   37.30   40.70
   3  13  19    9.20   22.80
  -3  13 -19   22.20   36.30
   3  13  19   -2.10   20.60
  -5 -13 -19   72.69   54.89
   5 -13  19  111.39   48.60
  -5 -13 -19   97.79   90.59
   5  13  19  121.39   29.60
   5  13  19  106.19   24.30
  -5  13 -19  153.38   45.20
  -4 -14  19  290.97   58.69
   4 -14 -19  299.67   78.19
   4  14 -19  369.56   50.39
  -4  14  19  316.37   37.50
  -4  14  19  292.17   41.40
  -2 -14  19  459.65   65.59
   2 -14 -19  302.97   85.19
  -2  14  19  385.26   45.50
   2  14 -19  460.15   62.49
  -2  14  19  479.95   47.80
   0 -14  19  277.77   53.39
   0 -14 -19  255.27   81.19
   0  14  19  321.57   40.90
   0  14  19  321.17   42.20
   0  14 -19  342.27   56.69
  -2 -14 -19  227.28   90.19
   2 -14  19  320.77   55.59
  -2  14 -19  386.86   64.89
   2  14  19  492.15   45.20
   2  14  19  495.15   48.00
   4 -14  19   77.39   49.20
  -4 -14 -19   81.29   84.49
  -4  14 -19  170.28   44.50
   4  14  19  140.79   26.80
   4  14  19  155.38   31.30
   3 -15 -19    1.50   72.69
  -3 -15  19  188.18   58.89
  -3  15  19   49.40   25.60
  -3  15  19  117.49   28.90
   1 -15 -19  -49.00   78.29
  -1 -15  19  -14.00   51.39
  -1  15  19   50.59   23.90
  -1  15  19   89.29   27.90
   1  15 -19   43.70   35.30
   1 -15  19  -81.49   44.20
  -1 -15 -19   54.19   74.39
   1  15  19   54.59   28.20
  -1  15 -19   19.40   35.50
   1  15  19   -2.10   23.20
 -10   0  20   -2.70   27.00
 -10   0  20   48.40   23.40
  -8   0  20 1114.69   80.99
  -8   0  20  996.00   79.29
  -6   0  20  596.74   45.30
  -6   0  20  475.75   46.40
  -4   0  20  444.96   33.70
  -4   0  20  353.26   35.80
  -2   0  20  903.71   73.29
  -2   0  20 1033.30   67.99
  -2   0  20  939.31   71.89
   2   0 -20  843.22   72.09
   0   0  20  -10.30   25.00
   0   0  20   27.60   17.00
   0   0  20   16.10   11.50
   0   0 -20  -33.40   31.90
   2   0  20  251.57   31.30
  -2   0 -20  317.57   48.60
   2   0  20  257.67   27.30
   4   0  20  189.08   25.30
  -4   0 -20   84.59   37.80
   4   0  20  171.68   31.00
   6   0  20   32.30   19.10
  -6   0 -20  -33.50   36.90
   6   0  20   74.79   30.30
  -8   0 -20   53.69   44.80
   8   0  20   58.19   23.80
  -8   0 -20   48.90   49.50
  -9  -1  20  598.54   55.09
  -9  -1  20  645.14   55.89
  -9  -1  20  525.45   76.29
  -9   1  20  587.34   55.49
  -9   1  20  590.64   58.79
  -7  -1  20   92.59   21.30
  -7  -1  20  121.49   20.70
  -7   1  20   81.69   20.80
  -7   1  20   73.49   18.40
  -5  -1  20    4.00   22.40
  -5  -1  20  -12.60   16.10
  -5  -1  20    8.50   12.10
  -5   1  20    7.90   12.90
  -5   1  20   25.40   16.50
  -3  -1  20  190.68   32.10
  -3  -1  20  227.58   26.40
  -3  -1  20  223.08   29.40
  -3   1  20  181.38   25.00
  -3   1  20  212.08   26.80
  -3   1  20  198.38   26.30
  -1  -1  20  366.56   31.50
  -1  -1  20  310.07   40.10
  -1  -1  20  320.57   42.50
  -1   1  20  318.97   45.80
  -1   1  20  407.66   31.80
  -1   1  20  328.87   36.60
   1   1 -20  302.07   44.50
   1  -1  20  321.17   28.90
  -1  -1 -20  265.57   40.70
   1  -1  20  276.67   34.20
   1   1  20  280.67   28.40
  -1   1 -20  262.57   37.40
   1   1  20  320.57   35.40
  -1   1 -20  302.47   51.99
   3  -1  20  642.64   60.49
   3  -1  20  691.23   51.09
  -3  -1 -20  476.55   75.89
   3   1  20  701.53   60.09
  -3   1 -20  744.03   71.69
   3   1  20  661.33   51.29
   5  -1  20  853.11   79.39
  -5  -1 -20 1052.49   97.69
   5  -1  20  969.50   70.89
  -5   1 -20  954.30   93.19
   5   1  20  894.01   79.79
   5   1  20 1003.70   71.19
  -7  -1 -20  303.57   54.89
  -7  -1 -20  265.57   59.59
   7  -1  20  348.87   49.00
   7  -1  20  367.76   40.70
  -7   1 -20  304.87   58.89
   7   1  20  335.87   39.00
  -9  -1 -20  391.76   63.49
   9  -1  20  557.94   53.69
  -9  -1 -20  523.35   85.59
   9   1  20  530.95   53.29
  -9   1 -20  479.85   75.39
  -9   1 -20  406.96   65.89
 -10  -2  20  372.66   56.59
 -10  -2  20  236.88   35.20
  10   2 -20  323.07   44.00
 -10   2  20  218.98   37.20
 -10   2  20  304.77   37.40
  -8  -2  20  146.59   25.30
  -8  -2  20  175.08   38.90
   8   2 -20  142.79   26.40
  -8   2  20  167.18   25.00
  -8   2  20  177.38   27.30
  -6  -2  20  395.86   49.99
  -6  -2  20  438.46   39.80
   6   2 -20  352.16   49.30
  -6   2  20  422.86   40.60
  -6   2  20  473.65   38.50
  -4  -2  20 1177.38   79.69
  -4  -2  20 1002.30   78.09
  -4  -2  20 1132.99   85.59
  -4  -2  20 1168.98   76.79
  -4   2  20 1174.28   77.59
  -4   2  20 1095.69   84.69
   4   2 -20  936.21   89.69
  -4   2  20 1093.79   79.89
  -2  -2  20  335.27   40.70
  -2  -2  20  318.57   31.80
  -2  -2  20  373.86   42.40
   2   2 -20  322.37   40.20
  -2   2  20  375.96   32.40
  -2   2  20  317.47   43.80
   0  -2  20  698.13   68.89
   0  -2 -20  640.94   58.29
   0  -2  20  800.62   54.09
   0  -2  20  678.53   60.89
   0   2  20  779.12   54.49
   0   2 -20  755.02   70.39
   0   2 -20  752.32   64.99
   0   2  20  649.34   57.09
   2  -2  20  189.18   29.00
  -2  -2 -20  130.39   28.60
   2  -2  20  153.68   22.00
  -2   2 -20  153.68   36.90
   2   2  20  235.78   31.70
   2   2  20  165.78   21.30
  -4  -2 -20   30.10   40.80
   4  -2  20    5.10   15.10
   4  -2  20  -13.70   22.80
   4   2  20    4.50   15.00
   4   2  20   12.60   23.70
  -4   2 -20   -4.00   31.80
  -6  -2 -20   39.60   36.10
   6  -2  20  -33.70   28.60
   6  -2  20  -21.40   19.30
  -6  -2 -20  -52.69   45.60
   6   2  20   -5.90   16.90
  -6   2 -20   26.60   36.70
  -8  -2 -20  137.09   66.69
  -8  -2 -20  162.88   47.00
   8  -2  20  206.08   31.40
   8   2  20  234.98   30.80
  -8   2 -20  199.68   46.10
  -8   2 -20  163.38   57.19
  -9  -3  20   -2.80   24.20
  -9   3  20   41.80   24.50
  -9   3  20   84.69   21.70
   9   3 -20   13.00   25.80
  -7  -3  20   90.79   20.90
  -7  -3  20    0.70   34.00
  -7   3  20   93.19   23.40
  -7   3  20   93.19   18.60
   7   3 -20   67.99   21.20
  -5  -3  20   42.10   18.30
  -5  -3  20   35.00   27.80
   5   3 -20   34.00   14.80
  -5   3  20   61.59   14.80
  -5   3  20   83.49   18.20
  -3  -3  20   72.59   23.60
  -3  -3  20   57.29   16.50
   3  -3 -20   70.89   34.20
  -3   3  20   72.19   15.40
  -3   3  20   48.70   16.20
  -3   3  20   77.99   12.80
  -3   3  20   76.99   24.80
   3   3 -20   30.60   28.80
  -1  -3  20    9.50   26.80
  -1  -3  20   -5.20   18.50
   1  -3 -20    0.90   35.70
  -1  -3  20   -7.70   11.90
   1   3 -20  -16.60   25.10
   1   3 -20   10.10   30.90
  -1   3  20    4.60   12.70
   1  -3  20  222.58   25.20
   1  -3  20  241.28   31.50
  -1  -3 -20  229.48   28.20
   1   3  20  208.18   25.00
  -1   3 -20  226.18   37.50
   1   3  20  206.28   31.60
   3  -3  20  371.96   36.10
   3  -3  20  449.95   50.39
  -3   3 -20  420.86   56.69
   3   3  20  400.06   36.70
   3   3  20  430.86   46.00
  -5  -3 -20  304.57   45.40
   5  -3  20  349.87   43.60
   5  -3  20  337.07   33.30
   5   3  20  228.68   32.00
  -5   3 -20  299.37   47.70
   7  -3  20  336.27   47.50
  -7  -3 -20  295.37   49.40
   7  -3  20  327.67   40.70
   7   3  20  259.67   37.70
  -7   3 -20  327.37   56.29
  -9  -3 -20  111.49   47.30
   9  -3  20  190.28   31.20
  -9  -3 -20   -2.40   74.59
  -9   3 -20  114.09   59.69
   9   3  20  166.68   29.70
  -9   3 -20   92.49   48.80
  -8  -4  20   74.09   22.30
  -8  -4  20   56.79   38.00
  -8   4  20   58.89   20.10
   8   4 -20   50.39   23.00
  -8   4  20   28.40   22.80
  -6  -4  20  169.68   23.80
  -6  -4  20  128.59   36.80
  -6   4  20  214.38   28.00
   6   4 -20  116.69   21.30
  -6   4  20  142.49   24.70
   4  -4 -20   54.49   45.20
  -4  -4  20  156.38   31.60
  -4  -4  20  224.18   26.80
  -4  -4  20  166.48   22.50
  -4   4  20  149.69   34.40
  -4   4  20  167.38   23.30
  -4   4  20  161.58   22.90
  -2  -4  20  249.48   31.80
  -2  -4  20  206.88   25.50
   2   4 -20  218.68   34.60
  -2   4  20  208.28   25.20
  -2   4  20  165.58   39.20
  -2   4  20  188.28   22.00
   0  -4 -20   32.80   38.90
   0  -4  20   42.10   14.00
   0  -4  20   32.50   22.30
   0   4 -20   60.89   28.40
   0   4 -20   46.50   24.70
   0   4  20   45.50   14.20
  -2  -4 -20   45.20   22.60
  -2  -4 -20   19.10   22.70
  -2  -4 -20   51.99   40.70
   2  -4  20   34.40   25.30
   2  -4  20   22.70   13.80
   2   4  20   36.20   16.10
  -2   4 -20   45.40   28.20
  -4  -4 -20   42.00   28.60
  -4  -4 -20  -37.20   43.10
   4  -4  20   69.09   29.60
   4  -4  20   41.40   16.10
   4   4  20   44.70   16.40
  -4   4 -20   17.00   29.80
   6  -4  20   42.20   18.70
  -6  -4 -20   33.60   52.09
  -6  -4 -20   31.60   32.80
   6  -4  20   51.09   32.10
   6   4  20   20.30   19.20
  -6   4 -20   24.20   36.30
   8  -4  20   -7.30   23.90
  -8  -4 -20  117.39   64.39
  -8  -4 -20   59.49   41.90
   8  -4  20  118.99   43.20
  -8   4 -20   53.19   46.90
   8   4  20   42.90   25.20
  -9  -5  20   48.90   25.20
  -9  -5  20    0.30   47.90
   9   5 -20   -6.50   24.30
  -9   5  20   41.50   26.60
  -9   5  20   45.20   20.60
  -7  -5  20  -30.70   19.40
  -7  -5  20   47.90   34.20
   7   5 -20    4.60   20.60
  -7   5  20   22.60   17.10
  -7   5  20  -16.60   21.30
   5  -5 -20    2.70   36.10
  -5  -5  20  -21.10   26.70
  -5  -5  20    9.80   18.40
  -5   5  20   -6.50   30.90
  -5   5  20   -1.10   18.00
  -5   5  20  -10.30   13.10
   5   5 -20   -7.70   15.50
   3  -5 -20  -82.39   54.49
  -3  -5  20   15.50   16.20
  -3  -5  20   34.40   26.80
  -3   5  20   -7.20   12.50
  -3   5  20   33.40   14.80
  -3   5  20   10.30   30.60
   1  -5 -20   -6.70   37.90
  -1  -5  20   34.00   13.70
  -1  -5  20   46.40   24.30
   1   5 -20  -24.00   26.10
  -1   5  20   47.90   15.20
   1   5 -20   58.79   25.60
  -1   5  20   34.80   11.30
  -1  -5 -20  -57.89   39.90
   1  -5  20   52.39   24.90
   1  -5  20   54.69   14.00
   1   5  20   55.29   15.50
  -1   5 -20   17.90   27.20
  -3  -5 -20   19.40   23.40
  -3  -5 -20  -48.60   25.90
  -3  -5 -20  -36.90   40.60
   3  -5  20  -16.90   14.70
   3  -5  20   21.40   26.90
  -3   5 -20    8.70   26.50
   3   5  20   -4.60   15.40
  -5  -5 -20   78.99   31.90
   5  -5  20  107.59   33.50
   5  -5  20  129.89   21.30
  -5  -5 -20   -6.20   50.59
   5   5  20   89.29   20.30
  -5   5 -20   77.79   33.10
   7  -5  20  -62.29   36.40
  -7  -5 -20    4.00   35.20
   7  -5  20   22.60   21.10
  -7  -5 -20   47.70   63.29
   7   5  20    4.10   21.60
  -7   5 -20   23.00   41.40
  -8  -6  20   46.20   44.90
  -8  -6  20   16.40   21.00
  -8   6  20   -3.10   24.20
  -8   6  20   26.20   20.40
   8   6 -20   -2.00   24.10
  -6  -6  20   34.60   35.80
   6  -6 -20   -4.50   37.60
  -6  -6  20   39.10   19.40
   6   6 -20   27.00   18.70
  -6   6  20   42.10   16.30
  -6   6  20   37.20   20.60
   4  -6 -20  -20.30   43.30
  -4  -6  20    5.00   16.50
  -4  -6  20   41.30   31.10
  -4   6  20   -3.70   13.10
   4   6 -20    9.60   14.00
  -4   6  20    4.00   16.00
  -2  -6  20   24.20   15.10
  -2  -6  20   30.90   28.70
  -2   6  20   52.39   12.30
   2   6 -20   36.20   25.50
  -2   6  20   23.90   15.10
   2   6 -20   -0.90   26.80
   0  -6  20  -34.10   24.40
   0  -6 -20  -13.20   42.20
   0  -6  20   37.60   13.10
   0   6 -20    6.20   23.30
   0   6  20   17.70   14.00
  -2  -6 -20    1.70   43.90
   2  -6  20   26.40   14.10
   2  -6  20   41.30   25.60
  -2   6 -20   25.00   26.20
   2   6  20   38.80   16.00
   4  -6  20   25.40   15.90
  -4  -6 -20   67.59   27.80
   4  -6  20   39.90   28.90
  -4  -6 -20   69.89   46.30
   4   6  20   59.19   17.30
  -4   6 -20   71.39   30.40
   6  -6  20  -24.70   17.80
  -6  -6 -20   41.80   58.29
  -6  -6 -20   59.79   36.00
   6  -6  20    8.90   34.70
  -6   6 -20   23.30   35.70
   6   6  20  -15.60   19.70
  -8  -6 -20   62.99   72.59
   8  -6  20  -38.00   23.40
   8  -6  20    4.60   38.90
  -8  -6 -20   36.00   41.50
   8   6  20  -31.90   24.00
  -8   6 -20   26.00   43.10
  -9  -7  20   58.09   26.60
  -9  -7  20   52.39   54.49
  -9   7  20   42.40   29.40
  -9   7  20   38.20   24.10
   9   7 -20   54.79   27.70
  -7  -7  20    6.00   37.90
  -7  -7  20   57.79   23.50
  -7   7  20   93.69   21.00
  -7   7  20   35.00   24.20
   7   7 -20   64.39   22.60
   5  -7 -20    8.90   38.20
  -5  -7  20    6.00   31.90
  -5  -7  20   56.59   20.20
   5   7 -20   18.90   16.90
  -5   7  20   41.90   16.90
  -5   7  20   33.40   19.90
   3  -7 -20  -67.79   57.49
  -3  -7  20    6.30   16.00
  -3  -7  20    5.50   29.40
  -3   7  20    9.10   13.40
  -3   7  20   14.30   16.30
  -1  -7  20    9.40   13.50
  -1  -7  20   60.59   28.10
   1  -7 -20  172.38   55.89
   1   7 -20   28.10   24.70
  -1   7  20   23.70   12.50
  -1   7  20   23.40   15.80
   1   7 -20   27.80   30.40
  -1  -7 -20  133.19   19.90
   1  -7  20  181.78   32.60
  -1  -7 -20    6.90   45.50
   1  -7  20  126.59   17.70
   1   7  20  140.09   21.60
  -1   7 -20  131.29   33.20
  -3  -7 -20   70.29   27.10
  -3  -7 -20  -30.10   44.60
   3  -7  20   91.09   17.00
   3  -7  20  101.79   32.10
  -3  -7 -20   79.79   27.20
   3   7  20   58.99   19.50
  -3   7 -20   65.49   30.70
  -5  -7 -20   -3.30   57.09
   5  -7  20  152.98   22.10
   5  -7  20  149.99   40.50
  -5  -7 -20  113.49   33.70
   5   7  20  126.39   24.10
  -5   7 -20  120.09   40.30
   7  -7  20  144.79   43.40
  -7  -7 -20 -113.89   60.89
  -7  -7 -20   54.59   41.20
   7  -7  20  104.99   23.70
   7   7  20   73.29   25.80
  -7   7 -20   61.69   41.90
  -8  -8  20   54.89   25.00
  -8  -8  20   99.09   49.80
  -8   8  20   71.69   23.40
   8   8 -20  101.99   27.90
  -8   8  20  102.29   29.10
   6  -8 -20  237.58   50.39
  -6  -8  20  249.08   30.90
  -6  -8  20  305.67   51.79
  -6   8  20  262.27   34.90
   6   8 -20  263.37   31.60
  -6   8  20  262.17   32.00
  -4  -8  20  309.47   34.30
   4  -8 -20  373.36   59.59
  -4  -8  20  324.37   48.00
  -4   8  20  292.77   35.00
  -4   8  20  263.27   32.10
  -2  -8  20  286.17   42.40
   2  -8 -20  300.17   73.39
  -2  -8  20  257.67   29.80
   2   8 -20  225.08   39.60
  -2   8  20  257.27   31.90
   2   8 -20  230.58   37.00
  -2   8  20  308.07   29.20
   0  -8 -20  275.87   61.29
   0  -8  20  319.87   30.80
   0  -8  20  352.36   50.49
   0   8  20  313.17   30.90
   0   8 -20  296.47   46.80
   0   8  20  335.67   33.10
  -2  -8 -20    1.10   48.60
   2  -8  20   52.89   30.50
   2   8  20   37.10   17.00
  -2   8 -20   14.60   28.00
  -4  -8 -20  163.18   31.60
   4  -8  20  194.78   41.20
  -4  -8 -20   39.80   51.09
  -4   8 -20  152.08   39.30
   4   8  20  161.08   24.30
   6  -8  20   -9.90   38.40
  -6  -8 -20   65.49   63.09
  -6  -8 -20   14.40   30.10
   6   8  20   17.90   21.30
  -6   8 -20  -32.20   36.90
  -8  -8 -20   -5.40   78.29
   8  -8  20   85.99   55.49
  -7  -9  20  105.69   43.80
  -7  -9  20   25.40   22.70
   7  -9 -20   -8.80   48.30
  -7   9  20   18.50   21.90
  -7   9  20   79.69   27.00
   7   9 -20   20.60   24.00
  -5  -9  20   13.00   19.70
   5  -9 -20   95.79   41.10
  -5  -9  20  -15.70   34.40
   5   9 -20   11.20   18.90
  -5   9  20   -3.90   20.50
  -5   9  20   30.40   17.90
   3  -9 -20  102.19   51.89
  -3  -9  20   86.59   36.30
  -3  -9  20   79.19   20.40
  -3   9  20   88.49   19.10
  -3   9  20   96.69   20.30
  -1  -9  20  238.48   41.30
   1  -9 -20  154.78   77.29
   1   9 -20  172.08   34.10
  -1   9  20  169.68   21.80
  -1   9  20  164.88   24.50
   1  -9  20  198.98   37.40
  -1  -9 -20  143.99   53.89
   1   9  20  165.08   24.40
   1   9  20  143.59   20.40
  -1   9 -20  126.69   34.00
   3  -9  20  592.94   70.29
  -3   9 -20  568.04   64.49
   3   9  20  474.05   48.20
  -5  -9 -20  615.84   70.69
   5  -9  20  762.62   78.39
   5   9  20  613.14   57.59
  -5   9 -20  689.83   76.59
  -7  -9 -20  431.66   56.29
   7  -9  20  429.36   59.09
   7   9  20  383.66   49.40
  -7   9 -20  318.37   60.99
   6 -10 -20  205.88   53.39
  -6 -10  20  162.18   28.20
  -6 -10  20  153.68   50.19
  -6  10  20  224.18   31.40
  -6  10  20  179.78   26.40
   6  10 -20  167.48   29.40
  -4 -10  20 1118.79   95.29
   4 -10 -20  859.51  106.19
  -4  10  20 1039.40   77.19
  -4  10  20 1011.50   75.09
  -2 -10  20  440.16   64.79
   2 -10 -20  445.26   86.39
   2  10 -20  435.36   58.29
  -2  10  20  468.65   44.80
  -2  10  20  560.54   43.40
   0 -10  20   31.20   36.60
   0 -10 -20   -3.10   76.59
   0  10 -20   50.39   30.30
   0  10  20   53.49   19.10
   0  10  20   18.90   16.00
   2 -10  20  300.97   48.50
  -2 -10 -20  177.28   63.89
  -2  10 -20  337.07   52.79
   2  10  20  268.57   35.80
   2  10  20  311.67   32.70
   4 -10  20   -2.60   38.80
  -4 -10 -20   -2.90   34.10
  -4 -10 -20  -51.19   57.69
  -4  10 -20   21.20   32.70
   4  10  20   28.00   20.80
  -6 -10 -20   51.29   38.10
  -6 -10 -20  -21.70   69.39
   6 -10  20   80.19   47.10
  -6  10 -20  -14.30   37.80
   6  10  20  -48.30   22.90
   7 -11 -20   39.20   54.29
  -7 -11  20    5.60   53.39
  -7 -11  20   52.89   25.00
  -7  11  20   31.00   27.50
   7  11 -20  -12.70   27.20
  -7  11  20   -3.10   22.40
  -5 -11  20   78.99   25.90
  -5 -11  20  101.09   45.00
   5 -11 -20  110.49   53.89
  -5  11  20   43.70   20.80
  -5  11  20   90.59   26.70
   5  11 -20   91.69   25.80
   3 -11 -20   13.70   59.99
  -3 -11  20  132.09   44.40
  -3  11  20   92.49   23.90
  -3  11  20   69.59   20.00
   1 -11 -20   73.59   74.09
  -1 -11  20  162.08   43.30
  -1  11  20  182.58   26.20
  -1  11  20  132.49   22.90
   1  11 -20  177.28   34.30
   1 -11  20  285.67   48.90
  -1 -11 -20  283.57   91.09
   1  11  20  243.88   31.80
  -1  11 -20  293.87   44.30
   1  11  20  318.97   34.90
   3 -11  20  683.13   79.99
  -3  11 -20  746.73   73.89
   3  11  20  578.44   56.49
   3  11  20  647.54   53.69
  -5 -11 -20  558.94   80.69
   5 -11  20  451.65   66.39
  -5  11 -20  687.23   75.79
   5  11  20  624.94   56.49
   6 -12 -20  581.04   85.19
  -6 -12  20  673.03   59.69
  -6 -12  20  671.73   94.39
  -6  12  20  617.94   57.19
   6  12 -20  799.42   62.79
  -6  12  20  603.54   62.99
   4 -12 -20  724.63   99.99
  -4 -12  20  935.01   94.29
  -4  12  20  689.13   65.39
  -4  12  20  821.62   64.09
  -2 -12  20  152.78   48.30
   2 -12 -20  126.49   70.69
  -2  12  20  233.18   27.90
  -2  12  20  197.78   27.90
   0 -12 -20  399.26   87.99
   0 -12  20  401.16   58.89
   0  12  20  428.56   43.60
   0  12  20  365.86   41.50
   0  12 -20  421.66   55.09
  -2 -12 -20  -65.29   79.59
   2 -12  20   51.59   39.40
   2  12  20    6.10   23.10
   2  12  20   30.70   18.60
  -2  12 -20   26.30   34.30
  -4 -12 -20   13.90   76.29
   4 -12  20  112.59   45.20
   4  12  20   74.29   21.90
   4  12  20   72.89   27.00
  -4  12 -20   86.99   37.20
  -5 -13  20    4.30   44.50
   5 -13 -20  -28.70   61.69
  -5  13  20   24.40   27.70
  -5  13  20   11.80   22.70
   5  13 -20   33.30   26.30
  -3 -13  20   55.69   47.40
   3 -13 -20    8.10   65.69
  -3  13  20   90.09   26.20
  -3  13  20   45.40   21.60
  -1 -13  20   56.89   45.90
   1 -13 -20  -90.59   69.79
  -1  13  20   37.70   21.00
   1  13 -20   30.60   33.50
  -1  13  20   48.90   23.70
   1 -13  20  572.54   76.19
  -1 -13 -20  353.16   98.39
   1  13  20  470.95   52.09
   1  13  20  465.75   48.10
  -1  13 -20  619.84   69.19
   3 -13  20  147.09   46.30
  -3 -13 -20   26.60   87.49
   3  13  20  130.79   29.50
   3  13  20  134.59   25.30
  -3  13 -20   96.49   42.80
  -4 -14  20   91.19   55.39
   4 -14 -20   31.20   75.79
  -2 -14  20  265.47   58.19
   2 -14 -20  100.09   83.69
  -2  14  20  239.08   35.00
  -2  14  20  248.88   32.30
   2  14 -20  263.27   45.30
   0 -14  20  103.89   53.39
   0 -14 -20   22.70   77.99
   0  14  20  175.78   28.20
   0  14  20  116.79   28.20
   0  14 -20  153.98   43.00
  -2 -14 -20    9.80   80.89
   2 -14  20   13.90   46.60
  -2  14 -20   41.40   40.50
   2  14  20   83.79   29.00
   2  14  20   15.70   23.40
  -1 -15  20   42.20   53.69
   1 -15 -20   -5.10   86.29
  -1 -15 -20   38.30   81.59
  -8   0  21   80.69   21.50
  -8   0  21   64.09   24.20
  -6   0  21  -12.20   18.50
  -6   0  21    5.40   15.40
  -4   0  21   -5.60   15.70
  -4   0  21    2.10   11.20
  -2   0  21   -7.70   13.60
   2   0 -21   -8.80   33.20
  -2   0  21  -40.20   22.10
  -2   0  21   24.60   21.10
   2   0 -21   15.90   23.70
   0   0 -21   -1.50   36.60
   0   0  21  -15.70   12.20
   0   0 -21    8.20   23.10
   0   0  21  -13.10   19.00
   2   0  21    6.10   21.70
   2   0  21   -5.80   13.70
  -2   0 -21  -29.60   36.30
   4   0  21  -11.90   26.10
   4   0  21   25.80   16.40
  -4   0 -21  -15.20   36.00
   6   0  21   52.19   32.60
  -6   0 -21  -84.79   41.20
   6   0  21  -28.50   19.00
  -8   0 -21    4.90   54.19
   8   0  21   -4.00   23.90
  -8   0 -21    9.30   47.50
  -9  -1  21   40.90   26.60
  -9  -1  21  -19.00   23.90
  -9   1  21   13.00   24.50
  -9   1  21   31.70   21.70
  -7  -1  21   63.99   21.90
  -7  -1  21  119.39   22.40
  -7   1  21   62.39   19.50
  -7   1  21   54.19   23.20
  -5  -1  21   44.60   15.30
  -5  -1  21   74.59   19.00
  -5   1  21   57.59   14.90
  -5   1  21   70.69   18.40
  -3  -1  21   73.19   16.80
  -3  -1  21   39.90   21.70
  -3  -1  21   39.00   20.20
   3   1 -21   76.19   27.00
  -3   1  21   44.50   14.50
  -3   1  21   25.60   23.00
  -3   1  21   50.39   16.00
  -1  -1  21   11.50   20.70
   1  -1 -21  -38.60   23.90
  -1  -1  21   54.29   25.30
   1  -1 -21  -12.10   35.30
  -1  -1  21    3.00   13.50
  -1   1  21   22.90   17.60
   1   1 -21   70.39   27.60
  -1   1  21  -12.10   34.20
   1   1 -21  -38.70   34.50
  -1   1  21   21.40   13.00
   1  -1  21  222.58   25.50
   1  -1  21  279.97   38.50
  -1  -1 -21  134.39   31.80
   1   1  21  212.58   26.20
  -1   1 -21  279.17   46.00
   1   1  21  214.48   28.50
   3  -1  21   71.79   27.10
  -3  -1 -21  -48.90   37.90
   3  -1  21   26.00   15.30
   3   1  21    5.80   14.70
   3   1  21    8.60   23.70
  -3   1 -21   79.39   35.30
   5  -1  21   84.39   31.00
  -5  -1 -21   88.59   48.40
   5  -1  21   69.99   19.40
   5   1  21   98.49   20.00
   5   1  21   74.59   30.80
  -5   1 -21   65.49   37.00
   7  -1  21   87.59   37.40
  -7  -1 -21  112.09   57.39
   7  -1  21   75.49   23.50
  -7  -1 -21   80.69   42.50
  -7   1 -21  102.19   48.90
   7   1  21   47.40   22.10
  -8  -2  21    2.70   21.20
  -8  -2  21   24.00   24.70
  -8  -2  21   -2.00   38.10
  -8   2  21   23.50   23.40
  -8   2  21   25.60   18.60
  -6  -2  21  278.57   30.70
  -6  -2  21  223.08   29.30
  -6  -2  21  225.08   38.40
  -6   2  21  200.08   28.90
  -6   2  21  285.27   31.60
  -4  -2  21  242.88   25.00
  -4  -2  21  215.78   33.20
   4  -2 -21  120.89   53.39
  -4  -2  21  245.28   29.90
  -4   2  21  226.18   26.20
   4   2 -21  187.88   38.80
  -4   2  21  192.68   28.90
  -4   2  21  233.38   27.00
   2  -2 -21   73.99   34.90
  -2  -2  21   49.20   24.70
  -2  -2  21   77.29   24.10
  -2  -2  21   81.49   15.60
   2   2 -21   75.49   29.00
   2   2 -21    7.50   33.90
  -2   2  21   78.19   25.30
  -2   2  21   68.89   16.70
   0  -2  21  176.68   30.60
   0  -2  21  218.08   25.30
   0   2  21  247.48   26.40
   0   2  21  252.27   32.60
   0   2 -21  262.67   40.70
  -2  -2 -21   48.90   27.20
  -2  -2 -21   -2.40   38.90
   2  -2  21  127.79   17.60
   2  -2  21  116.09   27.20
   2   2  21   98.99   23.50
  -2   2 -21   69.29   34.30
   2   2  21  106.39   18.00
   4  -2  21    9.50   27.60
   4  -2  21   33.80   17.40
  -4  -2 -21    1.70   45.30
  -4   2 -21   14.10   36.60
   4   2  21   93.49   18.20
   4   2  21   34.10   26.30
  -6  -2 -21   -4.30   51.29
  -6  -2 -21  -45.80   36.50
   6  -2  21  -13.90   19.70
   6  -2  21   -9.90   32.20
   6   2  21   -4.40   18.90
  -6   2 -21    8.00   41.70
   8  -2  21  219.68   32.30
  -8  -2 -21   67.69   68.79
  -8  -2 -21  161.78   50.89
  -8   2 -21  147.79   47.40
  -8   2 -21  196.68   59.69
   8   2  21  247.68   32.00
  -9  -3  21  -79.09   41.20
  -9  -3  21  -36.10   24.20
   9   3 -21   -8.80   24.30
  -9   3  21   23.60   23.20
  -9   3  21   -9.00   25.50
  -7  -3  21   29.00   20.30
  -7  -3  21   31.20   34.80
  -7   3  21    6.50   22.00
  -7   3  21   22.00   17.80
   7   3 -21   33.90   19.60
  -5  -3  21   14.30   29.90
  -5  -3  21  -11.80   17.50
  -5   3  21  -13.00   18.10
  -5   3  21   -1.60   13.90
   3  -3 -21  376.96   65.89
  -3  -3  21  320.67   32.70
  -3  -3  21  341.47   45.20
  -3   3  21  266.47   32.30
  -3   3  21  323.67   52.89
  -3   3  21  315.07   28.50
  -1  -3  21   90.89   33.50
  -1  -3  21   89.89   26.20
  -1  -3  21  120.69   18.50
   1   3 -21   86.69   32.00
  -1   3  21  109.99   19.20
  -1  -3 -21  576.74   59.39
   1  -3  21  754.92   53.29
   1  -3  21  654.33   64.69
   1   3  21  665.03   57.09
   1   3  21  742.83   53.69
  -1   3 -21  752.02   73.59
   3  -3  21  467.25   40.80
   3  -3  21  478.85   56.49
   3   3  21  475.75   41.90
  -3   3 -21  483.85   64.59
   5  -3  21  288.47   34.80
  -5  -3 -21  260.47   46.20
   5  -3  21  340.47   45.40
  -5   3 -21  308.77   50.09
   5   3  21  294.87   32.40
   7  -3  21  101.19   40.60
   7  -3  21  130.09   27.60
  -7  -3 -21  116.39   41.90
  -7   3 -21  156.08   50.59
   7   3  21  155.98   25.10
  -8  -4  21  693.93   79.49
  -8  -4  21  618.44   59.39
  -8   4  21  800.52   59.39
   8   4 -21  755.12   61.69
  -8   4  21  608.44   61.19
  -6  -4  21  260.17   35.00
  -6  -4  21  298.37   42.30
  -6   4  21  334.97   34.80
   6   4 -21  308.07   35.10
  -6   4  21  245.28   32.60
  -4  -4  21  505.25   55.99
   4  -4 -21  370.16   62.59
  -4  -4  21  568.74   44.10
   4   4 -21  536.35   40.20
  -4   4  21  462.15   40.60
  -4   4  21  521.65   44.10
  -4   4  21  446.76   61.89
  -2  -4  21  711.83   51.59
  -2  -4  21  686.03   63.09
  -2   4  21  621.74   51.39
   2   4 -21  597.14   62.39
   2   4 -21  674.93   68.99
   0  -4  21   41.80   14.90
   0  -4  21   29.40   26.10
   0  -4 -21   26.90   41.90
   0   4  21   23.30   15.00
   0   4 -21   28.80   28.50
  -2  -4 -21  -10.30   26.90
   2  -4  21    2.30   25.80
   2  -4  21   14.80   14.90
  -2  -4 -21    5.70   43.20
  -2  -4 -21  -20.60   32.60
  -2   4 -21   33.80   30.00
   2   4  21   11.10   15.30
   4  -4  21   53.79   18.20
  -4  -4 -21   16.00   49.10
  -4  -4 -21   72.59   30.60
   4  -4  21   40.30   31.20
  -4   4 -21   31.50   33.50
   4   4  21   36.70   17.90
  -6  -4 -21  183.78   43.90
   6  -4  21  272.07   46.80
   6  -4  21  270.37   37.50
  -6   4 -21  291.27   51.69
   6   4  21  334.07   36.20
   8  -4  21  232.98   33.50
  -8  -4 -21   42.90   72.39
   8  -4  21  246.28   49.99
  -8  -4 -21  227.78   49.70
   8   4  21  220.68   32.20
  -8   4 -21  181.08   55.59
  -9  -5  21  198.18   54.79
  -9  -5  21  134.09   30.20
  -9   5  21  215.98   28.50
  -9   5  21  167.68   33.40
   9   5 -21  190.48   33.10
  -7  -5  21   11.20   41.30
  -7  -5  21   22.90   20.60
  -7   5  21   19.50   23.00
  -7   5  21   23.30   19.80
   7   5 -21    9.90   20.40
   5  -5 -21   71.79   42.10
  -5  -5  21  111.99   21.10
  -5  -5  21   62.29   34.50
  -5   5  21   80.89   17.90
  -5   5  21   81.79   22.10
   5   5 -21   97.49   19.70
  -5   5  21  -14.60   36.50
  -3  -5  21  142.89   32.40
  -3  -5  21  155.88   22.20
   3  -5 -21   -2.20   62.89
  -3   5  21  152.78   19.20
  -3   5  21  153.48   22.90
  -1  -5  21 1080.99   81.09
  -1  -5  21 1034.80   68.69
  -1   5  21  977.70   69.49
   1   5 -21  728.73   82.19
  -1   5  21  888.11   67.19
   1   5 -21  934.81   81.79
   1  -5  21  674.63   61.09
   1  -5  21  491.55   45.30
  -1   5 -21  575.24   65.89
   1   5  21  579.54   46.60
   3  -5  21  752.32   74.89
  -3  -5 -21  650.93   64.79
   3  -5  21  684.93   55.69
   3   5  21  773.42   56.89
  -3   5 -21  697.13   77.39
  -5  -5 -21  727.23   73.29
   5  -5  21  823.12   80.29
   5  -5  21  756.22   61.09
  -5   5 -21  769.82   87.49
   5   5  21  773.82   62.29
   7  -5  21   85.69   24.50
  -7  -5 -21   65.99   40.30
   7  -5  21   95.99   40.30
  -7  -5 -21  -31.40   65.39
  -7   5 -21   85.99   46.90
   7   5  21  108.79   25.10
  -8  -6  21  501.25   50.49
  -8  -6  21  468.05   63.39
   8   6 -21  511.75   51.39
  -8   6  21  512.45   50.49
  -8   6  21  432.36   51.49
   6  -6 -21  396.46   54.19
  -6  -6  21  398.46   40.80
  -6  -6  21  416.36   58.09
  -6   6  21  314.67   37.20
  -6   6  21  326.37   42.00
   6   6 -21  333.97   39.50
   4  -6 -21  322.27   60.99
  -4  -6  21  373.66   37.90
  -4  -6  21  454.35   57.39
  -4   6  21  365.56   38.20
  -4   6  21  365.86   35.50
  -2  -6  21  329.37   43.00
   2  -6 -21  375.06   77.59
  -2  -6  21  271.07   31.60
   2   6 -21  264.47   37.90
   2   6 -21  276.97   50.09
  -2   6  21  305.37   29.00
  -2   6  21  334.17   32.90
   0  -6 -21   49.20   46.20
   0  -6  21  156.58   32.40
   0  -6  21  154.38   20.30
   0   6  21  156.58   22.30
   0   6 -21  183.88   36.50
  -2  -6 -21   -7.60   45.60
   2  -6  21   38.00   31.40
   2  -6  21   68.89   17.20
  -2   6 -21   86.09   33.00
   2   6  21   76.09   18.30
  -4  -6 -21   77.79   30.40
   4  -6  21  140.29   34.70
  -4  -6 -21   36.30   50.89
   4  -6  21   86.29   19.30
   4   6  21  122.19   21.40
  -4   6 -21   88.69   35.80
   6  -6  21  251.57   46.60
   6  -6  21  259.37   29.80
  -6  -6 -21  267.77   44.30
   6   6  21  217.28   31.80
  -6   6 -21  132.89   46.50
  -8  -6 -21  424.06   61.19
   8  -6  21  322.97   57.49
   8  -6  21  359.16   48.80
  -8   6 -21  315.07   69.79
   8   6  21  395.56   46.80
  -7  -7  21   19.60   22.90
  -7  -7  21   -3.90   44.90
   7   7 -21  -19.20   22.90
  -7   7  21   -4.40   26.00
  -7   7  21   -3.60   19.30
  -5  -7  21  -17.50   35.60
  -5  -7  21   35.10   21.90
   5  -7 -21  -50.89   43.00
  -5   7  21   23.20   17.90
  -5   7  21    0.80   20.10
   5   7 -21   23.20   19.20
   3  -7 -21  727.03   88.79
  -3  -7  21  680.73   68.19
  -3  -7  21  638.84   51.89
  -3   7  21  608.04   52.19
  -3   7  21  616.24   49.70
   1  -7 -21  147.49   60.79
  -1  -7  21  183.08   22.60
  -1  -7  21  198.88   38.50
  -1   7  21  204.28   24.80
  -1   7  21  196.58   23.60
   1   7 -21   88.29   38.60
   1   7 -21  206.18   35.80
   1  -7  21 1327.57   89.69
   1  -7  21 1252.37  102.89
  -1   7 -21 1332.37  104.19
   1   7  21 1180.68   90.79
   3  -7  21  591.14   70.89
  -3  -7 -21  500.45   60.19
   3  -7  21  687.23   50.29
  -3   7 -21  612.04   69.49
   3   7  21  587.24   51.79
  -5  -7 -21  305.37   41.90
   5  -7  21  254.97   35.60
   5  -7  21  250.47   48.20
  -5   7 -21  281.17   48.10
   5   7  21  292.47   38.40
   7  -7  21  350.06   42.20
  -7  -7 -21  310.57   51.89
   7  -7  21  246.88   52.29
   7   7  21  280.07   38.40
  -7   7 -21  312.67   55.79
  -8  -8  21  122.59   30.20
  -8  -8  21  246.98   52.19
   8   8 -21  153.38   33.40
  -8   8  21  143.99   26.80
  -8   8  21   90.69   30.50
  -6  -8  21  301.47   49.90
   6  -8 -21  216.98   54.99
  -6  -8  21  237.38   33.90
  -6   8  21  263.07   34.00
  -6   8  21  348.47   36.90
   6   8 -21  327.47   37.50
   4  -8 -21  498.15   70.19
  -4  -8  21  453.55   43.20
  -4  -8  21  425.86   64.29
  -4   8  21  432.96   44.50
  -4   8  21  444.16   40.80
   2  -8 -21    2.50   68.19
  -2  -8  21  102.59   19.60
  -2  -8  21  167.78   38.60
   2   8 -21   66.89   32.60
  -2   8  21  101.69   20.50
  -2   8  21  100.89   18.10
   0  -8  21  161.98   39.50
   0  -8 -21   74.99   55.49
   0  -8  21  167.18   21.00
   0   8 -21  127.79   33.10
   0   8  21  156.78   19.50
   0   8  21  122.79   22.90
   2  -8  21   10.80   33.00
  -2  -8 -21  -19.80   51.29
   2   8  21   -5.00   18.00
  -2   8 -21    4.20   30.80
  -4  -8 -21   30.00   53.69
  -4  -8 -21   32.70   28.30
   4  -8  21   26.50   37.20
   4   8  21   22.60   19.90
  -4   8 -21   33.30   35.30
   6  -8  21   95.69   44.40
  -6  -8 -21    1.80   64.79
   6  -8  21  121.99   25.90
  -6  -8 -21  146.49   38.80
   6   8  21  161.68   28.60
  -6   8 -21  196.08   47.20
  -7  -9  21  -21.50   24.20
   7  -9 -21   -3.90   50.99
  -7  -9  21   57.39   52.09
  -7   9  21    3.30   21.90
  -7   9  21   61.79   27.00
   7   9 -21   -7.70   25.60
   5  -9 -21  135.19   47.70
  -5  -9  21   58.99   22.60
  -5  -9  21  100.39   41.50
  -5   9  21   28.70   22.40
  -5   9  21   52.19   19.00
   5   9 -21   15.70   20.90
   3  -9 -21   66.59   55.39
  -3  -9  21   16.60   18.90
  -3  -9  21   52.09   35.50
  -3   9  21   24.10   18.70
  -3   9  21   44.80   19.70
  -1  -9  21  336.97   34.80
   1  -9 -21  353.36   90.29
  -1  -9  21  337.67   48.60
  -1   9  21  349.96   37.10
   1   9 -21  376.96   51.79
  -1   9  21  320.97   33.80
   1  -9  21   79.29   34.10
  -1  -9 -21   55.89   57.49
  -1   9 -21   38.60   32.60
   1   9  21   67.69   20.30
   1   9  21   54.99   16.30
   3  -9  21  129.79   40.00
  -3  -9 -21   35.70   56.59
   3   9  21  118.29   24.00
  -3   9 -21   70.89   37.10
  -5  -9 -21  157.58   39.60
  -5  -9 -21   13.80   62.39
   5  -9  21  212.28   45.10
   5   9  21  158.48   29.50
  -5   9 -21  128.79   43.20
  -6 -10  21  -16.90   25.50
   6 -10 -21    4.00   54.39
  -6 -10  21   40.30   46.30
   6  10 -21   49.40   23.90
  -6  10  21    9.70   21.00
  -6  10  21   46.60   27.30
  -4 -10  21   17.50   21.20
   4 -10 -21  -32.10   53.39
  -4 -10  21  -14.70   41.80
  -4  10  21   10.80   18.70
  -4  10  21  -39.10   21.40
  -2 -10  21  108.69   21.00
  -2 -10  21   49.99   42.40
   2 -10 -21  -82.09   67.59
  -2  10  21   52.69   21.90
  -2  10  21   90.09   20.30
   2  10 -21  105.79   34.10
   0 -10 -21 -106.79   80.09
   0 -10  21   -4.60   35.50
   0  10 -21  -18.90   30.30
   0  10  21   18.10   19.20
   0  10  21   18.10   16.60
   2 -10  21    2.80   36.80
  -2 -10 -21   -1.70   58.99
   2  10  21   -4.60   20.10
   2  10  21   10.90   16.70
  -2  10 -21  -15.10   32.20
  -4 -10 -21    9.90   63.39
   4 -10  21    6.40   41.30
  -4  10 -21   24.60   37.00
   4  10  21  -33.70   20.90
  -6 -10 -21   45.00   42.10
  -6 -10 -21   43.20   76.39
   6 -10  21   29.60   48.70
   6  10  21   46.60   25.70
  -6  10 -21   34.10   44.50
  -5 -11  21  -42.30   45.80
   5 -11 -21  -94.29   55.49
  -5 -11  21   27.20   24.30
  -5  11  21   14.40   24.30
  -5  11  21    1.00   21.40
  -3 -11  21   29.90   42.90
   3 -11 -21   51.99   60.19
  -3  11  21   -0.50   18.70
  -3  11  21   -1.20   23.90
   1 -11 -21    3.40   77.19
  -1 -11  21   54.79   39.60
  -1  11  21  -38.80   17.00
   1  11 -21   12.70   33.90
  -1  11  21   31.70   20.60
   1 -11  21   58.89   40.70
  -1 -11 -21   -8.70   82.29
   1  11  21   11.40   18.50
  -1  11 -21   88.99   33.90
   1  11  21  -10.90   21.30
   3 -11  21   53.99   41.80
  -3 -11 -21  178.28   69.69
  -3  11 -21   76.39   37.10
  -5 -11 -21   35.80   74.19
  -5 -11 -21  -12.20   47.90
   5 -11  21  -92.19   46.00
  -5  11 -21   26.20   41.10
   5  11  21   67.79   26.40
  -4 -12  21   97.89   49.90
   4 -12 -21   91.89   62.49
  -4  12  21   84.49   27.30
  -4  12  21   76.99   24.00
  -2 -12  21   60.39   48.90
   2 -12 -21  -57.49   66.29
  -2  12  21   60.59   20.70
  -2  12  21   42.10   24.40
   2  12 -21   88.49   37.70
   0 -12  21   -1.20   42.50
   0 -12 -21 -129.39   83.19
   0  12 -21   51.29   34.70
   0  12  21   11.50   22.60
   0  12  21  -23.40   19.20
   2 -12  21   29.80   44.50
  -2 -12 -21  -83.49   89.79
   2  12  21  -11.00   24.20
   2  12  21  -36.10   19.50
  -2  12 -21  -24.30   34.20
   4 -12  21  104.09   50.29
  -4 -12 -21 -160.48   81.19
   4  12  21  -11.60   24.20
  -4  12 -21   16.70   40.90
   4  12  21   68.59   22.30
  -3 -13  21  226.48   56.99
   3 -13 -21  243.88   78.29
  -3  13  21  356.06   44.10
  -3  13  21  228.88   32.30
   1 -13 -21   52.79   76.19
  -1 -13  21  161.88   50.49
   1  13 -21  123.19   38.90
  -1  13  21  107.99   29.00
  -1  13  21  118.19   25.70
  -1 -13 -21  -92.59   82.59
   1 -13  21   68.89   48.40
   1  13  21   98.09   28.50
   1  13  21  116.39   24.40
  -1  13 -21  122.39   37.70
  -3 -13 -21 -124.89   89.69
   3 -13  21  124.79   50.79
   3  13  21  118.19   26.30
  -3  13 -21  120.69   42.00
   3  13  21  150.48   30.60
   2 -14 -21  -79.49   84.49
  -2 -14  21  -22.20   53.19
  -2  14  21   84.89   28.20
   0 -14  21   95.59   52.29
   0 -14 -21   80.49   80.99
   0  14  21   39.70   27.50
   0  14 -21   89.49   40.70
   0  14  21   70.29   26.20
  -8   0  22  689.33   62.39
  -8   0  22  788.12   62.99
  -6   0  22  469.05   48.20
  -6   0  22  553.64   45.00
  -4   0  22   40.80   13.10
  -4   0  22   32.90   18.00
  -2   0  22    3.00   27.30
  -2   0  22  -15.50   22.10
   2   0 -22  -10.30   27.60
   2   0 -22   64.99   37.70
  -2   0  22    8.30   16.00
   0   0 -22  217.58   35.00
   0   0  22  252.87   31.00
   0   0  22  210.98   26.70
  -2   0 -22  366.86   61.99
   2   0  22  483.75   51.49
   2   0  22  509.65   42.20
   4   0  22  407.36   38.30
  -4   0 -22  338.97   59.09
   4   0  22  356.46   53.49
  -6   0 -22  433.86   67.59
   6   0  22  405.46   52.79
   6   0  22  403.26   44.30
  -8   0 -22  337.27   72.99
  -8   0 -22  288.77   62.89
   8   0  22  469.05   50.69
  -9  -1  22  -41.80   24.90
  -9  -1  22   17.10   25.70
  -9   1  22   -8.60   26.30
  -9   1  22  -53.49   21.80
  -7  -1  22   93.49   25.50
  -7  -1  22  116.09   21.50
  -7   1  22  134.59   21.60
  -7   1  22  122.89   26.50
  -5  -1  22  297.67   35.60
  -5  -1  22  401.86   35.20
  -5   1  22  278.87   36.40
  -5   1  22  304.17   33.50
  -3  -1  22  863.21   63.19
  -3  -1  22  824.72   68.09
  -3  -1  22  876.31   69.99
  -3   1  22  822.82   62.79
  -3   1  22  799.02   71.89
   3   1 -22  790.92   72.69
  -1  -1  22  690.53   54.29
  -1  -1  22  745.93   62.79
   1  -1 -22  721.93   63.79
   1   1 -22  722.83   67.99
  -1   1  22  675.03   59.09
  -1   1  22  700.63   54.79
   1  -1  22  807.72   57.59
   1  -1  22  768.82   66.09
   1   1  22  712.93   63.89
  -1   1 -22  712.43   85.09
   1   1  22  737.63   57.29
   3  -1  22  368.06   35.70
   3  -1  22  377.06   49.99
   3   1  22  334.27   35.90
   3   1  22  329.77   48.50
  -3   1 -22  350.56   54.59
   5  -1  22  133.79   36.30
   5  -1  22  237.08   31.90
  -5  -1 -22  116.89   54.59
  -5   1 -22  150.98   46.60
   5   1  22  234.78   27.60
   5   1  22  190.98   38.30
  -7  -1 -22   24.10   44.80
   7  -1  22   35.30   22.20
  -7  -1 -22  -60.59   56.99
  -7   1 -22  -36.70   47.10
  -7   1 -22   -3.40   40.90
   7   1  22   18.20   22.00
  -8  -2  22  386.76   43.30
  -8  -2  22  464.95   66.39
  -8  -2  22  426.46   44.90
  -8   2  22  345.67   42.40
  -8   2  22  305.57   45.00
  -6  -2  22  131.69   25.10
  -6  -2  22  170.48   21.40
  -6  -2  22  161.68   38.20
  -6   2  22  119.99   25.30
  -6   2  22  148.89   22.30
  -4  -2  22  185.48   26.00
  -4  -2  22  212.88   31.70
   4  -2 -22   48.90   56.79
  -4   2  22  229.08   29.90
  -4   2  22  160.68   29.60
  -4   2  22  201.88   27.50
  -2  -2  22   16.60   28.10
  -2  -2  22   18.70   23.30
  -2  -2  22  -18.60   14.50
   2  -2 -22   66.49   38.70
   2   2 -22  -22.00   36.10
  -2   2  22   21.40   15.10
   0  -2  22   84.09   26.80
   0  -2 -22   12.00   42.30
   0  -2  22   91.39   16.90
   0   2  22   85.39   18.20
   0   2  22   33.40   20.50
   0   2 -22   36.10   36.90
   2  -2  22  149.59   31.00
   2  -2  22  121.29   20.30
  -2  -2 -22   45.10   43.40
   2   2  22  135.39   27.60
   2   2  22  132.29   20.90
  -2   2 -22  129.49   37.60
   4  -2  22  276.57   34.40
   4  -2  22  296.07   43.00
   4   2  22  319.97   41.90
  -4   2 -22  253.17   49.80
   4   2  22  313.07   33.60
   6  -2  22  241.28   45.10
  -6  -2 -22  219.58   49.99
   6  -2  22  301.37   40.70
   6   2  22  269.57   32.40
  -6   2 -22  276.77   57.09
   8  -2  22  504.25   54.99
  -8  -2 -22  398.86   65.19
  -8   2 -22  440.06   65.09
   8   2  22  575.24   54.69
  -8   2 -22  455.35   76.19
  -9  -3  22   72.39   49.30
  -9  -3  22   60.09   27.90
  -9   3  22   46.60   29.70
  -9   3  22   91.39   23.90
  -7  -3  22   28.40   38.10
  -7  -3  22   75.79   23.00
  -7   3  22   21.20   24.50
  -7   3  22   62.69   20.60
  -5  -3  22  192.48   36.80
  -5  -3  22  246.58   29.50
  -5  -3  22  243.58   29.00
  -5   3  22  263.77   32.30
  -5   3  22  195.18   29.80
  -3  -3  22  380.36   36.90
  -3  -3  22  353.56   49.80
  -3   3  22  408.76   37.00
  -3   3  22  363.16   32.40
  -1  -3  22  109.59   19.00
  -1  -3  22   75.19   27.40
   1   3 -22  119.29   38.70
  -1   3  22  136.89   19.90
  -1  -3 -22  396.26   49.90
   1  -3  22  406.96   36.70
   1  -3  22  490.25   54.89
   1   3  22  347.77   43.30
   1   3  22  363.56   36.30
  -1   3 -22  444.46   60.99
   3  -3  22  200.48   35.40
   3  -3  22  167.38   23.20
  -3  -3 -22   38.00   46.30
   3   3  22  149.79   23.00
  -3   3 -22  204.58   43.80
  -5  -3 -22   41.60   38.40
   5  -3  22   82.79   34.70
   5  -3  22  122.39   22.50
  -5  -3 -22  -28.40   50.89
   5   3  22   86.19   21.40
  -5   3 -22   90.19   45.20
   7  -3  22   16.50   39.30
   7  -3  22   19.80   24.70
  -7  -3 -22  -13.60   42.20
  -7  -3 -22   -5.60   63.29
  -7   3 -22   49.60   49.90
   7   3  22   18.20   21.70
  -8  -4  22  -22.60   45.90
  -8  -4  22   37.70   24.90
  -8   4  22   31.00   22.20
  -8   4  22   23.80   26.20
   8   4 -22   -0.60   24.20
  -6  -4  22  178.48   26.80
  -6  -4  22   89.89   39.90
   6   4 -22  145.09   24.90
  -6   4  22  140.79   28.10
  -6   4  22  152.28   23.10
  -4  -4  22   56.99   31.20
  -4  -4  22   16.80   19.00
   4  -4 -22  -65.69   51.49
  -4   4  22    8.90   17.30
  -4   4  22   11.50   13.90
   2  -4 -22   26.00   44.10
  -2  -4  22   28.60   15.50
  -2  -4  22   13.50   26.50
   2   4 -22  -72.69   35.90
  -2   4  22    4.00   16.00
   0  -4  22   22.80   27.10
   0  -4  22   -0.60   14.40
   0  -4 -22   52.79   44.60
   0   4  22  -27.50   13.90
   0   4 -22   12.80   31.40
  -2  -4 -22    4.50   27.50
  -2  -4 -22   30.10   46.30
  -2  -4 -22  100.49   35.40
   2  -4  22   31.10   28.80
   2  -4  22   22.70   16.70
   2   4  22   21.20   17.40
  -2   4 -22   32.70   33.30
   4  -4  22   50.19   20.60
  -4  -4 -22  105.09   46.10
  -4  -4 -22  -28.90   49.99
   4  -4  22   83.49   34.00
  -4   4 -22   90.99   39.30
   4   4  22  112.79   22.60
  -6  -4 -22   15.10   60.39
   6  -4  22  183.08   27.90
  -6  -4 -22  133.89   39.50
   6  -4  22  134.59   43.60
   6   4  22  197.98   28.70
  -6   4 -22  214.98   49.90
   8  -4  22   72.49   45.70
   8  -4  22  105.29   30.10
  -8  -4 -22  134.99   48.20
   8   4  22   67.09   26.70
  -7  -5  22   16.80   22.70
  -7  -5  22  -49.40   39.60
  -7   5  22   -9.30   25.50
  -7   5  22  -14.80   20.10
   7   5 -22   18.10   22.60
  -5  -5  22  -10.60   36.30
  -5  -5  22   23.20   21.00
   5  -5 -22   64.99   45.40
   5   5 -22   20.00   19.90
  -5   5  22  -40.00   19.60
  -5   5  22   34.30   15.60
  -3  -5  22   20.80   31.10
  -3  -5  22   22.40   18.00
   3  -5 -22   -3.70   66.49
  -3   5  22    8.80   13.50
  -3   5  22   14.30   18.10
   1  -5 -22  -12.20   45.50
  -1  -5  22  -23.80   15.10
  -1  -5  22   14.50   27.60
   1   5 -22   -3.20   30.60
  -1   5  22    5.40   15.90
  -1  -5 -22   71.49   47.80
   1  -5  22  -12.20   15.20
   1  -5  22   -8.50   28.00
  -1   5 -22   31.90   31.40
   1   5  22   -4.50   15.60
  -3  -5 -22   38.60   48.50
   3  -5  22   48.70   18.60
  -3  -5 -22   49.60   26.90
   3  -5  22   91.29   34.10
  -3   5 -22  103.59   38.00
   3   5  22   69.09   19.50
  -5  -5 -22   74.89   59.99
  -5  -5 -22  -40.80   31.60
   5  -5  22  -14.50   20.30
   5  -5  22  -15.00   36.40
   5   5  22  -40.40   18.80
  -5   5 -22   -4.50   36.90
   7  -5  22   -1.80   40.90
   7  -5  22  -14.80   24.50
  -7  -5 -22   -4.30   39.60
  -7  -5 -22   24.10   70.59
  -7   5 -22   23.00   46.40
   7   5  22   60.19   25.40
  -8  -6  22  -12.50   23.70
  -8  -6  22    9.00   51.39
  -8   6  22  -42.20   21.10
   8   6 -22  -16.80   27.70
  -8   6  22    4.50   27.70
  -6  -6  22   55.89   40.30
  -6  -6  22   14.60   22.60
  -6   6  22   25.80   19.30
   6   6 -22   45.50   22.40
  -6   6  22   58.59   24.80
   4  -6 -22  -67.29   54.99
  -4  -6  22   48.10   32.50
  -4  -6  22   21.40   20.80
  -4   6  22   13.90   19.90
  -4   6  22   19.90   15.80
   2  -6 -22  -78.49   70.69
  -2  -6  22    1.60   16.20
  -2  -6  22   -9.40   30.40
   2   6 -22   -8.60   32.60
  -2   6  22   32.20   17.80
   2   6 -22   -8.80   32.10
  -2   6  22   21.80   14.10
   0  -6 -22   29.10   48.40
   0  -6  22   -7.50   29.40
   0  -6  22   19.10   15.90
   0   6 -22   31.50   30.40
   0   6  22   25.80   17.50
   2  -6  22   44.90   17.20
  -2  -6 -22   36.70   50.89
   2  -6  22   25.40   30.80
   2   6  22   51.19   18.40
  -2   6 -22   25.30   35.20
   4  -6  22    9.10   33.90
   4  -6  22   14.90   17.70
  -4  -6 -22   11.20   53.79
  -4  -6 -22   32.90   30.70
   4   6  22    6.00   18.40
  -4   6 -22   50.99   39.50
  -6  -6 -22   23.50   39.70
  -6  -6 -22   46.80   63.29
   6  -6  22   -2.40   39.20
   6  -6  22   51.09   22.90
  -6   6 -22  -63.19   43.20
   6   6  22   53.89   23.70
  -7  -7  22   29.70   26.60
  -7  -7  22   64.59   48.40
   7   7 -22  -16.40   24.60
  -7   7  22   17.00   21.20
  -7   7  22    0.70   27.20
  -5  -7  22   37.30   21.70
  -5  -7  22   14.00   39.80
   5  -7 -22  -65.19   50.39
  -5   7  22   25.30   19.00
   5   7 -22  -17.00   19.70
  -5   7  22   44.50   23.20
   3  -7 -22  293.97   74.09
  -3  -7  22  266.07   45.60
  -3  -7  22  247.58   32.00
  -3   7  22  258.37   29.20
  -3   7  22  285.07   33.90
  -1  -7  22    8.80   17.40
   1  -7 -22   64.49   63.39
  -1  -7  22   32.40   30.90
  -1   7  22   40.40   15.50
  -1   7  22   38.70   19.10
   1   7 -22   25.20   30.80
   1  -7  22  108.09   34.40
  -1  -7 -22   -9.70   51.29
   1  -7  22  158.18   21.20
   1   7  22  131.69   22.80
  -1   7 -22  133.29   37.50
  -3  -7 -22   -2.20   52.59
   3  -7  22  174.88   22.50
   3  -7  22  119.29   39.60
  -3  -7 -22   54.09   31.00
  -3   7 -22   95.29   37.40
   3   7  22  129.19   23.90
  -5  -7 -22   15.80   34.20
   5  -7  22  -27.00   20.50
   5  -7  22   22.60   42.20
  -5   7 -22    2.60   38.50
   5   7  22    5.00   21.90
   7  -7  22    7.90   45.10
  -7  -7 -22  -12.50   42.10
  -7  -7 -22  -61.99   73.19
   7  -7  22  -10.80   25.40
   7   7  22  -41.60   26.40
  -7   7 -22   -7.00   46.50
  -6  -8  22   35.30   25.20
  -6  -8  22   33.60   41.10
   6  -8 -22   42.40   53.69
  -6   8  22   48.90   21.40
  -6   8  22  -16.00   24.30
   6   8 -22   50.29   23.80
  -4  -8  22  178.28   26.40
   4  -8 -22  117.19   51.89
  -4  -8  22  154.28   43.80
  -4   8  22  171.38   27.80
  -4   8  22  191.28   24.30
   2  -8 -22 -133.69   74.39
  -2  -8  22   47.60   18.60
  -2  -8  22   -3.20   36.60
  -2   8  22    2.20   15.20
  -2   8  22    3.40   19.00
   2   8 -22   11.50   33.40
   0  -8  22    2.50   17.10
   0  -8 -22  106.89   60.79
   0  -8  22  -12.70   31.60
   0   8  22   -8.50   18.20
   0   8 -22    9.60   32.10
  -2  -8 -22  124.79   58.79
   2  -8  22   10.50   35.20
   2  -8  22  -10.90   17.00
   2   8  22    9.10   19.90
  -2   8 -22   34.80   34.90
   4  -8  22  371.36   58.29
  -4  -8 -22  396.26   48.60
   4  -8  22  377.86   39.90
  -4   8 -22  411.46   66.29
   4   8  22  369.96   42.80
  -6  -8 -22  160.68   42.60
   6  -8  22  118.29   27.20
   6  -8  22  163.38   49.10
  -6  -8 -22   39.50   72.49
   6   8  22  104.89   30.00
  -6   8 -22   83.09   43.50
  -7  -9  22  161.68   52.99
  -7  -9  22   50.09   28.40
   7   9 -22   51.39   29.30
  -7   9  22   70.69   29.90
  -5  -9  22  203.28   31.40
   5  -9 -22  265.57   56.29
  -5  -9  22  205.98   52.29
  -5   9  22  275.67   35.10
  -5   9  22  321.87   41.70
   3  -9 -22  419.26   74.19
  -3  -9  22  495.05   62.19
  -3  -9  22  392.76   41.00
  -3   9  22  396.46   44.30
  -3   9  22  421.36   41.10
  -1  -9  22  462.45   38.50
   1  -9 -22  358.56   96.99
  -1  -9  22  439.96   64.49
  -1   9  22  302.67   40.90
  -1   9  22  381.86   37.00
   1   9 -22  332.87   59.79
  -1  -9 -22  191.98   67.79
   1  -9  22  289.27   45.80
   1   9  22  185.08   25.10
  -1   9 -22  232.48   43.60
   1   9  22  254.97   31.10
   3  -9  22  337.27   53.99
  -3   9 -22  248.08   50.29
   3   9  22  289.47   35.00
   5  -9  22  269.27   50.49
  -5  -9 -22  278.37   46.20
   5   9  22  233.98   33.60
  -5   9 -22  199.78   48.70
  -6 -10  22  478.55   52.59
  -6 -10  22  546.95   79.29
   6 -10 -22  443.96   74.79
  -6  10  22  563.94   55.69
   6  10 -22  499.75   52.99
  -6  10  22  515.75   49.90
  -4 -10  22   31.10   45.70
  -4 -10  22   -2.90   22.50
  -4  10  22   -6.00   20.50
  -4  10  22  -30.90   21.50
   2 -10 -22   67.89   76.99
  -2 -10  22  153.18   44.40
  -2 -10  22  147.69   23.50
  -2  10  22  100.59   25.00
  -2  10  22  117.09   22.70
   2  10 -22  125.59   38.90
   0 -10  22   25.10   40.70
   0 -10 -22  -42.10   88.99
   0  10 -22   30.60   33.80
   0  10  22   11.60   18.60
   0  10  22   49.99   22.60
  -2 -10 -22  203.48   70.29
   2 -10  22  327.77   53.69
   2  10  22  290.57   35.40
  -2  10 -22  319.97   53.29
   2  10  22  316.17   40.40
  -4 -10 -22   35.60   68.69
   4 -10  22   95.19   45.10
   4  10  22   42.50   24.10
  -4  10 -22   94.89   45.20
   5 -11 -22  637.54   98.39
  -5 -11  22  509.15   54.99
  -5 -11  22  585.14   87.89
  -5  11  22  560.74   56.49
  -5  11  22  550.94   53.09
  -3 -11  22  245.68   56.99
   3 -11 -22  277.47   77.19
  -3  11  22  341.07   38.60
  -3  11  22  329.27   42.00
  -1 -11  22  492.55   76.69
   1 -11 -22  484.35  102.99
  -1  11  22  557.04   48.80
  -1  11  22  544.95   51.19
   1  11 -22  511.85   67.29
  -1 -11 -22  296.37  104.89
   1 -11  22  659.43   77.09
   1  11  22  536.15   53.99
  -1  11 -22  539.45   71.79
   1  11  22  566.74   48.80
   3 -11  22  185.58   49.40
  -3 -11 -22  187.18   75.69
   3  11  22  157.68   30.10
   3  11  22  161.08   26.30
  -3  11 -22  207.28   46.60
  -4 -12  22  199.08   58.79
   4 -12 -22  310.97   70.79
  -4  12  22  284.17   32.90
  -4  12  22  236.48   36.10
  -2 -12  22   -0.90   49.30
   2 -12 -22  -58.19   68.89
  -2  12  22   20.40   26.90
   2  12 -22   -2.10   41.90
  -2  12  22  -11.00   20.60
   0 -12  22  -35.30   45.00
   0 -12 -22 -162.58   87.29
   0  12 -22   15.40   37.10
   0  12  22   45.80   26.20
   0  12  22   14.20   21.50
  -2 -12 -22   14.50   96.39
   2 -12  22  131.19   49.40
  -2  12 -22  173.78   46.00
   2  12  22  122.79   26.00
   2  12  22  169.78   31.40
   3 -13 -22  331.77   83.99
   1 -13 -22  233.98   83.79
  -1 -13  22  164.28   56.29
   1  13 -22  249.78   48.80
  -1  13  22  211.68   35.10
  -1  13  22  192.78   30.10
  -1 -13 -22  213.78   94.89
   1 -13  22  179.28   53.69
   1  13  22  184.88   29.00
  -1  13 -22  252.47   47.80
   1  13  22  244.88   37.30
  -8   0  23  -12.40   26.70
  -8   0  23   28.40   24.20
  -6   0  23   12.60   16.40
  -6   0  23    7.20   21.90
  -4   0  23    8.60   14.00
  -4   0  23   41.80   19.40
   2   0 -23   10.30   39.90
  -2   0  23    8.00   22.30
  -2   0  23   14.70   15.90
   0   0  23   -5.00   14.90
   0   0 -23    3.20   42.10
   0   0  23    3.90   21.90
   2   0  23   -1.10   25.40
  -2   0 -23   39.00   46.10
   2   0  23  -16.40   16.60
  -4   0 -23  -47.90   47.70
   4   0  23   -3.70   30.80
   4   0  23   30.80   19.80
   6   0  23   41.70   24.40
  -6   0 -23    8.70   53.29
   6   0  23    0.90   37.70
  -7  -1  23  -25.00   23.10
  -7  -1  23  -10.00   20.00
  -7   1  23   21.50   20.20
  -7   1  23   -2.60   24.00
  -5  -1  23   16.70   20.40
  -5  -1  23   17.60   15.40
  -5   1  23   20.70   16.40
  -5   1  23   40.20   21.80
  -3  -1  23   52.59   28.50
   3  -1 -23   23.90   43.60
  -3  -1  23  115.39   28.20
  -3  -1  23   59.29   19.30
  -3   1  23   83.69   30.30
   3   1 -23    7.60   33.00
   3   1 -23  -21.50   43.80
  -3   1  23   63.99   17.50
   1  -1 -23   44.30   41.90
  -1  -1  23  125.59   27.40
  -1  -1  23  111.69   19.10
   1   1 -23   28.50   40.00
  -1   1  23   46.80   22.40
  -1   1  23   57.79   17.80
  -1  -1 -23   18.80   43.10
   1  -1  23  -15.70   24.60
   1  -1  23   12.20   15.30
  -1   1 -23  -59.39   40.00
   1   1  23    4.60   16.10
   1   1  23  -13.20   22.50
   3  -1  23    0.20   18.10
  -3  -1 -23  -25.20   47.70
   3  -1  23  -22.60   27.00
  -3   1 -23  -18.30   39.40
   3   1  23   13.70   28.50
   3   1  23  -18.50   16.80
   5  -1  23   41.30   20.90
   5  -1  23  -17.30   32.00
  -5  -1 -23   47.50   53.19
  -5   1 -23  -20.40   42.20
   5   1  23   49.60   19.50
   5   1  23   39.20   33.10
  -7  -1 -23    4.30   66.89
  -7  -1 -23    0.80   49.40
   7  -1  23   38.20   25.10
  -7   1 -23  -14.40   51.19
  -7   1 -23   19.30   42.70
   7   1  23   22.70   23.50
  -8  -2  23   68.69   26.30
  -8  -2  23   61.39   45.40
  -8  -2  23   57.09   24.60
  -8   2  23   22.60   28.40
  -8   2  23    6.10   23.50
  -6  -2  23   25.80   21.70
  -6  -2  23  -27.00   35.20
  -6  -2  23   12.70   16.60
  -6   2  23   15.10   23.40
  -6   2  23   14.60   17.70
  -4  -2  23   -2.60   18.60
   4  -2 -23 -116.89   60.59
  -4  -2  23   -6.70   29.90
  -4   2  23   -1.00   19.40
  -4   2  23   26.00   15.30
  -2  -2  23   -9.90   15.30
   2  -2 -23   86.29   43.70
  -2  -2  23  -30.60   24.90
  -2   2  23   23.70   16.50
   2   2 -23   -7.50   38.50
   0  -2 -23  151.58   30.50
   0  -2  23  216.48   26.10
   0  -2  23  121.99   32.00
   0   2 -23   85.79   47.00
   0   2  23  149.79   22.60
  -2  -2 -23  -25.30   46.80
   2  -2  23   83.69   20.30
   2  -2  23   70.59   31.30
   2   2  23   59.29   25.70
  -2   2 -23   50.59   38.50
   2   2  23   90.09   20.60
   4  -2  23  237.78   41.60
   4  -2  23  251.07   29.90
  -4   2 -23  297.17   52.09
   4   2  23  215.28   29.30
   4   2  23  241.28   41.40
   6  -2  23  222.58   31.10
   6  -2  23  196.58   45.10
  -6  -2 -23   26.20   63.79
  -6  -2 -23  183.58   50.19
   6   2  23  201.88   30.30
  -6   2 -23  192.58   53.39
  -7  -3  23  539.55   48.60
  -7  -3  23  456.65   49.00
  -7  -3  23  436.16   60.39
  -7   3  23  498.95   48.20
  -7   3  23  416.66   50.19
  -5  -3  23  155.88   39.60
  -5  -3  23  158.48   26.10
  -5   3  23  169.38   22.40
  -5   3  23  160.08   27.50
  -3  -3  23  717.73   67.59
  -3  -3  23  681.03   53.29
  -3   3  23  587.24   53.89
  -1  -3  23  381.96   37.00
  -1  -3  23  428.16   52.59
  -1   3  23  412.76   37.10
   1   3 -23  288.97   56.99
  -1  -3 -23   40.70   47.20
   1  -3  23   48.30   17.60
   1  -3  23   67.49   30.30
  -1  -3 -23   21.30   30.20
  -1   3 -23   57.59   38.10
   1   3  23   35.40   23.60
   1   3  23   53.59   18.00
  -3  -3 -23   19.10   53.29
   3  -3  23  157.98   23.60
   3  -3  23  136.79   35.80
  -3  -3 -23  133.29   42.10
  -3   3 -23   91.89   41.60
   3   3  23  124.19   23.00
  -5  -3 -23  -22.00   53.09
  -5  -3 -23  -31.80   51.69
   5  -3  23  -11.20   36.00
   5  -3  23   10.30   20.00
  -5   3 -23    4.20   44.50
   5   3  23    5.40   19.60
   7  -3  23   15.80   26.00
  -7  -3 -23   60.69   45.80
  -7  -3 -23   99.69   69.49
   7  -3  23  -46.30   41.20
   7   3  23   31.80   24.60
  -7   3 -23   90.69   54.59
  -8  -4  23  108.39   28.20
  -8  -4  23  155.78   45.20
  -8   4  23  106.79   26.10
  -8   4  23  158.98   32.10
   8   4 -23   81.99   29.60
  -6  -4  23  128.99   44.70
  -6  -4  23   60.89   26.10
  -6   4  23  155.58   23.10
  -6   4  23   97.59   27.00
   4  -4 -23  -30.10   58.79
  -4  -4  23   18.70   20.00
  -4   4  23    0.10   19.30
  -4   4  23   27.50   14.50
   2  -4 -23   24.80   48.30
  -2  -4  23   46.70   32.20
  -2  -4  23   50.39   19.40
   2   4 -23   21.00   34.80
  -2   4  23   41.00   17.40
   2   4 -23   39.60   40.80
   0  -4  23  134.79   20.50
   0  -4  23  122.49   33.30
   0  -4 -23   56.89   48.00
   0   4  23  137.09   23.10
   0   4 -23   86.29   35.30
   2  -4  23  532.45   66.29
   2  -4  23  465.65   45.00
  -2   4 -23  573.64   74.99
   2   4  23  495.95   46.60
   4  -4  23  474.15   66.89
   4  -4  23  416.46   43.50
  -4  -4 -23  451.75   67.19
   4   4  23  408.66   43.50
  -4   4 -23  428.96   75.69
  -6  -4 -23  238.38   50.69
   6  -4  23  350.36   54.19
   6  -4  23  366.76   44.00
  -6   4 -23  254.77   60.09
   6   4  23  343.77   44.20
  -7  -5  23  172.28   31.20
  -7  -5  23   83.59   45.60
   7   5 -23  115.29   30.30
  -7   5  23  158.78   30.00
  -7   5  23  139.99   24.70
   5  -5 -23  615.84   93.09
  -5  -5  23  880.41   67.29
  -5  -5  23  890.61   81.39
  -5   5  23  845.12   63.89
   5   5 -23  892.81   64.89
  -5   5  23  827.02   67.99
  -3  -5  23  406.16   58.79
   3  -5 -23  299.57   84.29
  -3  -5  23  400.66   39.40
  -3   5  23  387.96   36.20
  -3   5  23  440.56   41.30
  -1  -5  23  544.95   61.89
  -1  -5  23  499.55   45.80
   1   5 -23  597.34   66.99
  -1   5  23  503.65   45.50
   1  -5  23  391.06   59.59
   1  -5  23  403.56   37.70
   1   5  23  390.66   38.60
  -1   5 -23  342.07   52.89
   3  -5  23   43.70   34.20
  -3  -5 -23   42.70   30.00
   3  -5  23    4.20   18.50
  -3  -5 -23  -86.59   50.89
   3   5  23  -36.30   19.00
  -3   5 -23   30.60   38.90
   5  -5  23   17.30   22.30
   5  -5  23   68.99   41.20
  -5  -5 -23  -64.69   59.99
  -5  -5 -23   52.79   34.40
  -5   5 -23   14.60   43.00
   5   5  23   34.80   20.70
  -7  -5 -23   45.50   44.00
   7  -5  23  112.29   45.70
  -7  -5 -23  -11.50   71.59
   7  -5  23   99.99   29.30
  -7   5 -23   78.69   53.99
   7   5  23   65.49   25.30
  -6  -6  23  120.19   28.30
  -6  -6  23   70.09   47.90
  -6   6  23   79.09   28.20
   6   6 -23   93.99   25.00
  -6   6  23   93.59   21.10
  -4  -6  23   51.99   22.20
   4  -6 -23  -12.90   59.69
  -4  -6  23   21.00   39.20
  -4   6  23   56.89   23.50
  -4   6  23   42.20   17.90
  -2  -6  23   26.30   19.10
  -2  -6  23   75.59   36.80
   2  -6 -23  215.58   80.79
  -2   6  23   40.90   16.60
   2   6 -23   25.40   35.50
  -2   6  23   50.79   19.90
   0  -6  23  325.07   35.30
   0  -6  23  340.97   47.30
   0   6 -23  359.06   62.69
   0   6  23  315.67   36.90
   2  -6  23  558.64   71.99
   2  -6  23  558.94   49.40
  -2   6 -23  595.44   74.79
   2   6  23  584.44   51.19
   4  -6  23  705.23   85.19
   4  -6  23  712.33   59.49
  -4  -6 -23  604.34   75.09
   4   6  23  780.32   60.89
  -4   6 -23  834.12   89.99
  -6  -6 -23  577.74   88.49
   6  -6  23  702.83   89.19
   6  -6  23  914.21   67.19
   6   6  23  737.43   68.89
  -6   6 -23  829.72   98.49
  -7  -7  23  649.24   59.59
  -7  -7  23  626.64   82.99
   7   7 -23  607.64   60.19
  -7   7  23  568.44   55.39
  -7   7  23  633.94   60.19
  -5  -7  23  263.97   49.20
  -5  -7  23  131.29   28.00
  -5   7  23  198.78   30.40
  -5   7  23  186.88   25.90
  -3  -7  23  469.75   48.40
   3  -7 -23  558.54   89.79
  -3  -7  23  646.04   72.69
  -3   7  23  554.74   49.99
  -3   7  23  560.14   45.50
   1  -7 -23  326.97   80.29
  -1  -7  23  428.26   62.99
  -1  -7  23  434.26   41.70
   1   7 -23  477.25   64.29
  -1   7  23  453.25   39.50
  -1   7  23  458.15   44.10
   1  -7  23  124.89   38.40
   1  -7  23  137.59   21.30
  -1  -7 -23   31.10   57.09
  -1   7 -23   82.99   39.90
   1   7  23  122.19   24.50
   3  -7  23  294.97   31.00
  -3  -7 -23  214.28   41.90
   3  -7  23  278.57   48.40
  -3   7 -23  213.38   51.19
   3   7  23  268.47   36.90
  -5  -7 -23   27.40   69.39
   5  -7  23    7.80   22.50
   5  -7  23   -8.70   43.10
  -5  -7 -23    9.10   36.40
  -5   7 -23   39.80   44.60
   5   7  23   23.00   24.50
  -6  -8  23   66.69   52.49
   6  -8 -23   72.79   57.79
  -6  -8  23   35.50   27.00
   6   8 -23   24.40   25.80
  -6   8  23   31.80   21.30
  -6   8  23   19.50   26.10
   4  -8 -23   53.39   55.69
  -4  -8  23   33.00   45.80
  -4  -8  23   24.90   22.30
  -4   8  23   47.90   18.70
  -4   8  23    0.20   22.70
  -2  -8  23   98.39   21.90
   2  -8 -23  189.98   82.59
  -2  -8  23   57.19   41.10
  -2   8  23  130.59   21.50
  -2   8  23   93.59   24.30
   2   8 -23   74.59   39.60
   0  -8  23  106.59   38.00
   0  -8 -23  148.69   67.49
   0  -8  23  101.29   20.30
   0   8  23  109.39   24.50
   0   8 -23   84.69   39.40
   2  -8  23   78.69   20.20
   2  -8  23  110.59   41.30
  -2  -8 -23   40.20   58.59
   2   8  23  104.39   24.70
  -2   8 -23  110.19   41.30
   4  -8  23  299.67   54.49
   4  -8  23  356.26   39.20
  -4  -8 -23  329.07   44.90
   4   8  23  296.17   41.10
  -4   8 -23  293.07   55.59
   5  -9 -23  189.78   58.99
  -5  -9  23  133.89   28.60
  -5  -9  23  125.49   52.89
  -5   9  23  152.88   31.50
  -5   9  23  167.58   25.90
  -3  -9  23  257.17   54.59
   3  -9 -23  187.68   67.89
  -3  -9  23  284.47   36.10
  -3   9  23  312.47   35.50
  -1  -9  23   67.29   19.80
  -1  -9  23   88.79   40.20
   1  -9 -23 -156.98   87.59
   1   9 -23   -3.20   41.20
  -1   9  23   29.90   22.30
  -1   9  23   63.99   19.20
   1  -9  23  170.18   46.00
   1  -9  23  216.38   26.60
  -1  -9 -23  157.68   68.89
  -1   9 -23  159.88   41.00
   1   9  23  201.18   29.80
  -3  -9 -23  150.08   69.29
   3  -9  23  -54.79   43.30
  -3   9 -23  -24.30   39.00
   3   9  23    7.90   23.60
   5  -9  23  100.29   48.40
  -5  -9 -23  -99.59   70.69
  -5  -9 -23   24.10   41.40
  -5   9 -23  -16.80   44.40
   5   9  23   -2.00   24.80
  -4 -10  23   10.40   44.60
   4 -10 -23 -105.29   65.09
  -4 -10  23   -7.40   23.80
  -4  10  23  -39.60   22.30
  -4  10  23  -15.10   25.60
  -2 -10  23   60.49   44.90
  -2  10  23   42.70   21.50
  -2  10  23   34.90   23.90
   2  10 -23  -57.39   41.70
   0 -10  23  -19.80   41.40
   0 -10 -23 -157.98   95.39
   0  10  23    3.50   19.80
   0  10 -23   38.10   38.10
   0  10  23   29.30   24.00
   2 -10  23   71.89   45.60
  -2 -10 -23  272.27   76.49
  -2  10 -23   46.70   40.50
   2  10  23   50.19   24.40
  -4 -10 -23   44.30   74.89
   4 -10  23   50.29   48.90
   4  10  23  -12.70   25.50
  -4  10 -23    0.20   44.20
  -3 -11  23   40.20   49.10
  -3 -11  23   41.40   24.60
   3 -11 -23  -43.40   69.19
  -3  11  23    9.70   25.90
  -3  11  23   12.60   23.20
  -1 -11  23  132.49   50.39
  -1  11  23   58.69   21.60
   1  11 -23   11.70   39.80
  -1  11  23   55.29   24.80
   1 -11  23   32.00   43.50
  -1 -11 -23 -214.58   97.49
   1  11  23   49.10   26.60
   1  11  23    1.80   21.40
  -1  11 -23   58.39   42.60
  -3 -11 -23  113.99   85.79
   3 -11  23   10.10   50.19
  -3  11 -23  -30.60   44.40
   3  11  23  -30.10   25.20
  -2 -12  23   42.00   50.79
   2 -12 -23   42.60   75.69
  -2  12  23   56.79   23.30
  -2  12  23   88.09   29.20
   0 -12  23  -24.30   51.69
   0 -12 -23 -126.49   90.29
   0  12  23    9.80   26.00
   0  12  23  -13.80   22.90
   0  12 -23  -31.40   43.50
  -2 -12 -23   24.00  100.89
   2 -12  23   -9.30   52.79
  -8   0  24   51.59   31.70
  -6   0  24  192.68   30.90
  -6   0  24  264.57   33.50
  -4   0  24  254.77   34.40
  -2   0  24  414.96   52.89
  -2   0  24  522.05   43.30
   0   0  24  758.22   58.59
   0   0  24  727.53   69.79
   2   0  24 1757.92  129.09
   2   0  24 1720.83  121.59
  -4   0 -24  202.58   63.49
   4   0  24  292.47   32.00
   4   0  24  228.38   42.10
   6   0  24  400.76   46.50
  -6   0 -24  368.96   67.69
  -6   0 -24  249.78   70.99
  -7  -1  24  306.07   38.30
  -7  -1  24  216.38   34.10
  -7   1  24  313.27   38.40
  -7   1  24  228.78   34.30
  -5  -1  24  485.25   50.69
  -5  -1  24  609.84   47.00
  -5   1  24  505.35   51.59
  -5   1  24  574.24   47.10
  -3  -1  24  291.27   40.60
  -3  -1  24  347.97   34.50
  -3   1  24  253.97   35.80
  -1  -1  24  388.56   38.40
  -1  -1  24  353.36   53.39
  -1   1  24  426.46   38.40
  -1  -1 -24   -8.90   48.30
   1  -1  24    9.00   16.10
   1  -1  24   25.60   31.10
   1   1  24   29.30   26.70
  -1   1 -24  -37.20   46.20
   1   1  24   16.30   16.80
  -3  -1 -24   42.90   54.69
   3  -1  24   50.29   34.20
   3  -1  24   84.99   22.20
  -3   1 -24   96.79   51.59
   3   1  24   68.69   33.20
   3   1  24   69.69   21.20
  -5  -1 -24   -9.80   58.19
   5  -1  24  134.79   24.80
   5  -1  24   57.49   40.10
  -5   1 -24   29.00   49.90
  -7  -1 -24  247.18   62.69
   7  -1  24  402.96   46.60
  -7  -1 -24  130.89   80.39
  -7   1 -24  201.08   69.49
   7   1  24  287.87   36.70
  -7   1 -24  317.47   70.59
  -6  -2  24   94.49   23.80
  -6  -2  24  157.48   27.60
  -6  -2  24  132.79   42.20
  -6   2  24  107.89   29.00
  -6   2  24  130.29   21.60
  -4  -2  24   45.30   22.40
  -4  -2  24   79.39   35.20
  -4   2  24   43.70   21.40
  -4   2  24   57.49   16.40
   2  -2 -24   61.99   46.30
  -2  -2  24  176.08   24.60
  -2  -2  24  182.68   34.90
  -2   2  24  250.77   27.90
   0  -2  24  589.34   66.59
   0  -2  24  594.04   48.50
   0   2  24  454.55   54.99
   0   2  24  623.64   48.70
  -2  -2 -24  -17.40   51.19
   2  -2  24   78.39   35.00
   2  -2  24   92.19   22.20
   2   2  24   82.29   22.10
   2   2  24  121.59   30.40
  -2   2 -24   73.09   44.10
   4  -2  24  511.45   70.99
   4  -2  24  568.84   51.39
   4   2  24  515.35   49.99
  -4   2 -24  607.54   85.39
   6  -2  24  158.58   46.60
   6  -2  24  196.98   31.90
  -6  -2 -24  133.69   50.19
  -6   2 -24  173.48   55.19
   6   2  24  162.88   30.10
  -7  -3  24  507.45   65.39
  -7  -3  24  588.44   51.39
  -7  -3  24  502.95   54.39
  -7   3  24  626.34   52.19
  -7   3  24  485.65   55.79
  -5  -3  24   33.80   39.30
  -5  -3  24   14.90   23.50
  -5   3  24   63.79   25.90
  -5   3  24   47.00   18.40
  -3  -3  24  254.17   33.50
  -3  -3  24  262.87   42.90
   3  -3 -24  167.58   58.69
  -3   3  24  264.87   34.40
  -3   3  24  247.68   29.80
   1  -3 -24   96.99   46.70
  -1  -3  24  144.69   23.70
  -1  -3  24  179.98   38.10
  -1   3  24  167.48   24.40
   1   3 -24   44.40   45.00
   1  -3  24    5.60   17.20
   1  -3  24  -27.00   30.70
  -1  -3 -24   19.40   50.29
   1   3  24   -2.10   17.80
  -1   3 -24  -46.60   38.90
   1   3  24   14.80   24.10
  -3  -3 -24   94.99   45.40
  -3  -3 -24   28.20   56.89
   3  -3  24    6.80   19.60
   3  -3  24   17.90   35.00
   3   3  24   16.70   20.30
  -3   3 -24   24.90   41.20
   5  -3  24   88.39   43.90
  -5  -3 -24  171.18   58.49
   5  -3  24  111.49   24.80
  -5  -3 -24   68.79   62.59
  -5   3 -24   78.99   50.79
   5   3  24  113.19   24.40
  -6  -4  24   29.20   42.80
  -6  -4  24   38.60   25.70
  -6  -4  24   10.00   23.10
  -6   4  24   25.80   26.10
  -6   4  24   20.00   20.60
  -4  -4  24    1.10   21.40
  -4  -4  24   10.60   36.70
   4  -4 -24   70.29   64.79
  -4   4  24   18.10   16.50
  -4   4  24    9.00   21.30
  -2  -4  24  100.39   34.50
   2  -4 -24   21.70   52.19
  -2  -4  24   81.59   21.30
  -2   4  24   80.79   21.60
   2   4 -24   82.09   45.70
   0  -4 -24   17.60   50.89
   0  -4  24   57.49   19.50
   0  -4  24   57.09   33.70
   0   4 -24   77.09   40.90
   0   4  24   88.99   20.70
  -2  -4 -24  115.69   47.20
   2  -4  24  191.88   40.80
   2  -4  24  135.49   25.40
  -2   4 -24  194.18   49.20
   2   4  24  181.08   26.30
  -4  -4 -24   93.49   51.09
   4  -4  24  108.19   25.50
   4  -4  24   82.59   39.70
  -4  -4 -24   41.70   60.99
  -4   4 -24  151.68   47.60
   4   4  24   56.69   24.30
  -6  -4 -24  -37.40   40.30
   6  -4  24   74.49   27.70
   6  -4  24   33.60   42.90
  -6  -4 -24  -30.00   70.09
   6   4  24   55.69   26.80
  -6   4 -24  -30.00   50.49
  -7  -5  24   30.10   51.59
  -7  -5  24    2.20   27.20
  -7   5  24  -38.30   29.80
   7   5 -24  -36.70   26.60
  -7   5  24   15.10   21.60
   5  -5 -24  -12.30   52.49
  -5  -5  24   64.59   42.70
  -5  -5  24   53.49   24.50
  -5   5  24   74.19   19.20
  -5   5  24   81.79   26.70
  -3  -5  24   29.70   38.10
   3  -5 -24 -151.88   76.39
  -3  -5  24   20.80   21.00
  -3   5  24   -9.20   19.80
  -3   5  24    5.90   15.80
   1  -5 -24  -10.40   52.19
  -1  -5  24  -25.70   32.50
  -1  -5  24  -26.30   18.00
   1   5 -24   28.50   39.30
  -1   5  24   -0.50   19.20
   1  -5  24   25.10   35.10
  -1  -5 -24   54.49   53.99
   1  -5  24   12.80   18.90
   1   5  24   45.80   20.10
  -1   5 -24    4.00   41.40
  -3  -5 -24   65.19   57.09
   3  -5  24   35.00   36.90
  -3  -5 -24   38.40   32.80
   3   5  24   10.40   22.20
  -3   5 -24   97.49   45.40
   5  -5  24   41.80   41.00
   5  -5  24   24.10   24.70
  -5  -5 -24  -44.80   62.69
  -5  -5 -24   13.30   38.90
  -5   5 -24   -7.00   46.20
   5   5  24   17.00   22.90
  -6  -6  24  -60.19   48.40
  -6  -6  24  -15.00   26.60
   6   6 -24   40.50   24.70
  -6   6  24   35.20   21.00
  -6   6  24    1.00   25.90
  -4  -6  24   30.30   40.40
  -4  -6  24  -11.20   21.90
   4  -6 -24   -1.30   62.89
  -4   6  24    9.80   23.60
  -4   6  24   48.20   17.90
   2  -6 -24  -50.49   77.99
  -2  -6  24   19.60   37.90
  -2  -6  24   34.40   21.00
   2   6 -24   32.00   42.00
  -2   6  24   39.70   21.40
   0  -6 -24   51.29   56.79
   0  -6  24   31.50   37.20
   0  -6  24  -11.90   18.30
   0   6  24   29.10   21.20
   0   6 -24   46.80   38.70
   2  -6  24   -8.60   38.50
   2  -6  24  -13.80   19.70
  -2  -6 -24   89.59   58.09
   2   6  24   28.20   21.00
  -2   6 -24  -22.90   39.60
  -4  -6 -24   12.60   65.69
  -4  -6 -24   35.40   35.80
   4  -6  24  -10.90   42.80
   4  -6  24   23.20   21.40
  -4   6 -24   75.89   46.40
   4   6  24   49.40   22.80
   6  -6  24   12.70   48.20
  -6  -6 -24   49.70   72.39
  -5  -7  24   64.09   25.60
   5  -7 -24   14.10   63.69
  -5  -7  24   38.60   46.00
  -5   7  24   60.19   26.20
  -5   7  24    8.40   20.00
   3  -7 -24   -2.50   74.19
  -3  -7  24   15.40   21.00
  -3  -7  24  108.39   43.30
  -3   7  24   27.90   17.70
  -3   7  24   33.00   23.80
   1  -7 -24   75.09   82.79
  -1  -7  24  109.79   21.30
  -1  -7  24   42.30   37.80
  -1   7  24   49.40   21.90
   1   7 -24   28.50   42.70
   1  -7  24   11.40   18.50
  -1  -7 -24   97.99   64.59
   1  -7  24    0.70   38.90
   1   7  24  -14.60   21.80
  -1   7 -24   24.10   41.50
   3  -7  24  -49.20   40.80
  -3  -7 -24   43.90   60.99
   3  -7  24  -17.20   20.60
  -3   7 -24    5.70   42.70
   3   7  24  -21.10   22.00
  -5  -7 -24   39.10   42.80
  -5  -7 -24  141.19   74.49
   5  -7  24    6.20   46.60
   5  -7  24   24.60   25.30
   5   7  24   37.30   26.40
  -5   7 -24  -14.00   48.20
   4  -8 -24   36.90   58.79
  -4  -8  24   39.20   49.90
  -4  -8  24  111.99   26.40
  -4   8  24  123.79   28.00
  -4   8  24  152.68   23.60
  -2  -8  24    1.70   41.50
   2  -8 -24  -32.70   83.99
  -2  -8  24   39.20   19.80
   2   8 -24   70.09   44.30
  -2   8  24   43.60   23.90
  -2   8  24   21.70   18.00
   0  -8 -24  119.59   75.59
   0  -8  24  246.38   28.10
   0  -8  24  227.38   47.30
   0   8 -24  254.87   46.80
   0   8  24  281.37   33.40
   2  -8  24  306.17   36.30
   2  -8  24  282.97   50.69
   2   8  24  299.47   39.90
  -2   8 -24  149.79   52.99
  -4  -8 -24    2.40   68.09
   4  -8  24  283.97   50.49
   4  -8  24  166.58   27.80
  -4  -8 -24  238.28   43.40
  -4   8 -24  124.19   51.69
   4   8  24  144.49   29.00
  -5  -9  24  219.38   34.00
  -5  -9  24  346.37   59.69
   5  -9 -24  194.88   59.19
  -5   9  24  263.27   34.80
  -5   9  24  262.67   36.40
   3  -9 -24   92.89   66.29
  -3  -9  24  125.49   51.99
  -3  -9  24  163.58   27.50
  -3   9  24  134.99   24.20
  -3   9  24  157.18   29.50
  -1  -9  24  261.77   34.40
   1  -9 -24   18.10  104.69
  -1  -9  24  133.89   49.50
  -1   9  24  205.48   31.20
   1   9 -24  183.78   48.30
  -1   9  24  258.87   32.70
   1  -9  24   38.10   42.80
   1   9  24   39.80   24.60
  -1   9 -24   50.89   41.00
   3  -9  24   28.20   24.30
   3  -9  24   59.99   47.60
  -3  -9 -24  178.38   71.49
  -3   9 -24  125.39   47.80
   3   9  24   41.60   26.70
   4 -10 -24  -15.10   73.59
  -4 -10  24  132.89   28.80
  -4 -10  24   -7.40   52.39
  -4  10  24   96.79   29.70
   2 -10 -24   36.80   86.89
  -2 -10  24  254.37   57.29
  -2 -10  24  263.67   31.20
  -2  10  24  358.26   42.20
  -2  10  24  268.37   36.90
   2  10 -24  109.99   63.99
   0 -10 -24  133.09  112.79
   0 -10  24  377.56   57.79
   0  10  24  377.76   40.60
   0  10 -24  358.16   55.19
   0  10  24  325.97   45.40
   2 -10  24  701.13   89.99
   2  10  24  645.54   62.29
  -2  10 -24  745.13   87.49
  -1 -11  24   42.70   48.60
   1 -11 -24   53.49   98.39
   1  11 -24  149.69   50.49
  -1  11  24  129.79   25.00
  -1  11  24   99.49   27.50
  -1 -11 -24  -72.99  103.89
   1 -11  24  -40.50   48.10
   1  11  24   22.60   26.60
   1  11  24  -34.10   22.00
  -1  11 -24    9.50   42.70
  -6   0  25    6.70   19.00
  -6   0  25  -12.80   25.90
  -4   0  25  -34.10   20.20
  -2   0  25  -45.10   18.90
  -2   0  25    4.30   28.70
   2   0 -25    6.00   52.09
   0   0  25  -37.60   18.00
   0   0  25    1.30   29.10
   0   0 -25  -12.80   49.40
  -2   0 -25   -7.80   54.99
   2   0  25    2.20   19.30
   2   0  25   34.90   32.20
   4   0  25  -48.80   22.30
  -4   0 -25   36.10   59.69
   4   0  25  -39.20   37.60
  -6   0 -25  -65.29   61.89
   6   0  25   49.50   26.70
  -6   0 -25   32.70   66.19
  -7  -1  25   12.20   27.30
  -7  -1  25  -21.60   20.70
  -7   1  25   10.10   28.20
  -7   1  25   29.40   23.60
  -5  -1  25  -13.70   23.10
  -5  -1  25  -26.40   18.80
  -5   1  25   -8.00   18.00
  -5   1  25  -11.10   24.10
  -3  -1  25   50.59   33.10
  -3  -1  25   73.29   21.90
   3  -1 -25   26.70   53.39
  -3   1  25   37.50   21.00
   3   1 -25   61.09   49.20
   1  -1 -25  -18.90   49.80
  -1  -1  25    1.40   29.50
  -1  -1  25   68.19   19.80
  -1   1  25   28.80   26.70
  -1   1  25   31.90   20.70
   1   1 -25  -60.59   46.00
   1  -1  25   35.30   31.30
  -1  -1 -25   62.99   54.59
   1  -1  25  -11.10   19.00
   1   1  25   -3.60   29.40
   1   1  25   32.60   20.00
  -1   1 -25  -68.89   50.09
   3  -1  25   18.50   21.50
  -3  -1 -25  -26.30   57.49
   3  -1  25   41.80   36.50
   3   1  25   17.00   33.90
   3   1  25   38.70   22.00
  -3   1 -25   43.40   56.09
   5  -1  25  127.49   25.30
  -5  -1 -25   89.79   58.19
  -5  -1 -25  -73.09   60.89
   5  -1  25   57.99   43.00
   5   1  25  122.19   26.20
  -5   1 -25  122.49   61.19
  -6  -2  25   14.00   40.90
  -6  -2  25  112.09   21.50
  -6  -2  25   94.39   28.60
  -6   2  25   67.39   28.30
  -6   2  25  100.89   23.60
  -4  -2  25   73.49   22.40
  -4  -2  25   70.29   39.10
  -4   2  25   73.19   18.80
  -4   2  25   56.89   24.10
   2  -2 -25  118.69   53.99
  -2  -2  25  210.48   41.50
  -2  -2  25  261.57   31.80
  -2   2  25  189.28   27.80
   0  -2 -25    5.90   49.90
   0  -2  25  104.89   22.00
   0  -2  25   71.89   34.10
   0   2  25   65.49   20.70
   0   2 -25   39.70   48.90
  -2  -2 -25   15.20   56.69
   2  -2  25   33.70   33.20
   2  -2  25   36.20   21.40
   2   2  25   56.39   32.10
  -2   2 -25   39.60   51.19
   2   2  25   47.00   20.70
  -4  -2 -25   11.80   58.09
   4  -2  25   96.29   25.10
  -4  -2 -25  190.48   53.99
   4  -2  25  117.29   40.50
  -4   2 -25   91.19   54.19
   4   2  25  108.49   26.30
   6  -2  25   18.40   26.90
   6  -2  25   18.30   46.80
  -6  -2 -25  -96.79   65.49
  -6  -2 -25  100.29   69.99
   6   2  25   10.10   27.00
  -6   2 -25   16.30   56.69
  -7  -3  25  406.06   63.79
  -5  -3  25  151.78   29.80
  -5  -3  25  162.98   44.40
  -5   3  25  185.08   29.60
  -5   3  25  194.58   23.80
  -3  -3  25  -15.70   35.60
  -3  -3  25   -0.30   20.50
   3  -3 -25  -69.29   58.69
  -3   3  25   27.70   21.60
  -1  -3  25  -12.70   33.50
   1  -3 -25   91.29   50.49
  -1  -3  25   54.99   19.80
  -1   3  25   75.19   20.70
   1   3 -25   52.89   50.79
  -1  -3 -25   35.60   54.79
   1  -3  25  151.28   24.70
   1  -3  25  120.09   39.00
   1   3  25   90.19   22.80
  -1   3 -25   70.29   50.69
   3  -3  25   26.40   21.40
  -3  -3 -25  124.39   50.79
   3  -3  25   53.19   38.40
  -3  -3 -25  -34.40   58.39
  -3   3 -25   30.80   46.00
   3   3  25  -18.10   21.60
  -5  -3 -25   15.40   67.09
  -5  -3 -25  191.88   62.89
   5  -3  25  181.28   48.10
   5  -3  25  161.78   28.60
   5   3  25  115.09   26.00
  -5   3 -25  176.98   54.49
  -6  -4  25  112.39   31.10
  -6  -4  25  182.38   24.20
  -6  -4  25  164.48   49.90
  -6   4  25  114.79   24.60
  -6   4  25  102.09   30.40
  -4  -4  25  439.96   59.49
  -4  -4  25  555.94   47.80
  -4   4  25  498.15   44.50
  -4   4  25  429.56   49.40
  -2  -4  25  424.96   60.99
  -2  -4  25  339.97   37.90
  -2   4  25  272.87   38.70
   0  -4  25  391.86   41.20
   0  -4  25  421.06   50.99
   0   4 -25  303.27   57.99
   0   4  25  366.96   40.90
   2  -4  25  369.06   50.69
   2  -4  25  347.27   42.10
   2   4  25  329.87   42.70
  -2   4 -25  502.55   77.69
  -4  -4 -25  305.07   57.49
   4  -4  25  202.28   47.30
   4  -4  25  216.98   30.40
  -4   4 -25  179.98   55.69
   4   4  25  146.79   30.00
   5  -5 -25  194.88   86.69
  -5  -5  25  202.18   51.79
  -5  -5  25  226.68   33.10
  -5   5  25  204.88   28.00
  -5   5  25  223.38   34.00
  -3  -5  25   46.30   22.70
  -3  -5  25   66.39   40.00
  -3   5  25   77.89   19.20
  -3   5  25   88.29   23.40
  -1  -5  25   33.80   20.40
  -1  -5  25   77.79   38.60
   1  -5 -25   30.70   56.39
  -1   5  25   16.50   21.70
   1   5 -25  -36.40   45.50
   1  -5  25    3.80   20.30
   1  -5  25   -9.20   39.20
  -1  -5 -25   38.50   59.39
   1   5  25   20.70   21.20
  -1   5 -25   25.40   40.50
   3  -5  25  230.18   48.60
   3  -5  25  299.77   38.90
  -3   5 -25  221.98   55.39
   3   5  25  215.08   31.30
   5  -5  25  346.37   56.19
  -5  -5 -25  248.18   54.09
   5  -5  25  359.86   47.10
  -5   5 -25  296.17   65.09
   5   5  25  370.66   46.40
  -6  -6  25   22.10   28.50
  -6  -6  25  145.19   53.09
  -6   6  25  124.99   30.40
  -4  -6  25  425.46   44.70
  -4  -6  25  564.44   75.49
  -4   6  25  399.76   41.80
  -4   6  25  389.26   45.90
   2  -6 -25  429.16  110.49
  -2  -6  25  724.53   56.99
  -2  -6  25  690.23   77.89
  -2   6  25  696.43   54.09
  -2   6  25  627.04   57.89
   2   6 -25  663.43   94.49
   0  -6  25  362.96   40.30
   0  -6  25  373.06   57.09
   0   6 -25  343.47   56.69
   0   6  25  321.27   41.00
   2  -6  25  512.45   65.49
   2  -6  25  579.24   49.80
  -2   6 -25  593.14   86.39
   2   6  25  453.55   51.19
   4  -6  25  521.35   51.19
  -4  -6 -25  375.36   58.09
   4  -6  25  559.24   83.19
  -4   6 -25  543.45   88.49
   4   6  25  571.84   52.39
  -5  -7  25  112.09   29.70
  -5  -7  25  102.99   53.19
   5  -7 -25   62.29   72.29
  -5   7  25  169.28   27.00
  -5   7  25  185.48   31.00
  -3  -7  25   33.60   22.90
  -3  -7  25   -2.10   46.20
  -3   7  25   19.40   24.40
  -3   7  25    0.10   19.90
   1  -7 -25  194.48   91.89
  -1  -7  25   -0.70   20.20
  -1  -7  25  -52.69   41.70
  -1   7  25   20.10   22.50
   1   7 -25  -18.40   42.50
  -1   7  25   -9.40   18.60
   1  -7  25   83.99   21.60
   1  -7  25  -10.80   42.60
  -1  -7 -25  138.49   68.09
  -1   7 -25    9.30   43.90
   1   7  25   35.30   25.90
  -3  -7 -25   95.09   64.09
   3  -7  25   29.10   46.40
   3  -7  25  -12.30   24.00
  -3   7 -25   71.49   48.10
   3   7  25   31.80   25.30
  -4  -8  25  204.68   54.89
  -4  -8  25  159.38   30.80
   4  -8 -25  111.69   64.79
  -4   8  25  265.97   34.40
  -4   8  25  139.39   29.80
  -2  -8  25  173.98   27.10
   2  -8 -25  -57.99   93.69
  -2  -8  25  176.78   49.70
  -2   8  25  141.19   28.70
  -2   8  25  122.79   24.70
   2   8 -25  127.29   52.49
   0  -8  25  441.26   47.60
   0  -8  25  449.86   63.49
   0   8  25  509.55   50.49
   0   8 -25  615.34   78.09
  -2  -8 -25  115.29   72.59
   2  -8  25  151.58   26.60
   2  -8  25   90.49   49.50
  -2   8 -25   75.39   50.89
   2   8  25  131.89   28.20
   3  -9 -25   39.00   68.29
  -3  -9  25  -54.79   47.10
  -3  -9  25   26.30   24.40
  -3   9  25    7.50   26.80
  -3   9  25   -7.10   22.60
   1  -9 -25  -45.70  105.39
  -1  -9  25  -23.60   22.60
  -1  -9  25   47.30   48.00
  -1   9  25   29.50   24.40
  -1   9  25   74.79   20.80
   1   9 -25   52.19   48.70
   1  -9  25  -32.00   45.80
  -1  -9 -25   98.19   80.59
   1  -9  25  -18.00   23.10
   1   9  25   24.30   26.10
  -1   9 -25   42.20   49.80
  -2 -10  25   21.70   51.39
   2 -10 -25   78.89   89.89
   0 -10  25   16.50   50.19
   0 -10 -25  -67.09  109.69
   0  10 -25   43.30   52.99
   0  10  25   25.90   28.10
  -6   0  26  117.19   24.80
  -6   0  26  100.19   29.70
  -4   0  26   54.29   23.60
   0   0  26  451.05   59.89
   0   0  26  417.56   42.80
   2   0  26  306.57   46.00
   2   0  26  303.17   40.80
   4   0  26  147.19   29.40
  -4   0 -26   27.90   63.79
   4   0  26  204.38   44.70
  -5  -1  26   -2.90   25.40
  -5   1  26    5.10   24.20
  -5   1  26   37.50   21.30
  -3  -1  26   -0.10   21.30
   3  -1 -26   87.89   56.99
  -3  -1  26    2.90   34.10
  -3   1  26   24.30   21.80
  -1  -1  26  220.28   28.50
  -1  -1  26  222.48   41.10
   1  -1 -26   70.69   54.19
  -1   1  26  200.18   27.40
  -1   1  26  156.88   33.90
   1  -1  26  335.97   39.10
   1  -1  26  346.87   49.50
   1   1  26  351.76   39.30
   1   1  26  326.87   45.30
   3  -1  26  359.26   53.39
   3  -1  26  418.76   44.60
   3   1  26  314.97   49.90
   3   1  26  420.76   44.10
   5  -1  26  600.24   68.89
   5  -1  26  572.44   55.39
  -5   1 -26  397.26   85.19
   5   1  26  608.44   55.09
  -6  -2  26  159.88   32.40
  -6  -2  26  222.58   29.50
  -6   2  26  202.48   28.90
  -6   2  26  229.28   35.60
  -4  -2  26  722.53   62.19
  -4  -2  26  739.53   79.89
  -4   2  26  806.62   58.79
  -4   2  26  668.33   63.19
  -2  -2  26  267.47   35.90
   2  -2 -26  176.28   59.49
  -2  -2  26  295.77   43.50
  -2   2  26  271.67   33.00
   0  -2  26  411.86   54.19
   0  -2  26  406.36   39.70
   0   2  26  325.67   40.40
   0   2  26  325.67   43.50
   2  -2  26  184.98   41.40
   2  -2  26  136.09   25.70
  -2  -2 -26   -1.50   62.19
  -2   2 -26   48.70   60.09
   2   2  26  133.79   38.90
   2   2  26   93.39   24.20
   4  -2  26  -14.70   24.20
  -4  -2 -26   85.09   59.09
   4  -2  26   -3.00   42.00
  -4  -2 -26    6.80   63.59
  -4   2 -26  -36.90   56.49
   4   2  26    6.50   23.60
  -5  -3  26   17.60   41.10
  -5  -3  26   53.09   25.50
  -5   3  26   35.60   26.20
  -5   3  26    9.50   21.30
  -3  -3  26   -4.80   22.30
  -3  -3  26   35.20   38.60
   3  -3 -26  113.19   73.79
  -3   3  26   30.70   23.40
  -1  -3  26   10.30   20.90
   1  -3 -26   84.39   53.49
  -1  -3  26    0.40   37.80
  -1   3  26   21.30   22.40
   1   3 -26   18.30   54.89
   1  -3  26  127.39   24.00
  -1  -3 -26   -6.10   59.49
   1  -3  26   94.49   39.50
  -1   3 -26   26.90   55.19
   1   3  26  156.18   24.20
   3  -3  26  232.98   29.70
  -3  -3 -26   45.10   68.49
   3  -3  26  165.98   45.30
  -3  -3 -26  127.19   59.09
   3   3  26  162.18   28.60
  -3   3 -26   92.49   56.19
   5  -3  26   78.29   48.70
   4  -4 -26 -173.28   77.59
  -4  -4  26   44.00   46.30
  -4  -4  26   62.49   24.40
  -4   4  26   52.29   25.30
  -4   4  26   61.59   19.90
  -2  -4  26   96.29   41.70
  -2  -4  26   40.20   22.80
   2  -4 -26  102.89   63.59
  -2   4  26   60.89   22.80
   2   4 -26   33.20   55.19
   0  -4  26   75.19   23.10
   0  -4 -26   89.19   59.19
   0  -4  26   59.29   40.00
   0   4 -26    3.30   50.49
   0   4  26   42.20   23.40
   2  -4  26    5.10   22.60
   2  -4  26   12.50   40.20
  -2  -4 -26   46.90   64.79
  -2  -4 -26   39.10   56.49
  -2   4 -26   35.60   51.29
   2   4  26   38.50   21.70
   4  -4  26  -23.60   24.80
  -4  -4 -26    2.00   66.59
   4  -4  26   46.30   44.00
  -4  -4 -26  150.68   59.19
  -4   4 -26   89.89   54.19
   4   4  26  -13.00   25.20
  -5  -5  26  -23.90   48.40
  -5  -5  26  -24.60   27.20
  -5   5  26   49.60   28.80
  -5   5  26  -43.60   20.80
  -3  -5  26  -29.20   43.40
  -3  -5  26  -12.30   23.30
  -3   5  26   34.90   24.40
  -1  -5  26    2.80   42.80
  -1  -5  26   -1.90   21.70
  -1   5  26  -22.20   23.00
   1   5 -26   13.60   54.69
   1  -5  26   92.29   22.60
  -1  -5 -26   45.40   60.79
   1  -5  26   92.89   45.00
   1   5  26   83.89   26.50
  -1   5 -26   28.30   46.80
  -3  -5 -26    8.60   73.09
   3  -5  26   -7.10   23.60
  -3  -5 -26  -29.60   57.79
   3  -5  26   -6.20   44.60
   3   5  26  -35.80   23.60
  -3   5 -26  -50.49   51.49
  -4  -6  26  -43.70   49.40
   4  -6 -26   -0.40   78.79
  -4  -6  26   24.90   26.70
  -4   6  26  -23.10   25.50
  -4   6  26   31.50   21.00
  -2  -6  26   88.79   44.70
  -2  -6  26   -1.60   22.70
   2  -6 -26 -206.28  102.39
  -2   6  26   61.59   26.20
   2   6 -26   93.99   60.49
   0  -6  26   26.40   23.30
   0  -6  26   32.40   43.90
   0   6 -26   -5.20   44.60
   0   6  26    8.80   22.60
   2  -6  26   25.30   22.60
   2  -6  26   23.10   46.90
  -2  -6 -26  172.58   68.69
  -2   6 -26   31.90   52.59
   2   6  26   16.30   25.60
  -3  -7  26   39.50   48.50
   3  -7 -26 -130.69   86.09
  -3   7  26  -25.50   26.20
  -3   7  26   37.50   21.90
  -1  -7  26   15.50   23.20
  -1  -7  26  -27.40   44.20
   1  -7 -26    2.50  104.29
   1   7 -26   33.00   52.19
   1  -7  26  107.79   27.00
   1  -7  26   94.89   51.19
  -1  -7 -26  192.38   76.39
   1   7  26  143.09   31.60
  -1   7 -26  162.08   54.99
   3  -7  26   92.89   46.60
  -3  -7 -26   78.69   70.59
  -2  -8  26   76.69   55.49
  -2  -8  26  106.09   27.20
   2  -8 -26  -55.69   95.09
  -2   8  26  157.68   30.20
  -2   8  26  127.79   24.30
   0  -8 -26  241.38  104.29
   0  -8  26  247.08   32.50
   0  -8  26  260.97   55.99
   0   8  26  233.28   35.10
   0   8 -26  200.08   56.39
   2  -8  26   34.10   53.59
  -2  -8 -26  158.98   75.99
  -4   0  27    7.60   26.50
  -2   0  27  -17.00   21.90
   2   0 -27   98.59   60.09
  -2   0  27   36.90   32.70
   0   0  27   -8.20   20.40
   0   0  27  -15.50   34.00
   0   0 -27  -82.69   57.69
   2   0  27  -16.80   40.40
   2   0  27   10.00   22.30
  -2   0 -27    3.70   63.29
   4   0  27  -13.70   25.50
   4   0  27    1.30   46.00
  -5  -1  27   29.40   28.60
  -5   1  27  -15.20   25.80
  -3  -1  27  -16.20   36.00
  -3  -1  27   64.59   23.10
   3  -1 -27  107.49   66.19
  -3   1  27   34.90   23.50
   1  -1 -27  106.49   60.69
  -1  -1  27   24.80   21.50
  -1  -1  27   79.19   38.20
  -1   1  27    6.60   21.70
   1   1 -27  -66.89   57.89
  -1  -1 -27  -25.00   62.19
   1  -1  27  157.08   24.70
   1  -1  27   78.49   39.70
   1   1  27   98.89   39.10
   1   1  27  102.29   24.10
  -1   1 -27  -31.40   59.59
   3  -1  27  159.68   28.20
  -3  -1 -27  119.19   68.49
   3  -1  27   49.00   45.90
   3   1  27  115.19   26.70
   3   1  27  106.79   43.30
  -3   1 -27    2.40   66.89
  -4  -2  27  309.67   50.89
  -4  -2  27  301.37   41.00
  -4   2  27  265.17   36.30
   2  -2 -27  162.58   64.89
  -2  -2  27  -10.00   40.80
  -2   2  27    6.90   22.80
   2   2 -27   80.99   63.39
   0  -2  27   96.89   38.00
   0  -2  27   64.79   24.50
   0  -2 -27  -47.70   63.79
   0   2 -27   35.80   54.79
   0   2  27   79.99   24.40
   2  -2  27   -6.60   40.50
  -2  -2 -27  -57.99   65.59
   2  -2  27   22.30   23.70
   2   2  27   66.69   23.70
   2   2  27   43.30   39.30
  -2   2 -27  -83.29   62.59
   4  -2  27  -16.30   46.50
  -3  -3  27  266.57   31.80
  -3  -3  27  221.98   48.20
   3  -3 -27  139.09   91.49
  -3   3  27  196.98   30.90
   1  -3 -27  200.98   63.09
  -1  -3  27  135.79   25.30
  -1  -3  27   85.59   43.90
  -1   3  27   78.59   26.50
   1   3 -27   18.50   57.49
   1  -3  27  174.58   46.20
   1  -3  27  226.98   29.50
   1   3  27  161.18   29.30
  -1   3 -27   43.70   60.79
   3  -3  27  293.17   34.30
  -3  -3 -27  270.37   66.09
  -3  -3 -27   72.49   71.89
   3  -3  27  198.38   49.70
  -3   3 -27  253.47   69.89
   3   3  27  193.48   32.10
  -4  -4  27  286.77   35.90
  -4  -4  27  325.67   54.69
  -4   4  27  291.87   37.60
  -4   4  27  244.38   36.40
  -2  -4  27  123.39   48.50
  -2  -4  27  198.78   30.50
   2  -4 -27  122.89   68.99
   2   4 -27   -6.90   64.49
   0  -4  27   15.60   46.00
   0  -4  27   31.80   23.70
   0   4 -27   36.10   59.19
   0   4  27   65.19   24.80
   2  -4  27   57.49   25.20
   2  -4  27   61.79   48.80
  -2  -4 -27    3.70   73.59
  -2   4 -27    0.60   54.39
   2   4  27   -5.20   24.10
  -3  -5  27   91.29   49.99
   3  -5 -27  -66.99   98.09
  -3  -5  27  128.89   27.90
  -3   5  27   30.80   27.40
  -1  -5  27  458.65   46.90
  -1  -5  27  452.25   61.09
  -1   5  27  383.76   47.40
   1  -5  27  373.66   43.10
   1  -5  27  418.36   60.19
  -1   5 -27  283.17   64.99
   1   5  27  297.27   40.60
  -2  -6  27  134.49   28.60
  -2  -6  27  222.38   52.09
   2  -6 -27 -144.89  108.79
  -2   6  27   70.89   28.50
   0  -6 -27   76.29   71.69
   0  -6  27  137.49   50.29
   0  -6  27  137.09   28.20
   0   6 -27  149.88   56.89
   0   6  27  123.39   31.00
   2  -6  27  -12.40   49.70
   1  -7 -27  -56.69  114.09
  -1  -7  27   94.89   53.69
  -2   0  28  -19.80   24.90
   2   0 -28  115.49   67.79
   0   0 -28  -33.00   62.09
   0   0  28   42.00   24.30
   0   0  28   -1.40   36.90
   2   0  28   43.90   25.90
   2   0  28   57.69   44.50
  -2   0 -28   29.40   68.59
  -3  -1  28  334.27   43.90
  -3   1  28  349.67   42.80
  -1  -1  28  489.05   45.70
  -1  -1  28  403.26   51.79
  -1   1  28  334.07   45.20
   1  -1  28  415.56   58.09
   1  -1  28  535.95   49.10
   1   1  28  442.86   55.29
   1   1  28  394.06   49.90
  -2  -2  28   -4.70   24.90
   2  -2 -28  -13.40   69.99
  -2  -2  28   39.40   44.00
  -2   2  28   55.69   25.50
   2   2 -28   48.20   66.29
   0  -2 -28  127.19   67.09
   0  -2  28   15.20   25.10
   0  -2  28   20.70   46.30
   0   2 -28   73.69   62.89
   0   2  28  -46.20   22.80
   2  -2  28   59.99   46.70
   2   2  28   72.49   43.20
  -1  -3  28  187.58   28.30
  -1  -3  28  134.79   49.80
   1  -3 -28  148.59   70.59
   1   3 -28   15.20   63.79
  -1   3  28   89.19   27.40
  -1  -3 -28   -4.70   75.19
   1  -3  28  231.28   55.79
   1  -3  28  224.38   31.00
  -1   3 -28  177.08   70.39
   1   3  28  203.78   33.10
  -2  -4  28   22.10   49.80
   0  -4  28   26.30   25.10
   0  -4  28  -34.80   51.69
   0   4  28   -3.70   28.30
   0   4 -28   53.89   65.69
   0   0   0    0.00    0.00

_computing_structure_solution     'SHELXT 2014/5 (Sheldrick, 2014)'
;
_shelx_hkl_checksum              30692
loop_
_space_group_symop_operation_xyz
'x, y, z'
'-x, y, -z+1/2'
'x+1/2, y+1/2, z'
'-x+1/2, y+1/2, -z+1/2'
'-x, -y, -z'
'x, -y, z-1/2'
'-x+1/2, -y+1/2, -z'
'x+1/2, -y+1/2, z-1/2'
loop_
_atom_site_label
_atom_site_type_symbol
_atom_site_fract_x
_atom_site_fract_y
_atom_site_fract_z
_atom_site_U_iso_or_equiv
_atom_site_adp_type
_atom_site_occupancy
_atom_site_site_symmetry_order
_atom_site_calc_flag
_atom_site_refinement_flags_posn
_atom_site_refinement_flags_adp
_atom_site_refinement_flags_occupancy
Tb1 Tb 0.72265(3) 0.45461(2) 0.66923(2) 0.00927(11) Uani 1 1 d . . .
Cl2 Cl 0.94958(19) 0.75496(13) 0.64896(9) 0.0237(4) Uani 1 1 d . . .
Cl3 Cl 0.56429(19) 0.69114(12) 0.51275(9) 0.0220(4) Uani 1 1 d . . .
Cl1 Cl 0.5646(2) 0.65616(13) 0.84772(10) 0.0250(5) Uani 1 1 d . . .
O4 O 0.8487(5) 0.8613(3) 0.7498(2) 0.0154(11) Uani 1 1 d . . .
O3 O 0.4944(5) 0.4583(3) 0.6755(2) 0.0148(10) Uani 1 1 d . . .
H3A H 0.460770 0.467513 0.640335 0.022 Uiso 1 1 d R U .
H3B H 0.473396 0.500014 0.696527 0.022 Uiso 1 1 d R U .
O8 O 0.6471(5) 0.5526(3) 0.5932(2) 0.0167(11) Uani 1 1 d . . .
O6 O 0.6650(5) 0.5501(3) 0.7484(2) 0.0165(11) Uani 1 1 d . . .
O7 O 0.7168(5) 0.8101(3) 0.8395(2) 0.0169(11) Uani 1 1 d . . .
O2 O 0.9011(5) 0.4355(4) 0.7333(3) 0.0243(14) Uani 1 1 d . . .
O9 O 0.3835(5) 0.6071(3) 0.4216(2) 0.0160(11) Uani 1 1 d . . .
O1 O 0.8840(5) 0.4454(4) 0.5970(3) 0.0242(13) Uani 1 1 d . . .
O5 O 0.8345(5) 0.5891(3) 0.6721(2) 0.0163(11) Uani 1 1 d . . .
C9 C 0.7324(7) 0.7588(5) 0.7985(3) 0.0138(15) Uani 1 1 d . . .
C6 C 0.5276(7) 0.5871(5) 0.5049(4) 0.0165(16) Uani 1 1 d . . .
C14 C 0.8164(7) 0.7849(5) 0.7480(3) 0.0137(15) Uani 1 1 d . . .
C13 C 0.8038(7) 0.6457(5) 0.7065(3) 0.0135(15) Uani 1 1 d . . .
C12 C 0.6755(7) 0.6806(5) 0.7957(4) 0.0149(15) Uani 1 1 d . . .
C11 C 0.7078(7) 0.6218(5) 0.7532(3) 0.0138(15) Uani 1 1 d . . .
C10 C 0.8503(7) 0.7279(5) 0.7059(3) 0.0138(15) Uani 1 1 d . . .
C8 C 0.4444(7) 0.5613(4) 0.4589(3) 0.0132(15) Uani 1 1 d . . .
C7 C 0.5799(7) 0.5317(5) 0.5478(4) 0.0144(15) Uani 1 1 d . . .
C4 C 1.000000 0.4639(12) 0.750000 0.055(5) Uani 1 2 d S T P
H4 H 1.000002 0.521440 0.749997 0.066 Uiso 1 2 calc R U P
N1 N 1.0932(10) 0.4286(11) 0.5961(8) 0.108(6) Uani 1 1 d . . .
C5 C 0.2058(14) 0.6949(12) 0.5292(7) 0.076(5) Uani 1 1 d . . .
H5 H 0.169814 0.650642 0.548968 0.092 Uiso 1 1 calc R U .
C3 C 0.9859(16) 0.4078(12) 0.6049(8) 0.084(5) Uani 1 1 d . U .
H3 H 0.978404 0.354633 0.620326 0.101 Uiso 1 1 calc R U .
N2 N 0.235(2) 0.7366(12) 0.4651(8) 0.044(5) Uani 0.5 1 d . . P
C2 C 1.191(2) 0.3644(16) 0.6046(11) 0.153(11) Uani 1 1 d . . .
H2A H 1.151661 0.311801 0.610754 0.230 Uiso 1 1 calc R U .
H2B H 1.243835 0.377871 0.639363 0.230 Uiso 1 1 calc R U .
H2C H 1.239488 0.361941 0.569252 0.230 Uiso 1 1 calc R U .
C1 C 1.167(5) 0.505(2) 0.597(2) 0.34(3) Uani 1 1 d . . .
H1A H 1.185747 0.519887 0.556380 0.505 Uiso 1 1 calc R U .
H1B H 1.242920 0.496856 0.620801 0.505 Uiso 1 1 calc R U .
H1C H 1.119235 0.548697 0.614598 0.505 Uiso 1 1 calc R U .
loop_
_atom_site_aniso_label
_atom_site_aniso_U_11
_atom_site_aniso_U_22
_atom_site_aniso_U_33
_atom_site_aniso_U_23
_atom_site_aniso_U_13
_atom_site_aniso_U_12
Tb1 0.00846(16) 0.00671(16) 0.01251(18) -0.00011(14) -0.00100(11) 0.00060(14)
Cl2 0.0278(10) 0.0197(10) 0.0249(11) -0.0043(8) 0.0129(8) -0.0086(8)
Cl3 0.0301(11) 0.0113(9) 0.0241(10) 0.0015(8) -0.0041(8) -0.0032(8)
Cl1 0.0303(11) 0.0188(10) 0.0272(11) -0.0060(8) 0.0155(9) -0.0117(8)
O4 0.013(3) 0.008(2) 0.025(3) -0.002(2) 0.002(2) -0.005(2)
O3 0.015(2) 0.012(3) 0.018(3) -0.003(2) 0.003(2) -0.001(2)
O8 0.019(3) 0.015(3) 0.016(3) -0.001(2) -0.002(2) -0.001(2)
O6 0.019(3) 0.009(2) 0.021(3) -0.002(2) 0.005(2) -0.007(2)
O7 0.019(3) 0.015(3) 0.017(3) -0.003(2) 0.004(2) -0.004(2)
O2 0.010(3) 0.029(4) 0.033(3) 0.004(3) -0.012(2) -0.002(2)
O9 0.018(3) 0.012(3) 0.017(3) 0.003(2) -0.003(2) 0.001(2)
O1 0.017(3) 0.020(3) 0.036(3) 0.002(3) 0.008(2) 0.005(2)
O5 0.017(3) 0.011(3) 0.021(3) -0.004(2) 0.004(2) -0.002(2)
C9 0.017(4) 0.010(4) 0.015(4) 0.002(3) 0.005(3) 0.006(3)
C6 0.021(4) 0.009(4) 0.019(4) 0.000(3) 0.000(3) 0.002(3)
C14 0.011(4) 0.011(4) 0.018(4) -0.002(3) -0.003(3) -0.003(3)
C13 0.012(3) 0.013(4) 0.015(4) 0.002(3) 0.001(3) -0.002(3)
C12 0.013(3) 0.010(4) 0.022(4) -0.002(3) 0.004(3) -0.007(3)
C11 0.015(3) 0.011(4) 0.015(4) 0.001(3) -0.001(3) -0.004(3)
C10 0.013(3) 0.015(4) 0.013(4) 0.001(3) 0.003(3) -0.004(3)
C8 0.013(3) 0.009(4) 0.018(4) 0.001(3) 0.000(3) 0.002(3)
C7 0.010(3) 0.012(4) 0.021(4) 0.002(3) 0.002(3) 0.002(3)
C4 0.041(9) 0.053(11) 0.069(12) 0.000 -0.017(8) 0.000
N1 0.014(5) 0.142(15) 0.167(16) 0.050(12) 0.000(7) -0.007(7)
C5 0.066(10) 0.101(14) 0.062(9) -0.011(9) -0.007(7) 0.044(10)
C3 0.079(8) 0.094(9) 0.081(8) -0.001(7) 0.011(7) 0.001(7)
N2 0.063(13) 0.028(10) 0.039(11) -0.010(8) -0.004(9) 0.024(9)
C2 0.17(2) 0.15(2) 0.14(2) -0.019(18) -0.045(18) 0.09(2)
C1 0.58(9) 0.14(3) 0.30(5) -0.03(3) 0.10(6) -0.21(5)
loop_
_atom_type_symbol
_atom_type_description
_atom_type_scat_dispersion_real
_atom_type_scat_dispersion_imag
_atom_type_scat_source
C C 0.0033 0.0016 'International Tables Vol C Tables 4.2.6.8 and 6.1.1.4'
N N 0.0061 0.0033 'International Tables Vol C Tables 4.2.6.8 and 6.1.1.4'
O O 0.0106 0.0060 'International Tables Vol C Tables 4.2.6.8 and 6.1.1.4'
Tb Tb -0.1723 4.1537 'International Tables Vol C Tables 4.2.6.8 and 6.1.1.4'
Cl Cl 0.1484 0.1585 'International Tables Vol C Tables 4.2.6.8 and 6.1.1.4'
H H 0.0000 0.0000 'International Tables Vol C Tables 4.2.6.8 and 6.1.1.4'
loop_
_geom_angle_atom_site_label_1
_geom_angle_atom_site_label_2
_geom_angle_atom_site_label_3
_geom_angle
_geom_angle_site_symmetry_1
_geom_angle_site_symmetry_3
O2 Tb1 O1 78.6(2) . .
O2 Tb1 O8 137.9(2) . .
O1 Tb1 O8 78.93(19) . .
O2 Tb1 O6 82.9(2) . .
O1 Tb1 O6 136.70(19) . .
O8 Tb1 O6 89.74(18) . .
O2 Tb1 O7 73.1(2) . 4_646
O1 Tb1 O7 71.74(19) . 4_646
O8 Tb1 O7 130.89(18) . 4_646
O6 Tb1 O7 138.01(18) . 4_646
O2 Tb1 O3 139.0(2) . .
O1 Tb1 O3 141.67(19) . .
O8 Tb1 O3 73.78(18) . .
O6 Tb1 O3 70.05(18) . .
O7 Tb1 O3 107.30(18) 4_646 .
O2 Tb1 O9 140.3(2) . 5_666
O1 Tb1 O9 75.8(2) . 5_666
O8 Tb1 O9 64.77(18) . 5_666
O6 Tb1 O9 135.84(18) . 5_666
O7 Tb1 O9 70.29(18) 4_646 5_666
O3 Tb1 O9 68.46(18) . 5_666
O2 Tb1 O5 73.8(2) . .
O1 Tb1 O5 73.20(19) . .
O8 Tb1 O5 65.80(18) . .
O6 Tb1 O5 64.10(17) . .
O7 Tb1 O5 135.46(18) 4_646 .
O3 Tb1 O5 117.23(18) . .
O9 Tb1 O5 125.30(18) 5_666 .
O2 Tb1 O4 75.78(19) . 4_646
O1 Tb1 O4 133.76(18) . 4_646
O8 Tb1 O4 142.39(17) . 4_646
O6 Tb1 O4 76.87(17) . 4_646
O7 Tb1 O4 64.28(17) 4_646 4_646
O3 Tb1 O4 68.63(17) . 4_646
O9 Tb1 O4 101.17(18) 5_666 4_646
O5 Tb1 O4 132.64(18) . 4_646
C14 O4 Tb1 121.1(5) . 4_656
C7 O8 Tb1 122.7(5) . .
C11 O6 Tb1 123.1(5) . .
C9 O7 Tb1 122.5(5) . 4_656
C4 O2 Tb1 145.1(9) . .
C8 O9 Tb1 119.7(5) . 5_666
C3 O1 Tb1 125.6(9) . .
C13 O5 Tb1 121.3(5) . .
O7 C9 C12 124.1(7) . .
O7 C9 C14 116.8(7) . .
C12 C9 C14 119.1(7) . .
C8 C6 C7 121.8(7) . .
C8 C6 Cl3 120.1(6) . .
C7 C6 Cl3 118.1(6) . .
O4 C14 C10 126.2(7) . .
O4 C14 C9 114.3(6) . .
C10 C14 C9 119.5(7) . .
O5 C13 C10 125.5(7) . .
O5 C13 C11 115.4(6) . .
C10 C13 C11 119.1(7) . .
C11 C12 C9 121.7(7) . .
C11 C12 Cl1 119.3(6) . .
C9 C12 Cl1 119.0(6) . .
O6 C11 C12 126.2(7) . .
O6 C11 C13 115.5(7) . .
C12 C11 C13 118.4(6) . .
C14 C10 C13 121.3(7) . .
C14 C10 Cl2 120.7(6) . .
C13 C10 Cl2 117.9(6) . .
O9 C8 C6 126.5(7) . .
O9 C8 C7 115.5(7) . 5_666
C6 C8 C7 117.9(7) . 5_666
O8 C7 C6 124.5(7) . .
O8 C7 C8 115.5(7) . 5_666
C6 C7 C8 120.0(7) . 5_666
O2 C4 O2 134.9(18) . 2_756
C3 N1 C1 138(3) . .
C3 N1 C2 117(2) . .
C1 N1 C2 103(3) . .
N2 C5 N2 66.9(17) 7_566 .
N1 C3 O1 131.5(19) . .
C5 N2 N2 66.3(16) 7_566 7_566
C5 N2 C5 113.1(17) 7_566 .
N2 N2 C5 46.7(12) 7_566 .
loop_
_geom_bond_atom_site_label_1
_geom_bond_atom_site_label_2
_geom_bond_distance
_geom_bond_site_symmetry_2
Tb1 O2 2.346(5) .
Tb1 O1 2.408(6) .
Tb1 O8 2.421(5) .
Tb1 O6 2.433(5) .
Tb1 O7 2.434(5) 4_646
Tb1 O3 2.454(5) .
Tb1 O9 2.471(5) 5_666
Tb1 O5 2.482(5) .
Tb1 O4 2.486(5) 4_646
Cl2 C10 1.738(7) .
Cl3 C6 1.734(8) .
Cl1 C12 1.734(8) .
O4 C14 1.283(9) .
O8 C7 1.252(9) .
O6 C11 1.249(9) .
O7 C9 1.246(9) .
O2 C4 1.197(9) .
O9 C8 1.265(9) .
O1 C3 1.254(18) .
O5 C13 1.244(9) .
C9 C12 1.403(10) .
C9 C14 1.524(10) .
C6 C8 1.385(11) .
C6 C7 1.402(11) .
C14 C10 1.368(11) .
C13 C10 1.420(10) .
C13 C11 1.536(10) .
C12 C11 1.390(11) .
C8 C7 1.532(10) 5_666
N1 C3 1.221(19) .
N1 C1 1.46(3) .
N1 C2 1.48(2) .
C5 N2 1.28(3) 7_566
C5 N2 1.61(3) .
N2 N2 1.62(4) 7_566
