#------------------------------------------------------------------------------
#$Date: 2019-10-28 01:56:13 +0200 (Mon, 28 Oct 2019) $
#$Revision: 219555 $
#$URL: file:///home/coder/svn-repositories/cod/cif/4/12/72/4127284.cif $
#------------------------------------------------------------------------------
#
# This file is available in the Crystallography Open Database (COD),
# http://www.crystallography.net/
#
# All data on this site have been placed in the public domain by the
# contributors.
#
data_4127284
loop_
_publ_author_name
'Tan, Chunxia'
'Yang, Kuiwei'
'Dong, Jinqiao'
'Liu, Yuhao'
'Liu, Yan'
'Jiang, Jianwen'
'Cui, Yong'
_publ_section_title
;
 Boosting Enantioselectivity of Chiral Organocatalysts with Ultrathin
 Two-Dimensional Metal-Organic Framework Nanosheets.
;
_journal_name_full               'Journal of the American Chemical Society'
_journal_paper_doi               10.1021/jacs.9b07633
_journal_year                    2019
_chemical_absolute_configuration rmad
_chemical_formula_moiety         'C84 H68 O25 S4 Zn4'
_chemical_formula_sum            'C84 H68 O25 S4 Zn4'
_chemical_formula_weight         1867.10
_space_group_crystal_system      tetragonal
_space_group_IT_number           75
_space_group_name_Hall           'P 4'
_space_group_name_H-M_alt        'P 4'
_symmetry_space_group_name_Hall  'P 4'
_symmetry_space_group_name_H-M   'P 4'
_atom_sites_solution_hydrogens   geom
_atom_sites_solution_primary     iterative
_audit_creation_date             2019-07-15
_audit_creation_method
;
Olex2 1.2
(compiled 2018.05.29 svn.r3508 for OlexSys, GUI svn.r5506)
;
_cell_angle_alpha                90
_cell_angle_beta                 90
_cell_angle_gamma                90
_cell_formula_units_Z            1
_cell_length_a                   14.1506(13)
_cell_length_b                   14.1506(13)
_cell_length_c                   14.793(3)
_cell_measurement_reflns_used    203
_cell_measurement_temperature    260.84
_cell_measurement_theta_max      55.034
_cell_measurement_theta_min      3.984
_cell_volume                     2962.1(7)
_computing_molecular_graphics    'Olex2 (Dolomanov et al., 2009)'
_computing_publication_material  'Olex2 (Dolomanov et al., 2009)'
_computing_structure_refinement  'XL (Sheldrick, 2008)'
_computing_structure_solution    'olex2.solve (Bourhis et al., 2015)'
_diffrn_ambient_temperature      260.84
_diffrn_measured_fraction_theta_full 0.999
_diffrn_measured_fraction_theta_max 0.997
_diffrn_measurement_device_type  'Bruker APEX-II CCD'
_diffrn_measurement_method       '\f and \w scans'
_diffrn_radiation_type           MoK\a
_diffrn_radiation_wavelength     0.71073
_diffrn_reflns_av_R_equivalents  0.0683
_diffrn_reflns_av_unetI/netI     0.0760
_diffrn_reflns_Laue_measured_fraction_full 0.999
_diffrn_reflns_Laue_measured_fraction_max 0.997
_diffrn_reflns_limit_h_max       17
_diffrn_reflns_limit_h_min       -18
_diffrn_reflns_limit_k_max       18
_diffrn_reflns_limit_k_min       -18
_diffrn_reflns_limit_l_max       19
_diffrn_reflns_limit_l_min       -19
_diffrn_reflns_number            27063
_diffrn_reflns_point_group_measured_fraction_full 0.998
_diffrn_reflns_point_group_measured_fraction_max 0.995
_diffrn_reflns_theta_full        25.242
_diffrn_reflns_theta_max         27.517
_diffrn_reflns_theta_min         1.992
_exptl_absorpt_coefficient_mu    0.925
_exptl_crystal_colour            'clear light colourless'
_exptl_crystal_colour_lustre     clear
_exptl_crystal_colour_modifier   light
_exptl_crystal_colour_primary    colourless
_exptl_crystal_density_diffrn    1.047
_exptl_crystal_description       block
_exptl_crystal_F_000             956
_exptl_crystal_size_max          0.02
_exptl_crystal_size_mid          0.02
_exptl_crystal_size_min          0.02
_platon_squeeze_details
;
TITL N in P4
CELL   14.1506   14.1506   14.7930     90.00     90.00     90.00
SPGR P4
# Solvent Accessible Volume =      1311
# Electrons Found in S.A.V. =       238
# Note: Atoms in Void as Cxxx and Qxxx all others
Q101 1.000 1.007 0.719 !       3.67 eA-3
C102 0.500 0.499 0.030 !       2.01 eA-3
C103 0.221 0.516 0.486 !       1.93 eA-3
C104 0.079 0.530 0.469 !       1.65 eA-3
C105 0.142 0.525 0.461 !       1.53 eA-3
C106 0.262 0.549 0.436 !       1.49 eA-3
C107 0.206 0.474 0.515 !       1.46 eA-3
C108 0.290 0.451 0.549 !       1.42 eA-3
C109 0.243 0.503 0.548 !       1.39 eA-3
C110 0.525 0.739 0.486 !       1.36 eA-3
C111 0.937 0.107 0.830 !       1.22 eA-3
C112 0.542 0.254 0.499 !       1.19 eA-3
C113 0.545 0.889 0.423 !       1.18 eA-3
C114 0.249 0.604 0.388 !       1.18 eA-3
C115 0.968 0.118 0.815 !       1.18 eA-3
C116 0.188 0.571 0.432 !       1.17 eA-3
C117 0.340 0.426 0.450 !       1.13 eA-3
C118 0.062 0.515 0.429 !       1.13 eA-3
C119 0.307 0.404 0.593 !       1.10 eA-3
C120 0.840 0.031 0.829 !       1.09 eA-3
C121 0.353 0.453 0.565 !       1.09 eA-3
C122 0.984 0.949 0.786 !       1.08 eA-3
C123 1.000 1.008 0.858 !       1.06 eA-3
C124 0.419 0.464 0.590 !       1.06 eA-3
C125 0.219 0.549 0.361 !       1.06 eA-3
C126 0.307 0.503 0.530 !       1.06 eA-3
C127 0.529 1.009 0.395 !       1.05 eA-3
C128 0.482 0.469 0.589 !       1.05 eA-3
C129 0.422 0.422 0.550 !       1.03 eA-3
C130 0.169 0.455 0.457 !       1.03 eA-3
C131 0.777 0.016 0.840 !       1.02 eA-3
C132 0.798 0.910 0.855 !       1.01 eA-3
C133 0.163 0.582 0.367 !       0.99 eA-3
Q134 0.831 0.201 0.000 !       0.98 eA-3
C135 0.499 0.504 0.514 !       0.98 eA-3
C136 0.500 1.005 0.455 !       0.98 eA-3
C137 0.458 0.511 0.630 !       0.97 eA-3
C138 0.939 0.948 0.769 !       0.96 eA-3
C139 0.579 0.984 0.430 !       0.96 eA-3
C140 0.498 0.493 0.093 !       0.96 eA-3
Q141 0.202 0.610 0.342 !       0.95 eA-3
C142 0.353 0.424 0.372 !       0.92 eA-3
C143 0.398 0.515 0.317 !       0.90 eA-3
C144 0.853 0.077 0.846 !       0.90 eA-3
C145 0.284 0.567 0.343 !       0.89 eA-3
C146 0.403 0.760 0.554 !       0.88 eA-3
C147 0.517 0.716 0.563 !       0.88 eA-3
C148 0.347 0.553 0.342 !       0.88 eA-3
C149 0.325 0.504 0.363 !       0.87 eA-3
C150 0.392 0.488 0.360 !       0.86 eA-3
C151 0.133 0.621 0.413 !       0.86 eA-3
C152 0.337 0.530 0.451 !       0.86 eA-3
C153 0.296 0.618 0.499 !       0.86 eA-3
C154 0.334 0.614 0.374 !       0.86 eA-3
C155 0.380 0.524 0.393 !       0.85 eA-3
C156 0.452 0.498 0.354 !       0.85 eA-3
C157 0.970 0.031 0.824 !       0.83 eA-3
C158 0.999 0.991 0.203 !       0.81 eA-3
C159 0.425 0.308 0.496 !       0.80 eA-3
C160 0.894 0.097 0.901 !       0.80 eA-3
C161 0.909 0.051 0.776 !       0.80 eA-3
C162 0.291 0.355 0.547 !       0.79 eA-3
C163 0.376 0.523 0.582 !       0.78 eA-3
Q164 0.858 0.174 0.820 !       0.78 eA-3
Q165 0.073 0.427 0.516 !       0.77 eA-3
C166 0.803 0.106 0.827 !       0.77 eA-3
C167 0.155 0.515 0.378 !       0.76 eA-3
Q168 0.104 0.437 0.471 !       0.74 eA-3
C169 0.365 0.388 0.564 !       0.74 eA-3
C170 0.397 0.605 0.595 !       0.73 eA-3
Q171 0.189 0.530 0.604 !       0.72 eA-3
C172 0.359 0.356 0.604 !       0.72 eA-3
Q173 0.124 0.477 0.513 !       0.72 eA-3
C174 0.334 0.356 0.485 !       0.72 eA-3
C175 0.468 0.465 0.318 !       0.71 eA-3
Q176 0.157 0.565 0.320 !       0.71 eA-3
C177 0.358 0.593 0.456 !       0.71 eA-3
C178 0.381 0.594 0.418 !       0.71 eA-3
C179 0.916 0.051 0.853 !       0.70 eA-3
C180 0.433 0.487 0.137 !       0.70 eA-3
C181 0.872 0.905 0.989 !       0.70 eA-3
Q182 0.149 0.427 0.529 !       0.70 eA-3
C183 0.813 0.951 0.827 !       0.69 eA-3
C184 0.347 0.624 0.534 !       0.69 eA-3
C185 0.330 0.558 0.283 !       0.68 eA-3
C186 0.470 0.048 0.355 !       0.68 eA-3
C187 0.484 0.422 0.420 !       0.68 eA-3
C188 0.497 0.497 0.780 !       0.68 eA-3
C189 0.500 0.487 0.374 !       0.67 eA-3
Q190 0.266 0.543 0.233 !       0.67 eA-3
Q191 0.738 0.138 0.877 !       0.67 eA-3
Q192 0.081 0.474 0.357 !       0.66 eA-3
C193 0.373 0.558 0.522 !       0.66 eA-3
Q194 0.851 0.154 0.744 !       0.65 eA-3
Q195 0.827 0.945 0.986 !       0.65 eA-3
Q196 0.287 0.457 0.325 !       0.65 eA-3
C197 0.945 1.003 0.156 !       0.65 eA-3
Q198 0.312 0.649 0.298 !       0.65 eA-3
C199 0.334 0.531 0.144 !       0.64 eA-3
;
_refine_diff_density_max         0.333
_refine_diff_density_min         -0.215
_refine_diff_density_rms         0.046
_refine_ls_abs_structure_details
;
 Flack x determined using 1408 quotients [(I+)-(I-)]/[(I+)+(I-)]
 (Parsons, Flack and Wagner, Acta Cryst. B69 (2013) 249-259).
;
_refine_ls_abs_structure_Flack   0.040(11)
_refine_ls_extinction_method     none
_refine_ls_goodness_of_fit_ref   0.925
_refine_ls_hydrogen_treatment    constr
_refine_ls_matrix_type           full
_refine_ls_number_parameters     254
_refine_ls_number_reflns         6828
_refine_ls_number_restraints     203
_refine_ls_restrained_S_all      0.969
_refine_ls_R_factor_all          0.0993
_refine_ls_R_factor_gt           0.0453
_refine_ls_shift/su_max          0.002
_refine_ls_shift/su_mean         0.000
_refine_ls_structure_factor_coef Fsqd
_refine_ls_weighting_details
'w=1/[\s^2^(Fo^2^)+(0.0660P)^2^] where P=(Fo^2^+2Fc^2^)/3'
_refine_ls_weighting_scheme      calc
_refine_ls_wR_factor_gt          0.1062
_refine_ls_wR_factor_ref         0.1278
_reflns_Friedel_coverage         0.922
_reflns_Friedel_fraction_full    0.998
_reflns_Friedel_fraction_max     0.994
_reflns_number_gt                3873
_reflns_number_total             6828
_reflns_threshold_expression     'I > 2\s(I)'
_iucr_refine_instructions_details
;
TITL N in P4
 n_sq.res created by SHELXL-2016/4 at 20:29:27 on 15-Jul-2019
CELL 0.71073 14.1506 14.1506 14.7927 90 90 90
ZERR 1 0.0013 0.0013 0.0028 0 0 0
LATT -1
SYMM -X,-Y,+Z
SYMM -Y,+X,+Z
SYMM +Y,-X,+Z
SFAC C H O S Zn
UNIT 84 68 25 4 4
DFIX 1.5 C18 C17
DFIX 2.5 C19 C17
DFIX 2.5 C17 C21
DFIX 2.5 C19 C21
DFIX 2.5 C17 C20
DFIX 2.5 C19 C20
DFIX 2.5 C21 C20
DFIX 1.5 C17 C18 C19 C18 C20 C18 C21 C18
DFIX 1.48 C19 C18 C17 C18 C20 C18 C21 C18
SADI C19 C20 C20 C21
SADI C20 C21 C21 C19
SADI C21 C19 C19 C20
FLAT C18 C17 C16 C12 C13 C15 C14
DELU C16 C18 C12
DELU C10 C11 C2 C4 C9 C3
DELU C10 C11
DELU O7 C11 C10 C9 C4 C3 C2 C1
DELU C21 C17 C19
DELU C19 C17 C20
DELU C20 C17 C21
DELU C18 C20 C21 C19 C17 C12 C13 C14 C15 C16
DELU C20 C18 C21 C19 C17 C12 C13 C14 C15 C16
DELU C21 C19 C20
DELU C19 C21 C20
DELU C19 C20 C21
SIMU 0.04 0.08 1.7 C16 C18 C12
SIMU 0.04 0.08 1.7 C10 C11 C2 C3 C4 C9
SIMU 0.04 0.08 1.7 C10 C11
SIMU 0.04 0.08 1.7 O7 C11 C10 C9 C4 C3 C2
SIMU 0.04 0.08 1.7 C21 C17 C19
SIMU 0.04 0.08 1.7 C19 C17 C20
SIMU 0.04 0.08 1.7 C20 C17 C21
SIMU 0.04 0.08 1.7 C15 C14 C13 C12 C17 C16 C18 C21 C20 C19
SIMU 0.04 0.08 1.7 C20 C21 C19 C18 C17 C12 C13 C14 C15 C16
SIMU 0.04 0.08 1.7 C19 C20 C21
SIMU 0.04 0.08 1.7 C21 C19 C20
SIMU 0.04 0.08 1.7 C19 C21 C20
ISOR 0.01 0.02 C16
ISOR 0.01 0.02 C17
ISOR 0.01 0.02 C18
ISOR 0.01 0.02 C19
ISOR 0.01 0.02 C21
ISOR 0.01 0.02 C20

L.S. 50 0 68
PLAN  20
SIZE 0.02 0.02 0.02
TEMP -12.31
BOND
ABIN
fmap 2
acta
OMIT 2 2 -1
OMIT 2 2 1
REM <olex2.extras>
REM <HklSrc "%.\\n_sq.hkl">
REM </olex2.extras>

WGHT    0.066000
FVAR       0.19574
ZN1   5   -0.868343   -0.071744   -0.499271    11.00000    0.05013    0.05009 =
         0.06500   -0.00282    0.00310   -0.00147
C4    1   -0.804185   -0.403982   -0.226043    11.00000    0.05803    0.05365 =
         0.07666    0.00148   -0.01375   -0.00126
C1    1   -0.925927   -0.230803   -0.386397    11.00000    0.06103    0.04768 =
         0.06831    0.00182   -0.00620   -0.00322
O5    3   -0.856921   -0.181750   -0.410520    11.00000    0.06358    0.05828 =
         0.10110    0.01605   -0.00540   -0.00958
C10   1   -0.963465   -0.462264   -0.258172    11.00000    0.05965    0.04710 =
         0.06340   -0.00073   -0.01042   -0.00291
C11   1   -0.981435   -0.383534   -0.308416    11.00000    0.05418    0.05277 =
         0.06908    0.00259   -0.00544   -0.00434
C3    1   -0.822776   -0.325356   -0.283279    11.00000    0.05353    0.04451 =
         0.09187    0.00278   -0.01234   -0.00329
AFIX  43
H3    2   -0.775916   -0.280252   -0.292311    11.00000   -1.20000
AFIX   0
C8    1   -0.855591   -0.548501   -0.156402    11.00000    0.08300    0.05783 =
         0.07877   -0.00327   -0.00656    0.00816
AFIX  43
H8    2   -0.901152   -0.594695   -0.146382    11.00000   -1.20000
AFIX   0
C6    1   -0.700991   -0.489933   -0.126980    11.00000    0.08322    0.07486 =
         0.10881   -0.00356   -0.03406    0.01346
AFIX  43
H6    2   -0.642780   -0.496407   -0.098460    11.00000   -1.20000
AFIX   0
C5    1   -0.716806   -0.415807   -0.181701    11.00000    0.06695    0.07129 =
         0.11602   -0.00741   -0.02175    0.00562
AFIX  43
H5    2   -0.669188   -0.371451   -0.190488    11.00000   -1.20000
AFIX   0
C7    1   -0.768050   -0.553943   -0.113445    11.00000    0.09800    0.07472 =
         0.07825    0.00414   -0.01893    0.03153
AFIX  43
H7    2   -0.756315   -0.603894   -0.074160    11.00000   -1.20000
AFIX   0
C2    1   -0.908415   -0.314797   -0.325366    11.00000    0.06138    0.04334 =
         0.08238   -0.00209   -0.00324    0.00095
C9    1   -0.874427   -0.472346   -0.215166    11.00000    0.06626    0.04399 =
         0.06204   -0.00627   -0.00879    0.00405
S1    4   -0.748378   -0.120450   -0.668875    11.00000    0.09281    0.10027 =
         0.10594   -0.02082    0.04769    0.01048
O3    3   -0.952943   -0.141554   -0.589042    11.00000    0.07051    0.07150 =
         0.07241   -0.02320    0.00894   -0.00562
O2    3   -0.749135   -0.122197   -0.570599    11.00000    0.06509    0.09069 =
         0.10839   -0.01482    0.01966    0.01574
AFIX  66
C14   1   -0.935747   -0.185728   -0.668378    11.00000    0.09955    0.08620 =
         0.07023   -0.02492    0.00925    0.00249
C15   1   -0.846108   -0.183070   -0.706722    11.00000    0.11890    0.14494 =
         0.10554   -0.03898    0.05662   -0.00850
C16   1   -0.826549   -0.236377   -0.783396    11.00000    0.15110    0.20767 =
         0.13266   -0.05996    0.05680   -0.02055
AFIX  43
H16   2   -0.766575   -0.234599   -0.809050    11.00000   -1.20000
AFIX  65
C17   1   -0.896628   -0.292343   -0.821727    11.00000    0.18818    0.23568 =
         0.15372   -0.06922    0.03147   -0.01758
C12   1   -0.986267   -0.295002   -0.783384    11.00000    0.16398    0.28173 =
         0.15271   -0.13004    0.00919   -0.05965
AFIX  43
H12   2   -1.033154   -0.332447   -0.809030    11.00000   -1.20000
AFIX  65
C13   1   -1.005828   -0.241695   -0.706709    11.00000    0.11052    0.12476 =
         0.10069   -0.05886   -0.01757    0.00390
AFIX   0
O7    3   -1.066082   -0.374088   -0.349525    11.00000    0.06459    0.07811 =
         0.11290    0.03183   -0.02031   -0.01827
AFIX 147
H7A   2   -1.061534   -0.336049   -0.391116    11.00000   -1.50000
AFIX   0
C18   1   -0.877081   -0.357746   -0.904497    11.00000    0.21988    0.23184 =
         0.21013   -0.07645    0.01019   -0.00351
O6    3   -1.008689   -0.218847   -0.412753    11.00000    0.05510    0.06404 =
         0.10584    0.01706    0.00168    0.00460
O4    3   -1.000000    0.000000   -0.459556    10.25000    0.03983    0.03983 =
         0.05943    0.00000    0.00000    0.00000
C21   1   -0.867701   -0.459087   -0.868027    11.00000    0.45787    0.25137 =
         0.30118   -0.05464    0.03799    0.04529
AFIX  33
H21A  2   -0.816233   -0.461983   -0.825837    11.00000   -1.50000
H21B  2   -0.925243   -0.476931   -0.838189    11.00000   -1.50000
H21C  2   -0.855770   -0.501608   -0.917290    11.00000   -1.50000
AFIX   0
O1    3   -0.665563   -0.158599   -0.712094    11.00000    0.10374    0.13010 =
         0.17510   -0.01313    0.07075    0.02481
C20   1   -0.957938   -0.353711   -0.970632    11.00000    0.35319    0.47266 =
         0.14822   -0.13938   -0.02943    0.06967
AFIX  33
H20A  2   -1.015278   -0.372259   -0.940830    11.00000   -1.50000
H20B  2   -0.964440   -0.290411   -0.993136    11.00000   -1.50000
H20C  2   -0.945622   -0.395891   -1.020077    11.00000   -1.50000
AFIX   0
C19   1   -0.786602   -0.328602   -0.951084    11.00000    0.35902    0.39762 =
         0.20955   -0.11703    0.12165   -0.03353
AFIX  33
H19A  2   -0.735240   -0.331252   -0.908762    11.00000   -1.50000
H19B  2   -0.774140   -0.370761   -1.000511    11.00000   -1.50000
H19C  2   -0.792957   -0.265281   -0.973570    11.00000   -1.50000
AFIX   0
HKLF 4




REM  N in P4
REM R1 =  0.0453 for    3873 Fo > 4sig(Fo)  and  0.0993 for all    6828 data
REM    254 parameters refined using    203 restraints

END  
     
WGHT      0.0662      0.0000 

REM Highest difference peak  0.333,  deepest hole -0.215,  1-sigma level  0.046
Q1    1  -0.9716 -0.2544 -0.9998  11.00000  0.05    0.33
Q2    1  -0.9138 -0.2458 -0.9665  11.00000  0.05    0.26
Q3    1  -0.8045 -0.2359 -0.9960  11.00000  0.05    0.26
Q4    1  -0.9296 -0.2213 -0.8628  11.00000  0.05    0.23
Q5    1  -0.7955 -0.0928 -0.5011  11.00000  0.05    0.22
Q6    1  -0.8484 -0.2838 -0.7690  11.00000  0.05    0.21
Q7    1  -1.0050 -0.2340 -0.8185  11.00000  0.05    0.21
Q8    1  -0.8649 -0.1705 -0.8211  11.00000  0.05    0.20
Q9    1  -0.9240 -0.1276 -0.4999  11.00000  0.05    0.20
Q10   1  -0.8205 -0.3758 -0.1212  11.00000  0.05    0.19
Q11   1  -0.7731 -0.4814 -0.0932  11.00000  0.05    0.18
Q12   1  -0.8426 -0.0020 -0.4961  11.00000  0.05    0.18
Q13   1  -0.9855 -0.2386 -0.6813  11.00000  0.05    0.17
Q14   1  -0.7890 -0.4229 -0.1735  11.00000  0.05    0.17
Q15   1  -0.7996 -0.4690 -0.8659  11.00000  0.05    0.16
Q16   1  -0.9707 -0.5155 -0.8825  11.00000  0.05    0.16
Q17   1  -0.9669 -0.2427 -0.4219  11.00000  0.05    0.15
Q18   1  -0.8204 -0.0214 -0.4923  11.00000  0.05    0.15
Q19   1  -0.9899 -0.5312 -0.8660  11.00000  0.05    0.15
Q20   1  -0.9882 -0.2342 -0.4736  11.00000  0.05    0.15

  REM The information below was added by Olex2.
  REM
  REM R1 = 0.0453 for 3873 Fo > 4sig(Fo) and 0.0993 for all 27073 data
  REM n/a parameters refined using n/a restraints
  REM Highest difference peak 0.33, deepest hole -0.22
  REM Mean Shift 0, Max Shift 0.002.

  REM +++ Tabular Listing of Refinement Information +++
  REM R1_all = 0.0993
  REM R1_gt = 0.0453
  REM wR_ref = 0.1278
  REM GOOF = 0.925
  REM Shift_max = 0.002
  REM Shift_mean = 0
  REM Reflections_all = 27073
  REM Reflections_gt = 3873
  REM Parameters = n/a
  REM Hole = -0.22
  REM Peak = 0.33
  REM Flack = 0.040(11)

  
;
_cod_data_source_file            ja9b07633_si_001.cif
_cod_data_source_block           n_sq
_cod_original_cell_volume        2962.1(8)
_cod_database_code               4127284
_shelx_shelxl_version_number     2016/4
_shelx_space_group_comment
;
The symmetry employed for this shelxl refinement is uniquely defined
by the following loop, which should always be used as a source of
symmetry information in preference to the above space-group names.
They are only intended as comments.
;
_shelx_estimated_absorpt_t_max   0.982
_shelx_estimated_absorpt_t_min   0.982
_olex2_refinement_description
;
1. Fixed Uiso
 At 1.2 times of:
  All C(H) groups
 At 1.5 times of:
  All C(H,H,H) groups, All O(H) groups
2. Restrained distances
 C18-C17
 1.5 with sigma of 0.02
 C19-C17
 2.5 with sigma of 0.02
 C17-C21
 2.5 with sigma of 0.02
 C19-C21
 2.5 with sigma of 0.02
 C17-C20
 2.5 with sigma of 0.02
 C19-C20
 2.5 with sigma of 0.02
 C21-C20
 2.5 with sigma of 0.02
 C17-C18 = C19-C18 = C20-C18 = C21-C18
 1.5 with sigma of 0.02
 C19-C18 = C17-C18 = C20-C18 = C21-C18
 1.48 with sigma of 0.02
 C19-C20 \\sim C20-C21
 with sigma of 0.02
 C20-C21 \\sim C21-C19
 with sigma of 0.02
 C21-C19 \\sim C19-C20
 with sigma of 0.02
3. Restrained planarity
 C18, C17, C16, C12, C13, C15, C14
 with sigma of 0.1
4. Rigid bond restraints
 C16, C18, C12
 with sigma for 1-2 distances of 0.01 and sigma for 1-3 distances of 0.01
 C10, C11, C2, C4, C9, C3
 with sigma for 1-2 distances of 0.01 and sigma for 1-3 distances of 0.01
 C10, C11
 with sigma for 1-2 distances of 0.01 and sigma for 1-3 distances of 0.01
 O7, C11, C10, C9, C4, C3, C2, C1
 with sigma for 1-2 distances of 0.01 and sigma for 1-3 distances of 0.01
 C21, C17, C19
 with sigma for 1-2 distances of 0.01 and sigma for 1-3 distances of 0.01
 C19, C17, C20
 with sigma for 1-2 distances of 0.01 and sigma for 1-3 distances of 0.01
 C20, C17, C21
 with sigma for 1-2 distances of 0.01 and sigma for 1-3 distances of 0.01
 C18, C20, C21, C19, C17, C12, C13, C14, C15, C16
 with sigma for 1-2 distances of 0.01 and sigma for 1-3 distances of 0.01
 C20, C18, C21, C19, C17, C12, C13, C14, C15, C16
 with sigma for 1-2 distances of 0.01 and sigma for 1-3 distances of 0.01
 C21, C19, C20
 with sigma for 1-2 distances of 0.01 and sigma for 1-3 distances of 0.01
 C19, C21, C20
 with sigma for 1-2 distances of 0.01 and sigma for 1-3 distances of 0.01
 C19, C20, C21
 with sigma for 1-2 distances of 0.01 and sigma for 1-3 distances of 0.01
5. Uiso/Uaniso restraints and constraints
C16 \\sim C18 \\sim C12: within 1.7A with sigma of 0.04 and sigma for terminal
atoms of 0.08
C10 \\sim C11 \\sim C2 \\sim C3 \\sim C4 \\sim C9: within 1.7A with sigma of
0.04 and sigma for terminal atoms of 0.08
C10 \\sim C11: within 1.7A with sigma of 0.04 and sigma for terminal atoms of
0.08
O7 \\sim C11 \\sim C10 \\sim C9 \\sim C4 \\sim C3 \\sim C2: within 1.7A with
sigma of 0.04 and sigma for terminal atoms of 0.08
C21 \\sim C17 \\sim C19: within 1.7A with sigma of 0.04 and sigma for terminal
atoms of 0.08
C19 \\sim C17 \\sim C20: within 1.7A with sigma of 0.04 and sigma for terminal
atoms of 0.08
C20 \\sim C17 \\sim C21: within 1.7A with sigma of 0.04 and sigma for terminal
atoms of 0.08
C15 \\sim C14 \\sim C13 \\sim C12 \\sim C17 \\sim C16 \\sim C18 \\sim C21 \\sim
C20 \\sim C19: within 1.7A with sigma of 0.04 and sigma for terminal atoms of
0.08
C20 \\sim C21 \\sim C19 \\sim C18 \\sim C17 \\sim C12 \\sim C13 \\sim C14 \\sim
C15 \\sim C16: within 1.7A with sigma of 0.04 and sigma for terminal atoms of
0.08
C19 \\sim C20 \\sim C21: within 1.7A with sigma of 0.04 and sigma for terminal
atoms of 0.08
C21 \\sim C19 \\sim C20: within 1.7A with sigma of 0.04 and sigma for terminal
atoms of 0.08
C19 \\sim C21 \\sim C20: within 1.7A with sigma of 0.04 and sigma for terminal
atoms of 0.08
Uanis(C16) \\sim Ueq: with sigma of 0.01 and sigma for terminal atoms of 0.02
Uanis(C17) \\sim Ueq: with sigma of 0.01 and sigma for terminal atoms of 0.02
Uanis(C18) \\sim Ueq: with sigma of 0.01 and sigma for terminal atoms of 0.02
Uanis(C19) \\sim Ueq: with sigma of 0.01 and sigma for terminal atoms of 0.02
Uanis(C21) \\sim Ueq: with sigma of 0.01 and sigma for terminal atoms of 0.02
Uanis(C20) \\sim Ueq: with sigma of 0.01 and sigma for terminal atoms of 0.02
6.a Me refined with riding coordinates:
 C21(H21A,H21B,H21C), C20(H20A,H20B,H20C), C19(H19A,H19B,H19C)
6.b Aromatic/amide H refined with riding coordinates:
 C3(H3), C8(H8), C6(H6), C5(H5), C7(H7), C16(H16), C12(H12)
6.c Fitted hexagon refined as free rotating group:
 C14(C15,C16,C17,C12,C13)
6.d Idealised tetrahedral OH refined as rotating group:
 O7(H7A)
;
_shelx_fab_file
;
 1 1 0 45.60 -26.34
 -1 2 0 32.62 -5.43
 0 2 0 48.03 1.74
 1 2 0 14.39 5.98
 2 2 0 -13.29 -2.85
 -2 3 0 -0.39 1.33
 -1 3 0 -7.45 3.60
 0 3 0 -26.91 -1.69
 1 3 0 5.74 -0.80
 2 3 0 6.40 -0.24
 3 3 0 10.71 -0.55
 -3 4 0 -2.50 1.43
 -2 4 0 17.95 -3.17
 -1 4 0 4.80 -0.99
 0 4 0 18.80 0.04
 1 4 0 -6.72 -0.16
 2 4 0 4.84 0.60
 3 4 0 -4.87 -0.16
 4 4 0 6.96 -1.38
 -4 5 0 -2.17 0.85
 -3 5 0 8.22 -4.91
 -2 5 0 -1.23 1.09
 -1 5 0 4.22 -2.21
 0 5 0 0.56 0.54
 1 5 0 7.57 0.07
 2 5 0 2.01 -0.45
 3 5 0 6.34 -0.41
 4 5 0 -3.17 0.74
 5 5 0 2.03 -0.80
 -5 6 0 1.52 -0.33
 -4 6 0 3.89 -0.05
 -3 6 0 2.09 0.83
 -2 6 0 4.63 -1.51
 -1 6 0 -0.64 -0.45
 0 6 0 4.31 -0.46
 1 6 0 1.32 -0.07
 2 6 0 2.06 -0.39
 3 6 0 -1.94 0.72
 4 6 0 1.80 -0.68
 5 6 0 0.26 0.90
 6 6 0 -0.31 -0.03
 -6 7 0 0.23 -0.21
 -5 7 0 0.07 0.07
 -4 7 0 -1.12 -0.69
 -3 7 0 1.75 -0.95
 -2 7 0 -3.45 -0.99
 -1 7 0 2.50 -0.19
 0 7 0 -1.89 1.34
 1 7 0 4.35 -0.29
 2 7 0 1.57 0.53
 3 7 0 -0.62 -0.55
 4 7 0 -0.50 0.03
 5 7 0 1.46 -1.01
 6 7 0 -0.16 0.06
 7 7 0 1.53 -0.12
 -7 8 0 -0.17 -0.45
 -6 8 0 -0.62 -0.23
 -5 8 0 -0.09 0.39
 -4 8 0 1.69 0.53
 -3 8 0 2.66 -0.06
 -2 8 0 2.63 0.18
 -1 8 0 -1.11 0.17
 0 8 0 0.77 -0.37
 1 8 0 -0.66 1.13
 2 8 0 -1.06 -0.32
 3 8 0 1.06 -0.39
 4 8 0 1.67 0.42
 5 8 0 -1.19 0.22
 6 8 0 0.80 -0.66
 7 8 0 0.00 0.48
 8 8 0 0.39 0.10
 -8 9 0 1.19 0.01
 -7 9 0 0.49 0.01
 -6 9 0 -0.67 -0.37
 -5 9 0 0.04 -0.36
 -4 9 0 0.36 -0.65
 -3 9 0 3.05 0.51
 -2 9 0 0.55 0.07
 -1 9 0 0.06 -0.21
 0 9 0 -0.15 0.59
 1 9 0 0.98 -0.19
 2 9 0 1.48 0.52
 3 9 0 0.73 0.08
 4 9 0 -0.34 -0.56
 5 9 0 1.78 0.04
 6 9 0 0.07 0.57
 7 9 0 -0.79 -0.62
 8 9 0 -0.58 0.22
 9 9 0 -1.31 0.28
 -9 10 0 1.20 0.21
 -8 10 0 0.54 0.02
 -7 10 0 -1.18 -0.62
 -6 10 0 0.55 -0.08
 -5 10 0 -0.07 -0.24
 -4 10 0 0.20 -0.19
 -3 10 0 -0.46 -0.43
 -2 10 0 0.40 -0.23
 -1 10 0 2.93 0.13
 0 10 0 1.35 0.03
 1 10 0 0.41 0.33
 2 10 0 1.32 0.38
 3 10 0 0.53 -0.18
 4 10 0 1.17 0.68
 5 10 0 0.49 0.05
 6 10 0 0.51 -0.20
 7 10 0 0.78 0.01
 8 10 0 -1.76 -0.06
 9 10 0 0.33 0.01
 10 10 0 -0.24 0.16
 -10 11 0 -0.41 0.07
 -9 11 0 -0.83 -0.27
 -8 11 0 0.05 0.17
 -7 11 0 -0.12 0.14
 -6 11 0 -1.21 -0.30
 -5 11 0 0.84 -0.62
 -4 11 0 -1.57 -0.37
 -3 11 0 0.25 0.26
 -2 11 0 -2.72 0.70
 -1 11 0 -0.37 -0.03
 0 11 0 0.88 0.04
 1 11 0 0.90 -0.05
 2 11 0 -0.56 0.42
 3 11 0 0.02 0.46
 4 11 0 -0.38 -0.47
 5 11 0 0.83 -0.12
 6 11 0 0.09 0.34
 7 11 0 0.26 0.09
 8 11 0 -0.94 -0.35
 9 11 0 0.22 0.28
 10 11 0 -1.78 0.04
 11 11 0 0.75 0.23
 -11 12 0 -4.50 0.39
 -10 12 0 0.17 -0.15
 -9 12 0 0.10 -0.04
 -8 12 0 0.45 0.27
 -7 12 0 0.06 0.11
 -6 12 0 -0.06 0.39
 -5 12 0 -0.05 -0.38
 -4 12 0 -0.10 -0.17
 -3 12 0 -3.39 -0.02
 -2 12 0 0.97 0.45
 -1 12 0 -0.15 0.22
 0 12 0 0.36 0.09
 1 12 0 -2.08 -0.10
 2 12 0 0.07 0.24
 3 12 0 0.23 -0.32
 4 12 0 0.78 0.22
 5 12 0 0.49 -0.01
 6 12 0 0.13 -0.17
 7 12 0 1.43 0.21
 8 12 0 0.51 -0.22
 9 12 0 -0.37 -0.36
 10 12 0 0.79 -0.27
 11 12 0 -1.59 0.00
 12 12 0 0.42 0.22
 -12 13 0 -1.05 -0.08
 -11 13 0 -1.79 -0.25
 -10 13 0 0.03 0.07
 -9 13 0 -0.46 0.23
 -8 13 0 -0.66 0.36
 -7 13 0 -0.50 0.30
 -6 13 0 -0.21 0.44
 -5 13 0 1.49 -0.28
 -4 13 0 0.85 0.08
 -3 13 0 -0.28 0.10
 -2 13 0 -0.90 0.34
 -1 13 0 0.65 -0.15
 0 13 0 1.30 -0.16
 1 13 0 -0.32 -0.26
 2 13 0 0.16 -0.09
 3 13 0 -1.77 0.27
 4 13 0 0.98 -0.18
 5 13 0 -0.32 -0.13
 6 13 0 -0.19 0.28
 7 13 0 0.44 -0.31
 8 13 0 1.26 0.08
 9 13 0 -0.16 0.28
 10 13 0 -1.09 -0.01
 11 13 0 -0.97 0.01
 12 13 0 -0.86 -0.04
 -11 14 0 -0.16 0.09
 -10 14 0 -1.30 0.50
 -9 14 0 -0.68 -0.20
 -8 14 0 0.55 0.35
 -7 14 0 0.59 0.17
 -6 14 0 1.14 -0.19
 -5 14 0 0.23 0.28
 -4 14 0 -0.55 0.14
 -3 14 0 0.72 -0.20
 -2 14 0 1.52 0.29
 -1 14 0 -0.11 0.44
 0 14 0 -0.12 0.07
 1 14 0 0.04 -0.55
 2 14 0 -0.04 -0.21
 3 14 0 -1.37 0.03
 4 14 0 -0.56 -0.05
 5 14 0 -2.42 0.12
 6 14 0 -0.60 -0.07
 7 14 0 1.19 0.38
 8 14 0 -1.58 -0.07
 9 14 0 2.58 -0.44
 10 14 0 -2.05 0.54
 11 14 0 0.70 0.00
 -10 15 0 -1.53 -0.40
 -9 15 0 0.87 0.71
 -8 15 0 -0.80 0.08
 -7 15 0 -1.19 -0.17
 -6 15 0 -2.11 0.50
 -5 15 0 0.68 0.14
 -4 15 0 0.93 -0.25
 -3 15 0 -0.06 0.47
 -2 15 0 -0.19 -0.24
 -1 15 0 0.74 -0.24
 0 15 0 0.63 -0.15
 1 15 0 0.49 0.07
 2 15 0 -2.05 -0.30
 3 15 0 0.45 -0.04
 4 15 0 -1.80 0.50
 5 15 0 -0.57 0.07
 6 15 0 -0.59 -0.09
 7 15 0 -1.23 0.03
 8 15 0 2.21 0.15
 9 15 0 -1.59 1.14
 10 15 0 1.88 -0.33
 -9 16 0 -1.24 0.04
 -8 16 0 0.64 -0.53
 -7 16 0 -1.14 0.35
 -6 16 0 -2.01 0.10
 -5 16 0 1.29 0.19
 -4 16 0 -1.11 1.14
 -3 16 0 2.30 -1.17
 -2 16 0 -1.41 -1.47
 -1 16 0 0.63 0.91
 0 16 0 -1.29 -0.98
 1 16 0 -0.21 -0.25
 2 16 0 -0.78 -0.29
 3 16 0 -0.82 -0.11
 4 16 0 0.45 -0.32
 5 16 0 -0.05 0.34
 6 16 0 0.34 0.09
 7 16 0 -1.61 0.19
 8 16 0 1.48 0.20
 9 16 0 -0.94 -0.02
 -6 17 0 -0.19 0.25
 -5 17 0 -0.22 0.75
 -4 17 0 0.93 -0.29
 -3 17 0 3.86 -0.79
 -2 17 0 0.34 0.51
 -1 17 0 -0.69 -3.10
 0 17 0 2.20 0.72
 1 17 0 0.25 0.08
 2 17 0 2.88 -0.89
 3 17 0 1.01 0.21
 4 17 0 0.04 -0.04
 5 17 0 1.63 -0.27
 6 17 0 0.33 0.07
 -3 18 0 -1.48 -0.17
 -2 18 0 0.49 -1.77
 -1 18 0 -0.13 0.37
 0 18 0 -0.41 -0.42
 1 18 0 1.19 -0.47
 2 18 0 1.96 0.47
 3 18 0 -0.89 -0.78
 0 1 1 74.32 -41.55
 1 1 1 30.02 -14.96
 -1 2 1 -30.19 13.10
 0 2 1 -15.38 1.09
 1 2 1 -18.53 -19.03
 -2 3 1 -3.99 -3.10
 -1 3 1 10.21 -15.35
 0 3 1 11.94 -3.90
 1 3 1 -1.35 5.23
 2 3 1 -13.42 -3.18
 3 3 1 -0.43 -2.78
 -3 4 1 1.91 -4.53
 -2 4 1 1.67 -0.14
 -1 4 1 -1.94 1.03
 0 4 1 -11.32 -3.82
 1 4 1 -0.68 -5.14
 2 4 1 3.75 -3.32
 3 4 1 -1.00 -0.61
 4 4 1 -2.16 -1.93
 -4 5 1 1.62 -2.00
 -3 5 1 2.36 1.72
 -2 5 1 2.61 -8.46
 -1 5 1 6.62 -3.71
 0 5 1 0.70 -2.36
 1 5 1 2.27 -1.27
 2 5 1 -5.28 -3.91
 3 5 1 -0.66 -2.82
 4 5 1 -1.25 1.64
 5 5 1 1.21 0.28
 -5 6 1 -2.84 0.91
 -4 6 1 1.88 -0.87
 -3 6 1 -2.05 -0.93
 -2 6 1 -0.98 -0.95
 -1 6 1 -4.50 -0.38
 0 6 1 1.08 -3.00
 1 6 1 -0.26 -3.45
 2 6 1 4.69 0.44
 3 6 1 -0.82 -0.28
 4 6 1 -0.77 -3.11
 5 6 1 -1.41 0.26
 6 6 1 2.36 -1.25
 -6 7 1 -1.04 -0.84
 -5 7 1 1.97 0.82
 -4 7 1 -0.21 -0.81
 -3 7 1 3.35 -2.34
 -2 7 1 -0.83 -1.89
 -1 7 1 -1.22 -1.41
 0 7 1 -0.70 -2.19
 1 7 1 -0.57 -0.89
 2 7 1 -3.05 -2.30
 3 7 1 0.36 -0.86
 4 7 1 0.99 1.85
 5 7 1 -0.57 -0.73
 6 7 1 -0.14 -0.22
 7 7 1 0.23 0.56
 -7 8 1 -0.06 -1.52
 -6 8 1 1.27 -0.04
 -5 8 1 -1.82 -1.48
 -4 8 1 0.93 -2.29
 -3 8 1 -0.42 -0.55
 -2 8 1 1.35 -3.16
 -1 8 1 -2.23 -2.70
 0 8 1 -0.41 -0.79
 1 8 1 -0.87 -2.18
 2 8 1 1.15 0.49
 3 8 1 -1.25 -0.32
 4 8 1 -0.35 -2.02
 5 8 1 0.89 -1.58
 6 8 1 -1.11 -0.32
 7 8 1 -0.79 -0.51
 8 8 1 1.06 0.31
 -8 9 1 -0.08 -0.40
 -7 9 1 0.77 -0.21
 -6 9 1 -1.11 0.18
 -5 9 1 0.39 -1.17
 -4 9 1 0.52 -2.55
 -3 9 1 0.54 -4.04
 -2 9 1 1.58 -0.74
 -1 9 1 2.32 -0.57
 0 9 1 -1.25 -0.98
 1 9 1 -0.22 0.09
 2 9 1 -1.11 -1.81
 3 9 1 0.31 -1.31
 4 9 1 0.23 -1.10
 5 9 1 -0.37 -1.82
 6 9 1 -0.02 -1.38
 7 9 1 0.30 -0.10
 8 9 1 -0.58 -0.08
 9 9 1 0.99 -0.21
 -9 10 1 -0.40 0.06
 -8 10 1 -0.12 0.22
 -7 10 1 0.31 -0.28
 -6 10 1 -0.16 1.49
 -5 10 1 0.13 -1.18
 -4 10 1 1.29 0.23
 -3 10 1 -0.76 -0.43
 -2 10 1 0.50 -0.14
 -1 10 1 -1.35 0.57
 0 10 1 1.34 -0.05
 1 10 1 0.49 0.04
 2 10 1 0.38 -0.23
 3 10 1 -0.50 -0.50
 4 10 1 -0.98 -2.60
 5 10 1 0.08 -1.03
 6 10 1 0.65 -0.67
 7 10 1 -1.09 0.22
 8 10 1 -0.09 0.36
 9 10 1 -1.74 -0.24
 10 10 1 0.07 -0.19
 -10 11 1 -0.17 0.87
 -9 11 1 0.84 -0.19
 -8 11 1 0.16 -1.10
 -7 11 1 -0.02 0.90
 -6 11 1 -0.20 -0.22
 -5 11 1 -0.29 0.65
 -4 11 1 0.48 0.94
 -3 11 1 -1.94 1.66
 -2 11 1 0.23 0.71
 -1 11 1 2.08 1.70
 0 11 1 -0.01 -0.42
 1 11 1 -0.13 0.83
 2 11 1 -0.81 1.21
 3 11 1 -0.35 -1.41
 4 11 1 0.72 0.80
 5 11 1 -0.36 -1.31
 6 11 1 0.88 -0.64
 7 11 1 0.49 -0.44
 8 11 1 0.36 -0.49
 9 11 1 -0.81 0.75
 10 11 1 1.87 0.74
 11 11 1 -1.83 0.47
 -11 12 1 1.47 1.19
 -10 12 1 -1.23 1.54
 -9 12 1 0.00 -0.25
 -8 12 1 -0.26 -0.47
 -7 12 1 -0.30 1.08
 -6 12 1 1.09 0.61
 -5 12 1 0.08 0.36
 -4 12 1 -0.43 -0.46
 -3 12 1 0.35 0.96
 -2 12 1 -2.30 1.92
 -1 12 1 -0.19 -0.13
 0 12 1 0.39 1.57
 1 12 1 -0.39 -0.03
 2 12 1 -1.02 0.73
 3 12 1 -0.40 0.67
 4 12 1 0.46 -1.57
 5 12 1 0.13 0.31
 6 12 1 0.97 -0.10
 7 12 1 0.18 0.59
 8 12 1 0.26 -1.41
 9 12 1 0.44 -0.60
 10 12 1 -0.75 0.30
 11 12 1 0.72 1.63
 12 12 1 -2.21 0.97
 -12 13 1 -0.43 0.41
 -11 13 1 -1.02 2.38
 -10 13 1 -1.11 -0.37
 -9 13 1 0.49 0.07
 -8 13 1 0.23 -0.78
 -7 13 1 0.42 -0.05
 -6 13 1 0.16 -1.87
 -5 13 1 0.69 -0.51
 -4 13 1 -0.71 0.82
 -3 13 1 0.19 0.50
 -2 13 1 0.32 -0.26
 -1 13 1 0.08 0.39
 0 13 1 -0.26 -0.16
 1 13 1 -0.46 0.80
 2 13 1 -1.64 0.81
 3 13 1 1.41 -0.95
 4 13 1 -0.35 1.51
 5 13 1 0.08 -1.46
 6 13 1 -0.10 0.31
 7 13 1 0.25 -1.86
 8 13 1 1.27 0.68
 9 13 1 -0.42 -0.67
 10 13 1 0.26 0.58
 11 13 1 -0.20 -0.19
 12 13 1 0.70 0.68
 -11 14 1 -0.38 0.06
 -10 14 1 -0.35 1.02
 -9 14 1 1.21 -0.06
 -8 14 1 -0.30 0.45
 -7 14 1 -0.60 0.12
 -6 14 1 0.00 0.55
 -5 14 1 0.57 -0.73
 -4 14 1 0.93 -0.70
 -3 14 1 -0.29 -0.19
 -2 14 1 0.21 0.44
 -1 14 1 1.07 -0.17
 0 14 1 0.32 -0.11
 1 14 1 0.28 0.23
 2 14 1 -0.29 -0.26
 3 14 1 -0.45 0.43
 4 14 1 -1.04 -0.80
 5 14 1 0.22 1.99
 6 14 1 -0.74 -0.70
 7 14 1 -0.41 1.26
 8 14 1 0.98 -2.92
 9 14 1 -0.13 1.01
 10 14 1 0.89 -0.94
 11 14 1 -1.33 0.70
 -10 15 1 0.50 0.77
 -9 15 1 -0.59 -0.39
 -8 15 1 0.05 -0.68
 -7 15 1 0.46 0.62
 -6 15 1 1.25 0.87
 -5 15 1 -0.43 0.68
 -4 15 1 0.24 0.73
 -3 15 1 -0.38 -0.61
 -2 15 1 -0.08 1.05
 -1 15 1 -0.38 0.78
 0 15 1 -0.57 0.83
 1 15 1 -1.14 0.06
 2 15 1 0.54 1.63
 3 15 1 -1.20 1.30
 4 15 1 -0.45 1.16
 5 15 1 -0.82 -1.05
 6 15 1 -1.36 1.50
 7 15 1 0.58 -0.62
 8 15 1 -0.38 2.04
 9 15 1 1.50 -1.85
 10 15 1 -1.24 1.51
 -9 16 1 -0.16 -0.65
 -8 16 1 0.61 2.41
 -7 16 1 -1.25 0.67
 -6 16 1 0.01 2.53
 -5 16 1 -0.48 1.77
 -4 16 1 1.59 -1.65
 -3 16 1 -0.86 0.80
 -2 16 1 0.75 -1.04
 -1 16 1 -1.81 -0.30
 0 16 1 0.27 0.99
 1 16 1 0.26 1.25
 2 16 1 0.09 -0.89
 3 16 1 -0.62 -0.84
 4 16 1 0.76 -0.46
 5 16 1 0.06 -0.65
 6 16 1 0.19 1.18
 7 16 1 1.20 -0.15
 8 16 1 -1.24 0.30
 -6 17 1 -0.56 1.47
 -5 17 1 0.37 -0.26
 -4 17 1 1.91 -1.23
 -3 17 1 -1.25 0.36
 -2 17 1 -1.69 -2.97
 -1 17 1 -0.07 2.51
 0 17 1 -1.41 -1.09
 1 17 1 1.52 -0.64
 2 17 1 -1.27 1.21
 3 17 1 0.70 0.90
 4 17 1 -0.37 -1.24
 5 17 1 -0.19 -0.29
 6 17 1 0.12 -0.51
 -3 18 1 1.97 -3.17
 -2 18 1 0.42 0.62
 -1 18 1 -0.96 -1.79
 0 18 1 0.99 0.70
 1 18 1 1.73 -0.94
 2 18 1 0.16 -0.95
 3 18 1 0.90 -2.13
 0 0 2 56.52 -45.10
 0 1 2 -34.82 -20.07
 1 1 2 -24.97 10.18
 -1 2 2 8.25 -22.36
 0 2 2 2.52 -6.07
 1 2 2 1.82 5.62
 2 2 2 -16.81 9.28
 -2 3 2 -1.58 -2.13
 -1 3 2 -2.97 18.23
 0 3 2 -23.31 6.58
 1 3 2 -9.93 -2.79
 2 3 2 1.11 2.87
 3 3 2 1.63 5.58
 -3 4 2 -6.40 -0.38
 -2 4 2 5.72 -3.00
 -1 4 2 -4.20 -10.96
 0 4 2 8.41 0.86
 1 4 2 -6.86 3.59
 2 4 2 -7.92 5.14
 3 4 2 -7.90 -1.45
 4 4 2 2.67 3.75
 -4 5 2 -6.29 2.05
 -3 5 2 2.49 -1.70
 -2 5 2 -5.38 5.10
 -1 5 2 -0.93 2.17
 0 5 2 -7.06 1.23
 1 5 2 -3.82 0.39
 2 5 2 1.39 -0.59
 3 5 2 -0.38 2.20
 4 5 2 -4.86 -2.66
 5 5 2 -0.40 0.64
 -5 6 2 0.22 -0.85
 -4 6 2 3.51 2.23
 -3 6 2 -2.30 -2.26
 -2 6 2 -1.06 0.20
 -1 6 2 -2.34 1.58
 0 6 2 -0.45 2.63
 1 6 2 -1.62 2.29
 2 6 2 -3.62 -1.56
 3 6 2 -1.83 -1.30
 4 6 2 1.68 2.15
 5 6 2 -0.52 -0.02
 6 6 2 0.16 1.80
 -6 7 2 -0.80 -0.04
 -5 7 2 0.14 -0.33
 -4 7 2 -1.52 -0.40
 -3 7 2 -0.29 1.12
 -2 7 2 -2.63 -0.10
 -1 7 2 -3.17 0.15
 0 7 2 -4.25 0.30
 1 7 2 0.33 -2.44
 2 7 2 0.46 3.51
 3 7 2 1.89 -0.67
 4 7 2 -1.87 -1.65
 5 7 2 0.98 -0.05
 6 7 2 -1.92 -0.95
 7 7 2 0.48 -1.14
 -7 8 2 0.12 0.55
 -6 8 2 -0.25 -2.02
 -5 8 2 -1.00 -0.85
 -4 8 2 -0.09 -1.96
 -3 8 2 -0.83 -5.02
 -2 8 2 0.64 -1.99
 -1 8 2 -0.41 -1.66
 0 8 2 -0.62 -1.54
 1 8 2 -3.76 2.15
 2 8 2 -2.50 -1.88
 3 8 2 0.09 1.40
 4 8 2 0.59 -0.54
 5 8 2 -1.04 -0.45
 6 8 2 -0.21 0.36
 7 8 2 -0.72 -0.33
 8 8 2 0.63 -0.42
 -8 9 2 0.32 -1.10
 -7 9 2 1.05 0.14
 -6 9 2 0.28 0.13
 -5 9 2 0.87 -1.57
 -4 9 2 -1.39 -1.53
 -3 9 2 0.29 -1.25
 -2 9 2 -0.81 -1.90
 -1 9 2 -1.26 -0.51
 0 9 2 -1.52 -0.38
 1 9 2 0.15 -0.59
 2 9 2 -0.18 1.94
 3 9 2 -1.02 -0.95
 4 9 2 -1.29 -2.04
 5 9 2 -1.43 -1.68
 6 9 2 -1.45 -0.52
 7 9 2 0.26 -0.22
 8 9 2 0.02 0.67
 9 9 2 -0.50 0.63
 -9 10 2 -0.66 -1.19
 -8 10 2 1.95 -0.18
 -7 10 2 -0.47 1.79
 -6 10 2 0.18 -0.18
 -5 10 2 0.19 1.48
 -4 10 2 -0.21 -2.11
 -3 10 2 0.09 0.26
 -2 10 2 1.08 0.33
 -1 10 2 2.30 -0.68
 0 10 2 0.04 0.19
 1 10 2 -0.77 0.37
 2 10 2 -0.54 0.20
 3 10 2 -1.38 -0.28
 4 10 2 -1.56 -0.34
 5 10 2 -0.68 -1.82
 6 10 2 0.65 -2.10
 7 10 2 0.37 -0.42
 8 10 2 -0.57 -0.77
 9 10 2 0.20 -0.07
 10 10 2 0.37 1.21
 -10 11 2 0.67 0.19
 -9 11 2 -0.71 0.71
 -8 11 2 -0.12 0.37
 -7 11 2 0.92 -0.04
 -6 11 2 1.05 1.76
 -5 11 2 2.59 0.91
 -4 11 2 -0.47 0.26
 -3 11 2 0.96 1.61
 -2 11 2 -1.17 1.93
 -1 11 2 -0.67 0.11
 0 11 2 1.86 1.22
 1 11 2 -1.20 1.00
 2 11 2 -0.37 -0.38
 3 11 2 0.23 1.08
 4 11 2 -0.67 -1.04
 5 11 2 -0.62 0.07
 6 11 2 -0.15 0.44
 7 11 2 0.80 -1.33
 8 11 2 -0.65 0.20
 9 11 2 0.08 -2.29
 10 11 2 -0.50 -0.53
 11 11 2 2.06 1.35
 -11 12 2 -0.79 2.32
 -10 12 2 0.05 0.00
 -9 12 2 0.08 -1.38
 -8 12 2 0.36 -0.18
 -7 12 2 0.22 -0.62
 -6 12 2 -0.75 -0.30
 -5 12 2 -0.72 -0.54
 -4 12 2 1.79 2.03
 -3 12 2 -0.28 0.98
 -2 12 2 0.79 1.24
 -1 12 2 -0.07 0.96
 0 12 2 -0.48 -0.21
 1 12 2 -0.40 1.79
 2 12 2 -1.16 2.66
 3 12 2 0.82 0.37
 4 12 2 -1.23 -0.59
 5 12 2 1.14 -0.99
 6 12 2 -0.62 -0.60
 7 12 2 -0.14 -1.04
 8 12 2 0.45 -0.85
 9 12 2 1.57 0.52
 10 12 2 -0.04 -0.39
 11 12 2 0.72 -1.46
 12 12 2 1.05 0.86
 -12 13 2 0.38 0.64
 -11 13 2 0.38 -1.10
 -10 13 2 1.23 1.92
 -9 13 2 0.08 -1.27
 -8 13 2 0.27 -0.17
 -7 13 2 -0.31 -1.18
 -6 13 2 0.81 0.11
 -5 13 2 -1.14 0.39
 -4 13 2 -0.32 -1.73
 -3 13 2 -0.23 0.60
 -2 13 2 -0.41 -0.72
 -1 13 2 0.36 -0.05
 0 13 2 -0.64 1.11
 1 13 2 0.14 0.49
 2 13 2 -0.29 0.10
 3 13 2 -1.10 0.23
 4 13 2 0.44 -1.88
 5 13 2 0.20 0.87
 6 13 2 -0.44 -0.31
 7 13 2 0.73 -0.49
 8 13 2 -1.08 -0.81
 9 13 2 0.05 -2.33
 10 13 2 0.81 -0.81
 11 13 2 -0.14 0.25
 12 13 2 -0.27 -0.32
 -11 14 2 -0.11 1.16
 -10 14 2 1.72 -1.44
 -9 14 2 -1.44 -0.19
 -8 14 2 0.41 -2.05
 -7 14 2 -0.44 0.31
 -6 14 2 -0.14 -1.49
 -5 14 2 0.72 -0.74
 -4 14 2 -0.60 0.86
 -3 14 2 0.02 -0.16
 -2 14 2 0.36 0.64
 -1 14 2 -0.36 0.77
 0 14 2 0.29 0.15
 1 14 2 -0.23 0.81
 2 14 2 0.19 1.47
 3 14 2 0.74 0.65
 4 14 2 1.30 1.12
 5 14 2 -1.38 -0.97
 6 14 2 0.28 0.94
 7 14 2 -1.46 -0.64
 8 14 2 1.09 0.04
 9 14 2 0.60 -0.44
 10 14 2 -0.74 0.51
 11 14 2 0.45 -0.06
 -10 15 2 -0.99 -0.58
 -9 15 2 1.10 0.74
 -8 15 2 0.88 -0.13
 -7 15 2 1.09 0.74
 -6 15 2 0.40 1.71
 -5 15 2 0.30 -0.20
 -4 15 2 -0.04 -0.34
 -3 15 2 0.42 1.44
 -2 15 2 -0.51 -0.79
 -1 15 2 -0.20 1.61
 0 15 2 0.22 1.94
 1 15 2 0.41 1.52
 2 15 2 0.88 -0.66
 3 15 2 0.71 -0.11
 4 15 2 -1.04 -1.08
 5 15 2 1.08 1.49
 6 15 2 0.87 -0.32
 7 15 2 -0.07 1.44
 8 15 2 -0.16 -3.15
 9 15 2 -0.65 0.57
 10 15 2 1.19 -2.10
 -8 16 2 -0.70 -1.59
 -7 16 2 2.73 1.93
 -6 16 2 0.69 -0.01
 -5 16 2 1.47 0.66
 -4 16 2 -1.09 0.88
 -3 16 2 -1.16 -1.11
 -2 16 2 -1.06 3.80
 -1 16 2 -0.29 2.31
 0 16 2 -0.21 1.27
 1 16 2 -0.34 0.64
 2 16 2 0.47 3.47
 3 16 2 1.20 1.35
 4 16 2 0.12 1.01
 5 16 2 -1.44 -0.18
 6 16 2 0.16 -0.86
 7 16 2 0.50 1.45
 8 16 2 1.45 0.91
 -6 17 2 0.42 0.72
 -5 17 2 0.93 0.08
 -4 17 2 -1.34 0.53
 -3 17 2 0.19 -1.72
 -2 17 2 -0.40 2.26
 -1 17 2 -1.28 -1.54
 0 17 2 0.96 2.12
 1 17 2 -0.91 1.36
 2 17 2 0.93 -1.94
 3 17 2 -1.86 0.67
 4 17 2 -0.17 -1.07
 5 17 2 0.25 -0.69
 6 17 2 0.36 1.36
 -3 18 2 -1.00 0.87
 -2 18 2 -1.55 -0.67
 -1 18 2 0.24 1.83
 0 18 2 -0.16 -0.25
 1 18 2 0.41 0.68
 2 18 2 0.25 1.24
 3 18 2 -0.83 2.01
 0 0 3 -37.69 15.70
 0 1 3 -7.45 4.18
 1 1 3 2.49 -9.38
 -1 2 3 -10.11 15.82
 0 2 3 -4.97 14.96
 1 2 3 -14.84 1.16
 2 2 3 16.10 7.17
 -2 3 3 1.03 -0.04
 -1 3 3 2.33 -12.20
 0 3 3 5.18 -2.56
 1 3 3 6.51 11.83
 2 3 3 -3.95 4.36
 3 3 3 3.32 2.49
 -3 4 3 2.11 2.06
 -2 4 3 3.17 0.78
 -1 4 3 3.23 6.19
 0 4 3 -7.54 2.90
 1 4 3 -3.66 2.96
 2 4 3 4.06 3.04
 3 4 3 2.13 1.95
 4 4 3 -2.52 2.13
 -4 5 3 0.96 -2.94
 -3 5 3 -0.87 4.56
 -2 5 3 -1.27 -3.62
 -1 5 3 2.75 2.09
 0 5 3 0.86 1.59
 1 5 3 3.36 6.45
 2 5 3 -5.30 1.03
 3 5 3 0.00 -0.35
 4 5 3 -1.15 1.85
 5 5 3 1.65 2.10
 -5 6 3 1.20 1.29
 -4 6 3 -1.55 2.10
 -3 6 3 -1.48 1.37
 -2 6 3 -0.12 4.85
 -1 6 3 -4.05 4.86
 0 6 3 2.55 7.06
 1 6 3 -2.85 -1.09
 2 6 3 4.81 1.70
 3 6 3 -0.68 -1.51
 4 6 3 0.82 -2.70
 5 6 3 -1.44 -0.41
 6 6 3 -0.18 -0.60
 -6 7 3 -0.75 -0.76
 -5 7 3 0.01 -0.64
 -4 7 3 0.71 -0.77
 -3 7 3 -0.70 -1.29
 -2 7 3 -1.47 -1.30
 -1 7 3 0.44 1.62
 0 7 3 -0.56 -2.08
 1 7 3 0.71 5.74
 2 7 3 -2.71 -1.93
 3 7 3 0.88 1.32
 4 7 3 1.94 -0.28
 5 7 3 0.77 -0.10
 6 7 3 0.37 2.09
 7 7 3 -0.17 0.05
 -7 8 3 -0.76 -1.82
 -6 8 3 1.05 0.16
 -5 8 3 -2.11 -0.72
 -4 8 3 -0.27 -1.02
 -3 8 3 -0.61 0.77
 -2 8 3 -0.46 -0.04
 -1 8 3 -2.00 -1.46
 0 8 3 -2.50 2.08
 1 8 3 -0.20 -2.14
 2 8 3 2.96 3.04
 3 8 3 0.35 -0.07
 4 8 3 0.78 -0.68
 5 8 3 -0.59 0.93
 6 8 3 -1.03 -0.81
 7 8 3 -0.21 1.36
 8 8 3 1.18 -0.55
 -8 9 3 2.03 1.63
 -7 9 3 0.42 -0.82
 -6 9 3 -0.43 -0.06
 -5 9 3 -0.03 -0.18
 -4 9 3 -2.14 -0.72
 -3 9 3 -0.28 -1.08
 -2 9 3 -0.47 -1.37
 -1 9 3 1.77 -1.71
 0 9 3 -0.23 -0.45
 1 9 3 -0.85 1.40
 2 9 3 -0.83 0.56
 3 9 3 0.53 0.66
 4 9 3 -0.89 0.97
 5 9 3 -1.24 -0.88
 6 9 3 0.02 -0.62
 7 9 3 0.81 0.02
 8 9 3 0.30 -0.35
 9 9 3 -0.16 -1.07
 -9 10 3 1.86 2.04
 -8 10 3 -0.86 -0.46
 -7 10 3 2.20 -0.15
 -6 10 3 2.18 1.44
 -5 10 3 0.51 -0.80
 -4 10 3 1.34 0.27
 -3 10 3 -0.45 0.07
 -2 10 3 -0.45 1.22
 -1 10 3 -0.67 -0.38
 0 10 3 -0.19 -0.08
 1 10 3 0.24 -0.82
 2 10 3 1.28 -0.50
 3 10 3 0.13 0.45
 4 10 3 -0.09 -0.35
 5 10 3 -1.51 0.85
 6 10 3 -0.61 0.22
 7 10 3 0.11 -1.09
 8 10 3 -0.44 0.06
 9 10 3 -0.07 0.43
 10 10 3 -1.37 -1.38
 -10 11 3 1.21 0.77
 -9 11 3 0.28 -1.53
 -8 11 3 0.71 0.65
 -7 11 3 0.58 0.83
 -6 11 3 0.01 0.39
 -5 11 3 -0.35 0.04
 -4 11 3 2.06 0.86
 -3 11 3 0.99 -0.34
 -2 11 3 1.81 -0.02
 -1 11 3 1.00 0.11
 0 11 3 -0.97 -1.97
 1 11 3 0.73 0.71
 2 11 3 0.93 2.04
 3 11 3 -0.02 -0.15
 4 11 3 -0.19 1.01
 5 11 3 0.15 -0.90
 6 11 3 0.27 -1.02
 7 11 3 -0.53 0.55
 8 11 3 -0.09 -2.55
 9 11 3 0.24 0.28
 10 11 3 1.64 -0.88
 11 11 3 0.29 -1.13
 -11 12 3 1.12 -0.46
 -10 12 3 1.12 0.06
 -9 12 3 0.38 1.29
 -8 12 3 0.11 -1.84
 -7 12 3 0.49 -1.09
 -6 12 3 0.92 0.90
 -5 12 3 0.33 0.47
 -4 12 3 -0.10 -0.19
 -3 12 3 -0.08 1.04
 -2 12 3 -0.50 -0.58
 -1 12 3 0.66 -0.72
 0 12 3 -0.31 0.57
 1 12 3 0.65 1.12
 2 12 3 -0.04 -0.27
 3 12 3 -0.35 0.05
 4 12 3 0.59 -0.18
 5 12 3 -1.34 1.52
 6 12 3 -0.56 0.84
 7 12 3 -0.16 -1.22
 8 12 3 0.33 -0.45
 9 12 3 -1.48 -2.35
 10 12 3 0.99 -2.78
 11 12 3 -0.92 0.82
 12 12 3 0.41 -2.02
 -12 13 3 0.27 0.53
 -11 13 3 0.24 1.47
 -10 13 3 -0.01 -2.14
 -9 13 3 -0.62 -0.81
 -8 13 3 -0.95 -0.84
 -7 13 3 -0.27 1.46
 -6 13 3 -1.87 -0.82
 -5 13 3 -0.10 -1.10
 -4 13 3 0.54 1.12
 -3 13 3 0.45 -0.83
 -2 13 3 0.10 1.07
 -1 13 3 -0.98 -0.05
 0 13 3 0.91 -1.11
 1 13 3 -0.36 1.14
 2 13 3 1.15 1.60
 3 13 3 -0.86 1.64
 4 13 3 -0.20 -0.85
 5 13 3 -1.62 -0.76
 6 13 3 -0.34 -0.10
 7 13 3 -1.22 1.98
 8 13 3 0.36 -0.19
 9 13 3 1.66 0.75
 10 13 3 -0.60 -0.62
 11 13 3 -0.16 -1.04
 12 13 3 0.42 0.41
 -11 14 3 1.24 -2.08
 -10 14 3 -1.81 1.94
 -9 14 3 1.89 -1.52
 -8 14 3 -1.41 1.73
 -7 14 3 1.20 -2.28
 -6 14 3 -0.24 1.88
 -5 14 3 -0.73 0.05
 -4 14 3 -0.38 -0.23
 -3 14 3 0.22 -0.90
 -2 14 3 -0.97 -0.59
 -1 14 3 0.30 -1.00
 0 14 3 0.29 1.06
 1 14 3 0.52 0.53
 2 14 3 0.31 -1.43
 3 14 3 0.34 -1.55
 4 14 3 -1.44 0.69
 5 14 3 0.48 -0.73
 6 14 3 0.28 0.70
 7 14 3 -0.18 -0.15
 8 14 3 -1.17 -0.20
 9 14 3 -0.40 -1.52
 10 14 3 0.59 -0.88
 11 14 3 0.65 -0.13
 -10 15 3 1.35 0.59
 -9 15 3 -1.95 -1.17
 -8 15 3 0.75 -0.21
 -7 15 3 -0.48 0.27
 -6 15 3 1.67 -1.50
 -5 15 3 0.87 0.27
 -4 15 3 -0.71 -0.36
 -3 15 3 -1.31 0.90
 -2 15 3 1.97 1.13
 -1 15 3 1.22 1.99
 0 15 3 0.70 0.42
 1 15 3 1.26 -0.74
 2 15 3 1.22 1.35
 3 15 3 1.73 1.09
 4 15 3 1.91 -0.18
 5 15 3 0.20 1.09
 6 15 3 -0.98 0.58
 7 15 3 0.81 -1.60
 8 15 3 0.32 3.22
 9 15 3 0.49 -1.89
 10 15 3 -0.39 1.86
 -8 16 3 2.01 0.72
 -7 16 3 0.12 -1.36
 -6 16 3 2.26 0.85
 -5 16 3 -1.39 -0.64
 -4 16 3 0.38 -0.02
 -3 16 3 1.05 1.12
 -2 16 3 -0.68 0.86
 -1 16 3 1.22 -0.08
 0 16 3 -0.36 2.44
 1 16 3 1.70 0.64
 2 16 3 0.29 -0.65
 3 16 3 0.58 -0.93
 4 16 3 -0.89 0.12
 5 16 3 0.38 -1.27
 6 16 3 0.67 0.48
 7 16 3 1.03 0.32
 8 16 3 -2.12 -1.90
 -6 17 3 0.53 -0.98
 -5 17 3 -0.94 0.77
 -4 17 3 0.36 -1.32
 -3 17 3 -0.59 2.73
 -2 17 3 0.34 -1.09
 -1 17 3 0.79 4.51
 0 17 3 0.13 -0.55
 1 17 3 1.00 0.28
 2 17 3 0.64 2.82
 3 17 3 1.75 0.60
 4 17 3 -0.14 1.69
 5 17 3 -1.03 0.49
 6 17 3 -0.73 -0.76
 -2 18 3 0.11 0.68
 -1 18 3 0.06 -1.04
 0 18 3 1.10 0.58
 1 18 3 -0.42 -0.23
 2 18 3 -0.80 0.76
 0 0 4 -2.84 3.25
 0 1 4 1.75 -5.96
 1 1 4 -3.25 15.67
 -1 2 4 8.08 -14.53
 0 2 4 1.70 -3.27
 1 2 4 12.90 -2.09
 2 2 4 -1.89 -2.06
 -2 3 4 6.88 -8.85
 -1 3 4 5.82 5.89
 0 3 4 -5.58 -3.32
 1 3 4 2.31 -1.20
 2 3 4 5.43 -5.06
 3 3 4 8.09 -0.41
 -3 4 4 -1.86 -4.73
 -2 4 4 3.28 -0.80
 -1 4 4 -4.11 -13.55
 0 4 4 7.19 0.37
 1 4 4 -0.83 -1.58
 2 4 4 2.09 0.76
 3 4 4 -3.21 -3.01
 4 4 4 4.59 0.35
 -4 5 4 -0.04 1.56
 -3 5 4 0.60 -1.61
 -2 5 4 -0.01 0.94
 -1 5 4 2.05 5.20
 0 5 4 0.11 2.03
 1 5 4 -1.25 0.89
 2 5 4 1.15 -4.40
 3 5 4 0.68 -0.97
 4 5 4 -2.76 -5.63
 5 5 4 1.68 -0.27
 -5 6 4 -1.13 -2.60
 -4 6 4 2.60 -1.89
 -3 6 4 -1.13 -1.07
 -2 6 4 -1.03 0.72
 -1 6 4 0.96 -2.46
 0 6 4 1.15 -0.54
 1 6 4 3.16 0.86
 2 6 4 -1.90 0.64
 3 6 4 -2.58 -3.63
 4 6 4 0.42 0.32
 5 6 4 0.49 -0.78
 6 6 4 2.50 1.36
 -6 7 4 -1.76 -1.76
 -5 7 4 2.40 2.52
 -4 7 4 -1.64 -0.33
 -3 7 4 1.86 1.48
 -2 7 4 -3.06 0.85
 -1 7 4 0.66 1.01
 0 7 4 -1.21 2.12
 1 7 4 -0.95 -2.22
 2 7 4 0.67 -0.01
 3 7 4 2.30 -2.12
 4 7 4 -1.08 -0.25
 5 7 4 1.29 0.23
 6 7 4 -1.18 -0.88
 7 7 4 0.45 0.60
 -7 8 4 -0.01 -0.62
 -6 8 4 -0.47 0.52
 -5 8 4 -1.75 -1.33
 -4 8 4 -0.41 1.80
 -3 8 4 -1.16 -0.47
 -2 8 4 0.50 -0.63
 -1 8 4 -1.27 -0.73
 0 8 4 -0.97 -2.59
 1 8 4 -0.83 1.24
 2 8 4 -0.02 0.93
 3 8 4 -0.03 1.18
 4 8 4 1.69 0.06
 5 8 4 -0.39 0.18
 6 8 4 1.21 1.77
 7 8 4 0.14 -0.72
 8 8 4 0.65 0.07
 -8 9 4 -0.19 -2.63
 -7 9 4 2.00 0.63
 -6 9 4 -0.33 -0.94
 -5 9 4 0.20 0.44
 -4 9 4 -0.66 -0.32
 -3 9 4 -0.01 1.99
 -2 9 4 0.07 0.70
 -1 9 4 -1.60 1.58
 0 9 4 -0.79 -0.32
 1 9 4 -0.15 -0.02
 2 9 4 1.04 -1.92
 3 9 4 1.58 0.47
 4 9 4 -0.09 0.62
 5 9 4 0.08 0.86
 6 9 4 -1.42 1.28
 7 9 4 0.19 0.05
 8 9 4 1.18 0.65
 9 9 4 1.85 2.42
 -9 10 4 -0.60 -0.91
 -8 10 4 2.38 1.87
 -7 10 4 -0.71 -0.43
 -6 10 4 0.50 -0.28
 -5 10 4 0.74 0.08
 -4 10 4 0.12 0.23
 -3 10 4 -0.62 -0.57
 -2 10 4 1.27 -1.87
 -1 10 4 -0.24 -0.12
 0 10 4 -0.95 -1.57
 1 10 4 0.12 0.17
 2 10 4 0.05 0.73
 3 10 4 1.17 -1.50
 4 10 4 0.31 1.26
 5 10 4 -0.11 -0.13
 6 10 4 0.38 -0.49
 7 10 4 -0.35 -0.61
 8 10 4 0.67 0.41
 9 10 4 -0.66 -0.14
 10 10 4 2.45 0.65
 -10 11 4 0.17 -0.89
 -9 11 4 0.96 1.20
 -8 11 4 0.47 -2.09
 -7 11 4 1.27 -0.41
 -6 11 4 -0.50 -0.16
 -5 11 4 1.27 0.22
 -4 11 4 0.19 -2.22
 -3 11 4 1.23 0.83
 -2 11 4 -0.69 -0.61
 -1 11 4 -1.61 -2.38
 0 11 4 0.77 0.22
 1 11 4 -1.01 -1.42
 2 11 4 0.82 -2.10
 3 11 4 1.54 0.10
 4 11 4 -0.03 -0.12
 5 11 4 1.58 1.86
 6 11 4 -0.25 1.17
 7 11 4 -0.60 -1.37
 8 11 4 -0.40 0.17
 9 11 4 -2.11 -2.03
 10 11 4 -0.28 -1.33
 11 11 4 -0.20 0.19
 -11 12 4 0.00 -1.44
 -10 12 4 0.53 -0.59
 -9 12 4 -0.14 -1.68
 -8 12 4 -0.29 1.80
 -7 12 4 0.35 0.49
 -6 12 4 -0.46 -0.85
 -5 12 4 0.01 -0.48
 -4 12 4 0.89 -0.04
 -3 12 4 1.30 -2.36
 -2 12 4 0.42 -0.46
 -1 12 4 -0.64 -0.59
 0 12 4 0.13 -1.94
 1 12 4 0.57 -0.31
 2 12 4 1.27 1.64
 3 12 4 0.35 0.16
 4 12 4 -0.68 0.42
 5 12 4 -0.54 -0.33
 6 12 4 0.39 -0.29
 7 12 4 0.26 1.77
 8 12 4 -0.46 -0.22
 9 12 4 1.50 -0.29
 10 12 4 -1.07 0.51
 11 12 4 0.07 -2.64
 12 12 4 -0.27 2.10
 -12 13 4 -0.20 -1.35
 -11 13 4 0.53 -1.43
 -10 13 4 0.13 1.75
 -9 13 4 0.21 0.41
 -8 13 4 0.40 -0.33
 -7 13 4 0.07 -1.31
 -6 13 4 1.23 0.84
 -5 13 4 -0.28 1.30
 -4 13 4 -0.20 -1.76
 -3 13 4 -0.16 1.17
 -2 13 4 -1.05 -1.87
 -1 13 4 -0.04 -0.86
 0 13 4 -0.84 0.07
 1 13 4 0.39 -0.52
 2 13 4 0.12 0.15
 3 13 4 -0.54 -1.33
 4 13 4 -1.60 1.71
 5 13 4 -0.88 0.58
 6 13 4 -1.08 1.03
 7 13 4 0.14 0.23
 8 13 4 0.22 0.57
 9 13 4 0.43 -0.22
 10 13 4 -0.50 0.09
 11 13 4 -0.14 -0.31
 12 13 4 0.17 -0.43
 -11 14 4 -0.55 2.07
 -10 14 4 0.66 -2.43
 -9 14 4 -1.27 2.28
 -8 14 4 0.84 -0.63
 -7 14 4 -1.87 3.82
 -6 14 4 0.72 -3.21
 -5 14 4 0.86 -0.23
 -4 14 4 -0.71 -0.88
 -3 14 4 0.31 0.33
 -2 14 4 -0.05 0.38
 -1 14 4 0.36 0.05
 0 14 4 0.62 -1.97
 1 14 4 -0.10 -1.98
 2 14 4 0.14 0.68
 3 14 4 0.25 0.84
 4 14 4 0.00 -0.37
 5 14 4 0.28 -0.10
 6 14 4 -1.58 0.65
 7 14 4 0.84 1.62
 8 14 4 1.20 1.93
 9 14 4 1.30 1.33
 10 14 4 1.80 -0.79
 11 14 4 -0.10 1.06
 -9 15 4 1.16 1.84
 -8 15 4 -1.60 -0.58
 -7 15 4 2.35 -0.79
 -6 15 4 -0.97 1.07
 -5 15 4 -0.32 -0.97
 -4 15 4 0.41 0.01
 -3 15 4 -0.52 -1.01
 -2 15 4 0.10 0.43
 -1 15 4 -0.55 -1.60
 0 15 4 0.54 -0.44
 1 15 4 -0.01 0.12
 2 15 4 0.50 -2.69
 3 15 4 -1.01 -1.20
 4 15 4 0.68 -0.31
 5 15 4 -1.33 -0.14
 6 15 4 1.24 -2.10
 7 15 4 -0.67 1.53
 8 15 4 -0.24 -2.11
 9 15 4 -0.42 1.37
 -8 16 4 -0.72 -0.19
 -7 16 4 0.56 -0.96
 -6 16 4 -1.29 -0.60
 -5 16 4 0.42 -1.29
 -4 16 4 -0.74 0.69
 -3 16 4 -0.01 -0.78
 -2 16 4 1.80 -1.27
 -1 16 4 1.35 1.93
 0 16 4 1.66 -1.40
 1 16 4 0.16 0.02
 2 16 4 0.95 -1.65
 3 16 4 2.81 0.16
 4 16 4 0.19 -0.11
 5 16 4 0.43 0.82
 6 16 4 0.57 0.30
 7 16 4 -1.03 -1.34
 8 16 4 1.42 1.55
 -5 17 4 0.24 -1.05
 -4 17 4 -0.31 -0.30
 -3 17 4 0.21 -1.94
 -2 17 4 0.05 2.44
 -1 17 4 0.04 -2.55
 0 17 4 0.15 0.19
 1 17 4 0.07 -0.05
 2 17 4 0.50 -2.05
 3 17 4 -1.52 0.82
 4 17 4 0.75 -1.75
 5 17 4 -1.22 0.66
 0 0 5 3.17 -1.49
 0 1 5 -0.04 3.41
 1 1 5 3.36 -8.14
 -1 2 5 -4.77 -1.51
 0 2 5 1.15 -1.16
 1 2 5 -6.62 -6.01
 2 2 5 7.24 -2.82
 -2 3 5 -5.62 -6.62
 -1 3 5 -2.29 -8.11
 0 3 5 -2.15 -6.80
 1 3 5 -2.66 -0.22
 2 3 5 -2.00 -5.17
 3 3 5 -3.32 1.93
 -3 4 5 0.06 -5.64
 -2 4 5 1.59 0.59
 -1 4 5 -3.17 2.58
 0 4 5 -4.59 1.70
 1 4 5 -3.87 -2.03
 2 4 5 -2.75 -1.37
 3 4 5 -2.10 -5.08
 4 4 5 -0.93 -0.33
 -4 5 5 -2.37 -5.73
 -3 5 5 0.83 1.87
 -2 5 5 -5.04 -4.57
 -1 5 5 0.51 -2.51
 0 5 5 -1.08 -2.57
 1 5 5 0.93 0.17
 2 5 5 -5.66 -0.10
 3 5 5 -3.55 -0.88
 4 5 5 -2.20 -0.03
 5 5 5 0.74 -1.43
 -5 6 5 1.34 0.63
 -4 6 5 1.97 -0.96
 -3 6 5 -0.41 -0.47
 -2 6 5 -0.20 1.11
 -1 6 5 -0.59 2.11
 0 6 5 0.18 2.35
 1 6 5 -1.69 -1.92
 2 6 5 -1.31 -1.64
 3 6 5 -3.54 -0.87
 4 6 5 -1.54 -0.09
 5 6 5 -0.86 -0.30
 6 6 5 -0.23 -1.04
 -6 7 5 0.19 1.45
 -5 7 5 -1.58 -1.26
 -4 7 5 1.64 0.72
 -3 7 5 -1.39 -0.14
 -2 7 5 1.88 0.13
 -1 7 5 -3.78 -0.75
 0 7 5 -1.44 -2.20
 1 7 5 -0.87 1.06
 2 7 5 -2.47 0.11
 3 7 5 -0.98 2.57
 4 7 5 -0.64 0.17
 5 7 5 0.96 1.19
 6 7 5 0.07 0.80
 7 7 5 0.22 0.30
 -7 8 5 -1.06 -0.70
 -6 8 5 -0.10 -0.07
 -5 8 5 0.31 1.69
 -4 8 5 -0.15 1.73
 -3 8 5 -0.13 2.57
 -2 8 5 1.03 1.95
 -1 8 5 -1.39 1.50
 0 8 5 -0.31 1.66
 1 8 5 -3.25 0.55
 2 8 5 0.25 0.04
 3 8 5 -0.37 -0.66
 4 8 5 1.23 0.83
 5 8 5 -0.83 1.25
 6 8 5 0.13 1.26
 7 8 5 -1.14 0.14
 8 8 5 1.20 -0.18
 -8 9 5 1.47 2.08
 -7 9 5 -0.59 -1.62
 -6 9 5 -0.37 0.23
 -5 9 5 0.29 -0.01
 -4 9 5 -0.72 1.95
 -3 9 5 0.11 0.65
 -2 9 5 -0.19 1.77
 -1 9 5 0.80 -0.25
 0 9 5 -1.88 2.08
 1 9 5 -0.10 -0.36
 2 9 5 -0.83 2.25
 3 9 5 0.76 -0.25
 4 9 5 -0.98 0.04
 5 9 5 0.26 1.80
 6 9 5 -0.91 -0.52
 7 9 5 0.71 1.06
 8 9 5 0.71 0.19
 9 9 5 0.18 -0.54
 -9 10 5 2.12 0.88
 -8 10 5 -0.59 -2.27
 -7 10 5 -0.18 0.59
 -6 10 5 -0.13 0.07
 -5 10 5 -1.57 -0.54
 -4 10 5 0.62 -1.59
 -3 10 5 0.36 0.44
 -2 10 5 -1.09 1.24
 -1 10 5 -0.87 0.03
 0 10 5 -0.19 1.04
 1 10 5 -0.97 0.56
 2 10 5 -0.07 -2.06
 3 10 5 -0.39 0.70
 4 10 5 1.30 -0.20
 5 10 5 -0.25 0.66
 6 10 5 -0.06 1.12
 7 10 5 0.84 1.15
 8 10 5 -1.45 -0.01
 9 10 5 1.06 1.01
 10 10 5 -1.67 0.46
 -10 11 5 0.36 -0.44
 -9 11 5 -0.55 -0.10
 -8 11 5 0.02 1.86
 -7 11 5 -1.76 -0.42
 -6 11 5 0.64 -0.88
 -5 11 5 0.00 -0.88
 -4 11 5 0.56 -0.68
 -3 11 5 -0.67 -3.55
 -2 11 5 -0.98 -1.26
 -1 11 5 -0.48 -0.91
 0 11 5 -1.85 0.44
 1 11 5 0.58 0.00
 2 11 5 -0.06 0.54
 3 11 5 -0.26 -1.20
 4 11 5 1.27 -0.65
 5 11 5 0.69 -0.42
 6 11 5 0.55 -1.21
 7 11 5 -0.37 -0.81
 8 11 5 -0.73 0.62
 9 11 5 0.33 0.35
 10 11 5 -1.77 1.11
 11 11 5 -0.05 -1.43
 -11 12 5 -0.11 0.96
 -10 12 5 -0.20 0.32
 -9 12 5 0.24 0.76
 -8 12 5 -0.12 -2.21
 -7 12 5 0.14 -1.43
 -6 12 5 -0.22 0.65
 -5 12 5 0.44 -0.46
 -4 12 5 -0.14 -1.61
 -3 12 5 0.25 -0.25
 -2 12 5 -0.16 -0.60
 -1 12 5 -1.31 -1.50
 0 12 5 -1.62 0.04
 1 12 5 0.57 -0.49
 2 12 5 0.52 -1.22
 3 12 5 -0.02 0.65
 4 12 5 0.32 0.24
 5 12 5 0.10 0.55
 6 12 5 0.59 -0.31
 7 12 5 -0.28 -0.35
 8 12 5 -0.87 -0.19
 9 12 5 -0.60 0.97
 10 12 5 -1.12 0.48
 11 12 5 -0.97 2.00
 12 12 5 -0.58 -1.81
 -12 13 5 0.59 0.55
 -11 13 5 -1.36 0.54
 -10 13 5 1.09 -1.51
 -9 13 5 0.09 0.42
 -8 13 5 0.64 1.21
 -7 13 5 -0.15 1.22
 -6 13 5 -0.01 -2.04
 -5 13 5 -0.45 -2.44
 -4 13 5 0.51 0.69
 -3 13 5 -0.38 -1.69
 -2 13 5 0.54 1.73
 -1 13 5 -0.82 -0.33
 0 13 5 0.01 -1.54
 1 13 5 -0.06 0.30
 2 13 5 -1.00 -0.40
 3 13 5 0.43 0.95
 4 13 5 -0.39 -0.11
 5 13 5 -0.72 -0.03
 6 13 5 -0.03 -0.15
 7 13 5 0.40 1.34
 8 13 5 3.60 1.58
 9 13 5 -0.20 0.77
 10 13 5 1.48 -0.34
 11 13 5 0.67 1.21
 12 13 5 -0.38 -0.06
 -10 14 5 0.66 2.51
 -9 14 5 1.07 -1.06
 -8 14 5 -1.73 2.03
 -7 14 5 1.66 -3.45
 -6 14 5 -0.36 3.24
 -5 14 5 -0.22 -2.25
 -4 14 5 0.28 -0.15
 -3 14 5 -0.77 0.99
 -2 14 5 0.06 0.01
 -1 14 5 -1.45 0.82
 0 14 5 -1.38 0.53
 1 14 5 -1.15 -0.23
 2 14 5 -0.77 -1.09
 3 14 5 -0.03 0.25
 4 14 5 -1.37 -0.49
 5 14 5 -0.61 0.27
 6 14 5 -1.24 0.04
 7 14 5 -0.63 -0.20
 8 14 5 1.35 0.90
 9 14 5 1.32 -0.86
 10 14 5 -0.01 1.59
 -9 15 5 -0.85 -0.81
 -8 15 5 1.43 1.34
 -7 15 5 -3.48 1.45
 -6 15 5 0.61 -2.34
 -5 15 5 -0.92 -0.29
 -4 15 5 0.08 -1.00
 -3 15 5 0.48 1.07
 -2 15 5 -0.37 -0.75
 -1 15 5 1.18 -0.58
 0 15 5 -0.47 -0.69
 1 15 5 -0.08 -2.22
 2 15 5 -1.21 0.64
 3 15 5 0.72 -1.64
 4 15 5 0.61 -0.07
 5 15 5 -0.10 -1.17
 6 15 5 -0.56 0.05
 7 15 5 1.06 0.46
 8 15 5 -0.28 0.89
 9 15 5 1.76 0.29
 -7 16 5 -0.48 0.95
 -6 16 5 -0.28 -0.61
 -5 16 5 -0.06 1.09
 -4 16 5 -1.63 -2.40
 -3 16 5 0.08 -0.22
 -2 16 5 -0.57 1.07
 -1 16 5 0.21 -0.70
 0 16 5 -0.11 -0.54
 1 16 5 -0.28 -1.64
 2 16 5 0.16 -0.72
 3 16 5 -2.42 -1.56
 4 16 5 0.28 -0.10
 5 16 5 0.13 -0.98
 6 16 5 -1.59 -0.26
 7 16 5 0.53 -0.75
 -5 17 5 -1.80 0.40
 -4 17 5 -0.38 -1.00
 -3 17 5 -0.43 0.23
 -2 17 5 0.46 -2.55
 -1 17 5 0.25 1.00
 0 17 5 1.66 -0.39
 1 17 5 -1.23 -1.89
 2 17 5 0.55 -0.66
 3 17 5 0.33 -2.42
 4 17 5 -0.41 1.46
 5 17 5 1.27 -0.06
 0 0 6 10.96 3.70
 0 1 6 1.61 0.46
 1 1 6 3.38 2.15
 -1 2 6 -1.36 -1.99
 0 2 6 -2.45 -0.27
 1 2 6 -0.74 1.72
 2 2 6 -5.98 2.06
 -2 3 6 1.76 4.00
 -1 3 6 -4.23 5.10
 0 3 6 -7.61 4.77
 1 3 6 -1.67 1.69
 2 3 6 -4.20 2.97
 3 3 6 1.12 -1.20
 -3 4 6 -2.25 2.64
 -2 4 6 -3.69 1.06
 -1 4 6 -1.69 -1.64
 0 4 6 -0.88 2.34
 1 4 6 -4.73 1.98
 2 4 6 -1.58 5.99
 3 4 6 -2.20 2.28
 4 4 6 -2.89 1.62
 -4 5 6 1.62 -0.81
 -3 5 6 -0.48 -2.65
 -2 5 6 1.80 3.67
 -1 5 6 0.59 4.48
 0 5 6 0.01 2.35
 1 5 6 0.40 2.23
 2 5 6 -2.16 -0.58
 3 5 6 -3.46 3.77
 4 5 6 -1.65 -0.28
 5 5 6 -1.37 0.56
 -5 6 6 -0.11 -1.22
 -4 6 6 0.57 0.36
 -3 6 6 -1.11 -1.22
 -2 6 6 0.97 -0.76
 -1 6 6 -0.38 -1.16
 0 6 6 2.06 -0.90
 1 6 6 -0.77 1.26
 2 6 6 -1.24 3.01
 3 6 6 -1.73 2.78
 4 6 6 0.53 3.64
 5 6 6 -0.68 1.51
 6 6 6 0.05 2.06
 -6 7 6 -0.06 -0.26
 -5 7 6 1.26 1.89
 -4 7 6 -0.90 1.17
 -3 7 6 4.61 0.37
 -2 7 6 -1.85 1.95
 -1 7 6 2.68 2.63
 0 7 6 -1.68 1.46
 1 7 6 0.16 1.68
 2 7 6 -0.92 1.52
 3 7 6 -0.23 2.04
 4 7 6 -0.61 1.31
 5 7 6 1.28 1.66
 6 7 6 -0.30 -0.17
 7 7 6 -0.77 1.43
 -7 8 6 0.08 0.72
 -6 8 6 0.13 -0.28
 -5 8 6 -0.33 0.67
 -4 8 6 0.83 1.28
 -3 8 6 1.63 2.20
 -2 8 6 0.97 1.91
 -1 8 6 1.01 0.38
 0 8 6 -1.18 2.19
 1 8 6 -0.37 1.40
 2 8 6 -0.97 1.50
 3 8 6 -0.30 1.63
 4 8 6 0.27 1.96
 5 8 6 -0.01 0.18
 6 8 6 0.07 1.67
 7 8 6 0.06 0.64
 8 8 6 -0.50 0.17
 -8 9 6 -0.29 -1.25
 -7 9 6 -0.74 0.59
 -6 9 6 -0.13 -0.29
 -5 9 6 -0.46 0.29
 -4 9 6 -0.49 1.30
 -3 9 6 0.32 2.65
 -2 9 6 0.44 0.77
 -1 9 6 1.36 2.20
 0 9 6 0.39 0.35
 1 9 6 0.83 2.29
 2 9 6 -0.69 0.28
 3 9 6 -0.22 0.72
 4 9 6 -0.20 0.26
 5 9 6 -0.48 1.44
 6 9 6 0.02 2.65
 7 9 6 0.58 -0.22
 8 9 6 0.58 1.53
 9 9 6 0.84 0.07
 -9 10 6 -0.87 1.06
 -8 10 6 -0.03 1.14
 -7 10 6 -0.63 -0.10
 -6 10 6 -0.62 0.33
 -5 10 6 0.94 -0.08
 -4 10 6 -0.89 -1.03
 -3 10 6 -0.92 -1.17
 -2 10 6 -0.22 0.45
 -1 10 6 -0.99 1.86
 0 10 6 0.87 1.11
 1 10 6 0.26 1.81
 2 10 6 0.65 1.77
 3 10 6 -0.40 -0.92
 4 10 6 -0.67 -0.05
 5 10 6 0.26 -0.08
 6 10 6 0.83 0.08
 7 10 6 -1.43 0.06
 8 10 6 1.52 -0.43
 9 10 6 -0.46 1.55
 10 10 6 -0.02 -0.19
 -10 11 6 -0.49 1.04
 -9 11 6 0.28 -0.97
 -8 11 6 -1.51 0.11
 -7 11 6 -0.17 -0.03
 -6 11 6 -1.20 1.82
 -5 11 6 -0.40 -0.63
 -4 11 6 -0.27 -1.00
 -3 11 6 0.21 -0.31
 -2 11 6 -1.49 -0.79
 -1 11 6 -0.93 0.67
 0 11 6 -0.83 0.87
 1 11 6 0.04 0.47
 2 11 6 0.38 -0.02
 3 11 6 0.39 0.21
 4 11 6 0.67 0.45
 5 11 6 0.35 -0.71
 6 11 6 -0.19 -0.93
 7 11 6 0.54 0.22
 8 11 6 -1.29 0.34
 9 11 6 -1.56 2.40
 10 11 6 0.07 0.47
 11 11 6 -1.16 2.82
 -11 12 6 -0.03 -1.07
 -10 12 6 -0.25 0.25
 -9 12 6 0.32 0.04
 -8 12 6 -0.75 0.80
 -7 12 6 -0.91 0.49
 -6 12 6 -0.27 -1.99
 -5 12 6 -0.39 0.21
 -4 12 6 -0.43 -0.37
 -3 12 6 -1.30 -0.22
 -2 12 6 -0.67 -0.56
 -1 12 6 -0.34 1.46
 0 12 6 0.39 -0.71
 1 12 6 -0.56 1.49
 2 12 6 -0.62 -0.39
 3 12 6 0.18 -0.31
 4 12 6 -0.11 -0.03
 5 12 6 1.29 -1.57
 6 12 6 -0.39 -0.44
 7 12 6 -0.37 -1.25
 8 12 6 1.63 0.41
 9 12 6 -0.67 0.64
 10 12 6 -0.21 1.58
 11 12 6 -1.08 0.75
 12 12 6 -0.65 1.15
 -11 13 6 1.24 -0.86
 -10 13 6 0.58 0.36
 -9 13 6 -0.14 -0.66
 -8 13 6 -0.55 -1.12
 -7 13 6 -1.03 -1.27
 -6 13 6 0.22 0.46
 -5 13 6 -0.45 0.28
 -4 13 6 -0.38 -0.84
 -3 13 6 0.76 1.88
 -2 13 6 -0.05 -0.28
 -1 13 6 -0.18 2.13
 0 13 6 -0.85 1.91
 1 13 6 -0.32 -0.58
 2 13 6 1.13 0.64
 3 13 6 -1.12 -0.71
 4 13 6 0.80 0.88
 5 13 6 -0.73 -0.21
 6 13 6 -0.61 0.63
 7 13 6 1.17 -0.93
 8 13 6 -1.11 -0.23
 9 13 6 2.32 0.71
 10 13 6 -0.81 0.96
 11 13 6 -0.90 0.34
 -10 14 6 -0.15 -3.13
 -9 14 6 0.39 0.51
 -8 14 6 -0.54 -0.73
 -7 14 6 -1.02 3.67
 -6 14 6 -1.70 -3.05
 -5 14 6 -0.38 0.51
 -4 14 6 -0.84 -0.54
 -3 14 6 1.57 0.34
 -2 14 6 -0.18 2.66
 -1 14 6 0.44 -0.61
 0 14 6 -0.44 0.96
 1 14 6 -1.00 0.85
 2 14 6 -0.88 0.69
 3 14 6 -0.98 -0.21
 4 14 6 0.39 -0.75
 5 14 6 -1.44 -0.13
 6 14 6 0.18 -0.49
 7 14 6 0.46 1.39
 8 14 6 0.92 -0.22
 9 14 6 0.13 -0.62
 10 14 6 0.14 -0.77
 -8 15 6 -1.59 0.36
 -7 15 6 -0.10 0.49
 -6 15 6 0.24 1.22
 -5 15 6 -0.10 -0.73
 -4 15 6 -0.06 0.41
 -3 15 6 -0.80 -0.04
 -2 15 6 1.86 1.75
 -1 15 6 -0.21 2.74
 0 15 6 -0.40 -0.68
 1 15 6 -0.74 1.49
 2 15 6 -0.21 -0.84
 3 15 6 -1.41 0.93
 4 15 6 -0.97 -1.31
 5 15 6 -0.80 -0.29
 6 15 6 -1.36 0.30
 7 15 6 -2.25 -0.55
 8 15 6 1.98 0.16
 -7 16 6 -0.20 -0.51
 -6 16 6 -1.12 1.85
 -5 16 6 -1.02 -2.09
 -4 16 6 0.47 2.15
 -3 16 6 0.38 -1.54
 -2 16 6 0.66 0.28
 -1 16 6 0.50 -2.66
 0 16 6 0.83 0.64
 1 16 6 0.75 -1.40
 2 16 6 -2.42 -1.01
 3 16 6 1.18 0.31
 4 16 6 -1.33 -1.07
 5 16 6 -0.26 0.42
 6 16 6 0.96 -1.05
 -3 17 6 -1.44 0.63
 -2 17 6 0.62 0.98
 -1 17 6 1.26 -0.05
 0 17 6 -1.07 -1.90
 1 17 6 0.45 -0.28
 2 17 6 -1.55 -0.58
 3 17 6 -0.80 0.04
 0 0 7 10.29 -1.18
 0 1 7 6.68 -6.33
 1 1 7 4.22 0.09
 -1 2 7 -0.64 1.11
 0 2 7 0.80 4.18
 1 2 7 0.00 -1.15
 2 2 7 2.73 1.90
 -2 3 7 0.71 -1.85
 -1 3 7 -0.05 4.58
 0 3 7 -0.85 -0.87
 1 3 7 -2.98 6.36
 2 3 7 4.80 0.71
 3 3 7 -1.23 5.98
 -3 4 7 3.41 -1.75
 -2 4 7 2.10 4.81
 -1 4 7 3.06 2.18
 0 4 7 -0.25 5.68
 1 4 7 3.22 1.18
 2 4 7 -1.64 1.45
 3 4 7 1.42 0.64
 4 4 7 -0.18 0.79
 -4 5 7 -1.62 -0.46
 -3 5 7 0.35 2.21
 -2 5 7 1.08 -4.19
 -1 5 7 1.75 0.54
 0 5 7 3.66 -2.88
 1 5 7 1.67 1.45
 2 5 7 2.16 2.62
 3 5 7 1.24 3.59
 4 5 7 -0.51 1.76
 5 5 7 1.32 2.22
 -5 6 7 0.07 1.19
 -4 6 7 1.08 -1.64
 -3 6 7 2.14 -0.53
 -2 6 7 1.07 0.44
 -1 6 7 1.53 0.74
 0 6 7 2.51 0.47
 1 6 7 2.84 -0.60
 2 6 7 1.99 2.26
 3 6 7 1.17 1.62
 4 6 7 1.03 2.28
 5 6 7 0.19 -0.43
 6 6 7 0.37 0.02
 -6 7 7 -0.02 0.57
 -5 7 7 0.92 0.07
 -4 7 7 1.28 -0.53
 -3 7 7 -0.49 -0.09
 -2 7 7 2.49 -1.57
 -1 7 7 0.26 -1.36
 0 7 7 2.53 0.63
 1 7 7 -0.43 1.38
 2 7 7 0.65 0.96
 3 7 7 1.67 2.79
 4 7 7 1.66 1.31
 5 7 7 0.86 0.12
 6 7 7 0.46 1.38
 7 7 7 0.65 -0.07
 -7 8 7 -0.27 -0.40
 -6 8 7 0.03 0.15
 -5 8 7 -0.97 -0.80
 -4 8 7 0.61 1.51
 -3 8 7 0.21 0.83
 -2 8 7 1.66 0.53
 -1 8 7 0.15 0.94
 0 8 7 0.98 -0.55
 1 8 7 0.03 -0.56
 2 8 7 1.21 2.83
 3 8 7 -0.39 -0.04
 4 8 7 0.57 0.21
 5 8 7 1.41 0.90
 6 8 7 -0.21 0.20
 7 8 7 0.52 1.10
 8 8 7 1.26 0.75
 -8 9 7 -0.99 1.56
 -7 9 7 0.99 -0.81
 -6 9 7 -0.25 -0.42
 -5 9 7 0.24 -0.57
 -4 9 7 -0.50 -1.31
 -3 9 7 0.77 -0.01
 -2 9 7 1.24 0.75
 -1 9 7 0.07 0.69
 0 9 7 0.57 -0.08
 1 9 7 0.73 -0.01
 2 9 7 0.81 0.26
 3 9 7 -0.09 0.22
 4 9 7 0.32 0.13
 5 9 7 -0.33 0.38
 6 9 7 1.74 -0.48
 7 9 7 0.78 1.01
 8 9 7 -0.67 -0.53
 9 9 7 1.38 -0.43
 -9 10 7 -0.08 -0.74
 -8 10 7 0.60 -0.63
 -7 10 7 -0.93 1.31
 -6 10 7 0.53 0.76
 -5 10 7 0.04 0.10
 -4 10 7 0.20 0.65
 -3 10 7 -0.90 0.39
 -2 10 7 -0.46 -1.08
 -1 10 7 -0.24 -0.22
 0 10 7 0.95 1.19
 1 10 7 1.07 0.20
 2 10 7 1.25 -0.46
 3 10 7 0.39 0.15
 4 10 7 -0.08 -0.24
 5 10 7 1.02 0.85
 6 10 7 0.14 0.52
 7 10 7 0.76 -0.06
 8 10 7 0.69 0.12
 9 10 7 -0.25 1.01
 10 10 7 1.13 1.13
 -10 11 7 0.63 -0.26
 -9 11 7 -0.08 1.08
 -8 11 7 -0.68 -0.26
 -7 11 7 0.46 0.89
 -6 11 7 1.10 0.44
 -5 11 7 0.75 1.12
 -4 11 7 -1.22 -0.21
 -3 11 7 -1.52 -0.33
 -2 11 7 -0.01 1.45
 -1 11 7 -0.32 0.79
 0 11 7 0.53 1.45
 1 11 7 0.84 0.46
 2 11 7 0.14 0.59
 3 11 7 0.21 0.08
 4 11 7 -0.30 -0.86
 5 11 7 0.81 -0.88
 6 11 7 0.29 0.03
 7 11 7 -0.17 -1.40
 8 11 7 -0.22 0.91
 9 11 7 0.56 -1.51
 10 11 7 0.16 2.83
 11 11 7 -0.04 0.00
 -11 12 7 -0.46 2.11
 -10 12 7 1.19 -2.58
 -9 12 7 -0.74 0.84
 -8 12 7 -0.14 -1.08
 -7 12 7 -0.66 0.66
 -6 12 7 -0.39 1.09
 -5 12 7 0.24 0.54
 -4 12 7 0.71 1.13
 -3 12 7 0.36 0.43
 -2 12 7 -0.32 0.48
 -1 12 7 -0.53 0.56
 0 12 7 0.04 0.85
 1 12 7 1.05 -0.73
 2 12 7 0.25 -0.26
 3 12 7 -0.04 -0.14
 4 12 7 2.08 0.02
 5 12 7 -0.34 1.18
 6 12 7 0.27 -1.59
 7 12 7 0.31 0.52
 8 12 7 -0.12 -1.84
 9 12 7 1.05 1.97
 10 12 7 -0.06 1.36
 11 12 7 0.26 0.04
 12 12 7 0.20 0.43
 -11 13 7 0.56 -1.47
 -10 13 7 -0.10 0.10
 -9 13 7 0.00 -3.16
 -8 13 7 -1.46 2.57
 -7 13 7 -0.77 -0.54
 -6 13 7 -0.26 0.77
 -5 13 7 -0.28 -0.03
 -4 13 7 -1.69 2.29
 -3 13 7 -0.17 -0.01
 -2 13 7 0.48 1.62
 -1 13 7 0.98 -0.51
 0 13 7 1.29 0.72
 1 13 7 -0.25 0.88
 2 13 7 -2.00 -0.30
 3 13 7 0.69 1.29
 4 13 7 -1.45 0.27
 5 13 7 2.12 0.05
 6 13 7 0.31 -0.68
 7 13 7 -0.11 -0.25
 8 13 7 1.17 -0.56
 9 13 7 -2.25 -2.45
 10 13 7 -0.11 0.78
 11 13 7 -0.42 0.81
 -9 14 7 -2.04 0.01
 -8 14 7 -0.75 0.45
 -7 14 7 0.23 -0.16
 -6 14 7 0.04 1.61
 -5 14 7 0.10 -1.33
 -4 14 7 0.13 0.47
 -3 14 7 -0.21 0.52
 -2 14 7 1.02 0.35
 -1 14 7 1.13 2.91
 0 14 7 0.83 1.52
 1 14 7 0.85 -0.02
 2 14 7 0.04 0.74
 3 14 7 -0.97 0.79
 4 14 7 -0.65 -0.54
 5 14 7 0.26 1.34
 6 14 7 -1.32 1.56
 7 14 7 1.27 -0.58
 8 14 7 -1.72 -1.55
 9 14 7 0.69 0.85
 -8 15 7 -0.29 1.18
 -7 15 7 0.09 0.72
 -6 15 7 -0.42 0.38
 -5 15 7 -0.57 0.47
 -4 15 7 0.51 -1.00
 -3 15 7 1.57 0.07
 -2 15 7 0.60 -1.51
 -1 15 7 -0.84 -0.73
 0 15 7 0.59 0.22
 1 15 7 0.44 0.12
 2 15 7 -0.99 1.93
 3 15 7 -0.17 -0.92
 4 15 7 -0.75 2.67
 5 15 7 -2.19 -1.67
 6 15 7 0.32 0.68
 7 15 7 0.68 0.56
 8 15 7 -0.92 0.31
 -6 16 7 0.67 -0.77
 -5 16 7 1.13 1.50
 -4 16 7 -1.35 -1.61
 -3 16 7 1.72 1.84
 -2 16 7 -0.90 -1.83
 -1 16 7 2.85 1.42
 0 16 7 -0.69 -2.32
 1 16 7 -1.54 0.80
 2 16 7 1.51 -0.01
 3 16 7 -2.11 1.23
 4 16 7 -0.09 -0.53
 5 16 7 -0.02 0.37
 6 16 7 -1.28 0.09
 -2 17 7 0.79 -1.24
 -1 17 7 -1.54 -1.22
 0 17 7 1.13 -0.53
 1 17 7 -0.76 -0.80
 2 17 7 0.10 0.02
 0 0 8 1.27 -10.27
 0 1 8 0.84 -4.87
 1 1 8 0.91 -6.23
 -1 2 8 -0.48 -3.41
 0 2 8 -1.66 -1.42
 1 2 8 -0.66 -1.69
 2 2 8 -0.18 -0.69
 -2 3 8 2.91 -0.63
 -1 3 8 -0.15 0.29
 0 3 8 0.44 1.32
 1 3 8 0.23 -1.02
 2 3 8 -1.60 -0.96
 3 3 8 0.86 -2.75
 -3 4 8 -0.95 0.28
 -2 4 8 1.71 -2.67
 -1 4 8 1.27 -2.22
 0 4 8 0.94 -1.29
 1 4 8 0.05 -1.10
 2 4 8 1.81 1.01
 3 4 8 -0.85 0.18
 4 4 8 0.05 0.71
 -4 5 8 1.13 -0.26
 -3 5 8 0.00 -2.47
 -2 5 8 0.75 1.56
 -1 5 8 0.87 -1.17
 0 5 8 1.71 -1.18
 1 5 8 1.54 -0.27
 2 5 8 0.59 -2.64
 3 5 8 0.25 -0.14
 4 5 8 0.26 0.22
 5 5 8 -0.10 -0.75
 -5 6 8 -0.47 -1.20
 -4 6 8 2.81 -0.08
 -3 6 8 -2.25 -3.75
 -2 6 8 -0.21 -0.91
 -1 6 8 -0.47 -2.93
 0 6 8 0.38 -0.88
 1 6 8 1.61 -2.60
 2 6 8 2.29 0.40
 3 6 8 2.06 0.26
 4 6 8 0.89 0.60
 5 6 8 0.87 -0.65
 6 6 8 0.60 0.72
 -6 7 8 -0.23 -1.69
 -5 7 8 0.13 -0.68
 -4 7 8 -1.86 -0.14
 -3 7 8 1.45 -0.08
 -2 7 8 -2.73 -0.45
 -1 7 8 -0.11 0.64
 0 7 8 -1.36 -1.22
 1 7 8 1.89 -0.84
 2 7 8 0.66 1.31
 3 7 8 1.51 0.19
 4 7 8 1.57 -1.71
 5 7 8 -0.62 0.67
 6 7 8 0.22 -2.09
 7 7 8 0.62 0.88
 -7 8 8 0.16 -0.36
 -6 8 8 0.15 -2.10
 -5 8 8 -1.46 -0.64
 -4 8 8 -0.68 -2.03
 -3 8 8 -0.84 -1.17
 -2 8 8 0.87 -0.75
 -1 8 8 0.17 -1.95
 0 8 8 -1.72 -0.09
 1 8 8 -0.84 -0.02
 2 8 8 -0.70 -0.48
 3 8 8 1.54 0.83
 4 8 8 0.44 -0.25
 5 8 8 0.59 -1.94
 6 8 8 1.11 -0.12
 7 8 8 0.27 -0.58
 8 8 8 0.88 -0.04
 -8 9 8 0.59 -1.39
 -7 9 8 0.13 0.42
 -6 9 8 -1.01 -0.84
 -5 9 8 -0.43 -0.32
 -4 9 8 -0.56 0.46
 -3 9 8 -0.39 -0.93
 -2 9 8 -0.70 -1.11
 -1 9 8 -0.49 -0.63
 0 9 8 -0.98 -2.37
 1 9 8 0.19 -0.07
 2 9 8 0.15 -1.38
 3 9 8 0.67 -0.50
 4 9 8 -0.53 -1.00
 5 9 8 2.06 -0.33
 6 9 8 0.37 0.09
 7 9 8 0.54 0.08
 8 9 8 0.63 -0.19
 9 9 8 1.06 0.10
 -9 10 8 0.21 -0.68
 -8 10 8 -0.21 -0.89
 -7 10 8 1.06 -0.16
 -6 10 8 1.99 -0.77
 -5 10 8 -0.32 0.19
 -4 10 8 -0.27 -1.17
 -3 10 8 -0.41 -2.20
 -2 10 8 0.39 2.07
 -1 10 8 -0.13 0.14
 0 10 8 0.19 0.17
 1 10 8 0.89 -0.99
 2 10 8 1.21 -0.56
 3 10 8 -0.03 -0.64
 4 10 8 -0.56 -1.02
 5 10 8 -0.14 -0.88
 6 10 8 1.51 -1.02
 7 10 8 0.43 -0.87
 8 10 8 -0.87 0.46
 9 10 8 0.74 -1.19
 10 10 8 0.44 -1.22
 -10 11 8 0.80 0.32
 -9 11 8 0.69 -1.62
 -8 11 8 0.36 0.20
 -7 11 8 0.36 -0.19
 -6 11 8 0.71 0.69
 -5 11 8 1.66 -0.01
 -4 11 8 1.66 0.43
 -3 11 8 0.39 1.23
 -2 11 8 -1.30 -1.93
 -1 11 8 0.52 0.96
 0 11 8 -0.04 0.91
 1 11 8 1.03 -0.72
 2 11 8 0.76 -0.91
 3 11 8 -0.02 -1.73
 4 11 8 0.93 0.19
 5 11 8 0.16 -0.33
 6 11 8 0.51 0.86
 7 11 8 -0.38 -0.14
 8 11 8 -0.03 -1.25
 9 11 8 1.63 0.91
 10 11 8 1.89 -0.59
 11 11 8 1.43 -0.25
 -11 12 8 1.04 -2.43
 -10 12 8 0.03 1.62
 -9 12 8 -0.44 -2.48
 -8 12 8 -0.29 1.55
 -7 12 8 -0.02 -0.66
 -6 12 8 2.17 -0.49
 -5 12 8 0.00 1.66
 -4 12 8 -0.56 2.26
 -3 12 8 -0.59 0.52
 -2 12 8 1.52 1.27
 -1 12 8 0.68 -0.84
 0 12 8 1.21 -0.76
 1 12 8 -0.63 0.24
 2 12 8 -1.15 -0.09
 3 12 8 1.17 1.61
 4 12 8 -0.65 0.49
 5 12 8 1.37 -0.75
 6 12 8 0.34 -0.68
 7 12 8 -0.48 -1.01
 8 12 8 -0.04 -0.58
 9 12 8 -1.03 -1.16
 10 12 8 0.33 -0.27
 11 12 8 1.08 1.90
 -10 13 8 -0.98 -2.97
 -9 13 8 -0.63 2.70
 -8 13 8 -0.27 -2.01
 -7 13 8 1.13 1.69
 -6 13 8 -1.23 -0.82
 -5 13 8 -0.44 0.32
 -4 13 8 0.98 -1.47
 -3 13 8 -0.36 2.28
 -2 13 8 -0.31 -0.40
 -1 13 8 0.81 0.75
 0 13 8 1.58 -1.72
 1 13 8 0.11 -1.24
 2 13 8 0.51 0.36
 3 13 8 -2.37 -0.85
 4 13 8 3.26 1.13
 5 13 8 -0.55 0.93
 6 13 8 1.40 1.04
 7 13 8 0.51 -1.69
 8 13 8 -0.85 -1.52
 9 13 8 0.33 0.17
 10 13 8 -0.37 -0.21
 -9 14 8 -0.52 -0.65
 -8 14 8 -0.37 0.19
 -7 14 8 -0.35 1.60
 -6 14 8 1.30 -2.81
 -5 14 8 -0.40 2.68
 -4 14 8 -0.69 -0.60
 -3 14 8 -1.20 -0.73
 -2 14 8 -0.07 -1.83
 -1 14 8 1.41 -0.26
 0 14 8 0.05 -0.59
 1 14 8 0.37 -0.14
 2 14 8 -0.76 0.33
 3 14 8 0.07 2.25
 4 14 8 0.06 2.22
 5 14 8 0.29 0.25
 6 14 8 2.13 -0.85
 7 14 8 -1.46 0.45
 8 14 8 0.51 -0.72
 9 14 8 -3.09 -1.10
 -7 15 8 0.78 -0.72
 -6 15 8 1.20 0.66
 -5 15 8 0.14 -1.92
 -4 15 8 0.52 0.35
 -3 15 8 -0.63 -2.36
 -2 15 8 -0.07 1.63
 -1 15 8 -0.04 -1.39
 0 15 8 1.44 0.13
 1 15 8 -0.74 0.22
 2 15 8 0.65 -0.54
 3 15 8 0.54 1.86
 4 15 8 -1.41 -0.65
 5 15 8 1.49 2.17
 6 15 8 -0.52 0.68
 7 15 8 -0.30 -0.66
 -4 16 8 1.16 0.43
 -3 16 8 -1.91 -2.72
 -2 16 8 1.12 -1.30
 -1 16 8 -3.33 -2.10
 0 16 8 -1.09 1.11
 1 16 8 1.59 -1.58
 2 16 8 -0.70 1.27
 3 16 8 0.59 0.44
 4 16 8 -0.20 0.90
 0 0 9 -1.42 0.47
 0 1 9 -2.46 -4.57
 1 1 9 -4.03 2.27
 -1 2 9 -1.24 -0.84
 0 2 9 -2.15 0.55
 1 2 9 -2.14 -1.91
 2 2 9 -0.85 -1.24
 -2 3 9 -1.32 -1.20
 -1 3 9 -0.24 -3.49
 0 3 9 -2.25 -0.67
 1 3 9 -0.91 1.88
 2 3 9 -1.14 0.16
 3 3 9 -0.38 -0.19
 -3 4 9 -0.11 0.85
 -2 4 9 -0.23 -0.92
 -1 4 9 0.38 -0.30
 0 4 9 -0.54 -0.47
 1 4 9 -0.86 -0.52
 2 4 9 -2.72 0.55
 3 4 9 -1.74 1.22
 4 4 9 -1.12 0.77
 -4 5 9 -0.93 -2.00
 -3 5 9 0.73 -0.54
 -2 5 9 -1.59 -1.45
 -1 5 9 -0.33 -0.04
 0 5 9 -0.41 -0.81
 1 5 9 -1.38 -2.19
 2 5 9 -0.13 -0.66
 3 5 9 -0.65 1.32
 4 5 9 0.05 -0.42
 5 5 9 1.50 -0.04
 -5 6 9 1.81 -0.93
 -4 6 9 -0.80 -0.08
 -3 6 9 -0.56 0.94
 -2 6 9 -2.17 1.33
 -1 6 9 -1.52 2.94
 0 6 9 -0.14 0.11
 1 6 9 -0.40 0.06
 2 6 9 -0.44 -1.45
 3 6 9 0.04 -1.70
 4 6 9 0.95 -0.51
 5 6 9 -0.69 1.33
 6 6 9 -0.27 -1.85
 -6 7 9 -1.31 -0.19
 -5 7 9 -0.13 0.51
 -4 7 9 -0.49 -2.57
 -3 7 9 -0.96 -0.38
 -2 7 9 -1.49 0.20
 -1 7 9 -0.27 0.04
 0 7 9 -1.49 -0.29
 1 7 9 -1.41 1.24
 2 7 9 1.38 -0.56
 3 7 9 1.06 1.09
 4 7 9 0.29 0.32
 5 7 9 0.83 -2.35
 6 7 9 -0.56 1.51
 7 7 9 0.09 -1.49
 -7 8 9 -0.57 -0.79
 -6 8 9 -1.10 0.48
 -5 8 9 -1.73 -0.88
 -4 8 9 -0.86 2.49
 -3 8 9 -0.61 -0.41
 -2 8 9 -0.13 -0.15
 -1 8 9 -2.39 0.28
 0 8 9 -1.02 -1.29
 1 8 9 -1.42 0.35
 2 8 9 0.46 1.36
 3 8 9 -0.03 -0.34
 4 8 9 0.93 -0.76
 5 8 9 0.33 0.52
 6 8 9 0.10 -1.03
 7 8 9 0.32 0.44
 8 8 9 1.01 0.09
 -8 9 9 -0.28 -0.57
 -7 9 9 0.57 -1.13
 -6 9 9 -0.63 0.38
 -5 9 9 -1.00 -1.32
 -4 9 9 -1.67 -1.12
 -3 9 9 -0.19 -0.95
 -2 9 9 -0.01 -0.40
 -1 9 9 -0.20 -0.97
 0 9 9 -1.12 1.39
 1 9 9 -1.69 -1.20
 2 9 9 0.94 -0.23
 3 9 9 -0.62 0.29
 4 9 9 0.25 -0.28
 5 9 9 -1.24 -2.34
 6 9 9 1.42 -1.27
 7 9 9 -0.05 -0.34
 8 9 9 -0.12 0.31
 9 9 9 -0.62 -0.92
 -9 10 9 -0.13 -1.85
 -8 10 9 0.43 0.58
 -7 10 9 -0.93 -1.33
 -6 10 9 0.69 0.31
 -5 10 9 1.40 -0.60
 -4 10 9 -0.37 -0.92
 -3 10 9 -0.12 0.25
 -2 10 9 -0.90 -2.25
 -1 10 9 0.29 0.74
 0 10 9 -0.22 0.84
 1 10 9 0.72 -1.06
 2 10 9 0.26 -1.34
 3 10 9 -0.59 -1.93
 4 10 9 -1.28 -0.75
 5 10 9 0.84 -0.70
 6 10 9 0.48 -0.13
 7 10 9 -0.96 1.02
 8 10 9 0.44 -0.46
 9 10 9 -0.61 -0.81
 10 10 9 2.04 -1.12
 -10 11 9 -0.64 -1.06
 -9 11 9 -0.61 -0.20
 -8 11 9 -0.53 -1.72
 -7 11 9 0.87 0.07
 -6 11 9 0.38 -1.74
 -5 11 9 0.52 -0.44
 -4 11 9 0.07 0.52
 -3 11 9 1.39 -0.58
 -2 11 9 0.92 1.12
 -1 11 9 0.83 0.68
 0 11 9 0.57 -1.04
 1 11 9 0.77 0.31
 2 11 9 0.39 -0.34
 3 11 9 0.26 0.07
 4 11 9 -0.45 0.16
 5 11 9 -1.41 -0.23
 6 11 9 -0.80 -1.84
 7 11 9 0.95 0.15
 8 11 9 -1.70 0.28
 9 11 9 -0.24 -0.02
 10 11 9 0.42 -0.66
 11 11 9 1.60 0.04
 -10 12 9 0.83 -1.17
 -9 12 9 -0.30 2.63
 -8 12 9 0.51 -0.96
 -7 12 9 0.50 -0.87
 -6 12 9 -1.47 0.00
 -5 12 9 0.08 -1.87
 -4 12 9 0.82 0.22
 -3 12 9 1.58 0.13
 -2 12 9 -0.04 0.14
 -1 12 9 0.13 -0.70
 0 12 9 0.27 -0.06
 1 12 9 -0.84 -0.70
 2 12 9 0.26 -1.36
 3 12 9 -1.02 0.31
 4 12 9 0.39 -2.18
 5 12 9 0.23 1.51
 6 12 9 -0.37 1.72
 7 12 9 -0.64 -0.76
 8 12 9 0.40 -0.30
 9 12 9 0.94 -0.90
 10 12 9 1.67 -0.44
 -9 13 9 -0.02 -1.19
 -8 13 9 -0.57 2.08
 -7 13 9 -0.95 -2.36
 -6 13 9 0.65 0.11
 -5 13 9 0.66 0.48
 -4 13 9 -1.60 2.44
 -3 13 9 -0.26 -0.71
 -2 13 9 0.15 -1.05
 -1 13 9 1.65 -2.31
 0 13 9 -0.16 -0.72
 1 13 9 -0.63 -1.22
 2 13 9 -2.03 1.50
 3 13 9 2.30 1.77
 4 13 9 -0.08 1.86
 5 13 9 0.76 -0.98
 6 13 9 0.32 -1.56
 7 13 9 -0.36 0.28
 8 13 9 -1.44 -0.84
 9 13 9 -0.65 -0.10
 -8 14 9 0.46 1.17
 -7 14 9 0.07 -2.55
 -6 14 9 -0.14 2.04
 -5 14 9 -1.02 -3.56
 -4 14 9 0.37 1.05
 -3 14 9 -0.50 -1.43
 -2 14 9 0.50 2.57
 -1 14 9 -0.12 -1.27
 0 14 9 1.12 -1.73
 1 14 9 -0.28 -1.72
 2 14 9 -1.00 0.73
 3 14 9 -0.03 0.03
 4 14 9 0.79 -0.72
 5 14 9 3.38 0.99
 6 14 9 -1.17 0.94
 7 14 9 1.70 -2.01
 8 14 9 -1.55 -0.28
 -6 15 9 0.04 -2.45
 -5 15 9 1.31 1.87
 -4 15 9 -1.17 -1.96
 -3 15 9 -0.41 0.50
 -2 15 9 -2.71 -4.03
 -1 15 9 1.26 1.23
 0 15 9 -1.12 -0.49
 1 15 9 -0.24 -0.84
 2 15 9 0.59 -0.19
 3 15 9 0.35 0.06
 4 15 9 1.52 2.16
 5 15 9 -1.12 -0.41
 6 15 9 1.50 -0.48
 -2 16 9 -2.86 0.34
 -1 16 9 0.75 1.01
 0 16 9 -0.04 -1.34
 1 16 9 -0.38 0.78
 2 16 9 0.12 -1.27
 0 0 10 -0.79 2.36
 0 1 10 0.55 3.51
 1 1 10 1.61 -0.79
 -1 2 10 -1.49 -0.32
 0 2 10 -0.32 2.28
 1 2 10 0.80 1.84
 2 2 10 -0.28 0.19
 -2 3 10 0.76 -1.68
 -1 3 10 -1.09 0.76
 0 3 10 0.01 -0.18
 1 3 10 -0.69 0.48
 2 3 10 1.09 0.90
 3 3 10 1.14 2.46
 -3 4 10 -0.50 -0.15
 -2 4 10 1.31 -1.42
 -1 4 10 -0.19 -1.35
 0 4 10 -0.30 -0.48
 1 4 10 -0.48 1.43
 2 4 10 0.21 1.14
 3 4 10 0.19 1.74
 4 4 10 2.33 1.43
 -4 5 10 1.07 0.23
 -3 5 10 -0.07 1.33
 -2 5 10 0.08 3.00
 -1 5 10 1.31 1.09
 0 5 10 0.07 1.25
 1 5 10 -0.52 0.85
 2 5 10 -1.77 0.55
 3 5 10 -0.84 0.33
 4 5 10 0.45 0.72
 5 5 10 1.19 0.27
 -5 6 10 -0.17 -0.11
 -4 6 10 1.18 -1.78
 -3 6 10 -0.60 -0.27
 -2 6 10 0.57 1.04
 -1 6 10 0.80 0.91
 0 6 10 0.29 0.86
 1 6 10 0.37 -0.80
 2 6 10 -0.75 0.47
 3 6 10 0.81 -0.45
 4 6 10 1.17 0.31
 5 6 10 0.45 -1.90
 6 6 10 1.32 1.65
 -6 7 10 -0.83 0.51
 -5 7 10 0.21 -0.04
 -4 7 10 1.34 1.78
 -3 7 10 -0.41 2.12
 -2 7 10 1.27 0.32
 -1 7 10 -0.34 1.73
 0 7 10 0.28 1.57
 1 7 10 0.68 -0.84
 2 7 10 -0.55 1.37
 3 7 10 1.46 -1.04
 4 7 10 0.67 0.64
 5 7 10 1.60 1.24
 6 7 10 -1.01 -0.11
 7 7 10 0.12 1.21
 -7 8 10 -0.79 -0.20
 -6 8 10 -0.38 0.40
 -5 8 10 -0.77 1.96
 -4 8 10 0.48 -1.63
 -3 8 10 0.15 0.47
 -2 8 10 0.67 0.22
 -1 8 10 0.77 -0.96
 0 8 10 -0.63 0.67
 1 8 10 -0.85 2.51
 2 8 10 1.43 0.34
 3 8 10 1.48 1.91
 4 8 10 0.59 -0.01
 5 8 10 -0.25 -0.61
 6 8 10 0.96 -0.33
 7 8 10 -0.23 -0.57
 8 8 10 -0.14 0.30
 -8 9 10 -0.33 -0.16
 -7 9 10 0.94 0.95
 -6 9 10 -0.35 -0.93
 -5 9 10 0.51 1.57
 -4 9 10 -0.51 0.94
 -3 9 10 -0.39 0.31
 -2 9 10 -0.14 -1.00
 -1 9 10 0.06 1.34
 0 9 10 -1.23 -0.41
 1 9 10 0.43 -0.26
 2 9 10 -0.40 0.77
 3 9 10 0.33 -0.29
 4 9 10 -1.16 0.98
 5 9 10 1.58 -1.36
 6 9 10 -1.11 -0.40
 7 9 10 0.86 0.20
 8 9 10 -0.11 0.02
 9 9 10 0.58 -0.23
 -9 10 10 -2.19 -1.24
 -8 10 10 0.15 -1.04
 -7 10 10 -0.35 1.40
 -6 10 10 -0.25 -1.14
 -5 10 10 -1.16 -0.13
 -4 10 10 0.62 -0.71
 -3 10 10 -0.14 0.13
 -2 10 10 0.82 1.47
 -1 10 10 0.08 0.62
 0 10 10 0.81 -0.13
 1 10 10 0.17 0.57
 2 10 10 0.41 -0.88
 3 10 10 -0.12 0.53
 4 10 10 -0.12 -0.26
 5 10 10 -2.53 0.49
 6 10 10 -0.22 -2.31
 7 10 10 0.37 -0.94
 8 10 10 -1.05 2.68
 9 10 10 -0.93 -0.67
 10 10 10 -1.74 0.84
 -10 11 10 1.78 -1.08
 -9 11 10 0.59 1.93
 -8 11 10 -0.98 1.57
 -7 11 10 0.12 -1.85
 -6 11 10 -0.67 -0.17
 -5 11 10 -0.61 -0.84
 -4 11 10 0.70 -0.58
 -3 11 10 -0.70 -0.65
 -2 11 10 1.90 -0.86
 -1 11 10 -0.07 0.25
 0 11 10 0.40 2.56
 1 11 10 0.43 -0.93
 2 11 10 -0.32 -1.57
 3 11 10 -0.06 -1.08
 4 11 10 -3.20 -0.04
 5 11 10 1.12 -0.74
 6 11 10 -0.05 1.82
 7 11 10 -0.73 1.33
 8 11 10 0.08 -0.82
 9 11 10 0.63 -0.25
 10 11 10 0.70 -1.37
 11 11 10 -0.38 -0.31
 -10 12 10 -0.70 3.14
 -9 12 10 0.12 -1.61
 -8 12 10 -0.43 0.25
 -7 12 10 -1.88 0.31
 -6 12 10 -0.14 -0.65
 -5 12 10 -0.69 1.30
 -4 12 10 0.81 -1.04
 -3 12 10 1.49 0.14
 -2 12 10 -0.32 -1.10
 -1 12 10 0.41 -0.04
 0 12 10 -1.00 -1.60
 1 12 10 0.62 0.87
 2 12 10 0.62 2.19
 3 12 10 -0.45 -0.99
 4 12 10 1.74 1.80
 5 12 10 -2.61 0.22
 6 12 10 -0.57 -0.64
 7 12 10 0.32 -0.65
 8 12 10 0.05 0.91
 9 12 10 -0.50 0.39
 10 12 10 0.83 -0.20
 -8 13 10 -0.28 -1.31
 -7 13 10 0.61 1.66
 -6 13 10 -2.08 -2.19
 -5 13 10 -0.58 1.84
 -4 13 10 1.14 -2.17
 -3 13 10 -0.26 1.80
 -2 13 10 2.01 -0.55
 -1 13 10 -0.37 0.45
 0 13 10 -0.42 -1.20
 1 13 10 -1.45 0.92
 2 13 10 -0.49 -0.15
 3 13 10 0.45 0.15
 4 13 10 -0.84 -1.14
 5 13 10 1.22 -0.90
 6 13 10 0.40 2.18
 7 13 10 -0.30 -0.34
 8 13 10 0.47 -0.91
 -7 14 10 -0.64 0.20
 -6 14 10 -0.18 -0.59
 -5 14 10 2.04 1.17
 -4 14 10 -0.85 0.38
 -3 14 10 -0.13 0.17
 -2 14 10 -1.19 -1.96
 -1 14 10 2.45 -0.22
 0 14 10 -0.49 -1.62
 1 14 10 -0.61 1.37
 2 14 10 -0.05 -0.32
 3 14 10 0.29 0.83
 4 14 10 2.75 -0.15
 5 14 10 -1.69 0.28
 6 14 10 1.60 -3.16
 7 14 10 -1.31 0.89
 -4 15 10 2.45 -0.14
 -3 15 10 -1.51 0.04
 -2 15 10 2.94 2.37
 -1 15 10 -1.12 -1.18
 0 15 10 1.82 0.12
 1 15 10 -1.69 -1.66
 2 15 10 -0.99 -0.18
 3 15 10 0.58 -0.29
 4 15 10 -0.20 -1.40
 0 0 11 3.60 -3.19
 0 1 11 2.14 0.28
 1 1 11 0.34 0.50
 -1 2 11 1.45 0.31
 0 2 11 0.86 -0.97
 1 2 11 0.50 -0.63
 2 2 11 1.23 -1.07
 -2 3 11 -0.70 -1.04
 -1 3 11 -0.49 -1.29
 0 3 11 0.15 0.26
 1 3 11 1.20 0.56
 2 3 11 0.39 -0.95
 3 3 11 1.57 -1.16
 -3 4 11 1.88 0.45
 -2 4 11 0.88 0.55
 -1 4 11 -0.52 -0.13
 0 4 11 0.01 1.06
 1 4 11 0.83 -0.69
 2 4 11 -0.31 1.44
 3 4 11 1.87 0.59
 4 4 11 0.78 0.27
 -4 5 11 0.49 -0.08
 -3 5 11 0.57 -0.44
 -2 5 11 0.02 -2.20
 -1 5 11 0.58 -0.01
 0 5 11 0.81 -0.75
 1 5 11 -0.02 -0.39
 2 5 11 -0.15 0.39
 3 5 11 0.09 0.03
 4 5 11 0.88 -0.37
 5 5 11 0.94 -1.17
 -5 6 11 0.61 -0.61
 -4 6 11 1.28 0.67
 -3 6 11 -0.19 0.55
 -2 6 11 0.67 1.14
 -1 6 11 0.96 0.42
 0 6 11 2.41 -0.51
 1 6 11 -1.76 0.88
 2 6 11 0.40 -1.98
 3 6 11 -0.97 0.06
 4 6 11 0.17 -0.88
 5 6 11 0.69 0.70
 6 6 11 -0.32 0.27
 -6 7 11 -0.12 0.99
 -5 7 11 1.18 0.26
 -4 7 11 -0.05 -0.81
 -3 7 11 1.35 -2.59
 -2 7 11 0.65 0.48
 -1 7 11 1.03 -1.53
 0 7 11 0.85 -1.90
 1 7 11 1.59 2.32
 2 7 11 1.18 -1.57
 3 7 11 0.99 0.49
 4 7 11 0.28 -2.32
 5 7 11 0.21 0.30
 6 7 11 0.46 -0.22
 7 7 11 -0.31 0.47
 -7 8 11 0.30 -0.29
 -6 8 11 0.78 0.64
 -5 8 11 0.75 -1.44
 -4 8 11 0.47 2.04
 -3 8 11 1.03 -0.38
 -2 8 11 -0.01 0.29
 -1 8 11 0.86 -1.61
 0 8 11 -0.46 2.18
 1 8 11 0.28 -2.76
 2 8 11 0.13 1.42
 3 8 11 0.74 -0.21
 4 8 11 1.72 0.67
 5 8 11 -0.02 -0.30
 6 8 11 -1.31 -0.97
 7 8 11 0.19 -0.08
 8 8 11 1.25 0.03
 -8 9 11 0.03 -1.64
 -7 9 11 0.16 0.28
 -6 9 11 0.04 0.61
 -5 9 11 0.86 -0.46
 -4 9 11 -0.41 0.38
 -3 9 11 0.30 0.65
 -2 9 11 1.43 1.06
 -1 9 11 0.02 -0.07
 0 9 11 0.50 0.48
 1 9 11 -0.25 2.32
 2 9 11 0.88 -0.01
 3 9 11 0.59 0.49
 4 9 11 0.14 -0.22
 5 9 11 -1.08 0.15
 6 9 11 -0.65 -1.07
 7 9 11 -0.32 0.05
 8 9 11 0.33 -0.60
 9 9 11 -0.93 1.47
 -9 10 11 1.36 0.36
 -8 10 11 0.51 2.76
 -7 10 11 1.24 -2.01
 -6 10 11 1.22 0.59
 -5 10 11 -1.05 -0.41
 -4 10 11 0.27 1.75
 -3 10 11 0.39 0.40
 -2 10 11 -0.61 0.06
 -1 10 11 0.71 1.07
 0 10 11 0.23 0.62
 1 10 11 0.09 -0.67
 2 10 11 -0.42 -1.44
 3 10 11 -0.55 0.48
 4 10 11 -0.42 0.74
 5 10 11 -1.73 -1.15
 6 10 11 0.28 -0.37
 7 10 11 -0.42 1.23
 8 10 11 0.27 -0.95
 9 10 11 0.19 0.28
 10 10 11 -1.55 -0.95
 -10 11 11 -0.34 1.61
 -9 11 11 -1.27 0.05
 -8 11 11 0.41 -0.76
 -7 11 11 -1.11 3.32
 -6 11 11 -0.98 0.55
 -5 11 11 -0.03 0.04
 -4 11 11 0.48 -0.92
 -3 11 11 1.27 -0.25
 -2 11 11 -0.43 0.49
 -1 11 11 -0.76 0.84
 0 11 11 -0.04 0.03
 1 11 11 0.49 -0.06
 2 11 11 0.94 0.42
 3 11 11 -0.43 0.02
 4 11 11 -0.01 0.49
 5 11 11 -0.69 1.34
 6 11 11 -0.86 -1.12
 7 11 11 -0.21 -1.47
 8 11 11 0.78 1.32
 9 11 11 -1.53 0.63
 10 11 11 -0.09 -0.10
 -9 12 11 0.51 1.81
 -8 12 11 0.17 1.77
 -7 12 11 0.52 -1.43
 -6 12 11 -1.72 1.18
 -5 12 11 1.00 -1.19
 -4 12 11 -1.55 1.89
 -3 12 11 0.66 -2.32
 -2 12 11 0.56 0.12
 -1 12 11 -1.04 0.29
 0 12 11 0.77 1.81
 1 12 11 -1.01 1.31
 2 12 11 -0.42 -1.22
 3 12 11 0.96 0.82
 4 12 11 -2.25 -1.32
 5 12 11 0.28 1.29
 6 12 11 1.06 -0.25
 7 12 11 1.16 0.89
 8 12 11 -1.13 -1.59
 9 12 11 0.84 -0.91
 -7 13 11 -2.36 0.20
 -6 13 11 2.93 2.45
 -5 13 11 -1.09 -0.71
 -4 13 11 1.95 0.61
 -3 13 11 -1.30 -0.88
 -2 13 11 -0.99 1.16
 -1 13 11 -0.32 -1.51
 0 13 11 0.04 1.46
 1 13 11 -0.13 0.12
 2 13 11 2.95 1.99
 3 13 11 -0.47 -0.13
 4 13 11 0.33 0.48
 5 13 11 0.35 -0.32
 6 13 11 -0.89 -0.29
 7 13 11 -0.28 -1.35
 -5 14 11 1.86 -0.23
 -4 14 11 -0.21 0.16
 -3 14 11 1.76 0.18
 -2 14 11 1.70 1.77
 -1 14 11 0.33 -0.45
 0 14 11 0.31 0.25
 1 14 11 -0.50 0.42
 2 14 11 -0.96 1.11
 3 14 11 1.07 -0.89
 4 14 11 0.04 -1.27
 5 14 11 0.36 -1.02
 -1 15 11 2.59 -0.52
 0 15 11 -1.04 -0.57
 1 15 11 0.22 0.45
 0 0 12 -0.81 3.31
 0 1 12 -0.03 -2.08
 1 1 12 0.27 -1.52
 -1 2 12 -0.76 0.07
 0 2 12 -0.05 0.16
 1 2 12 0.04 -0.05
 2 2 12 -1.40 -0.42
 -2 3 12 -0.58 -0.09
 -1 3 12 -0.05 1.18
 0 3 12 0.02 0.32
 1 3 12 -1.23 -0.78
 2 3 12 0.15 0.84
 3 3 12 -0.03 -0.09
 -3 4 12 -0.31 -1.79
 -2 4 12 -0.71 -0.03
 -1 4 12 -1.21 0.11
 0 4 12 -0.39 0.24
 1 4 12 -1.07 0.72
 2 4 12 0.53 -0.75
 3 4 12 -0.32 0.33
 4 4 12 0.73 -0.03
 -4 5 12 0.24 -0.46
 -3 5 12 -0.18 0.16
 -2 5 12 -1.35 1.31
 -1 5 12 -0.25 0.40
 0 5 12 -0.16 0.19
 1 5 12 -0.30 1.15
 2 5 12 -1.73 -0.11
 3 5 12 -0.47 1.04
 4 5 12 -0.13 -0.57
 5 5 12 -0.29 1.29
 -5 6 12 0.57 -0.64
 -4 6 12 -0.69 -1.09
 -3 6 12 0.28 -1.43
 -2 6 12 -1.48 -0.93
 -1 6 12 -0.14 -2.33
 0 6 12 -1.27 0.92
 1 6 12 2.02 -2.72
 2 6 12 -1.27 1.05
 3 6 12 -0.69 -2.09
 4 6 12 -1.55 0.28
 5 6 12 -1.16 -1.30
 6 6 12 -0.59 1.72
 -6 7 12 0.47 -2.13
 -5 7 12 0.26 0.69
 -4 7 12 -0.41 -2.96
 -3 7 12 -0.44 1.92
 -2 7 12 -0.45 -2.07
 -1 7 12 -0.25 -0.31
 0 7 12 0.40 -0.12
 1 7 12 -1.48 -1.65
 2 7 12 -0.76 -0.20
 3 7 12 -1.08 -2.09
 4 7 12 0.11 0.55
 5 7 12 -1.25 0.40
 6 7 12 -1.15 -0.42
 7 7 12 -0.65 0.37
 -7 8 12 0.50 -1.02
 -6 8 12 -0.05 -0.40
 -5 8 12 -0.14 -0.81
 -4 8 12 -0.24 -1.92
 -3 8 12 -0.55 0.06
 -2 8 12 -0.17 -2.26
 -1 8 12 0.85 0.98
 0 8 12 0.10 -2.49
 1 8 12 1.08 3.10
 2 8 12 0.76 -1.06
 3 8 12 -0.53 -0.33
 4 8 12 -0.41 -1.27
 5 8 12 -2.01 -0.81
 6 8 12 0.45 1.07
 7 8 12 -0.78 -0.47
 8 8 12 -1.46 -1.21
 -8 9 12 3.35 0.23
 -7 9 12 0.55 -1.26
 -6 9 12 0.77 -2.86
 -5 9 12 -0.80 -0.05
 -4 9 12 0.95 0.43
 -3 9 12 0.26 2.00
 -2 9 12 -0.35 0.41
 -1 9 12 -0.26 0.41
 0 9 12 0.30 -0.06
 1 9 12 -0.69 -1.69
 2 9 12 -0.56 0.49
 3 9 12 0.13 -0.82
 4 9 12 -0.66 0.83
 5 9 12 -1.18 -0.27
 6 9 12 -2.24 0.66
 7 9 12 -0.40 -0.18
 8 9 12 2.36 -0.21
 9 9 12 -1.32 -2.06
 -9 10 12 0.24 0.72
 -8 10 12 -0.40 -0.58
 -7 10 12 0.86 1.35
 -6 10 12 -1.29 0.46
 -5 10 12 2.29 0.26
 -4 10 12 -0.32 -0.84
 -3 10 12 0.57 0.44
 -2 10 12 1.17 1.20
 -1 10 12 -0.54 -0.51
 0 10 12 0.70 1.97
 1 10 12 0.06 0.16
 2 10 12 -0.48 -0.55
 3 10 12 0.23 -0.33
 4 10 12 -1.32 0.79
 5 10 12 0.20 0.18
 6 10 12 -1.86 1.76
 7 10 12 1.06 -1.38
 8 10 12 -0.46 1.43
 9 10 12 0.20 -0.49
 10 10 12 -0.50 0.34
 -9 11 12 0.95 0.85
 -8 11 12 1.53 0.97
 -7 11 12 1.46 -0.26
 -6 11 12 0.18 -0.66
 -5 11 12 -0.97 0.55
 -4 11 12 0.57 1.02
 -3 11 12 0.37 -0.73
 -2 11 12 -0.88 -0.67
 -1 11 12 0.76 1.32
 0 11 12 -1.57 -0.64
 1 11 12 0.48 -0.66
 2 11 12 -0.21 -0.55
 3 11 12 -1.09 0.41
 4 11 12 -0.35 0.01
 5 11 12 -1.28 0.96
 6 11 12 -0.13 -0.29
 7 11 12 -0.31 -0.34
 8 11 12 0.07 -0.94
 9 11 12 -0.77 -0.19
 -7 12 12 -0.31 2.02
 -6 12 12 1.29 0.64
 -5 12 12 -0.37 2.02
 -4 12 12 0.59 -3.70
 -3 12 12 -0.51 1.70
 -2 12 12 -2.18 1.08
 -1 12 12 -0.66 -0.29
 0 12 12 -1.19 1.75
 1 12 12 1.57 -0.33
 2 12 12 1.23 0.29
 3 12 12 -0.88 0.12
 4 12 12 1.37 2.60
 5 12 12 -0.88 -0.90
 6 12 12 0.42 -0.59
 7 12 12 -1.49 -1.09
 -6 13 12 -0.80 -0.56
 -5 13 12 1.88 -0.35
 -4 13 12 -1.19 1.14
 -3 13 12 -0.37 1.01
 -2 13 12 0.94 -0.88
 -1 13 12 0.33 2.41
 0 13 12 -0.99 -0.10
 1 13 12 1.93 0.91
 2 13 12 -1.57 0.97
 3 13 12 2.07 -0.43
 4 13 12 -1.18 -0.94
 5 13 12 0.26 0.98
 6 13 12 0.14 -0.57
 -3 14 12 -0.67 1.89
 -2 14 12 -0.73 0.19
 -1 14 12 0.11 -0.07
 0 14 12 0.88 -0.50
 1 14 12 -0.19 1.59
 2 14 12 2.35 -0.78
 3 14 12 -0.43 0.44
 0 0 13 1.01 -3.52
 0 1 13 -0.65 1.37
 1 1 13 0.38 0.65
 -1 2 13 -0.33 -0.22
 0 2 13 -0.27 -0.60
 1 2 13 -0.48 0.14
 2 2 13 0.43 2.98
 -2 3 13 0.24 0.08
 -1 3 13 0.00 1.79
 0 3 13 -0.10 1.48
 1 3 13 -0.74 1.26
 2 3 13 -1.02 -0.20
 3 3 13 0.96 1.24
 -3 4 13 -0.55 0.41
 -2 4 13 -0.63 1.68
 -1 4 13 0.02 1.67
 0 4 13 -0.03 1.41
 1 4 13 0.46 0.69
 2 4 13 -0.53 2.83
 3 4 13 0.00 -0.28
 4 4 13 1.51 0.32
 -4 5 13 0.04 -1.47
 -3 5 13 0.43 -0.04
 -2 5 13 -0.87 -1.04
 -1 5 13 -0.97 1.43
 0 5 13 0.04 1.09
 1 5 13 -1.07 0.65
 2 5 13 0.63 -0.02
 3 5 13 -0.41 0.67
 4 5 13 -0.41 1.06
 5 5 13 0.43 0.83
 -5 6 13 -0.08 -0.41
 -4 6 13 1.19 -0.10
 -3 6 13 -1.23 0.18
 -2 6 13 0.03 -0.54
 -1 6 13 -1.36 2.44
 0 6 13 0.44 -1.51
 1 6 13 -1.21 2.39
 2 6 13 -1.25 0.10
 3 6 13 -1.24 0.58
 4 6 13 -0.39 0.65
 5 6 13 0.41 1.37
 6 6 13 0.57 0.13
 -6 7 13 -0.11 1.03
 -5 7 13 -1.42 -2.53
 -4 7 13 0.84 -0.38
 -3 7 13 -2.01 -2.62
 -2 7 13 -0.49 0.49
 -1 7 13 -0.70 -2.05
 0 7 13 0.10 0.86
 1 7 13 0.20 0.16
 2 7 13 0.11 -0.74
 3 7 13 -0.57 0.77
 4 7 13 -1.22 -1.12
 5 7 13 -1.02 0.58
 6 7 13 -1.01 1.00
 7 7 13 0.19 -0.20
 -7 8 13 -0.36 -1.70
 -6 8 13 -0.70 -1.71
 -5 8 13 -0.46 -2.99
 -4 8 13 -1.52 1.37
 -3 8 13 -0.10 -0.28
 -2 8 13 0.15 2.44
 -1 8 13 -1.04 -1.12
 0 8 13 -0.23 -0.04
 1 8 13 0.02 -0.19
 2 8 13 -1.49 -0.14
 3 8 13 0.04 -1.02
 4 8 13 -0.46 1.65
 5 8 13 -0.20 -0.02
 6 8 13 -1.53 0.79
 7 8 13 -0.66 0.48
 8 8 13 1.23 -0.03
 -8 9 13 -1.49 -1.39
 -7 9 13 -0.08 0.29
 -6 9 13 -0.58 -0.58
 -5 9 13 0.13 -1.14
 -4 9 13 -0.60 -0.30
 -3 9 13 -0.50 0.04
 -2 9 13 0.39 0.52
 -1 9 13 0.73 -0.56
 0 9 13 1.49 0.77
 1 9 13 1.10 0.00
 2 9 13 -0.29 0.26
 3 9 13 0.05 1.34
 4 9 13 -1.73 -2.57
 5 9 13 0.60 3.46
 6 9 13 -0.16 0.56
 7 9 13 2.17 0.00
 8 9 13 -0.84 -0.29
 9 9 13 1.15 -0.39
 -9 10 13 -0.07 -0.43
 -8 10 13 1.99 -0.31
 -7 10 13 0.15 -1.58
 -6 10 13 1.03 -1.19
 -5 10 13 -3.16 -0.33
 -4 10 13 2.38 0.19
 -3 10 13 1.51 0.32
 -2 10 13 -1.18 -0.29
 -1 10 13 1.05 1.14
 0 10 13 -0.80 -2.56
 1 10 13 -0.58 -1.17
 2 10 13 0.26 -0.87
 3 10 13 -2.19 -0.42
 4 10 13 0.12 0.97
 5 10 13 -2.01 1.83
 6 10 13 0.62 0.62
 7 10 13 -0.17 2.00
 8 10 13 0.63 -3.46
 9 10 13 -0.51 0.96
 -7 11 13 -0.47 0.54
 -6 11 13 -0.26 2.06
 -5 11 13 1.21 -1.01
 -4 11 13 -0.13 -0.91
 -3 11 13 -1.06 -1.52
 -2 11 13 1.65 0.29
 -1 11 13 -2.56 0.05
 0 11 13 1.81 0.86
 1 11 13 -0.25 0.01
 2 11 13 -1.70 -0.50
 3 11 13 0.34 -0.43
 4 11 13 0.14 2.38
 5 11 13 -0.18 0.00
 6 11 13 -0.58 0.64
 7 11 13 -0.03 0.14
 -6 12 13 -0.46 -0.48
 -5 12 13 -0.16 -0.68
 -4 12 13 -0.27 1.86
 -3 12 13 0.37 0.40
 -2 12 13 -0.62 -1.91
 -1 12 13 0.02 2.05
 0 12 13 -0.01 -1.84
 1 12 13 -1.77 0.32
 2 12 13 1.16 -0.41
 3 12 13 0.27 1.28
 4 12 13 -1.64 -0.14
 5 12 13 0.58 1.19
 6 12 13 -1.40 0.05
 -3 13 13 -0.66 0.07
 -2 13 13 0.01 3.61
 -1 13 13 -1.10 -1.82
 0 13 13 0.46 0.79
 1 13 13 0.63 0.08
 2 13 13 1.27 -0.91
 3 13 13 -0.70 0.79
 0 0 14 1.00 3.14
 0 1 14 0.49 -2.63
 1 1 14 0.34 0.52
 -1 2 14 1.24 -0.13
 0 2 14 0.87 0.73
 1 2 14 -1.14 0.61
 2 2 14 0.50 -0.39
 -2 3 14 0.89 1.04
 -1 3 14 1.03 0.43
 0 3 14 -1.12 -0.80
 1 3 14 1.86 0.93
 2 3 14 0.80 1.18
 3 3 14 0.20 0.22
 -3 4 14 0.78 -2.78
 -2 4 14 0.27 0.24
 -1 4 14 1.60 0.49
 0 4 14 0.72 0.91
 1 4 14 -0.79 0.75
 2 4 14 0.33 -0.60
 3 4 14 0.54 -0.19
 4 4 14 -0.14 -0.11
 -4 5 14 1.97 -0.31
 -3 5 14 0.52 -0.59
 -2 5 14 -0.21 0.95
 -1 5 14 0.11 0.81
 0 5 14 0.03 0.06
 1 5 14 1.36 0.31
 2 5 14 -0.55 1.47
 3 5 14 0.61 0.60
 4 5 14 1.04 -0.11
 5 5 14 1.10 -0.84
 -5 6 14 2.39 -1.70
 -4 6 14 0.03 -0.64
 -3 6 14 0.04 -2.10
 -2 6 14 -0.23 0.33
 -1 6 14 0.07 -2.10
 0 6 14 -0.12 3.11
 1 6 14 0.59 -0.53
 2 6 14 0.09 0.25
 3 6 14 0.60 0.46
 4 6 14 0.38 0.21
 5 6 14 0.92 0.57
 6 6 14 -0.94 0.93
 -6 7 14 0.37 -2.18
 -5 7 14 -0.14 0.22
 -4 7 14 -2.20 -1.50
 -3 7 14 1.95 0.44
 -2 7 14 -0.77 0.13
 -1 7 14 0.25 1.75
 0 7 14 -0.66 -0.84
 1 7 14 1.37 1.26
 2 7 14 -0.81 1.09
 3 7 14 0.91 -0.78
 4 7 14 0.75 -0.13
 5 7 14 0.79 1.09
 6 7 14 1.05 -0.77
 7 7 14 -0.36 1.09
 -7 8 14 0.54 0.87
 -6 8 14 -1.01 -1.05
 -5 8 14 -1.07 -0.50
 -4 8 14 -1.28 -1.56
 -3 8 14 -0.62 2.56
 -2 8 14 -0.13 -0.73
 -1 8 14 0.70 -0.13
 0 8 14 1.99 0.65
 1 8 14 -1.16 -0.85
 2 8 14 4.19 0.97
 3 8 14 0.50 -0.42
 4 8 14 1.07 0.13
 5 8 14 0.67 -0.44
 6 8 14 0.28 1.72
 7 8 14 1.49 -1.44
 8 8 14 -0.24 -0.30
 -8 9 14 1.03 0.55
 -7 9 14 -0.34 -1.71
 -6 9 14 -1.20 -1.82
 -5 9 14 -1.43 0.30
 -4 9 14 -0.29 -0.21
 -3 9 14 1.42 1.12
 -2 9 14 0.96 1.49
 -1 9 14 -0.04 0.29
 0 9 14 -0.35 -2.89
 1 9 14 1.69 -0.85
 2 9 14 -0.86 -0.66
 3 9 14 -0.44 -0.81
 4 9 14 2.41 1.94
 5 9 14 -0.76 -0.07
 6 9 14 2.71 0.25
 7 9 14 -0.77 0.60
 8 9 14 0.80 -0.92
 -7 10 14 0.41 0.17
 -6 10 14 -2.15 1.55
 -5 10 14 1.41 -1.65
 -4 10 14 -0.84 -0.20
 -3 10 14 -1.54 -1.01
 -2 10 14 0.66 -1.11
 -1 10 14 0.93 -0.72
 0 10 14 1.43 0.25
 1 10 14 0.22 -0.51
 2 10 14 -0.49 0.11
 3 10 14 0.68 0.86
 4 10 14 -1.17 -0.39
 5 10 14 1.73 0.81
 6 10 14 1.45 1.09
 7 10 14 1.10 -1.75
 -6 11 14 -0.35 -1.49
 -5 11 14 -1.05 1.54
 -4 11 14 -0.62 -1.01
 -3 11 14 2.34 -1.27
 -2 11 14 -2.15 0.18
 -1 11 14 0.80 -1.54
 0 11 14 -1.23 -0.23
 1 11 14 -0.73 -1.62
 2 11 14 -0.34 0.09
 3 11 14 -0.89 0.64
 4 11 14 -1.33 0.04
 5 11 14 0.55 1.48
 6 11 14 -0.28 1.16
 -3 12 14 -1.04 0.14
 -2 12 14 1.02 0.25
 -1 12 14 -0.76 -0.71
 0 12 14 -0.19 1.07
 1 12 14 1.16 -0.48
 2 12 14 -1.29 0.44
 3 12 14 0.04 0.03
 0 0 15 -0.75 -2.13
 0 1 15 1.00 0.83
 1 1 15 -0.99 -1.76
 -1 2 15 -0.95 -0.42
 0 2 15 -0.96 -1.30
 1 2 15 0.83 -0.36
 2 2 15 1.18 0.89
 -2 3 15 1.23 -2.14
 -1 3 15 -0.05 -0.79
 0 3 15 0.97 -0.48
 1 3 15 -1.57 0.71
 2 3 15 0.95 -0.45
 3 3 15 -1.65 0.08
 -3 4 15 -0.21 0.21
 -2 4 15 0.08 -0.24
 -1 4 15 -0.05 -0.14
 0 4 15 -0.13 -0.98
 1 4 15 -0.05 -1.08
 2 4 15 -0.77 0.73
 3 4 15 -0.24 -0.69
 4 4 15 -0.42 -0.96
 -4 5 15 0.42 -2.63
 -3 5 15 -0.75 -0.22
 -2 5 15 0.25 -1.21
 -1 5 15 0.39 -0.02
 0 5 15 0.43 -0.17
 1 5 15 -1.31 -0.28
 2 5 15 -0.18 0.03
 3 5 15 -0.41 0.03
 4 5 15 0.25 0.07
 5 5 15 0.09 -0.61
 -5 6 15 -0.41 0.60
 -4 6 15 -0.30 -2.06
 -3 6 15 1.06 -0.18
 -2 6 15 -0.21 -0.39
 -1 6 15 -0.97 2.35
 0 6 15 0.51 -2.07
 1 6 15 -0.70 1.03
 2 6 15 2.00 -0.60
 3 6 15 -1.00 0.64
 4 6 15 0.09 -0.57
 5 6 15 0.60 -0.72
 6 6 15 0.43 -1.03
 -6 7 15 -0.14 0.14
 -5 7 15 -1.70 -1.19
 -4 7 15 -0.33 0.81
 -3 7 15 -1.49 0.33
 -2 7 15 0.57 0.19
 -1 7 15 0.34 -1.74
 0 7 15 1.16 1.86
 1 7 15 0.98 0.49
 2 7 15 0.78 -1.53
 3 7 15 1.36 -1.05
 4 7 15 2.44 -0.27
 5 7 15 -1.86 0.14
 6 7 15 0.54 1.04
 7 7 15 0.18 -0.09
 -7 8 15 0.41 -1.69
 -6 8 15 -0.46 -0.06
 -5 8 15 -2.48 0.70
 -4 8 15 -0.46 0.85
 -3 8 15 0.23 0.55
 -2 8 15 1.73 0.59
 -1 8 15 1.45 1.71
 0 8 15 -1.61 -2.83
 1 8 15 2.89 -0.58
 2 8 15 -1.25 -1.47
 3 8 15 3.01 -0.15
 4 8 15 -0.91 -1.91
 5 8 15 3.40 0.46
 6 8 15 -0.30 -1.58
 7 8 15 -0.04 1.36
 8 8 15 1.17 -0.48
 -7 9 15 -0.73 0.55
 -6 9 15 0.27 0.40
 -5 9 15 -1.87 -1.26
 -4 9 15 -0.03 1.65
 -3 9 15 -0.14 0.45
 -2 9 15 -0.12 0.58
 -1 9 15 1.18 -2.40
 0 9 15 0.50 0.18
 1 9 15 -0.32 -1.36
 2 9 15 3.20 -0.34
 3 9 15 1.05 -0.64
 4 9 15 2.15 -0.96
 5 9 15 0.66 -0.33
 6 9 15 0.66 -0.64
 7 9 15 1.59 -2.10
 -5 10 15 -0.56 1.61
 -4 10 15 -0.61 -1.28
 -3 10 15 0.47 -0.83
 -2 10 15 0.26 0.72
 -1 10 15 -1.62 -0.58
 0 10 15 0.38 -2.58
 1 10 15 -0.28 -0.71
 2 10 15 -0.37 -0.21
 3 10 15 -0.46 0.26
 4 10 15 -0.12 0.41
 5 10 15 1.22 -0.83
 -3 11 15 -2.30 0.03
 -2 11 15 -0.40 -1.87
 -1 11 15 0.39 0.72
 0 11 15 0.33 -0.22
 1 11 15 0.74 1.00
 2 11 15 0.10 0.48
 3 11 15 -0.02 0.07
 0 0 16 0.78 -1.39
 0 1 16 -0.74 0.30
 1 1 16 0.55 0.48
 -1 2 16 0.63 -0.79
 0 2 16 -1.74 1.62
 1 2 16 0.62 0.16
 2 2 16 -0.95 -0.96
 -2 3 16 0.56 2.33
 -1 3 16 -0.38 -1.33
 0 3 16 -1.89 -0.63
 1 3 16 1.53 0.06
 2 3 16 -0.26 1.13
 3 3 16 0.01 -1.27
 -3 4 16 -1.17 0.83
 -2 4 16 -0.71 -0.45
 -1 4 16 0.57 -0.70
 0 4 16 -0.74 -0.03
 1 4 16 -0.90 0.22
 2 4 16 0.00 0.71
 3 4 16 -1.44 2.00
 4 4 16 -0.70 0.22
 -4 5 16 -0.33 1.45
 -3 5 16 -0.31 -1.29
 -2 5 16 0.65 1.76
 -1 5 16 -0.21 -0.19
 0 5 16 -1.52 0.65
 1 5 16 -1.57 0.33
 2 5 16 -0.83 -0.81
 3 5 16 0.16 1.57
 4 5 16 -1.94 0.41
 5 5 16 -0.84 -2.40
 -5 6 16 0.15 0.47
 -4 6 16 -1.68 -0.03
 -3 6 16 -0.04 0.13
 -2 6 16 0.10 0.83
 -1 6 16 0.39 -1.25
 0 6 16 -0.35 1.35
 1 6 16 1.24 -1.04
 2 6 16 -2.39 2.58
 3 6 16 0.68 -2.01
 4 6 16 0.42 0.13
 5 6 16 -0.82 3.19
 6 6 16 -1.91 -0.80
 -6 7 16 0.29 1.80
 -5 7 16 -2.68 0.60
 -4 7 16 0.43 1.17
 -3 7 16 -1.14 0.86
 -2 7 16 0.57 -0.66
 -1 7 16 1.26 1.12
 0 7 16 -0.12 -1.07
 1 7 16 -1.02 -1.53
 2 7 16 1.20 -1.01
 3 7 16 -1.13 0.16
 4 7 16 -1.73 1.39
 5 7 16 0.77 -2.15
 6 7 16 -0.36 2.25
 7 7 16 -0.55 -1.05
 -6 8 16 -1.82 -0.21
 -5 8 16 0.38 0.99
 -4 8 16 -1.98 2.31
 -3 8 16 1.24 0.20
 -2 8 16 1.23 0.68
 -1 8 16 -1.47 -2.31
 0 8 16 2.51 -0.28
 1 8 16 -1.14 -0.43
 2 8 16 1.06 -0.42
 3 8 16 -0.39 -2.38
 4 8 16 2.71 -1.19
 5 8 16 -1.34 1.67
 6 8 16 -0.07 0.04
 -4 9 16 -0.59 -0.58
 -3 9 16 0.07 0.61
 -2 9 16 1.21 -0.66
 -1 9 16 -0.44 0.11
 0 9 16 -1.48 -2.00
 1 9 16 -0.26 -1.49
 2 9 16 -0.85 -0.54
 3 9 16 0.75 -0.50
 4 9 16 -0.86 0.63
 -2 10 16 -2.25 -0.44
 -1 10 16 0.63 0.05
 0 10 16 -0.97 0.29
 1 10 16 0.20 -0.58
 2 10 16 2.09 -0.14
 0 0 17 2.45 0.78
 0 1 17 0.02 0.05
 1 1 17 0.60 0.91
 -1 2 17 -1.65 0.56
 0 2 17 1.96 -1.05
 1 2 17 -0.31 -0.38
 2 2 17 2.56 -0.10
 -2 3 17 -1.38 -2.17
 -1 3 17 -0.04 0.98
 0 3 17 0.37 0.12
 1 3 17 -0.60 0.32
 2 3 17 1.56 -1.46
 3 3 17 -0.17 2.40
 -3 4 17 1.29 0.64
 -2 4 17 0.41 0.31
 -1 4 17 -0.48 -0.10
 0 4 17 -0.31 0.33
 1 4 17 -0.24 1.06
 2 4 17 -0.15 0.37
 3 4 17 0.15 -0.13
 4 4 17 -1.60 1.23
 -4 5 17 -0.57 -0.50
 -3 5 17 -0.38 0.95
 -2 5 17 0.77 -0.85
 -1 5 17 0.47 1.44
 0 5 17 -0.75 -0.35
 1 5 17 0.73 0.57
 2 5 17 0.02 2.60
 3 5 17 0.00 0.14
 4 5 17 0.77 -0.16
 5 5 17 0.14 1.58
 -5 6 17 -2.40 0.69
 -4 6 17 0.72 -0.84
 -3 6 17 0.36 1.49
 -2 6 17 0.05 -0.49
 -1 6 17 0.58 0.16
 0 6 17 -0.30 0.40
 1 6 17 -1.50 2.04
 2 6 17 -0.08 -2.18
 3 6 17 -0.26 1.88
 4 6 17 -0.81 1.11
 5 6 17 -1.92 -1.12
 6 6 17 1.52 1.26
 -5 7 17 1.85 1.35
 -4 7 17 -2.22 1.90
 -3 7 17 1.47 -1.11
 -2 7 17 0.37 0.70
 -1 7 17 -0.40 -1.56
 0 7 17 0.47 -1.37
 1 7 17 0.63 0.77
 2 7 17 -0.83 1.10
 3 7 17 -0.78 -0.56
 4 7 17 0.74 -0.79
 5 7 17 0.69 3.28
 -3 8 17 -0.25 0.74
 -2 8 17 -0.26 -1.00
 -1 8 17 1.39 -1.06
 0 8 17 -1.92 -0.63
 1 8 17 -0.40 -1.36
 2 8 17 -1.60 -0.51
 3 8 17 0.15 2.37
 0 0 18 0.23 -0.35
 0 1 18 1.75 -0.27
 1 1 18 -0.32 -2.48
 -1 2 18 2.33 -0.98
 0 2 18 -2.60 1.11
 1 2 18 2.73 -1.28
 2 2 18 -2.72 -1.32
 -2 3 18 1.29 0.76
 -1 3 18 -1.72 -1.71
 0 3 18 1.01 -0.80
 1 3 18 -0.46 -1.35
 2 3 18 0.19 -0.24
 3 3 18 -0.67 -1.31
 -3 4 18 -1.32 1.36
 -2 4 18 -0.11 -0.75
 -1 4 18 0.26 0.47
 0 4 18 -0.86 0.48
 1 4 18 1.15 -1.50
 2 4 18 0.21 0.23
 3 4 18 1.25 0.46
 4 4 18 1.14 -0.04
 -4 5 18 -0.57 0.06
 -3 5 18 1.24 -1.18
 -2 5 18 0.43 0.99
 -1 5 18 -1.29 -1.10
 0 5 18 1.82 1.45
 1 5 18 -0.67 1.94
 2 5 18 0.81 -1.29
 3 5 18 -0.75 0.42
 4 5 18 -0.55 -0.41
 -2 6 18 0.40 -0.63
 -1 6 18 -0.04 0.08
 0 6 18 -0.42 0.24
 1 6 18 1.04 -0.42
 2 6 18 0.79 1.53
 0 0 19 0.13 -1.31
 0 1 19 0.60 -1.16
 1 1 19 0.45 0.47
 -1 2 19 -1.59 -0.51
 0 2 19 1.00 -2.52
 1 2 19 -1.90 -0.24
 2 2 19 0.18 -1.67
 0 1 0 -40.29 1.71
 13 13 0 0.03 -0.29
 -12 14 0 -0.68 -0.38
 12 14 0 -0.56 0.07
 -7 17 0 -1.58 -0.04
 7 17 0 0.46 0.37
 -4 18 0 3.13 0.42
 4 18 0 1.23 -0.10
 0 0 1 -90.09 -2.17
 2 2 1 21.80 -6.91
 13 13 1 -0.37 0.38
 -12 14 1 0.36 -0.27
 12 14 1 0.33 0.25
 9 16 1 1.25 -0.15
 -7 17 1 0.19 0.98
 7 17 1 0.47 1.75
 -4 18 1 -0.55 0.09
 4 18 1 -0.21 0.81
 13 13 2 0.32 -0.12
 -9 16 2 0.37 -0.10
 9 16 2 -1.45 0.00
 -7 17 2 0.72 0.63
 7 17 2 -0.22 -0.80
 -3 18 3 -0.32 -0.52
 3 18 3 -0.14 -0.54
 -10 15 4 -0.37 0.52
 10 15 4 0.14 -1.76
 -6 17 4 -0.81 0.02
 6 17 4 0.24 -0.13
 -1 18 4 0.37 0.59
 0 18 4 0.02 -0.41
 1 18 4 0.84 -0.59
 -11 14 5 1.01 -1.33
 11 14 5 0.38 -1.47
 -9 15 6 -0.31 0.19
 9 15 6 -0.99 -0.20
 7 16 6 0.36 0.85
 -4 17 6 -0.46 -0.35
 4 17 6 0.19 -0.15
 -10 14 7 0.74 -1.16
 10 14 7 -1.54 -0.41
 -5 16 8 -0.09 -0.34
 5 16 8 -1.60 0.23
 -11 12 9 -0.11 0.89
 11 12 9 0.60 -1.74
 -3 16 9 1.07 -0.24
 3 16 9 0.01 -0.21
 -9 13 10 0.10 2.53
 9 13 10 0.29 -0.40
 -5 15 10 -0.25 -0.75
 5 15 10 2.25 -0.69
 -2 15 11 -0.87 -0.87
 2 15 11 -0.32 0.51
 -8 12 12 -0.96 0.22
 8 12 12 -0.16 0.35
 -8 11 13 0.51 0.52
 8 11 13 -0.46 0.76
 -4 13 13 -0.14 0.34
 4 13 13 0.72 1.07
 9 9 14 -0.57 -0.84
 -4 12 14 0.50 -0.55
 4 12 14 1.48 1.01
 -6 10 15 -0.72 -1.09
 6 10 15 0.52 -0.15
 -5 9 16 -0.04 1.19
 5 9 16 1.00 -2.08
 -3 6 18 -0.44 -0.89
 3 6 18 0.25 -0.99
 -1 3 19 -0.23 0.39
 0 3 19 -1.13 0.13
 1 3 19 -0.32 -1.13
 0 0 0 0.00 0.00
# SQUEEZE RESULTS (Version = 120716)
# Note: Data are Listed for all Voids in the P1 Unit Cell
# i.e. Centre of Gravity, Solvent Accessible Volume,
# Recovered number of Electrons in the Void and
# Details about the Squeezed Material
;
_platon_squeeze_void_probe_radius 1.20
_olex2_submission_special_instructions 'No special instructions were received'
loop_
_space_group_symop_operation_xyz
'x, y, z'
'-x, -y, z'
'-y, x, z'
'y, -x, z'
loop_
_atom_site_label
_atom_site_type_symbol
_atom_site_fract_x
_atom_site_fract_y
_atom_site_fract_z
_atom_site_U_iso_or_equiv
_atom_site_adp_type
_atom_site_occupancy
_atom_site_site_symmetry_order
_atom_site_calc_flag
_atom_site_refinement_flags_posn
_atom_site_refinement_flags_adp
_atom_site_refinement_flags_occupancy
Zn1 Zn -0.86834(4) -0.07174(4) -0.49927(6) 0.0551(2) Uani 1 1 d . . .
C4 C -0.8042(4) -0.4040(4) -0.2260(4) 0.0628(16) Uani 1 1 d . U .
C1 C -0.9259(4) -0.2308(4) -0.3864(4) 0.0590(15) Uani 1 1 d . U .
O5 O -0.8569(3) -0.1818(3) -0.4105(3) 0.0743(12) Uani 1 1 d . . .
C10 C -0.9635(4) -0.4623(4) -0.2582(4) 0.0567(14) Uani 1 1 d . U .
C11 C -0.9814(4) -0.3835(4) -0.3084(4) 0.0587(14) Uani 1 1 d . U .
C3 C -0.8228(4) -0.3254(4) -0.2833(5) 0.0633(17) Uani 1 1 d . U .
H3 H -0.775916 -0.280252 -0.292311 0.076 Uiso 1 1 calc R . .
C8 C -0.8556(5) -0.5485(5) -0.1564(5) 0.0732(18) Uani 1 1 d . . .
H8 H -0.901152 -0.594695 -0.146382 0.088 Uiso 1 1 calc R . .
C6 C -0.7010(6) -0.4899(6) -0.1270(6) 0.089(2) Uani 1 1 d . . .
H6 H -0.642780 -0.496407 -0.098460 0.107 Uiso 1 1 calc R . .
C5 C -0.7168(5) -0.4158(5) -0.1817(6) 0.085(2) Uani 1 1 d . . .
H5 H -0.669188 -0.371451 -0.190488 0.102 Uiso 1 1 calc R . .
C7 C -0.7680(6) -0.5539(5) -0.1134(5) 0.084(2) Uani 1 1 d . . .
H7 H -0.756315 -0.603894 -0.074160 0.100 Uiso 1 1 calc R . .
C2 C -0.9084(4) -0.3148(4) -0.3254(5) 0.0624(15) Uani 1 1 d . U .
C9 C -0.8744(4) -0.4723(4) -0.2152(4) 0.0574(14) Uani 1 1 d . U .
S1 S -0.74838(16) -0.12045(16) -0.66887(17) 0.0997(7) Uani 1 1 d . . .
O3 O -0.9529(3) -0.1416(3) -0.5890(3) 0.0715(12) Uani 1 1 d . . .
O2 O -0.7491(3) -0.1222(3) -0.5706(4) 0.0881(15) Uani 1 1 d . . .
C14 C -0.9357(4) -0.1857(4) -0.6684(3) 0.085(2) Uani 1 1 d . U .
C15 C -0.8461(4) -0.1831(5) -0.7067(5) 0.123(3) Uani 1 1 d G U .
C16 C -0.8265(5) -0.2364(6) -0.7834(5) 0.164(4) Uani 1 1 d G U .
H16 H -0.766575 -0.234599 -0.809050 0.197 Uiso 1 1 calc R . .
C17 C -0.8966(6) -0.2923(6) -0.8217(4) 0.193(5) Uani 1 1 d DG U .
C12 C -0.9863(5) -0.2950(6) -0.7834(5) 0.199(7) Uani 1 1 d G U .
H12 H -1.033154 -0.332447 -0.809030 0.239 Uiso 1 1 calc R . .
C13 C -1.0058(3) -0.2417(5) -0.7067(4) 0.112(3) Uani 1 1 d G U .
O7 O -1.0661(3) -0.3741(3) -0.3495(4) 0.0852(14) Uani 1 1 d . U .
H7A H -1.061534 -0.336049 -0.391116 0.128 Uiso 1 1 calc GR . .
C18 C -0.8771(11) -0.3577(10) -0.9045(9) 0.221(6) Uani 1 1 d D U .
O6 O -1.0087(3) -0.2188(3) -0.4128(3) 0.0750(13) Uani 1 1 d . . .
O4 O -1.000000 0.000000 -0.4596(5) 0.0464(17) Uani 1 4 d S T P
C21 C -0.8677(16) -0.4591(11) -0.8680(15) 0.337(10) Uani 1 1 d D U .
H21A H -0.816233 -0.461983 -0.825837 0.505 Uiso 1 1 calc R . .
H21B H -0.925243 -0.476931 -0.838189 0.505 Uiso 1 1 calc R . .
H21C H -0.855770 -0.501608 -0.917290 0.505 Uiso 1 1 calc R . .
O1 O -0.6656(4) -0.1586(5) -0.7121(5) 0.136(3) Uani 1 1 d . . .
C20 C -0.9579(12) -0.3537(16) -0.9706(10) 0.325(10) Uani 1 1 d D U .
H20A H -1.015278 -0.372259 -0.940830 0.487 Uiso 1 1 calc R . .
H20B H -0.964440 -0.290411 -0.993136 0.487 Uiso 1 1 calc R . .
H20C H -0.945622 -0.395891 -1.020077 0.487 Uiso 1 1 calc R . .
C19 C -0.7866(12) -0.3286(14) -0.9511(11) 0.322(10) Uani 1 1 d D U .
H19A H -0.735240 -0.331252 -0.908762 0.483 Uiso 1 1 calc R . .
H19B H -0.774140 -0.370761 -1.000511 0.483 Uiso 1 1 calc R . .
H19C H -0.792957 -0.265281 -0.973570 0.483 Uiso 1 1 calc R . .
loop_
_atom_site_aniso_label
_atom_site_aniso_U_11
_atom_site_aniso_U_22
_atom_site_aniso_U_33
_atom_site_aniso_U_23
_atom_site_aniso_U_13
_atom_site_aniso_U_12
Zn1 0.0501(3) 0.0501(3) 0.0650(4) -0.0028(4) 0.0031(4) -0.0015(3)
C4 0.058(3) 0.054(3) 0.077(4) 0.001(3) -0.014(3) -0.001(3)
C1 0.061(4) 0.048(3) 0.068(4) 0.002(3) -0.006(3) -0.003(3)
O5 0.064(3) 0.058(2) 0.101(4) 0.016(2) -0.005(3) -0.010(2)
C10 0.060(3) 0.047(3) 0.063(4) -0.001(3) -0.010(3) -0.003(2)
C11 0.054(3) 0.053(3) 0.069(4) 0.003(3) -0.005(3) -0.004(3)
C3 0.054(3) 0.045(3) 0.092(5) 0.003(3) -0.012(3) -0.003(3)
C8 0.083(5) 0.058(4) 0.079(5) -0.003(3) -0.007(4) 0.008(3)
C6 0.083(5) 0.075(5) 0.109(6) -0.004(5) -0.034(5) 0.013(4)
C5 0.067(4) 0.071(5) 0.116(6) -0.007(4) -0.022(4) 0.006(3)
C7 0.098(6) 0.075(5) 0.078(5) 0.004(4) -0.019(4) 0.032(4)
C2 0.061(3) 0.043(3) 0.082(4) -0.002(3) -0.003(3) 0.001(3)
C9 0.066(4) 0.044(3) 0.062(4) -0.006(3) -0.009(3) 0.004(3)
S1 0.0928(15) 0.1003(15) 0.1059(17) -0.0208(13) 0.0477(13) 0.0105(12)
O3 0.071(3) 0.072(3) 0.072(3) -0.023(2) 0.009(2) -0.006(2)
O2 0.065(3) 0.091(4) 0.108(4) -0.015(3) 0.020(3) 0.016(3)
C14 0.100(5) 0.086(5) 0.070(5) -0.025(4) 0.009(4) 0.002(4)
C15 0.119(6) 0.145(8) 0.106(6) -0.039(6) 0.057(6) -0.008(6)
C16 0.151(8) 0.208(10) 0.133(8) -0.060(7) 0.057(6) -0.021(7)
C17 0.188(9) 0.236(10) 0.154(8) -0.069(8) 0.031(7) -0.018(8)
C12 0.164(10) 0.282(16) 0.153(11) -0.130(11) 0.009(8) -0.060(11)
C13 0.111(6) 0.125(7) 0.101(6) -0.059(6) -0.018(5) 0.004(5)
O7 0.065(3) 0.078(3) 0.113(4) 0.032(3) -0.020(3) -0.018(2)
C18 0.220(10) 0.232(10) 0.210(11) -0.076(9) 0.010(8) -0.004(9)
O6 0.055(3) 0.064(3) 0.106(4) 0.017(3) 0.002(3) 0.005(2)
O4 0.040(2) 0.040(2) 0.059(4) 0.000 0.000 0.000
C21 0.46(2) 0.251(12) 0.30(2) -0.055(12) 0.038(17) 0.045(16)
O1 0.104(4) 0.130(5) 0.175(6) -0.013(5) 0.071(5) 0.025(4)
C20 0.353(16) 0.47(2) 0.148(12) -0.139(13) -0.029(11) 0.070(17)
C19 0.359(15) 0.40(2) 0.210(15) -0.117(15) 0.122(13) -0.034(17)
loop_
_atom_type_symbol
_atom_type_description
_atom_type_scat_dispersion_real
_atom_type_scat_dispersion_imag
_atom_type_scat_source
C C 0.0033 0.0016 'International Tables Vol C Tables 4.2.6.8 and 6.1.1.4'
H H 0.0000 0.0000 'International Tables Vol C Tables 4.2.6.8 and 6.1.1.4'
O O 0.0106 0.0060 'International Tables Vol C Tables 4.2.6.8 and 6.1.1.4'
S S 0.1246 0.1234 'International Tables Vol C Tables 4.2.6.8 and 6.1.1.4'
Zn Zn 0.2839 1.4301 'International Tables Vol C Tables 4.2.6.8 and 6.1.1.4'
loop_
_geom_angle_atom_site_label_1
_geom_angle_atom_site_label_2
_geom_angle_atom_site_label_3
_geom_angle
_geom_angle_site_symmetry_1
_geom_angle_site_symmetry_3
Zn1 Zn1 Zn1 90.0 4_445 3_465
O5 Zn1 Zn1 138.88(14) . 3_465
O5 Zn1 Zn1 81.99(12) . 4_445
O5 Zn1 O3 171.52(18) . 3_465
O5 Zn1 O2 90.02(19) . .
O5 Zn1 O4 104.29(19) . .
O3 Zn1 Zn1 45.67(11) . 4_445
O3 Zn1 Zn1 107.36(14) . 3_465
O3 Zn1 Zn1 42.89(11) 3_465 3_465
O3 Zn1 Zn1 106.49(13) 3_465 4_445
O3 Zn1 O5 95.49(19) . .
O3 Zn1 O3 90.8(3) . 3_465
O3 Zn1 O2 88.84(19) . .
O3 Zn1 O4 81.91(17) 3_465 .
O3 Zn1 O4 84.29(18) . .
O2 Zn1 Zn1 123.33(14) . 3_465
O2 Zn1 Zn1 132.07(15) . 4_445
O2 Zn1 O3 84.47(18) . 3_465
O2 Zn1 O4 164.6(2) . .
O6 Zn1 Zn1 136.20(14) 3_465 4_445
O6 Zn1 Zn1 75.22(12) 3_465 3_465
O6 Zn1 O5 83.06(19) 3_465 .
O6 Zn1 O3 90.36(18) 3_465 3_465
O6 Zn1 O3 177.17(18) 3_465 .
O6 Zn1 O2 88.7(2) 3_465 .
O6 Zn1 O4 98.41(18) 3_465 .
O4 Zn1 Zn1 47.04(5) . 4_445
O4 Zn1 Zn1 47.04(5) . 3_465
C5 C4 C3 122.1(6) . .
C9 C4 C3 118.6(5) . .
C9 C4 C5 119.2(6) . .
O5 C1 C2 118.6(6) . .
O6 C1 O5 124.7(6) . .
O6 C1 C2 116.6(5) . .
C1 O5 Zn1 123.0(4) . .
C11 C10 C10 117.2(6) . 2_345
C11 C10 C9 119.5(5) . .
C9 C10 C10 123.1(6) . 2_345
C10 C11 C2 120.8(5) . .
O7 C11 C10 119.5(5) . .
O7 C11 C2 119.4(5) . .
C2 C3 C4 121.3(5) . .
C7 C8 C9 119.4(7) . .
C7 C6 C5 120.3(7) . .
C6 C5 C4 121.3(7) . .
C6 C7 C8 121.9(7) . .
C11 C2 C1 121.1(5) . .
C3 C2 C1 120.1(5) . .
C3 C2 C11 118.8(6) . .
C4 C9 C10 120.7(5) . .
C4 C9 C8 117.8(6) . .
C8 C9 C10 121.4(6) . .
O2 S1 C15 107.9(3) . .
O2 S1 C13 109.9(7) . 3_465
C13 S1 C15 108.1(8) 3_465 .
O1 S1 O2 116.3(4) . .
O1 S1 C15 108.3(4) . .
O1 S1 C13 106.0(5) . 3_465
Zn1 O3 Zn1 91.45(16) . 4_445
C14 O3 Zn1 133.0(3) . .
C14 O3 Zn1 135.1(3) . 4_445
S1 O2 Zn1 119.9(3) . .
O3 C14 C15 120.4(4) . .
O3 C14 C13 119.3(4) . .
C15 C14 C13 120.0 . .
C14 C15 S1 127.5(4) . .
C16 C15 S1 112.4(4) . .
C16 C15 C14 120.0 . .
C15 C16 C17 120.0 . .
C16 C17 C18 122.1(7) . .
C12 C17 C16 120.0 . .
C12 C17 C18 117.8(7) . .
C13 C12 C17 120.0 . .
C14 C13 S1 125.9(4) . 4_445
C12 C13 S1 114.1(4) . 4_445
C12 C13 C14 120.0 . .
C21 C18 C17 107.1(12) . .
C20 C18 C17 110.6(10) . .
C20 C18 C21 109.2(12) . .
C20 C18 C19 109.7(11) . .
C19 C18 C17 110.3(11) . .
C19 C18 C21 110.0(12) . .
C1 O6 Zn1 135.0(4) . 4_445
Zn1 O4 Zn1 85.92(9) . 4_445
Zn1 O4 Zn1 85.92(9) 3_465 2_355
Zn1 O4 Zn1 85.92(9) . 3_465
Zn1 O4 Zn1 149.0(4) 4_445 3_465
Zn1 O4 Zn1 149.0(4) . 2_355
Zn1 O4 Zn1 85.92(9) 4_445 2_355
loop_
_geom_bond_atom_site_label_1
_geom_bond_atom_site_label_2
_geom_bond_distance
_geom_bond_site_symmetry_2
Zn1 Zn1 3.0005(8) 3_465
Zn1 Zn1 3.0005(8) 4_445
Zn1 O5 2.043(4) .
Zn1 O3 2.147(4) 3_465
Zn1 O3 2.043(4) .
Zn1 O2 2.114(5) .
Zn1 O6 1.989(4) 3_465
Zn1 O4 2.202(2) .
C4 C3 1.423(8) .
C4 C5 1.410(9) .
C4 C9 1.396(8) .
C1 O5 1.250(7) .
C1 C2 1.513(9) .
C1 O6 1.246(7) .
C10 C10 1.486(11) 2_345
C10 C11 1.363(8) .
C10 C9 1.419(8) .
C11 C2 1.441(8) .
C11 O7 1.350(7) .
C3 C2 1.371(8) .
C8 C7 1.394(10) .
C8 C9 1.410(8) .
C6 C5 1.344(10) .
C6 C7 1.327(11) .
S1 O2 1.454(6) .
S1 C15 1.735(6) .
S1 C13 1.722(13) 3_465
S1 O1 1.440(6) .
O3 Zn1 2.147(4) 4_445
O3 C14 1.352(6) .
C14 C15 1.3900 .
C14 C13 1.3900 .
C15 C16 1.3900 .
C16 C17 1.3900 .
C17 C12 1.3900 .
C17 C18 1.560(12) .
C12 C13 1.3900 .
C13 S1 1.722(5) 4_445
C18 C21 1.538(14) .
C18 C20 1.506(14) .
C18 C19 1.511(14) .
O6 Zn1 1.989(4) 4_445
O4 Zn1 2.202(2) 4_445
O4 Zn1 2.202(2) 2_355
O4 Zn1 2.202(2) 3_465
loop_
_platon_squeeze_void_nr
_platon_squeeze_void_average_x
_platon_squeeze_void_average_y
_platon_squeeze_void_average_z
_platon_squeeze_void_volume
_platon_squeeze_void_count_electrons
_platon_squeeze_void_content
1 0.000 0.000 -0.078 421 64 ' '
2 -0.078 0.485 0.417 885 177 ' '
loop_
_refln_index_h
_refln_index_k
_refln_index_l
_refln_F_squared_meas
_refln_F_squared_sigma
1 -1 0 60.24 3.4
1 1 0 57.75 3.38
-1 1 0 60.12 3.4
-1 -1 0 57.97 3.38
-1 -1 0 55.76 3.38
-1 1 0 65.44 3.44
1 -2 0 17.08 1.3
-2 -1 0 18.37 1.2
-2 -1 0 19.19 1.22
-1 2 0 18.64 1.24
-1 2 0 18.42 1.3
0 -2 0 22.9 1.5
0 2 0 19.63 1.49
-2 0 0 22.9 1.42
-2 0 0 20.27 1.42
-2 0 0 28.85 1.52
-2 1 0 180.92 10.07
2 -1 0 190.24 10.73
2 -1 0 178.21 10.06
1 2 0 176.7 10.06
-1 -2 0 165.97 10.05
-2 1 0 182.48 10.22
-1 -2 0 193.34 10.67
-1 -2 0 180.56 10.23
-1 -2 0 173.35 10.06
-1 -2 0 184.65 10.06
-2 -2 0 460.19 24.47
2 -2 0 466.8 24.5
2 -2 0 414.47 26.08
-2 -2 0 418.65 24.92
-2 -2 0 447.89 24.46
-2 2 0 441.02 24.5
-2 2 0 449.63 24.87
-3 -2 0 4.17 0.69
-2 3 0 3.39 0.76
2 -3 0 4.14 0.81
-2 3 0 4.89 0.71
-3 -2 0 5.56 0.72
-3 -1 0 125.34 7.78
1 -3 0 136.26 7.67
1 -3 0 117.77 8.16
-3 -1 0 145.92 7.6
-1 3 0 142.2 7.74
-1 3 0 142.37 7.66
-3 -1 0 135.87 7.59
-3 0 0 456.1 24.75
0 -3 0 438.46 26.38
0 3 0 435.59 24.78
0 -3 0 462.4 24.8
3 0 0 446.98 26.32
-3 0 0 444.75 24.75
-3 0 0 450.89 25.21
-3 1 0 24.97 1.77
-3 1 0 33.66 1.9
3 -1 0 27.06 1.78
-1 -3 0 27.01 1.81
-3 1 0 25.09 1.78
1 3 0 22.85 1.78
3 -2 0 15.48 1.47
-2 -3 0 18.24 1.27
2 3 0 17.23 1.32
-3 2 0 17.07 1.29
-2 -3 0 16.36 1.35
-3 2 0 15.52 1.31
-2 -3 0 13.85 1.25
3 -2 0 13.87 1.27
-2 -3 0 15.91 1.29
3 -3 0 16.72 1.38
-3 3 0 15.96 1.34
-3 -3 0 16.72 1.31
-3 -3 0 18.27 1.33
3 -3 0 15.23 1.58
-3 3 0 14.29 1.26
-3 -3 0 14.98 1.39
-4 -3 0 17.03 1.3
-3 4 0 16.59 1.36
-4 -3 0 9.72 1.22
-4 -3 0 16.14 1.37
3 -4 0 17.58 1.41
3 -4 0 14.2 1.51
-3 4 0 13.84 1.35
-4 -2 0 0 0.2
2 -4 0 0.82 0.67
-4 -2 0 0.55 0.61
-2 4 0 0.44 0.63
2 -4 0 0.77 0.43
-2 4 0 0.1 0.72
-4 -2 0 0.66 0.61
-4 -1 0 38.91 2.63
1 -4 0 46.99 2.82
-1 4 0 42.51 2.71
-4 -1 0 42.66 2.8
-4 -1 0 42.75 2.64
1 -4 0 42.92 2.97
-4 0 0 51.29 2.94
-4 0 0 47.62 3.08
-4 0 0 50.09 2.95
0 4 0 51.12 3.03
4 0 0 43.56 3.07
0 -4 0 44.78 3.21
0 -4 0 49.86 3.07
4 -1 0 13.04 1.31
-1 -4 0 12.1 1.3
4 -1 0 16.78 1.24
-4 1 0 14.83 1.26
-4 1 0 15.59 1.23
-4 1 0 14.48 1.22
1 4 0 14.46 1.25
-1 -4 0 14.15 1.26
-4 2 0 74.61 4.59
2 4 0 77.63 4.52
-2 -4 0 74.03 4.52
4 -2 0 78.98 4.87
4 -2 0 78.48 4.53
-2 -4 0 76.85 4.71
-4 2 0 76.84 4.54
4 -3 0 0.2 0.79
-3 -4 0 -0.26 0.63
-4 3 0 0.34 0.62
-4 3 0 1.28 0.75
-3 -4 0 0.38 0.49
4 -3 0 -0.98 0.66
-3 -4 0 0.19 0.63
-3 -4 0 0.69 0.65
4 -4 0 6.8 1.02
-4 -4 0 6.33 0.89
-4 -4 0 3.72 0.85
-4 -4 0 5.66 0.99
-4 4 0 6.26 1.01
-4 4 0 6.01 0.88
4 -4 0 7.21 1.23
-4 5 0 1.63 0.72
-5 -4 0 0.79 0.85
-4 5 0 0.87 0.84
4 -5 0 -0.41 0.81
-5 -4 0 0.78 0.69
4 -5 0 1.29 1.07
-5 -4 0 1.32 0.72
-5 -3 0 4.38 0.76
-3 5 0 2.19 0.73
3 -5 0 1.08 0.86
-5 -3 0 2.42 0.72
-3 5 0 2.35 0.9
-2 5 0 27.84 2.09
-5 -2 0 27.77 1.88
2 -5 0 26.99 2
-2 5 0 29.34 1.98
-5 -2 0 24.44 1.87
1 -5 0 3.77 0.98
-5 -1 0 4.28 0.7
-5 -1 0 2.02 0.72
-5 -1 0 2.64 0.82
1 -5 0 3 0.83
5 1 0 3.41 0.64
-1 5 0 4.3 0.86
0 -5 0 56.32 3.48
-5 0 0 54.51 3.37
0 5 0 52.9 3.44
5 0 0 58.56 3.54
-5 0 0 54.35 3.45
-5 0 0 52.58 3.34
0 -5 0 57.99 3.66
-1 -5 0 -1.1 0.65
-5 1 0 0 0.63
-1 -5 0 -0.53 0.72
-5 1 0 0.31 0.66
5 -1 0 1.15 0.77
1 5 0 -1.61 0.62
-5 1 0 0.48 0.68
-2 -5 0 51.37 3.3
5 -2 0 52.26 3.26
-5 2 0 50.75 3.28
-5 2 0 52.25 3.3
5 -2 0 53.25 3.52
-2 -5 0 54.67 3.38
2 5 0 52.14 3.27
-5 3 0 276.4 15.67
5 -3 0 277.97 16.69
5 -3 0 283.15 15.65
-3 -5 0 282.56 15.65
-3 -5 0 276.04 16.5
-5 3 0 271.11 15.85
-3 -5 0 283.65 15.64
-3 -5 0 280.62 15.66
-4 -5 0 103.12 6.56
-4 -5 0 111.5 6.38
5 -4 0 99.02 6.84
-5 4 0 110.47 6.44
-5 4 0 111.77 6.45
5 -4 0 109.29 6.43
-4 -5 0 117.59 6.38
5 -5 0 118.84 7.25
-5 -5 0 116.19 6.63
-5 5 0 108.86 6.72
-5 -5 0 115.43 6.63
-5 5 0 114.9 6.71
-5 -5 0 111.51 6.88
5 -5 0 107.85 6.72
-5 6 0 46.92 3.03
-6 -5 0 46.32 3.07
-6 -5 0 40.52 2.91
5 -6 0 42.98 3.35
-5 6 0 38.39 2.83
-6 -5 0 43.76 2.94
5 -6 0 42.31 2.97
-4 6 0 32.58 2.2
4 -6 0 31.79 2.39
-4 6 0 29.55 2.4
-6 -4 0 25.84 2.19
-6 -4 0 29.72 2.19
3 -6 0 19.76 1.8
-6 -3 0 19.99 1.61
-3 6 0 19.63 1.66
-6 -3 0 19.97 1.68
-3 6 0 21.38 1.85
3 -6 0 19.28 1.96
-6 -3 0 19.59 1.81
6 2 0 43.45 2.71
-2 6 0 44.4 2.95
-6 -2 0 41.85 2.8
2 -6 0 40.27 2.87
-2 6 0 41.39 2.83
2 -6 0 43.73 3.1
-6 -2 0 42.38 2.98
-6 -2 0 46.69 2.79
6 1 0 29.2 1.93
-6 -1 0 26.76 1.96
-6 -1 0 27.4 1.98
-6 -1 0 26.47 2.06
-1 6 0 26.41 2.13
1 -6 0 26.49 2.16
0 -6 0 -0.54 0.77
0 -6 0 0.6 0.76
-6 0 0 0.33 0.53
6 0 0 -0.88 0.68
-6 0 0 0.45 0.65
0 6 0 0.61 0.77
-6 0 0 -0.24 0.67
-6 1 0 2.21 0.8
6 -1 0 2.67 0.83
-6 1 0 1.76 0.78
-1 -6 0 3.39 0.86
1 6 0 1.88 0.83
-6 1 0 1.25 0.7
-1 -6 0 1.73 0.83
-6 2 0 71.81 4.32
6 -2 0 71.87 4.27
6 -2 0 67.78 4.53
2 6 0 69.95 4.26
-2 -6 0 68.39 4.42
-6 2 0 69.58 4.25
-2 -6 0 68.23 4.29
-6 3 0 144.96 8.73
6 -3 0 146.92 8.63
-3 -6 0 155.9 8.66
6 -3 0 150.79 9.24
-6 3 0 143.68 8.65
-3 -6 0 154.92 9.03
3 6 0 151.64 8.62
-6 4 0 55.6 3.66
-6 4 0 48.96 3.54
6 -4 0 51.54 3.96
-4 -6 0 64.01 3.68
6 -4 0 58.42 3.64
-4 -6 0 56.11 3.64
-4 -6 0 60.54 3.67
6 -5 0 3.8 1.34
-5 -6 0 3.78 1.06
-5 -6 0 1.98 1.03
6 -5 0 5.03 1.1
-6 5 0 1.64 0.94
-5 -6 0 3.64 0.93
-6 6 0 -0.42 1.04
6 -6 0 -1.09 1.12
-6 -6 0 0.02 0.9
-6 -6 0 0.31 0.99
6 -6 0 0.42 1
-6 6 0 -0.81 0.59
-6 -6 0 -0.1 0.93
-7 -6 0 32.44 2.57
6 -7 0 37.42 3.14
-7 -6 0 31.8 2.61
6 -7 0 34.12 2.74
-7 -6 0 34.44 2.73
-6 7 0 31.69 2.56
-6 7 0 30.8 2.73
-7 -5 0 6.77 1.22
5 -7 0 8.32 1.39
5 -7 0 7.15 1.47
-5 7 0 5.79 1.34
-7 -5 0 8.52 1.19
-7 -4 0 8.53 1.15
-4 7 0 6.86 1.33
-7 -4 0 8.54 1.14
-7 -4 0 7.4 1.24
4 -7 0 4.19 1.36
4 -7 0 7.12 1.21
3 -7 0 34.37 3
-3 7 0 39.38 2.84
-7 -3 0 40.22 2.65
-3 7 0 36.48 2.59
3 -7 0 38.14 2.8
-7 -3 0 37 2.6
-7 -3 0 38.49 2.83
-2 7 0 81.74 4.85
2 -7 0 71.86 5.19
-2 7 0 81.41 4.94
-7 -2 0 82.67 4.78
7 2 0 73.66 4.85
-7 -2 0 82.78 5.03
-7 -2 0 82.44 4.81
2 -7 0 81.84 4.91
-7 -1 0 4.06 0.87
-7 -1 0 3.61 0.82
1 -7 0 2.57 1.09
1 -7 0 3.21 1.01
7 1 0 1.19 0.72
-1 7 0 3.56 0.95
-7 -1 0 2.8 0.95
-7 0 0 8.38 1.11
0 -7 0 9.9 1.35
-7 0 0 7.45 1.06
7 0 0 9.12 1.13
0 -7 0 7.48 1.22
0 7 0 7.42 1.19
-7 0 0 7.75 1.21
1 7 0 1.53 0.85
-7 1 0 1.02 0.78
-1 -7 0 -0.18 0.49
-7 1 0 0.35 0.84
-7 1 0 -0.13 0.8
7 -1 0 1.96 0.88
-1 -7 0 -1.18 0.8
-2 -7 0 105.55 6.8
-7 2 0 110.01 6.51
7 -2 0 110.91 6.91
-7 2 0 109.71 6.59
-2 -7 0 107.44 6.55
2 7 0 116.82 6.53
7 -3 0 155.22 9.52
-7 3 0 144.78 8.89
7 -3 0 150.59 8.86
3 7 0 151.46 8.87
-3 -7 0 150.04 8.92
-3 -7 0 163.35 9.32
-7 3 0 157.1 9.01
-4 -7 0 276.16 15.4
-7 4 0 270.13 15.59
-4 -7 0 261.93 16.13
7 -4 0 273.26 15.39
7 -4 0 279.66 16.47
-7 4 0 271.22 15.43
-5 -7 0 -0.16 0.98
-7 5 0 0.92 0.9
7 -5 0 0.03 1.15
-5 -7 0 -0.1 0.93
-7 5 0 0.17 1.03
7 -5 0 0.34 0.93
-5 -7 0 -0.99 1.02
7 -6 0 75.56 4.51
-7 6 0 70.39 4.38
-7 6 0 67.41 4.54
-6 -7 0 63.69 4.33
7 -6 0 70.61 4.83
-6 -7 0 61.85 4.32
-6 -7 0 66.04 4.38
-6 -7 0 70.55 4.62
-7 7 0 89.45 5.68
7 -7 0 100.72 6.39
-7 -7 0 86.09 5.94
-7 -7 0 90.18 5.68
-7 7 0 83.21 5.82
7 -7 0 93.05 5.82
-7 -7 0 99.37 5.68
7 -8 0 71.05 4.78
-7 8 0 72.42 4.59
7 -8 0 63.6 5.22
-8 -7 0 70.33 4.66
-7 8 0 71.33 4.82
-8 -6 0 96.23 6.14
6 -8 0 98.21 6.31
-6 8 0 95.4 6.25
-8 -6 0 108.19 6.17
-6 8 0 103.54 6.23
5 -8 0 7.07 1.49
-8 -5 0 6.38 1.29
-5 8 0 5.42 1.47
-8 -5 0 7.57 1.28
-5 8 0 7.93 1.23
-8 -4 0 79.48 5.02
-8 -4 0 70.63 4.78
-8 -4 0 81.45 4.8
4 -8 0 78.35 5.4
-4 8 0 78.14 5.01
-4 8 0 78.55 4.84
4 -8 0 75 4.96
8 3 0 183.61 10.84
-8 -3 0 183.3 10.82
3 -8 0 178.57 10.64
-8 -3 0 186.14 10.52
-8 -3 0 180.61 10.46
3 -8 0 187.87 11.39
-3 8 0 180.7 10.67
-3 8 0 182.88 10.65
-2 8 0 93.93 5.84
-8 -2 0 96.27 6.02
2 -8 0 96.49 6.26
2 -8 0 102.83 5.95
-8 -2 0 92.93 5.73
-2 8 0 92.55 5.9
-8 -2 0 98.53 5.74
8 2 0 96.46 5.87
-8 -1 0 65.19 4.25
1 -8 0 73.6 4.57
-1 8 0 59.03 4.16
-8 -1 0 63.38 4.1
-8 -1 0 64.61 4.1
8 1 0 68.6 4.21
1 -8 0 64.29 4.3
8 0 0 28.54 2.23
0 -8 0 25.48 2.32
-8 0 0 24.87 2.11
0 8 0 28.75 2.3
-8 0 0 27.13 2.35
0 -8 0 30.5 2.46
-8 0 0 27.25 2.18
-8 1 0 -0.03 0.91
-8 1 0 3.25 1.02
-8 1 0 2.65 0.91
-1 -8 0 1.53 1.04
-1 -8 0 1.19 1.07
1 8 0 1.48 0.99
8 -1 0 2.72 1.03
-2 -8 0 1.33 0.82
-8 2 0 -0.87 0.82
8 -2 0 0.74 1.11
-2 -8 0 -1.66 0.86
-8 2 0 -0.58 0.98
-8 2 0 -1.12 0.88
2 8 0 -0.69 0.87
8 -3 0 -0.61 1.11
-8 3 0 -0.74 0.93
-3 -8 0 -1.64 0.92
-8 3 0 0.67 1.01
-3 -8 0 0.28 0.77
8 -3 0 -0.87 0.9
3 8 0 1.04 0.96
-8 4 0 79.55 5.2
8 -4 0 83.2 5.16
8 -4 0 83.3 5.61
-4 -8 0 88.82 5.25
-8 4 0 79.9 5.17
-4 -8 0 80.78 5.22
-8 5 0 -2.54 1.07
-8 5 0 1.27 1.03
8 -5 0 3.23 1.36
8 -5 0 -2.17 1.02
-5 -8 0 -0.55 1.03
-6 -8 0 30.04 2.53
-8 6 0 27.86 2.62
-6 -8 0 28.22 2.46
-8 6 0 28.2 2.5
8 -6 0 31.75 3.02
-6 -8 0 28.35 2.56
8 -6 0 28.85 2.56
-8 7 0 29.88 2.81
-8 7 0 30.06 2.59
-7 -8 0 33.67 2.72
8 -7 0 33.87 2.82
8 -7 0 30.74 3.21
-7 -8 0 27.38 2.59
-8 -8 0 20.12 2.49
-8 8 0 21.71 2.11
-8 -8 0 20.1 2.25
8 -8 0 21.44 2.85
-8 -8 0 19.39 2.26
-8 8 0 23.65 2.54
8 -8 0 27.15 2.5
-9 -8 0 -1.2 1.34
-9 -8 0 1.28 1.38
-8 9 0 2.79 1.28
-8 9 0 3.46 1.62
8 -9 0 3.53 2.02
7 -9 0 21.86 2.83
-9 -7 0 25.71 2.32
-7 9 0 21.17 2.13
-7 9 0 20.28 2.48
7 -9 0 20.59 2.39
-9 -7 0 21.23 2.42
-9 -6 0 56.05 3.83
-6 9 0 53.55 3.8
-6 9 0 58.4 4.09
6 -9 0 51.49 4
-5 9 0 4.67 1.55
5 -9 0 2.01 1.11
-5 9 0 7.48 1.29
-9 -5 0 3.53 1.35
5 -9 0 7.52 1.63
-9 -5 0 6.97 1.34
4 -9 0 82.66 5.55
-9 -4 0 81.62 5
-4 9 0 76.92 5.21
-4 9 0 79.39 5.02
-9 -4 0 81.15 5.3
4 -9 0 81.29 5.22
-9 -4 0 73.29 4.92
-9 -3 0 178 10.86
9 3 0 184.22 11.18
3 -9 0 192.46 11.05
-3 9 0 198.58 11.05
3 -9 0 176.69 11.75
-3 9 0 196.61 11.05
-9 -3 0 196.33 11.24
-9 -3 0 186.47 10.82
-2 9 0 166.62 9.82
-9 -2 0 181.28 9.66
-2 9 0 168.67 9.83
-9 -2 0 162.46 9.98
-9 -2 0 163.28 9.67
2 -9 0 159.61 10.4
2 -9 0 172.74 9.82
9 2 0 160.07 10
-1 9 0 62.67 4.13
-9 -1 0 67.33 3.96
9 1 0 57.35 4.01
-9 -1 0 65.13 4.02
1 -9 0 60.78 4.18
1 -9 0 55.08 4.37
-9 -1 0 61.43 4.14
0 -9 0 -0.1 1.05
9 0 0 1.97 1.01
0 9 0 0.45 1.04
-9 0 0 0.02 0.91
-9 0 0 -0.46 0.92
0 -9 0 0.36 1.24
-9 0 0 -0.08 1
-9 1 0 24 2.03
-9 1 0 24.71 2.22
-1 -9 0 23.59 2.22
1 9 0 17.66 2.04
-9 1 0 18.42 2
-1 -9 0 25.42 2.3
9 -1 0 28.21 2.26
2 9 0 131.16 8.23
9 -2 0 142.24 8.73
-9 2 0 146.91 8.21
-2 -9 0 131.07 8.24
-9 2 0 144.26 8.38
-9 2 0 135.63 8.2
-2 -9 0 139.23 8.62
-3 -9 0 43.85 3.47
-3 -9 0 51.73 3.62
9 -3 0 47.36 3.77
-9 3 0 49.04 3.51
-9 3 0 54.08 3.55
3 9 0 56.27 3.53
4 9 0 21.77 2.09
9 -4 0 26.84 2.49
9 -4 0 19.29 2.02
-9 4 0 19.27 2.12
-4 -9 0 19.75 2.14
-9 4 0 21.57 2.07
9 -5 0 45.9 3.57
-5 -9 0 35.82 3.14
-9 5 0 36.93 3.14
-9 5 0 39.61 3.1
9 -5 0 40.31 3.07
9 -6 0 -0.07 1.61
-9 6 0 0.3 1.36
-9 6 0 2 1.19
-6 -9 0 -0.07 1.31
-9 7 0 1.15 1.46
-7 -9 0 2.13 1.39
-9 7 0 0.46 1.16
9 -7 0 1.99 1.83
-9 8 0 3.38 1.58
-8 -9 0 -0.76 1.39
-8 -9 0 0.33 1.36
9 -8 0 1.92 1.78
-9 8 0 2.6 1.21
9 -9 0 0.21 1.85
-9 -9 0 1.31 1.39
-9 -9 0 3.1 1.46
-9 9 0 1.28 1.55
-9 9 0 1.55 1.18
-9 10 0 3.65 1.77
-9 10 0 7.02 1.5
-10 -9 0 6.14 1.82
-10 -9 0 3.27 1.49
9 -10 0 4.06 2.17
-10 -9 0 7.59 1.65
-10 -8 0 2.65 1.56
-8 10 0 2.75 1.29
-10 -8 0 0.59 1.31
8 -10 0 2.51 1.92
-8 10 0 2.49 1.5
-7 10 0 0.56 1.21
-10 -7 0 -0.2 1.3
7 -10 0 2.1 1.68
7 -10 0 0.8 1.28
-10 -7 0 0.69 1.35
-7 10 0 0.4 1.55
6 -10 0 2.35 1.85
6 -10 0 5.62 1.64
-6 10 0 7.04 1.64
-10 -6 0 4.86 1.43
-6 10 0 4.76 1.38
-10 -6 0 3.7 1.5
-5 10 0 2.45 1.23
-5 10 0 2.17 1.51
-10 -5 0 3.67 1.59
5 -10 0 3.68 1.52
5 -10 0 2.09 1.7
-10 -5 0 2.26 1.3
-10 -4 0 48.56 3.45
4 -10 0 51.55 3.98
-10 -4 0 41.09 3.44
4 -10 0 45.05 3.55
-4 10 0 47.87 3.74
-10 -4 0 59.72 3.9
-4 10 0 45.61 3.45
3 -10 0 160.81 9.72
-3 10 0 160.23 9.74
10 3 0 162.45 9.71
3 -10 0 166.4 10.41
-10 -3 0 158.51 9.83
-10 -3 0 159.95 9.54
-10 -3 0 163.96 9.47
-3 10 0 166.72 9.68
-2 10 0 28.19 2.42
2 -10 0 27.85 2.55
2 -10 0 19.2 2.71
10 2 0 27.95 2.17
-10 -2 0 28.49 2.43
-10 -2 0 30.6 2.5
-10 -2 0 25.26 2.58
-2 10 0 28.67 2.6
1 -10 0 4.38 1.58
-1 10 0 1.38 1.15
-10 -1 0 -1.16 1.12
-1 10 0 0.87 1.26
-10 -1 0 1.55 1.29
-10 -1 0 2.66 1.14
1 -10 0 1.58 1.32
10 1 0 3.95 1.09
-10 0 0 18.02 2.1
0 10 0 17.58 2.07
0 -10 0 20.04 2.1
-10 0 0 20.31 1.93
-10 0 0 14.79 1.91
0 -10 0 24.7 2.36
10 0 0 19.37 1.91
-1 -10 0 55.96 4.12
10 -1 0 57.73 4.09
-10 1 0 59.6 3.97
1 10 0 55.68 3.98
-10 1 0 54.78 3.9
-10 1 0 60.82 4.11
-1 -10 0 60.32 4.15
-2 -10 0 75.95 5.49
-2 -10 0 92.11 5.49
2 10 0 81.37 5.31
-10 2 0 88.63 5.34
10 -2 0 82.23 5.62
-10 2 0 81.59 5.5
-10 3 0 26.52 2.52
-10 3 0 25.16 2.44
3 10 0 31.35 2.53
-3 -10 0 30.45 2.57
-3 -10 0 22.99 2.34
10 -3 0 23.2 2.6
-10 4 0 6.27 1.39
-4 -10 0 11.98 1.47
-4 -10 0 7.01 1.65
10 -4 0 11.28 1.95
-10 4 0 6.34 1.59
-10 5 0 40.24 3.37
-5 -10 0 46.77 3.47
10 -5 0 40.07 3.74
-10 5 0 42.98 3.39
-10 6 0 11 1.67
10 -6 0 9.72 2.18
-6 -10 0 9.66 1.85
-10 6 0 8.31 1.83
10 -7 0 0.25 1.82
-10 7 0 -0.37 1.19
-7 -10 0 -2.1 1.24
-10 7 0 0.87 1.48
-10 8 0 1.82 1.23
-10 8 0 0.26 1.53
-8 -10 0 0.64 1.39
10 -8 0 1.88 1.7
10 -9 0 4.17 2.13
-10 9 0 5.2 1.86
-9 -10 0 8.64 1.77
-10 9 0 5.98 1.51
-10 10 0 4.08 1.85
10 -10 0 0.28 2.09
-10 -10 0 4.75 1.74
-10 10 0 2.88 1.36
-10 -10 0 2.27 1.53
-11 -10 0 2.18 1.63
10 -11 0 -0.8 2.13
-10 11 0 1.38 1.83
-10 11 0 2.05 1.43
-11 -10 0 -1.69 1.53
-9 11 0 4.82 1.96
-11 -9 0 11.12 2.05
-11 -9 0 5.7 1.77
-9 11 0 3.58 1.53
9 -11 0 6.61 2.45
-8 11 0 16.4 1.91
8 -11 0 12.63 2.48
-11 -8 0 14.73 2.3
-11 -8 0 11.49 2.02
-8 11 0 16.8 2.36
-7 11 0 11.58 1.64
-7 11 0 8.22 1.86
-11 -7 0 9.74 1.83
7 -11 0 10 2.3
-11 -7 0 9.42 1.73
-6 11 0 1.4 1.3
-11 -6 0 0.58 1.45
-6 11 0 -0.44 1.49
6 -11 0 -0.14 1.78
-11 -6 0 1.13 1.3
6 -11 0 1.88 1.53
-5 11 0 -0.14 1.17
-11 -5 0 -1.89 1.08
-11 -5 0 0.24 1.45
5 -11 0 -1.78 1.77
-5 11 0 1.49 1.54
5 -11 0 -0.43 1.43
-11 -4 0 0.66 1.33
-11 -4 0 -0.93 1.24
-4 11 0 -0.4 1.46
4 -11 0 2.4 1.5
4 -11 0 2.67 1.87
-4 11 0 -1.09 1.14
3 -11 0 24.6 2.7
-11 -3 0 27.39 2.57
-11 -3 0 29.91 2.79
3 -11 0 25.25 3.06
-3 11 0 32.92 2.74
-3 11 0 31.35 2.92
-2 11 0 11.6 1.78
11 2 0 16.89 1.58
-2 11 0 17.22 2.04
-11 -2 0 11.32 1.9
2 -11 0 15.48 2.3
-11 -2 0 13.09 1.83
2 -11 0 13.94 2.06
1 -11 0 6.27 1.65
1 -11 0 6.15 1.76
-1 11 0 7.55 1.63
-11 -1 0 5.63 1.56
-1 11 0 5.78 1.5
-11 -1 0 1.16 1.33
11 1 0 5.7 1.3
11 0 0 13.84 1.71
0 -11 0 12.01 1.87
-11 0 0 14.71 1.99
-11 0 0 12.4 1.79
0 11 0 13.1 1.95
0 -11 0 11.72 1.98
-1 -11 0 3.14 1.47
11 -1 0 3.27 1.4
-11 1 0 7.16 1.57
-11 1 0 6.18 1.55
1 11 0 6.62 1.55
-1 -11 0 6.01 1.64
-11 2 0 8.22 1.66
-11 2 0 10.6 1.71
-2 -11 0 9.27 1.77
-2 -11 0 8.7 1.68
11 -2 0 7.59 1.74
-3 -11 0 27.66 2.62
-3 -11 0 24.98 2.72
-11 3 0 31.91 2.82
-11 3 0 33.77 2.82
11 -3 0 30.27 2.93
-11 4 0 1.84 1.4
-4 -11 0 5.58 1.57
11 -4 0 4.88 1.81
-11 4 0 2.88 1.53
-4 -11 0 3.13 1.28
-11 5 0 10.02 1.62
-11 5 0 7.4 1.79
-5 -11 0 9.42 1.82
11 -5 0 11.06 2.11
-11 6 0 17.14 1.97
-11 6 0 12.17 2.08
11 -6 0 14.62 2.49
-6 -11 0 16.07 2.15
-11 7 0 7.62 1.94
-11 7 0 11.15 1.76
-7 -11 0 9.84 1.93
11 -7 0 15.28 2.37
-8 -11 0 8.18 1.81
11 -8 0 4.89 2.12
-11 8 0 8.8 1.68
-11 8 0 5.54 1.82
-11 9 0 2.5 1.36
-9 -11 0 2.94 1.64
11 -9 0 0.6 2.09
-11 9 0 -0.28 1.65
-11 10 0 -0.31 1.3
11 -10 0 -0.38 2.14
-11 10 0 1.2 1.86
-10 -11 0 0.77 1.6
-11 11 0 6.89 2.18
-11 -11 0 8.56 1.94
11 -11 0 6.1 2.52
11 -12 0 2.03 2.39
-12 -11 0 -0.59 1.68
-11 12 0 -1.45 1.94
-10 12 0 14.52 2.54
10 -12 0 12.09 2.82
-12 -10 0 11.8 2.17
-12 -10 0 14.52 2.25
-9 12 0 18.81 2.76
9 -12 0 18.82 2.91
-12 -9 0 14.11 2.49
-12 -9 0 19.02 2.45
-8 12 0 10.13 2.25
-8 12 0 7.54 1.59
-12 -8 0 8.77 1.86
8 -12 0 8.14 2.4
-12 -8 0 6.33 1.92
-12 -7 0 1.27 1.55
-12 -7 0 1.8 1.5
7 -12 0 6.75 2.14
-7 12 0 2.96 1.66
-7 12 0 3.17 1.46
-6 12 0 1.83 1.24
-12 -6 0 1.31 1.42
-12 -6 0 1.08 1.57
6 -12 0 1.68 1.9
-6 12 0 4.99 1.75
6 -12 0 0.84 1.59
5 -12 0 6.46 2.16
-12 -5 0 8 1.57
-12 -5 0 4.6 1.74
-5 12 0 4.56 1.46
-5 12 0 6.88 1.86
5 -12 0 3.8 1.71
4 -12 0 6.35 1.82
-12 -4 0 11.78 1.91
-4 12 0 8.95 1.97
-12 -4 0 7.17 1.62
4 -12 0 10.9 2.23
-4 12 0 8.84 1.56
-3 12 0 0.35 1.52
-3 12 0 -0.7 1.29
-12 -3 0 -1.08 1.3
3 -12 0 -0.7 1.42
3 -12 0 -0.12 1.7
-12 -3 0 -1.48 1.4
-12 -2 0 17.33 2.26
-2 12 0 20.7 2.43
2 -12 0 19.6 2.39
-2 12 0 18.07 2.13
2 -12 0 21.97 2.71
-12 -2 0 20.03 2.19
1 -12 0 2.14 1.58
12 1 0 2.44 1.23
-12 -1 0 4.1 1.58
-1 12 0 1.79 1.5
1 -12 0 5.12 1.79
-1 12 0 2.24 1.46
-12 -1 0 3.81 1.43
-12 0 0 -0.58 1.31
0 -12 0 1.26 1.52
-12 0 0 -0.88 1.18
0 -12 0 0.03 1.48
12 0 0 -0.18 1.21
12 -1 0 7.41 1.67
-1 -12 0 8.2 1.82
-12 1 0 6.72 1.71
-12 1 0 7.29 1.61
-1 -12 0 9.11 1.86
-12 2 0 18.24 2.22
-2 -12 0 14.2 2.1
-2 -12 0 21.61 2.4
12 -2 0 17.32 2.18
-12 2 0 16.63 2.16
-3 -12 0 28.51 2.61
-12 3 0 26.45 2.73
-12 3 0 29.44 2.77
12 -3 0 25.51 2.8
-3 -12 0 27.44 2.81
-4 -12 0 4.97 1.34
-12 4 0 8.03 1.83
-12 4 0 7.31 1.57
-4 -12 0 6.23 1.75
12 -4 0 6.01 1.81
-12 5 0 5.44 1.55
-12 5 0 6.49 1.76
-5 -12 0 2.87 1.59
12 -5 0 7.18 1.93
-6 -12 0 29.15 2.98
-12 6 0 32.66 3.08
12 -6 0 31.86 3.36
-12 6 0 29.8 2.8
-7 -12 0 20.93 2.49
12 -7 0 21.05 2.85
-12 7 0 18.83 2.54
-12 7 0 17.87 2.23
-12 8 0 3.65 1.58
12 -8 0 6.53 2.3
-8 -12 0 2.03 1.62
-12 8 0 3.65 1.81
12 -9 0 2.11 2.21
-12 9 0 0.26 1.76
-9 -12 0 1.11 1.64
-12 9 0 0.73 1.46
12 -10 0 0.36 2.19
-12 10 0 3.2 1.97
-10 -12 0 -1.85 1.56
-11 -12 0 9.59 2.13
-12 11 0 8.19 2.31
12 -11 0 6.87 2.6
-12 12 0 2.87 2.07
12 -12 0 1.17 2.54
-12 -12 0 4.95 1.86
-12 13 0 0.66 2.09
-13 -12 0 -1.12 1.81
12 -13 0 -1.78 2.42
-13 -11 0 -0.32 1.76
-11 13 0 -3.92 1.84
11 -13 0 -3.59 2.37
-13 -11 0 0.95 1.77
-13 -10 0 5.67 1.9
10 -13 0 9.55 2.71
-10 13 0 4.13 2.01
-13 -10 0 6 1.97
9 -13 0 14.66 2.91
-13 -9 0 12.96 2.49
-13 -9 0 13.81 2.29
-9 13 0 12.04 2.56
-8 13 0 5.05 2.12
-13 -8 0 3.6 1.93
-13 -8 0 5.48 1.81
8 -13 0 3.98 2.31
-13 -7 0 -0.71 1.49
7 -13 0 -1.89 1.97
-7 13 0 0.18 1.41
-13 -7 0 0.84 1.51
-7 13 0 -0.58 1.77
-13 -6 0 0.03 1.44
6 -13 0 -1.87 1.96
-6 13 0 0.69 1.29
-13 -6 0 -0.34 1.42
-6 13 0 -3.89 1.55
-5 13 0 4.54 1.43
-13 -5 0 2.04 1.72
-5 13 0 6.57 1.94
5 -13 0 3.36 1.89
5 -13 0 1.23 1.69
-13 -5 0 3.96 1.53
-13 -4 0 6.84 1.89
4 -13 0 1.5 1.93
-13 -4 0 6.59 1.64
4 -13 0 6.88 1.73
-4 13 0 5.44 1.73
-4 13 0 7.75 1.57
-3 13 0 7.72 1.63
3 -13 0 8.69 1.93
3 -13 0 5.4 2.01
-13 -3 0 5.48 1.62
-13 -3 0 5.12 1.76
2 -13 0 1.63 1.41
-13 -2 0 4.95 1.54
-13 -2 0 3.39 1.62
2 -13 0 3.71 1.87
-2 13 0 3.31 1.42
1 -13 0 7.19 1.86
-1 13 0 4.86 1.54
1 -13 0 4.54 1.71
-13 -1 0 5.44 1.7
-13 -1 0 2.16 1.47
-13 0 0 13.83 2.08
13 0 0 16.92 1.89
0 -13 0 14.05 2.17
-13 0 0 12.19 1.93
0 -13 0 13.56 2.16
13 -1 0 19.81 2.24
-1 -13 0 21.76 2.5
-13 1 0 18.08 2.32
-13 1 0 16.87 2.17
-1 -13 0 19.15 2.35
-2 -13 0 10.03 1.86
-2 -13 0 12.13 2.06
13 -2 0 9.57 1.85
-13 2 0 10.88 1.9
-13 2 0 11.66 1.9
-3 -13 0 0.4 1.38
-13 3 0 -0.77 1.45
-3 -13 0 -0.41 1.46
13 -3 0 0.34 1.53
-13 3 0 -1.11 1.39
13 -4 0 -0.15 1.63
-4 -13 0 0.06 1.54
-13 4 0 -0.07 1.55
-4 -13 0 -0.05 1.14
-13 4 0 0.89 1.38
-5 -13 0 4.65 1.83
13 -5 0 5.94 2.01
-13 5 0 5.58 1.87
-13 5 0 8.95 1.76
13 -6 0 19.57 2.68
-13 6 0 11.31 1.94
-13 6 0 10.51 2.15
-6 -13 0 9.11 2.13
-13 7 0 4.95 1.65
13 -7 0 5.85 2.2
-7 -13 0 4.05 1.87
-13 7 0 6.5 2.02
-13 8 0 -1.64 1.8
-8 -13 0 5.03 1.9
-13 8 0 -1.06 1.33
13 -8 0 -1.53 2
13 -9 0 0.26 2.17
-13 9 0 0.95 1.86
-9 -13 0 1.53 1.79
-13 9 0 1.51 1.49
-10 -13 0 7.35 2.05
13 -10 0 7.2 2.59
-13 10 0 6.95 2.24
-11 -13 0 7.03 2.19
13 -11 0 7.27 2.74
-13 11 0 7.64 2.35
-12 -13 0 1.71 2.01
13 -12 0 5.49 2.77
-13 12 0 3.95 2.27
-14 -11 0 -1.53 1.81
-14 -11 0 -2.54 1.76
11 -14 0 2.07 2.67
-14 -10 0 0.64 1.86
-14 -10 0 -0.33 1.83
10 -14 0 -1.56 2.31
-14 -9 0 0.5 1.87
-14 -9 0 0.92 1.72
9 -14 0 0.6 2.29
-14 -8 0 2.53 1.76
-14 -8 0 1.88 1.7
8 -14 0 4.63 2.28
7 -14 0 -0.67 2.19
-14 -7 0 -0.04 1.83
-14 -7 0 -0.37 1.51
-14 -6 0 1.24 1.6
6 -14 0 -2.18 2.03
-14 -6 0 0.49 1.59
-14 -5 0 0.4 1.49
-5 14 0 2.68 1.56
5 -14 0 0.24 2.11
-14 -5 0 0.65 1.78
-14 -4 0 6.08 1.76
4 -14 0 5.11 2.18
-4 14 0 6.73 1.63
4 -14 0 6.39 1.84
-14 -4 0 4.08 1.75
-14 -3 0 10.06 2.11
3 -14 0 13.55 2.46
3 -14 0 8.73 1.96
-3 14 0 13.2 1.96
-14 -3 0 7.56 1.86
-14 -2 0 0.42 1.46
2 -14 0 2.8 1.83
-2 14 0 2.3 1.49
-14 -2 0 -0.14 1.55
2 -14 0 -1.04 1.6
1 -14 0 0.54 1.62
-1 14 0 4.43 1.63
-14 -1 0 0.51 1.53
1 -14 0 4.16 1.85
-14 -1 0 2.95 1.49
-14 0 0 5.14 1.62
0 -14 0 1.51 1.68
-14 0 0 5.01 1.68
0 14 0 1.91 1.61
0 -14 0 3.95 1.82
-1 -14 0 2.76 1.71
-1 -14 0 0.81 1.48
-14 1 0 0 1.48
-14 1 0 0.54 1.53
14 -1 0 1.06 1.47
-14 2 0 5.82 1.68
-2 -14 0 4.45 1.79
-2 -14 0 5.27 1.74
-14 2 0 3.3 1.73
14 -2 0 4.42 1.73
14 -3 0 7.21 1.92
-3 -14 0 9.13 2.03
-14 3 0 8.31 1.92
-14 3 0 4.85 1.8
-3 -14 0 8.37 1.78
14 -4 0 -0.37 1.75
-14 4 0 0.76 1.72
-4 -14 0 -0.32 1.32
-4 -14 0 0.28 1.61
-14 4 0 -0.19 1.55
-14 5 0 0.44 1.45
14 -5 0 0.44 1.84
-5 -14 0 1.3 1.65
-14 5 0 -1.31 1.61
14 -6 0 -1.02 2
-14 6 0 -0.14 1.83
-6 -14 0 -1.4 1.6
-14 6 0 -0.06 1.54
-7 -14 0 -1.15 1.49
-14 7 0 -1.27 1.74
-14 7 0 -3.99 1.41
14 -7 0 2.28 2.1
-8 -14 0 1.91 1.93
14 -8 0 -1.64 2
-14 8 0 2.95 1.94
-14 8 0 -0.74 1.55
-14 9 0 -2.2 1.74
14 -9 0 1.09 2.22
-9 -14 0 -0.14 1.7
14 -10 0 1.03 2.43
-14 10 0 0.95 2.03
-10 -14 0 1.24 1.91
-11 -14 0 2.17 1.99
-14 11 0 0.74 2.06
14 -11 0 -0.38 2.57
10 -15 0 1.64 2.61
-15 -10 0 1.52 1.96
-15 -10 0 2.65 2.05
9 -15 0 0.19 2.37
-15 -9 0 -0.51 1.78
-15 -9 0 2.55 1.81
-15 -8 0 1.09 1.72
-15 -8 0 -1.13 1.91
8 -15 0 -0.79 2.28
-15 -7 0 1.37 1.65
7 -15 0 -2.09 2.29
-15 -7 0 -2.15 1.79
-15 -6 0 -0.32 1.58
6 -15 0 -1.64 2.1
-15 -6 0 -0.48 1.75
5 -15 0 3.44 2.26
-15 -5 0 -0.07 1.58
-15 -5 0 -0.12 1.48
-4 15 0 4.94 1.7
4 -15 0 2.2 2.12
-15 -4 0 2.83 1.9
-15 -4 0 -1.11 1.53
3 -15 0 6.1 2.22
-15 -3 0 6.6 2.04
-3 15 0 7.56 1.85
-15 -3 0 4.39 1.8
3 -15 0 1.98 1.86
-2 15 0 1.61 1.58
2 -15 0 2.09 1.83
-15 -2 0 2.78 1.77
2 -15 0 0 1.84
-15 -2 0 1.78 1.66
-15 -1 0 5.88 1.93
1 -15 0 7.93 2.12
-15 -1 0 6.36 1.91
1 -15 0 7.05 1.95
-1 15 0 8.6 1.94
0 -15 0 22.2 2.85
0 15 0 23.55 2.72
-15 0 0 22.09 2.79
0 -15 0 24.41 2.94
-15 0 0 19.14 2.58
-1 -15 0 15.81 2.56
-1 -15 0 21.03 2.67
-15 1 0 17.2 2.45
-15 1 0 18.87 2.47
15 -2 0 1.8 1.66
-2 -15 0 -0.67 1.58
-15 2 0 3.09 1.79
-15 2 0 0.12 1.56
-2 -15 0 1.43 1.78
-15 3 0 -0.91 1.66
-15 3 0 -0.07 1.58
15 -3 0 -0.21 1.64
-3 -15 0 -0.5 1.43
-3 -15 0 0.16 1.69
-4 -15 0 4.55 1.91
-15 4 0 1.57 1.88
-15 4 0 1.83 1.62
15 -4 0 7.06 2.03
-15 5 0 1.5 1.61
-15 5 0 -0.29 1.71
15 -5 0 -0.57 1.74
-5 -15 0 3.65 1.87
-15 6 0 3.33 1.74
-6 -15 0 6.46 2.16
15 -6 0 7.79 2.3
-15 6 0 1.5 2
15 -7 0 -2.79 2.06
-15 7 0 1.46 1.69
-15 7 0 -1.01 1.81
-7 -15 0 1.69 1.89
-8 -15 0 -2.21 1.52
-15 8 0 1.03 2.02
15 -8 0 -0.79 2.29
15 -9 0 -1.48 2.31
-9 -15 0 1.99 1.85
-15 9 0 -2.4 2.04
-10 -15 0 -0.08 2.06
15 -10 0 -0.29 2.45
-15 10 0 3.49 2.33
-16 -9 0 4.13 2.1
-16 -8 0 -1.94 1.95
8 -16 0 -0.81 2.21
-16 -8 0 1.45 1.92
-16 -7 0 1.42 1.76
-16 -7 0 0.78 1.97
7 -16 0 4.35 2.59
-16 -6 0 3.03 2.07
-16 -6 0 -0.64 1.66
6 -16 0 0.26 2.38
-16 -5 0 1.68 1.66
-16 -5 0 -1 1.75
5 -16 0 -2.04 2.08
-16 -4 0 0.19 1.6
-16 -4 0 0.74 1.86
4 -16 0 1.48 2.15
-3 16 0 0.83 1.6
-16 -3 0 0.02 1.68
-16 -3 0 -0.9 1.53
3 -16 0 -1.12 1.74
3 -16 0 0.18 2.01
-16 -2 0 -0.1 1.71
-2 16 0 -0.97 1.56
2 -16 0 1.72 2.11
-16 -2 0 -0.94 1.67
2 -16 0 0.24 1.82
-16 -1 0 7.31 2.05
-1 16 0 8.55 2.01
1 -16 0 5.38 2.14
-16 -1 0 7.25 2.01
1 -16 0 5.97 2.22
0 -16 0 9.15 2.14
0 -16 0 12.38 2.45
-16 0 0 11.13 2.17
-16 0 0 7.47 2.1
0 16 0 9.77 2.16
-16 1 0 6.56 2
-1 -16 0 3.08 2.01
-1 -16 0 3.55 1.84
-16 1 0 5.97 1.98
1 16 0 7.72 2.09
-2 -16 0 3.04 1.93
-2 -16 0 0.3 1.68
-16 2 0 -0.38 1.74
-16 2 0 0.39 1.74
-3 -16 0 0.58 1.5
-16 3 0 0.51 1.66
-3 -16 0 2.11 1.92
-16 3 0 2.91 1.76
16 -4 0 4.97 2.14
-16 4 0 7.39 1.95
-4 -16 0 5.56 2.1
-16 4 0 3.44 1.89
-16 5 0 6.53 2.07
16 -5 0 7.61 2.37
-16 5 0 8.39 2.25
-5 -16 0 5.04 2.26
16 -6 0 -1.36 2.17
-6 -16 0 2.97 2.02
-16 6 0 3.65 1.87
-16 6 0 4.79 2.16
-7 -16 0 1.23 1.9
-16 7 0 -1.37 1.94
16 -7 0 -3.87 2.12
16 -8 0 5.2 2.53
-8 -16 0 2.52 2.14
-16 8 0 0.59 2.04
-16 9 0 1.16 2.34
6 -17 0 3.34 2.53
-17 -6 0 2.35 2.19
-17 -6 0 1 1.9
-17 -5 0 2.05 2.02
-17 -5 0 2.53 1.82
5 -17 0 0.35 2.34
-17 -4 0 0.95 2.01
4 -17 0 5.13 2.48
-17 -4 0 1.25 1.8
-17 -3 0 1.08 1.93
-17 -3 0 2.67 1.84
3 -17 0 1.7 2.25
-17 -2 0 -0.95 1.79
2 -17 0 -1.16 1.88
2 -17 0 -0.52 2.15
-17 -2 0 1.28 1.87
-1 17 0 2.73 1.77
1 -17 0 3.57 2.08
-17 -1 0 -1.2 1.76
1 -17 0 -2 1.96
-17 -1 0 0.49 1.65
0 -17 0 3.47 2.05
0 17 0 0.91 1.66
-17 0 0 2.29 1.81
0 -17 0 3.55 2.02
-17 0 0 0.82 1.85
-1 -17 0 0.13 1.73
-17 1 0 -2.2 1.55
1 17 0 1.65 1.92
-17 1 0 2.43 1.8
-1 -17 0 3.24 2.12
-2 -17 0 3.52 1.81
-17 2 0 0.8 1.67
-17 2 0 1.28 1.82
-2 -17 0 1.79 2
-17 3 0 -1.77 1.56
-17 3 0 0.6 1.93
-3 -17 0 -0.6 2.03
-17 4 0 3.01 1.85
-17 4 0 0.16 1.89
-4 -17 0 2.19 2.06
-17 5 0 4.58 1.88
-5 -17 0 0.61 2.13
-17 5 0 3.39 2.08
-17 6 0 4.42 2.31
-17 6 0 3.17 1.74
-6 -17 0 4.46 2.34
17 -6 0 -0.24 2.16
3 -18 0 -0.26 2.26
-18 -3 0 -1.9 1.83
-18 -3 0 -2.25 1.95
-18 -2 0 0.18 2.08
2 -18 0 3.16 2.42
-18 -2 0 1.92 2.05
-18 -1 0 4.65 2.08
1 -18 0 0.3 2.22
-18 -1 0 3.45 1.97
-18 0 0 -0.27 1.94
0 -18 0 3.49 2.2
0 -18 0 2.96 2.21
-18 0 0 3.18 1.92
-1 -18 0 2.59 1.9
-18 1 0 0.31 1.95
1 18 0 -0.15 1.77
-1 -18 0 -0.91 1.9
-18 1 0 -2.71 1.72
-18 2 0 -1.83 1.74
-2 -18 0 2.14 2.11
-18 2 0 3.12 1.83
2 18 0 1.53 2.05
-18 3 0 1.16 2.07
-18 3 0 -0.36 1.8
-3 -18 0 -0.7 1.97
-1 0 -1 936.11 52.58
0 -1 -1 961 53.35
0 -1 -1 987.85 52.53
0 -1 -1 926.83 52.65
-1 0 -1 1000 53.49
0 -1 1 973.32 52.49
0 1 1 920.76 52.54
0 -1 1 958.18 52.56
1 0 1 905.19 52.54
1 -1 -1 508.82 27.61
-1 1 -1 551.21 27.64
-1 -1 -1 551.6 27.64
-1 -1 -1 513.09 28.1
1 -1 1 434.5 29.41
-1 1 1 474.75 27.61
-1 1 1 490.44 27.61
1 -1 1 494.84 27.63
1 1 1 507.93 27.63
-1 -1 1 482.6 27.57
-1 2 -1 652.76 35.26
-2 -1 -1 608.37 35.26
-2 -1 -1 609.3 34.66
-1 2 -1 607.91 34.66
1 -2 -1 630.81 34.66
-2 -1 1 635.99 34.62
1 -2 1 610.7 34.66
-2 -1 1 624.98 34.61
-1 2 1 656.72 35.24
-2 -1 1 618.06 35.25
2 1 1 633.27 34.65
-1 2 1 644.28 34.66
-2 0 -1 274.19 15.37
0 -2 -1 263.49 15.38
0 -2 -1 248.93 15.57
0 2 -1 285.81 15.37
0 -2 1 291.96 15.37
-2 0 1 280.23 15.61
2 0 1 291.64 15.38
0 -2 1 264.03 16.36
0 -2 1 278.25 15.36
2 0 1 266.26 16.32
0 2 1 299.09 15.39
-2 0 1 285.94 15.31
-2 1 -1 111.34 6.4
-1 -2 -1 104.83 6.29
-1 -2 -1 108.59 6.37
-2 1 -1 98.99 6.28
-1 -2 1 117.37 6.23
2 -1 1 115.72 6.68
-2 1 1 117.64 6.32
-2 1 1 116.32 6.24
-2 1 1 106.13 6.24
2 -1 1 110.69 6.29
-1 -2 1 115.65 6.23
1 2 1 111.35 6.29
-2 2 -1 45.33 2.8
2 -2 -1 45.12 2.74
-2 2 -1 47.43 2.79
-2 -2 -1 42.9 2.77
-2 -2 -1 49.49 2.84
-2 -2 1 42.34 2.66
2 2 1 43.04 2.76
-2 2 1 47.58 2.68
2 -2 1 44.44 2.81
-2 2 1 46.67 2.76
-3 -2 -1 116.79 6.56
-3 -2 -1 122.2 6.41
2 -3 -1 116.98 6.4
-2 3 -1 120.6 6.51
-2 3 -1 126.69 6.44
2 -3 1 97.04 6.86
-2 3 1 110.05 6.41
2 -3 1 107.19 6.41
-2 3 1 108.03 6.38
3 2 1 114.36 6.4
-3 -2 1 109.38 6.29
-3 -2 1 94.73 6.48
-1 3 -1 482.41 26.79
1 -3 -1 497.15 26.8
-1 3 -1 489.2 27.23
-3 -1 -1 496.28 26.78
3 1 1 472 26.76
1 -3 1 496.88 28.54
-1 3 1 460.52 26.78
-3 -1 1 487.78 26.68
3 1 1 490.31 28.37
1 -3 1 456.72 26.78
-3 -1 1 491.87 27.24
0 -3 -1 128.9 7.21
-3 0 -1 130.19 7.34
-3 0 -1 131.57 7.21
0 3 -1 134.12 7.19
3 0 1 131.35 7.2
0 -3 1 118.65 7.67
3 0 1 123.28 7.58
0 -3 1 118.37 7.19
0 3 1 128.69 7.23
-3 0 1 125.38 7.3
-3 0 1 127.95 7.12
-1 -3 -1 32.98 1.94
-1 -3 -1 31.53 2.02
-3 1 -1 29.59 2.01
-3 1 -1 30.25 2.03
-1 -3 -1 28.73 2.01
-1 -3 -1 25.81 2.01
-1 -3 1 26.86 1.88
3 -1 1 28.55 1.99
-3 1 1 28.08 1.87
-3 1 1 31.31 1.92
-3 1 1 26.48 1.88
-1 -3 1 26.62 1.91
1 3 1 30.25 2.02
-2 -3 -1 46.14 2.76
-3 2 -1 43.7 2.85
3 -2 -1 44.7 2.72
-3 2 -1 43.45 2.8
-2 -3 -1 42.61 2.79
-2 -3 -1 43.66 2.82
-2 -3 1 40.57 2.67
2 3 1 41.39 2.76
3 -2 1 43.41 2.81
-3 2 1 40.11 2.72
-3 2 1 45.79 2.69
3 -2 1 47.82 2.98
-2 -3 1 42.71 2.68
-3 2 1 45.29 2.73
-3 -3 -1 20.34 1.58
-3 3 -1 19.01 1.52
-3 -3 -1 19.52 1.17
-3 3 -1 16.61 1.48
-3 -3 -1 14.9 1.37
3 -3 -1 20.47 1.68
3 -3 -1 16.91 1.47
3 -3 1 16.32 1.46
3 3 1 15.95 1.38
-3 -3 1 12.82 1.24
3 -3 1 17.79 1.61
-3 3 1 17.68 1.36
-3 3 1 17.55 1.5
-3 -3 1 19.04 1.39
-4 -3 -1 73.25 4.27
-4 -3 -1 72.21 4.41
-3 4 -1 72.54 4.33
-3 4 -1 75.24 4.32
3 -4 -1 74.92 4.32
3 -4 1 60.99 4.63
-4 -3 1 73.8 4.18
-3 4 1 71.29 4.22
3 -4 1 71.98 4.35
4 3 1 69.1 4.26
-3 4 1 68.1 4.31
-2 4 -1 40.85 2.87
2 -4 -1 51.89 3.12
-4 -2 -1 47.17 2.92
-4 -2 -1 44.94 2.89
2 -4 -1 43.79 2.89
-2 4 -1 45.94 2.93
1 -4 -1 214.55 13.05
-4 -1 -1 199.07 12.98
1 -4 -1 209.9 13.88
-1 4 -1 215.86 13.04
-1 4 -1 213.36 13.24
-4 -1 1 261.58 13.29
-4 -1 1 235.76 12.92
1 -4 1 247.78 13.06
4 1 1 249.35 13.71
-1 4 1 239.84 13.07
4 1 1 256.56 13.03
1 -4 1 245.23 13.92
-4 0 -1 120.38 6.64
0 -4 -1 115.95 7.06
0 4 -1 121.16 6.64
-4 0 -1 113.88 6.76
0 -4 -1 113.54 6.68
0 4 1 113.82 6.66
0 -4 1 113.05 7.08
0 -4 1 116.63 6.65
4 0 1 114.24 6.62
-4 0 1 121.92 6.75
4 0 1 114.78 6.97
-4 0 1 111.53 6.55
-1 -4 -1 7.68 0.93
-4 1 -1 10.3 1.02
-4 1 -1 8.23 0.99
1 4 -1 8.85 0.9
-1 -4 -1 7.03 0.94
4 -1 1 7.45 1.01
-1 -4 1 6.89 0.87
-4 1 1 7.9 0.87
-4 1 1 6.86 0.84
1 4 1 7.97 0.98
4 -1 1 8.61 0.96
-1 -4 1 7.16 0.96
-4 1 1 8.11 0.88
-1 -4 1 8.85 0.95
-4 2 -1 1.52 0.73
-2 -4 -1 0.39 0.7
-2 -4 -1 1.2 0.72
-4 2 -1 -0.18 0.61
-2 -4 -1 -0.16 0.61
-2 -4 -1 0.52 0.67
-4 2 1 0.78 0.59
-2 -4 1 1.72 0.66
-4 2 1 2.22 0.7
-2 -4 1 2.05 0.68
2 4 1 2.11 0.74
-4 2 1 2.16 0.65
-2 -4 1 1.6 0.66
4 -2 1 1.78 0.73
4 -2 1 1.97 0.88
-3 -4 -1 41.21 2.98
4 -3 -1 43.78 2.9
4 -3 -1 40.52 3.12
-3 -4 -1 41.38 2.92
-3 -4 -1 42.2 2.84
-4 3 -1 44.17 2.98
-4 3 -1 43.82 2.95
4 -3 1 52.65 2.95
-4 3 1 47.26 2.84
-4 3 1 48.11 2.93
-3 -4 1 50.43 2.85
4 -3 1 43.23 3.12
-3 -4 1 51.28 2.85
-3 -4 1 49.38 2.86
3 4 1 46.26 2.9
-4 4 -1 12.41 1.33
-4 -4 -1 8.86 1.3
-4 -4 -1 14.18 1.31
4 -4 -1 11.65 1.51
4 -4 -1 11.45 1.29
-4 4 -1 10.73 1.25
4 -4 1 12.58 1.48
-4 -4 1 17.39 1.36
-4 4 1 14.55 1.38
-4 -4 1 14.9 1.23
4 -4 1 13.74 1.34
-4 4 1 13.6 1.15
4 4 1 14.16 1.29
-5 -4 -1 23.64 1.82
-4 5 -1 20.64 1.8
4 -5 -1 21.45 1.84
4 -5 -1 23.37 2.04
-4 5 -1 21.84 1.92
-5 -4 -1 21.45 1.9
-5 -4 -1 20.53 1.79
4 -5 1 24.9 2.19
-5 -4 1 24.17 1.71
4 -5 1 20.33 1.84
-5 -4 1 20.19 1.71
-4 5 1 23.21 1.71
-4 5 1 23.27 1.97
3 -5 -1 28 2.19
-3 5 -1 28.91 2.13
-3 5 -1 29.84 2.15
-5 -3 -1 30.94 2.12
-5 -3 -1 27.78 2.23
-5 -3 -1 27.72 2.09
-3 5 1 30.44 2.16
3 -5 1 33.2 2.28
-3 5 1 31.34 2.01
-5 -3 1 27.18 1.96
-5 -2 -1 22.46 1.89
-2 5 -1 23.37 1.88
-2 5 -1 20.74 1.85
2 -5 -1 20.38 1.94
-5 -2 -1 19.97 1.83
-2 5 1 29.34 2
-2 5 1 29.02 1.78
-5 -2 1 29.19 1.76
2 -5 1 29.19 2.01
-1 5 -1 84.15 5
-5 -1 -1 80.14 4.88
-1 5 -1 82.92 4.96
1 -5 -1 84.12 5
-5 -1 -1 83.6 4.9
1 -5 -1 78.03 5.26
-1 5 1 88.7 4.96
1 -5 1 80.84 5.28
-5 -1 1 88.52 4.81
5 1 1 76.92 5.03
-5 -1 1 84.14 5.02
5 1 1 85.3 4.88
1 -5 1 84.1 4.97
0 -5 -1 63.78 3.68
0 5 -1 58.89 3.4
0 -5 -1 58.81 3.46
-5 0 -1 59.48 3.38
-5 0 -1 57.3 3.48
-5 0 1 51.72 3.25
-5 0 1 54.08 3.42
0 -5 1 52.31 3.6
0 -5 1 49.68 3.39
0 5 1 50.22 3.43
5 0 1 54.68 3.34
5 0 1 55.34 3.47
-5 0 1 46.57 3.24
-1 -5 -1 85.44 5.18
-1 -5 -1 87.89 5.42
-5 1 -1 87.76 5.25
1 5 -1 88.7 5.1
-5 1 -1 86.8 5.14
-1 -5 1 85.52 5.14
5 -1 1 82.09 5.41
5 -1 1 85.76 5.12
-5 1 1 90.99 5.22
1 5 1 90.57 5.18
-5 1 1 91.81 5.08
-5 1 1 86.44 5.05
-1 -5 1 81.36 5.41
-5 2 -1 163.8 9.53
-5 2 -1 156.94 9.38
-2 -5 -1 165.89 9.86
-2 -5 -1 157.53 9.5
-2 -5 -1 157.43 9.38
2 5 1 164.9 9.38
-5 2 1 161.91 9.35
5 -2 1 169.89 9.39
-2 -5 1 170.02 9.35
5 -2 1 167.13 9.98
-5 2 1 160.9 9.45
-2 -5 1 167.82 9.89
-2 -5 1 160.86 9.35
-5 2 1 179.13 9.36
-3 -5 -1 200.93 12.05
-3 -5 -1 201.32 12.64
-5 3 -1 197.71 12.22
-3 -5 -1 201.78 12.05
5 -3 -1 207.84 12.02
5 -3 -1 196.08 12.85
-3 -5 -1 199.51 12.26
-5 3 -1 212.22 12.09
-3 -5 1 215.62 12
-5 3 1 230.29 12.08
-3 -5 1 237 12.03
-5 3 1 224.09 12.17
5 -3 1 231.88 12.1
3 5 1 226.73 12.07
5 -3 1 215.08 12.87
5 -4 -1 181.5 11.74
-4 -5 -1 189.73 11.41
-4 -5 -1 176.49 10.97
-5 4 -1 171.49 11.12
-4 -5 -1 174.02 11.16
5 -4 -1 178.36 10.95
-5 4 -1 187.23 11.03
5 -4 1 210.84 11.8
-4 -5 1 210.36 10.94
-4 -5 1 201.84 10.93
-5 4 1 196.41 11.05
4 5 1 206.69 10.98
-5 4 1 204.71 11.02
5 -4 1 204.38 11.04
-4 -5 1 202.63 10.93
5 -5 -1 43.99 3.56
5 -5 -1 49.96 3.28
-5 -5 -1 44.32 3.37
-5 5 -1 49.78 3.38
-5 -5 -1 46.89 3.24
-5 -5 1 44.73 3.35
-5 5 1 48.5 3.15
5 -5 1 55.9 3.37
5 -5 1 45.01 3.58
-5 -5 1 57.53 3.18
-5 -5 1 51.27 3.17
-5 5 1 51.79 3.33
5 -6 -1 55.45 3.79
-5 6 -1 47.4 3.48
-6 -5 -1 47.89 3.58
-6 -5 -1 54.33 3.48
-6 -5 -1 53.23 3.48
5 -6 -1 50.71 3.51
-5 6 -1 48.03 3.54
-6 -5 1 52.92 3.34
5 -6 1 54.55 3.87
-6 -5 1 52.75 3.31
-5 6 1 53.33 3.33
5 -6 1 53.02 3.54
-5 6 1 51.34 3.54
4 -6 -1 5.26 1.08
-6 -4 -1 4.54 0.97
-4 6 -1 6.26 1.17
-6 -4 -1 5.86 1.03
-6 -4 -1 5.69 1.09
-6 -4 1 5.01 0.91
-6 -4 1 4.8 0.88
-4 6 1 5.11 1.17
4 -6 1 5.82 1.09
4 -6 1 3.78 1.2
-6 -4 1 6.14 1.05
-4 6 1 5.08 0.85
3 -6 -1 21.95 1.82
-3 6 -1 19.06 1.79
-3 6 -1 13.02 1.49
-6 -3 -1 19.46 1.67
3 -6 -1 22.02 1.98
-6 -3 -1 21.2 1.7
-3 6 1 19.88 1.79
3 -6 1 20.82 1.82
3 -6 1 19.75 1.99
-3 6 1 18.25 1.57
-6 -3 1 22.4 1.87
-6 -3 1 18.99 1.6
-6 -2 -1 60.53 3.73
2 -6 -1 57.28 3.85
-6 -2 -1 56.77 3.51
-2 6 -1 57.28 3.65
-6 -2 -1 59.15 3.54
-2 6 -1 57.67 3.6
2 -6 -1 59.1 3.66
-6 -2 1 55.85 3.41
6 2 1 54.37 3.43
2 -6 1 57.36 3.93
-6 -2 1 54.81 3.66
-2 6 1 54.48 3.47
-2 6 1 53.45 3.62
2 -6 1 55 3.64
-6 -1 -1 16.63 1.55
-1 6 -1 19.39 1.68
-6 -1 -1 17.94 1.71
-1 6 -1 18.89 1.63
1 -6 -1 18.15 1.7
-6 -1 -1 18.16 1.6
6 1 1 19.86 1.47
1 -6 1 22.64 1.81
-6 -1 1 13.1 1.37
-1 6 1 22.17 1.8
-6 -1 1 24.3 1.52
1 -6 1 21.82 1.88
-6 0 -1 23.04 1.82
-6 0 -1 24.01 1.92
0 -6 -1 25.52 2
0 -6 -1 23.87 1.93
0 6 -1 23.36 1.85
-6 0 1 15.21 1.72
6 0 1 23.89 1.84
0 -6 1 21.99 1.9
6 0 1 22.7 1.8
-6 0 1 25.77 1.72
-6 0 1 25.23 1.76
0 6 1 22.93 1.85
-1 -6 -1 36.21 2.93
-1 -6 -1 44.21 3.02
-6 1 -1 39.05 2.86
1 6 -1 39.36 2.82
-6 1 1 44.62 2.89
-1 -6 1 48.87 3.04
6 -1 1 47.13 3.03
-6 1 1 47.12 2.82
6 -1 1 45.59 2.85
-6 1 1 43.69 2.8
-1 -6 1 41.36 2.89
1 6 1 43.66 2.94
-2 -6 -1 73.82 4.83
-2 -6 -1 72.47 4.7
6 -2 -1 64.51 4.92
-6 2 -1 68.5 4.66
-6 2 1 79.33 4.64
6 -2 1 80.18 4.95
-2 -6 1 84.81 4.89
-6 2 1 80.53 4.69
2 6 1 83.2 4.72
-2 -6 1 80.07 4.69
6 -2 1 74.48 4.65
-6 2 1 81.43 4.63
-6 3 -1 276.87 15.02
6 -3 -1 287.78 16.01
-3 -6 -1 274.4 15.24
-3 -6 -1 281.91 15.78
-3 -6 -1 262.35 15
-6 3 1 245.92 14.95
-3 -6 1 269.18 14.97
-3 -6 1 261.38 15.79
6 -3 1 262.01 15.96
3 6 1 260.46 14.98
-6 3 1 249.59 15.13
6 -3 1 241.16 14.96
-6 3 1 281.43 14.98
-3 -6 1 264.73 14.95
6 -4 -1 206.78 11.39
-4 -6 -1 209.91 11.44
-4 -6 -1 200.96 11.88
6 -4 -1 200.4 12.21
-6 4 -1 202.99 11.57
-4 -6 -1 204.91 11.65
-6 4 -1 204.55 11.45
-4 -6 -1 205.7 11.43
-4 -6 1 209.03 11.38
4 6 1 190.18 11.38
-6 4 1 196.38 11.47
6 -4 1 186.33 12.18
6 -4 1 200.94 11.45
-6 4 1 193.07 11.41
-4 -6 1 186.19 11.35
-6 5 -1 24.64 2.1
6 -5 -1 27.17 2.51
6 -5 -1 26.96 2.16
-5 -6 -1 25.27 2.17
-6 5 -1 26.42 2.26
-5 -6 -1 24.86 2.13
-6 5 1 25.55 2.2
-5 -6 1 28.16 2.09
6 -5 1 25.32 2.32
-5 -6 1 25.95 2.06
-6 5 1 24.03 1.99
5 6 1 23.74 2.04
6 -5 1 28.29 2.25
-5 -6 1 24.08 2.06
-6 -6 -1 4.1 1.22
-6 6 -1 5.65 1.19
-6 6 -1 6.71 1.33
6 -6 -1 5.36 1.17
6 -6 -1 4.8 1.53
-6 -6 -1 3.98 1.14
6 -6 1 7.43 1.28
-6 -6 1 4.13 1.2
-6 6 1 3.5 0.94
-6 -6 1 5.48 1.12
-6 6 1 8.25 1.39
-6 -6 1 6.68 1.07
6 -6 1 4.34 1.41
6 -7 -1 40.86 3.38
-7 -6 -1 41.41 2.98
6 -7 -1 41.78 3.11
-6 7 -1 42.17 3.1
-7 -6 -1 41.19 3.25
-7 -6 -1 39.38 2.99
-6 7 -1 40.55 3.09
-7 -6 1 40.59 2.96
6 -7 1 40.45 3.36
-6 7 1 41.16 3.15
6 -7 1 42.34 3.16
-7 -6 1 39.94 2.89
5 -7 -1 -0.19 0.99
-7 -5 -1 0.21 0.88
-7 -5 -1 -0.31 0.99
-5 7 -1 -0.18 0.85
-7 -5 -1 1.71 1.1
5 -7 -1 -0.05 0.84
-5 7 -1 0.87 1.09
5 -7 1 0.61 0.96
-5 7 1 2.11 1.15
-5 7 1 0.48 0.74
-7 -5 1 1.51 0.98
-7 -5 1 1.02 0.82
-7 -5 1 1.38 0.85
5 -7 1 0.9 1.3
-4 7 -1 13.57 1.57
-7 -4 -1 14.63 1.51
-7 -4 -1 14.27 1.53
-4 7 -1 14.8 1.5
4 -7 -1 15.27 1.65
4 -7 -1 15.6 1.9
-7 -4 1 13.19 1.34
4 -7 1 12.26 1.54
-4 7 1 13.24 1.31
-4 7 1 16.3 1.72
-7 -4 1 12.67 1.33
-7 -4 1 11.18 1.52
-3 7 -1 4.87 1.06
-7 -3 -1 4.83 1.05
3 -7 -1 3.6 1.32
3 -7 -1 5.52 1.14
-3 7 -1 4.35 1.02
-7 -3 -1 5.11 0.99
-7 -3 -1 4.47 0.99
-3 7 1 2.94 1.1
-7 -3 1 3.22 0.78
3 -7 1 3.85 1.1
-7 -3 1 5.12 0.89
-7 -3 1 3.63 1.1
-3 7 1 2.64 0.83
3 -7 1 2.41 1.23
2 -7 -1 15.33 1.79
-7 -2 -1 16.97 1.58
-7 -2 -1 16.61 1.56
2 -7 -1 15.03 1.65
-2 7 -1 16.76 1.71
-2 7 -1 16.48 1.57
-7 -2 -1 15.86 1.67
7 2 1 17.52 1.29
2 -7 1 16.41 1.86
-7 -2 1 15.47 1.4
-2 7 1 15.81 1.45
-7 -2 1 17.46 1.44
-2 7 1 14.28 1.62
-7 -2 1 18.07 1.72
2 -7 1 19.21 1.76
-7 -1 -1 5.61 1.14
-7 -1 -1 4.95 0.99
1 -7 -1 5.9 1.15
-1 7 -1 6.69 1.06
-7 -1 -1 6.66 0.98
-1 7 -1 5.41 1.08
1 -7 -1 4.51 1.22
1 -7 1 4.26 1.23
-7 -1 1 5.45 0.87
-7 -1 1 4.17 1.04
-7 -1 1 4.65 0.9
-1 7 1 5.71 1.05
1 -7 1 6 1.14
7 1 1 5.89 0.86
0 -7 -1 7.19 1.19
0 7 -1 5.36 1.06
-7 0 -1 5.45 1.13
0 -7 -1 7.58 1.23
-7 0 -1 4.59 1.06
0 -7 1 6.04 1.09
7 0 1 6.5 1.03
0 -7 1 8.47 1.24
0 7 1 5.92 1.13
-7 0 1 6.9 0.99
-7 0 1 5.03 0.93
-7 0 1 5.94 1.11
-7 1 -1 26.02 2.05
7 -1 -1 24.79 2.05
1 7 -1 26.45 2.02
-1 -7 -1 22.5 2
-7 1 -1 23.2 1.98
1 7 1 22.87 2.04
-7 1 1 21.3 1.9
-7 1 1 23.7 1.95
-7 1 1 24.51 1.96
7 -1 1 27.81 2.11
-1 -7 1 25.99 2.08
7 -1 1 26.32 1.97
2 7 -1 69.4 4.52
-2 -7 -1 72.21 4.75
7 -2 -1 78.17 4.92
-2 -7 -1 73.43 4.61
-7 2 -1 65.18 4.66
-7 2 -1 71.89 4.64
-7 2 1 76.88 4.58
7 -2 1 79.08 4.6
-2 -7 1 75.37 4.6
7 -2 1 75.75 4.85
2 7 1 79.39 4.66
-7 2 1 83.84 4.57
-2 -7 1 67.02 4.73
-7 3 -1 253.89 14.33
-7 3 -1 264.01 14.16
-3 -7 -1 247.99 14.13
-3 -7 -1 263.2 14.83
7 -3 -1 261.64 15.05
-3 -7 1 255.04 14.09
-3 -7 1 256.82 14.86
7 -3 1 225.28 14.07
-7 3 1 235.89 14.06
-3 -7 1 237.23 14.08
-7 3 1 236.21 14.07
7 -3 1 253.82 15.02
3 7 1 237.31 14.09
7 -4 -1 77.75 5.23
-7 4 -1 77.72 4.92
-4 -7 -1 80.73 4.88
-4 -7 -1 72.28 4.83
-7 4 -1 70.92 4.85
7 -4 -1 79.9 4.79
7 -4 1 78.02 4.84
-4 -7 1 84.36 4.83
7 -4 1 72.88 5.2
-7 4 1 79.55 4.89
4 7 1 78.35 4.82
-4 -7 1 79.09 4.8
-5 -7 -1 7.88 0.88
-5 -7 -1 4 1.19
-7 5 -1 8.71 1.28
7 -5 -1 6.52 1.21
-5 -7 -1 7.64 1.3
7 -5 -1 5.96 1.55
-5 -7 -1 6.9 1.33
-7 5 -1 5.68 1.34
7 -5 1 8.06 1.36
-7 5 1 7.58 1.36
7 -5 1 9.24 1.65
-5 -7 1 8.38 1.28
5 7 1 6.79 1.23
-5 -7 1 6.01 1.16
-6 -7 -1 41.9 3.19
7 -6 -1 45.86 3.23
7 -6 -1 44.2 3.67
-6 -7 -1 43.01 3.37
-7 6 -1 47.39 3.34
-7 6 -1 44.25 3.24
-6 -7 1 44.17 3.06
-6 -7 1 40.98 3.11
-6 -7 1 41.68 3.1
-7 6 1 44.29 3.27
7 -6 1 48.82 3.7
7 -6 1 43.27 3.27
-7 -7 -1 72.71 5.09
-7 -7 -1 77.66 4.86
-7 7 -1 74.22 4.83
-7 7 -1 73.44 4.98
7 -7 -1 74.48 4.92
7 -7 -1 78.25 5.5
-7 -7 -1 73.54 4.92
7 -7 1 80.97 5
-7 -7 1 77.75 4.81
7 -7 1 72.56 5.42
-7 7 1 74.16 4.69
-7 -7 1 72.73 4.75
-7 7 1 79.29 4.99
-7 -7 1 71.37 4.76
-7 8 -1 77.01 5.1
-7 8 -1 76.8 5.21
-8 -7 -1 70.19 5.06
7 -8 -1 85.39 5.76
7 -8 -1 80.2 5.06
-8 -7 -1 74.92 5.3
-8 -7 1 74.13 4.95
-7 8 1 81.95 4.93
7 -8 1 77.02 5.19
-8 -7 1 80.99 4.95
-7 8 1 77.15 5.18
7 -8 1 73.53 5.65
-6 8 -1 77.8 5.21
-8 -6 -1 87.33 5.2
-6 8 -1 82.02 5.16
6 -8 -1 81.81 5.26
-8 -6 -1 79.73 5.17
6 -8 1 78.23 5.26
-8 -6 1 79.87 4.99
-6 8 1 76.48 5.26
-5 8 -1 4.19 1.1
-8 -5 -1 -0.67 0.46
-8 -5 -1 3.49 1.15
-8 -5 -1 0.21 1.08
5 -8 -1 1.57 1.19
5 -8 -1 0.13 0.53
-5 8 -1 0.41 1.12
5 -8 1 0.08 0.3
5 -8 1 2.26 1.25
-8 -5 1 4.03 1
-8 -5 1 2.53 0.99
-5 8 1 2.02 1.21
-8 -5 1 1.14 1.24
-5 8 1 -0.48 0.48
-4 8 -1 51.92 3.73
4 -8 -1 49.71 3.77
-8 -4 -1 55.66 3.68
-8 -4 -1 54.13 3.65
4 -8 -1 57.9 4.23
-4 8 -1 63.37 3.75
-4 8 1 46.3 3.47
-8 -4 1 56.15 3.94
-8 -4 1 53.75 3.52
4 -8 1 54.3 3.84
4 -8 1 65.8 4.29
-4 8 1 55.24 3.84
-8 -4 1 57.76 3.54
-8 -3 -1 88.17 5.61
-8 -3 -1 93.59 5.88
3 -8 -1 85.14 5.72
-3 8 -1 89.3 5.71
3 -8 -1 87.44 6.17
-3 8 -1 91.12 5.76
-8 -3 -1 87.74 5.61
3 -8 1 92.84 5.72
3 -8 1 90.77 6.19
-8 -3 1 101.89 5.53
-3 8 1 91.53 5.56
-8 -3 1 99.88 5.55
-3 8 1 97.3 5.79
-8 -3 1 97.47 5.87
-8 -2 -1 85.63 5.29
2 -8 -1 78.85 5.72
-2 8 -1 80.82 5.32
-8 -2 -1 81.84 5.45
-2 8 -1 85.88 5.38
-8 -2 -1 84.07 5.22
2 -8 -1 82.89 5.33
-8 -2 1 82.55 5.43
-8 -2 1 92.63 5.18
2 -8 1 90.99 5.76
-2 8 1 86.04 5.38
-8 -2 1 91.66 5.15
2 -8 1 86.82 5.35
8 2 1 89.12 5.25
1 -8 -1 72.44 4.75
-8 -1 -1 71.35 4.59
-1 8 -1 67.86 4.45
-8 -1 -1 70.33 4.34
-8 -1 -1 70.87 4.34
8 1 -1 68.2 4.43
1 -8 -1 72.93 4.51
-1 8 -1 69.48 4.44
1 -8 1 68.69 4.49
-1 8 1 67.13 4.43
-8 -1 1 66.03 4.47
-8 -1 1 71.39 4.25
1 -8 1 71.87 4.76
-8 -1 1 72.63 4.25
8 1 1 61.78 4.35
8 0 -1 41.99 2.91
-8 0 -1 39.56 3.02
-8 0 -1 34.62 2.8
-8 0 -1 40.89 2.82
0 8 -1 38.32 2.86
0 -8 -1 39.72 2.99
0 -8 -1 45.66 3.16
-8 0 1 43.91 2.77
-8 0 1 39.92 2.73
8 0 1 37.78 2.84
-8 0 1 38.18 2.87
0 8 1 38.52 2.84
0 -8 1 41.89 3.07
0 -8 1 39.08 2.94
8 -1 -1 2.17 1.07
-8 1 -1 3.38 1.06
-1 -8 -1 4.11 1.1
1 8 -1 5.16 1.14
-8 1 -1 4.87 1.14
-1 -8 -1 4.47 1.13
-8 1 1 3.57 1.03
8 -1 1 3.52 1.06
-1 -8 1 3.57 1.17
-8 1 1 3.64 1.03
-1 -8 1 4.98 1.16
1 8 1 4.72 1.16
-8 1 1 5.24 0.98
-8 2 -1 21.36 1.94
-8 2 -1 19.29 1.87
-2 -8 -1 17.8 1.92
8 -2 -1 20.1 1.98
2 8 -1 19.83 1.83
-8 2 1 18.19 1.79
2 8 1 19.01 1.89
-2 -8 1 20.41 1.91
8 -2 1 23.7 2.03
-8 2 1 19.76 1.77
-8 2 1 21.16 1.83
-2 -8 1 16.25 1.85
8 -2 1 17.38 1.78
-8 3 -1 20.28 2.07
-3 -8 -1 26.48 1.96
8 -3 -1 22.04 2.24
-3 -8 -1 21.64 2.1
-8 3 -1 24.92 2.1
-3 -8 1 20.28 2
8 -3 1 19.14 1.95
-8 3 1 21.2 1.98
8 -3 1 23.85 2.27
3 8 1 20.59 2.01
-8 3 1 22.88 1.98
-8 3 1 24.44 2.02
8 -4 -1 31.75 3.06
-8 4 -1 36.83 2.83
-4 -8 -1 36.17 2.62
-8 4 -1 32.76 2.83
-4 -8 -1 35.66 2.88
-4 -8 1 39.16 2.74
4 8 1 37.52 2.78
-4 -8 1 33.55 2.74
-8 4 1 37.23 2.81
8 -4 1 37.74 3.09
8 -4 1 40.57 2.9
-8 4 1 38.81 2.71
8 -5 -1 6.68 1.69
8 -5 -1 9.43 1.42
-8 5 -1 7.46 1.38
-5 -8 -1 7.42 1.44
-5 -8 -1 7.64 1.01
-8 5 -1 5.74 1.49
-8 5 1 6.33 1.2
-5 -8 1 7.77 1.31
5 8 1 6.09 1.28
-5 -8 1 9.81 1.42
8 -5 1 7.2 1.39
8 -5 1 7 1.71
-8 5 1 9.05 1.47
-6 -8 -1 21.73 2.22
-6 -8 -1 22.51 2.27
-8 6 -1 21.7 2.32
-8 6 -1 23.9 2.14
8 -6 -1 27.96 2.3
-6 -8 -1 28.01 2.44
8 -6 -1 28.18 2.8
-8 6 1 18.55 1.93
8 -6 1 21.71 2.25
-6 -8 1 21.53 2.12
-8 6 1 20.36 2.29
-6 -8 1 20.35 2.08
8 -6 1 23.03 2.64
8 -7 -1 36.91 3.24
8 -7 -1 37.92 3.8
-8 7 -1 39.33 3.15
-7 -8 -1 39.52 3.2
-7 -8 -1 37.31 3.24
-8 7 -1 39.93 3.25
-7 -8 -1 44.41 3.52
8 -7 1 44.2 3.24
-7 -8 1 46.37 3.13
-8 7 1 42.02 3.1
-7 -8 1 51.19 3.35
-8 7 1 45.98 3.44
-7 -8 1 44.53 3.31
8 -7 1 41.97 3.79
-8 8 -1 29.55 3.09
-8 -8 -1 32.22 2.99
-8 -8 -1 30.91 3.18
-8 8 -1 33.15 2.9
8 -8 -1 29.48 3.39
8 -8 1 38.32 3.18
-8 8 1 39.47 3.18
-8 -8 1 40.02 3.04
8 -8 1 44.64 3.82
-8 -8 1 39.24 2.98
-8 8 1 34.67 2.79
-8 9 -1 6.37 1.78
-8 9 -1 8.61 1.58
-9 -8 -1 6.77 1.83
-9 -8 -1 8.75 1.8
8 -9 -1 6.34 2.17
8 -9 1 7.27 1.75
-8 9 1 7.94 1.88
-9 -8 1 10.04 1.65
8 -9 1 6.52 2.18
-9 -8 1 11.43 1.7
-8 9 1 9.88 1.43
-7 9 -1 22.19 2.25
-9 -7 -1 20.24 2.37
7 -9 -1 22.48 2.87
-7 9 -1 23.01 2.58
-9 -7 -1 22.04 2.37
7 -9 -1 26.32 2.52
7 -9 1 24.65 2.93
7 -9 1 22.3 2.45
-9 -7 1 22.19 2.23
-9 -7 1 24.44 2.5
-7 9 1 19.64 2.36
-7 9 1 19.62 2.01
-6 9 -1 46.14 3.25
-9 -6 -1 45.8 3.4
6 -9 -1 46.22 3.52
-6 9 -1 46.9 3.43
-9 -6 1 44.76 3.48
6 -9 1 41.44 3.35
-6 9 1 42.14 3.1
-9 -6 1 37.49 3.11
-6 9 1 43.89 3.51
-9 -6 1 46.49 3.2
-5 9 -1 3.25 1.27
-9 -5 -1 4.91 1.25
-5 9 -1 7.43 1.67
-9 -5 -1 4.71 1.38
5 -9 -1 5.8 1.76
5 -9 -1 8.06 1.54
-9 -5 1 4.22 1.49
-9 -5 1 0.83 0.62
5 -9 1 4.21 1.42
-9 -5 1 2.09 1.07
-5 9 1 6.01 1.6
-5 9 1 6.19 1.17
-9 -4 -1 61.88 4.44
-4 9 -1 69.86 4.62
9 4 -1 70.41 4.17
4 -9 -1 67.4 4.57
-4 9 -1 68.52 4.51
4 -9 -1 78.5 5.07
-9 -4 -1 70.45 4.45
4 -9 1 70.33 4.89
-4 9 1 64.15 4.51
-9 -4 1 68.34 4.29
-9 -4 1 65.37 4.68
-4 9 1 62.27 4.25
4 -9 1 62.21 4.57
-3 9 -1 226.66 13.46
-3 9 -1 244.6 13.6
-9 -3 -1 239.79 13.37
-9 -3 -1 228.36 13.74
3 -9 -1 235.89 14.41
9 3 -1 242.79 13.89
-9 -3 -1 237.63 13.38
3 -9 -1 235.65 13.47
-9 -3 1 237.85 13.74
-3 9 1 219.78 13.47
-9 -3 1 236.81 13.26
3 -9 1 230.06 13.5
-3 9 1 224.73 13.45
3 -9 1 224.35 14.33
-9 -2 -1 143.82 7.84
2 -9 -1 140.28 8.02
-2 9 -1 133.57 7.99
9 2 -1 134.56 8.07
2 -9 -1 123.08 8.42
-2 9 -1 132.63 7.99
-9 -2 -1 125.28 7.84
-9 -2 -1 135.07 8.15
-9 -2 1 133.83 7.75
2 -9 1 127.36 7.98
9 2 1 130.94 7.99
-2 9 1 133.2 7.99
-9 -2 1 133.74 8.1
-2 9 1 138.22 7.89
-9 -2 1 126.48 7.74
2 -9 1 130.11 8.46
-9 -1 -1 38.6 3.32
-9 -1 -1 48.85 3.17
-1 9 -1 42.8 3.21
-9 -1 -1 46.49 3.17
-1 9 -1 41.49 3.21
1 -9 -1 39.08 3.43
1 -9 -1 44.2 3.3
9 1 -1 39.58 3.05
-9 -1 1 48.56 3.04
1 -9 1 46.99 3.32
-1 9 1 45.46 3.26
1 -9 1 43.13 3.45
-9 -1 1 48.42 3.31
9 1 1 43.18 3.06
-9 -1 1 46.34 3.05
9 0 -1 0.63 0.98
-9 0 -1 -0.21 1.02
-9 0 -1 0.04 1.09
0 -9 -1 0.74 1.11
-9 0 -1 0.55 0.94
0 -9 -1 2.12 1.24
0 9 -1 0.18 1.04
0 -9 1 -0.05 1.18
-9 0 1 0.39 0.87
0 9 1 -0.34 1.04
0 -9 1 0.05 1.1
-9 0 1 1.76 1.07
9 0 1 0.49 0.96
-9 0 1 0.07 0.96
1 9 -1 42.64 3.25
9 -1 -1 47.69 3.37
-1 -9 -1 46.75 3.39
-1 -9 -1 47.11 3.4
-9 1 -1 47.22 3.28
-9 1 -1 43.54 3.4
-1 -9 1 46.53 3.36
1 9 1 41.7 3.19
9 -1 1 48.73 3.37
-9 1 1 42.54 3.17
-9 1 1 48.55 3.41
-9 1 1 43.53 3.16
-1 -9 1 47.3 3.41
-9 2 -1 80.15 5.21
-9 2 -1 83.66 5.28
-2 -9 -1 85.23 5.23
9 -2 -1 90.87 5.54
2 9 -1 79.4 5.14
-2 -9 -1 83.3 5.39
-9 2 1 80.21 5.26
9 -2 1 81.87 5.47
-2 -9 1 80.51 5.29
-9 2 1 80.36 5.14
2 9 1 86.23 5.25
-2 -9 1 83.51 5.41
9 -2 1 73.01 5.08
-9 2 1 84.15 5.13
-9 3 -1 31.72 2.81
-9 3 -1 35.05 2.83
-3 -9 -1 28.07 2.71
-3 -9 -1 37.73 2.66
9 -3 -1 31.7 2.93
-3 -9 1 28.99 2.62
-9 3 1 31.55 2.71
-9 3 1 39.82 2.71
-9 3 1 34.2 2.64
9 -3 1 32.05 2.9
3 9 1 36.7 2.78
-3 -9 1 34.76 2.81
9 -3 1 34.36 2.78
-4 -9 -1 13.63 1.84
-4 -9 -1 10.48 1.34
9 -4 -1 14.76 2.07
-9 4 -1 14.26 1.69
-9 4 -1 12.66 1.78
9 -4 1 16.08 2.07
-9 4 1 11.79 1.68
9 -4 1 12.87 1.68
-9 4 1 13.74 1.59
-4 -9 1 14.25 1.73
4 9 1 13.19 1.7
-5 -9 -1 17.78 1.58
-9 5 -1 17.4 1.93
-5 -9 -1 13.23 1.94
-9 5 -1 15.44 2.02
9 -5 -1 15.21 2.25
9 -5 1 19.31 2.34
-5 -9 1 15.77 1.87
-9 5 1 17.69 2.03
9 -5 1 17.09 1.94
-9 5 1 15.67 1.76
5 9 1 17.05 1.9
9 -6 -1 1.28 1.7
-9 6 -1 1.12 1.45
-6 -9 -1 1.69 1.37
-9 6 -1 0.37 1.16
9 -6 1 2.66 1.32
9 -6 1 4.46 1.79
-6 -9 1 0.9 1.3
-9 6 1 -0.14 1.06
-9 6 1 0.06 1.35
-7 -9 -1 3 1.51
9 -7 -1 3.07 1.97
-7 -9 -1 3.91 1.52
-9 7 -1 4.63 1.63
-9 7 -1 3.41 1.33
-9 7 1 5.45 1.25
9 -7 1 5.32 2.05
-7 -9 1 3.73 1.36
-9 7 1 3.43 1.57
9 -8 -1 5.14 1.89
-8 -9 -1 5.1 1.5
-8 -9 -1 2.09 1.45
-8 -9 -1 3.43 1.49
-9 8 -1 3.73 1.65
-9 8 -1 2.67 1.34
-9 8 1 2.66 1.63
-8 -9 1 4.66 1.49
-9 8 1 4.7 1.21
9 -8 1 5.98 2.13
9 -9 -1 0.04 1.89
-9 9 -1 1.43 1.31
-9 9 -1 4.41 1.55
-9 -9 -1 1.53 1.52
-9 -9 -1 1.32 1.39
-9 -9 -1 1.22 1.38
-9 9 1 2.63 1.67
-9 -9 1 1.48 1.37
-9 9 1 0.98 1.07
9 -9 1 5.36 2.02
-9 -9 1 3.46 1.39
-9 10 -1 12.43 2.24
-10 -9 -1 10.95 2.12
-9 10 -1 17.24 2.04
-10 -9 -1 15.05 2.1
9 -10 -1 16.88 2.67
-10 -9 1 13.1 1.99
-9 10 1 17.99 1.83
-9 10 1 16.21 2.25
9 -10 1 17.21 2.6
-10 -9 1 15.23 2.02
-10 -8 -1 2.24 1.49
8 -10 -1 2.8 1.98
-8 10 -1 3.51 1.53
-10 -8 -1 3.13 1.53
-8 10 -1 1.22 1.3
-8 10 1 2.38 1.66
8 -10 1 3.1 2.01
-10 -8 1 3.29 1.52
-10 -8 1 3.04 1.41
-8 10 1 2.57 1.18
-7 10 -1 -0.49 1.48
-10 -7 -1 -0.87 1.22
7 -10 -1 1.68 1.8
-10 -7 -1 -0.86 1.33
-7 10 -1 -0.87 1.22
-7 10 1 0.13 1.51
-10 -7 1 -2.08 1.22
7 -10 1 -0.99 1.23
7 -10 1 -0.22 1.75
-7 10 1 -0.12 1.1
-10 -7 1 -0.41 1.33
-10 -6 -1 4.85 1.53
-6 10 -1 2.21 1.36
6 -10 -1 1.58 1.87
6 -10 -1 1.23 1.46
-10 -6 -1 1.69 1.42
-6 10 -1 4.54 1.65
6 -10 1 2.82 1.55
-6 10 1 2.81 1.21
-6 10 1 3.65 1.64
-10 -6 1 4.43 1.61
-10 -6 1 3.33 1.32
6 -10 1 0.98 1.62
5 -10 -1 -0.11 1.34
-10 -5 -1 0.16 1.2
5 -10 -1 3.13 1.86
-5 10 -1 1.91 1.5
-5 10 -1 1.37 1.25
-10 -5 -1 0.86 1.36
5 -10 1 -1.22 1.7
5 -10 1 3.35 1.42
-10 -5 1 0.85 1.12
-10 -5 1 0.71 1.05
-10 -5 1 1.42 1.4
-5 10 1 2.68 1.55
-5 10 1 -0.03 1.05
-10 -4 -1 24.08 2.51
-10 -4 -1 28.57 2.8
4 -10 -1 32.3 3.07
-4 10 -1 29.27 2.56
4 -10 -1 33.06 2.81
10 4 -1 30.31 2.04
-4 10 -1 33.89 2.87
-10 -4 1 24.57 2.33
-4 10 1 26.1 2.36
-4 10 1 26.29 2.74
-10 -4 1 31.58 2.85
4 -10 1 28 2.75
4 -10 1 28.7 2.99
-10 -3 -1 88.26 5.77
3 -10 -1 84.36 5.98
3 -10 -1 95.04 5.71
-3 10 -1 84.49 5.53
10 3 -1 84.32 5.37
-3 10 -1 81.92 5.54
-10 -3 -1 87.27 5.5
3 -10 1 92.82 5.67
-3 10 1 90.07 5.45
-10 -3 1 84.62 5.7
3 -10 1 82.23 5.94
-3 10 1 87.02 5.57
-10 -3 1 85 5.31
-10 -2 -1 25.6 2.4
-2 10 -1 26.32 2.4
-10 -2 -1 25.05 2.58
-10 -2 -1 28.21 2.34
10 2 -1 26.06 2.15
-2 10 -1 31.31 2.67
2 -10 -1 29.15 2.61
2 -10 -1 22.87 2.67
-10 -2 1 25.59 2.16
-10 -2 1 24.81 2.52
2 -10 1 24.83 2.73
2 -10 1 18.9 2.29
-2 10 1 24.58 2.45
10 2 1 24.96 2.02
-2 10 1 26.7 2.26
-10 -1 -1 3.07 1.24
-1 10 -1 1.7 1.34
-10 -1 -1 2.9 1.44
-1 10 -1 1.7 1.24
10 1 -1 3.32 1.09
1 -10 -1 4 1.59
-10 -1 -1 2.16 1.25
1 -10 -1 2.46 1.27
-10 -1 1 3.7 1.35
10 1 1 3.87 1.07
-10 -1 1 6.01 1.15
-1 10 1 3.4 1.38
1 -10 1 0.84 1.31
-10 -1 1 -0.57 0.9
1 -10 1 6.19 1.62
0 -10 -1 32.34 2.76
-10 0 -1 29.67 2.7
0 10 -1 30.11 2.61
10 0 -1 31.25 2.58
0 -10 -1 25.73 2.62
-10 0 -1 31 2.5
-10 0 -1 29.35 2.54
10 0 1 31.88 2.57
0 -10 1 30.23 2.72
-10 0 1 26.38 2.55
-10 0 1 27.97 2.44
0 -10 1 22.02 2.53
-10 0 1 27.36 2.35
0 10 1 25.48 2.56
-10 1 -1 42.48 3.35
-1 -10 -1 42.71 3.29
10 -1 -1 42.24 3.4
-1 -10 -1 40.04 3.35
-10 1 -1 49.94 3.51
1 10 -1 44.42 3.3
1 10 1 45.38 3.35
10 -1 1 38.63 3.33
-10 1 1 45.71 3.21
-1 -10 1 40.21 3.44
-10 1 1 46.89 3.12
-1 -10 1 46.68 3.39
-10 1 1 43.3 3.26
2 10 -1 60.67 3.94
-2 -10 -1 56.42 4.05
-2 -10 -1 55.27 3.99
10 -2 -1 56.25 4.12
-10 2 -1 48.16 3.98
-10 2 -1 54.63 3.94
2 10 1 58.21 4
-10 2 1 60.36 3.86
-10 2 1 58.56 3.95
10 -2 1 58.71 4.18
-2 -10 1 54.15 4.04
-10 2 1 62.21 3.97
-2 -10 1 50.03 3.96
-10 3 -1 33.42 2.98
10 -3 -1 41.39 3.36
-3 -10 -1 39.24 3.18
-3 -10 -1 34.23 2.82
-10 3 -1 36.4 3.13
-3 -10 1 36.59 3.02
-3 -10 1 32.45 2.83
10 -3 1 36.94 3.31
-10 3 1 35.71 2.96
3 10 1 39.69 3
-10 3 1 34.36 2.91
-4 -10 -1 3.95 1.54
-10 4 -1 1.34 1.53
-4 -10 -1 6.73 1.29
-10 4 -1 2.73 1.35
10 -4 -1 3.69 1.72
-4 -10 1 2.46 1.33
10 -4 1 6.57 1.81
-10 4 1 6.1 1.4
-4 -10 1 6.31 1.25
-10 4 1 5.58 1.49
10 -5 -1 25.92 2.87
-10 5 -1 23.85 2.39
-10 5 -1 21.08 2.44
-5 -10 -1 23.6 2.52
10 -5 1 24.46 2.82
-10 5 1 27.75 2.34
-10 5 1 29.19 2.6
-5 -10 1 23.06 2.44
-10 6 -1 8.33 1.63
10 -6 -1 10.65 2.25
-6 -10 -1 12.27 1.89
-10 6 -1 12.8 1.97
-10 6 1 9 1.52
-6 -10 1 9.1 1.71
10 -6 1 9.85 2.2
-10 6 1 15.27 1.97
-10 7 -1 2.81 1.58
-7 -10 -1 6.43 1.63
10 -7 -1 2.79 1.91
-10 7 -1 2.74 1.31
-10 7 1 6.15 1.73
10 -7 1 4.24 2.01
-10 7 1 6.18 1.34
-7 -10 1 2.85 1.51
10 -8 -1 0.99 1.83
-10 8 -1 2.36 1.61
-10 8 -1 -0.74 1.29
-8 -10 -1 -1.49 1.41
-8 -10 1 -0.8 1.36
10 -8 1 2.02 1.84
-10 8 1 1.36 1.48
-10 8 1 -1.48 1.05
10 -9 -1 7.34 2.23
-10 9 -1 4.63 1.79
-10 9 -1 4.45 1.49
-9 -10 -1 4.69 1.61
-9 -10 -1 6.32 1.76
-10 9 1 3.55 1.32
10 -9 1 7.42 2.07
-9 -10 1 4.82 1.58
-10 9 1 5.04 1.79
-10 -10 -1 2.05 1.56
10 -10 -1 4.92 2.22
-10 10 -1 3.35 1.48
-10 -10 -1 3.78 1.63
-10 10 -1 3.31 1.84
-10 10 1 1.51 1.28
10 -10 1 1.45 2.08
-10 -10 1 3.86 1.61
-10 10 1 2.68 1.79
10 -11 -1 5.52 2.25
-10 11 -1 7.56 2.12
-10 11 -1 7.75 1.66
-11 -10 -1 3.21 1.77
-11 -10 -1 4.97 2.02
-11 -10 -1 6.88 1.88
-11 -10 1 4.49 1.69
-11 -10 1 3.36 1.74
10 -11 1 3.3 2.34
-10 11 1 7.08 2.13
-9 11 -1 8.29 2.15
-9 11 -1 8.57 1.73
-11 -9 -1 8.71 1.97
-11 -9 -1 9.11 1.95
9 -11 -1 11.22 2.62
9 -11 1 8.15 2.53
-11 -9 1 9.28 1.83
-9 11 1 5.59 2.05
-11 -9 1 9.8 1.85
-8 11 -1 11.38 1.8
-11 -8 -1 11.88 2.18
8 -11 -1 9.91 2.4
-8 11 -1 8.71 2.11
-11 -8 -1 12.59 1.93
-8 11 1 12.1 1.68
8 -11 1 12.71 2.37
-8 11 1 12.66 2.18
-11 -8 1 12.1 2.12
-11 -8 1 7.74 1.75
-11 -7 -1 3.01 1.59
-7 11 -1 8.36 1.82
-11 -7 -1 7.81 1.69
-7 11 -1 7.67 1.58
7 -11 -1 9.89 2.22
7 -11 1 4.76 2.06
-7 11 1 8.5 1.46
-11 -7 1 6.3 1.53
7 -11 1 6.99 1.78
-11 -7 1 9.84 1.92
-7 11 1 4.61 1.77
-11 -6 -1 2.79 1.49
-6 11 -1 3.02 1.36
-6 11 -1 2.47 1.59
6 -11 -1 4.05 1.82
6 -11 -1 2.06 1.51
-11 -6 -1 4.15 1.45
-6 11 1 2.34 1.19
-11 -6 1 1.4 1.52
6 -11 1 3.57 1.77
6 -11 1 1.56 1.41
-6 11 1 3.37 1.66
-11 -6 1 1.31 1.23
-5 11 -1 1.74 1.52
-11 -5 -1 3.66 1.47
-5 11 -1 1.25 1.32
5 -11 -1 0.88 1.44
-11 -5 -1 4.13 1.39
5 -11 -1 2.28 1.74
-11 -5 1 2.12 1.35
-5 11 1 2.31 1.49
-5 11 1 2.27 1.11
-11 -5 1 3.62 1.32
5 -11 1 -0.27 1.48
5 -11 1 1.01 1.87
4 -11 -1 7.2 2.09
-11 -4 -1 6.39 1.58
-11 -4 -1 8.15 1.8
-4 11 -1 8.33 1.57
-4 11 -1 3.41 1.64
4 -11 -1 5.64 1.7
-4 11 1 5.35 1.77
-11 -4 1 4.59 1.68
4 -11 1 8.55 1.99
-4 11 1 9.09 1.45
4 -11 1 7.02 1.74
-11 -4 1 6.42 1.42
-3 11 -1 17.91 2.13
11 3 -1 17.92 1.63
-11 -3 -1 19.61 2.38
3 -11 -1 16.3 2.51
-11 -3 -1 18.23 2.1
-3 11 -1 21.22 2.39
3 -11 -1 16.67 2.25
-3 11 1 20.2 1.99
-11 -3 1 18.82 2.3
-11 -3 1 21.85 2.08
3 -11 1 16.73 2.23
-3 11 1 15.94 2.16
3 -11 1 15.89 2.4
-11 -2 -1 1.91 1.47
2 -11 -1 1.14 1.68
-2 11 -1 2.6 1.36
-2 11 -1 0.65 1.32
-11 -2 -1 1.66 1.43
11 2 -1 0 1.02
2 -11 -1 1.51 1.48
2 -11 1 -1.32 1.39
11 2 1 0.24 0.87
-11 -2 1 1.6 1.22
-2 11 1 2.9 1.52
2 -11 1 0.48 1.64
-11 -2 1 2.82 1.45
-2 11 1 1.86 1.23
-1 11 -1 14.02 1.91
-11 -1 -1 16.66 1.93
-1 11 -1 9.46 1.87
11 1 -1 15.64 1.72
-11 -1 -1 14.54 2.03
1 -11 -1 11.87 2.13
1 -11 -1 12.96 1.99
11 1 1 16.91 1.63
1 -11 1 15.82 2.19
-11 -1 1 13.52 1.96
-1 11 1 11.14 2.01
-11 -1 1 13.86 1.81
1 -11 1 12.8 1.97
-1 11 1 14.27 1.8
11 0 -1 9.97 1.59
0 -11 -1 7.59 1.83
0 11 -1 10.69 1.74
0 -11 -1 8.89 1.72
-11 0 -1 7.15 1.67
-11 0 -1 9.76 1.8
-11 0 1 8.79 1.67
0 -11 1 11.34 1.86
11 0 1 8.43 1.52
0 -11 1 10.3 1.77
-11 0 1 10.06 1.62
0 11 1 8.88 1.75
11 -1 -1 29.38 2.65
-11 1 -1 25.53 2.6
-1 -11 -1 25.62 2.71
-11 1 -1 27.41 2.61
-1 -11 -1 25.95 2.69
-11 1 1 22.96 2.43
11 -1 1 31.06 2.58
-11 1 1 31.19 2.59
1 11 1 28.37 2.68
-1 -11 1 25.28 2.64
-1 -11 1 26.41 2.72
-2 -11 -1 26.75 2.69
-11 2 -1 28.49 2.76
11 -2 -1 29.25 2.85
-2 -11 -1 27.56 2.81
-11 2 -1 27.68 2.77
-11 2 1 31.13 2.71
-2 -11 1 32.84 2.93
-2 -11 1 26.87 2.69
2 11 1 34.32 2.85
11 -2 1 32.55 2.85
-11 2 1 32.45 2.7
-11 3 -1 28.06 2.7
11 -3 -1 29.55 2.88
-3 -11 -1 26.54 2.66
-11 3 -1 28.6 2.69
-3 -11 -1 31.42 2.55
-3 -11 1 26.75 2.56
-3 -11 1 25.39 2.69
11 -3 1 25.87 2.81
-11 3 1 27.35 2.59
-11 3 1 29.78 2.7
-11 4 -1 1.54 1.3
11 -4 -1 0.53 1.65
-4 -11 -1 2.36 1.44
-11 4 -1 3.23 1.63
-4 -11 -1 0.77 1.21
-4 -11 1 1 1.25
11 -4 1 2.26 1.73
-11 4 1 1.03 1.32
-4 -11 1 2.9 1.49
-11 4 1 5.4 1.59
-11 5 -1 7.81 1.92
-11 5 -1 9.21 1.74
11 -5 -1 12.44 2.16
-5 -11 -1 10.26 1.92
-5 -11 -1 10.64 1.46
-5 -11 1 9.04 1.82
-11 5 1 10.61 1.91
-11 5 1 10.51 1.63
11 -5 1 12.44 2.18
-11 6 -1 17.29 2.15
11 -6 -1 22.4 2.76
-11 6 -1 16.47 2.33
-6 -11 -1 17.37 2.33
-11 6 1 21.36 2.4
11 -6 1 23.11 2.82
-11 6 1 23.12 2.16
-6 -11 1 17.47 2.24
-11 7 -1 19.13 2.2
-7 -11 -1 17.89 2.34
11 -7 -1 14.36 2.55
-11 7 -1 15.17 2.3
-11 7 1 17.79 1.98
-11 7 1 18.91 2.37
-7 -11 1 22.43 2.36
11 -7 1 16.97 2.59
-8 -11 -1 4.43 1.69
-11 8 -1 3.88 1.47
11 -8 -1 3.94 2.05
-11 8 -1 3.06 1.72
-11 8 1 3.55 1.29
11 -8 1 3.99 1.96
-8 -11 1 1.62 1.49
-11 8 1 2.08 1.66
-11 9 -1 1.3 1.68
11 -9 -1 4.65 2.16
-9 -11 -1 2.38 1.62
-11 9 -1 2.94 1.44
-11 9 1 2.44 1.29
-11 9 1 2.94 1.77
-9 -11 1 1.97 1.48
11 -9 1 0.37 1.98
11 -10 -1 -2.01 2.02
-10 -11 -1 2.18 1.65
-11 10 -1 1.99 1.49
-11 10 -1 0.05 1.72
-10 -11 1 1.31 1.58
-11 10 1 1.57 1.82
11 -10 1 2.57 2.19
-11 11 -1 3.92 1.58
11 -11 -1 6.01 2.46
-11 -11 -1 5.54 1.93
-11 11 -1 5.8 2.13
-11 -11 -1 2.56 1.8
-11 11 1 4.97 2.04
11 -11 1 4.76 2.22
-11 -11 1 2.9 1.69
-11 12 -1 -0.46 1.96
-12 -11 -1 -1.39 1.71
11 -12 -1 2.41 2.28
-12 -11 -1 -1.62 1.71
11 -12 1 0.15 2.34
-11 12 1 1.21 1.93
-12 -11 1 -2.04 1.63
-12 -10 -1 4.59 1.99
-12 -10 -1 6.1 1.84
10 -12 -1 4.95 2.51
-10 12 -1 3.42 1.9
-10 12 -1 2.14 1.6
-12 -10 -1 3.49 1.73
-10 12 1 0.38 1.94
10 -12 1 10.69 2.65
-12 -10 1 2.65 1.69
-12 -10 1 5.83 1.79
9 -12 -1 18.62 2.95
-9 12 -1 18.76 2.73
-9 12 -1 20.21 2.27
-12 -9 -1 19.48 2.75
-12 -9 -1 12.87 2.31
-12 -9 1 16.95 2.34
-9 12 1 13.8 2.58
9 -12 1 17.55 2.99
-12 -8 -1 12.07 2.31
-8 12 -1 12.83 2.31
-8 12 -1 18.24 2.18
-12 -8 -1 14.54 2.24
8 -12 -1 15.72 2.68
-12 -8 1 17.31 2.46
-12 -8 1 16.14 2.14
-8 12 1 15.17 2.47
8 -12 1 14.7 2.76
-12 -7 -1 5.34 1.75
-12 -7 -1 6.09 1.71
-7 12 -1 4.88 1.64
-7 12 -1 5.77 1.96
7 -12 -1 5.03 2.15
-7 12 1 8.32 2.04
-12 -7 1 4.43 1.72
-7 12 1 5.17 1.4
-12 -7 1 4.13 1.48
7 -12 1 7.83 2.25
-12 -6 -1 -0.6 1.33
-6 12 -1 0.33 1.31
-12 -6 -1 -0.1 1.48
-6 12 -1 0.37 1.46
6 -12 -1 1.78 1.8
-12 -6 1 0.44 1.41
-12 -6 1 0.03 1.23
6 -12 1 1.11 1.42
-6 12 1 -0.47 1.15
6 -12 1 -0.6 1.65
-6 12 1 1.78 1.7
-5 12 -1 4.04 1.78
-5 12 -1 3.37 1.47
5 -12 -1 3.68 2.01
5 -12 -1 5.02 1.73
-12 -5 -1 5.28 1.57
-12 -5 -1 4.51 1.7
-12 -5 1 4.2 1.64
-5 12 1 3.63 1.77
5 -12 1 4.37 2.01
5 -12 1 7.76 1.81
-12 -5 1 3.24 1.32
-5 12 1 5.32 1.34
-4 12 -1 8.08 1.85
4 -12 -1 5.42 1.7
-4 12 -1 6.5 1.54
4 -12 -1 6.46 1.93
-12 -4 -1 7.1 1.65
-12 -4 -1 5.07 1.7
-12 -4 1 4.23 1.44
-12 -4 1 5.01 1.71
-4 12 1 5.03 1.3
-4 12 1 7.23 1.85
4 -12 1 3.77 1.82
4 -12 1 4.75 1.71
3 -12 -1 7.98 1.75
3 -12 -1 9.47 2.15
-12 -3 -1 8.97 1.9
-3 12 -1 10.16 1.92
-12 -3 -1 8.74 1.75
-3 12 -1 9.58 1.73
3 -12 1 9.11 2.1
-3 12 1 7.56 1.57
-12 -3 1 6.23 1.56
3 -12 1 8.83 1.87
-3 12 1 4.84 1.76
-12 -3 1 7.34 1.79
2 -12 -1 11.58 2.09
-2 12 -1 16.09 2
-12 -2 -1 11.24 1.85
-12 -2 -1 10.41 2.07
12 2 -1 14.43 1.59
2 -12 -1 12.78 2.3
2 -12 1 15.42 2.18
-12 -2 1 17.08 1.97
-2 12 1 15.04 1.83
2 -12 1 14.16 2.29
-2 12 1 19.18 2.3
-12 -2 1 14.17 2.02
-12 -1 -1 2.93 1.45
1 -12 -1 2.15 1.68
12 1 -1 5.71 1.31
-1 12 -1 3.88 1.53
1 -12 -1 2.16 1.56
-12 -1 -1 1.62 1.46
-1 12 1 2.51 1.54
-12 -1 1 3.29 1.33
12 1 1 1.79 1.1
1 -12 1 3.15 1.56
-12 -1 1 2.68 1.44
1 -12 1 2.12 1.65
-1 12 1 3.08 1.39
0 -12 -1 2.98 1.58
12 0 -1 1.86 1.32
-12 0 -1 2.11 1.4
0 -12 -1 0.58 1.5
-12 0 -1 2.53 1.53
0 12 1 -0.04 1.41
-12 0 1 1.38 1.32
0 -12 1 5.13 1.65
12 0 1 5.47 1.33
-12 0 1 2.03 1.4
0 -12 1 0.1 1.45
-1 -12 -1 8.59 1.92
-12 1 -1 12.08 1.93
-1 -12 -1 12.47 1.97
-12 1 -1 7.29 1.72
12 -1 -1 9.69 1.82
-12 1 1 11.62 1.82
-1 -12 1 12.08 1.94
-12 1 1 11.02 1.77
12 -1 1 13.58 1.86
-1 -12 1 11.43 2
-2 -12 -1 13.61 1.92
12 -2 -1 12.19 1.98
-12 2 -1 11.44 1.97
-12 2 -1 11.08 1.91
-2 -12 -1 11.64 2.01
-12 2 1 16.51 1.98
-2 -12 1 9.86 1.87
12 -2 1 13.09 1.93
-12 2 1 13.29 1.88
-2 -12 1 12.19 2.01
12 -3 -1 19.71 2.46
-12 3 -1 13.67 2.18
-3 -12 -1 21.11 2.24
-12 3 -1 17.54 2.29
-3 -12 -1 20.05 2.42
-12 3 1 21.8 2.31
-3 -12 1 21.42 2.18
-3 -12 1 18.45 2.31
-12 3 1 21.9 2.3
12 -3 1 17.55 2.34
-12 4 -1 3.15 1.51
-4 -12 -1 4.35 1.38
12 -4 -1 6.76 1.91
-4 -12 -1 7.82 1.71
-12 4 -1 2.35 1.61
-12 4 1 9.86 1.67
12 -4 1 8.01 1.9
-4 -12 1 5.4 1.72
-12 4 1 7.25 1.68
-4 -12 1 8.04 1.43
12 -5 -1 10.38 2.09
-12 5 -1 6.46 1.67
-12 5 -1 9.77 2.02
-5 -12 -1 8.23 1.92
-5 -12 -1 9.15 1.42
-12 5 1 7.55 1.81
-5 -12 1 9.49 1.84
12 -5 1 8.13 2.09
-12 5 1 7.86 1.64
-12 6 -1 19.72 2.61
-12 6 -1 19.68 2.34
-6 -12 -1 24.33 2.65
12 -6 -1 21.95 2.86
-6 -12 1 23.58 2.53
-12 6 1 21.71 2.34
12 -6 1 22.2 2.85
-12 6 1 22.29 2.57
12 -7 -1 22.68 2.93
-12 7 -1 17.72 2.45
-12 7 -1 20.13 2.3
-7 -12 -1 17.48 2.44
-12 7 1 17.82 2.14
-12 7 1 16.32 2.49
-7 -12 1 22.38 2.47
12 -7 1 16.5 2.74
-12 8 -1 4.51 1.65
-8 -12 -1 5.96 1.97
12 -8 -1 7.57 2.32
-12 8 -1 6.81 1.99
-12 8 1 7.41 1.58
-8 -12 1 9.34 1.84
12 -8 1 3.23 2.17
-12 8 1 5.74 1.92
-12 9 -1 -0.62 1.45
-9 -12 -1 -0.95 1.53
-12 9 -1 0.1 1.75
12 -9 -1 -0.15 2.09
-12 9 1 4.91 1.89
-9 -12 1 -0.71 1.56
12 -9 1 0.61 2.11
-12 10 -1 -1.48 1.5
-10 -12 -1 3.79 1.87
12 -10 -1 3.12 2.32
-12 10 -1 3.4 1.98
-10 -12 1 1.66 1.73
-12 10 1 -0.39 1.79
12 -10 1 0.89 2.24
12 -11 -1 5.23 2.39
-11 -12 -1 9.39 2.19
-12 11 -1 7.31 2.21
-11 -12 1 9.9 2.17
12 -11 1 9.17 2.69
-12 11 1 11.87 2.46
-12 -12 -1 2.8 1.98
-12 12 -1 0.56 2.01
12 -12 -1 4.19 2.46
-12 12 1 -1.11 1.99
-12 -12 1 0.52 1.76
12 -12 1 -1.52 2.13
12 -13 -1 0.88 2.3
-13 -12 -1 1.16 1.95
-12 13 -1 -4.08 2.1
-12 13 1 1.18 2.23
-13 -12 1 -1.12 1.72
12 -13 1 0.32 2.52
-11 13 -1 3.52 2.16
-13 -11 -1 2.62 1.92
11 -13 -1 9 2.75
-13 -11 -1 2.03 1.9
-11 13 1 0.33 2.03
-13 -11 1 -0.17 1.67
11 -13 1 0.3 2.23
-10 13 -1 9.65 2.43
-13 -10 -1 7.39 2.2
-13 -10 -1 6.79 2
10 -13 -1 6.78 2.69
-13 -10 -1 7.04 1.95
-10 13 1 6.78 2.33
10 -13 1 11.77 2.81
-13 -10 1 5.15 1.96
-13 -10 1 5.45 1.9
-13 -9 -1 6.83 2.14
-9 13 -1 10.75 2.38
-13 -9 -1 10.75 2.18
9 -13 -1 10.49 2.82
9 -13 1 8.87 2.46
-9 13 1 10.32 2.39
-13 -9 1 6.63 1.86
-13 -8 -1 5.5 2
-13 -8 -1 6.86 1.8
-8 13 -1 4.82 2.1
-8 13 -1 5.74 1.8
8 -13 -1 3.81 2.33
8 -13 1 8.25 2.49
-13 -8 1 4.05 1.98
-8 13 1 6.4 2.16
-13 -8 1 4.27 1.68
7 -13 -1 -0.86 2.13
-7 13 -1 0.19 1.45
-13 -7 -1 0.63 1.58
-7 13 -1 0.47 1.85
-13 -7 -1 -1.52 1.51
-7 13 1 -0.81 1.75
7 -13 1 0.46 2.05
-13 -7 1 -2.17 1.62
-13 -7 1 -1.16 1.41
-13 -6 -1 -0.03 1.41
6 -13 -1 1.62 2.12
-13 -6 -1 0.93 1.73
-6 13 -1 0.86 1.49
-6 13 1 -4.02 1.62
6 -13 1 0.43 1.83
-13 -6 1 3.22 1.43
-13 -6 1 1.15 1.67
-13 -5 -1 7.68 1.72
5 -13 -1 5.07 2.25
-13 -5 -1 2.96 1.64
-5 13 -1 6.1 1.61
-5 13 1 3.98 1.85
5 -13 1 5.89 2.18
5 -13 1 1.79 1.77
-5 13 1 7.57 1.49
-13 -5 1 4.07 1.73
-13 -5 1 4.38 1.54
-4 13 -1 13.32 1.89
4 -13 -1 9.27 2.38
-13 -4 -1 10.41 1.96
-13 -4 -1 10.67 1.91
4 -13 -1 9.65 2.01
-4 13 1 10.75 1.64
4 -13 1 8.66 2.25
-4 13 1 6.49 2.02
-13 -4 1 9 1.69
4 -13 1 6.66 1.81
-13 -4 1 11.13 2.06
-13 -3 -1 3.39 1.65
-3 13 -1 5.48 1.63
-13 -3 -1 4.34 1.75
3 -13 -1 6.24 1.82
3 -13 -1 4.5 2.03
-3 13 1 3.26 1.76
3 -13 1 3.65 1.93
-13 -3 1 6.12 1.79
-3 13 1 8.1 1.54
-13 -3 1 4.71 1.45
3 -13 1 8.5 1.94
2 -13 -1 6.54 1.7
-13 -2 -1 6.15 1.73
-2 13 -1 5.33 1.63
2 -13 -1 7.52 2
-13 -2 -1 7.87 1.87
2 -13 1 8.73 1.89
-2 13 1 10.45 1.69
-13 -2 1 5.3 1.51
2 -13 1 7.05 1.93
-13 -2 1 5.74 1.71
-1 13 -1 1.93 1.5
-13 -1 -1 2.55 1.54
1 -13 -1 3.99 1.65
-13 -1 -1 1.9 1.6
1 -13 -1 1.92 1.69
13 1 -1 4.61 1.32
1 -13 1 7.22 1.78
-13 -1 1 2.92 1.5
1 -13 1 4.85 1.77
-13 -1 1 2.85 1.41
-1 13 1 4.36 1.46
0 -13 -1 10.27 2
13 0 -1 10.57 1.68
0 -13 -1 10.72 2.02
0 13 -1 9.83 1.91
-13 0 -1 8.91 1.86
-13 0 -1 12.22 1.99
-13 0 1 10.72 1.88
-13 0 1 9.09 1.75
0 -13 1 9.13 1.94
13 0 1 11.83 1.62
0 -13 1 13.75 2.08
-1 -13 -1 14.12 2.09
-13 1 -1 14.42 2.16
-1 -13 -1 16.42 2.23
13 -1 -1 16.39 2.03
-13 1 -1 13.93 2.07
-13 1 1 16.09 2.09
-1 -13 1 14.57 2.17
-1 -13 1 15.06 2.2
13 -1 1 16.41 2
-13 1 1 16.22 2.03
-2 -13 -1 11.38 1.83
-2 -13 -1 7.1 1.87
13 -2 -1 9.23 1.8
-13 2 -1 8.52 1.85
-13 2 -1 8.81 1.8
13 -2 1 9.55 1.8
-13 2 1 7.15 1.73
-13 2 1 8.27 1.8
-2 -13 1 13.48 2.02
-2 -13 1 8.7 1.73
-13 3 -1 1.14 1.49
13 -3 -1 3.1 1.62
-13 3 -1 -0.66 1.41
-3 -13 -1 -2.4 1.21
-3 -13 -1 2.84 1.67
-3 -13 1 0.27 1.51
-13 3 1 1.25 1.37
13 -3 1 0.3 1.48
-3 -13 1 0.92 1.3
-13 3 1 0.78 1.49
-13 4 -1 0.55 1.52
-4 -13 -1 -0.76 1.47
-13 4 -1 1.21 1.55
-4 -13 -1 0.35 1.29
13 -4 -1 2.37 1.65
13 -4 1 1.43 1.59
-13 4 1 -1.01 1.3
-4 -13 1 -0.35 1.45
-13 4 1 0.81 1.53
-5 -13 -1 6.73 1.79
-13 5 -1 7.45 1.91
-13 5 -1 3.95 1.66
13 -5 -1 8.84 2.19
-13 5 1 3.25 1.73
-13 5 1 7.02 1.69
-5 -13 1 6.55 1.81
13 -5 1 6.51 1.94
-13 6 -1 7.98 2.2
13 -6 -1 13.77 2.45
-6 -13 -1 10.59 2.17
-13 6 -1 10.05 1.96
-6 -13 1 10.89 2.1
-13 6 1 10.36 1.87
13 -6 1 13.3 2.35
-13 6 1 6.44 1.92
13 -7 -1 4.84 2.25
-13 7 -1 8.83 2.09
-13 7 -1 2.75 1.54
-7 -13 -1 3.4 1.88
-13 7 1 3.76 1.81
-13 7 1 5.5 1.58
13 -7 1 4.94 2.19
-7 -13 1 2.58 1.62
-8 -13 -1 -2.71 1.58
-13 8 -1 -1.07 1.73
13 -8 -1 -0.58 2.06
-13 8 -1 -2.42 1.45
13 -8 1 0.37 2.11
-13 8 1 0.34 1.82
-8 -13 1 0.03 1.56
-13 8 1 -0.15 1.43
-9 -13 -1 0.36 1.75
-13 9 -1 1.52 1.96
13 -9 -1 0.41 2.17
-13 9 -1 2.87 1.62
-9 -13 1 1.67 1.64
-13 9 1 0.76 1.8
13 -9 1 0.18 2.16
-13 10 -1 2.22 1.71
-10 -13 -1 3.15 2.02
13 -10 -1 6.52 2.57
-13 10 -1 3.63 2.12
-13 10 1 2.37 2.01
-10 -13 1 4.75 1.93
13 -10 1 3.11 2.42
-13 11 -1 4.63 2.18
13 -11 -1 6.86 2.74
-11 -13 -1 8.79 2.27
13 -11 1 3.89 2.58
-13 11 1 4.39 2.27
-11 -13 1 7.34 2.12
-12 -13 -1 5.98 2.07
-13 12 -1 5.48 2.29
13 -12 -1 0.51 2.58
-13 12 1 -0.61 2.1
13 -12 1 -2.69 2.37
-12 -13 1 2.02 1.96
11 -14 -1 -0.56 2.44
-14 -11 -1 0.25 1.92
-14 -11 -1 1.65 1.95
-11 14 1 1.28 2.19
11 -14 1 1.88 2.56
-14 -11 1 -0.95 1.8
-14 -10 -1 -0.8 1.78
10 -14 -1 0.18 2.4
-14 -10 -1 -3.13 1.67
10 -14 1 2.51 2.42
-14 -10 1 -0.11 1.66
-10 14 1 -1.53 1.8
-14 -10 1 0.55 1.62
-14 -9 -1 0.55 1.66
9 -14 -1 1.17 2.32
-14 -9 -1 2.57 2
-9 14 1 0.24 2.03
-14 -9 1 0.03 1.71
9 -14 1 0.85 2.04
8 -14 -1 3.73 2.39
-14 -8 -1 2.46 1.7
-14 -8 -1 1.96 1.75
-8 14 1 4.38 2.07
8 -14 1 1.02 2.17
-14 -8 1 2.88 2.03
-14 -8 1 2.77 1.63
7 -14 -1 -2.65 2.1
-7 14 -1 -0.93 1.57
-14 -7 -1 -0.68 1.71
-14 -7 -1 -0.71 1.57
-7 14 1 -1.26 1.89
-14 -7 1 2.42 1.89
-14 -7 1 -0.93 1.41
7 -14 1 -1.93 2.06
-14 -6 -1 2.7 1.9
6 -14 -1 0.05 2.13
-14 -6 -1 2.74 1.73
-6 14 -1 -0.02 1.46
-14 -6 1 0.57 1.44
-14 -6 1 0.35 1.59
6 -14 1 1.81 2.14
-14 -5 -1 2.07 1.64
5 -14 -1 0.4 2.13
-5 14 -1 0.42 1.5
-14 -5 -1 -0.74 1.71
5 -14 1 6.87 2.06
5 -14 1 3.66 2.17
-14 -5 1 2.13 1.53
-14 -5 1 6.24 1.96
-4 14 -1 10.29 1.91
4 -14 -1 11.07 2.48
4 -14 -1 11.99 2.24
-14 -4 -1 8.92 2.11
-14 -4 -1 8.2 1.93
-14 -4 1 6.56 1.81
4 -14 1 9.68 2.12
-4 14 1 8.64 1.67
4 -14 1 9.86 2.37
-14 -4 1 8.15 2.08
-14 -3 -1 8.92 1.93
-14 -3 -1 5.98 1.91
-3 14 -1 8.41 1.89
3 -14 -1 6.78 1.98
3 -14 -1 6.33 2.13
-14 -3 1 8.11 1.82
-3 14 1 4.09 1.57
3 -14 1 9.72 1.95
3 -14 1 9.31 2.26
-14 -3 1 5.4 1.88
-14 -2 -1 1.27 1.67
-2 14 -1 4.9 1.68
2 -14 -1 3.87 2
2 -14 -1 3.56 1.79
-14 -2 -1 2.9 1.59
-14 -2 1 2.63 1.5
2 -14 1 3.01 1.87
2 -14 1 3.06 1.73
-2 14 1 2.71 1.45
-14 -2 1 1.97 1.62
-14 -1 -1 4.31 1.75
-1 14 -1 2.3 1.64
1 -14 -1 3.14 1.85
1 -14 -1 4.31 1.81
-14 -1 -1 1.32 1.65
-1 14 1 2.99 1.49
1 -14 1 -1.05 1.69
-14 -1 1 3.65 1.67
1 -14 1 0.57 1.62
-14 -1 1 -0.33 1.41
-14 0 -1 9.08 1.96
0 -14 -1 8.01 2.04
0 14 -1 10.98 2
0 -14 -1 10.73 2.1
-14 0 -1 9.99 1.92
0 -14 1 9.22 2.03
-14 0 1 10.24 1.94
-14 0 1 9.64 1.86
0 -14 1 12.37 2.17
-1 -14 -1 9.79 2.05
-14 1 -1 16.06 2.39
-1 -14 -1 15.77 2.34
-14 1 -1 18.28 2.33
14 -1 -1 14.41 2.09
14 -1 1 13.9 1.97
-14 1 1 10.42 1.97
-1 -14 1 16.13 2.28
-1 -14 1 11.2 2.19
-14 1 1 13.44 2.07
-14 2 -1 7.76 1.92
-2 -14 -1 10.17 1.96
-2 -14 -1 11.63 2.14
14 -2 -1 7.13 1.92
-14 2 -1 9.4 2.04
-2 -14 1 8.31 1.85
-14 2 1 6.25 1.78
14 -2 1 8.85 1.8
-2 -14 1 8.96 1.99
-14 2 1 9.84 1.9
14 -3 -1 2.14 1.57
-3 -14 -1 -0.83 1.37
-14 3 -1 0.24 1.63
-3 -14 -1 1.65 1.66
-14 3 -1 1.9 1.69
-3 -14 1 2.25 1.43
-14 3 1 -0.89 1.42
-3 -14 1 1.66 1.76
14 -3 1 2.02 1.64
-14 3 1 1.57 1.64
-14 4 -1 0.62 1.66
14 -4 -1 -1.55 1.69
-4 -14 -1 1.34 1.67
-14 4 -1 -0.35 1.61
-4 -14 -1 -1.82 1.18
-4 -14 1 1.37 1.68
-14 4 1 2.04 1.62
14 -4 1 4.22 1.83
-14 4 1 0.09 1.4
-5 -14 -1 1.69 1.79
-14 5 -1 -1.36 1.47
-14 5 -1 0.18 1.7
14 -5 -1 -0.04 1.89
-5 -14 1 1.72 1.67
-14 5 1 0.65 1.74
-14 5 1 0.72 1.51
14 -5 1 2.88 1.93
-6 -14 -1 2.08 1.61
-14 6 -1 -0.2 1.66
14 -6 -1 -0.9 1.87
-14 6 -1 -0.29 1.55
-14 6 1 -2.8 1.39
-14 6 1 -3.14 1.5
-6 -14 1 -0.06 1.65
14 -6 1 0.39 2.03
-14 7 -1 0.81 1.56
-7 -14 -1 -0.16 1.69
-14 7 -1 0.92 1.96
14 -7 -1 -0.42 2.03
14 -7 1 -3.28 1.84
-7 -14 1 0.77 1.81
-14 7 1 0.08 1.76
-14 7 1 0.9 1.51
14 -8 -1 4.76 2.28
-14 8 -1 0.53 1.54
-8 -14 -1 2.62 1.84
-14 8 -1 0.15 2
-8 -14 1 1.65 1.6
14 -8 1 2.1 2.23
-14 8 1 2.72 1.92
-9 -14 -1 -0.54 1.9
14 -9 -1 1.62 2.31
-14 9 -1 -1.67 1.52
-14 9 -1 1.5 2.1
-14 9 1 -1.11 1.88
14 -9 1 0.31 2.25
-9 -14 1 1.79 1.81
-10 -14 -1 2.48 1.91
-14 10 -1 0.7 2.05
14 -10 -1 0.71 2.47
14 -10 1 3.86 2.48
-14 10 1 2.59 2.04
-10 -14 1 -0.46 1.82
-11 -14 -1 -0.26 1.9
14 -11 -1 -0.81 2.5
-14 11 -1 -2.39 2.06
-14 11 1 0.06 2.1
14 -11 1 2.9 2.71
-11 -14 1 1.21 1.93
-15 -10 -1 1.45 1.98
10 -15 -1 0.62 2.61
-15 -10 -1 2.46 2.14
-15 -10 1 0.03 1.82
10 -15 1 1.28 2.58
-15 -10 1 1.26 1.83
-15 -9 -1 0.57 1.9
9 -15 -1 -1.16 2.42
-15 -9 -1 -1.03 1.88
9 -15 1 -3.03 1.99
-15 -9 1 -0.74 1.8
-15 -8 -1 -2.74 1.75
8 -15 -1 2.07 2.43
-15 -8 -1 0.92 1.76
8 -15 1 0.35 2.28
-15 -8 1 0.75 1.63
-15 -8 1 2.74 1.98
-15 -7 -1 -1.47 1.6
7 -15 -1 -2.31 2.15
-15 -7 -1 0.89 1.88
-15 -7 1 -1.74 1.78
7 -15 1 0.71 2.04
-15 -7 1 0.31 1.48
-15 -6 -1 0.34 1.69
-15 -6 -1 1.41 1.72
6 -15 -1 -0.34 2.17
-15 -6 1 0.91 1.63
6 -15 1 1.91 2.28
-15 -6 1 0.41 1.83
-5 15 -1 1.26 1.58
5 -15 -1 -1.86 2.09
-15 -5 -1 -0.48 1.78
-15 -5 -1 -1.02 1.6
-15 -5 1 0 1.76
-15 -5 1 0.87 1.53
5 -15 1 -1.52 2.09
-15 -4 -1 1.99 1.68
-15 -4 -1 0.6 1.69
4 -15 -1 0.34 2.07
-4 15 -1 4.68 1.73
-15 -4 1 1.64 1.85
4 -15 1 6.71 2.05
4 -15 1 -0.91 1.97
-15 -4 1 2.87 1.58
-3 15 -1 7.91 1.93
-15 -3 -1 4.76 1.94
3 -15 -1 4.57 2.25
-15 -3 -1 5.12 1.82
3 -15 -1 4 1.95
-15 -3 1 4.28 1.69
3 -15 1 6.11 2.32
3 -15 1 3.95 2.03
-15 -3 1 4.03 1.91
2 -15 -1 0.12 1.6
-15 -2 -1 -1.8 1.63
-2 15 -1 1.36 1.66
-15 -2 -1 -0.11 1.68
2 -15 -1 2.57 2.04
2 -15 1 -0.21 1.69
-15 -2 1 1.75 1.56
2 -15 1 -0.07 1.85
-2 15 1 1.27 1.59
-15 -2 1 -2.29 1.5
-15 -1 -1 8.61 2.06
1 -15 -1 9.22 2.13
-1 15 -1 5.63 1.88
1 -15 -1 6.1 2.08
-15 -1 -1 9.47 2.08
1 -15 1 2.95 1.93
-1 15 1 8.45 1.82
-15 -1 1 3.32 1.78
1 -15 1 5.9 2.15
-15 -1 1 7.91 1.87
-15 0 -1 15.91 2.47
0 -15 -1 18.77 2.64
0 15 -1 16.85 2.42
-15 0 -1 17.58 2.53
0 -15 -1 14.53 2.49
-15 0 1 16.99 2.41
0 -15 1 14.55 2.49
-15 0 1 17.06 2.36
0 15 1 21.84 2.43
0 -15 1 19.82 2.7
-15 1 -1 10.25 2.16
-1 -15 -1 10.1 2.22
-1 -15 -1 9.97 2.15
1 15 -1 11.02 2.14
-15 1 -1 8.29 2.09
-15 1 1 8.41 1.95
-1 -15 1 9.13 2.12
-15 1 1 6.95 1.9
-1 -15 1 11.54 2.28
-2 -15 -1 6.13 2
-2 -15 -1 3.5 1.75
-15 2 -1 8.68 2.15
-15 2 -1 4.5 1.83
15 -2 -1 5.41 1.87
-15 2 1 2.69 1.72
-2 -15 1 5.04 1.93
-2 -15 1 3.27 1.68
-15 2 1 4.4 1.8
15 -3 -1 1.64 1.8
-3 -15 -1 4.49 1.63
-15 3 -1 -0.18 1.78
-3 -15 -1 0.37 1.81
-15 3 -1 2.15 1.64
15 -3 1 0.3 1.62
-15 3 1 -0.67 1.55
-3 -15 1 3.07 1.57
-3 -15 1 3.93 1.84
-15 3 1 2.73 1.52
-15 4 -1 1.55 1.86
-4 -15 -1 1.65 1.77
-15 4 -1 0.33 1.56
15 -4 -1 0.66 1.81
15 -4 1 0.94 1.72
-15 4 1 2 1.5
-15 4 1 0.16 1.75
-4 -15 1 -1.25 1.72
-5 -15 -1 4.86 2.01
-15 5 -1 10.12 2.03
-15 5 -1 5.66 2.11
15 -5 -1 8.96 2.3
-15 5 1 2.49 1.6
-15 5 1 2.62 1.82
-5 -15 1 5.51 2.09
15 -5 1 5.81 2.12
-6 -15 -1 0.3 1.82
-15 6 -1 0.86 1.84
-15 6 -1 -1.11 1.58
15 -6 -1 3.14 2.28
-15 6 1 0.65 1.56
-15 6 1 0.93 1.93
-6 -15 1 -0.92 1.67
15 -6 1 0.74 1.91
15 -7 -1 1.11 2.27
-7 -15 -1 -1.58 1.73
-15 7 -1 1.32 1.92
-15 7 -1 -0.74 1.7
-15 7 1 -1.94 1.85
-7 -15 1 0.98 1.88
15 -7 1 1.21 2.17
-15 8 -1 -1.08 1.64
-8 -15 -1 0.95 1.9
-15 8 -1 0.25 1.94
15 -8 -1 -3.34 2.12
-8 -15 1 0.94 1.96
15 -8 1 0.88 2.13
-15 8 1 1.73 2.09
-15 9 -1 -0.08 2.08
-9 -15 -1 -1.54 1.81
15 -9 -1 -2.66 2.27
-9 -15 1 0.42 1.92
15 -9 1 -1.99 2.19
-15 9 1 -1.42 1.9
-10 -15 -1 0.28 2
15 -10 -1 -1.79 2.39
-15 10 -1 2.67 2.21
15 -10 1 0.37 2.54
-15 10 1 -3.21 2.08
-10 -15 1 0.33 1.86
-16 -9 -1 1.53 2.03
-16 -9 1 1.26 1.91
-16 -8 -1 2.07 1.97
8 -16 -1 2.58 2.61
-16 -8 -1 0 1.91
-16 -8 1 -0.47 1.67
8 -16 1 3.68 2.43
-16 -8 1 -0.29 2
-16 -7 -1 1.68 1.87
7 -16 -1 1.98 2.55
-16 -7 -1 1.98 2.08
-16 -7 1 -0.84 1.95
7 -16 1 0.69 2.44
-16 -7 1 2.59 1.74
-16 -6 -1 0.58 1.82
-16 -6 -1 0.17 1.87
6 -16 -1 -5.83 2.14
-16 -6 1 1.45 1.64
6 -16 1 3.23 2.43
-16 -6 1 0.19 1.94
5 -16 -1 1.63 2.3
-16 -5 -1 -0.27 1.9
-16 -5 -1 -0.8 1.7
5 -16 1 -0.9 2.14
-16 -5 1 1.71 1.64
-16 -5 1 -0.18 1.84
-16 -4 -1 -1.28 1.63
-16 -4 -1 -1.16 1.81
4 -16 -1 2.56 2.19
-4 16 -1 -2.07 1.56
-16 -4 1 2.25 1.89
4 -16 1 -3.41 1.96
-16 -4 1 -1.62 1.47
-3 16 -1 -4.76 1.47
3 -16 -1 2.3 2.07
-16 -3 -1 -0.41 1.77
-16 -3 -1 0.74 1.79
-16 -3 1 -2.29 1.6
3 -16 1 -0.62 1.97
-16 -3 1 -0.72 1.61
3 -16 1 -2.15 1.7
2 -16 -1 0.04 1.88
-16 -2 -1 -1.32 1.64
-16 -2 -1 1.92 1.85
2 -16 -1 -2.13 1.73
-2 16 -1 -0.25 1.71
2 -16 1 0.82 1.9
-16 -2 1 -2.2 1.51
-16 -2 1 0.75 1.68
2 -16 1 -0.27 1.87
1 -16 -1 4.83 2.04
1 -16 -1 5.47 2.15
-16 -1 -1 4.37 1.93
-1 16 -1 2.19 1.78
-16 -1 -1 1.41 1.89
1 -16 1 1.88 1.96
1 -16 1 4.95 2.04
-16 -1 1 4.58 1.82
-1 16 1 2.67 1.66
-16 -1 1 2 1.83
-16 0 -1 8.64 2.19
0 -16 -1 7.98 2.28
-16 0 -1 12.5 2.28
0 16 -1 10.41 2.16
0 -16 -1 11.66 2.31
0 16 1 11.03 2.17
-16 0 1 8.88 2.05
0 -16 1 12.91 2.4
-16 0 1 9.79 2.14
0 -16 1 11 2.32
-1 -16 -1 9.74 2.3
-16 1 -1 7.75 2.03
-16 1 -1 6.21 1.95
-1 -16 -1 3.54 2.01
1 16 -1 9.14 2.12
-16 1 1 7.06 1.99
-1 -16 1 6.77 2.05
-1 -16 1 5.42 2.04
-16 1 1 9.15 1.98
-16 2 -1 1.31 1.79
-2 -16 -1 -0.07 1.64
-16 2 -1 2.99 1.82
-2 -16 -1 1.76 1.91
-2 -16 1 3.01 1.95
-2 -16 1 2.04 1.68
-16 2 1 2.62 1.73
-16 2 1 -2.21 1.6
-16 3 -1 -0.9 1.66
-3 -16 -1 -2.77 1.61
-16 3 -1 -1.76 1.75
-3 -16 1 -1.75 1.45
-3 -16 1 2.44 1.91
-16 3 1 1.93 1.66
-16 3 1 1.84 1.83
16 -4 -1 6.72 2.2
-16 4 -1 6.56 2.11
-4 -16 -1 3.97 2.08
-16 4 -1 5.99 1.95
-4 -16 1 2.91 2
16 -4 1 4.87 1.97
-16 4 1 7.63 1.94
-16 4 1 4.95 2.07
-16 5 -1 5.68 2.16
-5 -16 -1 7.43 2.18
16 -5 -1 7.72 2.29
-16 5 -1 6.41 2.01
16 -5 1 9.88 2.31
-5 -16 1 7.11 2.3
-16 5 1 7.06 2.23
-16 5 1 4.11 1.81
16 -6 -1 3.74 2.33
-16 6 -1 4.09 1.99
-6 -16 -1 3.92 2.09
-16 6 -1 8.78 2.33
-16 6 1 4.74 2.03
-16 6 1 6.59 1.81
-6 -16 1 1.5 1.98
16 -6 1 -1.55 1.91
16 -7 -1 0.14 2.27
-16 7 -1 0 1.68
-7 -16 -1 0.31 1.91
-16 7 -1 1.74 2.03
16 -7 1 -1.27 2.01
-7 -16 1 2.88 2.02
-16 7 1 0.27 1.94
16 -8 -1 2.18 2.39
-8 -16 -1 2.59 2.01
-16 8 -1 1.27 2.14
-16 8 1 0.51 2.05
16 -8 1 0.63 2.35
-8 -16 1 2.16 2.05
-17 -6 -1 2.93 2.11
6 -17 -1 -0.32 2.43
-17 -6 -1 0.21 2.02
-17 -6 1 3.28 2.17
6 -17 1 3.08 2.6
-17 -6 1 1.42 1.82
-17 -5 -1 4.37 2.03
5 -17 -1 2.14 2.44
-17 -5 -1 1.91 2.08
5 -17 1 -1.02 2.31
-17 -5 1 1.14 2.01
-17 -5 1 -1.02 1.69
-17 -4 -1 -1.05 1.77
-17 -4 -1 1.24 2.02
4 -17 -1 -0.62 2.27
-17 -4 1 0.46 1.92
-17 -4 1 0.18 1.75
4 -17 1 1.25 2.4
-17 -3 -1 1.44 1.98
3 -17 -1 -0.98 2.08
-17 -3 -1 0.89 1.92
-17 -3 1 -1.86 1.69
3 -17 1 -0.54 2.22
-17 -3 1 3.21 2.01
2 -17 -1 -1.12 1.99
-2 17 -1 2.02 1.84
-17 -2 -1 2.86 1.96
-17 -2 -1 -0.36 1.85
2 -17 1 1.92 2.06
2 -17 1 0.08 1.96
-17 -2 1 -0.76 1.73
-17 -2 1 0.1 1.74
1 -17 -1 -1.41 1.84
1 -17 -1 -4.3 1.77
-1 17 -1 1.36 1.78
-17 -1 -1 0.51 1.91
-17 -1 -1 -0.67 1.72
-17 -1 1 0.08 1.84
1 -17 1 1.53 1.92
1 -17 1 0.37 2.05
-17 -1 1 -1.1 1.76
0 -17 -1 -0.6 1.86
-17 0 -1 0.11 1.93
-17 0 -1 1.49 1.79
0 -17 -1 0.75 2
0 17 -1 1.14 1.87
0 17 1 1.86 1.73
0 -17 1 0.75 1.89
-17 0 1 -0.54 1.8
0 -17 1 0.65 1.91
-17 0 1 -0.53 1.64
-1 -17 -1 2.92 2.06
1 17 -1 0.15 1.87
-17 1 -1 -1.06 1.85
-17 1 -1 -0.22 1.69
-1 -17 -1 -0.95 1.74
-1 -17 1 1.17 1.73
-1 -17 1 -0.14 1.93
-17 1 1 0.31 1.75
-17 1 1 -2.56 1.66
1 17 1 -2.29 1.64
-17 2 -1 1.49 1.98
2 17 -1 -1.28 1.74
-2 -17 -1 -1.83 1.68
-17 2 -1 0.51 1.73
-2 -17 -1 3.63 2.06
-17 2 1 -0.87 1.77
-2 -17 1 -1.06 1.88
-17 2 1 0.12 1.67
-2 -17 1 -1.59 1.69
-17 3 -1 2.67 2.05
-3 -17 -1 -2.67 1.88
-17 3 -1 1.32 1.72
-3 -17 1 -3.7 1.77
-17 3 1 1.85 1.65
-17 3 1 -0.08 1.86
-17 4 -1 3.44 1.79
-4 -17 -1 1.07 1.95
-17 4 -1 2.65 2.03
-17 4 1 2.54 2.11
-4 -17 1 2.22 2.01
-17 4 1 0.53 1.69
-5 -17 -1 1.29 2.09
17 -5 -1 3.77 2.21
-17 5 -1 1.7 2.09
-17 5 -1 -1.59 1.89
-17 5 1 2.48 1.83
-5 -17 1 4.27 2.13
-17 5 1 3.69 2.16
17 -6 -1 2.19 2.28
-17 6 -1 0.79 1.85
-6 -17 -1 1.86 2.1
-17 6 -1 1.31 2.12
17 -6 1 2.15 2.18
-6 -17 1 3.48 2.04
-17 6 1 0.24 1.99
-18 -3 -1 2.06 2.12
3 -18 -1 2.71 2.38
-18 -3 -1 0.92 2.05
-18 -3 1 -0.38 1.83
-18 -3 1 3.62 2.01
3 -18 1 1.75 2.34
2 -18 -1 -0.84 2.25
-18 -2 -1 -0.32 1.96
-18 -2 -1 3.49 2.19
-18 -2 1 1.24 1.94
-18 -2 1 2.63 2.03
2 -18 1 0.43 2.15
-18 -1 -1 3.61 2.06
-18 -1 -1 1 2.05
-1 18 -1 2.48 2.03
1 -18 -1 4.84 2.37
1 -18 1 -0.49 1.96
1 -18 1 5.1 2.21
-18 -1 1 2.46 2.02
-18 -1 1 4.39 2.15
0 -18 -1 1.86 2.16
0 18 -1 4.98 2.03
0 -18 -1 -2.46 1.82
-18 0 -1 0.71 1.96
-18 0 -1 -0.25 2.02
-18 0 1 -0.38 1.85
0 -18 1 0.62 1.9
0 -18 1 1.36 2.1
-18 0 1 1.05 1.9
-1 -18 -1 3.53 2.19
1 18 -1 0.19 1.93
-1 -18 -1 -0.53 1.96
-18 1 -1 0.87 2.08
-18 1 -1 1.38 1.88
-18 1 1 1.59 1.8
-18 1 1 -1.55 1.95
-1 -18 1 -2.87 2.02
-1 -18 1 0.88 1.96
-18 2 -1 -1.59 1.71
-2 -18 -1 1.14 2.06
2 18 -1 -1.1 1.97
-18 2 -1 0.78 2.1
-18 2 1 0.22 1.93
2 18 1 -1.61 1.87
-18 2 1 -1.44 1.73
-2 -18 1 2.12 2.02
-18 3 -1 2.86 1.98
-18 3 -1 -2.88 1.98
-3 -18 -1 2.59 2.16
-18 3 1 -3.29 1.8
-3 -18 1 -1.64 2.01
-18 3 1 2.33 1.89
0 0 2 42.92 2.41
0 0 2 38.62 2.39
-1 0 -2 121.57 7.18
0 1 -2 114.31 7.17
0 -1 -2 126.36 7.05
-1 0 -2 125.04 7.06
0 -1 -2 117.97 7.11
1 0 2 131.83 7.05
0 -1 2 133.5 7.02
-1 0 2 109.07 6.96
-1 0 2 132.68 6.98
0 1 2 139.23 7.06
0 -1 2 134.01 7.02
1 -1 -2 686.43 36.43
-1 1 -2 677.44 36.51
-1 1 -2 671.73 35.87
-1 -1 -2 649.55 36.47
-1 -1 -2 637.64 35.88
-1 1 2 613.26 35.83
-1 -1 2 627.41 35.78
1 1 2 634.5 35.88
-1 -1 2 647.58 35.81
-1 1 2 672.79 35.84
1 -1 2 633.98 35.87
-1 2 -2 40.44 2.55
-2 -1 -2 42.52 2.59
-2 -1 -2 43.3 2.61
1 -2 -2 44.33 2.55
-1 2 2 43.2 2.55
2 1 2 40.16 2.58
1 -2 2 40.66 2.56
1 -2 2 36.7 2.71
0 -2 -2 87.75 5.04
-2 0 -2 84.82 5.15
0 -2 -2 83.86 5.04
0 -2 -2 85.65 5.02
-2 0 -2 81.06 5.05
-2 0 2 92.37 4.9
0 -2 2 88.3 5
0 -2 2 90.47 5.01
2 0 2 90.31 5.04
-2 0 2 90.38 4.9
0 2 2 91.97 5.04
-1 -2 -2 827.05 43.7
-2 1 -2 768.81 43
-1 -2 -2 780.54 43.01
-1 -2 2 765.73 42.92
2 -1 2 784.61 43.01
1 2 2 771.84 43
2 -1 2 760.89 45.76
-2 1 2 786.39 42.93
-2 1 2 767.33 43.63
-2 -2 -2 99.76 5.82
-2 2 -2 100.12 5.94
-2 2 -2 101.47 5.83
-2 -2 -2 104.21 5.89
-2 2 2 108.28 5.78
-2 -2 2 101.22 5.66
-2 -2 2 95.11 5.65
-2 2 2 95.97 5.76
2 -2 2 97.99 5.8
2 -2 2 117.57 6.26
2 2 2 93.92 5.81
-2 2 2 101.07 5.7
2 -3 -2 169.04 9.59
-2 3 -2 178.21 9.63
-3 -2 -2 170.73 9.62
-3 -2 -2 174.08 9.77
-2 3 -2 172.02 9.78
-3 -2 2 160.57 9.43
-2 3 2 165.51 9.59
3 2 2 163.39 9.6
2 -3 2 166.95 9.63
2 -3 2 181.46 10.27
-3 -2 2 169.78 9.43
-2 3 2 170.03 9.56
-3 -1 -2 381.97 20.62
-1 3 -2 378.48 20.6
-3 -1 -2 398.36 20.99
1 -3 -2 387.91 20.61
-1 3 -2 397.08 20.98
-3 -1 2 339.09 20.43
3 1 2 351.86 20.6
-3 -1 2 378.06 20.94
-1 3 2 351.83 20.6
1 -3 2 355.77 20.6
-3 -1 2 363.31 20.44
0 -3 -2 251.04 13.77
0 -3 -2 262.79 13.9
-3 0 -2 240.66 13.78
0 3 2 239.47 13.78
-3 0 2 240.78 13.93
-3 0 2 244.3 13.62
0 -3 2 264.46 14.66
3 0 2 238.07 13.76
0 -3 2 252.94 13.75
-3 0 2 237.09 13.63
0 -3 2 239.71 13.73
-1 -3 -2 113.29 6.73
-1 -3 -2 106.66 6.77
-3 1 -2 116.99 6.88
-1 -3 -2 119.22 6.76
-3 1 -2 123.14 6.76
1 3 2 123.37 6.75
-3 1 2 125.44 6.63
3 -1 2 119.94 6.76
-3 1 2 108.9 6.73
-1 -3 2 120.76 6.66
-1 -3 2 118.79 6.66
-2 -3 -2 25.14 1.71
-3 2 -2 21.02 1.73
-2 -3 -2 20.23 1.67
-3 2 -2 21.8 1.75
-2 -3 2 25.85 1.53
2 3 2 23.41 1.74
-3 2 2 19.08 1.46
-3 2 2 24.66 1.63
3 -2 2 23.48 1.75
3 -2 2 16.41 1.77
-3 2 2 22.84 1.58
3 -3 -2 61.79 3.43
-3 3 -2 61.15 3.56
-3 -3 -2 62.26 3.55
-3 3 -2 55.32 3.45
-3 -3 -2 52.49 3.48
3 -3 2 56.73 3.76
3 3 2 59.04 3.47
-3 3 2 48.92 3.39
3 -3 2 50.68 3.49
-3 -3 2 55.58 3.28
-3 3 2 55.15 3.27
-3 4 -2 45.87 3.19
-4 -3 -2 45.27 3.15
3 -4 -2 45.64 3.17
-3 4 -2 47.96 3.23
-4 -3 -2 51.3 3.22
-4 -3 2 52.84 2.97
3 -4 2 55.79 3.44
-3 4 2 44.41 3.15
3 -4 2 49.73 3.22
-3 4 2 53.11 2.96
4 3 2 51.07 3.16
2 -4 -2 241.18 13.6
-4 -2 -2 233.73 13.6
-2 4 -2 249.51 13.85
-2 4 -2 247.95 13.61
-4 -2 -2 239.64 13.86
-4 -2 2 247.4 13.42
-2 4 2 234.58 13.6
2 -4 2 236.38 13.61
-4 -2 2 250.89 13.84
-2 4 2 240.41 13.63
4 2 2 238.16 13.58
-4 -2 2 243.56 13.42
-1 4 -2 466.6 27.75
-4 -1 -2 470.25 27.76
1 -4 -2 470.07 27.77
-1 4 -2 488.7 28.25
1 -4 2 513.5 27.78
-4 -1 2 521.74 28.23
-1 4 2 513.9 27.79
-4 -1 2 503.79 27.61
4 1 2 508.7 27.77
1 -4 2 551.9 29.62
-4 -1 2 497.6 27.61
-4 0 -2 54.66 3.47
0 -4 -2 52.88 3.51
0 4 -2 59.08 3.43
0 4 2 51.49 3.5
-4 0 2 57.46 3.28
4 0 2 56.89 3.43
0 -4 2 55.81 3.44
4 0 2 56.14 3.58
-4 0 2 54.85 3.44
0 -4 2 60.74 3.73
-4 0 2 59.54 3.28
-4 1 -2 28.43 1.93
-4 1 -2 23.31 1.88
-1 -4 -2 25.35 1.8
-1 -4 -2 27.43 1.76
-1 -4 2 23.23 1.77
4 -1 2 28.16 1.92
-4 1 2 25.11 1.71
4 -1 2 23.46 1.86
-4 1 2 22.83 1.64
-1 -4 2 22.49 1.7
1 4 2 20.13 1.76
-2 -4 -2 5.7 0.82
-4 2 -2 5.64 0.96
-2 -4 -2 6.18 0.89
-4 2 -2 6.27 0.87
4 -2 2 3.51 0.94
4 -2 2 5.04 0.9
2 4 2 5.29 0.91
-4 2 2 4.44 0.66
-2 -4 2 5.4 0.75
-4 2 2 3.96 0.75
-2 -4 2 4.43 0.7
-4 2 2 4.39 0.75
-3 -4 -2 107.5 6.61
-4 3 -2 101.34 6.54
-3 -4 -2 104.09 6.52
-4 3 -2 107.98 6.67
-4 3 2 119.91 6.47
-4 3 2 103.12 6.48
4 -3 2 118.32 6.6
-3 -4 2 122.76 6.44
-4 3 2 110.58 6.49
3 4 2 116.42 6.56
4 -3 2 125.93 7.04
-4 4 -2 162.74 9.17
-4 -4 -2 161.66 9.14
4 -4 -2 152.64 9.09
-4 -4 -2 155.12 9.31
-4 -4 -2 149.98 9.41
-4 4 2 160.65 9.13
4 -4 2 168.4 9.19
4 -4 2 149.14 9.74
-4 -4 2 168.87 9
-4 4 2 158.4 9.07
4 4 2 169.36 9.14
-5 -4 -2 20.64 1.73
-5 -4 -2 17.93 1.72
-4 5 -2 21.63 1.81
4 -5 -2 18.81 1.66
4 -5 -2 17.66 1.84
4 -5 2 24.61 1.89
-4 5 2 18.31 1.46
5 4 2 21.77 1.71
-4 5 2 19.97 1.73
-5 -4 2 19.26 1.47
-5 -4 2 17.57 1.39
4 -5 2 13.21 1.8
3 -5 -2 89 5.31
-5 -3 -2 83.91 5.28
-3 5 -2 87.33 5.35
-5 -3 -2 85.73 5.4
-5 -3 2 90.43 5.11
5 3 2 88.63 5.27
3 -5 2 92.87 5.36
-3 5 2 94.61 5.34
-5 -3 2 93.02 5.09
-5 -3 2 84.26 5.36
-3 5 2 86.2 5.13
-2 5 -2 86.33 5.62
2 -5 -2 89.18 5.64
-2 5 -2 87.65 5.71
-5 -2 -2 85.96 5.71
-5 -2 -2 89.11 5.62
2 -5 2 99.04 5.64
-2 5 2 99.94 5.51
-5 -2 2 105.01 5.44
-2 5 2 98.37 5.68
5 2 2 108.32 5.64
-5 -1 -2 153.86 9.71
1 -5 -2 161.84 9.76
-1 5 -2 158.42 9.9
-1 5 -2 161.24 9.73
1 -5 2 174.64 9.76
-1 5 2 180.92 9.8
5 1 2 177.99 9.73
-5 -1 2 184.94 9.57
-5 -1 2 183.82 9.91
-5 0 -2 178.1 9.31
0 -5 -2 173.9 9.32
0 5 -2 174.48 9.28
0 5 2 160.31 9.32
0 -5 2 159.89 9.89
0 -5 2 155.02 9.27
5 0 2 154.66 9.27
5 0 2 161.91 9.76
-5 0 2 159.02 9.13
-5 0 2 154.08 9.39
-1 -5 -2 185.01 11.17
-5 1 -2 186.32 10.57
-1 -5 -2 188.46 10.57
-1 -5 2 189.68 11.21
1 5 2 189.4 10.59
5 -1 2 181.51 10.55
-5 1 2 187.26 10.45
-5 1 2 187.67 10.65
-1 -5 2 183.09 10.52
5 -1 2 187.47 11.17
-1 -5 2 178.72 10.51
-5 2 -2 165.77 10.33
-2 -5 -2 175.66 10.33
-2 -5 -2 165.09 10.32
-2 -5 -2 171.02 10.84
-2 -5 -2 160.3 10.42
5 -2 2 174.39 10.95
5 -2 2 190.99 10.36
-5 2 2 199.31 10.26
2 5 2 197.56 10.35
-2 -5 2 190.83 10.26
-2 -5 2 186.85 10.26
-5 2 2 185.61 10.37
-5 2 2 194.31 10.25
-3 -5 -2 150.5 9.6
-3 -5 -2 149.37 9.36
-5 3 -2 147.57 9.22
-3 -5 -2 140.38 9.22
-3 -5 2 174.54 9.15
-3 -5 2 170.27 9.15
5 -3 2 165.82 9.86
-5 3 2 167.24 9.22
-5 3 2 163.82 9.19
-5 3 2 173.46 9.2
5 -3 2 171.88 9.28
3 5 2 157.8 9.23
-4 -5 -2 89.25 5.96
-4 -5 -2 91.75 5.96
-5 4 -2 87.55 5.97
-4 -5 -2 96.88 5.92
-5 4 -2 93.94 5.91
5 -4 -2 90.65 5.83
-5 4 2 104.4 5.8
-4 -5 2 105.1 5.77
-4 -5 2 111.69 5.8
5 -4 2 108.4 5.95
4 5 2 110.95 5.93
-5 4 2 102.02 5.91
5 -4 2 101.73 6.39
-5 5 -2 20.12 1.89
-5 -5 -2 19.65 1.79
5 -5 -2 19.66 1.78
-5 5 -2 17.63 1.76
5 -5 -2 18.94 2.09
-5 -5 -2 19.37 1.86
5 5 2 20.57 1.79
-5 -5 2 20.08 1.67
5 -5 2 23.45 1.93
5 -5 2 20.11 2.11
-5 5 2 19.29 1.55
-5 5 2 19.77 1.82
5 -6 -2 1.34 0.92
-6 -5 -2 0.77 0.92
-5 6 -2 1.31 0.95
-6 -5 -2 0.04 0.9
-5 6 -2 -0.27 0.89
5 -6 -2 -1.29 1.01
6 5 2 -0.66 0.83
-5 6 2 -0.2 0.96
-5 6 2 -0.09 0.63
-6 -5 2 1.25 0.72
5 -6 2 2.26 1.19
-6 -5 2 0.05 0.15
5 -6 2 1.59 1.04
-6 -4 -2 12.13 1.42
-4 6 -2 12.37 1.49
-6 -4 -2 12.24 1.57
-4 6 -2 14.01 1.47
4 -6 -2 9.84 1.38
-4 6 2 14.52 1.16
-6 -4 2 12.34 1.46
-6 -4 2 14.93 1.23
-4 6 2 11.47 1.47
4 -6 2 13.74 1.75
4 -6 2 13.18 1.49
6 4 2 13.44 1.42
-6 -4 2 11.59 1.15
-6 -3 -2 36.24 2.66
-6 -3 -2 30.76 2.75
3 -6 -2 35.3 2.71
-3 6 -2 35.98 2.71
3 -6 -2 37.91 2.88
-3 6 -2 38.03 2.7
-6 -3 2 39.04 2.79
-6 -3 2 39.25 2.44
3 -6 2 38.53 2.79
-6 -3 2 39.42 2.41
-3 6 2 38.84 2.41
6 3 2 40.26 2.64
3 -6 2 36.47 2.87
-3 6 2 39.67 2.73
2 -6 -2 61.77 3.8
-2 6 -2 46.49 3.71
-6 -2 -2 56.22 3.71
-2 6 -2 51.82 3.73
2 -6 -2 55.82 4.03
6 2 2 61.82 3.7
2 -6 2 51.22 3.96
-2 6 2 63.78 3.58
-2 6 2 63.94 3.77
-6 -2 2 65.23 3.5
-6 -2 2 53.42 3.78
2 -6 2 66.66 3.76
-6 -2 2 62.62 3.51
-6 -1 -2 92.45 5.6
1 -6 -2 93.47 5.98
1 -6 -2 92 5.65
-1 6 -2 97.56 5.62
-6 -1 -2 100.76 5.77
6 1 2 95.35 5.57
-6 -1 2 92.83 5.4
1 -6 2 93.75 5.62
-1 6 2 93.83 5.62
6 1 2 87.22 5.7
-6 -1 2 97.56 5.41
1 -6 2 94.96 5.98
-6 0 -2 79.8 4.58
0 -6 -2 76.22 4.64
0 6 -2 78.77 4.56
-6 0 -2 74.79 4.7
0 6 2 75.05 4.63
6 0 2 68.48 4.52
0 -6 2 71.97 4.55
6 0 2 73.59 4.69
-6 0 2 73.97 4.57
-6 0 2 77.36 4.4
-6 1 -2 121.62 7.6
-1 -6 -2 125.04 7.51
-6 1 -2 122.95 7.46
-1 -6 -2 128.18 7.88
6 -1 2 131.84 7.88
-6 1 2 127.5 7.34
6 -1 2 132.01 7.48
-6 1 2 132.36 7.36
-1 -6 2 125.03 7.45
1 6 2 135.28 7.54
-6 1 2 133.17 7.53
-6 2 -2 115 6.93
-2 -6 -2 116.98 6.95
-2 -6 -2 123.73 6.97
-2 -6 -2 120.71 7.21
-6 2 -2 112.91 7.04
-2 -6 2 116.45 6.84
-6 2 2 120.7 6.83
6 -2 2 111.76 6.9
2 6 2 112.91 6.93
-6 2 2 116.75 6.82
-6 2 2 116.18 6.9
-2 -6 2 119.03 6.86
6 -2 2 120.19 7.32
-2 -6 2 125.64 7.28
-3 -6 -2 405.68 21.41
-6 3 -2 382.2 21.72
-3 -6 -2 398.7 22.55
-6 3 -2 384.24 21.39
-3 -6 -2 403.06 21.42
-3 -6 -2 395.59 21.72
-6 3 2 373.67 21.28
6 -3 2 359.82 21.36
-3 -6 2 382.79 21.28
-3 -6 2 368.45 21.28
-6 3 2 375.31 21.57
6 -3 2 361.51 22.72
3 6 2 364.87 21.36
-6 3 2 382.81 21.31
-6 4 -2 235.83 13.3
-4 -6 -2 225.19 13.29
-4 -6 -2 231.08 13.12
-4 -6 -2 234.53 13.64
-6 4 -2 229.58 13.12
6 -4 -2 235.49 13.99
-4 -6 2 227.61 12.99
6 -4 2 231.78 13.11
-4 -6 2 229.29 12.96
6 -4 2 223.64 13.93
-6 4 2 223.09 13.1
4 6 2 225.75 13.07
-6 4 2 234.62 13.07
6 -5 -2 40.63 2.87
-6 5 -2 40.96 3.03
-6 5 -2 39.5 3.06
-5 -6 -2 39.61 2.59
6 -5 -2 37.39 3.23
-5 -6 -2 45.4 3.08
-5 -6 -2 43.84 2.99
-5 -6 2 40.06 2.73
6 -5 2 39.19 3.27
-5 -6 2 41.82 2.8
5 6 2 42.56 2.95
-6 5 2 42.66 2.95
6 -5 2 41.92 3.02
-6 5 2 41.15 2.73
-6 -6 -2 5.14 1.26
-6 -6 -2 7.52 1.38
6 -6 -2 5.53 1.57
-6 6 -2 7.37 1.29
6 -6 -2 8.04 1.28
-6 6 -2 6.23 1.35
-6 -6 2 6.12 1.02
6 6 2 4.6 1.15
-6 6 2 8 0.97
-6 6 2 6.22 1.31
6 -6 2 5.94 1.32
-6 -6 2 7.74 1.1
-6 -6 2 6.02 1.01
6 -6 2 7.01 1.52
6 -7 -2 43.29 3.73
-7 -6 -2 54.32 3.62
6 -7 -2 51.97 3.57
-7 -6 -2 49.78 3.71
-6 7 -2 47.37 3.6
-6 7 -2 52.85 3.58
-7 -6 2 52.66 3.33
-6 7 2 50.26 3.23
7 6 2 49.07 3.41
6 -7 2 52.42 3.66
-6 7 2 47.54 3.59
6 -7 2 44.8 3.8
-5 7 -2 2.26 1.2
-7 -5 -2 1.55 1.14
5 -7 -2 1.08 1.04
-5 7 -2 0.93 1
-7 -5 -2 3.41 1.14
7 5 2 4.05 1.06
-5 7 2 2.39 0.78
5 -7 2 3 1.17
-7 -5 2 2.15 1.16
5 -7 2 0.48 1.22
-5 7 2 2.45 1.15
-7 -5 2 1.94 0.84
-7 -4 -2 12.91 1.64
-7 -4 -2 12.66 1.52
-4 7 -2 14.1 1.7
4 -7 -2 11.79 1.71
4 -7 -2 14.85 1.66
-4 7 -2 15.06 1.62
-7 -4 2 10.91 1.62
-7 -4 2 17.68 1.39
-7 -4 2 14.01 1.31
-4 7 2 13.34 1.65
7 4 2 14.51 1.51
-4 7 2 14.88 1.27
4 -7 2 17.58 1.78
-7 -3 -2 42.16 2.89
3 -7 -2 38.7 3.17
3 -7 -2 40.12 2.87
-3 7 -2 39.78 2.94
-3 7 -2 43.41 2.94
-7 -3 2 41.73 2.97
-3 7 2 37.14 2.63
3 -7 2 38.98 2.96
7 3 2 41.48 2.81
3 -7 2 42.04 3.12
-3 7 2 39.74 2.96
-7 -3 2 40.01 2.63
-7 -3 2 42.24 2.64
2 -7 -2 33.62 2.45
2 -7 -2 26.05 2.52
-2 7 -2 29.19 2.35
-7 -2 -2 32.03 2.39
-7 -2 -2 31.48 2.31
-2 7 -2 30.08 2.37
2 -7 2 25.68 2.35
-7 -2 2 31.32 2.05
-7 -2 2 29.18 2.29
2 -7 2 25.37 2.46
7 2 2 26.86 2.22
-7 -2 2 31.71 2.07
-2 7 2 29.14 2.08
-2 7 2 32.74 2.44
1 -7 -2 25.65 2.35
-7 -1 -2 27.94 2.2
-1 7 -2 26.63 2.29
-1 7 -2 24.76 2.2
1 -7 -2 28.06 2.33
-7 -1 -2 25.71 2.23
1 -7 2 26.84 2.45
7 1 2 30.28 2.17
-7 -1 2 29.18 2.22
-1 7 2 26.25 2.28
1 -7 2 29.48 2.18
7 1 2 28.63 2
-7 -1 2 25.56 1.92
-7 -1 2 31.16 1.93
0 -7 -2 42.75 3.21
0 -7 -2 41.3 3.11
-7 0 -2 43.06 3.07
0 7 -2 45.44 3.12
-7 0 -2 42.96 3.04
-7 0 2 46.77 3.04
7 0 2 45.55 3.06
0 7 2 48.56 3.17
0 -7 2 47.59 3.1
0 -7 2 43.5 3.27
7 0 2 45.04 3.03
-7 0 2 46.2 2.87
1 7 -2 47.96 3.32
-1 -7 -2 49.21 3.47
-7 1 -2 54.47 3.47
-7 1 -2 48.43 3.33
-1 -7 2 53.77 3.55
1 7 2 53.73 3.39
-7 1 2 48.22 3.22
-1 -7 2 48.98 3.34
7 -1 2 49.73 3.35
-7 1 2 52.09 3.21
7 -1 2 53.21 3.47
-7 2 -2 26.61 2.15
-2 -7 -2 22.12 1.92
-7 2 -2 27.02 2.09
-2 -7 -2 21.17 1.94
7 -2 2 22.91 2.03
-2 -7 2 22.44 1.89
7 -2 2 20.06 1.9
-7 2 2 20.14 1.78
2 7 2 24.52 2.02
-2 -7 2 18.65 1.86
-7 2 2 21.94 1.87
-7 2 2 21.73 1.86
-3 -7 -2 100.24 6.15
-3 -7 -2 110.34 6.09
-7 3 -2 108.94 6.14
-3 -7 -2 104.17 6.05
-7 3 -2 113.74 6.11
7 -3 2 96.87 6
-7 3 2 97.85 5.91
-7 3 2 92.26 5.91
-7 3 2 95.6 5.93
-3 -7 2 89.74 5.87
-3 -7 2 97.22 5.89
7 -3 2 87.83 6.33
3 7 2 101.4 6.02
-7 4 -2 47.64 3.12
-7 4 -2 45.09 3.06
7 -4 -2 43.02 3.3
-4 -7 -2 46.56 3.06
-4 -7 -2 48.69 3.12
-4 -7 -2 46.86 2.82
-4 -7 -2 44.49 3.08
-4 -7 2 40.14 2.88
7 -4 2 30.14 3.18
-7 4 2 32.88 2.76
-7 4 2 38.37 2.96
-4 -7 2 39.94 2.92
4 7 2 43.1 3.06
7 -4 2 38.76 2.98
-7 4 2 40.84 3
-5 -7 -2 18.46 1.86
-7 5 -2 14 1.83
-5 -7 -2 14.55 1.77
7 -5 -2 17.93 2.18
-7 5 -2 14.56 1.77
7 -5 -2 13.08 1.66
-5 -7 -2 19.23 1.91
-5 -7 -2 17.31 1.42
-7 5 2 16.01 1.79
-5 -7 2 17.05 1.66
7 -5 2 17.9 1.88
5 7 2 21.26 1.87
7 -5 2 21.83 2.2
-7 5 2 16.86 1.52
-5 -7 2 20.97 1.73
-6 -7 -2 21.45 2.06
-6 -7 -2 21.14 2.01
-7 6 -2 16.43 1.95
7 -6 -2 22.22 1.92
-7 6 -2 17.41 1.86
7 -6 -2 16.48 2.13
7 -6 2 16.11 1.91
-7 6 2 13.53 1.46
-7 6 2 14.89 1.85
6 7 2 16.38 1.81
-6 -7 2 16.25 1.65
-6 -7 2 15.09 1.66
7 -6 2 15.92 2.18
-7 7 -2 64.78 4.5
-7 7 -2 66.45 4.43
-7 -7 -2 61.07 4.38
-7 -7 -2 71.27 4.6
7 -7 -2 67.2 4.8
7 -7 -2 73.07 4.42
7 -7 2 67.75 4.49
7 7 2 63.73 4.27
7 -7 2 61.34 4.89
-7 7 2 59.57 4.09
-7 7 2 61.07 4.41
-7 -7 2 66.44 4.2
7 -8 -2 60.36 4.14
-8 -7 -2 53.72 4.04
-7 8 -2 59.35 4.03
-7 8 -2 44.62 4.04
7 -8 -2 56.91 4.4
-8 -7 -2 55.25 4.21
-7 8 2 61.37 4.14
7 -8 2 53.49 4.08
7 -8 2 57.35 4.4
-8 -7 2 58.26 3.76
6 -8 -2 57.07 3.56
-6 8 -2 45.6 3.54
-8 -6 -2 49.95 3.53
-6 8 -2 47.71 3.57
-8 -6 -2 46.27 3.4
-6 8 2 37.42 3.05
-8 -6 2 48.78 3.15
-8 -6 2 45.27 3.49
6 -8 2 45.96 3.53
-6 8 2 44.07 3.52
-5 8 -2 6.99 1.36
5 -8 -2 11.1 1.56
-5 8 -2 7.9 1.49
-8 -5 -2 7.08 1.42
-8 -5 -2 4.97 1.37
-5 8 2 7.2 1.52
-5 8 2 7.73 1.05
-8 -5 2 7.99 1.16
5 -8 2 4.76 1.43
-8 -5 2 3.31 1.31
-4 8 -2 14.6 1.85
-8 -4 -2 13.33 1.66
-8 -4 -2 14.28 1.79
4 -8 -2 13.94 1.71
4 -8 -2 16.43 2.12
-4 8 -2 14.17 1.74
-8 -4 2 13.72 1.34
4 -8 2 17.84 2.12
-8 -4 2 15.52 1.45
-4 8 2 15.22 1.77
-8 -4 2 15.84 1.81
-4 8 2 15.24 1.38
4 -8 2 12.6 1.81
-3 8 -2 58.78 3.83
-8 -3 -2 51.69 3.64
3 -8 -2 51.98 3.65
-3 8 -2 50.58 3.63
3 -8 -2 54.54 4.07
-3 8 2 52.43 3.67
3 -8 2 55.56 3.98
-8 -3 2 57.48 3.42
-8 -3 2 52.74 3.39
-8 -3 2 54.5 3.8
3 -8 2 52.77 3.75
-3 8 2 54.96 3.43
-8 -2 -2 65.82 4.47
-2 8 -2 71.68 4.58
2 -8 -2 68.84 4.53
-2 8 -2 67.69 4.54
2 -8 -2 65.75 4.88
-8 -2 -2 73.5 4.72
-8 -2 2 71.96 4.63
2 -8 2 70.41 4.58
-8 -2 2 72.16 4.3
-2 8 2 77.23 4.63
-8 -2 2 73.57 4.26
-2 8 2 71.53 4.35
2 -8 2 70.35 4.9
-8 -1 -2 30.38 2.49
1 -8 -2 32.13 2.69
-1 8 -2 30.42 2.54
-8 -1 -2 32.09 2.43
-1 8 -2 31.53 2.48
1 -8 -2 31.57 2.56
1 -8 2 33.45 2.53
-8 -1 2 28.8 2.19
8 1 2 27.36 2.2
-1 8 2 29.68 2.41
-8 -1 2 33.23 2.46
1 -8 2 31.87 2.72
8 1 2 29.95 2.45
0 -8 -2 12.52 1.76
0 8 -2 15 1.64
-8 0 -2 14.21 1.62
0 -8 -2 16.85 1.74
-8 0 -2 14.67 1.73
-8 0 2 14.22 1.38
0 8 2 14.28 1.69
-8 0 2 16.42 1.63
8 0 2 15.55 1.49
0 -8 2 11.45 1.69
8 0 2 16.64 1.61
0 -8 2 16.37 1.68
-1 -8 -2 6.95 1.32
1 8 -2 6.17 1.14
-8 1 -2 5.81 1.21
-1 -8 -2 6.27 1.17
-8 1 -2 4.93 1.16
1 8 2 5.47 1.16
-1 -8 2 0.97 1.05
-8 1 2 4.41 0.95
-1 -8 2 5.45 1.3
-8 1 2 4.28 0.93
8 -1 2 5.92 1.14
8 -1 2 7.06 1.19
-8 1 2 3.18 1.04
-2 -8 -2 0.92 0.95
-8 2 -2 3.8 1.04
-8 2 -2 1.91 1.1
-2 -8 -2 1.58 0.82
-8 2 2 1.48 0.93
-2 -8 2 0.6 1.03
-8 2 2 0.94 0.88
-2 -8 2 -0.16 0.94
8 -2 2 0.53 1.11
8 -2 2 1.83 0.98
2 8 2 0.06 0.99
-8 2 2 2.93 0.96
-8 3 -2 15.55 1.7
-8 3 -2 15.38 1.77
-3 -8 -2 13.64 1.72
-3 -8 -2 12.01 1.48
8 -3 -2 15.15 1.88
8 -3 2 12.45 1.74
-8 3 2 15.04 1.46
-3 -8 2 11.83 1.56
-8 3 2 15.03 1.55
3 8 2 13.73 1.66
-8 3 2 15.27 1.6
-3 -8 2 15.15 1.6
8 -3 2 15.77 1.69
-8 4 -2 3.28 1.3
-8 4 -2 0.99 1.09
-4 -8 -2 2.81 1.23
-4 -8 -2 3.41 0.93
8 -4 -2 5.12 1.45
-8 4 2 -0.15 0.54
-4 -8 2 4.75 1.12
-8 4 2 2.99 1.17
8 -4 2 4.21 1.46
8 -4 2 3.7 1.21
4 8 2 4.24 1.17
-4 -8 2 2.77 1.03
-8 4 2 2.42 1.01
-5 -8 -2 16.99 1.93
-5 -8 -2 15.06 1.89
8 -5 -2 13.47 2
-8 5 -2 13.52 1.77
-8 5 -2 13.51 1.89
-5 -8 -2 14.92 1.87
-5 -8 -2 17.99 1.45
-5 -8 2 14.1 1.7
-8 5 2 18.8 1.92
5 8 2 16.46 1.79
8 -5 2 19.15 2.2
8 -5 2 14.69 1.77
-5 -8 2 14.37 1.68
-6 -8 -2 3.69 1.41
-6 -8 -2 5.33 1.42
8 -6 -2 5.36 1.34
-6 -8 -2 5.09 1.4
-8 6 -2 3.32 1.44
8 -6 -2 5.01 1.77
-8 6 -2 2.98 1.27
8 -6 2 4.59 1.4
8 -6 2 3.93 1.58
6 8 2 4.44 1.29
-6 -8 2 3.88 1.21
-8 6 2 3.93 1.43
-6 -8 2 4.28 1.24
-7 -8 -2 50.77 4.03
-7 -8 -2 47.21 3.85
-8 7 -2 54.32 3.88
8 -7 -2 53.58 4.43
-8 7 -2 50.44 3.97
-8 7 2 56.38 3.95
8 -7 2 58.03 4.29
-7 -8 2 58.32 3.76
8 -7 2 50.62 3.93
-7 -8 2 57.88 3.75
8 -8 -2 58.92 4.81
-8 8 -2 63.22 4.48
-8 -8 -2 61.83 4.52
-8 -8 -2 62.92 4.42
-8 8 -2 59.75 4.51
8 -8 2 70.93 4.57
-8 8 2 61.92 4.48
-8 -8 2 62.35 4.27
-8 -8 2 65.49 4.24
8 -8 2 65.53 5.01
-8 8 2 60.98 4.08
-8 9 -2 11.03 2.02
-9 -8 -2 12.87 1.92
-8 9 -2 10.19 1.8
-9 -8 -2 8.48 1.92
8 -9 -2 12.28 2.43
8 -9 2 12.42 2.28
8 -9 2 10.74 1.97
-8 9 2 11.57 1.45
-8 9 2 13.54 2.05
-9 -8 2 11.79 1.64
-9 -8 2 12.98 1.66
-7 9 -2 19.98 2.46
7 -9 -2 21.24 2.86
-9 -7 -2 20.87 2.51
-7 9 -2 20.31 2.29
-9 -7 -2 22.18 2.33
-7 9 2 23.18 2.52
7 -9 2 17.98 2.72
7 -9 2 20.43 2.43
-9 -7 2 23.62 2.14
-9 -6 -2 18.23 2.24
6 -9 -2 8.95 1.94
-6 9 -2 17.64 2.19
-9 -6 -2 14.32 1.94
-6 9 -2 20.27 2.06
6 -9 -2 15.73 2.02
6 -9 2 11.43 1.88
-6 9 2 13.53 2.11
-9 -6 2 12.72 2.03
-9 -6 2 16.66 1.68
5 -9 -2 -0.08 1.26
-5 9 -2 1.35 1.21
-5 9 -2 0.48 1.41
5 -9 -2 2.08 1.74
-9 -5 -2 0.25 0.64
-9 -5 -2 0.61 1.21
-5 9 2 3.22 0.96
-9 -5 2 0.89 1.4
-9 -5 2 3.26 0.99
-5 9 2 0.74 1.42
5 -9 2 -0.33 0.57
5 -9 2 3.81 1.48
-9 -5 2 -0.01 0.33
-9 -4 -2 45.29 3.35
-4 9 -2 49.85 3.54
4 -9 -2 43.08 3.46
4 -9 -2 47.82 3.72
-4 9 -2 44.83 3.45
-9 -4 2 47.21 3.1
-4 9 2 41.06 3.48
4 -9 2 43.89 3.53
-4 9 2 46.73 3.09
-9 -4 2 43.74 3.54
4 -9 2 47.23 3.69
3 -9 -2 120.15 8.03
3 -9 -2 123.66 7.5
-9 -3 -2 114.5 7.57
-3 9 -2 128.04 7.49
-9 -3 -2 111.24 7.35
-3 9 -2 125.61 7.57
-9 -3 2 127.44 7.17
3 -9 2 126.09 7.49
3 -9 2 124.95 8.03
-3 9 2 122.57 7.51
-3 9 2 125.07 7.25
-9 -3 2 121.71 7.58
2 -9 -2 73.41 5.48
-2 9 -2 85.34 5.14
-9 -2 -2 79.75 5.28
-2 9 -2 79.25 5.2
2 -9 -2 80.84 5.17
-9 -2 -2 77.34 5.02
-9 -2 2 82.24 5.18
2 -9 2 78.14 5.13
2 -9 2 69.12 5.34
-2 9 2 83.05 5.16
-9 -2 2 83.51 4.83
-9 -1 -2 16.38 1.97
1 -9 -2 15.58 2.1
-9 -1 -2 18.06 1.93
-1 9 -2 19.48 1.92
1 -9 -2 19.48 1.98
-1 9 -2 19.93 2.04
1 -9 2 18.51 2.2
-1 9 2 16.73 1.98
1 -9 2 22.13 2.06
9 1 2 18.21 1.64
-9 -1 2 16.38 1.89
-9 -1 2 20.91 1.7
-9 0 -2 0.59 1.13
0 -9 -2 3.07 1.21
-9 0 -2 0.38 1.17
0 9 -2 0.61 1.09
0 -9 -2 1.92 1.34
0 -9 2 -1.45 1.08
-9 0 2 1.16 0.83
9 0 2 0.86 0.95
-9 0 2 1.44 0.9
0 -9 2 1.21 1.28
9 0 2 -0.57 0.95
0 9 2 1.33 1.16
-9 0 2 1.92 1.03
-1 -9 -2 28.97 2.45
9 -1 -2 30.46 2.57
1 9 -2 30.26 2.49
-9 1 -2 31.48 2.59
-9 1 -2 31.92 2.64
-1 -9 -2 30.77 2.56
-9 1 2 28.95 2.35
-9 1 2 32.46 2.34
1 9 2 30.39 2.61
-1 -9 2 25.68 2.5
-9 1 2 28.47 2.46
-1 -9 2 29.44 2.66
9 -1 2 28.13 2.48
9 -1 2 30.1 2.46
-2 -9 -2 41.93 2.82
-2 -9 -2 37.09 2.76
9 -2 -2 39.27 2.87
-9 2 -2 32.96 2.86
-9 2 -2 35.82 2.77
-9 2 2 32.41 2.49
-9 2 2 30.63 2.59
2 9 2 33.4 2.78
-2 -9 2 26.99 2.62
-9 2 2 29.72 2.56
9 -2 2 30.67 2.85
9 -2 2 33.17 2.65
-2 -9 2 29.37 2.65
9 -3 -2 4.65 1.5
-3 -9 -2 1.74 1.28
-3 -9 -2 1.24 1.11
-9 3 -2 1.03 1.26
-9 3 -2 1.16 1.23
-3 -9 2 0.91 1.19
-3 -9 2 1.77 1.13
-9 3 2 2.23 1.1
9 -3 2 1.53 1.14
3 9 2 2.8 1.22
-9 3 2 2.89 1.03
-9 3 2 3.49 1.14
9 -3 2 3.76 1.38
9 -4 -2 -1.36 1.37
-4 -9 -2 -1.58 0.81
-4 -9 -2 -0.94 1.09
-9 4 -2 0.74 1.19
-9 4 -2 1.15 1.33
4 9 2 -0.03 1.11
-9 4 2 0.67 1.06
-4 -9 2 -2.01 1.02
9 -4 2 1.9 1.53
-9 4 2 0.12 1.17
-4 -9 2 0.99 1.14
-9 4 2 -0.57 1.03
9 -4 2 0.63 1.13
-5 -9 -2 8.68 1.64
-9 5 -2 8.55 1.7
9 -5 -2 6.14 1.81
-5 -9 -2 9.32 1.19
-9 5 -2 11.12 1.67
-5 -9 2 7.74 1.47
9 -5 2 9.63 1.93
-9 5 2 7.94 1.32
-5 -9 2 8.48 1.53
5 9 2 7.36 1.47
-9 5 2 9.83 1.59
9 -5 2 6.64 1.51
9 -6 -2 -0.11 1.51
-9 6 -2 -0.41 1.4
-6 -9 -2 0.96 1.36
-6 -9 -2 0.77 1.32
-6 -9 -2 -0.44 1.38
-9 6 -2 -2.1 1.24
-6 -9 -2 -0.14 0.74
-9 6 2 0.83 0.97
-6 -9 2 0.57 1.18
9 -6 2 0.66 1.64
9 -6 2 -0.65 1.23
-9 6 2 -0.26 1.32
-7 -9 -2 1.84 1.51
9 -7 -2 3.2 1.97
-9 7 -2 3.95 1.63
-9 7 -2 5.06 1.52
-7 -9 -2 8.3 1.75
-7 -9 -2 5.74 1.66
-7 -9 2 4.08 1.42
9 -7 2 5.02 1.52
-9 7 2 8.3 1.29
9 -7 2 5.23 2.01
-9 7 2 6.44 1.68
-8 -9 -2 17.1 2.35
-8 -9 -2 21.4 2.33
-9 8 -2 16.83 2.36
-8 -9 -2 18.62 2.28
9 -8 -2 20.48 2.82
-9 8 -2 18.32 2.15
-9 8 2 22.18 1.91
-9 8 2 18.51 2.36
-8 -9 2 17.64 2.09
9 -8 2 20.99 2.68
-9 -9 -2 -0.74 1.42
-9 9 -2 1.27 1.43
9 -9 -2 -3.4 1.71
-9 9 -2 0.67 1.38
-9 -9 -2 0.03 1.41
9 -9 2 -1.38 1.81
-9 -9 2 0.21 1.22
-9 9 2 0.76 1.05
-9 9 2 0.06 1.47
9 -10 -2 11.63 2.57
-9 10 -2 8.93 2.13
-10 -9 -2 13.75 2.26
-10 -9 -2 8.4 1.91
-9 10 -2 10.44 1.89
-10 -9 2 10.45 1.79
9 -10 2 14.75 2.59
-9 10 2 15.44 2.26
-10 -9 2 14.62 1.85
-10 -8 -2 11.21 2.04
-8 10 -2 12.35 1.97
-10 -8 -2 13.6 2.07
-8 10 -2 13.65 2.09
8 -10 -2 13.28 2.51
8 -10 2 17.44 2.23
8 -10 2 12.47 2.44
-8 10 2 13.48 1.54
-10 -8 2 12.39 1.78
-10 -8 2 13.47 1.79
-8 10 2 14.31 2.17
-10 -7 -2 3.54 1.52
-7 10 -2 1.53 1.59
7 -10 -2 -1.08 1.55
-10 -7 -2 0.86 1.41
-7 10 -2 1.5 1.3
7 -10 2 -1.3 1.35
-10 -7 2 2.41 1.14
-7 10 2 -0.74 1.47
-7 10 2 2.6 1.04
7 -10 2 -1.26 1.71
-6 10 -2 1.73 1.56
6 -10 -2 0.59 1.66
-10 -6 -2 2.24 1.39
6 -10 -2 0.08 1.41
-6 10 -2 -0.55 1.23
-10 -6 -2 2.65 1.52
-6 10 2 3.1 1.5
6 -10 2 0.63 1.73
6 -10 2 -0.6 1.39
-10 -6 2 1.26 1.13
-6 10 2 1.57 1
-10 -6 2 1.16 1.33
-5 10 -2 -0.16 1.3
-10 -5 -2 1.02 1.3
5 -10 -2 1.26 1.38
5 -10 -2 -1.74 1.76
-5 10 -2 1.07 1.44
-10 -5 -2 0.92 1.33
5 -10 2 2.14 1.33
-10 -5 2 -1.29 1.32
-10 -5 2 0.94 1.02
-10 -5 2 -0.25 1.02
-5 10 2 0.24 0.7
5 -10 2 -0.07 1.75
-5 10 2 -1.89 1.38
-10 -4 -2 26.79 2.55
-4 10 -2 29.47 2.75
4 -10 -2 28.15 2.71
-4 10 -2 26.28 2.52
-10 -4 -2 24.61 2.55
4 -10 -2 28.3 3.11
-4 10 2 24.87 2.64
-10 -4 2 30.75 2.78
-10 -4 2 26.77 2.25
4 -10 2 22.66 2.78
4 -10 2 30.24 2.75
-3 10 -2 25.37 2.51
-3 10 -2 27.18 2.59
-10 -3 -2 32.8 2.59
3 -10 -2 25.53 2.5
-10 -3 -2 26.22 2.67
3 -10 -2 22.15 2.74
-3 10 2 23.44 2.14
-10 -3 2 25.19 2.5
3 -10 2 21.57 2.75
-10 -3 2 25.75 2.17
-3 10 2 27.23 2.63
3 -10 2 26.79 2.49
-10 -2 -2 60.75 4.19
2 -10 -2 56.79 4.03
2 -10 -2 57.79 4.41
-2 10 -2 61.59 4.01
-10 -2 -2 57.57 3.97
-2 10 -2 56.77 4.14
2 -10 2 56.07 4.06
-10 -2 2 54.64 3.73
-2 10 2 55.63 4.1
2 -10 2 55.03 4.36
-2 10 2 56.67 3.83
-10 -2 2 57.9 4.09
1 -10 -2 32.82 3.13
1 -10 -2 29.22 2.91
-10 -1 -2 33.55 2.86
-1 10 -2 32.86 2.94
-10 -1 -2 28.74 2.99
-1 10 -2 32.72 2.97
1 -10 2 38.74 3.09
1 -10 2 37.88 3.02
-10 -1 2 37.89 2.93
-1 10 2 36.58 2.99
-10 -1 2 39.78 2.62
10 1 2 38.49 2.65
0 -10 -2 25.67 2.47
0 10 -2 24.43 2.36
-10 0 -2 22.14 2.44
-10 0 -2 24.26 2.35
0 -10 -2 28.93 2.6
10 0 -2 25.15 2.25
-10 0 2 22.2 2.24
0 -10 2 20.49 2.29
10 0 2 22.51 2.11
0 -10 2 25.68 2.54
-10 0 2 22.26 2.04
0 10 2 24.79 2.42
-10 1 -2 53.03 3.91
-1 -10 -2 56.56 3.87
-10 1 -2 52.26 3.75
1 10 -2 56.01 3.72
10 -1 -2 54.76 3.89
-1 -10 -2 52.07 3.85
-10 1 2 52.34 3.71
-10 1 2 55.38 3.53
10 -1 2 45.32 3.7
-1 -10 2 50.7 3.75
-1 -10 2 49.43 3.91
10 -1 2 49.63 3.62
1 10 2 47.6 3.66
-2 -10 -2 60.28 4.18
-10 2 -2 60.82 4.13
10 -2 -2 61.23 4.19
-2 -10 -2 55.03 4.05
-10 2 -2 62.11 4.15
10 -2 2 53.38 3.9
2 10 2 52.48 3.98
-2 -10 2 54.62 3.97
-10 2 2 56.16 3.9
10 -2 2 49.88 4.1
-2 -10 2 52.85 4.06
-10 2 2 55.87 3.85
-10 2 2 62.16 3.86
-10 3 -2 27.24 2.56
-3 -10 -2 22.94 2.32
10 -3 -2 22.96 2.53
-3 -10 -2 25.46 2.55
-10 3 -2 24.11 2.47
-3 -10 2 24.18 2.33
-10 3 2 27.09 2.39
-10 3 2 27.88 2.38
3 10 2 23.91 2.43
10 -3 2 26.39 2.6
10 -3 2 27.61 2.45
-3 -10 2 21.25 2.36
-4 -10 -2 1.77 1.18
-10 4 -2 4.81 1.56
-10 4 -2 3.29 1.44
-4 -10 -2 2.13 1.45
10 -4 -2 1.2 1.66
-10 4 2 0.18 1.12
4 10 2 2.5 1.36
-4 -10 2 4.28 1.37
10 -4 2 1.05 1.53
-10 4 2 2.75 1.39
10 -5 -2 2.39 1.78
-10 5 -2 6.29 1.52
-10 5 -2 4.17 1.61
-5 -10 -2 2.47 0.9
-5 -10 -2 4.63 1.56
-5 -10 2 1.62 1.4
-10 5 2 6 1.28
-10 5 2 4.8 1.57
10 -5 2 7.19 1.83
10 -6 -2 16.48 2.56
-10 6 -2 11.94 2.06
-6 -10 -2 15.42 2.12
-10 6 -2 14.41 1.97
-6 -10 2 17.38 2.05
-10 6 2 13.5 2.05
-10 6 2 17.62 1.83
10 -6 2 18.67 2.53
-10 7 -2 8.24 1.78
-10 7 -2 12.67 1.85
-7 -10 -2 8.91 1.82
10 -7 -2 9.44 2.27
-10 7 2 11.64 1.51
10 -7 2 12.03 2.29
-10 7 2 12.79 2
-7 -10 2 9.45 1.73
-10 8 -2 0.57 1.55
10 -8 -2 2.47 1.92
-10 8 -2 3.37 1.44
-8 -10 -2 0.37 1.52
-8 -10 -2 3.36 1.58
-8 -10 -2 1.54 1.51
10 -8 2 2.97 1.9
-10 8 2 1.37 1.08
-8 -10 2 2.28 1.42
-10 8 2 0.44 1.51
-10 9 -2 3.33 1.52
10 -9 -2 4.78 2.16
-9 -10 -2 5.64 1.7
-9 -10 -2 5.22 1.66
-10 9 -2 2.63 1.72
-9 -10 -2 3.61 1.69
-9 -10 2 4.61 1.49
-10 9 2 5.43 1.84
10 -9 2 -0.82 1.92
-10 -10 -2 3.73 1.79
-10 -10 -2 -0.34 1.62
10 -10 -2 0.36 2.04
-10 10 -2 1.57 1.77
-10 10 -2 0.26 1.43
-10 -10 -2 -1.18 1.57
-10 -10 2 -1.23 1.33
10 -10 2 1.52 2.04
-10 10 2 -1.61 1.6
-11 -10 -2 3.47 1.92
-11 -10 -2 2.36 1.87
-10 11 -2 6.25 2.08
-11 -10 -2 12.12 2.2
10 -11 -2 6.28 2.32
-10 11 -2 7.23 1.8
-10 11 2 4.78 2.05
10 -11 2 5.82 2.37
-11 -10 2 7.89 1.74
-11 -9 -2 9.14 2.19
-11 -9 -2 13.36 2.21
9 -11 -2 11.12 2.59
-9 11 -2 8.46 2.2
-9 11 -2 12.73 2.02
-9 11 2 11.52 2.27
-11 -9 2 13.67 1.98
9 -11 2 16.45 2.75
-11 -9 2 12.74 1.91
-8 11 -2 13.26 2.27
-8 11 -2 11.1 1.98
-11 -8 -2 6.5 1.82
-11 -8 -2 12.7 2.21
8 -11 -2 16.97 2.68
8 -11 2 14.47 2.45
-11 -8 2 13.46 1.8
-8 11 2 10.83 2.16
-11 -7 -2 5.01 1.58
7 -11 -2 5.78 2.04
-7 11 -2 2.01 1.5
-11 -7 -2 4.42 1.73
-7 11 -2 3.53 1.71
-7 11 2 2.78 1.66
7 -11 2 2.84 1.69
-11 -7 2 3 1.22
7 -11 2 4.88 1.83
-11 -7 2 7.21 1.82
6 -11 -2 3.37 1.78
-11 -6 -2 -0.41 1.41
-6 11 -2 1.04 1.34
-6 11 -2 1.87 1.64
-11 -6 -2 0.34 1.38
6 -11 2 -0.87 1.66
-11 -6 2 0.96 1.47
-11 -6 2 -0.06 1.08
6 -11 2 -0.53 1.42
-6 11 2 0.67 1.04
-6 11 2 1.89 1.57
-11 -5 -2 1.51 1.43
5 -11 -2 -0.1 1.82
-11 -5 -2 2.44 1.48
-5 11 -2 3.1 1.45
5 -11 -2 2.9 1.53
-5 11 -2 3.26 1.61
-5 11 2 1.56 1.04
5 -11 2 1.83 1.56
5 -11 2 2.2 1.87
-11 -5 2 0.66 1.08
-5 11 2 2.33 1.46
-11 -5 2 0.88 1.45
-11 -4 -2 5.83 1.64
-4 11 -2 7.73 1.66
4 -11 -2 7.86 1.81
-11 -4 -2 7.24 1.65
-4 11 -2 7.44 1.65
4 -11 -2 10.06 2.16
-11 -4 2 6.38 1.25
-4 11 2 8.12 1.34
-11 -4 2 8.04 1.74
-11 -4 2 8.29 1.39
4 -11 2 9.05 2.13
-4 11 2 7.91 1.8
4 -11 2 7.18 1.79
-11 -3 -2 2.66 1.49
-3 11 -2 0.74 1.43
3 -11 -2 0.38 1.77
-3 11 -2 0.36 1.32
3 -11 -2 2.06 1.48
-11 -3 -2 1.58 1.49
11 3 -2 1.19 0.99
-11 -3 2 -0.34 1.07
-11 -3 2 0.69 1.08
-3 11 2 2.98 1.17
3 -11 2 2.28 1.75
-3 11 2 3.14 1.57
-11 -3 2 2.96 1.47
3 -11 2 1.28 1.47
-2 11 -2 14.42 2.1
-11 -2 -2 12.28 1.95
2 -11 -2 16.5 2.36
-11 -2 -2 14.62 2.1
-2 11 -2 13.07 1.94
2 -11 -2 17.37 2.18
11 2 -2 15.97 1.74
-2 11 2 18.27 1.79
2 -11 2 18.68 2.2
2 -11 2 17.82 2.41
-11 -2 2 14.83 1.71
-11 -2 2 16.87 1.73
-2 11 2 19.77 2.24
-11 -2 2 17.18 2.15
-11 -1 -2 -0.37 1.43
-1 11 -2 1.01 1.35
1 -11 -2 2.89 1.66
-1 11 -2 3.74 1.45
-11 -1 -2 2.89 1.45
11 1 -2 4.33 1.3
1 -11 -2 2.32 1.51
-1 11 2 3.14 1.51
-11 -1 2 1.9 1.07
-11 -1 2 1.49 0.88
11 1 2 4.7 1.15
1 -11 2 5.27 1.72
-11 -1 2 2.13 1.36
1 -11 2 1.37 1.45
-11 0 -2 9.91 1.74
-11 0 -2 9.14 1.72
11 0 -2 10.09 1.63
0 -11 -2 8.38 1.83
0 -11 -2 9.83 1.84
-11 0 2 8.36 1.39
0 -11 2 8.5 1.73
-11 0 2 9.07 1.62
-11 0 2 6.37 1.37
0 -11 2 8.3 1.85
11 0 2 10.54 1.54
0 11 2 7.02 1.7
11 -1 -2 49.4 3.84
-11 1 -2 52.33 4
-1 -11 -2 41.04 3.8
-1 -11 -2 48.54 3.85
-11 1 -2 44.03 3.69
-1 -11 2 47.18 3.8
-11 1 2 56.17 3.73
-11 1 2 49.65 3.59
-1 -11 2 51.31 3.97
1 11 2 57.32 3.9
11 -1 2 57.96 3.85
-2 -11 -2 87.22 5.87
-11 2 -2 90.3 5.94
-2 -11 -2 88.33 6.11
11 -2 -2 89.34 6.21
-11 2 -2 94.15 6.09
-2 -11 2 96.92 5.98
-2 -11 2 96.87 6.1
-11 2 2 92.91 5.84
-11 2 2 89.09 5.83
11 -2 2 92.2 6.13
2 11 2 92.07 5.97
-3 -11 -2 41.62 3.44
-3 -11 -2 38 3
-11 3 -2 36.86 3.19
11 -3 -2 40.27 3.36
-11 3 -2 38.68 3.28
-11 3 2 37.48 2.97
11 -3 2 34.33 3.21
-11 3 2 36.81 3.11
-3 -11 2 40.92 3.23
-3 -11 2 30.14 2.99
-4 -11 -2 2.94 1.23
11 -4 -2 2.15 1.66
-4 -11 -2 2.79 1.48
-11 4 -2 2.53 1.44
-11 4 -2 -0.89 1.43
-11 4 2 3.42 1.28
-4 -11 2 1.37 1.35
-11 4 2 -1.25 1.23
11 -4 2 0.97 1.68
-5 -11 -2 9.58 1.97
11 -5 -2 11.24 2.22
-11 5 -2 11.17 2.07
-5 -11 -2 12.97 1.58
-11 5 -2 15.78 2.05
11 -5 2 14.25 2.23
-11 5 2 13.51 1.94
-5 -11 2 12.5 1.94
-11 5 2 14.78 1.77
-11 6 -2 30.95 2.9
-11 6 -2 31.83 3.1
11 -6 -2 33.32 3.36
-6 -11 -2 24.95 2.88
-6 -11 2 36.16 2.92
-11 6 2 33.78 2.68
11 -6 2 25.65 3.12
-11 6 2 28.11 2.92
-11 7 -2 21.8 2.39
-7 -11 -2 20.32 2.48
11 -7 -2 21.56 2.91
-11 7 -2 18.92 2.51
11 -7 2 22.6 2.84
-11 7 2 21.66 2.53
-7 -11 2 18.63 2.31
-11 7 2 21.74 2.11
11 -8 -2 4.83 2.12
-11 8 -2 5.24 1.92
-11 8 -2 3.39 1.58
-8 -11 -2 1.37 1.54
-11 8 2 4.78 1.75
-8 -11 2 2.1 1.52
-11 8 2 2.19 1.24
11 -8 2 4.7 2.06
11 -9 -2 -2.84 1.87
-9 -11 -2 0.41 1.58
-11 9 -2 0 1.37
-11 9 -2 0.35 1.71
11 -9 2 -0.56 1.9
-11 9 2 2.31 1.7
-9 -11 2 1.17 1.39
-11 10 -2 2.87 1.6
-10 -11 -2 0.16 1.73
11 -10 -2 1.83 2.25
-11 10 -2 2.94 1.89
-10 -11 -2 0.01 1.81
-11 10 2 2.82 1.95
11 -10 2 7.87 2.4
-10 -11 2 1.59 1.56
11 -11 -2 -2.4 2.17
-11 11 -2 1.32 1.56
-11 11 -2 0.24 1.87
-11 -11 -2 -2.02 1.68
-11 -11 -2 0.25 1.8
-11 -11 2 0.69 1.52
11 -11 2 2.59 2.27
-11 11 2 2.13 1.9
-11 12 -2 -1.28 1.69
-12 -11 -2 -0.31 1.74
-12 -11 -2 -2.35 1.63
-12 -11 -2 2.43 1.77
11 -12 -2 0.86 2.34
-11 12 -2 0.93 1.57
-11 12 2 2.62 2.01
11 -12 2 0.93 2.3
-12 -11 2 2.52 1.65
-10 12 -2 6.09 2.21
-12 -10 -2 5.55 1.94
-12 -10 -2 3.1 1.95
-10 12 -2 4.27 1.74
10 -12 -2 3.26 2.42
-12 -10 2 1.09 1.51
10 -12 2 1.32 2.22
-10 12 2 8.02 2.22
-9 12 -2 11.88 2.07
9 -12 -2 10.98 2.7
-12 -9 -2 11.21 2.34
-12 -9 -2 10.09 2.19
-9 12 -2 14.69 2.49
-12 -9 2 13.99 1.91
9 -12 2 13.02 2.74
-9 12 2 11.1 2.37
-12 -9 2 9.22 1.85
-12 -8 -2 18.21 2.45
8 -12 -2 19.87 2.91
-8 12 -2 18.43 2.68
-8 12 -2 20.69 2.41
-12 -8 -2 17.19 2.55
8 -12 2 14 2.81
-12 -8 2 19.47 2.23
-8 12 2 20.05 2.68
7 -12 -2 11.87 2.35
-12 -7 -2 10.97 2.1
-12 -7 -2 6.48 1.74
-7 12 -2 7.11 2.01
-7 12 -2 8.17 1.8
-7 12 2 3.5 1.9
7 -12 2 5.73 2.15
-12 -7 2 6.97 1.54
-12 -7 2 7.09 1.95
7 -12 2 6.61 1.92
-6 12 -2 0.23 1.64
6 -12 -2 2.21 2.01
-6 12 -2 -0.32 1.26
-12 -6 -2 0.75 1.49
-12 -6 -2 -1.7 1.37
6 -12 2 5.56 1.91
-12 -6 2 1.02 1.11
-12 -6 2 -0.17 1.41
6 -12 2 -0.3 1.41
-6 12 2 2.97 1.71
-12 -5 -2 2.23 1.47
-12 -5 -2 1.26 1.48
-5 12 -2 1.56 1.45
-5 12 -2 0.23 1.53
5 -12 -2 3.1 2
5 -12 2 -0.32 1.61
-12 -5 2 2.19 1.55
5 -12 2 1.83 1.55
-12 -5 2 1.74 1.13
-5 12 2 1.16 1.67
-5 12 2 -0.15 1.01
-12 -4 -2 9.54 1.84
4 -12 -2 12.96 2.03
4 -12 -2 13.04 2.35
-12 -4 -2 7.57 1.73
-4 12 -2 9.96 1.74
-4 12 2 8.42 1.92
-4 12 2 7.93 1.38
4 -12 2 9.62 1.92
-12 -4 2 7.68 1.82
4 -12 2 10.56 2.18
-12 -4 2 9.36 1.45
-12 -3 -2 8.03 1.78
3 -12 -2 8.84 1.87
-12 -3 -2 9.02 1.76
3 -12 -2 9.93 2.19
-3 12 -2 8.02 1.72
-3 12 2 7.72 1.45
-12 -3 2 9.12 1.51
-3 12 2 9.74 1.96
-12 -3 2 7.24 1.74
3 -12 2 8.35 1.93
3 -12 2 13.17 2
-2 12 -2 7 1.68
2 -12 -2 7.88 1.79
-12 -2 -2 5.92 1.62
2 -12 -2 4.39 1.88
12 2 -2 7.72 1.33
-12 -2 -2 8.31 1.85
2 -12 2 6.41 1.74
-2 12 2 9.02 1.51
-12 -2 2 8.13 1.76
-12 -2 2 7.35 1.38
2 -12 2 9.12 1.98
-2 12 2 9.57 1.87
-12 -1 -2 2.94 1.48
1 -12 -2 6.66 1.78
-12 -1 -2 6.2 1.76
12 1 -2 5.62 1.37
-1 12 -2 6.56 1.67
1 -12 -2 4.77 1.83
1 -12 2 6.94 1.87
-12 -1 2 6.73 1.41
12 1 2 5.94 1.22
-1 12 2 8.97 1.55
-12 -1 2 5.75 1.59
-1 12 2 6.06 1.74
1 -12 2 3.32 1.66
-12 0 -2 -0.81 1.37
12 0 -2 3.36 1.38
-12 0 -2 0.44 1.46
0 12 -2 0.99 1.42
0 -12 -2 -2.26 1.41
0 -12 -2 3.33 1.7
0 -12 2 1.95 1.59
0 12 2 1.17 1.47
-12 0 2 -0.75 1.2
12 0 2 0.4 1.17
-12 0 2 1.48 1.31
0 -12 2 0.06 1.39
12 -1 -2 1.67 1.42
-1 -12 -2 -0.41 1.41
-12 1 -2 -0.39 1.45
-12 1 -2 0.12 1.51
-1 -12 -2 -1.67 1.52
12 -1 2 -1.2 1.29
-1 -12 2 3.71 1.54
-1 -12 2 -0.45 1.44
-12 1 2 1.44 1.35
-12 1 2 0.84 1.27
-12 2 -2 2.15 1.52
-2 -12 -2 1.48 1.42
-12 2 -2 -0.47 1.49
-2 -12 -2 -0.24 1.5
12 -2 -2 0.38 1.52
-2 -12 2 2.11 1.47
-12 2 2 3.21 1.4
-12 2 2 4.41 1.43
-2 -12 2 4.24 1.44
12 -2 2 2.44 1.42
-3 -12 -2 0.51 1.37
-12 3 -2 2.37 1.48
12 -3 -2 1.78 1.64
-12 3 -2 -0.46 1.55
-3 -12 -2 0.73 1.31
-12 3 2 -0.2 1.38
-12 3 2 3.52 1.34
-3 -12 2 3.5 1.54
-3 -12 2 3 1.38
12 -3 2 4.3 1.58
12 -4 -2 1.65 1.65
-12 4 -2 1.2 1.42
-4 -12 -2 1.07 1.21
-4 -12 -2 0.77 1.47
-12 4 -2 -0.59 1.48
-12 4 2 0.14 1.29
-4 -12 2 1.01 1.54
12 -4 2 0.38 1.53
-12 4 2 -0.75 1.24
12 -5 -2 11.88 2.21
-5 -12 -2 9.31 1.97
-12 5 -2 11.17 1.88
-12 5 -2 9.18 1.96
-5 -12 -2 8.84 1.48
-5 -12 2 12.78 1.91
12 -5 2 8.88 2
-12 5 2 10.76 1.7
-12 5 2 9.19 1.81
-12 6 -2 15.18 2.35
-12 6 -2 18.18 2.31
-6 -12 -2 15.48 2.33
12 -6 -2 15.61 2.68
-12 6 2 19.14 2.08
-12 6 2 13.76 2.22
12 -6 2 18.19 2.6
-6 -12 2 15.85 2.25
12 -7 -2 16.26 2.74
-12 7 -2 18.36 2.56
-12 7 -2 16.48 2.28
-7 -12 -2 22.13 2.64
-12 7 2 17.96 2.47
12 -7 2 18.16 2.7
-12 7 2 19.1 2.14
-7 -12 2 18.73 2.35
-12 8 -2 6.33 1.83
-8 -12 -2 2.27 1.8
12 -8 -2 5.3 2.21
-12 8 -2 3.49 1.76
-8 -12 2 6.25 1.74
12 -8 2 4.66 2.18
-12 8 2 5.9 1.92
-12 9 -2 -1.19 1.75
-9 -12 -2 -2.01 1.66
-12 9 -2 -1.85 1.44
12 -9 -2 2.21 2.19
-12 9 2 0.74 1.85
-9 -12 2 0.14 1.57
12 -9 2 2.47 2.13
-10 -12 -2 4.61 1.93
-12 10 -2 1.59 1.65
12 -10 -2 4.27 2.45
-12 10 -2 5.45 2.1
-12 10 2 3.8 1.99
12 -10 2 3.86 2.31
-10 -12 2 3.17 1.71
12 -11 -2 8.49 2.73
-12 11 -2 5.87 2.19
-12 11 -2 3.36 1.77
-11 -12 -2 6.52 2.01
-12 11 2 6.83 2.22
-11 -12 2 3.21 1.83
12 -11 2 2.27 2.3
-12 -12 -2 3.91 2.07
12 -12 -2 0.56 2.46
-12 12 -2 1.87 2.12
-12 12 2 -0.12 2.05
12 -12 2 2.32 2.42
-12 -12 2 0.92 1.8
-13 -12 -2 -2.15 1.99
12 -13 -2 0.58 2.51
-13 -12 -2 0.5 1.95
-13 -12 2 -1.05 1.69
12 -13 2 -1.12 2.4
-12 13 2 -1.16 2.18
-13 -11 -2 0.87 1.99
-13 -11 -2 -1.67 1.65
-13 -11 -2 -1.45 1.69
11 -13 -2 -0.23 2.42
-13 -11 2 -3.44 1.39
-11 13 2 2.27 2.1
11 -13 2 -0.67 2.37
-10 13 -2 3.68 1.71
10 -13 -2 5.03 2.55
-13 -10 -2 2.23 1.87
-13 -10 -2 3.43 2.02
-13 -10 2 0.1 1.51
-13 -10 2 4.13 1.68
10 -13 2 6.44 2.56
-10 13 2 2.36 2.16
9 -13 -2 8.21 2.55
-9 13 -2 8.07 1.9
-13 -9 -2 5.21 1.9
-13 -9 -2 6.75 2.19
-9 13 2 8.91 2.3
-13 -9 2 5.51 1.7
9 -13 2 1.71 2.04
-13 -9 2 6.66 1.75
-8 13 -2 10.13 2
-13 -8 -2 9.08 2.05
8 -13 -2 9.4 2.47
-13 -8 -2 8.5 2.18
-8 13 2 10.54 2.37
-13 -8 2 7.24 1.73
8 -13 2 12.89 2.61
-7 13 -2 5.91 1.77
7 -13 -2 5.11 2.32
-13 -7 -2 2.77 1.67
-13 -7 -2 1.32 1.58
-7 13 2 2.58 1.95
-13 -7 2 2.52 1.67
7 -13 2 5.62 2.01
-13 -7 2 0.98 1.39
6 -13 -2 2.47 1.95
-13 -6 -2 -0.28 1.48
-13 -6 -2 1.63 1.64
-6 13 -2 2.34 1.56
6 -13 2 1.65 2.05
-13 -6 2 -2.38 1.52
-6 13 2 -0.85 1.73
6 -13 2 1.26 1.74
-13 -6 2 1.6 1.33
-13 -5 -2 5.07 1.85
-13 -5 -2 4.72 1.75
-5 13 -2 4.97 1.7
5 -13 -2 7.52 2.27
-13 -5 2 6.14 1.43
-5 13 2 8.05 2.08
-13 -5 2 6.14 1.89
5 -13 2 4.27 1.81
5 -13 2 6.58 2.22
-13 -4 -2 17.3 2.39
4 -13 -2 16.8 2.29
-4 13 -2 17.86 2.23
-13 -4 -2 15.91 2.22
4 -13 -2 17.09 2.72
-4 13 2 16.13 2.44
4 -13 2 13.06 2.3
-13 -4 2 13.32 1.89
4 -13 2 19.94 2.74
-13 -4 2 17.78 2.42
-4 13 2 16.55 1.84
3 -13 -2 14.51 2.42
-13 -3 -2 8.87 1.91
-3 13 -2 12.29 2.04
3 -13 -2 17.06 2.24
-13 -3 -2 8.33 2.05
-13 -3 2 9.89 1.93
3 -13 2 12.05 2.35
-3 13 2 12.58 2.18
-3 13 2 13.44 1.76
3 -13 2 11.14 2.03
-13 -3 2 11.96 1.72
2 -13 -2 8.44 1.94
-13 -2 -2 6.92 1.88
-2 13 -2 4.65 1.64
-13 -2 -2 5.44 1.7
2 -13 -2 9.44 2.15
-2 13 2 9.59 1.58
2 -13 2 5.81 1.84
-13 -2 2 8.2 1.81
2 -13 2 7.58 2.08
-2 13 2 4.86 1.82
-13 -2 2 10.11 1.55
1 -13 -2 1.07 1.54
-1 13 -2 1.45 1.46
-13 -1 -2 3.86 1.61
1 -13 -2 -1.34 1.69
13 1 -2 2.44 1.31
-13 -1 -2 0.69 1.34
-13 -1 2 2.81 1.32
-1 13 2 0.92 1.26
1 -13 2 0.33 1.52
-13 -1 2 3.13 1.46
1 -13 2 0.05 1.57
0 13 -2 9.78 1.94
0 -13 -2 10.69 2.04
13 0 -2 9.76 1.75
0 -13 -2 10.07 2.05
-13 0 -2 12.92 2.12
-13 0 -2 10.75 1.92
-13 0 2 14.11 1.79
-13 0 2 12.7 1.95
0 -13 2 11.57 2.01
13 0 2 14.29 1.71
0 -13 2 13.27 2.12
13 -1 -2 2.44 1.44
-13 1 -2 3.51 1.63
-13 1 -2 2.87 1.64
-1 -13 -2 0.49 1.57
-1 -13 -2 1.75 1.52
13 -1 2 4.18 1.4
-13 1 2 4.7 1.48
-13 1 2 4.51 1.46
-1 -13 2 4.27 1.66
-1 -13 2 4.21 1.55
-2 -13 -2 2.95 1.65
-13 2 -2 0.02 1.49
13 -2 -2 3.18 1.6
-2 -13 -2 1.32 1.47
-13 2 -2 4.82 1.69
-13 2 2 4.26 1.4
-2 -13 2 3.26 1.62
13 -2 2 4.26 1.54
-13 2 2 3.16 1.45
-2 -13 2 0.58 1.47
13 -3 -2 3.89 1.65
-3 -13 -2 0.92 1.33
-13 3 -2 3.38 1.6
-13 3 -2 4.13 1.63
-3 -13 -2 2.26 1.62
13 -3 2 0.58 1.46
-3 -13 2 2.79 1.67
-13 3 2 1.24 1.33
-13 3 2 3.22 1.57
-4 -13 -2 1.8 1.34
-13 4 -2 3.66 1.71
13 -4 -2 6.77 1.91
-13 4 -2 4.65 1.65
-4 -13 -2 0.81 1.51
-13 4 2 2.39 1.64
-4 -13 2 0.35 1.48
-13 4 2 2.15 1.38
13 -4 2 2.16 1.6
-13 5 -2 1.5 1.45
-5 -13 -2 2.03 1.78
-13 5 -2 0.36 1.62
13 -5 -2 2.12 1.86
-5 -13 2 2.81 1.63
-13 5 2 4.03 1.48
13 -5 2 1.26 1.72
-13 5 2 3.93 1.71
13 -6 -2 5.39 2.25
-13 6 -2 5.41 1.94
-13 6 -2 1.85 1.59
-6 -13 -2 7.88 1.94
-6 -13 2 4.46 1.8
-13 6 2 2.75 1.69
13 -6 2 5.18 2.08
-13 6 2 4.99 1.55
13 -7 -2 8.22 2.32
-7 -13 -2 3.85 1.87
-13 7 -2 8.67 2.13
-13 7 -2 4.87 1.83
-13 7 2 4.17 1.5
-7 -13 2 5.27 1.86
-13 7 2 2.23 1.71
13 -7 2 2.4 2.07
-13 8 -2 1.59 1.89
-8 -13 -2 -0.04 1.71
13 -8 -2 -0.9 2.01
-13 8 -2 -1.61 1.54
13 -8 2 -1.54 1.93
-13 8 2 -0.26 1.75
-8 -13 2 -0.89 1.56
-13 9 -2 0.47 1.88
-13 9 -2 0.79 1.53
13 -9 -2 2.25 2.29
-9 -13 -2 -2.41 1.68
13 -9 2 -1.63 2.01
-13 9 2 0.48 1.91
-9 -13 2 -0.02 1.68
-13 10 -2 2.93 2.07
-13 10 -2 2.03 1.64
-10 -13 -2 1.71 1.86
13 -10 -2 3.87 2.48
-10 -13 2 2.24 1.78
-13 10 2 3.65 2.03
13 -10 2 -0.15 2.15
-11 -13 -2 5.86 2.11
-13 11 -2 4.92 2.26
-13 11 -2 8.29 1.98
13 -11 -2 5.65 2.7
13 -11 2 4.26 2.55
-13 11 2 4.45 2.38
-11 -13 2 5.11 1.91
-12 -13 -2 2.75 2.09
-13 12 -2 3.13 2.25
13 -12 -2 0.49 2.65
-12 -13 2 1.99 1.93
-13 12 2 2.8 2.21
13 -12 2 -0.11 2.53
-14 -11 -2 -0.78 1.99
-14 -11 -2 -1.1 1.97
11 -14 -2 -1.84 2.52
-14 -11 -2 -0.44 1.91
11 -14 2 2.7 2.56
-14 -11 2 2.47 1.67
-11 14 2 0.1 2.11
10 -14 -2 5.54 2.69
-14 -10 -2 4.51 2.11
-14 -10 -2 2.98 1.91
-10 14 2 4.64 2.25
10 -14 2 -1.36 2.25
-14 -10 2 -0.92 1.65
-14 -10 2 0.2 1.56
9 -14 -2 2.22 2.36
-14 -9 -2 2.42 1.9
-14 -9 -2 2.66 1.85
-14 -9 2 1.52 1.55
9 -14 2 0.69 2.25
-9 14 2 1.74 2.02
-14 -9 2 2.04 1.62
8 -14 -2 0.97 2.35
-8 14 -2 2 1.64
-14 -8 -2 3.89 1.78
-14 -8 -2 1.49 1.67
8 -14 2 0.77 2.15
-8 14 2 -1.62 1.91
-14 -8 2 0.52 1.53
7 -14 -2 1.78 2.26
-7 14 -2 2.29 1.65
-14 -7 -2 -0.23 1.68
-14 -7 -2 0.68 1.72
-7 14 2 -1.18 1.65
-14 -7 2 -0.1 1.44
-14 -7 2 2.33 1.8
7 -14 2 -1.02 2.08
6 -14 -2 -4.02 2.06
-14 -6 -2 -0.76 1.59
-6 14 -2 -1.58 1.48
-14 -6 -2 0.94 1.74
-14 -6 2 2.47 1.84
-14 -6 2 -2.89 1.29
-6 14 2 -0.6 1.86
6 -14 2 1.15 2.17
5 -14 -2 2.54 2.23
-5 14 -2 3.81 1.79
-14 -5 -2 3.36 1.89
-14 -5 -2 2.48 1.74
5 -14 2 4.15 2
-14 -5 2 6.38 1.96
-14 -5 2 3.97 1.42
5 -14 2 6.79 2.41
-5 14 2 4.85 2.06
-14 -4 -2 8.12 2.16
4 -14 -2 11.95 2.59
-4 14 -2 11.59 2.04
-14 -4 -2 9.09 1.98
4 -14 2 8.72 2.16
4 -14 2 11.66 2.48
-14 -4 2 7.45 2.05
-14 -4 2 10.68 1.71
-14 -3 -2 8.41 2.06
-14 -3 -2 7.43 1.94
3 -14 -2 5.58 1.96
3 -14 -2 10.92 2.4
-3 14 -2 10.19 1.92
3 -14 2 6.76 1.97
-14 -3 2 6.91 1.57
-14 -3 2 5.77 1.84
3 -14 2 4.03 2.1
-14 -2 -2 0.28 1.67
-2 14 -2 1.57 1.63
-14 -2 -2 2.57 1.61
2 -14 -2 2.51 1.74
2 -14 -2 -1.67 1.8
-2 14 2 0.55 1.32
-14 -2 2 4.23 1.41
2 -14 2 0.54 1.69
2 -14 2 2.49 1.88
-14 -2 2 2.22 1.65
-14 -1 -2 3.94 1.73
1 -14 -2 3.96 1.78
-14 -1 -2 4.06 1.85
1 -14 -2 1.94 1.94
-1 14 -2 7.59 1.77
-14 -1 2 4.49 1.67
1 -14 2 6.99 1.96
-1 14 2 5.64 1.55
1 -14 2 3.87 1.73
-14 -1 2 3.73 1.51
0 -14 -2 26.97 3.03
0 -14 -2 27.97 3.05
-14 0 -2 26.26 2.91
0 14 -2 31.35 3.08
14 0 -2 31.21 2.8
-14 0 -2 31.09 3.16
0 -14 2 28.53 3.04
-14 0 2 23.48 2.65
-14 0 2 30.49 2.92
0 -14 2 29.08 3.06
-1 -14 -2 30.48 3.11
-14 1 -2 29.6 3.11
-1 -14 -2 31.24 3.19
-14 1 -2 26.48 2.93
14 -1 -2 28.36 2.92
-14 1 2 32.58 2.99
-1 -14 2 25.38 2.96
-1 -14 2 30.51 3.01
-14 1 2 27.94 2.78
-14 2 -2 10.16 2.08
14 -2 -2 4.64 1.79
-14 2 -2 6.79 1.94
-2 -14 -2 6.59 1.79
-2 -14 -2 8.06 2.04
-14 2 2 4.42 1.72
-14 2 2 9.42 1.79
-2 -14 2 6.55 1.82
-2 -14 2 9.37 1.96
14 -2 2 6.99 1.78
-3 -14 -2 -0.35 1.41
-14 3 -2 1.59 1.68
-3 -14 -2 -1.17 1.56
-14 3 -2 0.96 1.67
14 -3 -2 1.8 1.71
14 -3 2 0.39 1.55
-3 -14 2 0.62 1.76
-14 3 2 -0.94 1.36
-14 3 2 0.83 1.54
-14 4 -2 -2.63 1.43
14 -4 -2 0.28 1.6
-4 -14 -2 1.41 1.32
-4 -14 -2 -0.56 1.68
-14 4 -2 0.83 1.71
-14 4 2 1.08 1.62
14 -4 2 1.93 1.69
-14 4 2 -1.08 1.33
-4 -14 2 0.18 1.57
-14 5 -2 2.7 1.73
14 -5 -2 2.08 1.88
-14 5 -2 1.03 1.72
-5 -14 -2 0.78 1.6
14 -5 2 3.84 1.79
-14 5 2 -0.1 1.39
-14 5 2 0.3 1.64
-5 -14 2 -1.46 1.69
14 -6 -2 3.12 2.04
-14 6 -2 -1.99 1.66
-14 6 -2 0.57 1.52
-6 -14 -2 1.04 1.74
-14 6 2 -0.61 1.62
-6 -14 2 1.65 1.66
14 -6 2 -0.05 1.92
-14 6 2 3.16 1.48
-14 7 -2 -2.71 1.69
14 -7 -2 -0.03 2.03
-14 7 -2 0.56 1.55
-7 -14 -2 1.38 1.8
-14 7 2 1.54 1.92
-7 -14 2 -0.66 1.71
14 -7 2 1.17 2.03
14 -8 -2 -0.61 2.25
-14 8 -2 -0.72 1.89
-8 -14 -2 0.17 1.84
-14 8 -2 -0.77 1.62
14 -8 2 -1.13 1.98
-8 -14 2 -0.16 1.64
-14 8 2 2.94 1.96
-14 9 -2 -1.65 1.93
14 -9 -2 0.26 2.4
-14 9 -2 -1.29 1.65
-9 -14 -2 -0.21 1.92
-14 9 2 -1.2 1.94
14 -9 2 0.69 2.16
-9 -14 2 1.59 1.59
-14 10 -2 3.73 1.84
14 -10 -2 3.69 2.61
-10 -14 -2 1.86 1.97
-14 10 -2 2.62 2.12
-14 10 2 -0.14 1.98
-10 -14 2 0.46 1.77
14 -10 2 0.88 2.33
14 -11 -2 4.7 2.72
-11 -14 -2 5.93 2.32
-14 11 -2 1.21 2.21
-11 -14 2 2.17 1.91
-14 11 2 -0.69 2.06
14 -11 2 -0.29 2.44
10 -15 -2 -1.1 2.41
-15 -10 -2 0.17 1.9
-15 -10 -2 2.93 2.11
-15 -10 2 0.67 1.73
-15 -10 2 1.32 1.58
10 -15 2 2.75 2.58
-15 -9 -2 -0.18 1.97
9 -15 -2 -3.68 2.27
-15 -9 -2 -3.33 1.66
9 -15 2 -0.1 2.39
-15 -9 2 1.81 1.72
-15 -8 -2 -1.08 1.84
8 -15 -2 2.96 2.63
-15 -8 -2 0.85 1.89
8 -15 2 -2.16 2.2
-15 -8 2 1.39 1.6
-15 -7 -2 0.39 1.65
-7 15 -2 -0.43 1.6
7 -15 -2 1.85 2.21
-15 -7 -2 -1.01 1.75
7 -15 2 0.25 2.2
-15 -7 2 0.26 1.85
-15 -7 2 0.8 1.49
-15 -6 -2 1.22 1.75
-6 15 -2 -0.83 1.59
6 -15 -2 1.32 2.29
-15 -6 -2 1.34 1.8
-15 -6 2 0.62 1.45
6 -15 2 2.8 2.31
-15 -6 2 0.16 1.81
5 -15 -2 3.58 2.39
-5 15 -2 4.48 1.81
-15 -5 -2 2.65 1.82
-15 -5 -2 2.26 1.95
5 -15 2 6.15 2.38
5 -15 2 6.11 2.07
-15 -5 2 6.4 1.61
-15 -5 2 5.7 2.04
-15 -4 -2 3.92 1.98
-4 15 -2 3.11 1.74
4 -15 -2 0.33 2.08
-15 -4 -2 0.92 1.66
4 -15 2 2.3 2.11
-15 -4 2 0.17 1.43
-15 -4 2 3.53 1.94
4 -15 2 4.87 1.99
-3 15 -2 5.34 1.81
-15 -3 -2 1.75 1.84
3 -15 -2 4.61 2.21
-15 -3 -2 0.32 1.72
-15 -3 2 -0.5 1.61
-15 -3 2 1.76 1.49
3 -15 2 1.69 1.99
3 -15 2 2.43 1.87
2 -15 -2 0.37 1.86
-15 -2 -2 -0.85 1.71
-15 -2 -2 -1.16 1.61
-2 15 -2 -0.25 1.7
2 -15 -2 0.44 1.57
2 -15 2 -0.18 1.78
2 -15 2 1.43 1.79
-15 -2 2 1.44 1.48
-15 -2 2 -3.2 1.48
-1 15 -2 3.52 1.7
1 -15 -2 3.36 2.11
1 -15 -2 0.46 1.83
-15 -1 -2 4.08 1.89
-15 -1 -2 4.52 1.94
-15 -1 2 3.11 1.47
1 -15 2 -0.48 1.76
-15 -1 2 4.85 1.76
-1 15 2 2.98 1.6
1 -15 2 2.83 1.8
0 15 -2 5.63 2.01
-15 0 -2 5.06 2
0 -15 -2 7.4 2.09
-15 0 -2 8.18 2.09
0 -15 -2 8.69 2.01
-15 0 2 8.96 1.99
0 -15 2 5.89 2.07
-15 0 2 6.75 1.77
0 -15 2 8.13 2.12
0 15 2 14.29 2.09
-1 -15 -2 13.42 2.21
-15 1 -2 12.28 2.25
1 15 -2 12.35 2.31
-1 -15 -2 13.01 2.38
-15 1 -2 13.34 2.39
-1 -15 2 11.73 2.22
-1 -15 2 10.37 2.23
-15 1 2 11.23 2.02
-15 1 2 14.31 2.12
15 -2 -2 10.93 2.12
-15 2 -2 7.82 2.06
-15 2 -2 10.2 2.14
-2 -15 -2 8.54 1.95
-2 -15 -2 8.03 1.99
-15 2 2 7.2 1.74
-15 2 2 5.25 1.79
-2 -15 2 3.84 1.78
-2 -15 2 9.38 2.14
15 -3 -2 0.1 1.72
-15 3 -2 1.94 1.77
-3 -15 -2 1.1 1.83
-15 3 -2 -0.72 1.76
-3 -15 -2 0.36 1.59
-15 3 2 3.71 1.56
-15 3 2 2.7 1.71
15 -3 2 1.73 1.67
-3 -15 2 3.81 1.94
-15 4 -2 0.86 1.67
-15 4 -2 0.36 1.82
15 -4 -2 3.72 2
-4 -15 -2 3.4 1.91
-4 -15 2 0.94 1.76
-15 4 2 0.97 1.7
-15 4 2 3.16 1.58
15 -4 2 3.93 1.85
-5 -15 -2 7.57 2.25
15 -5 -2 6.32 2.23
-15 5 -2 8.65 2.19
-15 5 -2 5.59 1.91
-5 -15 2 7.17 2.02
15 -5 2 6.85 2.14
-15 5 2 3.82 1.82
-15 5 2 7.49 1.72
-15 6 -2 2.02 1.76
-6 -15 -2 -1.67 1.57
-15 6 -2 3.41 1.96
15 -6 -2 3.51 2.25
-6 -15 2 1.83 1.93
15 -6 2 2.51 2.09
-15 6 2 0.69 1.91
15 -7 -2 1.26 2.11
-15 7 -2 -1.86 1.82
-7 -15 -2 -0.48 1.84
-15 7 -2 -1.43 1.67
-7 -15 2 -0.58 1.71
-15 7 2 1.93 2.04
15 -7 2 1.2 2.14
15 -8 -2 2.06 2.29
-8 -15 -2 0.05 1.93
-15 8 -2 2.02 2.08
-15 8 -2 -2.09 1.54
-8 -15 2 2.09 1.76
-15 8 2 -0.51 1.92
15 -8 2 -1.83 1.98
-15 9 -2 1.94 2.13
-15 9 -2 -0.53 1.59
15 -9 -2 -2.68 2.47
-9 -15 -2 2.84 2.2
-15 9 2 -1.7 1.85
15 -9 2 0.57 2.37
-9 -15 2 -0.07 1.89
-10 -15 -2 -2.59 2.07
-15 10 -2 2.47 2.25
15 -10 -2 -0.07 2.56
-15 10 2 2.67 2.26
15 -10 2 0.96 2.61
-10 -15 2 3.28 2.09
-16 -8 -2 -0.37 2.08
8 -16 -2 2.68 2.69
-16 -8 -2 -0.45 1.91
8 -16 2 2.15 2.55
-16 -8 2 3.56 1.83
-16 -7 -2 3.17 1.99
-16 -7 -2 -3.28 1.79
7 -16 -2 2.91 2.56
-16 -7 2 2.57 2.02
-16 -7 2 1.38 1.61
7 -16 2 4.29 2.6
-16 -6 -2 -0.14 2.02
6 -16 -2 0.52 2.41
-16 -6 -2 1.79 1.86
-16 -6 2 2.79 1.59
6 -16 2 -0.68 2.34
-16 -6 2 1.76 1.98
-16 -5 -2 0.94 1.95
-5 16 -2 1.69 1.76
-16 -5 -2 2.03 1.85
5 -16 -2 -1.54 2.17
5 -16 2 1.32 2.27
-16 -5 2 -0.26 1.47
-16 -5 2 0.23 1.86
4 -16 -2 0.81 2.16
-16 -4 -2 -0.5 1.84
-16 -4 -2 -1.31 1.74
-4 16 -2 -3.8 1.54
-16 -4 2 -3.02 1.64
-16 -4 2 -0.14 1.45
4 -16 2 -4.35 1.69
4 -16 2 -1.09 1.99
-3 16 -2 -0.91 1.73
-16 -3 -2 -2.42 1.7
-16 -3 -2 1.47 1.77
3 -16 -2 -0.07 2
3 -16 2 0.57 2.01
-16 -3 2 1.43 1.73
-16 -3 2 0.81 1.52
3 -16 2 0.89 1.9
-16 -2 -2 2.26 1.91
-16 -2 -2 1.47 1.79
-2 16 -2 2.79 1.9
2 -16 -2 2.85 2.1
-16 -2 2 -0.12 1.67
-16 -2 2 3 1.54
2 -16 2 0.15 1.89
2 -16 2 4 1.94
-1 16 -2 3.57 1.81
1 -16 -2 -0.04 1.98
-16 -1 -2 1.8 1.9
-16 -1 -2 0.24 1.72
1 -16 -2 1.84 1.91
1 -16 2 4.9 2.01
-16 -1 2 0.92 1.78
-16 -1 2 1.97 1.69
1 -16 2 -0.32 1.85
0 16 -2 5.35 1.96
0 -16 -2 3.6 1.98
-16 0 -2 5.4 2.03
-16 0 -2 4.04 1.92
0 -16 -2 -0.64 1.8
-16 0 2 5.53 1.77
0 -16 2 7.08 2.01
-16 0 2 6.33 1.86
0 16 2 1.24 1.71
0 -16 2 4.48 2
-1 -16 -2 5.79 1.94
-16 1 -2 4.7 1.95
-1 -16 -2 3.79 1.83
-16 1 -2 2.45 1.84
1 16 -2 4.04 2
-1 -16 2 4.5 1.99
-16 1 2 4.35 1.74
-16 1 2 4.02 1.78
-1 -16 2 2.92 1.83
-2 -16 -2 2.93 1.99
-2 -16 -2 3.36 1.79
-16 2 -2 2.19 1.87
-16 2 -2 -0.51 1.78
-2 -16 2 -2.28 1.41
-2 -16 2 -0.57 1.87
-16 2 2 0.05 1.62
-16 2 2 4.71 1.76
-3 -16 -2 -4.11 1.69
-16 3 -2 0.15 1.71
-16 3 -2 -0.35 1.83
16 -3 -2 0.1 1.82
-3 -16 2 0.49 1.94
-16 3 2 0.26 1.58
-16 3 2 -1.61 1.64
16 -4 -2 2.91 2.07
-4 -16 -2 3.79 2.04
-16 4 -2 2.9 1.87
-16 4 -2 1.41 2.08
16 -4 2 4.29 1.98
-4 -16 2 4.36 2.11
-16 4 2 4.34 1.74
-16 4 2 4.01 1.92
-16 5 -2 7.67 2.14
-16 5 -2 7.32 2.21
-5 -16 -2 6.7 2.22
16 -5 -2 8.42 2.44
16 -5 2 4.72 2.16
-5 -16 2 6.23 2.1
-16 5 2 6.25 2.12
-16 5 2 7.31 1.81
-16 6 -2 2.06 2.2
-16 6 -2 1.33 1.94
16 -6 -2 -0.9 2.1
-6 -16 -2 6.36 2.19
16 -6 2 3.16 2.19
-6 -16 2 1.54 2.02
-16 6 2 3.16 1.95
16 -7 -2 -0.23 2.32
-16 7 -2 -1.14 1.74
-16 7 -2 -1.85 1.93
-7 -16 -2 -0.58 1.96
-7 -16 2 0.37 2.03
-16 7 2 -1.71 2.03
16 -7 2 1.1 2.05
-16 8 -2 -0.34 1.69
-8 -16 -2 0.45 1.79
-16 8 -2 2 2.2
16 -8 -2 0 2.51
-8 -16 2 -0.15 2.04
16 -8 2 2.43 2.35
-16 8 2 2.35 2.12
-17 -6 -2 1.47 2.01
6 -17 -2 0.88 2.61
-17 -6 -2 1.82 2.07
-17 -6 2 2.57 2.15
6 -17 2 1.52 2.53
-17 -6 2 0.72 1.67
-17 -5 -2 2.86 2.03
-17 -5 -2 3.79 2.06
5 -17 -2 4.46 2.59
-17 -5 2 -0.22 1.9
-17 -5 2 7.05 1.9
5 -17 2 3.59 2.47
4 -17 -2 -2.64 2.23
-17 -4 -2 3.45 2.13
-4 17 -2 -0.53 1.83
-17 -4 -2 1.19 1.95
-17 -4 2 -0.32 1.89
4 -17 2 0.55 2.27
-17 -4 2 0.13 1.59
-3 17 -2 1.67 1.89
-17 -3 -2 -0.29 1.92
-17 -3 -2 0.27 1.92
3 -17 -2 -0.69 2.29
3 -17 2 1.63 2.18
-17 -3 2 1.83 1.92
-17 -3 2 -1.54 1.57
3 -17 2 1.04 2.03
-17 -2 -2 -0.08 1.9
-2 17 -2 2.61 1.98
2 -17 -2 -3.38 2.02
-17 -2 -2 2.85 2.02
-17 -2 2 -1.18 1.64
-17 -2 2 -0.07 1.66
2 -17 2 -1.63 1.82
2 -17 2 0.37 1.93
1 -17 -2 1.66 2.13
-17 -1 -2 -0.27 1.85
-17 -1 -2 -3.45 1.65
-1 17 -2 1.95 1.95
-17 -1 2 -0.03 1.63
-17 -1 2 -0.43 1.7
1 -17 2 -3.2 1.68
1 -17 2 1.09 1.88
0 -17 -2 0.53 1.93
0 17 -2 3.11 1.87
-17 0 -2 0.59 1.96
-17 0 -2 -0.85 1.75
0 -17 -2 -2.01 1.82
0 -17 2 1.77 1.96
-17 0 2 -1.21 1.6
0 -17 2 0.12 1.89
-17 0 2 0.55 1.74
1 17 -2 2.31 1.91
-17 1 -2 0.72 1.78
-1 -17 -2 -1.61 1.81
-1 -17 -2 1.89 1.84
-17 1 -2 -1.11 1.93
-1 -17 2 -0.22 1.73
-1 -17 2 0.36 1.97
-17 1 2 -1.61 1.78
-17 1 2 0.06 1.73
-17 2 -2 1.27 1.78
-2 -17 -2 1.64 2.02
2 17 -2 0.06 1.97
-17 2 -2 -1.47 1.9
-2 -17 2 -1.24 1.91
-17 2 2 3.14 1.9
-17 2 2 -0.65 1.57
-3 -17 -2 2.33 2.15
-17 3 -2 2.99 2.05
-17 3 -2 1.21 2.08
-17 3 2 0.18 1.78
-17 3 2 1.55 1.66
-3 -17 2 -0.01 1.91
-4 -17 -2 3.84 2.18
-17 4 -2 2.02 2.02
-17 4 -2 3.83 2.2
-17 4 2 0.93 1.99
-4 -17 2 2.72 2
-17 4 2 3.69 1.81
-17 5 -2 -2.01 1.95
-5 -17 -2 2.82 2.17
-17 5 -2 3.66 1.93
17 -5 -2 -0.75 2.14
-17 5 2 4.36 2.11
-5 -17 2 1.88 2.14
-17 6 -2 -1.34 2.03
-6 -17 -2 2.28 2.23
17 -6 -2 4.48 2.44
-17 6 -2 -1.18 1.97
-17 6 2 0.33 2.07
17 -6 2 -1.47 2.08
-6 -17 2 1.23 2.15
-18 -3 -2 -1.44 1.95
-18 -3 -2 0.5 2.11
-18 -3 2 -2.38 1.69
-18 -3 2 -0.91 1.83
-2 18 -2 2.76 2.11
-18 -2 -2 -1.12 2.03
2 -18 -2 -2.16 2.16
-18 -2 -2 -1.62 1.86
2 -18 2 0.66 2.05
2 -18 2 0.02 2.14
-18 -2 2 1.4 2.03
-18 -2 2 4 1.96
-1 18 -2 3.47 2.04
-18 -1 -2 -0.22 2.1
-18 -1 -2 1.96 2
1 -18 -2 1.19 2.14
-18 -1 2 2.75 1.9
1 -18 2 2.03 2.16
-18 -1 2 2.6 1.89
1 -18 2 -0.69 2.07
-18 0 -2 0.93 2.1
0 18 -2 2.07 2.07
-18 0 -2 -1.12 1.93
0 -18 -2 0.28 2.1
-18 0 2 2.62 1.99
-18 0 2 -2.76 1.8
0 -18 2 -0.53 2.03
0 -18 2 -4.62 1.82
-18 1 -2 -3.25 1.85
-1 -18 -2 3.6 2.17
-18 1 -2 -1.38 1.83
1 18 -2 -3.37 1.73
-1 -18 2 -0.07 1.9
-1 -18 2 2.55 2.11
-18 1 2 -0.81 1.8
-18 1 2 -4.51 1.47
-2 -18 -2 -3.23 1.9
-18 2 -2 1.26 1.97
-18 2 -2 3.93 2.01
2 18 -2 5.77 2.22
-2 -18 2 2.47 2.29
-18 2 2 0.1 1.81
-18 2 2 1.32 2.08
-3 -18 -2 1.9 2.2
3 18 -2 -0.63 2.1
-18 3 -2 3.73 2.19
-18 3 -2 -0.52 1.82
-3 -18 2 3.72 2.14
-18 3 2 -1.81 1.85
-18 3 2 1.26 1.73
0 0 -3 179.33 9.41
0 0 3 160.75 9.22
0 0 3 154.85 9.21
1 0 -3 29.23 1.92
-1 0 -3 31.21 1.98
0 -1 -3 33.11 1.95
-1 0 -3 30.27 2.05
0 1 -3 30 2.05
0 -1 -3 29.44 1.91
-1 -1 -3 392.88 22.88
-1 1 -3 395.24 22.92
1 -1 -3 400.71 22.8
-1 -1 -3 391.03 22.51
-1 1 -3 388.72 22.5
1 1 3 398.89 22.52
-1 -1 3 420.66 22.42
-1 1 3 425.57 22.48
-1 1 3 406.36 22.47
-1 -1 3 418.94 22.42
1 -1 3 429.94 22.52
1 -2 -3 895.57 51.46
-1 2 -3 932.34 51.47
-2 -1 -3 929.4 52.37
1 -2 -3 930.48 52.25
-2 -1 -3 983.79 51.52
1 -2 3 952.6 51.48
2 1 3 928.77 51.51
-1 2 3 911.79 51.46
-1 2 3 927.24 51.46
-1 2 3 937.56 51.48
-2 0 -3 282.49 15.25
0 2 -3 276.8 15.53
0 -2 -3 275.81 15.39
-2 0 -3 274.57 15.51
0 -2 -3 266.13 15.23
0 -2 -3 275.6 15.23
-2 0 3 279.35 15.1
-2 0 3 277.64 15.1
2 0 3 269.06 15.25
0 -2 3 266.22 15.18
0 2 3 264.14 15.24
0 -2 3 271.04 15.19
-2 1 -3 348.47 18.98
-1 -2 -3 338.67 19.24
-1 -2 -3 347.92 18.98
-2 1 -3 343.09 19.33
-1 -2 3 353.32 18.87
-2 1 3 324.16 18.87
1 2 3 329.65 18.97
2 -1 3 344.32 18.98
-2 2 -3 224.06 13.38
-2 -2 -3 232.54 13.41
-2 -2 -3 239.54 13.59
-2 2 3 247.26 13.35
-2 2 3 245.77 13.33
-2 -2 3 243.7 13.22
2 2 3 239.68 13.4
-2 -2 3 239.07 13.22
2 -2 3 239.1 13.39
-2 3 -3 215.59 12.07
-3 -2 -3 217.09 12.03
-3 -2 -3 221.54 11.88
-2 3 -3 222.45 11.86
2 -3 -3 232.63 11.83
2 -3 3 213.37 12.65
-2 3 3 191.61 11.8
-3 -2 3 201.43 11.62
3 2 3 199.33 11.85
2 -3 3 199.26 11.84
-3 -2 3 204.73 11.62
1 -3 -3 204.42 11.17
1 -3 -3 195.66 11.16
-1 3 -3 203.34 11.16
-3 -1 -3 199.45 11.38
-3 -1 -3 211.39 11.22
-1 3 3 199.52 11.19
3 1 3 181.14 11.18
1 -3 3 194.94 11.17
0 -3 -3 176.48 10.05
-3 0 -3 175.63 10.25
-3 0 -3 174.55 10.07
0 -3 -3 179.43 10.08
0 -3 3 177.56 9.99
0 -3 3 191.28 10.01
0 3 3 170.91 10.05
-3 0 3 174.68 9.86
-3 0 3 180.6 9.86
3 0 3 177.61 10.05
-3 1 -3 202.72 11.55
-1 -3 -3 190.78 11.54
-1 -3 -3 218.54 11.65
-1 -3 3 206.3 11.43
3 -1 3 214.4 11.54
-3 1 3 208.34 11.4
1 3 3 204.85 11.55
-3 1 3 192.67 11.39
-2 -3 -3 26.13 1.87
-2 -3 -3 23.99 1.82
-3 2 -3 20.41 1.73
-3 2 -3 23.65 1.92
3 -2 3 25.67 2.06
-2 -3 3 26.07 1.58
-3 2 3 25.72 1.55
-2 -3 3 25.13 1.63
2 3 3 25.02 1.91
-3 2 3 24.2 1.73
-3 2 3 22.63 1.72
3 -2 3 26.15 1.92
-3 3 -3 33.25 2.19
-3 3 -3 29.81 2.14
-3 -3 -3 33.01 2.17
-3 -3 -3 32.4 2.2
-3 -3 3 26.75 1.79
-3 -3 3 30.67 1.81
-3 3 3 24.34 1.99
-3 3 3 26.73 2.07
3 3 3 29.02 2.05
3 -3 3 28.72 2.08
3 -3 3 29.32 2.25
3 -4 -3 46.28 2.72
-3 4 -3 43.39 2.82
-4 -3 -3 46.76 2.87
-4 -3 -3 42.98 2.81
4 3 3 36.63 2.76
-3 4 3 37.28 2.71
3 -4 3 42.68 2.98
-4 -3 3 38.05 2.44
3 -4 3 39.45 2.78
-4 -2 -3 447.48 26.22
2 -4 -3 459.69 25.77
-2 4 -3 449.1 25.78
-4 -2 -3 436.31 25.79
-4 -2 3 482.7 25.55
-2 4 3 479.34 25.79
2 -4 3 464.26 25.8
-4 -2 3 476.36 25.55
4 2 3 473.33 25.79
-4 -1 -3 153.32 9.32
-1 4 -3 169.28 9.14
-4 -1 -3 156.37 9.17
-1 4 -3 132.3 9.25
1 -4 -3 166.84 9.15
1 -4 3 159.52 9.13
4 1 3 164.75 9.17
-4 -1 3 162.63 8.89
-1 4 3 168.55 9.18
-4 -1 3 169.87 8.9
-4 0 -3 58.93 3.65
-4 0 -3 67.66 3.62
0 -4 -3 69.49 3.62
0 -4 3 54.69 3.54
-4 0 3 53.93 3.34
0 4 3 53.76 3.62
4 0 3 58.5 3.58
-4 0 3 55.43 3.54
0 -4 3 54.97 3.52
-4 0 3 59.44 3.35
-1 -4 -3 8.53 1.02
-1 -4 -3 8.06 0.98
-4 1 -3 8.33 1.03
-1 -4 -3 8.24 0.86
4 -1 3 5.1 0.93
-1 -4 3 5.96 0.76
-4 1 3 5.59 0.75
4 -1 3 8.36 1.02
-4 1 3 5.08 0.7
-1 -4 3 5.3 0.79
1 4 3 4.18 0.88
-2 -4 -3 31.43 2.23
-2 -4 -3 27.82 2.1
-4 2 -3 28.11 2.2
-4 2 3 30.22 1.91
-2 -4 3 29.13 1.97
2 4 3 30.98 2.12
4 -2 3 32.94 2.15
-4 2 3 29.75 2
-4 2 3 27.28 1.98
4 -2 3 31.01 2.3
-4 3 -3 117.72 7.21
-3 -4 -3 120.84 7.26
-3 -4 -3 119.5 7.2
3 4 3 122.36 7.2
4 -3 3 134.58 7.7
4 -3 3 125.34 7.22
-4 3 3 121.75 7.09
-4 3 3 125.66 7.04
-4 3 3 120.65 7.1
-3 -4 3 126.7 7.01
-4 4 -3 138.93 8.54
-4 -4 -3 136.03 8.49
-4 -4 -3 140.11 8.66
-4 4 -3 134.78 8.64
-4 -4 3 160.55 8.33
4 4 3 151.96 8.54
-4 4 3 148.86 8.5
-4 4 3 148.5 8.37
4 -4 3 155.04 8.56
-4 4 3 152.31 8.48
4 -4 3 153.98 9.14
-4 -4 3 148.32 8.31
4 -5 -3 41.13 2.98
-5 -4 -3 47.13 3.11
-4 5 -3 44.76 3.06
-5 -4 -3 44.57 3.16
-4 5 -3 48.59 3.14
-4 5 3 47.12 3.05
4 -5 3 45.47 3.11
-5 -4 3 45.98 2.78
5 4 3 44.97 3.04
4 -5 3 42.41 3.29
-4 5 3 43.78 2.69
-5 -4 3 45.83 2.76
-3 5 -3 56.25 3.8
-3 5 -3 55.34 3.85
-5 -3 -3 59.85 3.88
-5 -3 -3 55.73 3.79
3 -5 -3 55.97 3.75
3 -5 3 68.41 4.15
-5 -3 3 59.61 3.49
-5 -3 3 58.35 3.47
-3 5 3 64.09 3.46
5 3 3 58.59 3.77
3 -5 3 64.17 3.85
-3 5 3 57.55 3.78
-5 -2 -3 472.52 27.85
-2 5 -3 485.85 27.36
-2 5 -3 460.64 27.83
2 -5 -3 508.09 27.38
-5 -2 -3 478.63 27.37
2 -5 3 492.65 27.38
-2 5 3 505.04 27.39
-5 -2 3 518.48 27.13
-2 5 3 487.74 27.57
-5 -2 3 491.15 27.12
5 2 3 503.7 27.37
-1 5 -3 410.08 22.26
-5 -1 -3 384.8 22.66
1 -5 -3 386.25 22.26
-5 -1 -3 393.77 22.28
-1 5 3 397.44 22.29
-5 -1 3 408.8 22.61
-5 -1 3 405.77 22.03
1 -5 3 397.83 22.26
5 1 3 404.26 22.27
-5 0 -3 163.44 8.71
0 -5 -3 170.68 8.73
0 5 3 145.36 8.69
-5 0 3 143.02 8.71
5 0 3 146.57 8.67
-5 0 3 145.5 8.45
0 -5 3 151.37 8.62
0 -5 3 146.4 8.61
-5 1 -3 133.55 7.91
-1 -5 -3 133.68 7.88
-1 -5 -3 135.42 7.88
-1 -5 3 131.83 7.78
-5 1 3 138.29 7.71
-1 -5 3 134.87 7.81
-5 1 3 141.08 7.89
5 -1 3 134.29 7.9
1 5 3 137.8 7.92
5 -1 3 143 8.31
-2 -5 -3 50.96 3.55
-2 -5 -3 48.75 3.6
-2 -5 -3 47.44 3.53
-5 2 -3 46.01 3.65
-5 2 -3 51.97 3.62
5 -2 3 60.21 3.6
2 5 3 58.61 3.58
-5 2 3 58.84 3.45
-5 2 3 61.41 3.44
-2 -5 3 58.94 3.5
5 -2 3 59.77 3.81
-2 -5 3 65.23 3.5
-5 2 3 64.99 3.47
-5 3 -3 124.32 7.49
-5 3 -3 126.05 7.38
-3 -5 -3 123.34 7.38
-3 -5 -3 125.61 7.36
-5 3 3 121.56 7.23
-3 -5 3 123.74 7.16
5 -3 3 131.66 7.36
-5 3 3 127.42 7.21
3 5 3 122.55 7.31
-5 3 3 132.17 7.24
5 -3 3 120.06 7.79
-4 -5 -3 157.7 9.14
-5 4 -3 153.44 9.3
-5 4 -3 163.02 9.18
-4 -5 -3 161.33 9.27
5 -4 3 161.94 9.77
-4 -5 3 158.34 8.95
-5 4 3 149.87 9.08
-5 4 3 155.66 8.99
5 -4 3 156.71 9.17
-5 4 3 176.01 9.09
4 5 3 159.11 9.14
-4 -5 3 145.08 8.91
-5 -5 -3 27.06 2.22
-5 -5 -3 27.2 2.22
5 -5 -3 27.05 2.06
-5 5 -3 27.36 2.27
-5 -5 -3 25.82 1.74
-5 5 -3 27.19 2.25
-5 5 3 23.62 1.74
5 5 3 24.72 2.13
-5 -5 3 25.36 1.85
5 -5 3 23.92 2.36
5 -5 3 30.45 2.27
-5 -5 3 24.8 1.86
-5 5 3 27.03 2.15
-5 6 -3 17.15 1.81
5 -6 -3 14.17 1.91
-5 6 -3 16.36 1.73
-6 -5 -3 16.75 1.76
5 -6 -3 12.98 1.59
-6 -5 -3 16.87 1.74
6 5 3 19.75 1.75
-5 6 3 15.09 1.69
5 -6 3 17.37 2.02
5 -6 3 17.07 1.79
-5 6 3 16.02 1.31
-6 -5 3 14.53 1.39
-6 -5 3 15.25 1.36
4 -6 -3 4.58 1.06
-4 6 -3 3.69 1.13
-4 6 -3 4.4 1.14
-6 -4 -3 5.76 1.13
-6 -4 -3 6.26 1.18
-4 6 3 5.06 0.66
6 4 3 4.71 1.06
4 -6 3 5.92 1.13
-6 -4 3 5.72 0.78
-6 -4 3 5.5 0.81
4 -6 3 6.75 1.41
-4 6 3 5.99 1.15
3 -6 -3 30.71 2.35
-6 -3 -3 28.59 2.43
-3 6 -3 31.62 2.51
-6 -3 -3 27.29 2.5
-3 6 -3 32.27 2.48
-6 -3 3 31.66 2.07
6 3 3 32.87 2.43
-3 6 3 33.91 2.05
-6 -3 3 31.37 2.08
3 -6 3 35.3 2.53
-3 6 3 31.6 2.47
-6 -3 3 37.39 2.5
-2 6 -3 112.84 7.19
-2 6 -3 116.83 7.35
2 -6 -3 105.69 7.18
-6 -2 -3 107.74 7.16
-6 -2 -3 116.14 7.38
-6 -2 3 124.44 7.3
6 2 3 123.26 7.18
2 -6 3 124.69 7.24
-2 6 3 134.84 7.04
-6 -2 3 130.76 6.92
-6 -2 3 126.82 6.92
2 -6 3 129.63 7.75
-2 6 3 129.87 7.22
-1 6 -3 153.16 9.31
1 -6 -3 168.33 9.4
-1 6 -3 159.09 9.54
-6 -1 -3 159.21 9.36
1 -6 3 152.54 9.32
-6 -1 3 166.44 9.1
6 1 3 168.83 9.35
1 -6 3 153.5 9.94
-1 6 3 168.36 9.4
-6 -1 3 171.13 9.1
0 -6 -3 29.59 2.17
0 6 -3 29.84 2.16
-6 0 -3 30.85 2.23
-6 0 -3 30.56 2.32
0 -6 3 23.07 2.28
-6 0 3 27.35 1.84
0 -6 3 24.7 2.1
0 6 3 29.96 2.16
6 0 3 28.31 2.07
6 0 3 24.61 2.14
-6 0 3 26.59 1.84
-6 0 3 29.95 2.11
-6 1 -3 138.9 8.46
-1 -6 -3 128.33 8.3
-6 1 -3 141.13 8.32
6 -1 3 150.01 8.73
-6 1 3 136.55 8.09
1 6 3 144.11 8.32
-1 -6 3 147.29 8.24
6 -1 3 144 8.3
-6 1 3 150.52 8.12
-6 1 3 148.12 8.3
-1 -6 3 140.21 8.22
-6 2 -3 145.78 8.3
-6 2 -3 144.82 8.41
-2 -6 -3 149.2 8.32
-2 -6 -3 151.18 8.29
-2 -6 3 137.96 8.16
-6 2 3 139.8 8.11
6 -2 3 143.24 8.28
-6 2 3 132.26 8.2
-6 2 3 138.24 8.1
2 6 3 142.67 8.3
-2 -6 3 146.53 8.18
6 -2 3 136.04 8.72
-3 -6 -3 183.48 11.14
-6 3 -3 189.81 10.89
-3 -6 -3 193 10.71
-3 -6 -3 190.96 10.8
-3 -6 -3 191.25 10.69
-6 3 -3 192.34 10.74
-6 3 3 186.13 10.58
-6 3 3 187.73 10.56
6 -3 3 176.66 10.66
-6 3 3 179.89 10.63
3 6 3 181.97 10.67
-3 -6 3 187.02 10.55
-3 -6 3 183.42 10.54
6 -3 3 177.49 11.33
-6 4 -3 116.47 6.55
-6 4 -3 112.08 6.44
-4 -6 -3 108.03 6.46
-4 -6 -3 113.41 6.48
-4 -6 -3 105.14 6.37
-6 4 3 106.32 6.32
6 -4 3 104.21 6.81
-6 4 3 101.46 6.18
4 6 3 101.06 6.34
-6 4 3 105.44 6.28
-4 -6 3 102.14 6.19
6 -4 3 100.48 6.39
-6 5 -3 30.82 2.53
-5 -6 -3 31.91 2.04
-5 -6 -3 32.34 2.41
-6 5 -3 29.96 2.54
-5 -6 -3 30.76 2.49
6 -5 3 30.16 2.49
6 -5 3 24.87 2.61
-5 -6 3 30.75 2.13
-6 5 3 28.12 2.37
-6 5 3 26.53 2.02
5 6 3 30.6 2.42
-6 6 -3 13.12 1.62
6 -6 -3 12.27 1.92
-6 -6 -3 11.51 1.63
6 -6 -3 11.53 1.5
-6 6 -3 11.96 1.61
-6 -6 -3 11.28 1.58
-6 6 3 9.94 1.52
-6 -6 3 11.48 1.2
6 6 3 10.41 1.48
6 -6 3 11.35 1.57
6 -6 3 11.15 1.75
-6 6 3 11.87 1.1
-6 -6 3 10.35 1.24
-7 -6 -3 37.75 2.99
-6 7 -3 41.44 3.13
-6 7 -3 41.23 3.01
6 -7 -3 41.08 2.94
-7 -6 -3 38.42 2.91
-7 -6 3 35.02 2.52
6 -7 3 30.52 3.1
6 -7 3 34.02 2.92
-7 -6 3 27.65 2.37
-6 7 3 35.64 2.89
7 6 3 36.53 2.8
-6 7 3 34.63 2.39
-7 -5 -3 12.54 1.68
-5 7 -3 11.42 1.59
5 -7 -3 13.37 1.6
-5 7 -3 14.13 1.67
-7 -5 -3 13.87 1.74
-7 -5 3 11.51 1.25
5 -7 3 9.56 1.62
-5 7 3 12.92 1.67
7 5 3 13.7 1.61
-5 7 3 12.97 1.13
-7 -5 3 12.14 1.31
5 -7 3 12.95 1.97
-7 -4 -3 7.73 1.35
4 -7 -3 8.66 1.63
-4 7 -3 6.78 1.36
-4 7 -3 8.32 1.36
4 -7 -3 6.74 1.24
-7 -4 -3 8.7 1.46
-4 7 3 8.67 1.37
7 4 3 8.27 1.25
4 -7 3 7.49 1.35
-7 -4 3 5.98 0.91
-7 -4 3 6.54 0.96
-4 7 3 8.39 0.86
3 -7 -3 44.41 2.99
-3 7 -3 38.55 2.95
-7 -3 -3 39.86 3.02
-3 7 -3 43.65 3.02
3 -7 -3 48.65 3.36
-7 -3 -3 33.31 2.89
-7 -3 3 38.13 2.51
-7 -3 3 37.45 2.56
3 -7 3 40.13 2.88
7 3 3 37.69 2.85
-3 7 3 38.81 2.53
-7 -3 3 41.39 2.97
-3 7 3 38.41 2.95
3 -7 3 49.63 3.3
-2 7 -3 51.26 3.53
-2 7 -3 56.82 3.61
2 -7 -3 59.77 3.95
2 -7 -3 55.9 3.62
-7 -2 -3 49.16 3.53
-2 7 3 54.83 3.55
-7 -2 3 49.33 3.18
-7 -2 3 56.08 3.6
2 -7 3 46.66 3.54
-2 7 3 52.28 3.27
2 -7 3 64.81 3.88
7 2 3 54.22 3.51
-7 -2 3 48.45 3.19
-1 7 -3 7.43 1.3
-7 -1 -3 9.52 1.32
-1 7 -3 9.7 1.25
-7 -1 -3 8.41 1.2
1 -7 -3 7.34 1.4
1 -7 -3 10.16 1.36
-1 7 3 9.11 1.36
-7 -1 3 8.53 0.93
1 -7 3 8.67 1.27
-7 -1 3 8.02 0.9
1 -7 3 8.22 1.45
-7 -1 3 8.61 1.2
7 1 3 7.46 1.24
0 7 -3 22.08 1.84
-7 0 -3 22.38 2.01
0 -7 -3 23.15 2.05
-7 0 -3 19.91 1.9
0 -7 -3 19.2 1.85
0 7 3 19.66 1.88
0 -7 3 17.7 1.78
-7 0 3 20.9 1.6
7 0 3 23.9 1.95
-7 0 3 20.17 1.72
0 -7 3 19.55 2
7 0 3 19.73 1.81
-7 0 3 20.68 1.6
-1 -7 -3 2.07 1.01
-7 1 -3 1.21 0.9
-1 -7 -3 0.43 0.85
-7 1 -3 1.31 0.98
-7 1 3 -0.18 0.27
-1 -7 3 2.2 0.89
7 -1 3 1.39 0.96
-7 1 3 0.03 0.54
-7 1 3 1.18 0.72
-1 -7 3 1.59 0.86
1 7 3 1.61 1
7 -1 3 1.07 0.94
-1 -7 3 0.72 0.99
-7 2 -3 73.64 4.42
-2 -7 -3 73.02 4.31
-7 2 -3 76 4.47
-2 -7 -3 73.3 4.46
-2 -7 -3 72.65 4.45
-7 2 3 67.32 4.22
2 7 3 65.66 4.38
-7 2 3 67.93 4.18
-2 -7 3 64.76 4.28
-2 -7 3 68.73 4.26
7 -2 3 65.04 4.53
-7 2 3 59.85 4.13
7 -2 3 66.1 4.35
-3 -7 -3 46.54 3.02
-7 3 -3 42.11 3.19
-3 -7 -3 48.88 3.08
-3 -7 -3 46.6 3.22
-7 3 -3 50.34 3.2
-7 3 3 39.81 2.81
-7 3 3 41.86 2.96
-3 -7 3 40.95 2.97
7 -3 3 40.57 3.27
3 7 3 39.51 3.11
7 -3 3 43.37 3.03
-7 3 3 45.92 2.96
-3 -7 3 42.08 2.99
-7 4 -3 35.82 2.94
-4 -7 -3 39.15 2.99
-4 -7 -3 41.28 2.76
-7 4 -3 41.01 3.09
-4 -7 -3 38.19 2.92
-4 -7 -3 38.39 2.93
-4 -7 3 42.42 2.8
7 -4 3 40.73 3.02
-4 -7 3 39.74 2.76
7 -4 3 41.09 3.22
4 7 3 41.38 2.99
-7 4 3 41.48 2.7
-7 4 3 40.24 2.9
-7 4 3 38.24 2.89
7 -5 -3 13.45 1.95
-5 -7 -3 11.88 1.68
-7 5 -3 11.33 1.63
-5 -7 -3 15.65 1.72
-7 5 -3 12.37 1.64
-5 -7 -3 12.86 1.21
7 -5 3 9.4 1.58
-5 -7 3 12.89 1.37
-7 5 3 12.91 1.23
7 -5 3 11.19 1.83
-7 5 3 12.19 1.5
-5 -7 3 11.93 1.35
5 7 3 15.12 1.65
-7 5 3 12.47 1.59
-6 -7 -3 7.61 1.5
-7 6 -3 5.78 1.4
-6 -7 -3 5.17 0.67
-7 6 -3 6.94 1.5
-6 -7 -3 8.14 1.47
7 -6 -3 6.01 1.75
7 -6 3 5.56 1.41
-6 -7 3 4.07 1
6 7 3 0.13 1.17
-7 6 3 4.18 0.86
-7 6 3 3.36 1.24
7 -6 3 3.73 1.47
-7 7 -3 54.2 4.05
-7 -7 -3 58.17 4.13
-7 7 -3 52.19 3.93
-7 -7 -3 53.69 3.99
7 -7 -3 57.9 4.46
7 -7 -3 58.04 3.92
7 -7 3 66.43 4.4
-7 7 3 53.5 3.56
-7 7 3 57.53 4.03
-7 -7 3 59.14 3.7
7 -7 3 53.55 4.07
7 7 3 55.93 3.91
-8 -7 -3 56.21 4.21
-7 8 -3 60.49 4.27
-7 8 -3 60.68 4.25
-8 -7 -3 64.02 4.21
7 -8 -3 53.1 4.46
7 -8 3 53.03 4.61
-7 8 3 58.42 3.69
7 -8 3 58.56 4.25
-7 8 3 58.05 4.24
-8 -7 3 60.14 3.82
-6 8 -3 19.81 2.19
-8 -6 -3 21.59 2.22
6 -8 -3 22.49 2.17
-6 8 -3 23.34 2.35
-8 -6 -3 23.93 2.37
6 -8 3 19.52 2.22
-6 8 3 14.49 2.12
8 6 3 22.67 2.13
-6 8 3 17.21 1.55
-8 -6 3 17.64 1.72
5 -8 -3 6.54 1.4
-5 8 -3 5.65 1.39
5 -8 -3 1.43 0.95
-8 -5 -3 10.73 1.66
-8 -5 -3 4.27 1.4
-5 8 -3 7.86 1.48
-8 -5 3 7.04 1.01
5 -8 3 4.75 1.36
-8 -5 3 5.33 1.05
-5 8 3 5.89 1.48
-5 8 3 6.48 0.94
8 5 3 8.07 1.39
-4 8 -3 16.81 1.85
4 -8 -3 14.2 1.77
-8 -4 -3 16.01 1.94
-8 -4 -3 19.29 1.91
-4 8 -3 14.75 1.84
4 -8 -3 15.15 2.12
-8 -4 3 14.56 1.34
-8 -4 3 12.57 1.35
4 -8 3 13.6 1.76
-8 -4 3 9.58 1.75
8 4 3 15.44 1.75
4 -8 3 13.35 1.84
-4 8 3 15.9 1.29
-4 8 3 16.14 1.81
-8 -3 -3 75.3 4.82
-3 8 -3 77.57 4.87
-3 8 -3 75.73 4.92
3 -8 -3 71.43 5.19
-8 -3 -3 74.66 4.92
3 -8 -3 69.37 4.74
-8 -3 3 77.19 4.46
-3 8 3 75.15 4.85
8 3 3 75.78 4.75
-8 -3 3 78.17 4.5
-3 8 3 78.27 4.5
3 -8 3 67.4 4.82
-8 -3 3 72.19 4.82
3 -8 3 75.01 5.24
-2 8 -3 58.12 3.68
2 -8 -3 56 3.98
-2 8 -3 58.39 3.78
-8 -2 -3 54.72 3.66
2 -8 -3 54.31 3.71
-2 8 3 52.14 3.7
2 -8 3 48.42 3.65
-8 -2 3 53.73 3.31
-2 8 3 46.1 3.34
-8 -2 3 55.11 3.69
2 -8 3 52.12 3.99
-8 -2 3 53.98 3.3
8 2 3 55.21 3.6
-8 -1 -3 6.75 1.28
1 -8 -3 5.15 1.26
-1 8 -3 5.27 1.15
-1 8 -3 6.11 1.3
1 -8 -3 6.77 1.41
-8 -1 -3 5.4 1.22
8 1 3 4.75 1.12
-1 8 3 5.7 1.3
-8 -1 3 3.67 0.86
1 -8 3 5.83 1.44
1 -8 3 7.19 1.24
-8 -1 3 3.68 0.82
-8 -1 3 3.43 1.14
0 -8 -3 -0.04 0.98
-8 0 -3 0.21 1.05
-8 0 -3 1.17 1.09
0 -8 -3 0.55 1.08
0 8 -3 0.41 0.98
-8 0 3 0.6 0.73
0 -8 3 1.32 1.01
-8 0 3 0.72 0.72
8 0 3 0.98 0.96
0 8 3 0.81 0.97
8 0 3 1.1 0.87
-8 0 3 0.39 0.87
0 -8 3 1.36 1.18
-1 -8 -3 10.83 1.59
-8 1 -3 15.46 1.79
-1 -8 -3 15.64 1.65
-8 1 -3 15.6 1.74
8 -1 3 9.77 1.52
-1 -8 3 11.17 1.53
-8 1 3 13.47 1.35
-8 1 3 14.72 1.49
8 -1 3 13.5 1.56
-1 -8 3 15.47 1.76
1 8 3 12.91 1.66
-8 2 -3 -0.36 1.05
-2 -8 -3 -0.02 0.98
-8 2 -3 -1.22 1.05
-2 -8 -3 -0.12 1.06
-8 2 3 0.55 0.73
8 -2 3 0.13 0.98
-8 2 3 -0.41 0.78
-2 -8 3 -0.38 0.91
-2 -8 3 1.88 0.96
8 -2 3 -1.62 1.09
2 8 3 1.67 1.06
-8 2 3 -0.13 0.8
-8 3 -3 7.25 1.39
-8 3 -3 4.92 1.39
-3 -8 -3 7.44 1.42
8 -3 3 10.35 1.49
-3 -8 3 7.69 1.3
-3 -8 3 10.01 1.34
8 -3 3 11.45 1.65
3 8 3 10.52 1.53
-8 3 3 6.77 1.19
-8 3 3 10.43 1.36
-4 -8 -3 0.81 1.06
-8 4 -3 0.67 1.02
-8 4 -3 1.57 1.28
-4 -8 -3 0.42 0.87
-4 -8 -3 2.3 1.21
-8 4 3 0.2 0.96
4 8 3 1.89 1.13
8 -4 3 1.8 1.17
-8 4 3 1.1 1.1
-4 -8 3 -0.07 0.97
-4 -8 3 1.18 1.04
8 -4 3 0.76 1.3
-8 4 3 0.77 0.79
-5 -8 -3 1.03 0.87
-8 5 -3 3.15 1.29
-8 5 -3 3.41 1.32
-5 -8 -3 0.01 1.22
-5 -8 -3 3.38 1.24
8 -5 -3 2.16 1.58
-5 -8 -3 1.49 1.29
8 -5 3 1.66 1.2
-8 5 3 2.54 1.17
-5 -8 3 1.78 0.97
8 -5 3 2.39 1.53
-8 5 3 3.39 1.25
-5 -8 3 3.14 1.03
5 8 3 2.42 1.22
-8 5 3 2.11 0.88
-6 -8 -3 1.17 0.69
-6 -8 -3 0.66 1.31
-6 -8 -3 -0.73 1.22
-8 6 -3 0.92 1.39
-6 -8 -3 -0.18 1.28
-8 6 -3 -0.1 1.25
8 -6 -3 1.55 1.51
-6 -8 3 0.28 0.59
-6 -8 3 2.74 1.09
6 8 3 2.74 1.29
-8 6 3 1.48 0.87
-8 6 3 3.29 1.33
8 -6 3 1.76 1.57
8 -6 3 2.64 1.33
-7 -8 -3 41.42 3.49
8 -7 -3 42.54 3.92
-8 7 -3 44.5 3.54
-8 7 -3 47.36 3.61
-7 -8 -3 52.75 3.66
-7 -8 3 45.37 3.19
8 -7 3 44.38 3.54
-8 7 3 42.14 3
-8 7 3 43.31 3.58
8 -7 3 49.43 3.98
-8 8 -3 62.39 4.94
-8 -8 -3 66.5 5.06
8 -8 -3 69.71 5.48
-8 8 -3 70.77 4.99
-8 -8 -3 63 4.88
-8 -8 3 73.99 4.6
8 -8 3 71.03 4.89
8 -8 3 74.7 5.48
-8 8 3 79.97 4.53
-8 -8 3 76.95 4.69
-8 8 3 77.25 5.02
-8 9 -3 15.85 2.19
-9 -8 -3 14.32 2.04
-9 -8 -3 16.89 2.27
8 -9 -3 15.07 2.54
-8 9 -3 15.42 2.11
8 -9 3 11.33 2.36
-9 -8 3 10.46 1.58
8 -9 3 11.8 2.06
-8 9 3 12.69 2.07
-7 9 -3 10.07 1.9
-9 -7 -3 13.99 2.09
7 -9 -3 14.43 2.31
-7 9 -3 17.18 2.22
-9 -7 -3 14.82 2.14
-9 -7 3 14.51 1.65
-9 -7 3 11.8 1.51
7 -9 3 13.38 1.97
7 -9 3 9.99 2.3
-7 9 3 13.17 1.36
-9 -7 3 14.43 1.62
-7 9 3 17.51 2.21
-9 -6 -3 2.73 1.41
6 -9 -3 3.46 1.49
-9 -6 -3 1.99 1.49
-6 9 -3 3.16 1.54
6 -9 -3 2.97 1.82
-6 9 -3 3.75 1.5
-6 9 3 1.49 0.83
6 -9 3 1.6 1.44
-9 -6 3 1.15 1.06
6 -9 3 1.06 1.72
-9 -6 3 1.88 1
-6 9 3 0.42 1.45
-5 9 -3 4.18 1.41
-5 9 -3 7.5 1.56
5 -9 -3 7.79 1.84
-9 -5 -3 8.81 1.63
-9 -5 -3 4.66 1.49
5 -9 -3 7 1.49
-9 -5 3 7.58 1.15
5 -9 3 7.56 1.65
-9 -5 3 5.98 1.62
-5 9 3 6.99 1.65
-5 9 3 6.59 1.01
-9 -5 3 3.3 1.11
-9 -4 -3 36.39 2.95
4 -9 -3 36.99 3.03
-4 9 -3 35.74 3.07
-4 9 -3 33.79 2.97
4 -9 -3 31.59 3.33
4 -9 3 35.06 3.21
9 4 3 40.88 3.03
-4 9 3 33.6 2.49
-9 -4 3 38.99 2.59
-9 -4 3 38.24 2.55
4 -9 3 37.22 3.05
-9 -4 3 34.66 3.04
-4 9 3 35.49 3.07
3 -9 -3 22.35 2.59
3 -9 -3 23.96 2.4
-9 -3 -3 27.03 2.45
-3 9 -3 21.37 2.34
-3 9 -3 26.64 2.46
-3 9 3 23.99 2.01
3 -9 3 23.93 2.39
-3 9 3 29.55 2.42
3 -9 3 23.23 2.68
-9 -3 3 26.98 2
-9 -3 3 24.21 2.45
9 3 3 29.47 2.43
-9 -3 3 29.45 2.12
-9 -2 -3 74.5 5.21
-9 -2 -3 74.43 5.33
2 -9 -3 77.92 5.59
-2 9 -3 80.37 5.3
-2 9 -3 76.06 5.18
2 -9 -3 86.68 5.29
-9 -2 3 88.14 4.91
-2 9 3 83.54 4.96
-9 -2 3 85.8 4.88
2 -9 3 72.34 5.12
-9 -2 3 87.2 5.27
2 -9 3 79.49 5.65
-2 9 3 83.5 5.29
9 2 3 82 5.13
1 -9 -3 24.31 2.51
-9 -1 -3 25.72 2.5
-1 9 -3 21.13 2.19
-1 9 -3 22.2 2.34
1 -9 -3 24.3 2.34
-9 -1 -3 20.14 2.21
-1 9 3 29.79 2.49
9 1 3 24.45 2.21
-9 -1 3 22.22 2.22
1 -9 3 25.38 2.35
-9 -1 3 24.32 1.97
-9 -1 3 28.71 1.94
1 -9 3 24.47 2.6
-9 0 -3 2.76 1.27
0 9 -3 5.95 1.24
0 -9 -3 4 1.32
0 9 -3 2.8 1.31
-9 0 -3 6.26 1.43
0 -9 -3 5.67 1.46
9 0 3 5.51 1.25
0 -9 3 3.25 1.22
-9 0 3 4.16 1.17
9 0 3 5.33 1.13
-9 0 3 5.06 0.95
-9 0 3 3.37 0.95
0 9 3 4.07 1.23
0 -9 3 3.43 1.41
-1 -9 -3 18.46 1.9
-1 -9 -3 15.55 1.85
-9 1 -3 14.91 1.79
-9 1 -3 13.71 1.82
9 -1 3 11.96 1.63
-9 1 3 10.25 1.53
9 -1 3 13.97 1.64
1 9 3 12.04 1.77
-1 -9 3 13.35 1.87
-9 1 3 14.07 1.48
-1 -9 3 9.22 1.6
-9 2 -3 4.68 1.44
-9 2 -3 6.18 1.44
-2 -9 -3 5.94 1.3
-2 -9 -3 2.38 1.26
-2 -9 3 4.73 1.25
-9 2 3 2.6 1.08
-9 2 3 -0.05 0.73
9 -2 3 4.88 1.31
-2 -9 3 3.94 1.16
2 9 3 4.54 1.27
9 -2 3 5.05 1.39
-9 2 3 5.03 1.09
-9 3 -3 6.25 1.48
-9 3 -3 1.8 1.21
-3 -9 -3 3.36 1.19
-3 -9 -3 4.13 1.32
3 9 3 0.96 1.24
-9 3 3 4.67 1.14
-9 3 3 4.27 1.22
9 -3 3 2.38 1.25
-3 -9 3 6.17 1.3
-3 -9 3 6.53 1.38
9 -3 3 5.38 1.52
-9 3 3 4.21 1.09
9 -4 -3 4.32 1.66
-9 4 -3 3.81 1.49
-9 4 -3 3.92 1.42
-4 -9 -3 4.99 1.47
-9 4 3 7.35 1.42
4 9 3 4.84 1.4
-9 4 3 5.5 1.11
9 -4 3 2.18 1.32
-9 4 3 4.79 1.27
-4 -9 3 3.99 1.24
-4 -9 3 5.12 1.21
9 -4 3 5.85 1.62
-9 5 -3 7.02 1.53
-5 -9 -3 3.53 1.51
-5 -9 -3 3.37 1.35
9 -5 -3 3.35 1.72
-5 -9 -3 3.62 1.01
-9 5 -3 2.91 1.41
5 9 3 2.39 1.32
-9 5 3 5.26 1.03
-5 -9 3 3.26 1.28
-5 -9 3 6.34 1.27
9 -5 3 2.91 1.4
9 -5 3 5.05 1.69
-9 5 3 1.59 1.33
-9 6 -3 -0.48 1.43
-6 -9 -3 1.65 1.46
-6 -9 -3 -0.87 1.36
-6 -9 -3 0.58 0.79
9 -6 -3 1.5 1.72
-9 6 -3 -0.48 1.24
-6 -9 -3 -1.1 1.25
9 -6 3 1.28 1.67
-9 6 3 -0.06 0.62
9 -6 3 1.01 1.37
-9 6 3 -1.65 1.27
-6 -9 3 -0.45 1.13
-7 -9 -3 10.95 1.92
-9 7 -3 11.65 1.86
-9 7 -3 10.03 1.95
-7 -9 -3 14.85 2.06
9 -7 -3 15.29 2.42
-7 -9 -3 12.93 1.97
9 -7 3 9.81 2.17
-9 7 3 11.9 1.89
9 -7 3 11 1.91
-7 -9 3 11.77 1.65
-9 8 -3 9.65 1.96
-9 8 -3 11.39 1.82
9 -8 -3 7.36 2.1
-8 -9 -3 11.35 1.9
-8 -9 -3 8.46 1.84
-8 -9 -3 9.09 1.79
9 -8 3 11.6 1.93
-9 8 3 9.25 1.88
-8 -9 3 10.13 1.56
9 -8 3 15.61 2.41
-9 -9 -3 6.01 1.73
-9 -9 -3 4.21 1.66
9 -9 -3 4.66 2.14
-9 9 -3 4.48 1.62
-9 9 -3 9.32 1.79
-9 9 3 5.7 1.74
-9 -9 3 5.98 1.38
9 -9 3 3.89 1.99
-10 -9 -3 -0.55 1.54
-9 10 -3 2.39 1.46
-9 10 -3 -2.09 1.57
-10 -9 -3 -0.42 1.47
9 -10 -3 0.1 1.8
-10 -9 3 -0.57 1.09
9 -10 3 -0.32 1.86
-9 10 3 0.12 1.59
-8 10 -3 6.56 1.85
-8 10 -3 10.53 1.79
-10 -8 -3 7.87 1.75
8 -10 -3 6.08 2
-10 -8 -3 5.41 1.8
8 -10 3 6.35 2.13
-10 -8 3 4.64 1.29
-10 -8 3 9 1.47
8 -10 3 5.18 1.75
-8 10 3 6.54 1.86
-7 10 -3 2.2 1.51
-7 10 -3 0.46 1.51
-10 -7 -3 0.72 1.41
-10 -7 -3 1.79 1.44
7 -10 -3 2.06 1.86
-7 10 3 3.25 1.61
-10 -7 3 3.14 1.13
7 -10 3 3.61 1.67
7 -10 3 1.48 1.8
-6 10 -3 1.41 1.4
-10 -6 -3 -0.17 1.41
-6 10 -3 3.73 1.53
-10 -6 -3 0.5 1.32
6 -10 -3 2.37 1.76
-6 10 3 3.28 0.92
6 -10 3 3.82 1.81
6 -10 3 -1.04 1.25
-10 -6 3 2.63 1.17
-10 -6 3 2.57 1.06
-6 10 3 -0.2 1.47
-10 -5 -3 9.42 1.83
-10 -5 -3 13.27 1.97
-5 10 -3 14.67 1.98
5 -10 -3 14.53 2.3
-5 10 -3 12.71 1.93
5 -10 -3 12.37 1.83
-10 -5 3 12.19 1.54
-10 -5 3 10.77 1.95
-5 10 3 12.68 2.05
-5 10 3 12.82 1.37
-10 -5 3 11.47 1.43
5 -10 3 12.41 2.19
5 -10 3 13.45 2.04
4 -10 -3 11.92 1.79
-10 -4 -3 12.38 1.86
-4 10 -3 12.86 1.99
-4 10 -3 11.55 1.82
4 -10 -3 13.82 2.33
-10 -4 -3 5.75 1.38
-10 -4 3 15.05 2.03
4 -10 3 13.32 2.17
-10 -4 3 12.28 1.48
-10 -4 3 15.53 1.49
4 -10 3 17.98 2.12
-4 10 3 12.44 2.01
-4 10 3 14.07 1.38
3 -10 -3 20.17 2.69
-3 10 -3 22.83 2.34
-10 -3 -3 22.24 2.31
3 -10 -3 21.67 2.31
-3 10 -3 21.65 2.32
-10 -3 3 22.41 1.84
-10 -3 3 17.76 2.22
-3 10 3 19.15 2.31
3 -10 3 15.21 2.45
-10 -3 3 22.78 1.9
3 -10 3 18.22 2.27
-3 10 3 22.27 1.83
2 -10 -3 73.49 5.42
-10 -2 -3 78.31 5.26
-10 -2 -3 71.06 4.99
-2 10 -3 68.22 4.98
-2 10 -3 78.92 5.14
2 -10 -3 76.09 5.1
-10 -2 3 74.47 4.69
-10 -2 3 76.98 5.06
2 -10 3 81.96 5.04
2 -10 3 74.23 5.45
-2 10 3 76.11 5.09
-10 -2 3 81.93 4.7
-1 10 -3 29.21 2.7
-1 10 -3 32.18 2.87
-10 -1 -3 35.4 2.93
-10 -1 -3 26.48 2.68
1 -10 -3 26.4 2.71
1 -10 -3 31.56 3.04
1 -10 3 34.35 3.07
10 1 3 35.57 2.76
1 -10 3 31.47 2.8
-1 10 3 28.51 2.78
-10 -1 3 34.27 2.75
-10 -1 3 30.83 2.39
0 -10 -3 2.84 1.45
-10 0 -3 3.01 1.4
0 10 -3 1.25 1.37
0 -10 -3 2.4 1.54
-10 0 -3 0.42 1.39
0 10 -3 2.68 1.27
10 0 3 2.68 1.13
-10 0 3 1.64 1.24
10 0 3 3.57 1.29
-10 0 3 0.19 0.33
-10 0 3 2.28 1.01
0 -10 3 1.48 1.28
0 10 3 2.98 1.45
0 -10 3 2.96 1.5
-10 1 -3 57.36 4.15
-1 -10 -3 54.08 4.12
-1 -10 -3 60.58 4.28
-10 1 -3 62.18 4.32
-10 1 3 65.17 3.92
1 10 3 58.49 4.2
-1 -10 3 55.85 4.27
-1 -10 3 55.71 4.1
10 -1 3 62.78 4.22
10 -1 3 62.42 4.11
-10 1 3 54.59 3.97
-10 2 -3 95.07 6.14
-2 -10 -3 100.98 6.32
-2 -10 -3 101.43 6.25
-10 2 -3 101.94 6.34
-2 -10 3 90.37 6.08
2 10 3 88.35 6.05
10 -2 3 88.08 6.31
-10 2 3 98.62 6.01
-10 2 3 97.87 5.89
10 -2 3 100.28 6.09
-3 -10 -3 22.28 2.44
-10 3 -3 22.53 2.44
-3 -10 -3 22.43 2.24
10 -3 -3 27.48 2.66
-10 3 -3 22.68 2.38
10 -3 3 24.21 2.37
-10 3 3 24.65 2.17
-10 3 3 21.42 2.18
3 10 3 22.2 2.4
-3 -10 3 20.49 2.29
-10 3 3 27.87 2.24
10 -3 3 20.04 2.44
-4 -10 -3 14.07 2.06
-10 4 -3 10.92 1.88
-10 4 -3 15.91 2.08
10 -4 -3 12.93 2.2
-4 -10 -3 16.72 1.78
4 10 3 15.28 1.99
10 -4 3 15.85 2.16
10 -4 3 12.71 1.88
-4 -10 3 14.01 1.84
-10 4 3 14.79 1.84
-10 4 3 16.18 1.7
-10 5 -3 2.99 1.6
-10 5 -3 2.72 1.48
-5 -10 -3 2.03 1.52
-5 -10 -3 -0.05 0.61
10 -5 -3 1.32 1.66
10 -5 3 1.14 1.65
-5 -10 3 3.69 1.43
-10 5 3 1.8 1.44
-10 5 3 4.1 1.19
-10 6 -3 14.51 2.28
10 -6 -3 15.26 2.51
-10 6 -3 17.68 2.2
-6 -10 -3 16.81 2.25
-10 6 3 16.1 2.2
-10 6 3 20.06 1.81
10 -6 3 21.34 2.52
-6 -10 3 15.92 1.98
10 -7 -3 5.95 2.09
-7 -10 -3 7.11 1.75
-10 7 -3 6.29 1.81
-7 -10 -3 7.39 1.73
-7 -10 -3 5.63 1.79
-10 7 -3 5.9 1.68
-7 -10 3 5.65 1.46
-10 7 3 6.08 1.67
10 -7 3 5.63 1.95
-10 7 3 5.92 1.27
-8 -10 -3 5.2 1.61
-10 8 -3 9.46 1.97
-10 8 -3 7.5 1.65
-8 -10 -3 5.79 1.77
10 -8 -3 4.12 1.94
-8 -10 -3 7.18 1.86
10 -8 3 7.28 2.12
-8 -10 3 7.37 1.5
-10 8 3 4.17 1.7
10 -9 -3 -0.08 1.92
-9 -10 -3 1.65 1.66
-10 9 -3 0.51 1.63
-9 -10 -3 1.53 1.59
-10 9 -3 -0.85 1.35
-9 -10 -3 0.22 1.53
10 -9 3 1.97 1.93
-10 9 3 1.24 1.6
-9 -10 3 -0.9 1.29
10 -10 -3 4.26 2.3
-10 -10 -3 2.78 1.76
-10 -10 -3 2.97 1.84
-10 10 -3 -1.04 1.72
-10 -10 -3 2.02 1.67
-10 10 -3 3.63 1.68
-10 10 3 4.32 1.86
-10 -10 3 1.12 1.31
10 -10 3 0.59 2.05
-11 -10 -3 4.93 1.95
-10 11 -3 -0.8 1.76
-11 -10 -3 3.59 1.82
-10 11 -3 3.21 1.73
10 -11 -3 1.45 2.32
-10 11 3 0.58 1.8
10 -11 3 2.14 2.22
-11 -10 3 0.35 1.35
-11 -9 -3 10.54 2.11
-11 -9 -3 5.89 2.03
9 -11 -3 6.23 2.41
-9 11 -3 8.07 2.17
-9 11 -3 9.75 1.98
-9 11 3 11.35 2.18
-11 -9 3 10.09 1.65
9 -11 3 8.73 2.45
-8 11 -3 14.95 2.46
-11 -8 -3 17.56 2.37
-11 -8 -3 19.6 2.6
-8 11 -3 16.48 2.31
8 -11 -3 19.77 2.91
-8 11 3 15.84 2.42
8 -11 3 14.44 2.27
8 -11 3 17.81 2.65
-11 -8 3 17.41 1.93
-11 -8 3 15.68 1.91
7 -11 -3 3.82 2
-11 -7 -3 -0.16 1.55
-7 11 -3 2.9 1.76
-11 -7 -3 2.53 1.52
-7 11 -3 4.82 1.56
-7 11 3 4.99 1.79
-11 -7 3 5.47 1.3
7 -11 3 4.05 1.6
7 -11 3 5.36 2.01
-11 -6 -3 3.33 1.5
-6 11 -3 2.48 1.51
6 -11 -3 4.16 2.03
-11 -6 -3 2.66 1.49
-6 11 -3 1.44 1.6
-11 -6 3 1.49 1.11
-6 11 3 -0.01 1.56
6 -11 3 3.68 1.85
6 -11 3 2.64 1.61
5 -11 -3 6.41 2.11
-5 11 -3 5.34 1.74
-5 11 -3 5.53 1.66
-11 -5 -3 5.26 1.65
-11 -5 -3 5.63 1.6
5 -11 3 6.29 2.09
-11 -5 3 5.92 1.69
5 -11 3 3.24 1.65
-5 11 3 5.13 1.69
-11 -5 3 6.6 1.28
-11 -4 -3 7.39 1.61
-4 11 -3 6.21 1.62
-4 11 -3 5.13 1.71
4 -11 -3 5.41 2.08
-11 -4 -3 5.81 1.64
4 -11 -3 3.72 1.42
4 -11 3 7.71 2.04
4 -11 3 6.54 1.64
-4 11 3 6.17 1.77
-11 -4 3 8.53 1.31
-11 -4 3 6.7 1.71
3 -11 -3 4.59 1.96
-3 11 -3 0.23 1.4
3 -11 -3 3.21 1.53
-11 -3 -3 0.41 1.48
-11 -3 -3 1.26 1.5
-3 11 -3 2.18 1.47
3 -11 3 0.5 1.68
-3 11 3 3.45 1.59
-11 -3 3 1.28 1.08
-3 11 3 -1.36 0.87
-11 -3 3 3.46 1.46
-11 -3 3 1.43 0.92
3 -11 3 3.05 1.59
-11 -2 -3 10.29 1.9
2 -11 -3 5.82 1.73
-2 11 -3 8.86 1.77
-11 -2 -3 10.16 1.81
2 -11 -3 11.4 2.18
2 -11 3 7.1 1.78
-11 -2 3 10.6 1.76
-11 -2 3 9.29 1.36
-11 -2 3 9.11 1.38
-2 11 3 10.53 1.87
2 -11 3 10.9 2.11
-2 11 3 9.45 1.38
-11 -1 -3 3.39 1.53
-1 11 -3 5.29 1.69
1 -11 -3 5.38 1.8
1 -11 -3 6.38 1.66
-11 -1 -3 2.65 1.53
-11 -1 3 3.74 1.21
-11 -1 3 3.71 1.45
-1 11 3 5.77 1.64
1 -11 3 5.84 1.81
1 -11 3 6.37 1.64
-11 -1 3 5.88 1.19
0 -11 -3 8.38 1.85
0 -11 -3 6.99 1.61
-11 0 -3 8.37 1.83
-11 0 -3 6.58 1.66
0 11 -3 6.68 1.68
0 -11 3 8.54 1.81
-11 0 3 3.19 1.21
-11 0 3 8.31 1.36
-11 0 3 8.25 1.56
0 -11 3 5.48 1.65
11 0 3 7.65 1.4
0 11 3 8.5 1.67
11 -1 -3 33.62 2.9
-1 -11 -3 32.11 2.97
-1 -11 -3 35.61 3.08
-11 1 -3 30.82 2.98
-11 1 -3 27.56 2.87
1 11 3 34.22 2.85
-11 1 3 29.06 2.53
-11 1 3 32.18 2.59
-1 -11 3 23.76 2.75
11 -1 3 35.6 2.91
-1 -11 3 33.58 2.94
-11 1 3 30.53 2.74
-11 2 -3 61.73 4.55
-2 -11 -3 62.64 4.77
11 -2 -3 63.45 4.83
-2 -11 -3 62.82 4.64
-11 2 -3 60.13 4.56
-11 2 3 69.68 4.44
-2 -11 3 70.34 4.58
2 11 3 63.42 4.61
11 -2 3 69.99 4.69
-11 2 3 65.13 4.36
-3 -11 -3 25.87 2.6
-11 3 -3 31.26 2.89
-11 3 -3 24.8 2.8
-3 -11 -3 26.96 2.74
11 -3 -3 23.52 2.85
3 11 3 32.04 2.88
-11 3 3 32.96 2.71
-11 3 3 33.43 2.57
11 -3 3 31.5 2.89
-3 -11 3 28.73 2.74
-4 -11 -3 -0.96 1.16
11 -4 -3 1.96 1.64
-11 4 -3 0.94 1.51
-4 -11 -3 1.58 1.47
-11 4 -3 0.96 1.45
-11 4 3 2.2 1.2
11 -4 3 1.31 1.65
-4 -11 3 -0.27 1.4
-11 4 3 1.76 1.37
-5 -11 -3 10.43 1.97
-5 -11 -3 10.25 1.43
11 -5 -3 11.47 2.17
-11 5 -3 9.22 1.83
-11 5 -3 10.41 1.99
-5 -11 3 5.53 1.66
11 -5 3 13.16 2.11
-11 5 3 8.24 1.76
-11 5 3 9.61 1.48
-6 -11 -3 30.71 3.08
-11 6 -3 30.34 3.14
-11 6 -3 33.13 3.02
11 -6 -3 35.96 3.51
-6 -11 3 31.34 2.92
11 -6 3 32.43 3.32
-11 6 3 33.31 2.69
-11 6 3 30.99 3.01
11 -7 -3 19.34 2.84
-11 7 -3 16.49 2.31
-11 7 -3 23.33 2.7
-7 -11 -3 22.75 2.6
11 -7 3 19.99 2.75
-11 7 3 22.07 2.5
-11 7 3 20.77 2.03
-7 -11 3 20.67 2.3
-8 -11 -3 9.57 2.04
-11 8 -3 8.27 1.77
11 -8 -3 8.18 2.36
-11 8 -3 7.9 2.04
11 -8 3 9.72 2.32
-8 -11 3 7.45 1.69
-11 8 3 9 1.98
-9 -11 -3 0.01 1.55
-11 9 -3 1.13 1.74
-9 -11 -3 -1.08 1.67
-11 9 -3 3.23 1.61
11 -9 -3 0.52 1.89
-9 -11 -3 1.27 1.66
11 -9 3 -0.46 1.97
-9 -11 3 1.08 1.38
-11 9 3 -0.65 1.64
-10 -11 -3 2.84 1.83
-11 10 -3 2.77 1.61
-11 10 -3 6.1 2.07
-10 -11 -3 4.62 1.88
-10 -11 -3 3.85 1.89
11 -10 -3 4.39 2.32
11 -10 3 5.54 2.33
-11 10 3 4.84 1.97
-10 -11 3 1.66 1.44
-11 -11 -3 1.03 1.85
-11 -11 -3 1.07 1.79
-11 11 -3 0.47 1.62
-11 11 -3 2.26 1.94
11 -11 -3 1.91 2.35
-11 -11 -3 0.13 1.7
11 -11 3 -0.75 2.13
-11 -11 3 -0.35 1.38
-11 11 3 -1.1 1.87
11 -12 -3 -0.49 2.34
-12 -11 -3 2.78 2.02
-11 12 -3 -0.54 1.65
-12 -11 -3 0.75 1.86
-12 -11 -3 2.38 1.89
-11 12 3 -0.23 1.99
-12 -11 3 -0.43 1.49
11 -12 3 1.56 2.34
10 -12 -3 5.15 2.5
-12 -10 -3 3.35 1.84
-10 12 -3 2.81 1.78
-12 -10 -3 1.82 1.87
-12 -10 3 4.85 1.5
10 -12 3 1.82 2.35
-10 12 3 0.76 1.96
-12 -9 -3 8.73 2.21
-12 -9 -3 5.81 2.11
9 -12 -3 6.55 2.42
-9 12 -3 9.99 2.03
9 -12 3 9.78 2.45
-9 12 3 8.93 2.19
-12 -9 3 8.99 1.69
-12 -9 3 7.11 1.7
-12 -8 -3 14.22 2.32
8 -12 -3 15.68 2.84
-8 12 -3 17.05 2.34
-12 -8 -3 17.61 2.53
-8 12 3 12.77 2.39
-12 -8 3 15.95 1.95
8 -12 3 11.42 2.51
-12 -8 3 18.35 2.05
-7 12 -3 3.87 1.7
-12 -7 -3 5.54 1.75
7 -12 -3 6.11 2.16
-12 -7 -3 7.38 1.89
-7 12 3 4.42 1.94
7 -12 3 6.63 2.24
7 -12 3 7.46 1.99
-12 -7 3 3.96 1.42
6 -12 -3 1.75 2.02
-12 -6 -3 4.38 1.72
-12 -6 -3 3.9 1.63
-6 12 -3 0.87 1.43
6 -12 3 4.44 1.68
6 -12 3 2.22 1.96
-12 -6 3 3.01 1.2
-6 12 3 0.39 1.71
-12 -5 -3 1.44 1.48
-12 -5 -3 -0.39 1.4
-5 12 -3 1.97 1.58
5 -12 -3 -1.04 1.82
5 -12 3 0.22 1.77
-5 12 3 0.54 1.59
-12 -5 3 2.27 1.44
5 -12 3 1.23 1.58
-12 -5 3 2.25 1.21
4 -12 -3 10.14 1.87
-12 -4 -3 4.89 1.71
-4 12 -3 4.77 1.59
4 -12 -3 1.57 1.93
-12 -4 -3 4.11 1.56
-12 -4 3 6.19 1.29
-4 12 3 7.46 1.73
-12 -4 3 4.65 1.64
4 -12 3 4.55 1.97
4 -12 3 5.47 1.69
-12 -3 -3 2.22 1.56
3 -12 -3 1.43 1.52
-12 -3 -3 2.05 1.5
3 -12 -3 -1.68 1.7
-3 12 -3 3.88 1.64
-12 -3 3 1.59 1.43
-12 -3 3 3.12 1.17
3 -12 3 3.53 1.66
-3 12 3 2.18 1.06
-3 12 3 1.05 1.58
3 -12 3 2.69 1.42
-12 -2 -3 0.04 1.52
-12 -2 -3 1.87 1.44
-2 12 -3 -0.34 1.37
2 -12 -3 0.46 1.68
2 -12 -3 3.07 1.58
2 -12 3 0.54 1.48
-2 12 3 2.33 1.1
-12 -2 3 2.1 1.14
-12 -2 3 1.9 1.39
-2 12 3 0.92 1.54
2 -12 3 1.4 1.68
12 1 -3 2.33 1.31
-12 -1 -3 4.46 1.64
1 -12 -3 1.88 1.71
1 -12 -3 1.78 1.55
-1 12 -3 2.25 1.49
-12 -1 -3 3.74 1.62
1 -12 3 2.37 1.53
-12 -1 3 2.88 1.13
1 -12 3 3.39 1.68
-1 12 3 2.51 1.54
-12 -1 3 2.03 1.38
0 12 -3 6.39 1.77
0 -12 -3 9.54 1.89
-12 0 -3 5.99 1.67
12 0 -3 6.62 1.61
-12 0 -3 3.81 1.73
0 -12 -3 7.92 1.81
0 -12 3 7.2 1.81
12 0 3 6.88 1.41
0 -12 3 7.08 1.72
-12 0 3 6.72 1.54
0 12 3 8.22 1.81
-12 0 3 5.35 1.32
-1 -12 -3 11.56 2
-12 1 -3 9.46 1.95
-1 -12 -3 10.04 1.88
12 -1 -3 8.8 1.8
-12 1 -3 7.31 1.79
-1 -12 3 7.48 1.77
-12 1 3 7.24 1.53
-12 1 3 7.02 1.48
1 12 3 8.53 1.85
-1 -12 3 11.09 1.84
12 -1 3 8.91 1.65
-2 -12 -3 16.8 2.12
-12 2 -3 14.46 2.13
-12 2 -3 16.25 2.18
12 -2 -3 13.7 2.06
-2 -12 -3 10.61 2.04
-2 -12 3 14.8 2.08
-12 2 3 15.55 1.9
12 -2 3 18.29 2.06
-12 2 3 11.32 1.85
-12 3 -3 1.42 1.43
12 -3 -3 1.01 1.51
-12 3 -3 0.07 1.52
-3 -12 -3 1.2 1.48
-3 -12 -3 0.3 1.39
-12 3 3 -0.99 1.11
-12 3 3 0.78 1.36
-3 -12 3 -1.73 1.32
12 -3 3 0.13 1.43
-12 4 -3 12.91 2.13
-4 -12 -3 9.36 1.99
12 -4 -3 12.34 2.24
-12 4 -3 11.27 2.04
-4 -12 -3 14.06 1.79
-4 -12 3 9.3 1.83
12 -4 3 14.11 2.17
-12 4 3 13.43 1.92
-12 4 3 11.13 1.7
-12 5 -3 12.72 2.03
-5 -12 -3 7.37 1.93
-12 5 -3 8.48 2.01
12 -5 -3 7.84 2.12
-5 -12 3 9.02 1.9
12 -5 3 12.29 2.09
-12 5 3 12.52 1.93
-12 5 3 9.34 1.55
-6 -12 -3 22.42 2.64
12 -6 -3 13.85 2.67
-12 6 -3 20.31 2.6
-12 6 -3 23.57 2.54
-6 -12 3 19.36 2.4
-12 6 3 21.98 2.48
-12 6 3 19.67 2.06
12 -6 3 18.77 2.66
-12 7 -3 14.99 2.21
12 -7 -3 14.09 2.64
-7 -12 -3 18.06 2.43
-12 7 -3 14.91 2.45
12 -7 3 15.75 2.63
-12 7 3 15.22 2.33
-7 -12 3 13.58 2.11
-12 8 -3 4.41 1.72
-8 -12 -3 1.88 1.74
12 -8 -3 -1.23 2.03
-12 8 -3 3.6 1.96
-12 8 3 2.25 1.74
-8 -12 3 4.4 1.62
12 -8 3 6.53 2.2
-12 9 -3 1.14 1.66
12 -9 -3 2.35 2.26
-12 9 -3 -0.84 1.79
-9 -12 -3 4.85 1.86
-12 9 3 0.41 1.84
12 -9 3 3.12 2.15
-9 -12 3 -0.83 1.43
-10 -12 -3 9.2 2.16
-12 10 -3 8.22 2.01
-12 10 -3 5.52 2.15
12 -10 -3 8.93 2.65
-12 10 3 6.02 2.21
12 -10 3 7.57 2.48
-10 -12 3 9.04 1.97
-12 11 -3 -2.27 1.85
-11 -12 -3 -0.28 1.79
12 -11 -3 0.6 2.32
-12 11 -3 0.36 1.65
-11 -12 3 0.45 1.61
-12 11 3 1.91 1.98
12 -11 3 1.73 2.1
-12 -12 -3 1.11 2.05
-12 -12 -3 1.47 1.95
12 -12 -3 0.74 2.46
-12 12 -3 3.35 1.85
-12 -12 3 2.6 1.62
12 -12 3 -1.56 2.29
-12 12 3 3.77 2.26
-13 -12 -3 -0.51 1.94
-13 -12 -3 0.19 1.93
12 -13 -3 -3.07 2.45
-13 -12 3 1.96 1.73
-12 13 3 -1.89 2.03
12 -13 3 -4.21 2.33
-13 -11 -3 0.08 1.99
-11 13 -3 -0.76 1.68
-13 -11 -3 -1.58 1.96
11 -13 -3 -2.37 2.41
-13 -11 -3 0.55 1.87
11 -13 3 -0.66 2.35
-11 13 3 -1.36 2.05
-13 -11 3 0.83 1.54
-13 -10 -3 -0.9 1.87
10 -13 -3 0.82 2.33
-13 -10 -3 1.01 1.83
-10 13 -3 0.4 1.68
-13 -10 3 -0.75 1.39
-10 13 3 1.03 2.11
10 -13 3 -3.56 2.18
-13 -9 -3 4.59 1.98
9 -13 -3 4.14 2.22
-9 13 -3 5.76 1.96
-13 -9 -3 8.36 2.12
9 -13 3 5.66 2.24
-13 -9 3 6.74 1.67
-9 13 3 6.43 2.21
-13 -9 3 4.53 1.53
-13 -8 -3 9.36 2.32
-8 13 -3 9.11 2.05
-13 -8 -3 8.98 2.18
8 -13 -3 7.73 2.6
-8 13 3 13.7 2.42
-13 -8 3 9.43 1.77
8 -13 3 13.49 2.55
7 -13 -3 11.87 2.63
-13 -7 -3 7.75 1.94
-13 -7 -3 10.46 2.18
-7 13 -3 8.96 1.99
-7 13 3 9.54 2.25
7 -13 3 9.61 2.41
-13 -7 3 5.32 1.56
-6 13 -3 0.68 1.56
6 -13 -3 1.95 2.11
-13 -6 -3 0.2 1.6
-13 -6 -3 -0.64 1.58
-13 -6 3 0.49 1.19
-13 -6 3 -1.37 1.55
-6 13 3 1.08 1.66
6 -13 3 0.05 1.71
6 -13 3 1.43 2.05
-13 -5 -3 6.95 1.87
5 -13 -3 6.2 2.1
-13 -5 -3 6.89 1.79
-5 13 -3 6.99 1.87
5 -13 3 3.9 1.87
-13 -5 3 8.86 1.99
5 -13 3 7.78 2.29
-5 13 3 7.66 2.02
-13 -5 3 4.28 1.43
-13 -4 -3 17.6 2.53
-4 13 -3 13.75 2.18
4 -13 -3 21.07 2.86
-13 -4 -3 15.49 2.31
4 -13 3 20.31 2.52
4 -13 3 21.84 2.84
-13 -4 3 13.56 1.81
-4 13 3 14.24 2.37
-13 -4 3 16.6 2.36
-13 -3 -3 24.4 2.7
3 -13 -3 25.12 2.99
-3 13 -3 22.32 2.59
-13 -3 -3 19.35 2.61
3 -13 -3 26.03 2.75
3 -13 3 20.68 2.64
-13 -3 3 24.4 2.26
-13 -3 3 23.58 2.63
3 -13 3 23.42 2.85
-3 13 3 19.97 2.56
-13 -2 -3 3.3 1.55
-13 -2 -3 1.75 1.65
-2 13 -3 2.01 1.61
2 -13 -3 2.44 1.61
2 -13 -3 2.68 1.86
2 -13 3 1.7 1.58
-13 -2 3 2.91 1.26
-13 -2 3 -0.32 1.37
2 -13 3 1.14 1.72
-2 13 3 2.83 1.7
-2 13 3 2.19 1.19
-13 -1 -3 0.5 1.5
-1 13 -3 1.36 1.52
1 -13 -3 -0.87 1.64
13 1 -3 0.01 1.29
1 -13 -3 2.89 1.64
-13 -1 -3 4.2 1.71
-1 13 3 1.08 1.55
1 -13 3 0.71 1.66
-1 13 3 3.22 1.31
1 -13 3 1.32 1.55
-13 -1 3 1.61 1.19
-13 -1 3 1.78 1.4
0 13 -3 4.73 1.73
-13 0 -3 4.1 1.63
-13 0 -3 3.6 1.72
0 -13 -3 8.26 1.89
13 0 -3 7.28 1.65
0 -13 -3 5.69 1.81
-13 0 3 6.8 1.37
0 -13 3 7.19 1.85
0 -13 3 9.15 1.88
-13 0 3 7.31 1.59
-1 -13 -3 7.04 1.85
-13 1 -3 6.99 1.88
-1 -13 -3 7.47 1.86
-13 1 -3 8.78 1.87
13 -1 -3 6.75 1.69
-1 -13 3 9.07 1.84
13 -1 3 8.11 1.58
-13 1 3 6.6 1.51
-13 1 3 5.55 1.53
-1 -13 3 7.95 1.81
-2 -13 -3 2.05 1.6
-13 2 -3 1.32 1.59
13 -2 -3 -0.9 1.45
-2 -13 -3 1.07 1.49
-13 2 -3 2.62 1.6
-13 2 3 -1.39 1.12
-2 -13 3 0.47 1.45
-13 2 3 -0.66 1.26
13 -2 3 1.34 1.46
13 -3 -3 0.66 1.55
-3 -13 -3 0.25 1.4
-13 3 -3 1.47 1.52
-3 -13 -3 1.28 1.44
-13 3 -3 1.59 1.64
-13 3 3 3.27 1.52
-3 -13 3 0.86 1.57
13 -3 3 3.6 1.57
-13 3 3 1.65 1.3
-13 4 -3 2.36 1.54
-13 4 -3 2.08 1.73
13 -4 -3 3.01 1.79
-4 -13 -3 5.18 1.75
-4 -13 -3 4.17 1.4
13 -4 3 3.39 1.68
-13 4 3 -0.45 1.47
-4 -13 3 0.58 1.6
-13 4 3 0.36 1.24
-13 5 -3 2.63 1.59
13 -5 -3 5.76 2.09
-5 -13 -3 1.05 1.62
-13 5 -3 0.6 1.64
-13 5 3 0.57 1.56
-13 5 3 3.22 1.29
-5 -13 3 1.61 1.62
13 -5 3 -0.03 1.64
-13 6 -3 6.41 2.01
13 -6 -3 1.95 2.12
-6 -13 -3 4.9 1.85
-13 6 -3 1.9 1.77
-6 -13 3 6.12 1.86
-13 6 3 4.33 1.43
-13 6 3 1.73 1.58
13 -6 3 2.45 1.91
-13 7 -3 5.96 2.05
-7 -13 -3 7.22 2.06
-13 7 -3 7.69 1.87
13 -7 -3 4.25 2.25
-7 -13 3 7.52 1.88
-13 7 3 5.47 1.93
13 -7 3 1.82 2.2
13 -8 -3 2.4 2.25
-8 -13 -3 1.8 1.87
-13 8 -3 3.73 1.74
-13 8 -3 2.45 1.99
13 -8 3 -0.2 1.96
-13 8 3 2.43 1.85
-8 -13 3 0.01 1.62
-13 9 -3 -0.63 1.58
-9 -13 -3 2.53 1.9
13 -9 -3 4.27 2.43
-13 9 -3 -0.92 1.91
-9 -13 3 3.23 1.71
-13 9 3 -0.15 1.74
13 -9 3 1.82 2.17
-10 -13 -3 3.77 2.03
-13 10 -3 3.51 1.81
13 -10 -3 4.61 2.55
-13 10 -3 4.25 2.29
-10 -13 3 4.5 1.8
13 -10 3 5.19 2.51
-13 10 3 2.42 2.11
13 -11 -3 4.48 2.71
-11 -13 -3 3.79 2.08
-13 11 -3 3.41 1.9
-13 11 -3 -0.3 2.09
-13 11 3 -0.01 2.02
-11 -13 3 6.49 1.97
13 -11 3 2.36 2.5
13 -12 -3 2.81 2.76
-12 -13 -3 3.13 2.19
-12 -13 3 6.95 2.01
13 -12 3 2.14 2.54
-13 12 3 1.99 2.24
-14 -11 -3 -0.76 1.99
-14 -11 -3 4.26 2.24
11 -14 -3 0.17 2.53
-14 -11 -3 -2.95 1.91
11 -14 3 -2.63 2.43
-14 -11 3 1.29 1.58
-11 14 3 1.83 2.28
-14 -10 -3 -1.47 1.98
-10 14 -3 0.49 1.76
10 -14 -3 0.18 2.38
-14 -10 -3 1.7 1.93
10 -14 3 -0.28 2.37
-14 -10 3 1.67 1.62
-10 14 3 6.28 2.29
-14 -9 -3 1.4 2.03
-9 14 -3 0.55 1.78
-14 -9 -3 1.48 1.87
9 -14 -3 3.28 2.46
-14 -9 3 1.05 1.51
9 -14 3 1.83 2.28
-9 14 3 -1.88 1.93
-14 -9 3 3.59 1.51
-14 -8 -3 0.57 1.65
-8 14 -3 3.99 1.85
8 -14 -3 -0.7 2.28
-14 -8 -3 1.55 1.84
-8 14 3 1.43 1.96
-14 -8 3 2.75 1.49
8 -14 3 -0.04 2.15
7 -14 -3 0.27 2.25
-7 14 -3 1.73 1.68
-14 -7 -3 0.57 1.8
-14 -7 -3 2.9 1.9
-14 -7 3 -0.61 1.34
-7 14 3 1.55 1.94
7 -14 3 1.79 2.24
-6 14 -3 0.82 1.69
-14 -6 -3 1.54 1.83
6 -14 -3 3.02 2.11
-14 -6 -3 4.85 1.96
6 -14 3 3.97 1.91
-14 -6 3 1.82 1.79
6 -14 3 -2.23 2.07
-6 14 3 1.41 1.81
-14 -6 3 2.14 1.41
-14 -5 -3 10.33 2.16
-14 -5 -3 10.29 2.27
5 -14 -3 15.18 2.8
-5 14 -3 9.83 2.13
5 -14 3 9.93 2.43
-14 -5 3 8.85 2.04
-5 14 3 11.02 2.43
-14 -5 3 12.43 1.78
5 -14 3 10.51 2.3
-14 -4 -3 15.05 2.28
-14 -4 -3 12.6 2.36
-4 14 -3 11.01 2.09
4 -14 -3 14.37 2.69
4 -14 3 12.28 2.57
-14 -4 3 13.27 2.28
4 -14 3 9.45 2.19
-14 -4 3 11.32 1.73
-4 14 3 13.19 2.36
-14 -3 -3 5.32 1.96
-14 -3 -3 2.84 1.74
-3 14 -3 6.17 1.97
3 -14 -3 7.11 2.29
-14 -3 3 9.06 1.59
-14 -3 3 8.32 1.93
3 -14 3 10.63 2.12
3 -14 3 5.06 2.13
2 -14 -3 -0.75 1.91
-14 -2 -3 0.17 1.59
-14 -2 -3 2.59 1.77
-2 14 -3 2.06 1.76
2 -14 -3 1.15 1.74
2 -14 3 0.77 1.73
-14 -2 3 1.6 1.53
-14 -2 3 0.31 1.24
2 -14 3 0.04 1.62
-14 -1 -3 2.92 1.86
1 -14 -3 3.41 1.8
-14 -1 -3 5.06 1.95
1 -14 -3 5.82 1.98
-1 14 -3 4.78 1.75
1 -14 3 3.97 1.8
-14 -1 3 2.49 1.58
-1 14 3 4.04 1.46
-14 -1 3 3.97 1.44
1 -14 3 5.79 2.01
-14 0 -3 20.75 2.8
-14 0 -3 20.76 2.61
14 0 -3 24.89 2.5
0 14 -3 22.45 2.77
0 -14 -3 21.83 2.78
0 -14 -3 20.39 2.82
-14 0 3 21.62 2.57
0 -14 3 23.59 2.81
0 -14 3 25.58 2.79
-14 0 3 19.57 2.27
-14 1 -3 12.75 2.34
-14 1 -3 10.68 2.14
14 -1 -3 13.58 2.12
-1 -14 -3 13.36 2.3
-1 -14 -3 14.22 2.37
1 14 -3 15.31 2.35
-1 -14 3 18.3 2.39
-14 1 3 15.39 2.05
-1 -14 3 12.33 2.28
-14 1 3 11.17 1.91
14 -2 -3 1.42 1.68
-14 2 -3 4.16 1.92
-14 2 -3 1.42 1.76
-2 -14 -3 2.29 1.75
-2 -14 -3 0.49 1.57
14 -2 3 1.2 1.43
-2 -14 3 4.16 1.74
-14 2 3 3.75 1.61
-14 2 3 1.9 1.51
-3 -14 -3 0.48 1.47
14 -3 -3 -0.38 1.61
-14 3 -3 0.93 1.68
-3 -14 -3 0.79 1.72
-14 3 -3 -0.13 1.62
-3 -14 3 -0.32 1.52
-14 3 3 0.04 1.49
-14 3 3 -0.2 1.34
14 -3 3 -3.08 1.55
-14 4 -3 -1.63 1.63
14 -4 -3 -0.32 1.81
-14 4 -3 3.21 1.72
-4 -14 -3 1.31 1.58
-4 -14 3 -3.4 1.56
-14 4 3 -0.02 1.62
-14 4 3 -0.46 1.28
14 -4 3 0.88 1.68
-5 -14 -3 0.48 1.73
14 -5 -3 3.59 2.09
-14 5 -3 1.28 1.61
-14 5 -3 2.42 1.85
-14 5 3 0.98 1.31
-5 -14 3 0.22 1.59
-14 5 3 0.91 1.67
14 -5 3 -0.13 1.66
-14 6 -3 -1.07 1.74
14 -6 -3 -1.45 1.96
-14 6 -3 0.86 1.55
-6 -14 -3 0.53 1.77
-14 6 3 -1.49 1.68
-6 -14 3 0.47 1.6
14 -6 3 -1.52 1.87
-14 7 -3 1.27 1.89
-14 7 -3 0.2 1.67
14 -7 -3 2.46 2.18
-7 -14 -3 1.31 1.83
-7 -14 3 -0.32 1.77
-14 7 3 0.74 1.7
14 -7 3 0.3 1.92
-14 8 -3 1.08 1.98
14 -8 -3 4.19 2.33
-8 -14 -3 -0.09 1.82
-14 8 -3 -1.02 1.6
-8 -14 3 -1.23 1.69
-14 8 3 -0.65 1.7
14 -8 3 2.76 2.16
-9 -14 -3 1.38 1.96
-14 9 -3 -2.59 1.86
14 -9 -3 2.01 2.46
-14 9 -3 1.91 1.72
14 -9 3 -2.8 2.02
-14 9 3 1.07 1.85
-9 -14 3 0.51 1.72
-14 10 -3 4.29 2.31
14 -10 -3 3.17 2.72
-10 -14 -3 1.36 2.12
-14 10 -3 2.56 1.93
14 -10 3 7.21 2.65
-10 -14 3 3.28 1.89
-14 10 3 1.3 2.2
-11 -14 -3 5.39 2.35
-14 11 -3 -0.06 1.81
14 -11 -3 4.75 2.81
-14 11 -3 5.6 2.38
-11 -14 3 2.02 1.95
14 -11 3 3.99 2.69
-14 11 3 1.86 2.19
-15 -10 -3 1.88 1.95
10 -15 -3 -0.71 2.53
-15 -10 -3 -1.76 1.97
-10 15 3 3.97 2.3
10 -15 3 0.63 2.44
-15 -10 3 -1.02 1.56
9 -15 -3 -0.33 2.48
-15 -9 -3 -0.74 1.94
-15 -9 -3 2.13 2.04
9 -15 3 -1.56 2.28
-15 -9 3 1.59 1.62
-9 15 3 2.28 2.19
-15 -9 3 0.25 1.5
8 -15 -3 -0.69 2.4
-8 15 -3 -0.54 1.78
-15 -8 -3 1.7 1.98
-15 -8 -3 0.21 1.9
-15 -8 3 0.67 1.49
8 -15 3 2.88 2.43
-8 15 3 -0.66 1.99
-15 -7 -3 1.16 1.81
-15 -7 -3 0.89 1.74
-7 15 -3 -0.79 1.58
7 -15 -3 -0.21 2.11
-15 -7 3 -0.64 1.47
7 -15 3 -1 2.2
-15 -6 -3 1.54 1.75
6 -15 -3 -2.02 2.1
-15 -6 -3 3.23 1.93
-6 15 -3 0.24 1.71
-15 -6 3 1.91 1.44
6 -15 3 0.94 2.17
-15 -5 -3 2.64 1.9
-5 15 -3 3.7 1.88
5 -15 -3 3.63 2.18
-15 -5 -3 2.02 2.05
-15 -5 3 2.96 1.9
5 -15 3 7.62 2.45
5 -15 3 4.73 2.03
-15 -5 3 4.52 1.59
4 -15 -3 0.39 2.13
-15 -4 -3 2.83 1.8
-4 15 -3 4.77 1.92
-15 -4 -3 3.98 2
4 -15 3 3.12 1.97
-15 -4 3 4.28 1.51
-15 -4 3 2.88 1.8
4 -15 3 2.89 2.15
-15 -3 -3 -0.26 1.79
-3 15 -3 1.74 1.72
-15 -3 -3 3.12 1.84
3 -15 -3 -3.77 1.84
3 -15 3 -0.06 1.75
-15 -3 3 -0.3 1.62
3 -15 3 -1.52 1.88
-15 -3 3 -0.11 1.35
-15 -2 -3 -2.67 1.65
2 -15 -3 -1.63 1.86
-2 15 -3 -2.7 1.71
-15 -2 -3 -2.06 1.67
-15 -2 3 0.98 1.56
2 -15 3 0.45 1.84
2 -15 3 1.01 1.71
-15 -2 3 -0.34 1.33
-15 -1 -3 2.87 1.82
1 -15 -3 0.99 1.78
1 -15 -3 -1.03 1.89
-15 -1 -3 4.89 1.94
-1 15 -3 2.62 1.74
-15 -1 3 -0.23 1.49
1 -15 3 0.01 1.7
1 -15 3 0.33 1.73
-15 -1 3 0.13 1.38
0 -15 -3 10.05 2.33
-15 0 -3 13.63 2.4
0 -15 -3 11.39 2.35
0 15 -3 14.07 2.44
-15 0 -3 10.49 2.34
0 -15 3 8.01 2.24
-15 0 3 10.03 1.84
0 -15 3 9.35 2.16
-15 0 3 10.38 2.01
-15 1 -3 17.51 2.64
-1 -15 -3 19.13 2.58
15 -1 -3 15.03 2.39
-1 -15 -3 13.36 2.49
-15 1 -3 15.75 2.47
1 15 -3 18.56 2.65
-1 -15 3 17.14 2.5
-15 1 3 18.84 2.16
-15 1 3 12.17 2.22
-1 -15 3 15.34 2.48
-15 2 -3 6.85 2.16
-15 2 -3 7.59 2.15
-2 -15 -3 2.53 1.97
15 -2 -3 8.62 2.12
-2 -15 -3 8.79 2
-15 2 3 5.13 1.69
-2 -15 3 9.36 2.1
-15 2 3 6.56 1.82
-15 3 -3 -1.01 1.68
15 -3 -3 2.52 1.83
-3 -15 -3 0.36 1.78
-15 3 -3 -2.28 1.65
-3 -15 -3 0.02 1.47
-3 -15 3 -2.47 1.61
-15 3 3 -1.64 1.5
-15 3 3 -1.75 1.34
15 -3 3 2.09 1.66
-4 -15 -3 1.79 1.9
-15 4 -3 4.03 1.92
15 -4 -3 8.56 2.21
-15 4 -3 4.67 1.99
-15 4 3 1.19 1.69
-4 -15 3 2.3 1.87
-15 4 3 2.42 1.49
15 -4 3 4.67 1.87
-15 5 -3 5.52 2.05
-15 5 -3 3.88 2.07
15 -5 -3 3.71 2.2
-5 -15 -3 3.91 1.85
-5 -15 3 2.11 1.92
-15 5 3 6.55 1.9
15 -5 3 0.79 1.82
-6 -15 -3 3.48 2
15 -6 -3 0.62 2.06
-15 6 -3 1.85 1.92
-15 6 -3 6.15 2.16
-6 -15 3 3.66 1.84
15 -6 3 0.86 2.06
-15 6 3 -1.14 1.8
-15 7 -3 0.13 1.66
15 -7 -3 -3.29 1.99
-7 -15 -3 0.39 1.88
-15 7 -3 1.22 1.94
-7 -15 3 1.55 1.85
15 -7 3 -0.79 1.84
-15 7 3 -0.94 1.88
-15 8 -3 0.38 1.85
-15 8 -3 -1.14 1.95
-8 -15 -3 -0.59 2.02
15 -8 -3 -2.35 2.12
15 -8 3 4.97 2.41
-15 8 3 3.29 2.06
-8 -15 3 1.3 1.88
-9 -15 -3 -0.34 2.05
-15 9 -3 -0.72 1.83
15 -9 -3 0.74 2.37
-15 9 -3 -0.53 2.05
15 -9 3 2.22 2.37
-15 9 3 -0.57 1.91
-9 -15 3 -0.21 1.88
-10 -15 -3 1.75 2.18
-15 10 -3 1.69 2.21
15 -10 -3 -2.34 2.55
-15 10 -3 -0.62 1.92
15 -10 3 2.03 2.61
-10 -15 3 0.87 1.89
-15 10 3 1.85 2.21
8 -16 -3 -1.76 2.61
-16 -8 -3 0.71 1.99
-16 -8 -3 -2.29 1.83
-16 -8 3 3.39 1.78
8 -16 3 2.84 2.59
-16 -7 -3 0.49 1.95
-7 16 -3 0.35 1.89
-16 -7 -3 1.36 1.9
7 -16 -3 3.09 2.62
7 -16 3 4.94 2.58
-16 -7 3 0.33 1.65
6 -16 -3 0.11 2.4
-16 -6 -3 0.38 2.02
-6 16 -3 -2.22 1.72
-16 -6 -3 -2.52 1.92
6 -16 3 -0.76 2.33
-16 -6 3 -1.02 1.44
-16 -5 -3 -0.16 1.76
5 -16 -3 0.82 2.34
-16 -5 -3 1.31 1.9
-5 16 -3 -0.85 1.84
-16 -5 3 -2.07 1.67
-16 -5 3 0.58 1.47
5 -16 3 2.08 2.28
-4 16 -3 -4.08 1.51
4 -16 -3 0.2 2.23
-16 -4 -3 0.83 1.97
-16 -4 -3 -1.8 1.82
4 -16 3 -2.53 1.75
4 -16 3 0.64 2.13
-16 -4 3 0.48 1.77
-16 -4 3 -1.15 1.4
-3 16 -3 0.26 1.79
-16 -3 -3 -0.72 1.8
3 -16 -3 -1.35 1.98
-16 -3 -3 0.39 1.88
-16 -3 3 0.29 1.43
3 -16 3 -1.32 1.89
-16 -3 3 -1.36 1.7
3 -16 3 1.1 1.87
-16 -2 -3 -1.12 1.79
-16 -2 -3 0.62 1.94
-2 16 -3 0.59 1.78
2 -16 -3 0.46 1.95
-16 -2 3 -2.65 1.52
-16 -2 3 1.42 1.5
2 -16 3 1.35 1.89
2 -16 3 -0.62 1.78
-1 16 -3 -1.79 1.62
-16 -1 -3 0.57 1.83
1 -16 -3 0.5 2
-16 -1 -3 1.45 1.8
-16 -1 3 -1.83 1.4
1 -16 3 1.09 1.86
-16 -1 3 1.35 1.58
1 -16 3 3.48 1.94
-16 0 -3 0.25 1.91
0 -16 -3 -1.27 1.91
0 16 -3 -0.66 1.71
0 -16 -3 4.06 2.04
-16 0 -3 0.73 1.8
-16 0 3 2.56 1.68
-16 0 3 0.77 1.46
0 -16 3 2.05 1.94
0 -16 3 3.36 1.89
-16 1 -3 4.3 2
-1 -16 -3 2.35 1.98
-16 1 -3 -1 1.74
-1 -16 -3 0.53 1.85
1 16 -3 1.93 1.86
-16 1 3 -0.22 1.59
-1 -16 3 1.53 1.95
-16 1 3 0.88 1.55
-2 -16 -3 1.26 1.73
2 16 -3 4.65 2.13
-2 -16 -3 -0.1 1.89
-16 2 -3 -0.57 1.89
-16 2 -3 2.41 1.88
-16 2 3 1.49 1.64
-16 2 3 0.5 1.66
-2 -16 3 1.13 1.85
-16 3 -3 -2 1.67
16 -3 -3 -1.41 1.75
-3 -16 -3 2.15 1.98
-16 3 -3 -1.71 1.88
-16 3 3 1.37 1.76
-16 3 3 -2.02 1.46
-3 -16 3 0.65 1.76
-16 4 -3 1.66 1.93
16 -4 -3 0.95 2.02
-16 4 -3 3.73 1.97
-4 -16 -3 -0.73 1.86
-16 4 3 2.8 1.61
-16 4 3 5.06 1.89
-4 -16 3 2.61 2.02
-16 5 -3 3.8 2.01
-16 5 -3 1.79 2
16 -5 -3 5.88 2.24
-5 -16 -3 5.67 2.21
-5 -16 3 5.33 2.1
16 -5 3 4.6 2.1
-16 5 3 4.41 1.99
-6 -16 -3 4.24 2.08
-16 6 -3 6.57 2.28
16 -6 -3 0.3 2.29
-16 6 -3 -2.16 1.72
-6 -16 3 1.48 2
16 -6 3 2.54 2.02
-16 6 3 1.04 1.97
-7 -16 -3 2.4 1.97
-16 7 -3 -0.1 2.1
-16 7 -3 0.95 1.88
16 -7 -3 2.98 2.53
-7 -16 3 1.37 1.94
-16 7 3 0.96 2.11
16 -7 3 2.82 2.14
-8 -16 -3 3.62 2.22
-16 8 -3 1.07 2.16
16 -8 -3 0.69 2.41
-16 8 -3 0.65 1.89
16 -8 3 2.96 2.45
-16 8 3 1.22 2.14
-8 -16 3 0.81 1.9
-17 -6 -3 0.86 2.19
6 -17 -3 0.3 2.58
-17 -6 -3 3.23 2.19
6 -17 3 2.03 2.54
-17 -6 3 4.13 1.71
-5 17 -3 -0.24 1.89
5 -17 -3 -0.33 2.39
-17 -5 -3 3.03 1.98
-17 -5 -3 2.52 2.24
-17 -5 3 2.51 2.04
5 -17 3 6.93 2.55
-17 -5 3 3.51 1.73
-4 17 -3 2.32 2.09
-17 -4 -3 2.56 1.93
4 -17 -3 0.24 2.35
-17 -4 -3 3.37 2.18
4 -17 3 0.31 2.2
-17 -4 3 2.97 2.04
4 -17 3 0.63 2.08
-17 -4 3 2.24 1.62
3 -17 -3 -0.18 2.33
-17 -3 -3 0.31 1.99
-17 -3 -3 0.12 2
-3 17 -3 2.29 1.94
3 -17 3 -2.54 1.96
-17 -3 3 -2.64 1.61
-17 -3 3 0.82 1.56
3 -17 3 0.31 2.06
2 -17 -3 -0.78 2.21
-2 17 -3 2.23 2.1
-17 -2 -3 0.01 1.95
-17 -2 -3 -1.34 1.85
-17 -2 3 0.59 1.6
2 -17 3 1.33 2.15
2 -17 3 -1.68 1.82
-17 -2 3 2.02 1.82
-17 -1 -3 4.65 2.03
-17 -1 -3 2.19 1.98
-1 17 -3 1.72 1.89
1 -17 -3 -0.08 2.04
-17 -1 3 2.39 1.63
1 -17 3 1.05 1.96
1 -17 3 2.11 1.94
-17 -1 3 3.09 1.82
-17 0 -3 -0.49 1.87
0 17 -3 -1.27 1.73
-17 0 -3 0.69 1.92
0 -17 -3 0.09 1.86
-17 0 3 -0.64 1.63
0 -17 3 2.43 1.9
-17 0 3 -0.12 1.7
0 -17 3 -1.6 1.78
1 17 -3 1.88 2.11
-17 1 -3 0.08 2.06
-17 1 -3 -1.78 1.81
-1 -17 -3 -0.15 1.92
-17 1 3 1.62 1.79
-17 1 3 0.74 1.6
-1 -17 3 1.97 1.95
-17 2 -3 0.55 1.94
-17 2 -3 -1.9 2
2 17 -3 -0.5 2.09
-2 -17 -3 1.44 2.04
-17 2 3 -0.13 1.76
-2 -17 3 0.97 2.11
-17 2 3 0.2 1.57
-17 3 -3 1.73 1.96
-3 -17 -3 1.36 2.1
-17 3 -3 -0.03 1.99
3 17 -3 1.03 2.05
-17 3 3 -3.39 1.51
-17 3 3 -3.33 1.61
-3 -17 3 1.06 1.93
-17 4 -3 3.15 1.99
-17 4 -3 1.56 2.08
-4 -17 -3 0.93 2.19
-17 4 3 1.48 2.06
-4 -17 3 1.3 2.09
-17 5 -3 1.53 2.18
17 -5 -3 0.77 2.26
-5 -17 -3 2.55 2.1
-17 5 -3 -0.16 1.98
-17 5 3 1.62 1.98
-5 -17 3 3.44 2.28
-17 6 -3 -0.59 2.24
-17 6 -3 -1.66 1.99
-6 -17 -3 3.16 2.21
17 -6 -3 0.58 2.35
-6 -17 3 2.26 2.22
-17 6 3 1.11 2.08
-18 -2 -3 1.32 2.09
-18 -2 -3 -1.87 1.99
2 -18 -3 -0.56 2.34
-2 18 -3 2.51 2.21
-18 -2 3 0.68 1.89
2 -18 3 1.49 2.1
2 -18 3 -2.27 2.1
-18 -2 3 0.9 1.73
-18 -1 -3 0.1 2
1 -18 -3 0.38 2.09
-1 18 -3 2.42 2.18
-18 -1 -3 1.79 2.2
-18 -1 3 1.93 1.99
1 -18 3 3.2 2.17
1 -18 3 -3.4 1.83
-18 -1 3 1.43 1.77
-18 0 -3 1.31 2.11
-18 0 -3 -0.54 1.94
0 -18 -3 3.49 2.27
0 18 -3 1.99 1.99
-18 0 3 2.55 1.84
-18 0 3 2.53 1.95
0 -18 3 1.07 2.04
1 18 -3 -1.58 2.05
-18 1 -3 2.37 2.13
-18 1 -3 -0.93 2.14
-18 1 3 -0.88 1.67
-1 -18 3 -1.96 1.94
-18 1 3 1.08 1.83
-18 2 -3 0.6 2.17
-18 2 -3 1.7 2.02
2 18 -3 -0.7 2.13
-2 -18 3 -0.78 1.98
-18 2 3 -0.83 1.75
-18 2 3 0.03 1.68
0 0 -4 260.19 16.46
0 0 4 300.96 16.17
0 0 4 311.72 16.18
0 1 -4 166.61 9.95
-1 0 -4 167.87 9.94
-1 0 -4 168.91 9.77
0 -1 -4 174.04 9.88
1 0 -4 169.2 9.89
-1 0 4 180.74 9.69
1 0 4 175.95 9.77
0 -1 4 173.31 9.71
0 1 4 177.36 9.76
0 1 4 178.91 9.75
0 -1 4 173.13 9.71
1 1 -4 68.8 4.52
-1 1 -4 71.08 4.41
-1 -1 -4 68.39 4.49
1 -1 -4 70.99 4.4
-1 -1 -4 65.69 4.43
-1 1 -4 72.53 4.58
1 -1 4 80.28 4.43
-1 1 4 80.88 4.4
1 -1 4 82.97 4.46
-1 -1 4 77.33 4.29
-1 1 4 78.63 4.39
-1 -1 4 80.52 4.33
1 1 4 84.89 4.49
1 -2 -4 132.11 7.36
-1 2 -4 129.92 7.56
-2 -1 -4 125.86 7.41
-2 -1 -4 126.18 7.52
-1 2 -4 131.87 7.38
2 1 4 122.78 7.41
-1 2 4 127.08 7.37
-2 -1 4 133.23 7.22
-1 2 4 135.8 7.4
1 -2 4 128.48 7.39
-2 -1 4 129.54 7.21
1 -2 4 129.73 7.39
-2 0 -4 54.74 3.32
-2 0 -4 57.78 3.4
0 2 -4 55.89 3.4
0 -2 -4 57.22 3.3
0 -2 -4 59.14 3.19
0 2 4 46.84 3.26
0 -2 4 49.26 3.18
0 -2 4 52.29 3.2
-2 0 4 50.14 3.07
2 0 4 53 3.31
-2 0 4 52.04 3.08
-1 -2 -4 16.85 1.48
-2 1 -4 18.47 1.53
2 -1 -4 17.55 1.39
-2 1 -4 15.92 1.57
-1 -2 -4 18.75 1.61
1 2 4 19.76 1.54
-2 1 4 21.13 1.43
2 -1 4 21.25 1.63
-1 -2 4 23.52 1.41
-2 1 4 21.72 1.43
-2 2 -4 139.65 8.12
-2 -2 -4 142.96 8.22
2 -2 -4 143.1 8.03
-2 2 -4 142.73 8.32
-2 -2 -4 139.22 8.15
2 2 4 137.14 8.12
-2 2 4 145.61 8.05
-2 -2 4 147.57 7.92
-2 2 4 140.28 8.04
-2 -2 4 139.51 7.92
2 -2 4 144.44 8.14
-2 3 -4 153.75 8.95
-3 -2 -4 161.1 9
-3 -2 -4 155.71 9.11
-2 3 4 159.28 8.93
3 2 4 157.86 8.98
-2 3 4 157.84 8.92
2 -3 4 154 8.96
-1 3 -4 105.35 6.43
1 -3 -4 105.53 6.17
-3 -1 -4 111.83 6.37
1 -3 -4 100.8 6.26
-3 -1 -4 102.84 6.43
-1 3 -4 102.61 6.26
3 1 4 113.94 6.36
-1 3 4 118.7 6.31
1 -3 4 113 6.3
1 -3 4 115.45 6.29
0 -3 -4 76.51 4.54
0 -3 -4 75.76 4.65
-3 0 -4 72.57 4.64
0 3 -4 70.14 4.73
0 -3 -4 73.27 4.63
-3 0 -4 73.47 4.74
0 -3 4 85.79 4.58
0 -3 4 78.4 4.58
3 0 4 87.57 4.72
-3 0 4 84.15 4.42
0 3 4 78.74 4.67
-3 0 4 80.1 4.41
-3 1 -4 28.61 2.09
-1 -3 -4 27.49 1.91
-3 1 -4 28.39 2.13
-1 -3 -4 30.54 2.1
1 3 4 29.45 2.08
3 -1 4 27.85 2.07
-1 -3 4 27.31 1.89
-3 1 4 27.34 1.83
-3 2 -4 44.26 2.93
-2 -3 -4 42.75 2.84
-2 -3 -4 45.23 2.89
-2 -3 4 46.56 2.67
-3 2 4 47 2.78
2 3 4 40.38 2.91
3 -2 4 43.74 2.88
-3 -3 -4 7.06 0.98
-3 -3 -4 8.32 1.06
-3 3 -4 7.9 1.07
-3 -3 4 6.01 0.64
-3 3 4 6.59 0.88
3 -3 4 4.66 0.93
-3 3 4 7.38 0.92
3 3 4 6.79 1.01
-4 -3 -4 51.3 3.23
-3 4 -4 51.84 3.33
-4 -3 -4 57 3.27
-3 4 -4 56.43 3.18
3 -4 4 42.68 3.44
-4 -3 4 48.25 2.79
-3 4 4 44.76 3.07
3 -4 4 46.45 3.19
-4 -3 4 47.31 2.79
4 3 4 39.49 3.14
-3 4 4 46.51 3.1
-4 -2 -4 229.89 13.3
2 -4 -4 232.49 13.05
-2 4 -4 241.15 13.08
-4 -2 -4 239.62 13.13
4 2 4 233.64 13.11
-2 4 4 230.78 13.06
2 -4 4 213.14 13.05
1 -4 -4 320.32 18.1
-1 4 -4 338.35 18.02
-4 -1 -4 341.86 18.4
1 -4 -4 341.42 18.04
-4 -1 -4 334.91 18.08
-1 4 4 306.83 18.04
1 -4 4 298.36 18
4 1 4 298.1 18.04
0 -4 -4 44.52 2.74
-4 0 -4 47.18 3
-4 0 -4 44.66 3.06
0 -4 -4 40.43 2.93
4 0 4 45.56 2.93
-4 0 4 46.06 2.63
0 4 4 46.01 2.96
0 -4 4 45.91 2.89
0 -4 4 46.05 2.88
-4 1 -4 1.06 0.71
-1 -4 -4 6.3 0.96
-4 1 -4 5.5 0.96
-1 -4 -4 4 0.7
-1 -4 -4 5.2 0.95
-4 1 4 4.22 0.62
-1 -4 4 4.4 0.74
-1 -4 4 3.89 0.71
1 4 4 5.03 0.89
4 -1 4 2.93 0.9
-4 2 -4 58.29 3.84
-2 -4 -4 59.02 3.75
-2 -4 -4 63.08 3.87
-4 2 4 62.35 3.66
4 -2 4 60.29 3.79
2 4 4 62.2 3.85
-2 -4 4 61.03 3.6
-3 -4 -4 67.91 4.47
-4 3 -4 72.81 4.52
-4 3 -4 72.17 4.63
-3 -4 -4 68.52 4.53
-3 -4 4 76.08 4.25
-4 3 4 75.38 4.4
-3 -4 4 74.71 4.24
3 4 4 74.83 4.53
4 -3 4 73.1 4.83
4 -3 4 73.42 4.53
-4 3 4 75.19 4.4
-4 -4 -4 52.15 3.75
-4 4 -4 54.18 3.79
-4 4 -4 55.24 3.87
-4 -4 -4 57.72 3.8
-4 -4 4 64.45 3.47
-4 -4 4 60.37 3.45
4 -4 4 59.88 4.01
4 4 4 57.99 3.73
-4 4 4 61.1 3.67
4 -4 4 59.2 3.8
-4 4 4 57.83 3.7
-4 5 -4 13.01 1.54
-5 -4 -4 12.32 1.48
-5 -4 -4 12.46 1.47
-4 5 -4 14.26 1.55
4 -5 -4 13.42 1.39
4 -5 4 13.82 1.74
-5 -4 4 12.85 1.03
-5 -4 4 13.32 1.12
-4 5 4 8.26 1.35
4 -5 4 13.05 1.5
5 4 4 13.94 1.45
3 -5 -4 12.53 1.31
-5 -3 -4 13.5 1.44
-3 5 -4 14.65 1.48
-5 -3 -4 15.22 1.43
-3 5 -4 14.47 1.42
3 -5 4 14.66 1.66
-3 5 4 10.6 1.32
-5 -3 4 9.71 0.88
3 -5 4 7.57 1.28
-5 -3 4 10.16 0.87
5 3 4 9.4 1.28
-5 -2 -4 519.85 29.54
-5 -2 -4 499.96 29.04
-2 5 -4 528.38 29.58
-2 5 -4 510.25 29
2 -5 -4 520.1 29.01
2 -5 4 529.78 29.04
5 2 4 527.94 29.04
-2 5 4 533.46 29.04
-1 5 -4 595.18 32.81
-5 -1 -4 586.5 32.24
-5 -1 -4 572.33 32.78
1 -5 -4 599.22 32.21
-1 5 -4 613.68 32.19
-1 5 4 570.87 32.22
1 -5 4 565.7 32.18
-5 -1 4 567.88 31.91
5 1 4 558.51 32.2
-5 -1 4 566.58 31.92
-5 0 -4 53.4 3.51
0 -5 -4 61.25 3.48
-5 0 -4 61.41 3.46
0 -5 -4 53.61 3.17
0 5 -4 56.34 3.48
0 -5 4 47.91 3.31
-5 0 4 50.24 3.06
-5 0 4 46.95 3.04
0 5 4 47.74 3.35
0 -5 4 55.75 3.33
5 0 4 50.95 3.41
-1 -5 -4 24.67 1.99
-1 -5 -4 29.55 2.24
-5 1 -4 25.69 2.21
1 5 4 29.35 2.14
5 -1 4 29.78 2.14
-5 1 4 30.43 1.9
-1 -5 4 27.59 2.04
-1 -5 4 28.15 2
-5 1 4 30.49 1.89
-5 2 -4 121.42 7.05
-2 -5 -4 113.81 6.92
-2 -5 -4 112.91 6.93
-5 2 -4 115.78 6.95
-2 -5 -4 117.06 6.91
5 -2 4 115.93 7.3
-5 2 4 118.07 6.74
5 -2 4 116.51 6.94
-2 -5 4 122.86 6.77
-5 2 4 121.37 6.79
2 5 4 115.59 6.94
-5 3 -4 155.49 9.49
-3 -5 -4 165.12 9.59
-5 3 -4 166.19 9.73
-3 -5 -4 163.19 9.54
-5 3 4 170.44 9.39
5 -3 4 161.5 9.53
-3 -5 4 166.83 9.29
-5 3 4 178.06 9.4
-5 3 4 162.46 9.35
-3 -5 4 164.87 9.3
3 5 4 165.89 9.52
5 -3 4 152.91 10.08
-5 4 -4 96.73 5.89
-5 4 -4 96 5.81
-4 -5 -4 102.93 5.82
-4 -5 -4 95 5.84
5 -4 4 95.26 6.21
-4 -5 4 92.01 5.52
-4 -5 4 100.84 5.54
4 5 4 95.87 5.8
-5 4 4 94.46 5.48
-5 4 4 86.29 5.66
5 -4 4 93.59 5.78
-5 4 4 99.76 5.68
-5 -5 -4 14.16 1.63
-5 5 -4 14.54 1.63
-5 -5 -4 15.83 1.62
-5 5 -4 14.43 1.67
-5 5 4 12.85 0.98
-5 5 4 13.42 1.53
5 -5 4 8.63 1.63
-5 -5 4 13.97 1.18
5 -5 4 14.57 1.65
-5 5 4 14.66 1.5
5 5 4 12.14 1.56
-5 -5 4 12.99 1.17
-5 6 -4 9.79 1.39
-6 -5 -4 7.05 1.34
-5 6 -4 9.75 1.47
-6 -5 -4 6.08 1.35
5 -6 -4 8.79 1.31
-6 -5 4 6.24 0.9
-6 -5 4 7.81 0.95
6 5 4 10.87 1.43
-5 6 4 7.6 1.39
5 -6 4 7.09 1.35
5 -6 4 6.86 1.61
-6 -4 -4 6.51 1.25
4 -6 -4 5.73 1.11
-4 6 -4 6.72 1.28
-6 -4 -4 5.74 1.25
-4 6 -4 5.6 1.2
6 4 4 7.99 1.28
-6 -4 4 6.73 0.78
4 -6 4 6.37 1.37
4 -6 4 6.49 1.28
-6 -4 4 7.12 0.82
-4 6 4 7.87 1.28
-6 -3 -4 18.48 2.01
-3 6 -4 22.29 2.08
-6 -3 -4 25.78 2.24
-3 6 -4 26.15 2.27
3 -6 -4 24.69 2.12
6 3 4 26.25 2.19
3 -6 4 28.36 2.24
-6 -3 4 26.32 1.63
-6 -3 4 25.85 1.66
-3 6 4 25.3 2.16
-6 -2 -4 105.63 6.48
-2 6 -4 105.09 6.57
-2 6 -4 100.54 6.41
2 -6 -4 107.75 6.45
-6 -2 -4 105.27 6.58
2 -6 4 127.5 7
-6 -2 4 108.82 6.07
-2 6 4 104.37 6.46
-2 6 4 115.2 6.17
2 -6 4 105.58 6.45
-6 -2 4 108.1 6.07
6 2 4 98.79 6.42
-1 6 -4 48.83 3.43
1 -6 -4 39.45 3.44
-6 -1 -4 45.76 3.64
-1 6 -4 53.97 3.68
-6 -1 -4 48.97 3.55
6 1 4 58.91 3.51
1 -6 4 57.59 3.57
-6 -1 4 57.92 3.14
-6 -1 4 57.46 3.12
-1 6 4 57.3 3.58
1 -6 4 56.72 3.85
0 6 -4 9.17 1.24
-6 0 -4 5.51 1.11
0 -6 -4 10.33 1.21
-6 0 4 7.49 0.83
-6 0 4 7.75 0.81
0 -6 4 7.36 1.12
-6 0 4 9.38 1.08
6 0 4 8.83 1.19
0 6 4 7.21 1.23
0 -6 4 5.92 1.07
-1 -6 -4 5.09 1.12
-6 1 -4 6.44 1.17
-6 1 -4 4.88 1.14
-1 -6 -4 6.05 0.86
6 -1 4 7.03 1.19
-1 -6 4 6.51 1.01
-6 1 4 5.06 0.86
-6 1 4 7.15 0.82
-6 1 4 5.05 0.8
1 6 4 7.82 1.25
-1 -6 4 5.88 1.03
-2 -6 -4 91.21 6.01
-6 2 -4 102.36 6.13
-2 -6 -4 91.31 6.1
-2 -6 -4 96.14 6.09
-6 2 -4 98.02 6.2
-6 2 4 104.43 5.88
6 -2 4 99.52 6.09
2 6 4 110.54 6.13
-2 -6 4 106.56 5.93
-6 2 4 101.29 5.91
-2 -6 4 99.92 5.93
6 -2 4 109.3 6.42
-6 3 -4 110.51 6.82
-6 3 -4 113.21 6.75
-3 -6 -4 109.48 6.69
-3 -6 -4 110.88 6.76
-3 -6 -4 112.1 6.71
6 -3 4 109.26 6.68
3 6 4 114.7 6.74
-3 -6 4 116.16 6.54
-6 3 4 112.87 6.52
-6 3 4 109.71 6.54
6 -3 4 110.8 7.11
-6 3 4 115.53 6.56
-6 4 -4 93.25 5.67
-4 -6 -4 90.02 5.53
-4 -6 -4 93.02 5.51
-6 4 -4 92.18 5.55
-6 4 4 90.61 5.37
-4 -6 4 79.38 5.16
4 6 4 86.71 5.47
6 -4 4 90.01 5.87
-4 -6 4 89.24 5.24
6 -4 4 88.4 5.52
-6 4 4 87.52 5.17
-6 4 4 88.31 5.38
-5 -6 -4 24.17 2.25
-6 5 -4 25.67 2.41
-6 5 -4 26.04 2.36
-5 -6 -4 23.79 2.28
-6 5 4 25.82 2.23
5 6 4 28.88 2.39
-6 5 4 28.14 1.79
-5 -6 4 25.59 2.01
6 -5 4 29.38 2.66
6 -5 4 26.87 2.36
-5 -6 4 26.65 1.98
-6 5 4 27.4 2.21
-6 6 -4 9.96 1.6
-6 6 -4 11.02 1.64
-6 -6 -4 12.69 1.06
-6 -6 -4 11.21 1.64
-6 -6 -4 8.1 1.51
-6 6 4 10.35 0.91
-6 -6 4 8.4 1.14
-6 6 4 9.72 1.56
6 -6 4 7.23 1.42
6 6 4 8.97 1.52
6 -6 4 7.99 1.79
-6 -6 4 9.08 1.12
-7 -6 -4 27.65 2.52
-6 7 -4 30.61 2.61
-6 7 -4 25.84 2.55
-7 -6 -4 33.52 2.71
6 -7 -4 27.44 2.37
-6 7 4 28.29 1.82
6 -7 4 25.11 2.51
-7 -6 4 24.98 2.01
6 -7 4 26.14 2.83
-6 7 4 24.33 2.4
7 6 4 24.95 2.39
-7 -6 4 24.9 2.05
5 -7 -4 14.19 1.64
-5 7 -4 11.29 1.72
-7 -5 -4 12.01 1.69
-5 7 -4 17.38 1.9
-7 -5 -4 9.4 1.64
7 5 4 14.25 1.71
-7 -5 4 11.56 1.24
-7 -5 4 14.9 1.3
5 -7 4 13 1.78
5 -7 4 9.64 1.94
-5 7 4 12.25 1.7
-7 -5 4 12.24 1.19
4 -7 -4 3.65 1.09
-4 7 -4 2.23 1.16
-7 -4 -4 0.27 0.99
-4 7 -4 1.84 1.15
-7 -4 -4 2.53 1.18
-4 7 4 4.03 1.17
-7 -4 4 1.76 0.71
-7 -4 4 0.97 0.58
7 4 4 -0.16 1.01
4 -7 4 1.35 1.14
4 -7 4 0.8 0.95
-3 7 -4 50.27 3.52
3 -7 -4 53.3 3.53
-3 7 -4 49.55 3.53
-7 -3 -4 57.81 3.74
-7 -3 -4 50.56 3.55
3 -7 4 49.14 3.54
-7 -3 4 48.64 3.07
-3 7 4 52.46 3.56
-3 7 4 51.12 3.04
3 -7 4 53.04 3.75
7 3 4 50.4 3.51
-7 -2 -4 5.29 1.28
-2 7 -4 6.28 1.32
2 -7 -4 7.31 1.2
-7 -2 -4 5.94 1.19
-2 7 -4 6.16 1.17
-7 -2 4 3.54 0.66
-2 7 4 4.67 1.21
-7 -2 4 4.69 0.7
2 -7 4 5.7 1.34
-2 7 4 3.95 0.68
7 2 4 5.07 1.16
2 -7 4 5.34 1.18
-1 7 -4 11.61 1.55
-1 7 -4 12.31 1.43
-7 -1 -4 9.22 1.48
1 -7 -4 12.65 1.51
7 1 4 10.69 1.46
-7 -1 4 14.25 1.42
1 -7 4 13.97 1.49
-1 7 4 10.56 1.51
-7 -1 4 12.27 1.05
1 -7 4 15.59 1.81
-7 -1 4 11.68 1.02
-7 0 -4 9.72 1.41
0 7 -4 9.52 1.44
-7 0 -4 10.17 1.35
0 -7 -4 9.98 1.36
7 0 4 9.59 1.37
0 -7 4 7.79 1.23
0 7 4 6.94 1.26
-7 0 4 8.75 1.12
-7 0 4 8.82 0.93
-7 0 4 8.72 0.96
-7 1 -4 11.66 1.52
-7 1 -4 9.49 1.36
-1 -7 -4 13.31 1.53
7 -1 4 10.36 1.32
-7 1 4 10.09 1.05
-7 1 4 8.6 1.01
1 7 4 8.41 1.38
-1 -7 4 8.78 1.19
7 -1 4 9.33 1.4
-7 1 4 6.77 1.06
-1 -7 4 6.96 1.22
-2 -7 -4 47.77 3.27
-7 2 -4 50.52 3.45
-2 -7 -4 47.58 3.49
-7 2 -4 48.89 3.45
-2 -7 4 48.45 3.27
7 -2 4 52.03 3.5
-2 -7 4 49.56 3.26
-7 2 4 52.45 3.18
7 -2 4 48.69 3.4
-7 2 4 45.12 3.13
2 7 4 48.68 3.46
-3 -7 -4 106.89 6.38
-3 -7 -4 109.59 6.37
-7 3 -4 108.44 6.53
-7 3 -4 101.34 6.38
-3 -7 -4 105.74 6.43
7 -3 4 101.66 6.69
-7 3 4 100.15 6.14
-7 3 4 113.23 6.21
-3 -7 4 103.76 6.17
7 -3 4 105.37 6.34
-3 -7 4 101.34 6.17
3 7 4 102.56 6.37
-7 3 4 98.77 6.18
-4 -7 -4 40.93 3.04
-7 4 -4 42.17 3.16
-4 -7 -4 38.52 2.89
-4 -7 -4 45.35 3.25
-4 -7 -4 45.66 3.18
-7 4 -4 37.57 3.07
-4 -7 4 34.77 2.72
-7 4 4 44.76 2.97
-7 4 4 43.43 2.71
7 -4 4 42.04 3.04
4 7 4 43.29 3.1
-4 -7 4 45.48 2.86
7 -4 4 40.39 3.34
-7 4 4 42.43 3.01
-7 5 -4 13.36 1.81
-5 -7 -4 12.92 1.8
-7 5 -4 14.08 1.88
-5 -7 -4 14.74 1.37
-5 -7 -4 14.2 1.71
5 7 4 13.2 1.68
7 -5 4 12.88 1.96
-7 5 4 15.73 1.26
-5 -7 4 13.49 1.42
7 -5 4 14.4 1.8
-7 5 4 14.93 1.64
-7 5 4 10.03 1.57
-6 -7 -4 10.47 1.1
-7 6 -4 6.12 1.67
-6 -7 -4 10.93 1.67
-6 -7 -4 10.1 1.75
-7 6 -4 13.14 1.79
7 -6 4 12.67 1.91
-6 -7 4 11.52 1.33
-7 6 4 9.86 1.66
7 -6 4 11.68 1.75
-7 6 4 12.34 1.1
6 7 4 11.63 1.67
7 -7 -4 45.03 4.15
-7 -7 -4 46.88 3.7
-7 7 -4 45.1 3.71
-7 -7 -4 53.77 3.8
-7 7 -4 49.23 3.8
-7 -7 4 50.57 3.25
-7 7 4 51.06 3.1
7 -7 4 41.92 3.64
7 -7 4 51.7 4.02
-7 7 4 48.39 3.65
7 7 4 46.17 3.6
-7 -7 4 53.67 3.31
-7 8 -4 50.9 3.89
-8 -7 -4 48.67 3.83
-7 8 -4 50.41 3.97
7 -8 -4 50.76 4.33
-8 -7 -4 48.37 3.94
-8 -7 4 53.22 3.38
7 -8 4 48.32 3.88
-8 -7 4 54.73 3.48
-7 8 4 53.59 3.9
7 -8 4 47.45 4.32
-8 -6 -4 17.47 2.13
-8 -6 -4 17.1 2.17
6 -8 -4 19.69 2.04
-6 8 -4 17.85 2.2
-6 8 -4 22.06 2.3
-6 8 4 17.71 1.46
-6 8 4 16.63 2.13
-8 -6 4 18.14 1.66
6 -8 4 19.44 2.23
-8 -6 4 16.62 1.66
6 -8 4 14.79 2.33
8 6 4 20.38 2.13
5 -8 -4 2.31 1.4
-8 -5 -4 0.14 1.31
5 -8 -4 1.1 1.15
-5 8 -4 0.34 1.27
-8 -5 -4 1.49 1.33
-5 8 -4 -0.17 1.26
-8 -5 4 0.76 0.46
-5 8 4 1.8 0.58
5 -8 4 1.55 1.23
-8 -5 4 0.54 0.9
8 5 4 1.28 1.17
-5 8 4 0.89 1.29
5 -8 4 0.33 0.68
-8 -4 -4 24.6 2.47
4 -8 -4 22.3 2.58
4 -8 -4 26.47 2.34
-4 8 -4 21.89 2.38
-4 8 -4 23.72 2.35
-8 -4 -4 24.95 2.36
-4 8 4 24.79 2.37
8 4 4 29.41 2.38
4 -8 4 22.38 2.3
-4 8 4 25.02 1.72
-8 -4 4 23.71 1.86
-8 -3 -4 37.45 3.08
-3 8 -4 33.48 2.97
3 -8 -4 40.29 3.36
-8 -3 -4 38.86 2.93
3 -8 -4 33.31 2.86
-3 8 -4 38.25 2.91
8 3 4 40.12 2.88
-3 8 4 34.67 2.3
-8 -3 4 34.05 2.36
3 -8 4 32.06 2.87
3 -8 4 38.22 3.13
-3 8 4 35.26 2.89
2 -8 -4 58.86 3.8
-2 8 -4 53.03 3.88
-2 8 -4 52.51 3.68
-8 -2 -4 49.81 3.79
2 -8 -4 50.09 4.07
-8 -2 -4 48.13 3.7
2 -8 4 53.58 3.73
-2 8 4 54.41 3.32
-8 -2 4 54.36 3.27
2 -8 4 51.25 4.05
8 2 4 60.55 3.73
-8 -2 4 52.79 3.67
-2 8 4 55.23 3.7
1 -8 -4 9.13 1.67
1 -8 -4 11.74 1.56
-1 8 -4 10.79 1.59
-1 8 -4 13.38 1.52
-8 -1 -4 8.87 1.52
1 -8 4 9.75 1.45
1 -8 4 5.34 1.46
-1 8 4 8.56 1.49
-8 -1 4 9.74 1
-8 -1 4 9.71 1.06
-8 -1 4 9.46 1.37
8 1 4 7.96 1.41
-8 0 -4 5.49 1.33
0 -8 -4 8.31 1.55
0 -8 -4 6.01 1.31
-8 0 -4 4.71 1.26
0 8 -4 6.08 1.41
0 8 4 4.09 1.33
-8 0 4 8.22 0.99
0 -8 4 6.57 1.26
8 0 4 6.87 1.32
-8 0 4 7.45 0.94
-8 0 4 6.1 1.19
0 -8 4 10.72 1.59
-8 1 -4 5.98 1.38
-1 -8 -4 5.31 1.34
-8 1 -4 8.44 1.46
-1 -8 -4 5.67 1.34
8 -1 4 4.35 1.24
-8 1 4 9.19 1.07
8 -1 4 8.25 1.3
-1 -8 4 5.18 1.22
-8 1 4 7.63 1.15
-1 -8 4 7.17 1.23
1 8 4 7.15 1.38
-8 1 4 4.79 0.98
-8 2 -4 3.52 1.18
-8 2 -4 1.22 1.1
-2 -8 -4 0.84 1.08
-2 -8 -4 4.38 1.29
-2 -8 4 2.38 0.96
8 -2 4 1.83 1.15
-8 2 4 0.69 0.85
2 8 4 1.62 1.18
8 -2 4 3.4 1.16
-8 2 4 -0.22 0.51
-2 -8 4 2.79 1.06
-8 3 -4 3.73 1.25
-8 3 -4 4.11 1.3
-3 -8 -4 2.4 1.16
-3 -8 -4 0.46 0.66
-3 -8 -4 3.39 1.11
8 -3 4 4.16 1.36
-3 -8 4 4.59 1.11
-3 -8 4 3.86 1.1
-8 3 4 3.56 0.9
-8 3 4 1.74 0.99
3 8 4 1.67 1.17
-8 3 4 3.58 1.05
8 -3 4 2.82 1.19
-8 4 -4 5.02 1.4
-4 -8 -4 6.07 1.13
-4 -8 -4 3.87 1.45
-4 -8 -4 7.48 1.32
-8 4 -4 5.37 1.36
-4 -8 -4 3.28 1.4
8 -4 4 5.31 1.37
-4 -8 4 5.93 1.15
4 8 4 6.06 1.4
8 -4 4 5.68 1.59
-8 4 4 4.76 1.25
-8 4 4 6.64 0.95
-4 -8 4 0.16 0.85
-8 4 4 6.5 1.17
-8 5 -4 4.44 1.5
-8 5 -4 2.74 1.4
-5 -8 -4 2.85 1.22
-5 -8 -4 3.68 1.39
-5 -8 -4 2.71 0.93
-5 -8 -4 2.71 1.26
5 8 4 2.73 1.32
8 -5 4 4.48 1.6
-5 -8 4 -0.34 0.45
-8 5 4 1.23 1.17
-8 5 4 2.62 0.84
8 -5 4 2.84 1.37
-5 -8 4 2.26 1.03
-8 5 4 3.66 1.2
-6 -8 -4 4.87 1.44
-6 -8 -4 3.62 1.52
8 -6 -4 2.86 1.63
-8 6 -4 2.92 1.43
-8 6 -4 3.48 1.61
-6 -8 -4 3.47 0.86
8 -6 4 4.6 1.48
-8 6 4 3.48 0.88
6 8 4 4 1.4
8 -6 4 7.05 1.85
-8 6 4 2.45 1.34
-6 -8 4 1.7 1.08
-8 7 -4 43.27 3.67
8 -7 -4 42.61 4.01
-8 7 -4 43.05 3.64
-7 -8 -4 47.51 3.69
-7 -8 -4 48.09 3.53
8 -7 4 43.75 3.58
-8 7 4 45.22 3.01
-7 -8 4 45.52 3.21
8 -7 4 49.53 4.05
-7 -8 4 41.56 3.17
-8 7 4 54.49 3.62
-8 -8 -4 15.62 2.2
-8 8 -4 17.01 2.2
8 -8 -4 14.28 2.51
-8 -8 -4 15.16 2.14
-8 8 -4 14.23 2.08
-8 8 4 14.62 2.12
-8 -8 4 14.19 1.7
8 -8 4 16.12 2.49
-8 -8 4 14.37 1.64
8 -8 4 17.49 2.17
8 -9 -4 26.42 3.05
-8 9 -4 25.76 2.64
-9 -8 -4 21.34 2.52
-8 9 -4 24.25 2.69
-9 -8 -4 24.16 2.68
-9 -8 4 23.03 2.13
8 -9 4 26.11 3.09
-8 9 4 21.65 2.54
8 -9 4 17.46 2.48
-9 -7 -4 12.39 2.12
-9 -7 -4 12.93 2.03
-7 9 -4 17.68 2.21
-7 9 -4 18.55 2.2
7 -9 -4 13.71 2.39
-9 -7 4 14.22 1.66
-7 9 4 11.34 2.05
7 -9 4 9.08 2.21
7 -9 4 15.32 2.14
-9 -7 4 12.5 1.57
-9 -6 -4 6.28 1.64
-9 -6 -4 2.75 1.57
6 -9 -4 5.96 1.95
-6 9 -4 7.95 1.68
-6 9 -4 6.26 1.58
-9 -6 4 3.78 0.86
-9 -6 4 5.05 1.18
-6 9 4 5.81 1.66
6 -9 4 6.89 1.69
6 -9 4 5.31 1.79
-5 9 -4 8.58 1.74
-5 9 -4 12.26 1.89
5 -9 -4 9.49 1.7
-9 -5 -4 5.82 1.75
-9 -5 -4 9.39 1.72
5 -9 -4 15.73 2.3
-5 9 4 9.95 1.01
-9 -5 4 9.89 1.29
-9 -5 4 11.34 1.18
5 -9 4 8.72 1.7
-5 9 4 11.01 1.86
4 -9 -4 10.59 2.16
-4 9 -4 11.52 1.9
4 -9 -4 13.76 1.9
-9 -4 -4 12.13 1.98
-9 -4 -4 12.07 1.85
-4 9 -4 11.96 1.91
-4 9 4 16.07 2.03
-4 9 4 17.13 1.37
-9 -4 4 15.58 1.44
9 4 4 13.31 1.83
-9 -4 4 15.3 1.34
4 -9 4 21.79 2.43
4 -9 4 15.21 2
-9 -3 -4 34.99 3.02
-3 9 -4 36.88 3
3 -9 -4 37.3 3.03
-3 9 -4 39.62 3.18
3 -9 -4 36.62 3.38
3 -9 4 37.81 3.02
3 -9 4 36.33 3.4
-9 -3 4 33.61 2.48
-3 9 4 32.7 3
9 3 4 37.98 2.95
-9 -3 4 37.27 2.95
-3 9 4 35.15 2.42
-2 9 -4 56.57 4.47
2 -9 -4 62.96 4.6
-9 -2 -4 59.56 4.34
-2 9 -4 62.95 4.36
2 -9 -4 61.62 4.38
9 2 4 64.09 4.32
-9 -2 4 67.79 4.36
-2 9 4 68.56 3.98
2 -9 4 68.26 4.41
-2 9 4 63.21 4.31
2 -9 4 65.25 4.75
-9 -2 4 64.34 3.92
-1 9 -4 26.04 2.31
-1 9 -4 21.07 2.38
1 -9 -4 24.97 2.59
1 -9 -4 27.51 2.46
-9 -1 -4 25.86 2.42
-9 -1 4 24.13 1.86
1 -9 4 24.73 2.6
-9 -1 4 31.37 2.33
-1 9 4 24.77 2.36
9 1 4 26.11 2.34
-9 -1 4 21.6 1.9
1 -9 4 22.91 2.31
0 -9 -4 4.17 1.21
-9 0 -4 3.8 1.31
-9 0 -4 4.38 1.38
0 -9 -4 5.02 1.49
0 9 -4 4.28 1.2
0 9 -4 2.03 1.37
9 0 4 1.95 1.2
-9 0 4 3.34 0.98
0 -9 4 5.04 1.49
-9 0 4 4.53 0.94
-9 0 4 5.07 1.16
0 9 4 4.62 1.44
0 -9 4 3.21 1.24
-1 -9 -4 17.74 1.96
-9 1 -4 16.34 2.01
-1 -9 -4 17.91 1.9
-9 1 -4 14.96 1.85
1 9 4 15.35 1.93
-9 1 4 13.78 1.63
-1 -9 4 13.89 1.73
9 -1 4 14.25 1.82
-9 1 4 14.67 1.48
9 -1 4 14 1.75
-9 2 -4 7.12 1.59
-2 -9 -4 10.18 1.54
-2 -9 -4 6.82 1.52
-9 2 -4 7.28 1.6
9 -2 4 9.1 1.55
9 -2 4 4.42 1.44
-9 2 4 7.67 1.2
2 9 4 4.56 1.42
-2 -9 4 7.39 1.35
-9 2 4 7.37 1.24
-2 -9 4 10.15 1.44
-9 3 -4 6.95 1.6
-9 3 -4 6.4 1.45
-3 -9 -4 6.27 1.52
-3 -9 -4 8.55 1.44
9 -3 4 5.07 1.6
9 -3 4 6.46 1.46
-3 -9 4 1.82 1.18
3 9 4 4.53 1.47
-9 3 4 4.07 1.18
-3 -9 4 8.38 1.35
-9 3 4 6.09 1.09
-9 4 -4 5.2 1.56
-4 -9 -4 6 1.52
-9 4 -4 3.53 1.51
-4 -9 -4 1.58 0.76
-4 -9 -4 6.07 1.34
-4 -9 4 3.01 1.24
9 -4 4 6.27 1.55
9 -4 4 5.58 1.64
-4 -9 4 3.89 1.19
-9 4 4 4.03 1.32
-9 4 4 4.8 1.21
4 9 4 0.52 1.29
-5 -9 -4 9.31 1.73
-5 -9 -4 4.79 1.51
-9 5 -4 7.84 1.74
-5 -9 -4 7.75 1.81
-5 -9 -4 6.14 1.18
-9 5 -4 6.07 1.62
9 -5 4 6.3 1.59
-5 -9 4 11.42 1.46
-9 5 4 7.57 1.56
-5 -9 4 6.7 1.45
5 9 4 9.05 1.64
9 -5 4 5.86 1.83
-9 5 4 4.13 1
-6 -9 -4 4.11 1.6
-6 -9 -4 2.18 1.39
-6 -9 -4 0.67 1.44
-9 6 -4 2.64 1.63
-6 -9 -4 2.59 0.92
-9 6 -4 1.69 1.44
9 -6 -4 2.85 1.71
-9 6 4 4.4 0.99
9 -6 4 1.95 1.48
9 -6 4 4.11 1.79
-9 6 4 2.04 1.46
-6 -9 4 2.44 1.15
-6 -9 4 0.72 1.18
-7 -9 -4 7.3 1.76
-7 -9 -4 8.79 1.84
-9 7 -4 7.77 1.78
-9 7 -4 8.05 1.79
9 -7 -4 7.32 2.15
-7 -9 -4 8.47 1.84
-7 -9 4 7.38 1.4
9 -7 4 12.71 2.25
-9 7 4 9.94 1.19
-9 7 4 7.6 1.7
9 -7 4 4.88 1.69
-8 -9 -4 1.9 1.47
9 -8 -4 2.54 1.89
-8 -9 -4 2.75 1.58
-9 8 -4 2.36 1.63
-9 8 -4 2.24 1.57
9 -8 4 2.9 1.53
-8 -9 4 0.6 1.06
9 -8 4 1.96 1.82
-9 8 4 2.16 1.51
-9 -9 -4 5.22 1.73
-9 9 -4 5.16 1.69
-9 9 -4 5.73 1.78
-9 -9 -4 5.02 1.57
9 -9 -4 4.24 2.07
-9 9 4 5.43 1.7
9 -9 4 5.89 1.75
9 -9 4 4.72 2.04
-9 -9 4 4.98 1.28
-9 10 -4 0.33 1.63
9 -10 -4 1.14 2.06
-9 10 -4 3.06 1.68
-10 -9 -4 1.12 1.61
-10 -9 -4 1.49 1.65
-10 -9 4 3.73 1.28
9 -10 4 4.93 2.06
-9 10 4 0.4 1.6
-10 -8 -4 0.3 1.54
-8 10 -4 -1.96 1.39
-8 10 -4 -2 1.49
8 -10 -4 3.3 1.81
-10 -8 -4 -1.42 1.52
8 -10 4 3.21 1.51
8 -10 4 -0.77 1.82
-10 -8 4 1.51 1.12
-8 10 4 1.59 1.6
-10 -7 -4 2.29 1.62
7 -10 -4 1.2 1.6
-7 10 -4 2.44 1.52
-10 -7 -4 3.46 1.66
-7 10 -4 2.86 1.53
-10 -7 4 2.76 1.15
-10 -7 4 2.52 1.13
7 -10 4 3.57 1.91
7 -10 4 1.63 1.56
-10 -7 4 3.68 1.08
-7 10 4 3.7 1.69
-10 -6 -4 4.56 1.65
6 -10 -4 8.13 2.1
-6 10 -4 2.11 1.61
-10 -6 -4 4.71 1.69
-6 10 -4 4.28 1.59
6 -10 4 4.49 1.69
-6 10 4 6.5 1.76
-10 -6 4 5.02 1.24
6 -10 4 6.42 1.95
-10 -6 4 8 1.18
-10 -5 -4 22 2.59
-10 -5 -4 23.36 2.48
5 -10 -4 21.52 2.7
-5 10 -4 20.44 2.46
-5 10 -4 22.68 2.5
5 -10 4 24.8 2.92
5 -10 4 19.73 2.38
-10 -5 4 21.33 1.93
-10 -5 4 25.76 1.94
-5 10 4 21.78 2.54
-4 10 -4 10.89 1.94
-10 -4 -4 13.35 1.96
4 -10 -4 10.89 2.1
-4 10 -4 9.79 1.88
4 -10 -4 13.27 1.93
-10 -4 -4 11.01 1.89
-4 10 4 9.33 1.88
4 -10 4 14.2 2.34
4 -10 4 14.03 2.06
-4 10 4 13.93 1.26
-10 -4 4 12.43 1.43
-10 -4 4 13.87 1.4
3 -10 -4 32.16 3.2
-10 -3 -4 25.32 2.75
-3 10 -4 27.51 2.75
-3 10 -4 26.26 2.79
3 -10 -4 33.5 2.89
-10 -3 4 30.26 2.23
-10 -3 4 32.37 2.34
-3 10 4 30.13 2.25
3 -10 4 35.78 2.92
-3 10 4 32.36 2.88
-10 -3 4 30.75 2.8
3 -10 4 27.07 3.09
-2 10 -4 43.53 3.4
-10 -2 -4 42.12 3.39
-2 10 -4 43.33 3.58
2 -10 -4 41.38 3.43
2 -10 -4 40.51 3.65
2 -10 4 45.75 3.34
-10 -2 4 45 3.37
2 -10 4 44.95 3.73
-2 10 4 38.79 2.94
-2 10 4 45.6 3.5
-10 -2 4 46.77 2.93
1 -10 -4 17.52 2.28
1 -10 -4 13.36 1.99
-10 -1 -4 19.35 2.17
-10 -1 -4 13.57 2.06
-1 10 -4 16.06 2.12
1 -10 4 17.15 2.01
-10 -1 4 16.56 1.59
10 1 4 15.8 1.98
-10 -1 4 17.42 1.97
1 -10 4 16.85 2.27
-1 10 4 16.41 2.12
0 10 -4 0.44 1.4
0 -10 -4 0.75 1.49
-10 0 -4 1.12 1.39
-10 0 -4 0.63 1.38
0 -10 -4 1.88 1.29
0 -10 4 0.5 1.48
-10 0 4 2.79 1.21
-10 0 4 2.47 0.97
0 -10 4 1.13 1.3
-10 0 4 0.29 0.99
10 0 4 2.29 1.39
0 10 4 0.7 1.37
-10 1 -4 43.32 3.7
-1 -10 -4 38.47 3.42
-10 1 -4 46.1 3.51
-1 -10 -4 43.6 3.48
10 -1 4 43.47 3.5
1 10 4 49.6 3.59
-10 1 4 46.66 3.1
-10 1 4 44.1 3.27
-1 -10 4 48.02 3.42
10 -1 4 42.8 3.43
-2 -10 -4 81.79 5.7
-10 2 -4 81.51 5.64
-10 2 -4 83.45 5.59
-2 -10 -4 78.22 5.64
-10 2 4 90.5 5.42
-10 2 4 90.42 5.29
2 10 4 82.99 5.59
10 -2 4 81.98 5.71
-2 -10 4 96.1 5.57
10 -2 4 83.15 5.53
-3 -10 -4 49.77 3.82
-3 -10 -4 56.27 4.19
-10 3 -4 50.19 3.96
-10 3 -4 53.85 4.14
10 -3 4 53.24 4.04
-10 3 4 50.64 3.64
-3 -10 4 54.75 3.86
3 10 4 57.34 4.01
-10 3 4 52.82 3.63
-10 3 4 57.39 3.66
10 -3 4 48.71 3.87
-10 4 -4 12.71 2.03
-4 -10 -4 10.25 1.92
-10 4 -4 10.6 1.81
-4 -10 -4 11.99 1.65
-4 -10 4 12.68 1.76
-10 4 4 13.14 1.74
4 10 4 13.51 1.94
-10 4 4 11.33 1.49
10 -4 4 10.66 2
10 -4 4 12.34 1.9
-5 -10 -4 7.32 1.52
-10 5 -4 3.69 1.62
10 -5 -4 4.33 1.88
-5 -10 -4 5.74 1.71
-10 5 -4 4.39 1.72
-10 5 4 7.06 1.64
-10 5 4 7.26 1.22
10 -5 4 8.51 1.93
-5 -10 4 6.27 1.5
10 -5 4 4.95 1.5
-6 -10 -4 9.19 1.77
-10 6 -4 5.5 1.81
-10 6 -4 9.56 1.79
10 -6 -4 10.72 2.17
-6 -10 -4 8.58 1.86
-10 6 4 7.26 1.18
10 -6 4 10.28 2.07
-6 -10 4 6.74 1.48
-10 6 4 6.78 1.73
-10 7 -4 8.99 2.01
-7 -10 -4 12.13 1.99
-10 7 -4 11.63 1.86
10 -7 -4 8.52 2.15
-7 -10 -4 11.22 1.93
-7 -10 -4 7.22 1.9
-7 -10 4 7.19 1.47
-10 7 4 6.92 1.74
10 -7 4 11.66 2.19
-8 -10 -4 3.63 1.66
10 -8 -4 4.24 2
-8 -10 -4 1.49 1.51
-8 -10 -4 3.1 1.67
-10 8 -4 1.08 1.67
-10 8 -4 2.51 1.53
10 -8 4 5.68 2.02
-10 8 4 4.98 1.65
-8 -10 4 4.25 1.31
-9 -10 -4 -0.61 1.54
-9 -10 -4 0.66 1.45
-10 9 -4 -1.93 1.49
10 -9 -4 1.07 2.01
-9 -10 -4 0.71 1.64
-10 9 -4 1.47 1.69
10 -9 4 -2 1.8
-10 9 4 1.23 1.7
-9 -10 4 1.13 1.14
-10 -10 -4 0.85 1.66
-10 -10 -4 -2.29 1.55
-10 -10 -4 -0.42 1.6
10 -10 -4 1.07 2.11
-10 10 -4 0.29 1.81
-10 10 -4 2.5 1.59
10 -10 4 1.27 2.07
-10 10 4 -1.23 1.57
-10 -10 4 -0.07 1.21
10 -11 -4 1.75 2.26
-10 11 -4 0.08 1.67
-11 -10 -4 1.59 1.77
-11 -10 -4 4.52 1.96
10 -11 4 0.95 2.19
-11 -10 4 2.4 1.37
-10 11 4 1.26 1.82
9 -11 -4 6.24 2.19
-11 -9 -4 3.52 1.77
-11 -9 -4 4.63 1.76
-9 11 -4 5.11 1.77
-11 -9 4 2.76 1.34
-9 11 4 3.53 1.92
9 -11 4 6.98 2.29
8 -11 -4 7.15 2.13
-11 -8 -4 2.99 1.79
-11 -8 -4 10.14 2.09
-8 11 -4 3.72 1.78
8 -11 4 6.2 1.76
-11 -8 4 5.62 1.46
-11 -8 4 7.1 1.43
-8 11 4 6.35 1.94
8 -11 4 7.27 2.27
-11 -7 -4 5.83 1.86
7 -11 -4 2.27 1.96
-11 -7 -4 3.6 1.65
-7 11 -4 3.69 1.62
-7 11 4 5.29 1.86
7 -11 4 4.82 1.75
-11 -7 4 6.71 1.39
7 -11 4 5.92 2.04
-11 -6 -4 -0.17 1.47
6 -11 -4 0.94 1.74
-6 11 -4 2.95 1.53
-11 -6 -4 2.94 1.59
6 -11 4 -0.21 1.48
-11 -6 4 2.21 1.14
6 -11 4 0.14 1.57
-6 11 4 3.45 1.65
-11 -6 4 1.32 0.98
-5 11 -4 2.73 1.55
5 -11 -4 1.88 1.7
-11 -5 -4 1.12 1.4
-11 -5 -4 0.77 1.48
5 -11 4 0.21 1.45
-11 -5 4 2.73 1.03
5 -11 4 -1.5 1.74
-11 -5 4 2.23 1.08
-5 11 4 -0.05 1.49
4 -11 -4 0.89 1.79
-11 -4 -4 1.24 1.43
-11 -4 -4 1.35 1.44
-4 11 -4 3.66 1.6
4 -11 4 0.8 1.46
-11 -4 4 1.08 0.93
-11 -4 4 1.11 1.37
-4 11 4 1.71 1.42
-11 -4 4 -1.63 0.94
4 -11 4 2.73 1.81
-3 11 -4 6.54 1.79
-11 -3 -4 8.6 1.8
3 -11 -4 4.88 1.99
3 -11 -4 11.21 1.82
-11 -3 -4 6.54 1.68
3 -11 4 5.18 1.7
-11 -3 4 7.24 1.25
-3 11 4 7.31 1.66
3 -11 4 8.15 2.06
-11 -3 4 5.33 1.59
-11 -3 4 8.29 1.23
-3 11 4 6.22 1.12
2 -11 -4 11.49 1.95
-2 11 -4 12.82 2.03
-11 -2 -4 10.28 1.85
2 -11 -4 11.54 2.23
-11 -2 -4 12.82 1.96
-11 -2 4 11.8 1.85
2 -11 4 8.45 1.81
-11 -2 4 13.62 1.4
-2 11 4 7.27 1.72
-11 -2 4 12.18 1.44
2 -11 4 9.69 2.07
-11 -1 -4 2.34 1.56
-11 -1 -4 6.82 1.79
-1 11 -4 2.67 1.58
1 -11 -4 5.77 1.78
1 -11 -4 10.09 1.81
-1 11 4 4.52 1.67
-11 -1 4 0.36 0.55
-11 -1 4 8.65 1.56
-11 -1 4 4.36 1.14
1 -11 4 3.02 1.51
1 -11 4 4.73 1.77
0 -11 -4 3 1.74
0 11 -4 2.29 1.63
-11 0 -4 2.49 1.55
-11 0 -4 3.81 1.53
0 -11 -4 2.48 1.55
-11 0 4 2.94 1.1
0 11 4 2.75 1.56
0 -11 4 4.96 1.77
-11 0 4 2.79 1.15
-11 0 4 3.33 1.28
0 -11 4 3.51 1.56
-1 -11 -4 52.01 3.96
-1 -11 -4 56.54 3.87
-11 1 -4 57.18 4.06
-11 1 -4 46.4 3.8
-1 -11 4 44.82 3.69
-11 1 4 51.15 3.63
-11 1 4 49.61 3.45
1 11 4 45.19 3.8
-11 1 4 45.13 3.37
-2 -11 -4 31.28 2.86
-11 2 -4 32.29 2.92
-2 -11 -4 29.11 2.86
-11 2 -4 32.71 3.04
-2 -11 4 27.58 2.68
-11 2 4 26.86 2.43
-11 2 4 28.66 2.52
2 11 4 28 2.77
11 -2 4 27.49 2.69
-3 -11 -4 0.94 1.39
-11 3 -4 2.67 1.59
-3 -11 -4 0.43 1.46
-11 3 -4 1.03 1.39
11 -3 4 5.7 1.62
-11 3 4 4.08 1.29
-3 -11 4 4.09 1.5
3 11 4 4.57 1.46
-11 3 4 3.94 1.21
-11 4 -4 1.8 1.56
-4 -11 -4 4.54 1.34
-11 4 -4 2.93 1.65
-4 -11 -4 5.05 1.67
11 -4 -4 2.84 1.76
-4 -11 4 2.68 1.41
11 -4 4 4.25 1.67
-11 4 4 4.78 1.21
-11 4 4 2.84 1.38
-5 -11 -4 9.26 1.89
-11 5 -4 10.38 1.85
-11 5 -4 9.02 1.82
-5 -11 -4 9.05 1.47
11 -5 -4 7.01 2.03
-11 5 4 6.51 1.65
-5 -11 4 8.84 1.7
-11 5 4 8.38 1.36
11 -5 4 10.89 2.01
-11 6 -4 16.96 2.36
11 -6 -4 20.03 2.79
-11 6 -4 19.69 2.54
-6 -11 -4 23.94 2.64
-11 6 4 20.37 1.91
-6 -11 4 18.77 2.25
-11 6 4 19.01 2.31
11 -6 4 25.75 2.8
-11 7 -4 23.87 2.76
11 -7 -4 24.66 3.03
-7 -11 -4 27.57 2.84
-7 -11 -4 19.86 2.5
-11 7 -4 23.58 2.7
11 -7 4 20.34 2.88
-11 7 4 23.76 2.64
-7 -11 4 20.33 2.35
-11 8 -4 3.2 1.86
-11 8 -4 4.31 1.68
-8 -11 -4 5.34 1.73
-8 -11 -4 1.23 1.63
11 -8 -4 5.24 2.15
11 -8 4 4.25 2.07
-11 8 4 3.3 1.82
-8 -11 4 5.08 1.53
11 -9 -4 -0.92 2.1
-9 -11 -4 -0.47 1.71
-9 -11 -4 1.53 1.7
-11 9 -4 0.41 1.8
-11 9 -4 0.75 1.49
-9 -11 -4 2.03 1.7
11 -9 4 -1.23 1.92
-11 9 4 4.28 1.88
-9 -11 4 0.71 1.26
-10 -11 -4 1.87 1.82
-10 -11 -4 1.59 1.88
11 -10 -4 6.82 2.46
-11 10 -4 2.09 1.73
-10 -11 -4 2.52 1.77
-11 10 -4 3.59 2.01
-11 10 4 4.9 1.94
11 -10 4 0.61 2.11
-10 -11 4 2.85 1.44
11 -11 -4 2.35 2.39
-11 -11 -4 2.24 1.89
-11 11 -4 -0.18 1.57
-11 -11 -4 -0.61 1.66
-11 -11 -4 -1 1.69
11 -11 4 0.95 2.24
-11 11 4 1.73 1.99
-11 -11 4 1.77 1.45
-12 -11 -4 1.83 2.08
-12 -11 -4 -0.84 1.86
-11 12 -4 -0.99 1.66
11 -12 -4 -1.63 2.22
-12 -11 -4 1.71 1.94
-11 12 4 -1.1 1.84
11 -12 4 2.33 2.37
-12 -11 4 0.23 1.39
-12 -10 -4 2.76 1.94
10 -12 -4 -2.06 2.19
-10 12 -4 3.28 1.81
-12 -10 -4 2.07 1.74
-12 -10 4 6.14 1.57
-10 12 4 1.53 2.06
10 -12 4 0.99 2.3
9 -12 -4 7.37 2.55
-9 12 -4 9.56 2.02
-12 -9 -4 4.08 1.99
-12 -9 -4 6.57 2.03
-9 12 4 7.28 2.12
9 -12 4 8.38 2.53
-12 -9 4 7.44 1.59
8 -12 -4 17.4 2.91
-8 12 -4 15.16 2.31
-12 -8 -4 13.66 2.46
-12 -8 -4 14.97 2.3
-8 12 4 10.69 2.36
8 -12 4 12.75 2.7
-12 -8 4 12.29 1.81
-12 -8 4 15.13 1.92
7 -12 -4 12.43 2.65
-12 -7 -4 14.01 2.34
-7 12 -4 9.47 2.06
-12 -7 -4 9.94 2.07
-12 -7 4 8.55 1.59
7 -12 4 6.4 2.01
-7 12 4 7.15 2.12
7 -12 4 6.4 2.23
-12 -6 -4 2.01 1.66
6 -12 -4 3.07 2.08
-6 12 -4 2.69 1.58
-12 -6 -4 2.69 1.66
-6 12 4 4.46 1.84
6 -12 4 2.89 1.94
-12 -6 4 0.5 1.18
6 -12 4 3.7 1.7
-5 12 -4 1.93 1.57
-12 -5 -4 1.17 1.41
5 -12 -4 7.26 2.18
-12 -5 -4 0.81 1.61
-12 -5 4 3.69 1.21
5 -12 4 0.93 1.88
5 -12 4 3.11 1.68
-5 12 4 -0.01 1.63
-12 -4 -4 9.8 1.82
-12 -4 -4 8.04 1.83
-4 12 -4 7.49 1.83
4 -12 -4 7.9 2.23
-12 -4 4 7.33 1.28
4 -12 4 7.18 1.86
4 -12 4 9.89 2.08
-12 -4 4 8.57 1.36
-4 12 4 8.15 1.92
-12 -4 4 8.25 1.78
-3 12 -4 6.61 1.78
-12 -3 -4 8.74 1.81
-12 -3 -4 7.3 1.72
3 -12 -4 4.45 1.55
3 -12 -4 5.05 2.02
-12 -3 4 10.52 1.85
3 -12 4 7.89 1.83
-12 -3 4 7.77 1.25
-12 -3 4 5.74 1.31
-3 12 4 9.53 1.91
3 -12 4 7.04 2.05
-12 -2 -4 0.58 1.48
2 -12 -4 2.1 1.75
2 -12 -4 1.12 1.48
-2 12 -4 -1.25 1.42
-12 -2 -4 1.13 1.45
-2 12 4 0.46 1.5
-12 -2 4 -0.34 0.96
-12 -2 4 0.97 1.08
-2 12 4 1.38 1.03
2 -12 4 0.43 1.43
2 -12 4 0.65 1.61
-12 -2 4 0.14 1.31
-12 -1 -4 -0.32 1.54
1 -12 -4 -1.5 1.41
1 -12 -4 1.12 1.65
-1 12 -4 0.65 1.42
-12 -1 -4 1.38 1.56
-1 12 4 3.69 1.61
-12 -1 4 1.69 1.14
1 -12 4 0.22 1.57
1 -12 4 -1.31 1.32
-12 -1 4 0.02 0.85
-12 -1 4 2.01 1.34
0 -12 -4 2.92 1.71
-12 0 -4 0.83 1.45
0 12 -4 -0.04 1.45
-12 0 -4 -0.67 1.42
0 -12 -4 -0.24 1.44
-12 0 4 -1.06 0.99
0 12 4 0.3 1.52
0 -12 4 1.12 1.39
-12 0 4 -0.8 1.12
0 -12 4 0.76 1.56
-12 1 -4 17.37 2.28
-1 -12 -4 14.06 2.15
-1 -12 -4 21.5 2.33
1 12 -4 13.9 2.16
-12 1 -4 13.87 2.11
-12 1 4 12.42 1.6
-12 1 4 9.29 1.71
1 12 4 11.26 2.06
-1 -12 4 9.88 1.88
12 -1 4 14.28 1.81
12 -2 -4 13.49 2.08
-2 -12 -4 16.78 2.13
-12 2 -4 13.39 2.09
-2 -12 -4 12.09 1.95
-12 2 -4 11.44 1.91
-2 -12 4 9.92 1.84
12 -2 4 12.87 1.87
-12 2 4 11.12 1.72
-12 2 4 11.24 1.64
12 -3 -4 2.43 1.71
-3 -12 -4 2.05 1.36
-12 3 -4 -0.26 1.51
-3 -12 -4 1.7 1.49
-12 3 -4 1 1.5
12 -3 4 0.48 1.48
-12 3 4 0.64 1.28
-12 3 4 0.19 1.19
-3 -12 4 0.97 1.44
12 -4 -4 0.69 1.75
-4 -12 -4 2.08 1.34
-12 4 -4 4.92 1.79
-4 -12 -4 2.82 1.59
-12 4 -4 0.94 1.54
-12 4 4 2.3 1.4
12 -4 4 3.77 1.74
-12 4 4 2.16 1.14
-4 -12 4 0.79 1.47
-12 5 -4 11.76 2.07
-5 -12 -4 7.52 2.03
12 -5 -4 12.59 2.4
-12 5 -4 10.55 2.11
-12 5 4 12.4 1.96
12 -5 4 11.82 2.17
-5 -12 4 12.01 1.96
-12 5 4 14.02 1.66
-12 6 -4 27.78 2.79
12 -6 -4 24.41 3.05
-12 6 -4 20.52 2.72
-6 -12 -4 21.95 2.74
-12 6 4 20.8 2.58
-6 -12 4 20.49 2.47
12 -6 4 23.62 2.92
-7 -12 -4 9.17 2.13
-12 7 -4 14.83 2.4
12 -7 -4 8.14 2.43
-12 7 -4 11.53 2.11
-7 -12 4 10.97 1.94
12 -7 4 13.91 2.49
-12 7 4 12.25 2.06
-12 8 -4 1.38 1.65
-12 8 -4 2.07 1.89
12 -8 -4 1.98 2.19
-8 -12 -4 2.04 1.78
-12 8 4 -0.67 1.63
-8 -12 4 1.3 1.46
12 -8 4 -0.17 1.87
-9 -12 -4 0.67 1.79
-12 9 -4 -1.29 1.64
12 -9 -4 5.07 2.37
-12 9 -4 -3.3 1.53
12 -9 4 -1.75 1.91
-9 -12 4 0.62 1.51
-12 9 4 -0.01 1.78
12 -10 -4 5.44 2.52
-12 10 -4 6.95 2.21
-12 10 -4 3.7 1.89
-10 -12 -4 3.26 2.07
12 -10 4 6.08 2.48
-12 10 4 3.49 2.01
-10 -12 4 3.38 1.56
-12 11 -4 5.59 1.85
12 -11 -4 4.14 2.55
-11 -12 -4 5.2 2.08
-11 -12 -4 5.27 2.07
-11 -12 -4 5.67 2.14
12 -11 4 2.1 2.31
-12 11 4 2.51 2.04
-11 -12 4 1.78 1.49
12 -12 -4 2.33 2.6
-12 12 -4 -2.68 1.63
-12 -12 -4 -3.3 1.88
-12 -12 -4 -2.34 1.84
-12 -12 -4 0.04 1.98
-12 12 4 1.27 2.07
-12 -12 4 0.8 1.51
12 -12 4 -3.68 2.23
12 -13 -4 -1.18 2.54
-13 -12 -4 -0.55 1.95
-12 13 -4 -0.52 1.88
-13 -12 -4 0.47 2.07
-13 -12 -4 3.12 2.05
-13 -12 4 -0.03 1.62
12 -13 4 -0.75 2.47
-12 13 4 2.28 2.31
11 -13 -4 1.71 2.31
-13 -11 -4 0.9 1.97
-13 -11 -4 -0.64 1.99
-11 13 -4 1.1 1.89
-13 -11 -4 2.78 2.02
-13 -11 4 -0.4 1.41
-11 13 4 1.87 2.23
11 -13 4 -1.12 2.1
-13 -10 -4 2.86 2.06
10 -13 -4 1.67 2.17
-10 13 -4 0.38 1.69
-13 -10 -4 3.16 2.07
-10 13 4 6.39 2.22
10 -13 4 3.59 2.46
-13 -10 4 1.72 1.45
-13 -9 -4 6.49 2.2
9 -13 -4 6.84 2.52
-13 -9 -4 6.38 2.03
-9 13 -4 6.03 2.04
-9 13 4 5.07 2.11
-13 -9 4 6.82 1.66
9 -13 4 6.07 2.43
-13 -8 -4 7.63 2.25
-8 13 -4 8.3 2.11
-13 -8 -4 8.92 2.09
8 -13 -4 11.84 2.77
-13 -8 4 11.47 1.77
-13 -8 4 7.87 1.64
8 -13 4 9.99 2.58
-8 13 4 9.53 2.33
-13 -7 -4 2.31 1.92
-7 13 -4 8.31 2.05
-13 -7 -4 5.27 2.03
7 -13 -4 9 2.58
7 -13 4 4.25 2.11
-13 -7 4 8.76 1.61
-7 13 4 7.94 2.17
7 -13 4 3.16 1.99
-13 -6 -4 -1.29 1.43
-6 13 -4 -0.36 1.58
-13 -6 -4 -0.06 1.71
6 -13 -4 0.49 2.11
6 -13 4 0.39 1.86
-6 13 4 -0.87 1.8
-13 -6 4 1.65 1.3
6 -13 4 -0.96 1.72
-13 -5 -4 11.82 2.2
-5 13 -4 10.77 2.11
-13 -5 -4 11.33 2.08
5 -13 -4 10.8 2.54
-13 -5 4 10.98 1.67
5 -13 4 10.45 2.52
-5 13 4 6.59 2.06
5 -13 4 12.66 2.2
-13 -4 -4 16.85 2.35
4 -13 -4 17.72 2.81
-13 -4 -4 13.85 2.36
-4 13 -4 14.14 2.29
4 -13 4 19.46 2.52
4 -13 4 16.34 2.7
-13 -4 4 15.51 2.3
-13 -4 4 15.06 1.8
-4 13 4 20.53 2.55
-3 13 -4 11.37 2.07
-13 -3 -4 9.95 2.02
-13 -3 -4 11.18 2.14
3 -13 -4 11.67 2.43
-13 -3 4 8.44 1.55
3 -13 4 6.51 2.11
-13 -3 4 13.41 2.06
-3 13 4 9.81 2.09
3 -13 4 9.73 2.07
-2 13 -4 2.06 1.68
-13 -2 -4 -0.19 1.66
2 -13 -4 4.98 1.94
-13 -2 -4 0.63 1.61
2 -13 -4 6.32 1.8
-2 13 4 2.09 1.69
-13 -2 4 2.08 1.56
2 -13 4 5.79 1.94
-13 -2 4 2.33 1.27
2 -13 4 2.8 1.63
-13 -1 -4 3.51 1.71
-13 -1 -4 2.35 1.58
1 -13 -4 2.45 1.49
1 -13 -4 6.64 1.93
-1 13 -4 6.14 1.72
-13 -1 4 3.46 1.52
-13 -1 4 2.53 1.2
-1 13 4 1.91 1.54
1 -13 4 1.56 1.57
-1 13 4 2.92 1.2
1 -13 4 4.73 1.8
-13 0 -4 1.39 1.66
-13 0 -4 2.32 1.68
0 13 -4 1.51 1.6
0 -13 -4 3.41 1.78
0 -13 -4 2 1.66
13 0 -4 0.2 1.32
0 -13 4 0.89 1.48
0 -13 4 -1.48 1.49
-13 0 4 0.17 1.1
0 13 4 0.43 1.56
-13 0 4 0.87 1.38
1 13 -4 5.68 1.79
-13 1 -4 3.92 1.74
-1 -13 -4 6.27 1.83
-1 -13 -4 7.36 1.89
-13 1 -4 7.41 1.99
13 -1 -4 5.66 1.74
-13 1 4 9.72 1.7
-13 1 4 7.14 1.44
13 -1 4 6.56 1.51
-1 -13 4 8.45 1.88
-2 -13 -4 -0.15 1.57
-2 -13 -4 -0.81 1.42
-13 2 -4 -1.51 1.47
-13 2 -4 0.77 1.62
13 -2 -4 0.67 1.61
13 -2 4 0.13 1.4
-13 2 4 2.48 1.37
-2 -13 4 -0.4 1.5
-13 2 4 2.44 1.25
-13 3 -4 -0.6 1.45
13 -3 -4 0.42 1.57
-3 -13 -4 2.05 1.46
-13 3 -4 -0.54 1.6
-3 -13 -4 1.22 1.47
-13 3 4 2.9 1.47
-3 -13 4 0.59 1.54
-13 3 4 -0.74 1.26
13 -3 4 1.34 1.51
13 -4 -4 0.19 1.69
-4 -13 -4 0.32 1.34
-13 4 -4 4.41 1.73
-4 -13 -4 0.52 1.63
-13 4 -4 0.62 1.69
-13 4 4 1.25 1.25
-4 -13 4 2.26 1.6
-13 4 4 -1.17 1.36
13 -4 4 -0.16 1.61
-13 5 -4 3.04 1.81
-13 5 -4 -1.88 1.69
-5 -13 -4 -0.47 1.67
13 -5 -4 1.96 1.89
13 -5 4 2.79 1.84
-13 5 4 1.88 1.58
-5 -13 4 -1.13 1.54
-13 5 4 1.81 1.22
-6 -13 -4 6.47 2.05
-13 6 -4 5.41 1.86
-13 6 -4 6.79 1.99
13 -6 -4 12.21 2.44
-6 -13 4 7.06 1.9
13 -6 4 10.5 2.33
-13 6 4 6.89 1.82
-13 7 -4 10.04 2.25
13 -7 -4 9.66 2.54
-13 7 -4 8.61 2.01
-7 -13 -4 7.86 2.25
13 -7 4 3.64 2.22
-7 -13 4 7.5 1.96
-13 7 4 10.44 2.14
-13 8 -4 3.21 1.97
13 -8 -4 0.75 2.19
-13 8 -4 6.4 1.87
-8 -13 -4 2.75 1.96
-13 8 4 4.03 1.83
13 -8 4 1.33 2.12
-8 -13 4 1.6 1.64
-13 9 -4 4.57 2.09
13 -9 -4 2.54 2.37
-9 -13 -4 0.14 1.84
-13 9 -4 -0.81 1.63
-13 9 4 -0.07 1.89
13 -9 4 0.31 2.14
-9 -13 4 2.18 1.6
13 -10 -4 4.46 2.52
-13 10 -4 7.77 2.38
-13 10 -4 5.94 1.98
-10 -13 -4 5.47 2.12
-10 -13 4 5.78 1.81
-13 10 4 2.61 2
13 -10 4 5.64 2.45
13 -11 -4 3.36 2.69
-13 11 -4 7.24 2.12
-11 -13 -4 3.98 2.25
-11 -13 4 2.99 1.79
13 -11 4 3.92 2.6
-13 11 4 -0.01 2.05
-12 -13 -4 4.06 2.31
13 -12 -4 2.66 2.68
-13 12 -4 0.91 1.95
-12 -13 4 -0.72 1.63
13 -12 4 -0.21 2.46
-13 12 4 1.4 2.19
11 -14 -4 3.24 2.69
-11 14 -4 -0.04 1.94
-14 -11 -4 0.63 2.12
-14 -11 -4 2.44 2.27
-14 -11 -4 -1.08 1.84
-14 -11 4 0.02 1.6
11 -14 4 -1.56 2.52
-11 14 4 0.82 2.16
-14 -10 -4 1.12 2
-14 -10 -4 0 2.01
10 -14 -4 0 2.45
-10 14 -4 -1.43 1.75
-10 14 4 4.02 2.22
-14 -10 4 0.69 1.52
10 -14 4 -0.54 2.36
-14 -9 -4 2.15 1.88
-9 14 -4 -1.27 1.82
-14 -9 -4 0.99 1.96
9 -14 -4 1.81 2.42
-14 -9 4 2.47 1.54
-9 14 4 5.27 2.19
9 -14 4 2.27 2.17
-8 14 -4 2.53 1.81
-14 -8 -4 4.9 2.18
8 -14 -4 2.86 2.48
-14 -8 -4 2.44 1.84
-14 -8 4 1.24 1.45
-8 14 4 0.91 1.89
8 -14 4 0.22 2.13
-14 -8 4 -0.6 1.38
-7 14 -4 1.16 1.72
7 -14 -4 4.4 2.43
-14 -7 -4 -1.23 1.73
-14 -7 -4 5.2 1.9
-14 -7 4 0.01 1.39
-7 14 4 4.32 1.88
7 -14 4 -0.17 2.15
6 -14 -4 -2.92 2.11
-6 14 -4 4.05 1.82
-14 -6 -4 1.83 1.83
-14 -6 -4 2.01 1.67
6 -14 4 -0.68 2.15
-6 14 4 1.98 1.78
-14 -6 4 2.42 1.39
6 -14 4 1.99 1.93
-14 -5 -4 13.91 2.46
-5 14 -4 16.1 2.46
-14 -5 -4 13.85 2.42
5 -14 -4 17.76 2.94
-5 14 4 11.98 2.39
5 -14 4 15.77 2.83
5 -14 4 14.39 2.49
-14 -5 4 14.28 1.88
-4 14 -4 19.9 2.62
-14 -4 -4 19.49 2.63
-14 -4 -4 23.22 2.92
4 -14 -4 25.08 3.16
4 -14 4 15.9 2.6
-4 14 4 19.12 2.82
-14 -4 4 17.48 2.06
-14 -4 4 19.92 2.6
4 -14 4 20.61 2.97
3 -14 -4 6.49 2.25
-14 -3 -4 9.11 2.18
-3 14 -4 2.18 1.78
-14 -3 -4 4.93 1.97
-3 14 4 7.24 1.95
3 -14 4 7.8 2.22
-14 -3 4 4.19 1.74
-14 -3 4 4.81 1.46
3 -14 4 4.19 1.93
-14 -2 -4 2.08 1.77
-2 14 -4 2.93 1.78
2 -14 -4 0.02 1.83
-14 -2 -4 -0.17 1.71
-14 -2 4 2.63 1.59
2 -14 4 -0.21 1.63
2 -14 4 -1.05 1.69
-14 -2 4 -0.03 1.22
1 -14 -4 1.3 1.77
-14 -1 -4 3.45 1.76
1 -14 -4 1.92 1.88
-1 14 -4 1.27 1.74
-14 -1 -4 1.06 1.76
1 -14 4 1.71 1.94
-14 -1 4 1.97 1.29
-14 -1 4 2.58 1.52
1 -14 4 -0.04 1.67
0 -14 -4 2.71 1.66
0 14 -4 5.97 1.93
14 0 -4 4.63 1.69
-14 0 -4 0.08 1.66
-14 0 -4 1.85 1.84
0 -14 -4 3.96 1.99
0 -14 4 4.74 1.81
0 -14 4 3.11 1.78
-14 0 4 4.21 1.39
-14 0 4 5.68 1.55
-1 -14 -4 12.98 2.28
1 14 -4 14.41 2.39
-1 -14 -4 10.89 2.26
14 -1 -4 15.05 2.21
-14 1 -4 5.84 2.12
-14 1 -4 11.18 2.16
-1 -14 4 10.89 2.15
-14 1 4 10.77 1.77
-14 1 4 14.78 2.03
-2 -14 -4 1.72 1.65
14 -2 -4 3.12 1.73
-14 2 -4 1.58 1.74
-14 2 -4 0.73 1.8
-2 -14 -4 2.84 1.77
-14 2 4 3.16 1.5
-14 2 4 1.26 1.32
14 -2 4 -0.58 1.35
-2 -14 4 -0.42 1.5
-14 3 -4 0.04 1.66
-14 3 -4 0.84 1.71
-3 -14 -4 1.01 1.8
14 -3 -4 -0.86 1.7
-3 -14 -4 -1.34 1.43
-14 3 4 -0.32 1.3
-3 -14 4 -4.24 1.49
14 -3 4 2.03 1.61
-14 3 4 0.22 1.39
-4 -14 -4 2.45 1.65
-14 4 -4 4.53 1.82
-14 4 -4 -0.83 1.75
14 -4 -4 0.91 1.81
-14 4 4 0.7 1.55
-14 4 4 0.95 1.34
-4 -14 4 0.21 1.59
14 -4 4 -0.14 1.65
-14 5 -4 -0.2 1.65
-14 5 -4 1.56 1.86
14 -5 -4 1.26 1.94
-5 -14 -4 -0.94 1.74
-14 5 4 2.64 1.67
-5 -14 4 0.81 1.69
14 -5 4 2.65 1.89
-6 -14 -4 -0.64 1.79
14 -6 -4 0.45 2.04
-14 6 -4 1.77 1.77
-14 6 -4 5.58 2.11
14 -6 4 4.43 1.99
-14 6 4 0.29 1.66
-6 -14 4 -0.71 1.67
-7 -14 -4 2.49 1.94
-14 7 -4 -0.75 1.65
14 -7 -4 3.32 2.25
-14 7 -4 4.74 2.03
-14 7 4 -2.17 1.65
-7 -14 4 2.52 1.72
14 -7 4 -2.45 1.99
-14 8 -4 0.53 1.73
-8 -14 -4 -0.11 1.89
-14 8 -4 1.88 2.02
14 -8 -4 2.34 2.39
-8 -14 4 1.79 1.75
-14 8 4 1.81 1.81
14 -8 4 1.74 2.14
-9 -14 -4 2.31 2.19
-14 9 -4 -0.73 2
14 -9 -4 -3.38 2.15
-14 9 -4 -0.91 1.69
-14 9 4 -1.87 1.79
14 -9 4 0.54 2.19
-9 -14 4 0.16 1.71
-10 -14 -4 0.86 2.17
-14 10 -4 -2.14 1.7
14 -10 -4 -1.06 2.39
-14 10 -4 1.78 2.16
14 -10 4 -1.43 2.3
-10 -14 4 2.07 1.9
-14 10 4 1.63 2.22
-11 -14 -4 4.17 2.23
14 -11 -4 1.93 2.72
-14 11 -4 0.19 1.83
14 -11 4 6.06 2.82
-11 -14 4 2.85 1.88
-14 11 4 0.66 2.11
9 -15 -4 -1.56 2.5
-9 15 -4 -2.72 1.82
-15 -9 -4 2.33 2.14
-15 -9 -4 1.39 2.06
-9 15 4 0.17 2.09
-15 -9 4 0.65 1.55
-15 -9 4 1.09 1.63
9 -15 4 5.54 2.58
8 -15 -4 1.34 2.52
-15 -8 -4 -4.29 1.62
-8 15 -4 1.29 1.91
-15 -8 -4 -0.48 1.86
-8 15 4 -1.92 1.98
-15 -8 4 1.28 1.54
-15 -8 4 -0.45 1.49
8 -15 4 1.5 2.33
-7 15 -4 -1.14 1.73
7 -15 -4 0.98 2.43
-15 -7 -4 0.73 1.73
-15 -7 -4 0.89 1.79
-7 15 4 1.74 2.09
-15 -7 4 1.25 1.52
7 -15 4 -2.68 1.9
-15 -6 -4 1.18 1.81
-6 15 -4 -0.32 1.78
-15 -6 -4 1.12 1.67
6 -15 -4 1.28 2.14
-15 -6 4 0.97 1.43
6 -15 4 3.35 2.1
6 -15 4 0.72 1.9
-6 15 4 0.95 2.06
5 -15 -4 3.4 2.03
-15 -5 -4 2.51 1.83
-5 15 -4 3.11 1.94
-15 -5 -4 -0.46 1.75
5 -15 4 3.27 1.97
5 -15 4 2.94 2.24
-15 -5 4 2.43 1.47
-15 -4 -4 -0.02 1.86
-15 -4 -4 5.83 2.01
4 -15 -4 4.21 2.28
-4 15 -4 0.94 1.78
4 -15 4 5.15 2.25
-15 -4 4 2.15 1.4
-15 -4 4 0.31 1.75
4 -15 4 3.33 1.96
-15 -3 -4 4.24 2.05
-15 -3 -4 4.85 1.94
3 -15 -4 5.77 2.25
-3 15 -4 0.77 1.75
-15 -3 4 4.57 1.82
3 -15 4 2.33 1.88
3 -15 4 2.04 2.01
-15 -3 4 3.74 1.46
-2 15 -4 0.37 1.85
-15 -2 -4 0.88 1.7
-15 -2 -4 -1.44 1.72
2 -15 -4 1.32 2.02
-15 -2 4 0.05 1.55
-15 -2 4 -0.49 1.29
2 -15 4 3.09 1.93
2 -15 4 -0.15 1.77
-15 -1 -4 5.72 2.09
1 -15 -4 3.7 2.06
-15 -1 -4 8.78 2.22
-1 15 -4 5.05 1.95
1 -15 4 5.05 2.02
1 -15 4 5.35 1.98
-15 -1 4 2.18 1.37
-15 -1 4 3.82 1.67
-15 0 -4 12.55 2.43
0 -15 -4 12.64 2.39
0 15 -4 15.88 2.52
-15 0 -4 11.85 2.34
0 -15 4 15.24 2.41
-15 0 4 12.23 1.91
-15 0 4 13.25 2.19
-15 1 -4 11.59 2.43
-1 -15 -4 11.25 2.35
1 15 -4 9.42 2.25
-1 -15 -4 11.1 2.39
-15 1 -4 13.63 2.44
15 -1 -4 10.68 2.19
-15 1 4 10.55 1.87
-15 1 4 11.71 1.95
-1 -15 4 15.99 2.4
-2 -15 -4 5.56 2
-15 2 -4 4.67 2
-2 -15 -4 1.72 1.85
15 -2 -4 3.16 1.85
2 15 -4 3.22 1.97
-15 2 -4 2.85 1.96
-15 2 4 2.46 1.57
-15 2 4 1.4 1.54
-2 -15 4 6.07 1.97
-15 3 -4 -0.35 1.75
15 -3 -4 2.56 1.89
-3 -15 -4 1.59 1.84
-15 3 -4 0.31 1.76
-3 -15 -4 1.08 1.62
15 -3 4 0.54 1.58
-3 -15 4 1.16 1.82
-15 3 4 -2.9 1.26
-15 3 4 0.37 1.5
-15 4 -4 3.49 1.93
-4 -15 -4 3.33 1.95
-15 4 -4 -0.1 1.8
15 -4 -4 0.88 1.99
15 -4 4 2.58 1.75
-15 4 4 2.96 1.73
-4 -15 4 2.18 1.86
15 -5 -4 5.32 2.18
-5 -15 -4 7.04 1.99
-15 5 -4 6.43 2.06
-15 5 -4 6.51 2.28
15 -5 4 2.98 1.94
-5 -15 4 7.14 2.03
-15 5 4 3.09 1.89
-6 -15 -4 1.11 1.9
-15 6 -4 -0.58 1.94
15 -6 -4 1.13 2.11
-15 6 -4 -0.16 1.8
-6 -15 4 4.04 1.85
-15 6 4 3.34 1.87
15 -6 4 3.28 2.11
-15 7 -4 0.25 1.99
-15 7 -4 -0.61 1.81
15 -7 -4 -0.05 2.32
-7 -15 -4 1.73 1.99
-15 7 4 0.31 1.91
15 -7 4 -1.4 1.91
-7 -15 4 0.79 1.83
-8 -15 -4 4.3 2.14
-15 8 -4 1.61 1.84
15 -8 -4 -0.42 2.23
-15 8 -4 1.07 2.09
-15 8 4 1.61 2.01
-8 -15 4 0.66 1.82
15 -8 4 4.45 2.42
-15 9 -4 0.82 1.97
-15 9 -4 -2.49 1.99
15 -9 -4 -0.94 2.42
-9 -15 -4 -0.61 2.17
-9 -15 4 -0.1 1.81
-15 9 4 1.75 2.06
15 -9 4 1.38 2.35
-16 -8 -4 0.06 1.98
-16 -8 -4 2.48 2.14
-8 16 -4 -0.37 1.98
8 -16 -4 3.65 2.74
-16 -8 4 -0.14 1.59
-16 -8 4 -0.85 1.54
8 -16 4 0.67 2.47
7 -16 -4 0.2 2.51
-16 -7 -4 -1.91 1.71
-7 16 -4 -0.57 1.95
-16 -7 -4 -2.92 1.92
7 -16 4 -2.09 2.26
-16 -7 4 -1.6 1.48
-16 -6 -4 -0.52 1.98
-16 -6 -4 -0.12 1.95
-6 16 -4 -1.68 1.82
6 -16 -4 -0.72 2.38
-16 -6 4 -0.98 1.46
6 -16 4 2.33 2.34
-16 -5 -4 2.81 1.94
5 -16 -4 -0.73 2.21
-5 16 -4 2.13 1.84
-16 -5 -4 -1.95 1.82
5 -16 4 -1.34 2.15
-16 -5 4 -1.47 1.41
5 -16 4 1.31 1.98
4 -16 -4 0.75 2.22
-16 -4 -4 0.88 1.94
-16 -4 -4 -1.18 1.9
-4 16 -4 1.64 1.95
-16 -4 4 -0.78 1.38
4 -16 4 -1.76 1.88
4 -16 4 0.69 2.11
-16 -4 4 1.23 1.76
-16 -3 -4 -0.45 1.71
3 -16 -4 -1.86 1.99
-3 16 -4 -1.27 1.81
-16 -3 -4 -0.43 1.74
-16 -3 4 1.47 1.74
-16 -3 4 -0.42 1.43
3 -16 4 1.77 2.04
3 -16 4 0.13 1.81
-2 16 -4 -1.42 1.82
-16 -2 -4 1.64 1.98
2 -16 -4 0.79 1.99
-16 -2 -4 -0.18 1.96
2 -16 4 1.97 1.89
-16 -2 4 0.06 1.42
-16 -2 4 -1.19 1.64
2 -16 4 2.17 1.97
-16 -1 -4 0.7 1.85
-1 16 -4 7.72 2.17
-16 -1 -4 -1.26 1.8
1 -16 -4 -2.36 1.91
1 -16 4 2.21 1.97
-16 -1 4 -1.73 1.4
1 -16 4 -1.79 1.73
-16 -1 4 1.65 1.62
-16 0 -4 -1.57 1.82
0 -16 -4 2.4 1.92
-16 0 -4 1.51 1.93
0 16 -4 0.48 1.9
-16 0 4 2.89 1.68
-16 0 4 2.15 1.46
0 -16 4 3.05 1.89
-1 -16 -4 5.09 2.05
-16 1 -4 4.79 2.13
1 16 -4 4.45 2.1
-16 1 -4 4.62 2.09
-16 1 4 3.2 1.67
-16 1 4 5.46 1.67
-1 -16 4 5.38 2.16
-2 -16 -4 6.67 1.99
2 16 -4 7.03 2.22
-16 2 -4 2.29 1.99
-16 2 -4 3.89 2.03
-2 -16 -4 0.66 2.02
-16 2 4 4.04 1.65
-16 2 4 3.32 1.71
-2 -16 4 3.86 2.08
-16 3 -4 -3.27 1.77
-16 3 -4 1.01 1.89
-3 -16 -4 -1.58 1.82
16 -3 -4 0.85 1.93
-16 3 4 1.22 1.7
-3 -16 4 -0.83 1.86
-4 -16 -4 2.37 2.04
16 -4 -4 1.7 2.13
-16 4 -4 4.92 2.05
-16 4 -4 0.59 1.96
-16 4 4 2.41 1.88
-4 -16 4 -1.23 1.75
-16 5 -4 3.22 2.07
-16 5 -4 4.77 2.13
16 -5 -4 5.27 2.4
-5 -16 -4 5.41 2.17
16 -5 4 6.88 2.12
-5 -16 4 3.66 2.11
-16 5 4 4 1.94
-6 -16 -4 -0.51 1.85
16 -6 -4 2.98 2.37
-16 6 -4 0.77 2.07
-16 6 -4 4.35 2.1
16 -6 4 1.27 2.06
-6 -16 4 2.29 2.02
-16 6 4 3.17 2.03
-16 7 -4 -1.74 2
16 -7 -4 2.77 2.4
-7 -16 -4 -0.54 2
-16 7 -4 0.23 1.85
-7 -16 4 2.46 2.01
16 -7 4 2.61 2.08
-16 7 4 0.67 1.98
16 -8 -4 -0.51 2.38
-16 8 -4 2.65 2.35
-8 -16 -4 -3.92 1.92
-16 8 -4 -0.32 1.92
-8 -16 4 3.7 2.05
-16 8 4 -0.82 1.91
16 -8 4 -0.52 2.21
-17 -5 -4 1.88 2.06
5 -17 -4 0.61 2.51
-17 -5 -4 3.84 2.29
-5 17 -4 -0.58 2.02
5 -17 4 2.65 2.42
-17 -5 4 2.11 1.63
4 -17 -4 2.17 2.63
-17 -4 -4 0.75 2.1
-17 -4 -4 2.27 2.01
-4 17 -4 1.12 2.11
4 -17 4 3.84 2.22
4 -17 4 -0.74 2.21
-17 -4 4 1.15 1.59
-17 -3 -4 0.35 1.95
-17 -3 -4 1.24 2.15
3 -17 -4 -1.62 2.19
-3 17 -4 -1.45 1.79
3 -17 4 -0.71 1.94
3 -17 4 0.52 2.19
-17 -3 4 2 1.62
-17 -3 4 2.92 1.92
-2 17 -4 -1.46 1.94
-17 -2 -4 -0.92 2.04
-17 -2 -4 -0.97 1.86
2 -17 -4 0.62 2.32
2 -17 4 1.19 2.03
-17 -2 4 -3.11 1.45
-17 -2 4 1.39 1.78
2 -17 4 2.58 2.07
1 -17 -4 -2.55 2.05
-17 -1 -4 2.1 2.04
-1 17 -4 2.81 2.1
-17 -1 -4 -0.16 2.05
-17 -1 4 -0.43 1.54
-17 -1 4 -0.15 1.83
1 -17 4 -0.57 1.85
-17 0 -4 0.05 2.04
-17 0 -4 -0.89 1.86
0 -17 -4 3.83 2.17
0 17 -4 1.07 2.01
-17 0 4 -1.94 1.61
0 -17 4 0.41 1.89
-17 0 4 0.44 1.6
-17 1 -4 0.02 2.01
1 17 -4 0.03 2.06
-1 -17 -4 -0.41 1.97
-17 1 -4 0.56 2
-17 1 4 1.9 1.62
-1 -17 4 1.44 2
-17 1 4 -1.54 1.6
-17 2 -4 -1.27 1.88
-17 2 -4 0.57 2.06
2 17 -4 2.41 2.02
-17 2 4 1.42 1.66
-2 -17 4 -0.68 1.97
-17 2 4 0.12 1.61
-17 3 -4 -0.21 1.9
-17 3 -4 1.17 2.05
-3 -17 -4 -4.65 1.84
3 17 -4 -0.31 1.99
-17 3 4 1.13 1.71
-3 -17 4 2.24 2
-4 -17 -4 0.96 2.12
-17 4 -4 0.02 2.2
17 -4 -4 3.63 2.23
-17 4 -4 2.78 2.14
-17 4 4 -1.55 1.77
-4 -17 4 2.73 2.11
17 -5 -4 1.33 2.28
-17 5 -4 6.21 2.26
-17 5 -4 5.17 2.34
-5 -17 -4 5.32 2.33
-5 -17 4 5.39 2.28
-17 5 4 2.29 2
0 0 -5 230.76 12.16
0 0 5 198.89 11.91
0 0 5 208.92 11.92
0 -1 -5 56.42 3.73
-1 0 -5 52.66 3.8
1 0 -5 53.27 3.75
-1 0 -5 53.85 3.7
0 1 -5 54.35 3.81
0 1 5 65.36 3.73
1 0 5 68.74 3.76
-1 0 5 69.11 3.67
0 1 5 69.28 3.75
0 -1 5 71.58 3.71
0 -1 5 64.72 3.68
1 -1 -5 49.02 3.28
1 1 -5 46.39 3.39
-1 -1 -5 49.8 3.37
-1 -1 -5 50.75 3.35
-1 1 -5 47.14 3.45
-1 -1 5 58.63 3.24
1 -1 5 57.67 3.35
1 1 5 59.07 3.4
-1 1 5 59.48 3.3
-1 1 5 66.8 3.35
1 -1 5 56.23 3.37
-2 -1 -5 12.33 1.25
-1 2 -5 9.19 1.18
-2 -1 -5 10.29 1.19
1 -2 -5 12.98 0.97
-1 2 5 12.82 1.16
-1 2 5 10.92 1.11
1 -2 5 11.52 1.14
1 -2 5 13.7 1.2
-2 -1 5 11.6 0.92
2 1 5 10.46 1.21
0 -2 -5 17.37 1.47
-2 0 -5 17.87 1.54
2 0 -5 16.65 1.46
-2 0 -5 17.13 1.5
0 2 -5 17.74 1.55
0 -2 -5 15.9 1.4
0 -2 5 18.51 1.43
0 -2 5 16.9 1.43
2 0 5 18.59 1.58
-2 0 5 18.04 1.32
0 2 5 17.89 1.48
2 -1 -5 128.71 7.36
1 2 -5 133.87 7.55
-2 1 -5 127.54 7.56
-1 -2 -5 125.88 7.37
-2 1 -5 127.81 7.37
-1 -2 -5 128.27 7.42
1 2 5 124.01 7.38
-1 -2 5 127 7.24
-2 1 5 135.97 7.28
2 -1 5 122.72 7.37
-2 -2 -5 16.97 1.43
2 -2 -5 18.83 1.23
-2 2 -5 18.49 1.61
-2 -2 -5 18.82 1.56
-2 2 -5 17.35 1.47
2 -2 5 16.42 1.47
-2 -2 5 15.02 1.23
2 2 5 17.79 1.52
-2 2 5 15.3 1.37
-2 2 5 15.42 1.36
-2 3 -5 84.72 5.42
-3 -2 -5 83.6 5.49
-3 -2 -5 85.39 5.45
-2 3 -5 85.29 5.58
3 2 5 91.03 5.48
-2 3 5 95.67 5.38
-2 3 5 94.05 5.37
-2 3 5 99.49 5.41
-3 -2 5 95.04 5.13
2 -3 5 96.75 5.44
1 -3 -5 39.28 2.72
-3 -1 -5 40.39 3.03
-3 -1 -5 41.55 3.01
1 -3 -5 42.07 2.89
-1 3 -5 38.83 3.02
1 -3 5 53.45 2.95
-3 -1 5 51.81 2.65
1 -3 5 48.63 2.97
-1 3 5 53.39 2.98
3 1 5 49.63 3.07
0 -3 -5 16.19 1.39
0 3 -5 13.41 1.41
-3 0 -5 12.07 1.41
0 -3 -5 14.14 1.34
0 -3 -5 12.69 1.12
-3 0 -5 13.84 1.41
3 0 5 18.5 1.51
-3 0 5 18.34 1.15
0 3 5 13.59 1.37
0 -3 5 15.21 1.29
0 -3 5 16.96 1.31
-3 1 -5 19.31 1.67
1 3 -5 20.26 1.76
-1 -3 -5 19.73 1.59
-1 -3 -5 20.58 1.73
-3 1 -5 20.25 1.74
-3 1 5 20.32 1.42
3 -1 5 19.2 1.63
-3 1 5 18.98 1.44
-1 -3 5 19.62 1.51
1 3 5 21.63 1.74
-2 -3 -5 103.84 6.39
-3 2 -5 112.3 6.58
3 -2 -5 108.3 6.22
-2 -3 -5 111.22 6.4
-3 2 -5 103.91 6.34
-2 -3 5 113.28 6.17
2 3 5 105.06 6.4
-2 -3 5 110.47 6.16
-3 2 5 110.97 6.25
3 -2 5 106.19 6.39
-3 -3 -5 41.81 2.82
-3 3 -5 39.68 2.75
-3 -3 -5 41.33 2.71
-3 3 5 40.05 2.61
-3 -3 5 39.3 2.36
-3 -3 5 39.48 2.37
3 3 5 38.61 2.78
-3 3 5 41.25 2.64
3 -3 5 35.56 2.66
-3 4 -5 42.46 2.7
-4 -3 -5 43.02 2.69
-4 -3 -5 41.97 2.76
-3 4 -5 41.94 2.83
-4 -3 5 36.2 2.19
-3 4 5 37.58 2.64
3 -4 5 35.75 2.59
4 3 5 30.4 2.65
-3 4 5 34.23 2.53
-4 -3 5 35.6 2.19
2 -4 -5 273.65 14.79
-4 -2 -5 270.67 15.1
-4 -2 -5 278.16 14.89
-2 4 -5 286.78 14.83
-2 4 5 250 14.78
4 2 5 229 14.81
2 -4 5 251.82 14.81
-1 4 -5 405.45 22.78
-4 -1 -5 396.91 22.73
1 -4 -5 410.99 22.46
1 -4 -5 431.88 22.33
-4 -1 -5 411.2 22.4
4 1 5 378.44 22.35
1 -4 5 405.16 22.31
-1 4 5 387.69 22.32
1 -4 5 370.62 22.28
0 4 -5 98.54 5.63
-4 0 -5 93.88 5.6
-4 0 -5 97.86 5.5
0 -4 -5 92.86 5.43
0 -4 -5 95.12 5.29
0 -4 5 87.36 5.35
4 0 5 90.01 5.49
-4 0 5 86.95 5.14
-4 0 5 87.83 5.14
0 4 5 82.43 5.42
0 -4 5 93.62 5.37
-1 -4 -5 23.31 1.8
1 4 -5 22.33 1.81
-4 1 -5 20.05 1.71
-1 -4 -5 19.83 1.71
-4 1 -5 23.08 1.89
-1 -4 -5 20.86 1.58
-1 -4 5 19.32 1.55
4 -1 5 18.36 1.7
-4 1 5 19.52 1.46
-4 1 5 20.39 1.43
1 4 5 19.88 1.74
-1 -4 5 15.89 1.46
-2 -4 -5 86.18 5.55
-2 -4 -5 94.46 5.52
-4 2 -5 86.55 5.6
-4 2 -5 94.82 5.57
-4 2 5 94.54 5.36
-2 -4 5 91.47 5.32
4 -2 5 87.74 5.51
2 4 5 97.9 5.59
-2 -4 5 95.59 5.32
-4 3 -5 18.46 1.78
-3 -4 -5 19.97 1.74
-4 3 -5 19.44 1.83
-3 -4 -5 19.6 1.8
3 4 5 22.09 1.87
-3 -4 5 20.86 1.46
-4 3 5 22.08 1.69
4 -3 5 18.58 1.77
-3 -4 5 21.23 1.5
-4 3 5 20.49 1.68
-4 -4 -5 25.42 2.17
-4 -4 -5 22.61 2.07
-4 4 -5 21.21 2.09
-4 4 -5 24.83 2.16
4 -4 5 26.68 2.1
-4 -4 5 26.72 1.69
-4 -4 5 24.6 1.66
-4 4 5 22.3 1.97
-4 4 5 29.1 2.05
4 4 5 25.94 2.17
-4 5 -5 3.25 1.1
-4 5 -5 1.06 1.07
-5 -4 -5 1.7 0.98
-5 -4 -5 1.63 1.06
-4 5 5 1.06 0.93
4 -5 5 3.26 1.16
5 4 5 0.06 0.96
-5 -4 5 1.33 0.52
-4 5 5 0.31 0.92
-5 -4 5 1.86 0.5
4 -5 5 1.13 1.02
3 -5 -5 37.34 2.51
-5 -3 -5 35.94 2.56
-3 5 -5 34.84 2.61
-5 -3 -5 32.12 2.5
-3 5 -5 33.93 2.75
-3 5 5 33.97 2.52
3 -5 5 33.88 2.61
5 3 5 32.92 2.61
2 -5 -5 53.46 3.19
-2 5 -5 50.31 3.19
-5 -2 -5 47.22 3.34
-2 5 -5 50.94 3.29
-5 -2 -5 47.8 3.29
5 2 5 42.05 3.21
2 -5 5 42.09 3.17
-2 5 5 46.56 3.2
-5 -1 -5 121.56 7.41
1 -5 -5 126.01 7.23
-5 -1 -5 124.53 7.29
1 -5 -5 116.92 7.02
-1 5 5 128.76 7.28
5 1 5 123.68 7.25
1 -5 5 125.27 7.22
0 -5 -5 97.55 5.5
0 -5 -5 100.23 5.7
-5 0 -5 102.72 5.71
-5 0 -5 97.57 5.87
-5 0 5 88.16 5.34
0 -5 5 91.4 5.58
0 5 5 90.74 5.68
-5 0 5 91.05 5.34
0 -5 5 101.79 5.63
5 0 5 89.61 5.68
-1 -5 -5 7.22 1.12
-1 -5 -5 8.08 1.26
-5 1 -5 7.05 1.25
-1 -5 -5 8.18 0.94
-5 1 -5 6.44 1.14
-1 -5 5 8.49 1.02
-1 -5 5 9.57 1.09
-5 1 5 6.63 0.82
1 5 5 7.78 1.24
-5 1 5 7.46 0.84
5 -1 5 5.94 1.2
-5 2 -5 154.68 8.89
-2 -5 -5 154.37 8.89
-2 -5 -5 153.77 8.87
-2 -5 -5 149.99 8.88
-5 2 5 153.61 8.65
-5 2 5 152.9 8.65
5 -2 5 148.84 8.87
2 5 5 150.51 8.86
-2 -5 5 152.43 8.67
-5 3 -5 182.32 11.04
-5 3 -5 189.13 10.87
-3 -5 -5 197.18 10.92
-3 -5 -5 187.47 10.88
-3 -5 5 183.47 10.58
5 -3 5 191.22 10.87
-5 3 5 185.41 10.66
-5 3 5 182.72 10.66
3 5 5 191.5 10.86
-3 -5 5 191.57 10.59
-4 -5 -5 74.11 4.66
-4 -5 -5 72.91 4.6
-5 4 -5 68.84 4.68
-5 4 -5 73.65 4.65
4 5 5 69.7 4.61
-4 -5 5 77.84 4.29
-5 4 5 67.73 4.42
5 -4 5 68.47 4.62
-5 4 5 71.27 4.46
-4 -5 5 77 4.29
-5 -5 -5 14.71 1.81
-5 5 -5 17.2 1.88
-5 -5 -5 16.55 1.75
-5 5 -5 17.61 1.92
5 -5 5 15.98 1.81
5 5 5 17.43 1.84
-5 5 5 16.99 1.73
-5 -5 5 16.2 1.41
5 -5 5 16.88 2.05
-5 -5 5 17.8 1.4
-5 5 5 18.19 1.7
-5 6 -5 2.83 1.31
-6 -5 -5 4.71 1.23
-6 -5 -5 7.96 1.37
-5 6 -5 3.26 1.16
6 5 5 4.85 1.28
-6 -5 5 4.67 0.79
5 -6 5 3.21 1.24
5 -6 5 5.43 1.49
-5 6 5 3.6 1.16
-4 6 -5 12.08 1.55
-6 -4 -5 10.97 1.54
-6 -4 -5 8.45 1.38
4 -6 -5 8.54 1.3
-4 6 -5 10.07 1.48
-4 6 5 7.92 1.4
-6 -4 5 10.29 0.9
6 4 5 10.91 1.51
4 -6 5 16.58 1.93
4 -6 5 10.72 1.53
-6 -3 -5 8.41 1.37
-3 6 -5 8.43 1.27
-3 6 -5 8.98 1.44
3 -6 -5 7.35 1.2
-6 -3 -5 7.35 1.32
-6 -3 5 5.88 0.61
3 -6 5 6.2 1.24
6 3 5 6.61 1.26
-3 6 5 7.34 1.28
-6 -3 5 6.45 0.63
-6 -2 -5 70.82 4.44
-2 6 -5 66.96 4.55
2 -6 -5 67.61 4.33
-6 -2 -5 68.49 4.49
-2 6 -5 66.22 4.35
2 -6 5 71.77 4.36
6 2 5 64.16 4.37
-2 6 5 70.31 4.39
-6 -1 -5 40.09 2.94
1 -6 -5 38.96 2.78
-6 -1 -5 40.89 2.87
-1 6 -5 37.99 2.94
-1 6 5 38.81 2.83
-6 -1 5 36.25 2.25
6 1 5 34.81 2.7
1 -6 5 39.16 2.7
-6 0 -5 8.88 1.31
0 6 -5 9.16 1.32
0 -6 -5 7.21 0.86
-6 0 -5 6.26 1.19
0 -6 -5 8.68 1.27
0 6 5 7.45 1.3
6 0 5 8.45 1.3
-6 0 5 6.81 0.77
-6 0 5 6.87 0.73
0 -6 5 6.19 1.08
0 -6 5 7.4 1.12
-6 1 -5 2.55 1.11
-1 -6 -5 3.92 1.08
-1 -6 -5 4.63 0.78
-1 -6 5 2.77 0.88
1 6 5 2.42 1.07
-6 1 5 3.86 0.71
-1 -6 5 5.34 0.95
-6 1 5 2.62 0.7
6 -1 5 1.75 1.05
-6 2 -5 70.32 4.61
-2 -6 -5 73.79 4.66
-2 -6 -5 75.24 4.48
-6 2 -5 73.91 4.67
-2 -6 -5 68.88 4.55
-6 2 5 73.67 4.33
2 6 5 71.33 4.6
-2 -6 5 72.41 4.36
6 -2 5 70.52 4.6
-6 2 5 73.14 4.33
-2 -6 5 70.76 4.38
-6 3 -5 190.41 11.51
-3 -6 -5 195.57 11.31
-3 -6 -5 187.46 11.31
-6 3 -5 198.12 11.31
-3 -6 -5 198.24 11.31
-3 -6 5 198.15 11.05
3 6 5 190.22 11.28
-6 3 5 197.46 11.1
-6 3 5 197.28 11.08
6 -3 5 198.54 11.29
-6 4 -5 115.84 7.23
-4 -6 -5 113.72 7.09
-6 4 -5 116.61 7.11
-4 -6 -5 115.47 7.12
-4 -6 5 116.87 6.79
-6 4 5 116.6 6.94
4 6 5 120.23 7.1
6 -4 5 105.59 7.51
-4 -6 5 125.88 6.81
6 -4 5 115.27 7.11
-6 4 5 126.4 6.96
-6 5 -5 20.61 2.3
-6 5 -5 23.48 2.4
-5 -6 -5 22.81 2.26
-5 -6 -5 24.44 2.25
6 -5 5 23.11 2.25
6 -5 5 25.58 2.56
5 6 5 27.73 2.37
-6 5 5 28 2.24
-5 -6 5 27.81 1.93
-6 5 5 26.14 2.21
-5 -6 5 24.84 1.88
-6 -6 -5 2.02 1.2
-6 6 -5 -0.4 1.28
-6 -6 -5 -0.45 1.22
-6 6 -5 0.59 1.29
-6 -6 5 1.25 0.74
6 -6 5 2.04 1.53
6 6 5 1.92 1.23
-6 -6 5 1.58 0.78
-6 6 5 2.1 1.06
6 -6 5 1.9 1.26
-6 6 5 2.35 1.25
-6 7 -5 35.88 3.12
-7 -6 -5 36.82 2.93
-6 7 -5 39.03 3.08
-7 -6 -5 32.45 2.98
7 6 5 41.98 3.04
-6 7 5 32.82 2.89
6 -7 5 30.17 3.27
-7 -6 5 37.31 2.47
6 -7 5 31.55 2.84
-7 -5 -5 2.38 1.33
-7 -5 -5 2.72 1.32
-5 7 -5 2.31 1.31
-5 7 -5 3.09 1.38
5 -7 -5 4.49 1.17
-7 -5 5 1.21 0.71
-5 7 5 3.07 1.25
5 -7 5 2.31 1.19
7 5 5 2.27 1.19
5 -7 5 1.3 1.55
-7 -5 5 0.76 0.74
4 -7 -5 4.19 1.12
-4 7 -5 -0.28 1.12
-7 -4 -5 0.48 1.17
-4 7 -5 1.76 1.29
-7 -4 -5 1.93 1.16
-4 7 5 3.08 1.23
-7 -4 5 2.27 0.6
-7 -4 5 2.57 0.69
4 -7 5 0.42 0.66
4 -7 5 1.04 1.21
7 4 5 2.88 1.2
-7 -3 -5 17.36 1.93
-3 7 -5 17.11 1.82
3 -7 -5 14.1 1.71
-7 -3 -5 15.39 1.83
-3 7 -5 14.58 1.9
-3 7 5 17.31 1.88
3 -7 5 19.53 1.93
3 -7 5 16.84 1.98
-7 -3 5 16.8 1.22
-7 -3 5 15.6 1.25
7 3 5 20.37 1.94
2 -7 -5 15.64 1.71
-2 7 -5 17.91 1.96
-7 -2 -5 16.25 1.84
-2 7 -5 18.26 1.76
-7 -2 -5 20.21 1.94
-2 7 5 15.43 1.78
-7 -2 5 14.05 1.17
2 -7 5 17.74 1.97
2 -7 5 13.51 1.68
7 2 5 16.76 1.79
-7 -2 5 15.01 1.15
-1 7 -5 0.46 1.06
-7 -1 -5 -0.32 1.04
-1 7 -5 1.17 0.91
-7 -1 -5 1.77 1.11
1 -7 -5 0.46 0.93
1 -7 5 -0.19 0.96
7 1 5 -0.26 1.02
-1 7 5 -0.67 1.02
-7 -1 5 -0.19 0.32
-7 -1 5 0.63 0.53
-7 0 -5 7.73 1.4
0 7 -5 5.48 1.33
0 -7 -5 7.5 1.31
-7 0 5 8.09 0.89
0 7 5 6.74 1.39
0 -7 5 8.84 1.27
7 0 5 8.34 1.38
-7 0 5 8.84 0.87
0 -7 5 5.54 1.15
-7 1 -5 3.64 1.25
-1 -7 -5 3.43 1.21
-7 1 -5 5.45 1.22
-1 -7 -5 6.95 0.96
-7 1 5 5.59 0.88
-7 1 5 6.05 0.84
-1 -7 5 6.74 1.1
7 -1 5 8.95 1.39
1 7 5 7.66 1.38
-1 -7 5 5.74 1.09
-7 2 -5 57.32 4.03
-2 -7 -5 52.69 3.91
-7 2 -5 56.44 3.94
-2 -7 -5 53.66 3.69
2 7 5 57.33 3.92
-2 -7 5 63.32 3.72
-2 -7 5 60.22 3.71
-7 2 5 58.81 3.58
-7 2 5 59.92 3.61
7 -2 5 57.66 3.83
-7 2 5 53.91 3.56
-3 -7 -5 85.37 5.66
-7 3 -5 89.79 5.72
-7 3 -5 91.47 5.69
-3 -7 -5 87.63 5.67
-3 -7 -5 88.54 5.55
3 7 5 93.55 5.65
-7 3 5 75.53 5.33
-7 3 5 90.37 5.32
-7 3 5 98.77 5.4
-3 -7 5 92.14 5.39
7 -3 5 91.91 5.6
-3 -7 5 93.48 5.41
-4 -7 -5 66.02 4.31
-7 4 -5 62.98 4.15
-4 -7 -5 61.69 4.15
-4 -7 -5 60.72 4.07
-7 4 -5 58.81 4.2
7 -4 5 60.04 4.44
-7 4 5 61.63 3.99
-4 -7 5 60.92 3.88
7 -4 5 57.21 4.17
4 7 5 58.82 4.15
-7 4 5 66.47 3.99
-7 4 5 60.57 3.71
-5 -7 -5 4.75 1.31
-7 5 -5 3.15 1.46
-5 -7 -5 4.95 1.46
-7 5 -5 4.27 1.34
-7 5 5 3.84 1.17
-7 5 5 4.79 0.73
-5 -7 5 6.99 1.06
-5 -7 5 3.62 0.95
-7 5 5 6.74 1.32
7 -5 5 2.26 1.54
5 7 5 3.03 1.32
7 -5 5 3.19 1.37
-7 6 -5 15.65 2.15
-7 6 -5 18.94 2.25
-6 -7 -5 16.69 2.04
-6 -7 -5 17.74 2.2
6 7 5 22.47 2.16
-7 6 5 18.25 2.06
7 -6 5 19.87 2.46
-7 6 5 18.26 1.35
-6 -7 5 20.26 1.69
7 -6 5 20.57 2.22
-6 -7 5 19.44 1.73
-7 -7 -5 60.46 4.39
-7 -7 -5 63.57 4.43
-7 7 -5 59.82 4.43
-7 7 -5 64.9 4.59
-7 -7 5 60.21 3.9
7 7 5 63.53 4.33
-7 7 5 62.74 4.36
7 -7 5 61.05 4.37
7 -7 5 61.16 4.81
-7 8 -5 25.84 2.48
-8 -7 -5 17.96 2.14
7 -8 -5 18.44 2.45
-7 8 -5 16.64 2.25
-8 -7 -5 18.02 2.25
-7 8 5 11.84 2.04
7 -8 5 14.07 2.46
-8 -7 5 14.15 1.57
-8 -7 5 15.19 1.57
7 -8 5 15.39 2.14
-6 8 -5 23.41 2.61
-8 -6 -5 23.24 2.51
-6 8 -5 29.05 2.7
-8 -6 -5 24.21 2.62
6 -8 5 24.48 2.9
6 -8 5 24.53 2.6
-8 -6 5 25.32 2
-6 8 5 22.5 2.49
-8 -6 5 27.84 1.95
8 6 5 25.39 2.5
5 -8 -5 1.66 1.19
-5 8 -5 3.63 1.46
-8 -5 -5 3.6 1.47
-5 8 -5 1.42 1.34
-8 -5 -5 0.55 1.36
-8 -5 5 0.92 0.81
-5 8 5 -0.78 1.26
-8 -5 5 2.47 0.8
5 -8 5 2.79 1.42
8 5 5 2.29 1.29
5 -8 5 0.2 0.77
-8 -5 5 0.79 0.75
-4 8 -5 5.93 1.61
-8 -4 -5 8.06 1.63
-8 -4 -5 10.41 1.75
4 -8 -5 8.45 1.47
-4 8 -5 8.7 1.59
4 -8 5 9.54 1.56
8 4 5 9.38 1.59
-4 8 5 6.52 1.58
-8 -4 5 9.52 0.97
-8 -4 5 8.29 1.01
-8 -3 -5 59.4 4.18
-3 8 -5 55.28 3.94
3 -8 -5 59.15 3.96
-8 -3 -5 56.61 4.01
-3 8 -5 56.61 4.15
3 -8 5 58.93 4.01
-8 -3 5 56.67 3.39
-8 -3 5 53.51 3.36
3 -8 5 64.7 4.33
-3 8 5 55.93 3.99
8 3 5 53.58 3.93
-8 -2 -5 25.71 2.5
2 -8 -5 27.67 2.43
-8 -2 -5 24.14 2.46
-2 8 -5 28.68 2.41
-2 8 -5 25.92 2.55
-2 8 5 30.61 2.57
2 -8 5 24.62 2.4
-2 8 5 26.46 1.82
8 2 5 26.98 2.43
2 -8 5 28.68 2.75
-8 -2 5 26.02 1.77
-8 -2 5 25.88 1.8
-8 -1 -5 12.92 1.73
1 -8 -5 14.68 1.74
-1 8 -5 16.25 1.72
-1 8 -5 14.34 1.8
-8 -1 5 15.73 1.31
1 -8 5 11.24 1.66
-8 -1 5 14.82 1.21
8 1 5 16.58 1.86
-1 8 5 13.14 1.79
0 -8 -5 4.32 1.25
-8 0 -5 2.81 1.24
0 8 -5 1.84 1.26
0 -8 5 3.32 1.23
8 0 5 3.71 1.27
-8 0 5 2.01 0.76
0 -8 5 3.29 1.08
0 8 5 2.08 1.25
-8 0 5 1.17 0.61
-1 -8 -5 0.96 1.02
-8 1 -5 -0.21 1.06
-8 1 -5 1.1 1.2
1 8 5 2.2 1.17
-8 1 5 1.55 0.75
-1 -8 5 3.43 1.08
-8 1 5 1.61 0.84
-1 -8 5 1.63 0.98
8 -1 5 0.14 0.99
-8 1 5 1.44 0.94
-8 2 -5 7.4 1.54
-2 -8 -5 9.28 1.26
-2 -8 -5 5.86 1.37
-8 2 -5 7.66 1.57
-8 2 5 9.68 1.22
8 -2 5 9.65 1.56
2 8 5 6.32 1.5
-2 -8 5 9.57 1.33
-2 -8 5 7.42 1.28
-8 2 5 9.62 1.17
-3 -8 -5 14.39 1.84
-8 3 -5 13.75 1.94
-8 3 -5 15.81 1.98
-3 -8 -5 15.67 1.69
-3 -8 5 17.81 1.7
8 -3 5 16.17 1.92
8 -3 5 14.21 1.98
-8 3 5 16.34 1.48
3 8 5 15.68 1.86
-8 3 5 17.66 1.61
-4 -8 -5 3.09 1.2
-4 -8 -5 3.93 1.48
-8 4 -5 2.07 1.38
-8 4 -5 3.81 1.34
-4 -8 -5 4.92 1.35
-4 -8 5 0.06 0.49
-4 -8 5 2.09 1
-8 4 5 1.74 1.04
8 -4 5 2.43 1.33
-8 4 5 -0.71 0.9
4 8 5 5.02 1.39
8 -4 5 5.93 1.59
-8 4 5 3.39 0.8
-8 5 -5 3.22 1.36
-5 -8 -5 1.88 1.21
-5 -8 -5 0.86 1.34
-5 -8 -5 1.34 1.01
-5 -8 -5 0.29 1.22
-8 5 -5 0.34 1.39
-8 5 5 -0.09 1.09
-8 5 5 1.67 0.74
-8 5 5 0.16 1.21
5 8 5 0.75 1.27
-5 -8 5 1.52 1.01
8 -5 5 0.85 1.55
-5 -8 5 -0.31 0.3
8 -5 5 2.29 1.39
-6 -8 -5 26.07 2.56
-6 -8 -5 26.53 2.03
-6 -8 -5 28.27 2.62
-8 6 -5 27.84 2.66
-8 6 -5 24.87 2.6
8 -6 5 24.68 2.84
6 8 5 25.23 2.51
-6 -8 5 22.1 2.13
8 -6 5 24.93 2.62
-8 6 5 25.94 1.85
-8 6 5 29.55 2.59
-6 -8 5 24.83 2.13
-8 7 -5 8.11 1.9
-7 -8 -5 6.63 1.68
-8 7 -5 8.12 1.71
-7 -8 -5 9.65 1.86
-7 -8 5 8.5 1.34
8 -7 5 7.27 2.1
8 -7 5 5.91 1.69
-8 7 5 11.54 1.82
-7 -8 5 3 1.02
8 -8 -5 16.2 2.48
-8 -8 -5 21.16 2.34
-8 8 -5 15.4 2.24
-8 8 -5 20.32 2.39
-8 -8 -5 19.36 2.33
8 -8 5 15.03 2.45
8 -8 5 12.93 2.12
-8 8 5 12.3 2.16
-8 -8 5 10.95 1.58
-8 -8 5 16.73 1.58
-8 9 -5 6.25 1.71
8 -9 -5 6.25 2.03
-9 -8 -5 6.47 1.78
-9 -8 -5 8.25 1.88
-8 9 -5 6.79 1.78
-9 -8 5 7.22 1.33
8 -9 5 7.33 1.7
8 -9 5 6.08 2.14
-8 9 5 11.43 1.97
-9 -8 5 9.69 1.3
-7 9 -5 31.25 3.03
-9 -7 -5 28.7 2.88
-7 9 -5 31.26 2.98
-9 -7 -5 28.34 2.87
7 -9 -5 25.95 3.1
-7 9 5 30.35 2.89
7 -9 5 33.74 3.4
-9 -7 5 30.11 2.37
-9 -7 5 29.47 2.26
7 -9 5 27.97 2.9
6 -9 -5 9.86 2.15
-9 -6 -5 8.31 1.87
-6 9 -5 6.05 1.75
-9 -6 -5 10.64 1.9
-6 9 -5 9.14 1.85
6 -9 5 9.99 1.88
-9 -6 5 9.74 1.23
-9 -6 5 8.82 1.23
-6 9 5 7.08 1.78
6 -9 5 9.58 2.19
-9 -6 5 10.14 1.31
5 -9 -5 7.37 2.01
-5 9 -5 7.7 1.68
-9 -5 -5 7.1 1.69
-9 -5 -5 3.66 1.61
-5 9 -5 4.61 1.66
-5 9 5 2.78 1.55
-9 -5 5 5.87 0.97
5 -9 5 7 1.59
5 -9 5 5.53 1.86
-9 -5 5 5.73 1.04
-4 9 -5 14.27 1.95
4 -9 -5 16.38 1.94
-9 -4 -5 12.55 1.92
-9 -4 -5 12.21 1.96
-4 9 -5 12.99 2.06
4 -9 -5 14.21 2.19
9 4 5 15.08 1.97
4 -9 5 15.31 2.02
-9 -4 5 14.79 1.32
-9 -4 5 13.82 1.33
-4 9 5 13.48 1.87
4 -9 5 17.9 2.4
-9 -3 -5 53.18 4.33
-3 9 -5 61.52 4.31
-9 -3 -5 59.78 4.36
-3 9 -5 59.35 4.5
3 -9 -5 58.51 4.2
3 -9 -5 64.77 4.88
-9 -3 5 65.16 3.79
-9 -3 5 64.26 3.74
3 -9 5 64.13 4.37
9 3 5 65.81 4.35
-3 9 5 63.24 4.38
3 -9 5 64.07 4.64
-3 9 5 62.12 3.71
-2 9 -5 40.07 3.56
2 -9 -5 41.84 3.41
-2 9 -5 44.63 3.46
-9 -2 -5 44.34 3.48
-9 -2 5 45.76 2.94
2 -9 5 50.17 3.97
2 -9 5 44.78 3.5
-2 9 5 49.71 3.64
-2 9 5 50.61 3.01
9 2 5 52.42 3.58
-9 -2 5 50.43 2.98
1 -9 -5 17.76 2.07
-1 9 -5 16.05 2.15
-1 9 -5 19.28 1.99
-9 -1 -5 16.67 2.12
1 -9 5 16.99 2.02
-9 -1 5 17.4 1.52
-9 -1 5 17.34 1.49
-1 9 5 16.51 2.1
9 1 5 20.45 2.14
0 -9 -5 1 1.19
-9 0 -5 2.28 1.36
-9 0 -5 0.21 0.68
0 9 -5 0.22 1.31
9 0 5 -1.24 1.15
0 -9 5 0.18 1.14
-9 0 5 0.11 0.42
-9 0 5 1.63 0.86
0 9 5 2.15 1.35
-9 0 5 1.17 1.09
-9 1 -5 20.51 2.3
-1 -9 -5 21.63 2.32
-9 1 -5 19.82 2.16
-1 -9 -5 20.42 2.25
1 9 -5 22.45 2.35
-9 1 5 25.06 2.01
-9 1 5 17.42 1.73
9 -1 5 21.51 2.24
-9 1 5 20.65 1.76
1 9 5 18.96 2.13
-1 -9 5 16.42 1.99
-2 -9 -5 47.19 3.92
-9 2 -5 48.59 3.77
-2 -9 -5 57.04 3.94
-9 2 -5 53.19 3.97
9 -2 5 49.78 3.79
2 9 5 49.9 3.8
-9 2 5 51.9 3.38
-2 -9 5 50.66 3.63
-2 -9 5 51.23 3.65
-9 2 5 53.38 3.48
-9 3 -5 66.97 4.45
-9 3 -5 59.42 4.27
-3 -9 -5 59.48 4.14
-3 -9 -5 62.12 4.04
-3 -9 -5 58.72 4.31
9 -3 5 56.71 4.33
-3 -9 5 58.03 3.98
-3 -9 5 56.86 3.97
3 9 5 53.99 4.05
9 -3 5 58.75 4.11
-9 3 5 59.84 3.89
-9 4 -5 16.32 2.13
-9 4 -5 16.53 2.08
-4 -9 -5 15.44 1.85
-4 -9 -5 14.63 1.76
-4 -9 -5 14.88 2.07
-9 4 5 14.06 1.47
-4 -9 5 13.49 1.69
4 9 5 16.81 2.09
-9 4 5 14.93 1.77
9 -4 5 17.42 2.09
-9 4 5 17.47 1.76
9 -4 5 12.32 2.09
-4 -9 5 15.21 1.72
-5 -9 -5 -0.17 1.49
-9 5 -5 -1.43 1.25
-5 -9 -5 0.05 0.5
-5 -9 -5 0.55 1.46
-9 5 -5 2.78 1.52
-5 -9 -5 0.18 1.22
-5 -9 5 0.13 1.06
9 -5 5 1.35 1.44
-9 5 5 1.12 1.32
5 9 5 0.52 1.38
-9 5 5 0.37 0.82
-5 -9 5 2.22 1.13
9 -5 5 0.19 1.54
-6 -9 -5 5.22 1.73
-6 -9 -5 7.34 1.76
-9 6 -5 9.05 1.89
-6 -9 -5 9.12 1.66
-6 -9 -5 9 1.25
-9 6 -5 8.33 1.87
-6 -9 5 7.42 1.39
-6 -9 5 8.03 1.39
9 -6 5 7.32 1.81
9 -6 5 8.06 2.03
-9 6 5 11.07 1.73
-7 -9 -5 1.79 1.44
-7 -9 -5 2.32 1.6
-9 7 -5 0.45 1.51
-7 -9 -5 2.25 1.59
-9 7 -5 2.4 1.68
9 -7 -5 1.71 1.85
-9 7 5 3.88 1.51
-7 -9 5 3.77 1.17
9 -7 5 1.19 1.76
9 -7 5 4.54 1.66
9 -8 -5 6.35 2.09
-9 8 -5 5.05 1.7
-9 8 -5 2.51 1.69
-8 -9 -5 7.39 1.87
-8 -9 -5 7.22 1.75
9 -8 5 4.6 2.01
-9 8 5 5.06 1.62
9 -8 5 6.39 1.6
-8 -9 5 2.44 1.17
9 -9 -5 0.59 1.92
-9 9 -5 1.8 1.71
-9 -9 -5 1.67 1.59
-9 9 -5 3.05 1.66
-9 -9 -5 2.58 1.66
-9 9 5 2.28 1.71
9 -9 5 2.24 1.63
-9 -9 5 1.84 1.2
9 -9 5 2.33 1.96
-10 -9 -5 1.56 1.7
9 -10 -5 0.82 1.93
-10 -9 -5 -0.93 1.65
-9 10 -5 2.87 1.77
-9 10 -5 -0.67 1.53
-9 10 5 2.59 1.78
9 -10 5 1.37 1.99
-10 -9 5 1.63 1.21
-8 10 -5 1.38 1.54
8 -10 -5 -1.61 1.73
-10 -8 -5 0.2 1.56
-10 -8 -5 2.12 1.64
-8 10 -5 3.29 1.74
8 -10 5 -1.43 1.81
-10 -8 5 0.07 1.08
8 -10 5 -1.62 1.39
-8 10 5 -0.15 1.56
-10 -7 -5 2.6 1.58
-7 10 -5 0.76 1.52
-7 10 -5 1.04 1.56
-10 -7 -5 3.98 1.62
7 -10 -5 0.39 1.56
-7 10 5 1.61 1.56
7 -10 5 -1.91 1.42
-10 -7 5 2.11 0.98
-10 -7 5 1.85 1.04
7 -10 5 2.32 1.87
-6 10 -5 0.94 1.49
-10 -6 -5 1.82 1.52
6 -10 -5 0.81 1.66
-10 -6 -5 0.17 1.51
-6 10 -5 2.86 1.56
-10 -6 5 2.62 1.03
-6 10 5 3.28 1.56
-10 -6 5 2.85 0.93
6 -10 5 2.95 1.6
6 -10 5 3.09 1.62
-10 -6 5 2.58 1.03
5 -10 -5 9.75 2.21
-10 -5 -5 9.83 1.87
-10 -5 -5 9.56 1.85
-5 10 -5 9.62 1.95
5 -10 5 13.65 2.24
5 -10 5 11.32 2
-5 10 5 10.2 1.95
-10 -5 5 10.65 1.2
-10 -5 5 9.03 1.27
-10 -4 -5 13.69 2.12
-10 -4 -5 11.55 1.96
4 -10 -5 11.34 2.16
-4 10 -5 12.7 2.07
-10 -4 5 10.77 1.32
-10 -4 5 14.18 1.31
4 -10 5 12.54 2.31
-4 10 5 15.94 2.13
4 -10 5 11.22 2.01
-10 -3 -5 33.19 3.2
-3 10 -5 35.02 3.25
3 -10 -5 34.97 3.49
3 -10 -5 37.15 3.17
-10 -3 -5 34.42 3.13
-10 -3 5 33.7 2.51
3 -10 5 40.62 3.61
3 -10 5 37.52 3.18
-10 -3 5 38.67 2.45
-3 10 5 33.58 3.14
-10 -2 -5 32.35 2.88
2 -10 -5 25.37 2.67
-2 10 -5 27.8 2.86
2 -10 -5 25.79 2.93
-10 -2 -5 25.19 2.65
-2 10 5 23.86 2.69
-2 10 5 29.59 2.14
2 -10 5 29.23 3.06
2 -10 5 27.42 2.69
-10 -2 5 29.32 2.12
-10 -2 5 28.09 2.04
-10 -1 -5 6.74 1.75
1 -10 -5 6.39 1.84
-1 10 -5 4.29 1.68
1 -10 -5 11.58 1.77
-10 -1 -5 6.59 1.71
-10 -1 5 8.48 1.12
1 -10 5 8.39 1.67
-1 10 5 8.26 1.74
-10 -1 5 9.36 1.56
-10 -1 5 7.58 1.17
10 1 5 7.02 1.62
0 10 -5 7.46 1.73
0 -10 -5 4.65 1.47
-10 0 -5 5.06 1.65
0 -10 -5 7.55 1.82
-10 0 -5 6.06 1.67
0 -10 5 6.34 1.5
-10 0 5 3.61 1.11
-10 0 5 3.47 0.83
0 10 5 4.59 1.6
10 0 5 4.53 1.5
-10 0 5 4 1.34
-1 -10 -5 36.48 3.12
-1 -10 -5 33.68 3.06
-10 1 -5 38.26 3.16
1 10 -5 36.2 3.2
-10 1 -5 32.6 3.06
-10 1 5 33.45 2.49
1 10 5 31.7 2.97
-10 1 5 35.31 2.57
-1 -10 5 34.51 2.87
10 -1 5 32.35 2.97
-10 1 5 32.49 2.7
-10 2 -5 39.17 3.35
-2 -10 -5 37.49 3.35
-2 -10 -5 36.41 3.24
-10 2 -5 41.25 3.5
10 -2 5 36.44 3.26
-10 2 5 42.62 2.92
2 10 5 42.82 3.36
-10 2 5 40.57 2.86
-10 2 5 39.34 2.98
-2 -10 5 41.54 3.17
-10 3 -5 21.44 2.47
-3 -10 -5 22.96 2.33
-3 -10 -5 27.54 2.7
-10 3 -5 19.85 2.58
-10 3 5 26.9 2.11
10 -3 5 22.14 2.44
-10 3 5 24.99 2.2
10 -3 5 22.42 2.54
3 10 5 21.52 2.42
-10 3 5 26.35 2.18
-3 -10 5 20.03 2.25
-10 4 -5 7.8 1.82
-4 -10 -5 6.06 1.43
-10 4 -5 3.5 1.54
-4 -10 -5 4.83 1.68
4 10 5 8.15 1.74
-10 4 5 6.27 1.51
10 -4 5 6.73 1.57
-4 -10 5 2.4 1.36
-10 4 5 5.74 1.16
10 -4 5 7.91 1.8
-5 -10 -5 -1.4 1.24
-5 -10 -5 -0.81 1.08
-10 5 -5 -0.72 1.51
-5 -10 -5 -1.51 1.26
-10 5 -5 -1.65 1.36
-10 5 5 0.99 0.56
10 -5 5 -0.81 1.5
-5 -10 5 -0.88 1.1
10 -5 5 1.28 1.35
-10 5 5 0.25 1.27
10 -6 -5 2.21 1.81
-6 -10 -5 0.8 1.61
-6 -10 -5 -0.1 1.28
-10 6 -5 2.05 1.51
-6 -10 -5 -1.93 1.4
-10 6 -5 2.56 1.66
-6 -10 5 2.53 1.23
-10 6 5 1.66 1.34
10 -6 5 2.64 1.85
10 -6 5 1.87 1.51
10 -7 -5 3.02 1.94
-7 -10 -5 5.06 1.76
-10 7 -5 5.95 1.83
-7 -10 -5 3.49 1.58
-7 -10 -5 7 1.86
-10 7 -5 7.61 1.74
10 -7 5 5.51 1.96
-10 7 5 3.56 1.54
-7 -10 5 5.2 1.26
-8 -10 -5 -1.87 1.53
-8 -10 -5 -1.03 1.53
-10 8 -5 0.65 1.55
-8 -10 -5 -2.59 1.45
10 -8 -5 1.56 1.87
-10 8 -5 1.99 1.57
-8 -10 5 -0.71 1.11
10 -8 5 2.53 1.89
-10 8 5 0.33 1.46
-10 9 -5 2.38 1.65
-10 9 -5 0.37 1.78
-9 -10 -5 -0.23 1.6
-9 -10 -5 1.55 1.64
-9 -10 -5 -2.2 1.48
10 -9 -5 2.6 2.01
-10 9 5 -1.92 1.5
-9 -10 5 -0.32 1.14
10 -9 5 -0.18 1.87
-10 -10 -5 1.78 1.71
10 -10 -5 -0.51 2.09
-10 10 -5 1.98 1.67
-10 -10 -5 0.66 1.72
10 -10 5 -0.14 2.03
-10 -10 5 -0.08 1.28
-10 10 5 -3.06 1.64
-10 11 -5 -0.83 1.72
-11 -10 -5 -0.51 1.77
10 -11 -5 -0.97 2.16
-11 -10 -5 2.86 1.85
-11 -10 5 0.26 1.3
10 -11 5 -0.21 2.06
-10 11 5 2.24 1.95
-9 11 -5 7.11 1.96
9 -11 -5 4.25 2.28
-11 -9 -5 3.64 1.98
-11 -9 -5 5.53 1.99
-9 11 5 3.43 1.9
-11 -9 5 2.14 1.35
9 -11 5 7.49 2.25
-8 11 -5 5.22 1.8
-11 -8 -5 0.89 1.79
8 -11 -5 3.11 2.06
-11 -8 -5 2.29 1.76
8 -11 5 3.13 2.09
-11 -8 5 1.78 1.23
8 -11 5 2.4 1.7
-8 11 5 3.64 1.8
-11 -7 -5 2.39 1.73
-7 11 -5 1.51 1.58
7 -11 -5 3.16 1.97
-11 -7 -5 2.43 1.65
-7 11 5 1.6 1.67
7 -11 5 1.7 1.74
7 -11 5 6.02 1.81
-11 -7 5 2.71 1.2
-11 -7 5 1.46 1.1
6 -11 -5 3.97 1.96
-11 -6 -5 1.96 1.7
-11 -6 -5 3.35 1.6
-6 11 -5 -0.28 1.51
-6 11 5 1.04 1.57
-11 -6 5 1.92 0.97
6 -11 5 2.1 1.8
-11 -6 5 1.45 1.06
6 -11 5 3.49 1.7
-11 -5 -5 -0.34 1.38
-11 -5 -5 1.93 1.56
-5 11 -5 1.32 1.51
5 -11 -5 0.11 1.78
5 -11 5 -0.34 1.7
5 -11 5 -0.14 1.34
-11 -5 5 2.17 0.9
-5 11 5 1.12 1.57
-11 -5 5 1.39 0.97
4 -11 -5 -0.82 1.68
-11 -4 -5 1.27 1.56
-11 -4 -5 0.75 1.45
-4 11 -5 2.07 1.57
4 -11 5 3.86 1.59
-11 -4 5 0.52 0.84
-11 -4 5 0.32 0.9
-4 11 5 1.92 1.54
4 -11 5 -2.17 1.65
3 -11 -5 5.64 1.98
-11 -3 -5 6.44 1.68
-3 11 -5 7.45 1.77
-11 -3 -5 4.38 1.68
-3 11 5 8.14 1.67
-11 -3 5 6.2 1.06
3 -11 5 6.09 1.94
-11 -3 5 5.76 1.13
3 -11 5 6.28 1.71
2 -11 -5 6.23 1.61
-11 -2 -5 4.05 1.46
2 -11 -5 3.83 1.82
-2 11 -5 4.94 1.72
-11 -2 -5 4.28 1.72
2 -11 5 3.16 1.58
-11 -2 5 5.07 1.08
-11 -2 5 6.59 1.06
2 -11 5 4.2 1.9
-2 11 5 3.06 1.59
1 -11 -5 0.53 1.6
-1 11 -5 1.15 1.58
-11 -1 -5 0.59 1.5
1 -11 -5 2.06 1.45
-11 -1 -5 1.01 1.55
1 -11 5 1.79 1.41
-11 -1 5 1.16 0.94
-11 -1 5 1.63 1.23
-11 -1 5 0.16 0.97
1 -11 5 0.75 1.61
-1 11 5 -1.3 1.42
0 11 -5 1.01 1.54
0 -11 -5 -0.58 1.46
-11 0 -5 -0.23 1.31
0 -11 -5 0.49 1.43
-11 0 -5 0.79 1.51
-11 0 5 0.14 1
0 11 5 1.47 1.54
-11 0 5 1.67 1.18
-11 0 5 1.41 0.99
0 -11 5 1.64 1.42
1 11 -5 21 2.51
-11 1 -5 23.68 2.52
-11 1 -5 24.85 2.55
-1 -11 -5 18.86 2.42
-1 -11 -5 20.7 2.37
-11 1 5 19.73 1.95
-1 -11 5 16.38 2.2
-11 1 5 19.12 2.08
1 11 5 17.56 2.38
-2 -11 -5 22.54 2.47
-2 -11 -5 23.86 2.62
-11 2 -5 23.35 2.58
-11 2 -5 20.64 2.55
-2 -11 5 24.04 2.41
-11 2 5 19.1 1.98
2 11 5 20.58 2.46
-11 2 5 22.3 2.13
-11 3 -5 5.81 1.74
-3 -11 -5 7.52 1.78
-3 -11 -5 6.34 1.56
-11 3 -5 3.55 1.67
11 -3 5 6.02 1.71
-3 -11 5 2.37 1.45
3 11 5 6.77 1.71
-11 3 5 3.27 1.26
-11 3 5 4.07 1.21
-4 -11 -5 0.72 1.26
-11 4 -5 -0.03 1.48
-11 4 -5 -2.73 1.45
-4 -11 -5 -1.02 1.39
11 -4 5 2.01 1.64
-4 -11 5 0.57 1.3
-11 4 5 1.48 1.24
-11 4 5 0.3 1
-11 5 -5 9.58 1.95
11 -5 -5 11.93 2.18
-5 -11 -5 10.06 1.97
-5 -11 -5 10.57 1.53
-11 5 -5 7.77 1.93
-11 5 5 10.72 1.76
-11 5 5 9.34 1.35
-5 -11 5 7.67 1.66
11 -5 5 10.37 2.09
-6 -11 -5 23.41 2.65
-6 -11 -5 19.24 2.41
11 -6 -5 24.8 2.96
-11 6 -5 20.93 2.58
-11 6 -5 20.5 2.63
11 -6 5 21.37 2.73
-6 -11 5 18.26 2.19
-11 6 5 25.12 2.54
-11 7 -5 11.79 2.27
-11 7 -5 13.33 2.19
-7 -11 -5 13.19 2.25
11 -7 -5 15.23 2.6
-7 -11 -5 10.63 2.06
11 -7 5 14.96 2.47
-7 -11 5 14.46 1.92
-11 7 5 12.63 2.18
11 -8 -5 5.48 2.21
-8 -11 -5 0.46 1.62
-8 -11 -5 4.65 1.92
-11 8 -5 4.67 1.92
-8 -11 -5 4.77 1.86
-11 8 -5 1.13 1.68
-8 -11 5 4.42 1.39
11 -8 5 5.26 2.09
-11 8 5 5.86 1.8
-11 9 -5 1.61 1.95
-9 -11 -5 0.39 1.76
-9 -11 -5 -0.43 1.65
11 -9 -5 4.21 2.05
-11 9 -5 -0.81 1.55
-9 -11 -5 -1.85 1.56
-9 -11 5 0.99 1.32
11 -9 5 -1.62 1.89
-11 9 5 0.2 1.71
-10 -11 -5 -2.53 1.56
11 -10 -5 -1.88 2.16
-11 10 -5 1.47 1.67
-10 -11 -5 0.2 1.75
-10 -11 -5 0.82 1.78
11 -10 5 0.18 2.05
-10 -11 5 1.22 1.34
-11 10 5 0 1.84
-11 -11 -5 0.88 1.82
-11 11 -5 -0.25 1.8
11 -11 -5 1.15 2.13
-11 -11 -5 3.9 1.98
-11 -11 -5 -0.69 1.84
-11 -11 5 -1.82 1.33
-11 11 5 -0.5 1.87
11 -11 5 0.36 2.18
-12 -11 -5 0.12 1.89
-11 12 -5 -0.83 1.88
-12 -11 -5 1.54 1.9
11 -12 -5 -1.53 2.34
-12 -11 -5 -2.31 1.86
-11 12 5 -3.69 1.77
11 -12 5 -1.83 2.23
-12 -11 5 -0.9 1.33
10 -12 -5 4.58 2.29
-10 12 -5 4.45 2
-12 -10 -5 5.56 2.07
-12 -10 -5 2.57 1.95
-12 -10 5 2.25 1.45
-10 12 5 3.4 2.05
10 -12 5 2.04 2.29
9 -12 -5 8.79 2.62
-12 -9 -5 9.86 2.32
-9 12 -5 10.59 2.21
-12 -9 -5 8.4 2.27
9 -12 5 11.06 2.51
-12 -9 5 7.86 1.63
-9 12 5 8.19 2.25
-8 12 -5 11.64 2.16
8 -12 -5 8.31 2.4
-12 -8 -5 8.35 2.07
-12 -8 -5 8.84 2.1
8 -12 5 5.87 2.09
-8 12 5 6.89 2.18
8 -12 5 9.35 2.43
-12 -8 5 8.69 1.54
7 -12 -5 12.35 2.73
-12 -7 -5 10.44 2.1
-7 12 -5 12.52 2.15
-12 -7 -5 10.82 2.32
-12 -7 5 9.37 1.55
-7 12 5 12.4 2.29
-12 -7 5 12.98 1.64
7 -12 5 12.38 2.39
7 -12 5 9.75 2.25
-12 -6 -5 0.83 1.67
-12 -6 -5 1.47 1.71
6 -12 -5 -0.56 1.82
-6 12 -5 2.32 1.67
6 -12 5 4.08 1.82
-12 -6 5 1.46 1.2
-6 12 5 1.6 1.72
6 -12 5 0.1 1.87
-12 -5 -5 6.65 1.81
-5 12 -5 5.98 1.85
-12 -5 -5 7.96 2.01
5 -12 -5 6.94 2.13
-5 12 5 4.63 1.87
5 -12 5 7.61 1.89
-12 -5 5 6.73 1.22
5 -12 5 6.35 2.02
-12 -5 5 7.44 1.32
-12 -4 -5 13.92 2.31
-12 -4 -5 16.35 2.32
4 -12 -5 17.52 2.71
-4 12 -5 14.21 2.26
4 -12 5 19.05 2.69
4 -12 5 14.82 2.28
-12 -4 5 18.73 1.66
-12 -4 5 16.53 1.66
-4 12 5 16.66 2.39
-12 -3 -5 1.7 1.6
3 -12 -5 6.26 2.06
-3 12 -5 4.53 1.74
-12 -3 -5 6.24 1.61
-12 -3 5 5.23 1.09
3 -12 5 4.5 1.92
3 -12 5 5.99 1.76
-12 -3 5 4.75 1.16
-3 12 5 7.19 1.79
-2 12 -5 -0.52 1.52
-12 -2 -5 -0.32 1.33
2 -12 -5 0.9 1.7
-12 -2 -5 0.32 1.62
2 -12 5 2.82 1.75
-12 -2 5 0.9 1.33
-12 -2 5 -0.36 0.97
-2 12 5 -1.23 1.43
2 -12 5 1.32 1.49
-12 -2 5 -0.58 0.89
-12 -1 -5 3.91 1.64
-12 -1 -5 3.66 1.56
1 -12 -5 1.55 1.65
1 -12 -5 1.75 1.43
-1 12 -5 0.04 1.47
-12 -1 5 2.23 1.28
-12 -1 5 1.98 1.01
-12 -1 5 -2.03 0.99
1 -12 5 -0.01 1.42
-1 12 5 0.38 1.51
-12 0 -5 0.78 1.51
-12 0 -5 -0.52 1.48
0 12 -5 2.19 1.6
0 -12 -5 1.83 1.36
0 -12 -5 1.51 1.57
0 12 5 1.37 1.52
-12 0 5 0.35 1.07
0 -12 5 -0.9 1.35
-12 0 5 0.74 1.01
-12 0 5 1.81 1.3
-12 1 -5 8.05 1.9
1 12 -5 7.26 1.89
-1 -12 -5 9.73 1.94
-12 1 -5 8.11 1.89
-1 -12 -5 10.52 2
-12 1 5 7.83 1.58
-1 -12 5 10.26 1.76
1 12 5 7.96 1.87
-12 1 5 7.23 1.39
-12 2 -5 4.64 1.74
-2 -12 -5 2.22 1.58
-12 2 -5 0.68 1.55
-2 -12 -5 3.24 1.55
-12 2 5 2.34 1.23
2 12 5 5.3 1.75
-2 -12 5 3.02 1.47
-12 2 5 3.25 1.21
-12 3 -5 0.95 1.57
-3 -12 -5 1.52 1.48
-12 3 -5 1.72 1.44
-3 -12 -5 2.37 1.63
12 -3 5 2.45 1.48
-3 -12 5 2.08 1.46
-12 3 5 0.67 1.11
-12 3 5 1.66 1.15
12 -4 -5 1.66 1.64
-4 -12 -5 2.23 1.67
-4 -12 -5 2.78 1.34
-12 4 -5 -2.67 1.48
-12 4 -5 -0.24 1.36
-12 4 5 -2.49 1.25
-12 4 5 -0.1 1.12
-4 -12 5 1.33 1.32
12 -4 5 0.12 1.57
-5 -12 -5 10.69 2.14
12 -5 -5 7.57 2.19
-12 5 -5 9.16 2.07
-12 5 -5 7.33 2
12 -5 5 11.64 2.18
-12 5 5 9.21 1.81
-5 -12 5 12.18 1.93
-6 -12 -5 18.99 2.64
-12 6 -5 22.11 2.78
12 -6 -5 20.11 2.92
-12 6 -5 20.02 2.58
-6 -12 5 18.72 2.32
-12 6 5 18.84 2.38
12 -6 5 20.51 2.73
-12 7 -5 11.98 2.23
-12 7 -5 14.51 2.49
12 -7 -5 12.69 2.6
-7 -12 -5 14.01 2.35
-7 -12 5 16.61 2.12
-12 7 5 11.92 2.13
12 -7 5 12.85 2.47
-12 8 -5 -0.28 1.78
-8 -12 -5 3.13 1.83
12 -8 -5 7.33 2.41
-12 8 -5 4.75 1.96
-8 -12 5 2.6 1.49
-12 8 5 4.38 1.8
12 -8 5 3.62 2.09
-9 -12 -5 0.77 1.7
-9 -12 -5 1.18 1.84
-12 9 -5 2.12 2
-12 9 -5 -0.14 1.63
12 -9 -5 0.52 2.23
-9 -12 5 1.53 1.45
-12 9 5 -0.57 1.69
12 -9 5 3.22 2.08
-10 -12 -5 3.66 1.94
-10 -12 -5 0.12 1.8
-12 10 -5 1.5 1.81
12 -10 -5 2.26 2.42
-10 -12 -5 4.76 2.11
12 -10 5 1.17 2.16
-10 -12 5 5.36 1.63
-12 10 5 3.82 2.05
-11 -12 -5 1.51 1.99
-11 -12 -5 4.19 2.14
-12 11 -5 2.46 1.85
12 -11 -5 4.11 2.53
-11 -12 -5 5.07 2.21
12 -11 5 1.47 2.38
-12 11 5 5.52 2.28
-11 -12 5 3.27 1.59
-12 -12 -5 1.7 2.04
-12 -12 -5 2.38 2.07
-12 -12 -5 -0.3 1.99
12 -12 -5 2.88 2.67
-12 12 -5 0.52 1.98
-12 -12 5 1.17 1.56
12 -12 5 -0.32 2.4
-12 12 5 4.2 2.2
-13 -12 -5 -1.52 1.97
-12 13 -5 1.43 1.88
-13 -12 -5 -1.49 2.03
-13 -12 -5 -0.09 1.96
12 -13 -5 0.33 2.66
-12 13 5 1.28 2.16
-13 -12 5 0.65 1.58
12 -13 5 -2.22 2.42
-13 -11 -5 -0.81 1.99
-13 -11 -5 2.04 2.15
-11 13 -5 2.72 1.96
-13 -11 -5 2.55 2.24
11 -13 -5 2.18 2.57
-13 -11 5 1.09 1.48
11 -13 5 2.27 2.5
-11 13 5 1.27 2.22
-13 -10 -5 5.73 2.21
10 -13 -5 4.89 2.66
-10 13 -5 -0.19 1.87
-13 -10 -5 5.44 2.2
-13 -10 5 2.3 1.48
-10 13 5 3.49 2.13
10 -13 5 3.02 2.43
-13 -9 -5 7.06 2.13
-9 13 -5 5.06 2.04
9 -13 -5 5.86 2.61
-13 -9 -5 1.77 2.07
9 -13 5 4.38 2.34
-13 -9 5 3.48 1.47
-9 13 5 2 2.02
-13 -8 -5 6.33 2.19
-13 -8 -5 10.19 2.27
-8 13 -5 6.89 2.18
8 -13 -5 7.16 2.47
-13 -8 5 7.61 1.58
-8 13 5 7.65 2.21
8 -13 5 3.22 2.33
-13 -7 -5 3.72 1.97
7 -13 -5 6.2 2.44
-13 -7 -5 5.53 2
-7 13 -5 5.52 1.99
-13 -7 5 4.26 1.38
-7 13 5 5.13 2.1
7 -13 5 1.58 1.97
-13 -7 5 3.96 1.37
7 -13 5 4.13 2.21
-13 -6 -5 1.56 1.86
6 -13 -5 3.72 2.24
-13 -6 -5 2.79 1.86
-6 13 -5 -0.18 1.62
6 -13 5 -1.07 2.03
-6 13 5 0.27 1.78
-13 -6 5 -0.36 1.21
6 -13 5 -1.86 1.53
-13 -5 -5 16.76 2.4
5 -13 -5 19.63 2.97
-13 -5 -5 17.05 2.46
-5 13 -5 17.26 2.51
5 -13 5 13.46 2.38
-5 13 5 12.77 2.41
5 -13 5 10.6 2.55
-13 -5 5 13.4 1.7
-13 -4 -5 26.84 2.97
4 -13 -5 26.48 3.28
-4 13 -5 22.2 2.74
-13 -4 -5 24.88 2.81
4 -13 5 25.29 3.14
-13 -4 5 20.72 2.06
4 -13 5 24.23 2.81
-4 13 5 20.99 2.76
-13 -3 -5 7.97 1.92
-13 -3 -5 6.83 1.99
-3 13 -5 6.28 1.95
3 -13 -5 7.14 2.19
3 -13 5 10.74 2.03
3 -13 5 3.44 2
-13 -3 5 7.53 1.39
-3 13 5 8.72 2
-13 -2 -5 -1.1 1.4
-2 13 -5 2.66 1.72
2 -13 -5 2.69 1.88
-13 -2 -5 -2.28 1.68
-2 13 5 3.25 1.69
2 -13 5 -0.44 1.71
2 -13 5 1.12 1.6
-13 -2 5 0.29 1.07
-13 -2 5 -2.21 1.29
1 -13 -5 1.49 1.76
-1 13 -5 4.64 1.73
-13 -1 -5 1.4 1.74
-13 -1 -5 0.19 1.7
-1 13 5 3.03 1.72
-13 -1 5 0.97 1.38
1 -13 5 3.09 1.68
-13 -1 5 1.98 1.21
-13 0 -5 2.48 1.7
-13 0 -5 3.99 1.83
0 13 -5 4.45 1.81
0 -13 -5 2.23 1.7
0 -13 -5 5.19 1.81
0 -13 5 0.8 1.52
-13 0 5 2.07 1.48
-13 0 5 3.73 1.31
0 13 5 3.3 1.77
-13 1 -5 0.16 1.58
-1 -13 -5 1.15 1.6
-13 1 -5 1.16 1.64
-1 -13 -5 -1.2 1.58
1 13 -5 1.11 1.67
-1 -13 5 -0.62 1.42
-13 1 5 0.69 1.14
-13 1 5 0.13 1.29
-13 2 -5 0.76 1.65
-2 -13 -5 1.68 1.57
2 13 -5 -1.74 1.54
-13 2 -5 -0.28 1.59
-2 -13 -5 2.37 1.59
13 -2 -5 2.75 1.56
-13 2 5 2.15 1.3
-13 2 5 1 1.24
-2 -13 5 1.76 1.59
13 -3 -5 0.72 1.7
-13 3 -5 -0.82 1.65
-3 -13 -5 -1.12 1.47
-3 -13 -5 1.99 1.65
-13 3 -5 -2.64 1.33
13 -3 5 1.31 1.59
-13 3 5 2.67 1.29
-13 3 5 -0.04 1.18
-3 -13 5 -0.25 1.52
13 -4 -5 1.47 1.91
-13 4 -5 -2.14 1.62
-4 -13 -5 1.96 1.43
-13 4 -5 0.38 1.71
-4 -13 -5 -0.34 1.59
-4 -13 5 -0.2 1.38
-13 4 5 -1.42 1.12
13 -4 5 -0.27 1.59
-13 4 5 -0.48 1.41
-13 5 -5 8.73 2.12
-13 5 -5 4.84 1.87
-5 -13 -5 2.76 1.87
13 -5 -5 6.57 2.11
-13 5 5 5.46 1.7
13 -5 5 9.74 2.05
-5 -13 5 4.17 1.73
-13 6 -5 11.87 2.28
-6 -13 -5 10.33 2.28
13 -6 -5 12.22 2.52
-13 6 -5 9.67 2.29
13 -6 5 11.66 2.35
-13 6 5 9.97 2.1
-6 -13 5 13.29 2.1
-13 7 -5 10.37 2.32
13 -7 -5 10.28 2.56
-7 -13 -5 5.99 2.12
-13 7 -5 7.33 2.07
13 -7 5 9.3 2.33
-13 7 5 6.84 1.95
-7 -13 5 7.69 1.86
-8 -13 -5 0.72 1.82
13 -8 -5 -0.65 2.19
-13 8 -5 -1.17 1.72
-13 8 -5 -0.29 1.89
13 -8 5 0.92 2.01
-13 8 5 -0.88 1.72
-8 -13 5 0.57 1.59
-9 -13 -5 2.59 1.98
13 -9 -5 2.42 2.4
-13 9 -5 0.06 1.75
-13 9 -5 0.75 1.89
13 -9 5 1.07 2.12
-13 9 5 0.45 1.82
-9 -13 5 -0.61 1.45
13 -10 -5 3.44 2.6
-13 10 -5 5.49 2.03
-10 -13 -5 4.1 2.13
-10 -13 5 6.02 1.79
13 -10 5 8.38 2.6
-13 10 5 3.8 2.01
-11 -13 -5 4.87 2.27
13 -11 -5 5.71 2.61
-13 11 -5 5.11 2.21
-11 -13 5 6.55 1.84
-13 11 5 8.63 2.33
13 -11 5 8.67 2.69
-13 12 -5 0.83 2.03
13 -12 -5 2.6 2.66
-12 -13 -5 -1.49 2.17
-12 -13 5 2.28 1.69
-13 12 5 2.89 2.19
13 -12 5 1.5 2.58
10 -14 -5 -0.04 2.52
-14 -10 -5 1.15 2.09
-10 14 -5 -2.89 1.85
-14 -10 -5 -3.2 1.98
-10 14 5 -4.07 1.92
-14 -10 5 0.11 1.51
10 -14 5 0.83 2.44
9 -14 -5 0.14 2.39
-9 14 -5 -2.68 1.88
-14 -9 -5 -1.77 1.81
-14 -9 -5 -2.03 1.91
-9 14 5 2.37 2.23
9 -14 5 -3.44 2.13
-14 -9 5 -0.2 1.4
-14 -8 -5 2.55 1.91
-14 -8 -5 -1.13 1.87
-8 14 -5 2.58 1.9
8 -14 -5 6.2 2.41
-14 -8 5 0.56 1.34
-8 14 5 2.1 2.09
8 -14 5 4.98 2.33
7 -14 -5 1.92 2.36
-14 -7 -5 0.26 1.82
-7 14 -5 -2.18 1.84
-14 -7 -5 2.87 1.86
7 -14 5 0.37 2.1
7 -14 5 4 1.99
-7 14 5 0.05 1.96
-14 -7 5 1.13 1.32
6 -14 -5 1.49 2.25
-14 -6 -5 -2.96 1.67
-14 -6 -5 -0.72 1.8
-6 14 -5 1.83 1.79
-6 14 5 1.87 1.93
6 -14 5 0.95 1.72
6 -14 5 1.04 2.02
-14 -6 5 -0.31 1.26
-14 -5 -5 10.03 2.25
-14 -5 -5 7.44 2.06
5 -14 -5 9.2 2.61
-5 14 -5 9.47 2.15
-14 -5 5 5.24 1.44
5 -14 5 7.39 2.14
-5 14 5 9.67 2.27
5 -14 5 5.79 2.38
4 -14 -5 18.72 2.99
-14 -4 -5 13.64 2.48
-14 -4 -5 16.14 2.61
-4 14 -5 16.75 2.5
4 -14 5 15.79 2.76
-14 -4 5 16.33 1.85
4 -14 5 15.51 2.5
-4 14 5 13.36 2.47
-3 14 -5 7.26 2.07
-14 -3 -5 7.95 2.06
-14 -3 -5 8.15 2.19
3 -14 -5 14.86 2.59
-14 -3 5 8.22 1.47
3 -14 5 10.74 2.21
-3 14 5 6.19 1.97
3 -14 5 9.2 2.42
-14 -2 -5 -0.54 1.57
-14 -2 -5 3.2 1.87
-2 14 -5 1.67 1.86
2 -14 -5 2.31 2.03
-2 14 5 0.55 1.76
-14 -2 5 -0.68 1.44
-14 -2 5 3.24 1.27
2 -14 5 3.26 1.92
2 -14 5 1.44 1.69
-14 -1 -5 3.65 1.79
-14 -1 -5 2.18 1.79
-1 14 -5 3.77 1.85
1 -14 -5 4.12 1.99
-14 -1 5 5.04 1.56
1 -14 5 2.02 1.69
-14 -1 5 1.6 1.28
14 0 -5 4.07 1.72
0 -14 -5 4.83 1.93
-14 0 -5 6.76 2.03
-14 0 -5 5.1 2.02
0 14 -5 7.96 2.04
-14 0 5 2.25 1.57
-14 0 5 2.7 1.37
0 -14 5 4.89 1.8
14 -1 -5 3.81 1.76
1 14 -5 3.38 1.88
-1 -14 -5 6.66 1.97
-14 1 -5 5.08 2.04
-1 -14 -5 -0.08 1.72
-14 1 -5 9.39 2.07
-14 1 5 5.75 1.5
-1 -14 5 5.83 1.83
-14 1 5 4.84 1.63
-14 2 -5 4.62 1.93
-2 -14 -5 3.49 1.88
2 14 -5 1.31 1.83
-14 2 -5 2.55 1.84
14 -2 -5 6.25 1.84
-2 -14 -5 1.26 1.65
-14 2 5 3.54 1.48
-14 2 5 1.84 1.37
-2 -14 5 2.42 1.78
14 -3 -5 0.71 1.72
-3 -14 -5 -1.77 1.5
-14 3 -5 -1.44 1.71
-3 -14 -5 -1.12 1.5
-14 3 -5 -0.37 1.67
-14 3 5 1.79 1.27
-14 3 5 -0.26 1.39
-3 -14 5 -1.34 1.49
-14 4 -5 0.27 1.73
14 -4 -5 -3.53 1.79
-4 -14 -5 -0.59 1.7
-14 4 -5 1.26 1.76
-4 -14 5 -0.18 1.56
14 -4 5 4.5 1.79
-14 4 5 0.29 1.54
-5 -14 -5 -0.76 1.7
-14 5 -5 -1.37 1.69
-14 5 -5 0.4 1.85
14 -5 -5 2.77 2.01
14 -5 5 -0.86 1.74
-5 -14 5 0.66 1.65
-14 5 5 1.61 1.71
-6 -14 -5 -0.42 1.76
-14 6 -5 1.53 1.96
-14 6 -5 -2.53 1.64
14 -6 -5 1.31 2.06
14 -6 5 0.23 1.8
-14 6 5 -0.25 1.62
-6 -14 5 1.18 1.68
14 -7 -5 2.91 2.22
-14 7 -5 -0.48 1.91
-7 -14 -5 3.08 1.96
-14 7 -5 -1.56 1.84
14 -7 5 2.49 2.04
-14 7 5 0.94 1.77
-7 -14 5 -1.49 1.54
14 -8 -5 1 2.35
-14 8 -5 -1.17 1.92
-8 -14 -5 -0.38 1.87
-14 8 -5 1.05 1.85
-14 8 5 -1.7 1.8
-8 -14 5 1.3 1.8
14 -8 5 -3.75 1.83
-14 9 -5 2.64 2.14
14 -9 -5 -1.15 2.33
-9 -14 -5 3.4 2.1
-14 9 -5 -0.68 1.76
-9 -14 5 3.43 1.81
14 -9 5 1.12 2.16
-14 9 5 -2.12 1.8
-10 -14 -5 2.2 2.29
14 -10 -5 -1.64 2.53
-14 10 -5 1.55 2.04
-14 10 5 -0.21 1.98
-10 -14 5 4.06 1.76
14 -10 5 1.81 2.29
-15 -9 -5 2.62 2.21
-15 -9 -5 -4.31 1.89
-9 15 -5 0.34 1.95
9 -15 -5 -1.78 2.51
9 -15 5 0.87 2.39
-9 15 5 0.85 2.22
-15 -9 5 -0.39 1.45
-8 15 -5 -0.08 1.87
8 -15 -5 1.73 2.34
-15 -8 -5 -0.33 2.02
-15 -8 -5 0.22 2.01
-15 -8 5 -0.52 1.44
-8 15 5 -1.45 2.07
-15 -8 5 -1.1 1.39
8 -15 5 0.91 2.34
-15 -7 -5 -1.5 1.86
-15 -7 -5 3.33 1.98
7 -15 -5 -0.61 2.31
-7 15 -5 0.68 1.98
7 -15 5 3.23 2.42
-7 15 5 0.46 2.07
-15 -7 5 0.12 1.39
-6 15 -5 2.74 1.95
-15 -6 -5 -0.94 1.92
6 -15 -5 -1.16 2.29
-15 -6 -5 0.28 1.83
6 -15 5 -0.79 2.14
6 -15 5 0.55 1.94
-15 -6 5 0.53 1.35
-6 15 5 2.83 2.07
-15 -5 -5 1.44 1.8
-15 -5 -5 1.42 1.86
5 -15 -5 2.5 2.31
-5 15 -5 0.28 1.93
-5 15 5 -0.45 1.89
5 -15 5 -0.99 1.78
-15 -5 5 1.39 1.31
5 -15 5 2.74 2.19
-4 15 -5 3.05 2
-15 -4 -5 4.24 2.04
-15 -4 -5 5.06 2
4 -15 -5 2.87 2.21
-15 -4 5 2.37 1.35
4 -15 5 0.61 1.83
4 -15 5 6.12 2.34
-15 -3 -5 1.93 1.89
-3 15 -5 4.91 2.05
3 -15 -5 0.72 2.01
-15 -3 -5 -0.92 1.85
-15 -3 5 -0.65 1.3
3 -15 5 -0.26 1.75
3 -15 5 0.57 1.98
2 -15 -5 -0.19 1.93
-2 15 -5 1.07 1.89
-15 -2 -5 3.25 2.08
-15 -2 -5 -1.31 1.64
-15 -2 5 -1.31 1.51
2 -15 5 1.44 1.78
-15 -2 5 -2 1.3
2 -15 5 1.26 1.94
-1 15 -5 6.14 2.05
1 -15 -5 3.84 2.14
-15 -1 -5 7.44 2.22
-15 -1 -5 5.4 1.99
-15 -1 5 4.22 1.71
1 -15 5 7.88 2.07
-15 -1 5 4.35 1.53
-15 0 -5 7.87 2.09
0 -15 -5 6.8 2.13
-15 0 -5 9.03 2.33
0 15 -5 6.57 2.06
-15 0 5 6.11 1.83
0 -15 5 6.93 2.08
-15 0 5 5.42 1.59
-1 -15 -5 11.69 2.24
-15 1 -5 8.5 2.23
1 15 -5 10.57 2.36
-15 1 -5 9.11 2.34
15 -1 -5 11.58 2.13
-15 1 5 9.11 1.91
-1 -15 5 9.4 2.15
-15 1 5 7.4 1.65
-15 2 -5 0.53 1.89
15 -2 -5 1.32 1.93
-15 2 -5 0.97 1.88
2 15 -5 5.27 2.11
-2 -15 -5 2.28 1.76
-2 -15 -5 3.98 2.02
-2 -15 5 -0.01 1.68
-15 2 5 2.54 1.52
-15 2 5 4.36 1.59
15 -3 -5 -1.58 1.78
-15 3 -5 -0.57 1.75
-15 3 -5 -0.83 1.95
3 15 -5 -0.03 1.86
-3 -15 -5 0.18 1.9
-15 3 5 1.25 1.39
-3 -15 5 -1.36 1.72
-15 4 -5 3.63 1.97
15 -4 -5 1.75 2.07
-15 4 -5 1.23 1.89
-4 -15 -5 2.94 1.84
-4 -15 5 2.46 1.76
15 -4 5 5.41 1.86
-15 4 5 3.73 1.76
-15 5 -5 1.76 1.96
-5 -15 -5 1.95 1.96
15 -5 -5 4.75 2.18
-15 5 -5 3.43 2.08
-5 -15 5 3.39 1.89
-15 5 5 4.92 1.86
15 -5 5 4.87 2.05
-6 -15 -5 1.53 2.02
-15 6 -5 -1.37 1.78
-15 6 -5 5.91 2.24
15 -6 -5 1.6 2.2
15 -6 5 1.53 2
-15 6 5 0.24 1.75
-6 -15 5 3.58 1.9
-15 7 -5 -1.84 2.07
-7 -15 -5 -0.15 1.89
15 -7 -5 3.27 2.34
-15 7 -5 0.31 2.03
15 -7 5 1.38 2.12
-15 7 5 3.69 1.96
-7 -15 5 2.9 1.84
-8 -15 -5 2.88 2.15
-15 8 -5 -2.49 1.86
15 -8 -5 0.27 2.54
-15 8 -5 -1.36 2.06
15 -8 5 -0.11 2.19
-8 -15 5 1.38 1.81
-15 8 5 -0.68 1.74
-9 -15 -5 -0.05 2.08
-15 9 -5 -0.9 2.17
-15 9 -5 -2.84 1.92
15 -9 -5 2.89 2.63
-9 -15 5 -1.01 1.75
-15 9 5 2.15 2.12
15 -9 5 3.36 2.32
7 -16 -5 3.12 2.65
-16 -7 -5 -1.51 1.96
-7 16 -5 -0.66 2.04
-16 -7 -5 -1.06 2.02
-16 -7 5 -1.87 1.46
7 -16 5 -0.5 2.43
6 -16 -5 1.61 2.52
-6 16 -5 -0.61 1.98
-16 -6 -5 -0.85 1.9
-16 -6 -5 -0.81 1.91
-16 -6 5 0.92 1.48
6 -16 5 -0.1 2.33
-16 -5 -5 1.76 2.01
5 -16 -5 -2.01 2.23
-5 16 -5 -2.9 1.89
-16 -5 -5 -2.22 1.62
5 -16 5 -1.91 1.87
-16 -5 5 -0.84 1.33
5 -16 5 1.32 2.34
4 -16 -5 -1.5 2.11
-16 -4 -5 -1.73 1.9
-16 -4 -5 -2.37 1.86
-4 16 -5 -2.35 1.82
4 -16 5 3.68 2.33
-16 -4 5 -0.61 1.38
4 -16 5 4.85 2.08
-16 -3 -5 2.79 2.13
-3 16 -5 -0.37 1.83
-16 -3 -5 1.73 2.05
3 -16 -5 -0.54 2.24
3 -16 5 2.49 2.07
-16 -3 5 -1.95 1.39
3 -16 5 1.58 1.98
2 -16 -5 -0.45 1.99
-16 -2 -5 0.29 1.97
-2 16 -5 1.06 1.92
-16 -2 -5 -0.04 2.07
2 -16 5 -1.35 1.77
-16 -2 5 0.84 1.46
-16 -1 -5 3.77 2.06
-1 16 -5 2.54 2.03
-16 -1 -5 2.8 2.16
1 -16 -5 4.15 2.19
-16 -1 5 0.12 1.58
-16 -1 5 0.76 1.51
1 -16 5 1.93 1.91
0 -16 -5 4.93 2.19
-16 0 -5 10.47 2.33
-16 0 -5 6.03 2.25
0 16 -5 4.89 2.14
-16 0 5 5.18 1.68
-16 0 5 4.59 1.85
0 -16 5 5.2 2.07
1 16 -5 6.77 2.21
-16 1 -5 5.96 2.24
-16 1 -5 7.04 2.33
-1 -16 -5 5.84 2.19
-1 -16 5 4.84 2.03
-16 1 5 7.03 1.76
-16 1 5 7.43 1.9
16 -2 -5 2.51 1.93
-2 -16 -5 2.54 1.94
2 16 -5 3.75 2.08
-16 2 -5 -1.84 1.86
-16 2 -5 1.68 1.97
-16 2 5 2.51 1.55
-16 2 5 0.76 1.57
-2 -16 5 2.59 1.84
-16 3 -5 -0.59 1.91
-16 3 -5 1.21 2
16 -3 -5 2.32 2.02
3 16 -5 0.2 2.01
-16 3 5 -1.5 1.46
-3 -16 5 1.09 1.92
-16 4 -5 0.68 2.08
-4 -16 -5 0.55 2.04
-16 4 -5 4.08 2.2
16 -4 -5 4.08 2.21
-16 4 5 1.92 1.78
-4 -16 5 3.64 1.95
-5 -16 -5 6.23 2.13
-16 5 -5 3.58 2.06
16 -5 -5 1.9 2.24
-16 5 -5 8.33 2.36
-5 -16 5 2.08 2
-16 5 5 6.69 2.11
16 -5 5 5.66 2.09
-6 -16 -5 1.15 1.94
16 -6 -5 -0.68 2.39
-16 6 -5 3.12 2.31
-16 6 -5 4.02 2.05
-16 6 5 1.89 2.02
-6 -16 5 3.71 2.02
16 -6 5 2.05 2.15
-16 7 -5 -0.32 2.16
-16 7 -5 -2.41 1.91
16 -7 -5 1.15 2.42
-7 -16 -5 -2.58 1.95
16 -7 5 1.78 2.22
-7 -16 5 2.18 1.94
-16 7 5 2.19 2.09
-17 -5 -5 2.23 2.04
5 -17 -5 2.81 2.57
-5 17 -5 5.68 2.24
-17 -5 -5 4.64 2.13
-17 -5 5 1.52 1.53
5 -17 5 4.55 2.61
-17 -4 -5 -0.47 2.07
-17 -4 -5 4.05 2.1
4 -17 -5 2.17 2.49
-4 17 -5 4.76 2.31
-17 -4 5 1.98 1.58
4 -17 5 2.28 2.11
4 -17 5 1.42 2.29
3 -17 -5 2.95 2.41
-17 -3 -5 -0.68 2.12
-3 17 -5 -0.2 1.9
-17 -3 -5 1.73 2.17
-17 -3 5 2.26 1.54
3 -17 5 -0.91 1.95
2 -17 -5 4.45 2.49
-17 -2 -5 -1.76 1.88
-17 -2 -5 -1.57 2.02
-2 17 -5 -1.11 1.91
2 -17 5 -1.81 1.85
-17 -2 5 -0.15 1.57
1 -17 -5 0.04 2.22
-17 -1 -5 -1.14 1.93
-1 17 -5 0.07 2.14
-17 -1 -5 0.28 2.03
1 -17 5 -2.33 1.87
-17 -1 5 0.62 1.58
-17 -1 5 -0.89 1.71
0 -17 -5 -1.15 2.06
-17 0 -5 0.55 2.1
0 17 -5 3.09 2.06
-17 0 -5 -2.2 1.94
-17 0 5 -0.45 1.56
-17 0 5 1.85 1.71
0 -17 5 2.17 1.99
1 17 -5 2.37 2.1
-17 1 -5 -2.41 1.98
-1 -17 -5 3.3 2.09
-17 1 -5 0.78 2.08
-17 1 5 -1.8 1.45
-17 1 5 0.08 1.64
-1 -17 5 -0.08 1.87
-17 2 -5 -1.23 1.98
2 17 -5 -1.59 2.01
-17 2 -5 -2.6 1.98
-17 2 5 0.19 1.57
-2 -17 5 -3.81 1.85
3 17 -5 1.35 2.17
-17 3 -5 1.52 2.12
-17 3 -5 1.16 2.03
-3 -17 5 -0.18 2
-17 3 5 1.8 1.67
4 17 -5 0.27 2.19
17 -4 -5 2.25 2.28
-17 4 -5 2.15 2.17
-17 4 -5 -2.39 1.95
-17 4 5 1.74 1.87
-4 -17 5 2.12 2.01
-17 5 -5 -0.3 2.19
17 -5 -5 10.87 2.69
-17 5 -5 1.16 2.13
-17 5 5 0.7 1.93
0 0 -6 299.02 17.02
0 0 6 288.53 16.7
0 0 6 310.48 16.74
1 0 -6 105.48 6.08
0 -1 -6 108.35 6.07
-1 0 -6 105.58 6.14
0 1 -6 104.15 6.13
0 -1 6 105.23 5.97
-1 0 6 105.57 5.93
1 0 6 103.72 6.03
0 1 6 97.19 5.99
0 -1 6 98.98 5.95
0 1 6 98.56 6
1 0 6 99.2 6
-1 -1 -6 40.2 2.78
1 -1 -6 38.7 2.63
-1 -1 -6 37.54 2.69
1 1 -6 41.62 2.77
-1 1 -6 38.61 2.8
1 1 6 39.43 2.72
-1 1 6 43.67 2.65
-1 1 6 43.93 2.66
-1 -1 6 42.47 2.57
1 -1 6 42.67 2.69
1 -1 6 43.34 2.75
1 -2 -6 39.35 2.46
2 1 -6 34.64 2.57
-2 -1 -6 39.87 2.7
-2 -1 -6 38.33 2.63
-1 2 -6 40.61 2.69
1 -2 6 39.43 2.56
-1 2 6 38.93 2.59
2 1 6 40.15 2.67
-1 2 6 37.42 2.54
-2 -1 6 37.92 2.35
-2 -1 6 38.42 2.37
1 -2 6 36.38 2.53
2 0 -6 7.98 0.98
0 -2 -6 7.94 0.94
-2 0 -6 6.83 1.06
0 2 -6 9.73 1.21
-2 0 -6 9.09 1.15
-2 0 6 10.06 0.91
0 -2 6 9.38 1.01
0 -2 6 8.73 0.99
2 0 6 8.72 1.12
0 2 6 10.67 1.14
-2 0 6 6.9 0.77
0 2 6 9.78 1.16
-1 -2 -6 21.95 1.54
-1 -2 -6 17.05 1.56
2 -1 -6 18.66 1.48
-2 1 -6 21.51 1.68
1 2 -6 19.03 1.66
-2 1 -6 23.32 1.84
-1 -2 6 16.42 1.44
2 -1 6 15.51 1.57
1 2 6 17.6 1.59
-2 1 6 16.6 1.49
2 2 -6 22.32 1.78
2 -2 -6 19.62 1.45
-2 2 -6 20.57 1.7
-2 -2 -6 20.78 1.76
-2 2 -6 20.49 1.8
-2 -2 -6 18.79 1.65
-2 2 6 22.19 1.66
-2 2 6 20.06 1.63
-2 -2 6 20.76 1.45
2 2 6 19.04 1.75
-2 -2 6 18.79 1.44
2 -2 6 17.75 1.67
2 -3 -6 24.19 1.4
-2 3 -6 27.52 1.83
-2 3 -6 24.55 1.91
-3 -2 -6 24.71 1.94
-3 -2 -6 26.34 1.89
-2 3 6 16.19 1.62
3 2 6 18.6 1.8
-3 -2 6 17.58 1.35
-3 -2 6 18.07 1.36
-2 3 6 18.36 1.68
2 -3 6 16.57 1.71
1 -3 -6 92.58 5.02
-1 3 -6 101.43 5.38
-3 -1 -6 98.52 5.27
-3 -1 -6 95.94 5.32
1 -3 6 78.65 5.1
-3 -1 6 80.62 4.89
-3 -1 6 81.77 4.9
-1 3 6 84.25 5.15
3 1 6 81 5.21
-1 3 6 78.42 5.12
1 -3 6 83.85 5.13
0 -3 -6 43.56 2.81
-3 0 -6 42.96 2.82
0 -3 -6 47.54 2.74
-3 0 -6 39.73 2.91
0 -3 -6 41.84 2.56
0 3 -6 38.4 2.83
0 3 6 41.11 2.75
0 -3 6 38.29 2.62
-3 0 6 39.73 2.48
3 0 6 35.15 2.76
0 -3 6 41.53 2.65
-3 0 6 37.49 2.45
3 -1 -6 22.46 1.56
-3 1 -6 18.8 1.83
-1 -3 -6 22.13 1.62
-3 1 -6 20.3 1.7
-1 -3 -6 20.24 1.76
1 3 -6 21.78 1.85
-3 1 6 22 1.57
3 -1 6 20.52 1.72
-3 1 6 16.18 1.44
-1 -3 6 18.4 1.58
1 3 6 21.37 1.82
-3 2 -6 27.23 2.17
-3 2 -6 27.93 2.35
-2 -3 -6 30.7 2.15
3 -2 -6 27.86 1.87
-2 -3 -6 26.05 2.2
-2 -3 6 29.12 1.91
-3 2 6 28.08 2.01
-2 -3 6 29.87 1.89
2 3 6 29.96 2.27
3 -2 6 26.37 2.2
-3 3 -6 7.04 1.14
-3 3 -6 6.73 1.25
3 -3 -6 7.09 0.62
-3 -3 -6 5.67 1.03
-3 -3 -6 7.06 1.13
-3 3 6 7.95 1.01
-3 -3 6 7.81 0.75
-3 -3 6 6.13 0.73
3 3 6 6.52 1.14
3 -3 6 4.56 1.07
-3 3 6 8.09 1.06
-3 3 6 7.23 1.01
-4 -3 -6 104.47 6.48
-3 4 -6 107.7 6.41
-4 -3 -6 107.69 6.5
-4 -3 6 106.53 6.03
3 -4 6 105.22 6.42
-3 4 6 110.49 6.39
-3 4 6 113.32 6.35
-3 4 6 102.22 6.33
4 3 6 109.5 6.49
-4 -2 -6 264.93 15.9
-2 4 -6 262.7 15.96
-2 4 -6 280.14 15.62
-4 -2 -6 268.69 15.68
4 2 6 282.86 15.69
-2 4 6 290.08 15.66
-2 4 6 279.99 15.62
2 -4 6 286.64 15.65
1 -4 -6 198.33 12.09
1 -4 -6 200.14 12.06
-1 4 -6 209.65 12.42
-4 -1 -6 217.72 12.2
-4 -1 -6 189.84 12.34
4 1 6 223.03 12.22
-1 4 6 230.18 12.17
-4 -1 6 219.41 11.83
-4 -1 6 220.83 11.83
1 -4 6 219.26 12.12
1 -4 6 218.69 12.12
0 -4 -6 131.66 7.64
0 -4 -6 142.21 7.76
-4 0 -6 136.16 7.96
0 -4 -6 136.62 7.76
-4 0 -6 135.58 7.8
0 4 -6 133.3 7.96
0 4 6 123.56 7.74
0 -4 6 136.41 7.68
-4 0 6 132.34 7.47
4 0 6 139.07 7.82
-4 0 6 129.61 7.46
0 -4 6 122.6 7.65
1 4 -6 4.81 1.12
-1 -4 -6 4.48 0.79
-4 1 -6 4.87 1.13
-4 1 -6 2.89 1.01
-1 -4 -6 5.13 1.06
4 -1 6 3.76 1.06
-4 1 6 4.24 0.72
-4 1 6 3.31 0.68
-4 1 6 4.38 0.76
-1 -4 6 4.39 0.86
1 4 6 5.1 1.08
-4 2 -6 59 4
-2 -4 -6 57 3.87
-2 -4 -6 59.38 4.01
-4 2 -6 65.22 4.18
4 -2 6 61.75 4
-2 -4 6 63.76 3.73
-2 -4 6 64.21 3.73
-4 2 6 63.11 3.76
2 4 6 66.36 4.04
-4 3 -6 37.38 2.68
-4 3 -6 32.63 2.7
-3 -4 -6 32 2.53
-3 -4 -6 38.78 2.62
4 -3 -6 39.98 2.15
3 4 6 31.11 2.55
-4 3 6 31.86 2.44
-3 -4 6 35.02 2.25
4 -3 6 32.44 2.64
-3 -4 6 33.85 2.23
-4 3 6 35.42 2.43
-4 -4 -6 5.52 1.13
-4 4 -6 7.9 1.21
-4 4 -6 7.83 1.23
-4 -4 -6 7.61 1.32
-4 -4 6 7.47 0.79
4 4 6 7.1 1.26
-4 4 6 8.99 1.19
4 -4 6 7.26 1.35
-4 -4 6 7.24 0.78
-4 4 6 7.65 1.13
-4 5 -6 2.65 1.21
-5 -4 -6 2.52 1.04
-4 5 -6 3.32 1.12
-5 -4 -6 -0.27 0.98
-5 -4 6 3.32 0.55
-4 5 6 2.29 0.94
-5 -4 6 1.11 0.51
4 -5 6 3.45 1.17
-4 5 6 1.43 1.07
5 4 6 2.89 1.14
-3 5 -6 30.94 2.46
-5 -3 -6 35.05 2.54
-3 5 -6 35.71 2.47
-5 -3 -6 30.01 2.45
5 3 6 28.95 2.51
3 -5 6 26.53 2.4
-3 5 6 25.35 2.32
2 -5 -6 72.13 4.35
-2 5 -6 72.48 4.42
-5 -2 -6 73.6 4.51
-5 -2 -6 73.71 4.54
5 2 6 69.2 4.48
2 -5 6 64 4.37
-2 5 6 63.85 4.36
-1 5 -6 73.15 4.74
1 -5 -6 73.26 4.31
-5 -1 -6 76.55 4.81
-5 -1 -6 74.65 4.73
1 -5 -6 70.29 4.59
5 1 6 75.37 4.73
1 -5 6 77.9 4.62
1 -5 6 77.51 4.6
-1 5 6 71.39 4.64
0 5 -6 164.76 9.49
-5 0 -6 152.9 9.41
-5 0 -6 161.78 9.3
0 -5 -6 156.49 9.22
0 -5 -6 155.31 9.12
0 -5 6 167.82 9.17
5 0 6 157.34 9.29
-5 0 6 160.61 8.91
-5 0 6 161.11 8.92
0 -5 6 158.48 9.15
0 5 6 156.22 9.24
-1 -5 -6 13.35 1.49
-1 -5 -6 12.85 1.15
1 5 -6 9.63 1.44
-5 1 -6 10.72 1.38
-5 1 -6 11.31 1.53
-1 -5 -6 13.14 1.46
-1 -5 6 8.5 1.17
-5 1 6 13.82 1.07
-1 -5 6 10.3 1.22
5 -1 6 12.78 1.54
-5 1 6 10.69 1.05
1 5 6 10.61 1.4
-5 2 -6 57.59 3.84
-5 2 -6 60.44 3.97
-2 -5 -6 59.76 3.66
-2 -5 -6 61.97 3.81
-5 2 6 54.79 3.54
-2 -5 6 55.76 3.57
2 5 6 56.27 3.77
-5 2 6 58.08 3.53
5 -2 6 56.06 3.84
-3 -5 -6 101.38 5.93
-5 3 -6 101.19 6.01
-3 -5 -6 99.27 6.01
5 -3 6 99.13 6
-5 3 6 97.43 5.77
-3 -5 6 105.04 5.69
-5 3 6 85.92 5.7
-3 -5 6 94.02 5.66
3 5 6 97.57 6
-5 4 -6 87.19 5.65
-5 4 -6 83.36 5.39
-4 -5 -6 83.03 5.42
-4 -5 -6 78.63 5.36
4 5 6 90.25 5.47
-4 -5 6 90.86 5.06
5 -4 6 85.56 5.47
-5 4 6 86.96 5.29
-5 4 6 90.46 5.29
-4 -5 6 91.09 5.08
-5 5 -6 7.98 1.44
-5 -5 -6 9.21 1.43
-5 5 -6 10.13 1.7
-5 -5 -6 12.86 1.7
-5 5 6 12.44 1.48
-5 -5 6 12.98 1.08
5 -5 6 10.74 1.57
-5 5 6 12.08 1.52
5 5 6 11.2 1.55
-6 -5 -6 -0.34 1.06
-5 6 -6 0.84 1.3
-6 -5 -6 2.67 1.28
-5 6 -6 1.93 1.25
6 5 6 -0.3 1.14
5 -6 6 0.6 1.18
-5 6 6 -0.19 1.1
-6 -5 6 2.13 0.63
-6 -5 6 1.17 0.67
-5 6 6 0.49 1.11
-6 -4 -6 4.63 1.32
-4 6 -6 4.6 1.27
-6 -4 -6 4.1 1.24
-4 6 -6 3.84 1.25
-6 -4 6 3.06 0.56
4 -6 6 2.88 1.13
6 4 6 3.39 1.29
-6 -4 6 2.88 0.55
-4 6 6 4.07 1.2
-3 6 -6 38.36 2.9
-3 6 -6 38.32 2.82
-6 -3 -6 34.84 2.79
-6 -3 -6 31.94 2.79
3 -6 -6 33.84 2.74
-3 6 6 35.64 2.75
3 -6 6 34.25 2.76
6 3 6 35.12 2.81
-6 -2 -6 3.23 1.12
2 -6 -6 3.87 1.01
-2 6 -6 5.08 1.17
-6 -2 -6 5.36 1.3
-2 6 -6 4.46 1.27
2 -6 6 5.13 1.23
-2 6 6 4.92 1.21
6 2 6 6.19 1.3
1 -6 -6 36.87 2.71
-1 6 -6 37.13 2.69
-6 -1 -6 39.93 2.79
-6 -1 -6 36.21 2.82
6 1 6 34.16 2.77
-1 6 6 34.78 2.71
1 -6 6 32 2.58
1 -6 6 32.29 2.68
0 -6 -6 79.19 4.49
0 -6 -6 65.95 4.1
-6 0 -6 67.37 4.4
-6 0 -6 71.78 4.61
0 -6 6 75.06 4.37
0 6 6 65.52 4.37
6 0 6 63.45 4.44
0 -6 6 69.17 4.34
-6 0 6 65.7 3.98
-1 -6 -6 -0.17 0.96
-6 1 -6 0.71 0.92
-1 -6 -6 1.14 0.69
1 6 -6 0.39 1.02
-6 1 -6 -0.45 1.01
-1 -6 6 -0.82 0.82
-6 1 6 0.7 0.63
1 6 6 0.53 1.03
-6 1 6 -0.29 0.58
6 -1 6 1.96 1.09
-1 -6 6 1.21 0.86
-2 -6 -6 87.96 5.24
-2 -6 -6 77.96 5.31
-6 2 -6 78.97 5.32
-2 -6 -6 87.07 5.41
-6 2 6 92.92 5.09
-2 -6 6 93.68 5.19
-6 2 6 83.16 5.05
6 -2 6 89.52 5.42
2 6 6 80 5.32
-6 3 -6 155.94 9.92
-6 3 -6 178.48 10.19
-3 -6 -6 179.11 9.97
-3 -6 -6 164.75 9.96
-3 -6 6 168.01 9.66
-3 -6 6 175.61 9.68
-6 3 6 170.68 9.7
3 6 6 172.34 9.97
6 -3 6 161.14 9.93
-4 -6 -6 137.68 8.33
-6 4 -6 137.41 8.55
-6 4 -6 144.27 8.37
-4 -6 -6 145.29 8.4
-6 4 6 138.93 8.12
-4 -6 6 143.99 8
6 -4 6 132 8.28
4 6 6 137.81 8.34
-4 -6 6 137.31 7.99
-6 4 6 139.7 8.15
-6 5 -6 14.06 1.77
-6 5 -6 13.73 1.87
-5 -6 -6 13.76 1.8
-5 -6 -6 12.36 1.6
-6 5 6 12.14 1.49
-5 -6 6 6.59 1
-5 -6 6 11.59 1.16
5 6 6 9.65 1.63
6 -5 6 13.69 1.81
-6 5 6 10.81 1.47
-6 -6 -6 8.28 1.74
-6 6 -6 11.64 1.76
-6 6 -6 9.71 1.7
-6 -6 -6 10.03 1.65
-6 6 6 9.96 1.62
6 -6 6 9.76 2.02
6 -6 6 10.3 1.76
-6 -6 6 12.62 1.18
-6 6 6 8.67 1.47
6 6 6 13.11 1.8
-6 -6 6 10.59 1.13
-6 7 -6 32.45 3.03
-6 7 -6 30.67 2.95
-7 -6 -6 30.45 2.91
-7 -6 -6 29.47 2.84
-7 -6 6 32.23 2.24
7 6 6 29.49 2.82
-6 7 6 37.74 2.95
6 -7 6 29.78 3.11
-7 -6 6 33.53 2.26
6 -7 6 33.26 2.92
-5 7 -6 4.07 1.44
-7 -5 -6 2.57 1.3
-7 -5 -6 4.35 1.4
-5 7 -6 3.45 1.5
7 5 6 4.01 1.39
-7 -5 6 3.87 0.71
5 -7 6 2.78 1.74
-5 7 6 1.19 1.33
-7 -5 6 2.3 0.72
5 -7 6 2.59 1.4
4 -7 -6 0.27 1.07
-4 7 -6 0.84 1.24
-7 -4 -6 -0.03 1.23
-7 -4 -6 0.09 1.22
-4 7 -6 2.04 1.26
7 4 6 -0.26 1.2
4 -7 6 0.27 1.21
-7 -4 6 1.8 0.51
-4 7 6 1.26 1.22
-7 -4 6 1.05 0.53
-7 -3 -6 7.05 1.49
3 -7 -6 8.5 1.38
-3 7 -6 5 1.4
-7 -3 -6 6.34 1.48
-3 7 -6 6.2 1.38
3 -7 6 9.07 1.49
-3 7 6 9.68 1.54
7 3 6 9.77 1.47
2 -7 -6 5.5 1.23
-7 -2 -6 6.86 1.45
-7 -2 -6 4.68 1.4
-2 7 -6 8.28 1.36
-2 7 -6 4.69 1.38
-2 7 6 7.02 1.43
7 2 6 3.25 1.2
2 -7 6 4.7 1.31
-7 -1 -6 14.82 1.82
1 -7 -6 15.98 1.67
-7 -1 -6 16.69 1.93
-1 7 -6 13.12 1.78
-7 -1 6 15.43 1.13
-1 7 6 16.28 1.83
1 -7 6 14.38 1.74
-7 -1 6 14.68 1.17
7 1 6 16.93 1.88
-7 0 -6 7.16 1.37
0 7 -6 7.24 1.38
0 -7 -6 8.39 1.37
-7 0 -6 8.53 1.49
0 -7 -6 6.17 0.88
-7 0 6 7.31 0.84
0 -7 6 7.24 1.22
0 7 6 7.08 1.42
7 0 6 7.41 1.41
0 -7 6 6.7 1.23
-7 0 6 3.57 0.62
-7 1 -6 -1.01 0.7
-1 -7 -6 3.05 1.17
-1 -7 -6 2.79 0.81
-7 1 -6 3.4 1.14
-1 -7 6 3.52 1.07
-1 -7 6 4.11 1.05
1 7 6 2.56 1.25
7 -1 6 1.28 1.17
-7 1 6 3.84 0.84
-7 1 6 3.28 0.76
-2 -7 -6 55.51 3.89
-7 2 -6 52.49 3.82
-2 -7 -6 54 3.54
-7 2 -6 51.78 3.82
2 7 6 51.64 3.81
-7 2 6 54.24 3.39
-2 -7 6 56.05 3.55
-7 2 6 54.24 3.41
7 -2 6 53.96 3.83
-2 -7 6 56.45 3.61
-7 3 -6 94.69 5.56
-3 -7 -6 86.81 5.53
-3 -7 -6 86.9 5.35
-3 -7 -6 83.1 5.49
-7 3 -6 89.49 5.62
3 7 6 81.82 5.45
7 -3 6 80.23 5.39
-7 3 6 80.94 5.14
-3 -7 6 88.18 5.2
-7 4 -6 40.85 3.39
-4 -7 -6 39.71 3.08
-4 -7 -6 42.44 3.26
-4 -7 -6 40.29 3.3
-7 4 -6 37.35 3.22
-7 4 6 37.88 2.92
4 7 6 39.67 3.17
-4 -7 6 41.28 2.77
7 -4 6 39.14 3.07
-7 5 -6 2.98 1.37
-5 -7 -6 2.13 1.42
-7 5 -6 0.1 1.33
-5 -7 -6 0.85 1.2
-5 -7 6 0.56 0.86
7 -5 6 0.54 1.3
-7 5 6 1.2 1.07
-7 5 6 0.19 1.15
7 -5 6 1.6 1.51
-5 -7 6 0.03 0.86
5 7 6 2.54 1.33
-6 -7 -6 38.75 3.06
-7 6 -6 36.49 3.16
-7 6 -6 38.2 3.29
-6 -7 -6 30.73 3.1
-7 6 6 35.65 2.92
-6 -7 6 34.64 2.58
6 7 6 39.24 3.11
7 -6 6 32.82 3.09
7 -6 6 38.87 3.46
-7 -7 -6 13.84 1.98
-7 7 -6 12.5 2.09
-7 7 -6 10.52 2.02
-7 -7 -6 10.91 1.99
-7 -7 6 14.24 1.42
7 -7 6 13.26 2.23
-7 -7 6 13.05 1.37
-7 7 6 11.23 1.89
7 7 6 13.5 1.98
7 -7 6 12.93 2
-7 8 -6 39.22 3.14
-7 8 -6 33.69 3.26
-8 -7 -6 40.73 3.25
-8 -7 -6 39.34 3.25
-7 8 6 32.29 3.07
-8 -7 6 34.84 2.45
7 -8 6 31.05 3.08
7 -8 6 35.62 3.56
-8 -7 6 31.76 2.52
-6 8 -6 10.33 1.92
-8 -6 -6 10.75 1.9
-6 8 -6 11.24 2
-8 -6 -6 10.74 1.79
-8 -6 6 11.34 1.15
-8 -6 6 11.09 1.19
-6 8 6 8.69 1.76
6 -8 6 7.85 2.17
8 6 6 9.68 1.8
6 -8 6 9.17 1.73
-5 8 -6 3.25 1.57
-8 -5 -6 3 1.45
-5 8 -6 0.47 1.36
-8 -5 -6 2.69 1.53
-8 -5 6 2.25 0.72
-5 8 6 1.92 1.39
-8 -5 6 2.78 0.78
5 -8 6 4.28 1.77
5 -8 6 0.43 1.4
8 5 6 2.65 1.4
-8 -4 -6 13.02 1.96
-4 8 -6 16.06 1.96
-8 -4 -6 16.03 2.02
-4 8 -6 17.31 2.14
4 -8 -6 15.29 1.8
8 4 6 14.38 1.92
-8 -4 6 14.07 1.21
-8 -4 6 13.32 1.16
-8 -4 6 14.71 1.22
4 -8 6 14.42 1.95
-4 8 6 13.31 1.91
3 -8 -6 40.84 3.33
-3 8 -6 43.08 3.6
-3 8 -6 42.71 3.36
-8 -3 -6 39.56 3.39
-8 -3 -6 42.7 3.45
3 -8 6 46.58 3.44
8 3 6 49.9 3.5
-3 8 6 50.52 3.46
-8 -2 -6 37.14 3.09
-2 8 -6 35.45 2.83
-2 8 -6 34.42 2.98
2 -8 -6 39.44 2.94
-8 -2 -6 37.47 2.91
8 2 6 34.74 2.93
-8 -2 6 34.04 2.16
2 -8 6 37.21 2.9
-8 -2 6 33.1 2.13
-2 8 6 33.57 2.9
1 -8 -6 14.01 1.7
-1 8 -6 8.27 1.76
-8 -1 -6 13.04 1.82
8 1 6 14.46 1.76
-8 -1 6 11.88 1.07
-1 8 6 11.41 1.78
1 -8 6 15.29 1.74
-8 -1 6 12.03 1.04
-8 0 -6 1.66 1.32
-8 0 -6 -0.15 0.47
0 -8 -6 1.44 1.18
0 8 -6 1.15 1.31
8 0 6 1.05 1.21
0 -8 6 0.46 1.07
-8 0 6 0.39 0.73
-8 0 6 -0.19 0.66
0 8 6 0.05 1.26
0 -8 6 0.55 1.08
-1 -8 -6 8.58 1.43
-1 -8 -6 4.49 1.03
1 8 -6 4.22 1.16
-8 1 -6 8.46 1.58
1 8 6 6.03 1.47
-1 -8 6 7.14 1.33
-8 1 6 6.31 1.02
8 -1 6 4.78 1.32
-1 -8 6 5.51 1.21
-8 2 -6 1.69 1.25
-2 -8 -6 2.03 1.33
-2 -8 -6 0.81 0.92
-8 2 -6 1.79 1.34
2 8 6 0.13 1.16
-8 2 6 0.88 0.95
-2 -8 6 3 1.05
-2 -8 6 0.22 1.08
8 -2 6 0.39 1.27
-8 2 6 0.81 0.87
-8 3 -6 5.76 1.49
-3 -8 -6 5.16 1.38
-8 3 -6 3.67 1.38
-3 -8 -6 4.97 1.22
3 8 6 5.62 1.43
-3 -8 6 7.17 1.27
8 -3 6 6.57 1.6
-8 3 6 8.2 1.2
-8 4 -6 3.05 1.4
-4 -8 -6 2.92 1.23
-4 -8 -6 4.02 1.54
-4 -8 -6 2.5 1.44
-8 4 -6 3.2 1.5
4 8 6 2.45 1.26
-4 -8 6 4.78 1.11
8 -4 6 1.45 1.24
-8 4 6 2.38 1.14
-8 4 6 -0.28 0.59
-8 5 -6 7.78 1.77
-8 5 -6 6.53 1.71
-5 -8 -6 6.97 1.63
-5 -8 -6 7.39 1.75
-5 -8 -6 6.66 1.46
8 -5 6 5.64 1.8
-5 -8 6 7.24 1.23
-8 5 6 10.76 1.56
5 8 6 7.82 1.68
8 -5 6 6.44 1.69
-5 -8 6 6.08 1.21
-8 6 -6 26.29 2.65
-6 -8 -6 22.56 2.45
-8 6 -6 20.46 2.52
-6 -8 -6 24.56 2.4
8 -6 6 23.46 2.66
8 -6 6 20.41 2.34
6 8 6 17.23 2.34
-6 -8 6 23.17 1.99
-8 6 6 22.68 2.28
-7 -8 -6 2.61 1.48
-8 7 -6 4.46 1.71
-8 7 -6 0.73 1.52
-7 -8 -6 5.03 1.53
8 -7 6 -1.07 1.71
-7 -8 6 1.1 1.01
-7 -8 6 1.79 0.99
-8 7 6 1.23 1.43
8 -7 6 1.94 1.52
-8 8 -6 10.26 2.07
-8 8 -6 11.45 2.08
-8 -8 -6 10.56 2
-8 -8 -6 10.96 1.89
-8 8 6 10.35 1.9
8 -8 6 7.54 2.13
-8 -8 6 8.68 1.35
8 -8 6 9.33 1.77
-8 -8 6 7.85 1.24
8 -9 -6 3.43 1.93
-8 9 -6 8.14 1.97
-9 -8 -6 4.83 1.65
-9 -8 -6 3.56 1.73
-8 9 -6 4.58 1.74
-9 -8 6 4.03 1.05
-9 -8 6 4.59 1.16
8 -9 6 6.14 1.8
8 -9 6 6.35 2.1
-8 9 6 4.6 1.71
-7 9 -6 20.19 2.42
-9 -7 -6 17.45 2.43
-9 -7 -6 18.85 2.45
-7 9 -6 20.12 2.51
7 -9 -6 13.64 2.6
-7 9 6 23.08 2.5
-9 -7 6 22.55 1.79
-9 -7 6 23.33 1.86
7 -9 6 22.4 2.55
7 -9 6 24.19 2.93
-6 9 -6 2.12 1.54
-9 -6 -6 2.7 1.55
-9 -6 -6 -0.54 1.44
-6 9 -6 0.2 1.5
-9 -6 6 2.38 0.83
-6 9 6 1.55 1.52
-9 -6 6 1.49 0.87
6 -9 6 1.4 1.48
6 -9 6 1.05 1.63
-5 9 -6 1.14 1.54
-9 -5 -6 4.02 1.63
-9 -5 -6 3.82 1.6
5 -9 6 4.17 1.49
-9 -5 6 2.46 0.8
5 -9 6 0.6 1.72
-9 -5 6 2.14 0.77
-5 9 6 3.32 1.52
-9 -4 -6 40.47 3.14
-9 -4 -6 38.59 3.12
-4 9 -6 38.55 3.3
4 -9 6 38.28 3.14
9 4 6 29.41 2.94
-9 -4 6 32.07 2.21
-4 9 6 32.15 3.05
-9 -4 6 33.97 2.29
4 -9 6 36.61 3.42
-3 9 -6 67.99 4.65
3 -9 -6 61.94 4.33
-9 -3 -6 62.93 4.42
-9 -3 -6 65.03 4.47
3 -9 6 60.69 4.35
9 3 6 61.26 4.38
-9 -3 6 60.68 3.63
-9 -3 6 63.31 3.67
-3 9 6 54.04 4.33
-9 -2 -6 36.52 3.23
-2 9 -6 41.09 3.46
-9 -2 -6 38.6 3.2
2 -9 -6 38.14 3.15
-2 9 6 37.35 2.44
-9 -2 6 35.93 2.42
9 2 6 42.5 3.09
-2 9 6 37.94 3.21
-9 -2 6 38.46 2.39
2 -9 6 38.25 3.11
-1 9 -6 14.76 1.95
-9 -1 -6 11.5 1.84
1 -9 -6 12.19 1.74
-9 -1 6 13.76 1.24
1 -9 6 13.41 1.9
9 1 6 13.53 1.95
-1 9 6 14.12 1.98
-9 -1 6 15.43 1.23
0 -9 -6 1.15 1.16
0 9 -6 0.97 1.46
-9 0 -6 0.34 0.54
-9 0 -6 0.93 1.44
0 9 6 1.18 1.34
-9 0 6 3.2 0.81
0 -9 6 2.87 1.29
9 0 6 1.64 1.26
-9 0 6 3.55 0.89
-9 1 -6 22.94 2.55
1 9 -6 35.11 2.89
-9 1 -6 27.82 2.75
-1 -9 -6 27.66 2.69
9 -1 6 27.08 2.64
-9 1 6 34.13 2.29
1 9 6 32.04 2.85
-1 -9 6 26.54 2.49
-2 -9 -6 63.94 4.09
-9 2 -6 67.46 4.67
-9 2 -6 58.92 4.38
-2 -9 -6 56.14 4.48
9 -2 6 63.38 4.39
2 9 6 59.11 4.34
-9 2 6 62.91 3.94
-9 2 6 60.11 3.88
-2 -9 6 61.18 4.1
-9 3 -6 41.56 3.27
-3 -9 -6 41.12 3.34
-9 3 -6 38.96 3.49
-3 -9 -6 41.54 3.12
3 9 6 38.08 3.22
-3 -9 6 38.59 3.06
-9 3 6 40.62 2.92
-3 -9 6 41.08 3.06
9 -3 6 45.34 3.42
-4 -9 -6 13.55 1.74
-9 4 -6 16.61 2.19
-9 4 -6 14.58 2.02
-4 -9 -6 11.75 2.03
9 -4 6 13.55 2.01
-9 4 6 11.86 1.59
4 9 6 15.05 2.05
-4 -9 6 12.34 1.61
-4 -9 6 16.19 1.7
-9 4 6 13.35 1.69
-5 -9 -6 8.7 1.48
-9 5 -6 7.75 1.8
-5 -9 -6 7.56 1.52
-5 -9 -6 11.03 1.96
-5 -9 -6 7.75 1.81
-9 5 -6 9.25 1.88
5 9 6 5.48 1.59
-9 5 6 7.01 1.54
9 -5 6 8.08 1.91
-5 -9 6 9.68 1.38
-5 -9 6 6.17 1.25
9 -5 6 5.9 1.71
-6 -9 -6 2.16 1.39
-6 -9 -6 1.76 1.53
-6 -9 -6 0.8 1.53
-9 6 -6 0.38 1.38
-9 6 -6 0.93 1.6
-6 -9 6 1.98 1.1
9 -6 6 2.33 1.56
-6 -9 6 1.31 1.06
9 -6 6 2.37 1.8
-9 6 6 2.6 1.42
6 9 6 0.71 1.41
-7 -9 -6 5.18 1.73
-9 7 -6 4.74 1.66
-7 -9 -6 4.15 1.63
-9 7 -6 1.9 1.64
-7 -9 -6 1.51 1.56
-9 7 6 6.56 1.62
9 -7 6 3.69 1.84
-7 -9 6 3.88 1.2
9 -7 6 4.22 1.68
9 -8 -6 4.75 1.89
-8 -9 -6 4.66 1.77
-9 8 -6 0.05 1.59
-9 8 -6 5.04 1.67
-8 -9 -6 1.87 1.57
9 -8 6 4.11 1.57
9 -8 6 2.87 1.87
-9 8 6 1.95 1.55
-8 -9 6 2.93 1.18
-9 -9 -6 -0.11 1.66
-9 9 -6 1.3 1.7
-9 -9 -6 1.28 1.57
9 -9 -6 3.56 2.1
-9 9 6 3.64 1.74
9 -9 6 2.78 1.68
-9 -9 6 2.32 1.21
9 -9 6 6.52 1.97
-10 -9 -6 1.03 1.73
-10 -9 -6 0.84 1.68
9 -10 -6 -0.58 1.68
-9 10 -6 -0.92 1.64
9 -10 6 0.22 1.67
9 -10 6 -1.2 1.93
-10 -9 6 0.75 1.16
-9 10 6 0.17 1.8
-8 10 -6 4.24 1.76
-10 -8 -6 3.12 1.71
-10 -8 -6 2.08 1.65
8 -10 -6 2.15 1.9
-8 10 6 -2.21 1.51
8 -10 6 2.43 1.96
-10 -8 6 1.86 1.14
8 -10 6 4.17 1.74
-10 -8 6 1.86 0.98
-10 -7 -6 -0.2 1.5
7 -10 -6 2.77 1.85
-7 10 -6 1.57 1.62
-10 -7 -6 2.82 1.63
-10 -7 6 0.54 0.94
7 -10 6 3.02 1.92
-10 -7 6 1.93 0.92
-7 10 6 -0.25 1.55
7 -10 6 3.54 1.62
-10 -6 -6 7.04 1.88
-6 10 -6 7.79 1.87
-10 -6 -6 7.09 1.88
6 -10 -6 10.95 2.28
-10 -6 6 8.94 1.12
-6 10 6 3.38 1.65
-10 -6 6 5.26 1.03
6 -10 6 9.65 2.14
6 -10 6 11.29 1.95
-10 -5 -6 2.91 1.61
-5 10 -6 0.42 1.53
5 -10 -6 0.54 1.81
-10 -5 -6 1.13 1.31
5 -10 6 0.96 1.5
-5 10 6 1.14 1.47
-10 -5 6 0.85 0.75
5 -10 6 -0.89 1.58
-10 -5 6 0.16 0.83
-10 -4 -6 12.07 1.99
-4 10 -6 10.32 2.11
-10 -4 -6 14.21 2
4 -10 -6 14.99 2.32
4 -10 6 20.43 2.61
-4 10 6 11.55 2.04
4 -10 6 13.47 1.99
-10 -4 6 14.01 1.31
-10 -4 6 15.04 1.27
3 -10 -6 35.07 3.39
-3 10 -6 32.13 3.07
-10 -3 -6 29.6 2.95
-10 -3 -6 31.01 3.12
3 -10 6 32.03 2.98
-3 10 6 29.02 2.94
-10 -3 6 32.08 2.12
-10 -3 6 31.54 2.19
-2 10 -6 17.69 2.23
2 -10 -6 12.88 2.26
-10 -2 -6 12.83 2.1
2 -10 -6 10.89 1.93
-10 -2 -6 9.6 2.01
-2 10 6 15.38 2.14
-10 -2 6 15.24 1.3
-10 -2 6 16.06 1.33
2 -10 6 14.16 2.01
-10 -1 -6 2.79 1.41
1 -10 -6 -1.83 1.28
-1 10 -6 1.27 1.37
-10 -1 -6 0.69 1.46
-10 -1 6 0.35 0.85
10 1 6 -0.41 1.38
-10 -1 6 1.93 0.82
-1 10 6 1.59 1.52
1 -10 6 0.83 1.42
0 -10 -6 5.12 1.69
-10 0 -6 1.93 1.57
0 -10 -6 1.11 1.35
-10 0 -6 2.44 1.49
0 10 -6 1.39 1.56
-10 0 6 1.56 0.87
0 10 6 3.38 1.43
-10 0 6 2.1 0.98
10 0 6 1.92 1.47
0 -10 6 3.46 1.49
-10 1 -6 18.68 2.23
-10 1 -6 18.81 2.35
-1 -10 -6 22.93 2.41
1 10 -6 16.26 2.25
-1 -10 -6 20.6 2.33
1 10 6 17.92 2.32
10 -1 6 19.83 2.29
-10 1 6 18.56 1.67
-10 1 6 15.59 1.71
-1 -10 6 16.83 2.11
-10 2 -6 26.69 2.71
-2 -10 -6 30.58 2.65
-2 -10 -6 24.81 2.58
-10 2 -6 26.19 2.62
2 10 6 17.46 2.39
10 -2 6 23.85 2.53
-2 -10 6 19.44 2.19
-10 2 6 18.49 1.98
-3 -10 -6 14.7 1.95
-10 3 -6 11.91 1.95
-3 -10 -6 11.16 2.02
-10 3 -6 12.8 2.04
-10 3 6 9.84 1.52
10 -3 6 9.53 1.89
-3 -10 6 12.62 1.75
3 10 6 8.98 1.79
-10 3 6 12.07 1.43
-10 3 6 12.96 1.53
-4 -10 -6 2.76 1.27
-10 4 -6 3.21 1.64
-4 -10 -6 2.01 1.54
-4 -10 -6 1.79 1.32
-10 4 -6 1.36 1.39
-10 4 6 2.98 1.22
-10 4 6 0.29 0.56
4 10 6 2.32 1.52
-4 -10 6 0.99 1.23
10 -4 6 3.87 1.58
-5 -10 -6 7.31 1.34
-5 -10 -6 9.17 1.87
-10 5 -6 6.64 1.75
-5 -10 -6 3.55 1.38
-10 5 -6 6.94 1.79
10 -5 6 3 1.82
5 10 6 4.61 1.7
-5 -10 6 5.12 1.26
10 -5 6 3.17 1.44
-10 5 6 2.81 1.39
-6 -10 -6 0.05 1.44
-10 6 -6 1.72 1.6
-6 -10 -6 1.76 1.39
-10 6 -6 2.55 1.59
-6 -10 -6 3.39 1.56
-10 6 6 2.02 1.41
10 -6 6 1.65 1.5
10 -6 6 -0.49 1.75
-6 -10 6 1.29 1.1
-7 -10 -6 4.09 1.72
-10 7 -6 1.55 1.66
-7 -10 -6 4.97 1.6
-10 7 -6 1.11 1.52
-7 -10 -6 1.6 1.68
10 -7 -6 1.51 1.91
10 -7 6 0.57 1.72
-7 -10 6 2.42 1.18
-10 7 6 2.28 1.56
10 -7 6 5.93 1.62
-8 -10 -6 1.24 1.72
10 -8 -6 1.59 1.97
-10 8 -6 -0.66 1.62
-8 -10 -6 3.1 1.72
-8 -10 -6 1.3 1.5
-10 8 -6 1.5 1.7
-10 8 6 0.81 1.49
10 -8 6 -1.89 1.78
-8 -10 6 0.05 1.18
-10 9 -6 2.87 1.8
10 -9 -6 0.99 2.06
-9 -10 -6 3.46 1.84
-9 -10 -6 0.43 1.56
-9 -10 -6 -2.59 1.6
-10 9 6 2.82 1.65
-9 -10 6 0.23 1.22
10 -9 6 0.94 1.95
-10 -10 -6 -0.33 1.7
-10 -10 -6 -0.88 1.61
10 -10 -6 0.24 2.08
-10 10 -6 1.06 1.71
10 -10 6 -3.32 1.94
-10 -10 6 0.48 1.25
-10 10 6 0.03 1.73
-11 -10 -6 2.11 1.87
-10 11 -6 1.02 1.75
10 -11 -6 0.23 2.15
-11 -10 -6 -0.41 1.79
-10 11 6 4.04 1.93
10 -11 6 -0.5 2.05
-11 -10 6 -1.14 1.22
-9 11 -6 2.07 1.83
-11 -9 -6 4.04 1.91
-11 -9 -6 -1.64 1.78
9 -11 -6 3.08 2.14
9 -11 6 0.94 2.1
-11 -9 6 3.69 1.28
-9 11 6 2.09 1.89
-11 -8 -6 2.66 1.76
8 -11 -6 2.25 1.99
-11 -8 -6 2.36 1.74
-8 11 -6 0.91 1.72
-11 -8 6 0.97 1.14
-8 11 6 2.07 1.91
8 -11 6 0.31 2.01
8 -11 6 -1.4 1.61
-11 -7 -6 5.93 1.93
-7 11 -6 4.25 1.83
-11 -7 -6 3.92 1.74
7 -11 -6 2.77 2.1
7 -11 6 5.2 1.86
7 -11 6 6.9 2.14
-7 11 6 1.04 1.68
-11 -7 6 3.3 1.04
-11 -7 6 4.35 1.12
-11 -6 -6 0.52 1.62
-6 11 -6 7.72 1.83
-11 -6 -6 1.94 1.72
6 -11 -6 4.6 2.06
6 -11 6 1.92 1.72
-11 -6 6 3.19 1.02
-11 -6 6 5.5 1.13
-11 -6 6 3.43 1.01
-6 11 6 4.95 1.77
6 -11 6 7.68 2.09
-11 -5 -6 0.03 1.54
5 -11 -6 -0.22 1.84
-5 11 -6 1.44 1.57
-11 -5 -6 -1.35 1.49
5 -11 6 0.74 1.79
-11 -5 6 0.95 0.93
-5 11 6 3.19 1.6
5 -11 6 1.5 1.6
-11 -5 6 0.6 0.82
-11 -4 -6 2.3 1.49
-11 -4 -6 1.81 1.53
-4 11 -6 1.05 1.58
4 -11 -6 3.16 1.82
4 -11 6 0.48 1.81
-11 -4 6 2.37 0.83
-4 11 6 -1.27 1.44
4 -11 6 1.75 1.56
-11 -4 6 0.57 0.85
-3 11 -6 3.31 1.66
3 -11 -6 1.27 1.74
-11 -3 -6 0.45 1.51
-11 -3 -6 1.14 1.54
-11 -3 6 2.9 0.89
3 -11 6 2.5 1.5
-3 11 6 1.36 1.55
-11 -3 6 1.8 0.8
2 -11 -6 1.74 1.72
-11 -2 -6 2.21 1.59
-11 -2 -6 1.59 1.53
-2 11 -6 3.29 1.71
-11 -2 6 2.65 0.87
2 -11 6 1.42 1.46
-11 -2 6 2.76 0.93
-2 11 6 2.67 1.58
-1 11 -6 3.36 1.65
-11 -1 -6 1.58 1.44
1 -11 -6 0.91 1.43
-11 -1 -6 2.47 1.59
1 -11 -6 2.15 1.66
-1 11 6 1.22 1.53
-11 -1 6 2.89 0.91
-11 -1 6 3.91 1
1 -11 6 0.61 1.38
0 -11 -6 1.31 1.47
0 11 -6 1.48 1.55
-11 0 -6 3.14 1.61
-11 0 -6 0.55 1.34
0 -11 -6 2.72 1.68
0 11 6 0.89 1.52
-11 0 6 0.48 0.98
0 -11 6 1.82 1.38
-11 0 6 1.53 0.91
1 11 -6 8.54 2.05
-11 1 -6 10.94 2.01
-11 1 -6 13.06 2.04
-1 -11 -6 11.65 2.01
-1 -11 -6 9.42 1.91
-11 1 6 11.42 1.45
-11 1 6 12.48 1.42
-1 -11 6 12.07 1.9
1 11 6 12.37 2.09
-2 -11 -6 11.33 1.88
-11 2 -6 8 1.92
-2 -11 -6 10.34 1.9
2 11 -6 11.3 2.07
-11 2 -6 11.06 2.09
-11 2 6 14.2 1.61
-11 2 6 11.87 1.58
-2 -11 6 10.27 1.73
2 11 6 12.62 2.07
-3 -11 -6 12.08 1.83
-11 3 -6 10.59 2.01
-3 -11 -6 11.51 1.89
-11 3 -6 13.15 2.14
3 11 6 12.48 2.05
-11 3 6 8.89 1.51
-3 -11 6 11.66 1.75
-11 3 6 11.23 1.48
-11 4 -6 1.11 1.63
-11 4 -6 4.22 1.71
-4 -11 -6 3.91 1.66
-4 -11 -6 4.39 1.43
-11 4 6 2.75 1.31
-4 -11 6 1.5 1.33
-11 4 6 1.36 1.02
-11 5 -6 6.8 1.91
-11 5 -6 8.68 2.02
-5 -11 -6 9.25 1.69
-5 -11 -6 6.03 1.88
-11 5 6 10.33 1.8
11 -5 6 8.23 1.96
-5 -11 6 8.63 1.61
-11 6 -6 14.87 2.37
-6 -11 -6 17.22 2.47
-11 6 -6 12.55 2.38
-6 -11 -6 14.37 2.15
-6 -11 6 15.73 1.95
11 -6 6 18.62 2.58
-11 6 6 18.24 2.24
-7 -11 -6 13.94 2.3
-11 7 -6 16.78 2.47
-11 7 -6 13.77 2.28
-7 -11 -6 18.09 2.3
11 -7 -6 14.28 2.66
-11 7 6 14.27 2.2
-7 -11 6 12.38 1.85
11 -7 6 15.8 2.54
-11 8 -6 1.53 1.72
11 -8 -6 0.28 2.1
-8 -11 -6 0.69 1.55
-11 8 -6 -0.31 1.76
-8 -11 -6 -1.07 1.67
-8 -11 -6 3.1 1.86
-8 -11 6 3.07 1.35
-11 8 6 2.7 1.78
11 -8 6 0.06 1.85
-9 -11 -6 -2.28 1.63
-11 9 -6 3.41 1.92
-9 -11 -6 -0.67 1.62
11 -9 -6 -2.67 1.99
-9 -11 -6 0.51 1.8
-9 -11 6 1.25 1.34
11 -9 6 2.38 2.04
-11 9 6 -0.73 1.59
-10 -11 -6 -1.2 1.78
-10 -11 -6 2.21 1.79
11 -10 -6 0.86 1.92
-10 -11 -6 1.27 1.82
-11 10 -6 2.08 1.8
-10 -11 6 -1.02 1.31
-11 10 6 1 1.77
11 -10 6 -0.75 1.8
-11 -11 -6 0.85 1.87
-11 -11 -6 0.67 1.97
-11 11 -6 4.33 2.06
-11 -11 -6 3.88 1.97
11 -11 -6 -0.01 2.31
-11 11 6 -2.11 1.8
11 -11 6 0.09 2.14
-11 -11 6 1.28 1.44
-11 12 -6 -1.88 1.77
-12 -11 -6 0.56 1.98
-12 -11 -6 -0.71 1.94
11 -12 -6 0.44 2.48
-12 -11 -6 -0.83 1.85
11 -12 6 -0.87 2.24
-12 -11 6 0.22 1.5
-11 12 6 -1.25 1.88
10 -12 -6 -0.22 2.3
-12 -10 -6 3.8 2.08
-12 -10 -6 3.92 2.06
-10 12 -6 2.45 1.91
10 -12 6 4.74 2.41
-12 -10 6 2.82 1.47
-10 12 6 2.85 1.99
-9 12 -6 11.61 2.31
9 -12 -6 8.05 2.62
-12 -9 -6 7.47 2.21
-12 -9 -6 10.23 2.39
-12 -9 6 7.34 1.5
-9 12 6 10.26 2.38
9 -12 6 7.2 2.56
-12 -8 -6 10.02 2.31
8 -12 -6 10.8 2.7
-8 12 -6 9.44 2.24
-12 -8 -6 11.05 2.25
-12 -8 6 12.6 1.59
8 -12 6 8.25 2.34
8 -12 6 12.88 2.41
-8 12 6 10.61 2.32
-12 -7 -6 4.16 1.94
7 -12 -6 6.78 2.41
-12 -7 -6 2.99 1.81
-7 12 -6 3.23 1.88
7 -12 6 4.57 1.79
7 -12 6 3.25 2.13
-12 -7 6 5.39 1.23
-7 12 6 5.26 1.97
6 -12 -6 -1.14 1.7
-12 -6 -6 -1.89 1.64
-12 -6 -6 3.18 1.84
-6 12 -6 0.33 1.62
6 -12 6 -1.58 1.63
-12 -6 6 -0.59 1
-12 -6 6 -0.25 0.91
6 -12 6 0.19 1.86
-6 12 6 0.14 1.65
-12 -6 6 -0.4 0.98
-12 -5 -6 8.26 2.03
-5 12 -6 10.76 2.17
-12 -5 -6 13.31 2.35
5 -12 -6 9.43 2.37
-12 -5 6 10.26 1.28
-12 -5 6 9.57 1.34
5 -12 6 8.44 2.08
-5 12 6 6.67 2.04
5 -12 6 11.46 2.32
-12 -4 -6 10.32 2.07
-12 -4 -6 13.62 2.16
4 -12 -6 10.06 2.32
-4 12 -6 8.95 2.07
4 -12 6 9.06 2.04
-12 -4 6 10.93 1.33
-4 12 6 9.32 2.05
-12 -4 6 9.54 1.24
4 -12 6 12.54 2.45
-12 -3 -6 1.8 1.44
3 -12 -6 0.17 1.74
-3 12 -6 0.37 1.65
-12 -3 -6 1.31 1.61
3 -12 6 4.15 1.7
-12 -3 6 2.66 0.9
-12 -3 6 1.73 0.97
-3 12 6 -0.17 1.55
-12 -2 -6 0 1.33
-2 12 -6 0.74 1.62
2 -12 -6 -0.9 1.64
-12 -2 -6 -1.2 1.53
-2 12 6 1.68 1.56
-12 -2 6 -1.54 0.91
-12 -2 6 0.45 0.9
2 -12 6 0.54 1.48
-12 -1 -6 0.29 1.55
-12 -1 -6 1.01 1.44
1 -12 -6 2.08 1.62
-1 12 -6 1.57 1.59
-1 12 6 -2.08 1.47
-12 -1 6 2.43 1.03
1 -12 6 3.22 1.57
-12 -1 6 0.47 0.92
0 -12 -6 0.65 1.5
-12 0 -6 0.33 1.58
0 -12 -6 -1.41 1.48
-12 0 -6 0.57 1.54
0 12 -6 1.05 1.6
0 -12 6 0.04 1.39
0 12 6 -1.72 1.48
-12 0 6 -1.15 0.91
-12 0 6 0.44 1.07
-1 -12 -6 8.02 1.81
1 12 -6 9.05 1.96
-12 1 -6 8.16 1.83
-12 1 -6 6.4 1.83
-1 -12 -6 4.73 1.7
-12 1 6 8.31 1.41
-1 -12 6 9.08 1.83
1 12 6 4.36 1.8
-2 -12 -6 1.72 1.6
2 12 -6 3.23 1.75
-12 2 -6 1.68 1.71
-2 -12 -6 0.06 1.38
-12 2 -6 2.46 1.69
2 12 6 1.78 1.45
-12 2 6 3.62 1.24
-12 2 6 3.37 1.24
-2 -12 6 3.54 1.57
-12 3 -6 2.94 1.76
-12 3 -6 5.52 1.73
-3 -12 -6 4.53 1.64
-3 -12 -6 2.2 1.68
-12 3 6 3.68 1.27
-3 -12 6 6.66 1.65
-12 3 6 4.78 1.35
-4 -12 -6 -0.01 1.32
-12 4 -6 -0.12 1.63
-4 -12 -6 0.56 1.64
-12 4 -6 -1.43 1.56
-12 4 6 -0.94 1.18
-4 -12 6 0.19 1.38
-12 5 -6 8.21 2.11
-5 -12 -6 8.06 2.06
-12 5 -6 7.28 2.13
-5 -12 6 11.72 1.86
12 -5 6 13.8 2.26
-12 5 6 9.66 1.86
-12 6 -6 18 2.76
12 -6 -6 23.47 3.05
-12 6 -6 20.59 2.73
-6 -12 -6 24.25 2.9
12 -6 6 28.45 3
-6 -12 6 16.86 2.26
-12 6 6 22.54 2.55
12 -7 -6 18.56 2.95
-12 7 -6 20.52 2.66
-12 7 -6 14.1 2.63
-7 -12 -6 18 2.34
-7 -12 -6 20.25 2.65
12 -7 6 17.37 2.73
-7 -12 6 15 2.11
-12 7 6 15.1 2.39
-12 8 -6 3.85 1.89
-8 -12 -6 3.84 1.89
-12 8 -6 4.44 2.08
12 -8 -6 5.5 2.36
-8 -12 -6 4.73 1.78
12 -8 6 2.55 2.05
-12 8 6 2.99 1.87
-8 -12 6 1.28 1.4
-12 9 -6 2.94 1.81
12 -9 -6 1.62 1.99
-9 -12 -6 -1.57 1.72
-9 -12 -6 0.13 1.7
-9 -12 6 -0.32 1.31
-12 9 6 -0.48 1.77
12 -9 6 -0.03 1.99
-10 -12 -6 3.65 1.92
12 -10 -6 6.05 2.56
-10 -12 -6 3.08 2.2
-12 10 -6 3.11 1.88
-10 -12 -6 3.71 2.07
12 -10 6 0.11 2.2
-10 -12 6 0.95 1.51
-12 10 6 2.09 1.87
-11 -12 -6 4.55 2.13
-11 -12 -6 6.82 2.27
-11 -12 -6 4.9 2.17
-12 11 -6 1.96 1.98
12 -11 -6 6.74 2.72
-11 -12 6 5.19 1.73
-12 11 6 2.13 2.14
12 -11 6 3.15 2.4
-12 -12 -6 4.49 2.28
-12 -12 -6 -1.32 1.93
12 -12 -6 3.79 2.74
-12 12 -6 1.35 1.94
-12 -12 -6 3.32 2.17
12 -12 6 3.05 2.56
-12 12 6 2.37 2.22
-12 -12 6 3.36 1.61
-13 -11 -6 1.13 2.05
11 -13 -6 1.09 2.53
-11 13 -6 1.22 2.15
-13 -11 -6 0.33 2.05
-13 -11 6 2.92 1.58
11 -13 6 1.07 2.49
-11 13 6 2.6 2.13
-13 -10 -6 5.72 2.22
10 -13 -6 0.46 2.45
-13 -10 -6 -1.12 1.93
-10 13 -6 4.46 2.11
10 -13 6 4.39 2.48
-13 -10 6 2.24 1.42
-10 13 6 -1.23 1.92
-9 13 -6 8.01 2.23
-13 -9 -6 3.53 2.12
9 -13 -6 5.48 2.52
-13 -9 -6 5.87 2.15
9 -13 6 3.35 2.47
-13 -9 6 6.39 1.49
-9 13 6 2.54 2.09
-13 -8 -6 5.03 2.13
-8 13 -6 6.96 2.15
-13 -8 -6 4.3 2.21
8 -13 -6 11.76 2.8
-13 -8 6 5.81 1.4
-8 13 6 5.05 2.22
8 -13 6 3.51 2.32
-13 -7 -6 4 1.93
7 -13 -6 3.3 2.34
-13 -7 -6 0.26 1.84
-7 13 -6 0.73 1.86
-7 13 6 0.61 1.86
7 -13 6 -1.19 2.02
-13 -7 6 2 1.21
7 -13 6 0.17 1.83
-13 -6 -6 -2.4 1.62
-6 13 -6 0.04 1.72
6 -13 -6 -2.88 2
-13 -6 -6 1.74 1.86
6 -13 6 2.29 1.93
-13 -6 6 -0.27 1.13
6 -13 6 1.56 1.82
-6 13 6 -0.26 1.71
-13 -5 -6 14.21 2.33
-5 13 -6 9.15 2.19
5 -13 -6 8.3 2.37
-13 -5 -6 10.42 2.2
5 -13 6 12.23 2.32
-5 13 6 11.49 2.33
5 -13 6 9.1 2.49
-13 -5 6 11.03 1.48
4 -13 -6 30.29 3.48
-13 -4 -6 25.86 3.08
-13 -4 -6 26.32 2.96
-4 13 -6 23.88 3.02
-4 13 6 28.2 3.13
4 -13 6 21.24 2.82
4 -13 6 26.16 3.27
-13 -4 6 22.38 2.05
-13 -4 6 28.7 2.24
-3 13 -6 12.54 2.33
-13 -3 -6 14.85 2.38
3 -13 -6 13.09 2.56
-13 -3 -6 16.12 2.44
-13 -3 6 11.11 1.48
-3 13 6 12.25 2.27
-13 -3 6 12.88 1.46
3 -13 6 13.72 2.28
2 -13 -6 3.28 1.93
-2 13 -6 -0.18 1.66
-13 -2 -6 -1.13 1.69
-13 -2 -6 0.97 1.52
2 -13 6 -0.48 1.54
-2 13 6 0.25 1.69
-13 -2 6 0.11 0.96
-13 -2 6 -0.36 1.06
-13 -1 -6 -1.14 1.66
1 -13 -6 3.4 1.87
-13 -1 -6 0.78 1.64
-1 13 -6 0.58 1.73
1 -13 6 -1.29 1.58
-13 -1 6 0.65 1.09
-1 13 6 2.39 1.61
-13 0 -6 2.68 1.83
0 -13 -6 -0.2 1.63
-13 0 -6 3.42 1.81
0 13 -6 0.63 1.66
0 -13 6 0.85 1.53
-13 0 6 2.61 1.17
0 13 6 -1.25 1.64
-1 -13 -6 2.49 1.66
-1 -13 -6 1.97 1.55
-13 1 -6 1.52 1.7
1 13 -6 2.03 1.75
-13 1 -6 0.35 1.7
-13 1 6 0.95 1.21
-1 -13 6 1.21 1.47
-13 1 6 1.35 1.28
2 13 -6 2.39 1.61
-2 -13 -6 1.72 1.67
-13 2 -6 2.94 1.75
-13 2 -6 2.66 1.75
-2 -13 -6 2.67 1.68
-13 2 6 3.24 1.38
-13 2 6 2.87 1.31
-2 -13 6 -0.43 1.5
-13 3 -6 0.6 1.76
-3 -13 -6 1.96 1.71
-13 3 -6 2.09 1.75
-3 -13 -6 2.33 1.66
-13 3 6 -0.6 1.22
-3 -13 6 -0.96 1.47
-13 3 6 -1.46 1.12
-4 -13 -6 0.75 1.74
-13 4 -6 1.09 1.76
-13 4 -6 -0.71 1.72
13 -4 -6 0.75 1.85
-13 4 6 0.87 1.36
-4 -13 6 0.28 1.5
-13 5 -6 2.13 1.87
-5 -13 -6 -1.36 1.77
-13 5 -6 4.06 1.88
13 -5 -6 0.11 1.91
13 -5 6 3.06 1.75
-13 5 6 3.58 1.56
-5 -13 6 2.6 1.57
-13 6 -6 6.33 2.14
-13 6 -6 3.36 2.03
13 -6 -6 4.53 2.29
-6 -13 -6 3.8 2.02
-13 6 6 3.34 1.75
13 -6 6 10.52 2.23
-6 -13 6 5.42 1.7
13 -7 -6 9.86 2.48
-7 -13 -6 2.01 1.97
-13 7 -6 6.76 2.09
-13 7 -6 4.11 2.06
-13 7 6 4.9 1.88
-7 -13 6 3.64 1.62
13 -7 6 4.5 2.17
13 -8 -6 1.72 2.25
-13 8 -6 1.12 1.84
-13 8 -6 -0.8 1.73
-8 -13 -6 1.4 1.92
-8 -13 6 -1.36 1.4
13 -8 6 -1.35 2.12
-13 8 6 0.53 1.76
-9 -13 -6 0.4 1.92
-13 9 -6 -1.07 1.74
13 -9 -6 -2.82 2.12
13 -9 6 1.1 2.13
-13 9 6 -0.8 1.75
-9 -13 6 -1.49 1.42
-10 -13 -6 2.18 2.15
13 -10 -6 8.88 2.83
-13 10 -6 4.89 2.09
-13 10 6 3.83 2.22
13 -10 6 4.03 2.43
-10 -13 6 4.38 1.68
-13 11 -6 7.92 2.28
13 -11 -6 5.41 2.65
-11 -13 -6 8.12 2.31
-11 -13 -6 6.53 2.42
13 -11 6 6.93 2.81
-11 -13 6 5.49 1.83
-13 11 6 6.8 2.45
-14 -10 -6 3.35 2.16
-10 14 -6 0.91 1.99
10 -14 -6 0.33 2.56
-14 -10 -6 -1.61 1.75
-10 14 6 1.73 2.15
-14 -10 6 2.38 1.44
10 -14 6 2.89 2.55
-14 -9 -6 -1.69 1.88
-14 -9 -6 -1.46 1.97
9 -14 -6 2.33 2.6
-9 14 -6 0.92 2.09
-14 -9 6 -0.78 1.31
9 -14 6 1.8 2.36
-9 14 6 -2.63 1.84
8 -14 -6 4.13 2.4
-14 -8 -6 0.37 1.87
-14 -8 -6 2.8 1.95
-8 14 -6 2.07 2.07
8 -14 6 0.57 2
-14 -8 6 -2.48 1.15
-8 14 6 0.57 2.07
-14 -7 -6 4.85 2.09
-14 -7 -6 1.19 2
-7 14 -6 0.82 1.78
7 -14 -6 2.19 2.35
7 -14 6 4.38 2.32
-14 -7 6 -0.58 1.13
7 -14 6 3.38 2
-7 14 6 1.35 1.91
6 -14 -6 2.63 2.33
-14 -6 -6 -1.41 1.73
-6 14 -6 -0.37 1.69
-14 -6 -6 3.76 1.93
6 -14 6 -1.35 2.08
-6 14 6 2.64 1.93
6 -14 6 0.37 1.83
-14 -6 6 3.43 1.22
-14 -5 -6 9.6 2.18
-14 -5 -6 6.5 2.16
-5 14 -6 7.49 2.16
5 -14 -6 5.04 2.34
-14 -5 6 3.82 1.29
5 -14 6 3.08 2.01
5 -14 6 3.18 2.04
-5 14 6 2.12 1.92
4 -14 -6 10.52 2.6
-14 -4 -6 12.17 2.42
-4 14 -6 11.36 2.41
-14 -4 -6 6.53 2.12
-4 14 6 14.95 2.47
-14 -4 6 12.06 1.54
4 -14 6 6.91 2.37
4 -14 6 11.36 2.33
-14 -3 -6 6.01 2.03
3 -14 -6 6.88 2.27
-14 -3 -6 6.14 2.1
-3 14 -6 6.51 2.08
3 -14 6 7.07 2.09
-14 -3 6 4.9 1.33
-3 14 6 4.15 1.98
-2 14 -6 1.58 1.92
2 -14 -6 1.58 1.98
-14 -2 -6 -0.33 1.72
-14 -2 -6 1.85 1.98
-14 -2 6 1.24 1.2
-2 14 6 -0.01 1.78
2 -14 6 2.84 1.77
1 -14 -6 2.7 1.91
-1 14 -6 0.25 1.77
-14 -1 -6 3.23 1.96
-14 -1 -6 -0.69 1.7
1 -14 6 0.59 1.65
-1 14 6 3.48 1.74
-14 -1 6 1.17 1.22
-14 0 -6 7.6 2.2
-14 0 -6 6.16 2.04
0 14 -6 6.92 2.09
0 -14 -6 6.87 2.08
0 -14 6 4.81 1.86
-14 0 6 3.23 1.34
-1 -14 -6 1.62 1.92
-14 1 -6 2.43 1.88
1 14 -6 -0.5 1.73
-14 1 -6 -0.1 1.64
-1 -14 6 0.13 1.62
-14 1 6 1.29 1.33
-14 1 6 3.23 1.48
-14 2 -6 3.26 1.97
-14 2 -6 3.19 1.92
2 14 -6 0.93 1.92
-2 -14 -6 3.38 1.8
-14 2 6 5.07 1.47
-2 -14 6 4.14 1.81
-14 2 6 3.2 1.49
-3 -14 -6 -1.42 1.35
-3 -14 -6 -1.21 1.59
14 -3 -6 -0.1 1.69
-14 3 -6 -0.21 1.76
3 14 -6 0.82 1.82
-14 3 -6 -0.42 1.69
-14 3 6 1.24 1.41
-3 -14 6 1.09 1.68
14 -4 -6 2.01 2.1
-14 4 -6 -1.63 1.79
-14 4 -6 -0.98 1.75
-4 -14 -6 0.64 1.83
-4 -14 6 1.66 1.7
-14 4 6 2.01 1.49
-5 -14 -6 -1.83 1.69
-14 5 -6 1.6 1.93
14 -5 -6 1.77 1.99
-14 5 -6 -0.59 1.8
-5 -14 6 2.58 1.68
-14 5 6 -0.88 1.54
14 -6 -6 1.28 2.07
-14 6 -6 -0.08 1.86
-6 -14 -6 4.59 2.01
-14 6 -6 -0.9 1.81
14 -6 6 2.88 1.87
-6 -14 6 -1.22 1.51
-14 6 6 -2.07 1.52
14 -7 -6 1.8 2.12
-14 7 -6 3.49 1.97
-14 7 -6 -0.21 1.94
-7 -14 -6 1.8 1.88
-14 7 6 1.17 1.81
14 -7 6 -1.43 1.97
-7 -14 6 -1.5 1.49
14 -8 -6 1.46 2.44
-14 8 -6 -2.3 1.79
-14 8 -6 -0.51 2
-8 -14 -6 0.65 1.98
-8 -14 6 -0.92 1.49
-14 8 6 -0.98 1.66
14 -8 6 0.75 2.07
14 -9 -6 2.35 2.54
-9 -14 -6 0.9 2.04
-14 9 -6 0.39 1.9
14 -9 6 0.87 2.22
-14 9 6 2.3 2.05
-9 -14 6 -0.55 1.57
14 -10 -6 3.06 2.64
-10 -14 -6 2.03 2.15
-14 10 -6 1.09 1.98
-10 -14 6 2.08 1.68
14 -10 6 3.7 2.47
-14 10 6 1.37 2.07
-15 -8 -6 -1.73 2.05
-8 15 -6 -0.4 2.04
8 -15 -6 0.5 2.58
-15 -8 -6 -1.6 1.97
8 -15 6 -0.58 2.39
-15 -8 6 1.3 1.32
-8 15 6 -1.73 2.02
-15 -7 -6 -2.53 1.91
-15 -7 -6 1.75 2.08
7 -15 -6 -1.96 2.35
-7 15 -6 1.85 1.96
-15 -7 6 -2.92 1.21
-7 15 6 2.95 2.17
7 -15 6 -3.32 2.21
-15 -7 6 -0.37 1.24
-15 -6 -6 -2.86 1.75
6 -15 -6 -2.89 2.2
-15 -6 -6 -0.68 1.88
-6 15 -6 0.05 1.88
-15 -6 6 2.04 1.29
-6 15 6 -1.76 1.9
6 -15 6 0.14 1.94
6 -15 6 2.59 2.28
-15 -5 -6 1.06 1.93
-15 -5 -6 4.04 1.98
5 -15 -6 -0.09 2.19
-5 15 -6 4.44 2.11
5 -15 6 0.07 2.16
5 -15 6 0.5 2.03
-5 15 6 -0.66 1.92
-15 -5 6 0.32 1.24
4 -15 -6 3.81 2.3
-15 -4 -6 1.15 1.92
-15 -4 -6 3.68 2
-4 15 -6 0.53 1.92
-4 15 6 0.03 1.88
4 -15 6 0.27 1.81
-15 -4 6 2.53 1.29
3 -15 -6 7.84 2.35
-15 -3 -6 2.76 2.01
-3 15 -6 -1.32 1.91
-15 -3 -6 3.87 1.89
3 -15 6 0.9 1.9
-15 -3 6 1.55 1.25
-15 -2 -6 0.1 1.86
-15 -2 -6 -1.31 1.84
-2 15 -6 1.18 1.92
2 -15 -6 0.48 1.96
2 -15 6 5.34 1.97
-15 -2 6 2.5 1.36
1 -15 -6 3.42 2.06
-15 -1 -6 3.92 2.04
-15 -1 -6 6.38 2.2
-1 15 -6 3.31 2.05
-15 -1 6 0.67 1.35
1 -15 6 4.25 1.93
-15 0 -6 6.16 2.14
0 15 -6 7.88 2.17
-15 0 -6 8.36 2.37
0 -15 -6 9.47 2.27
0 -15 6 2.5 1.95
-15 0 6 6.66 1.55
-15 1 -6 4.83 2.14
15 -1 -6 4.01 1.85
-15 1 -6 3.82 2.04
-1 -15 -6 2.22 1.83
1 15 -6 7.35 2.17
-15 1 6 6.26 1.59
-1 -15 6 1.34 1.85
15 -2 -6 5.09 2.03
-15 2 -6 3.12 2.02
-15 2 -6 3.78 2.09
-2 -15 -6 4.08 1.91
2 15 -6 3.53 2.09
-15 2 6 2.21 1.46
-2 -15 6 2.48 1.76
-15 3 -6 -0.03 1.88
15 -3 -6 1.35 1.95
-15 3 -6 -0.84 1.83
3 15 -6 -3.26 1.73
-3 -15 6 -0.55 1.77
-15 3 6 0.13 1.48
-15 4 -6 -0.54 1.95
-4 -15 -6 1.05 1.76
15 -4 -6 3.44 2.2
-15 4 -6 1.2 1.88
-15 4 6 7.13 1.82
-4 -15 6 0.71 1.8
-15 5 -6 7.76 2.27
15 -5 -6 6.29 2.3
-15 5 -6 7.02 2.29
-5 -15 -6 9.93 2.37
-15 5 6 4.83 1.82
-5 -15 6 9.39 2.11
-6 -15 -6 4.99 2.16
15 -6 -6 1.93 2.24
-15 6 -6 1.3 2.03
-15 6 -6 6.48 2.28
-6 -15 6 5.25 1.92
-15 6 6 1.29 1.75
-7 -15 -6 2.66 2.2
15 -7 -6 -0.19 2.41
-15 7 -6 -2.63 1.97
-15 7 -6 -1.18 2.01
-7 -15 6 0.47 1.74
15 -7 6 1.96 2.14
-15 7 6 1.4 1.82
-8 -15 -6 -2.02 2.07
15 -8 -6 6.34 2.67
-15 8 -6 -3.07 1.88
-15 8 6 0.24 1.9
-8 -15 6 -1.87 1.64
15 -8 6 2.03 2.18
-16 -7 6 0.19 1.38
-16 -6 -6 -2.29 1.92
6 -16 -6 1.53 2.46
-6 16 -6 -0.56 1.87
-16 -6 -6 -3.5 1.9
6 -16 6 3.1 2.44
-16 -6 6 1.95 1.41
6 -16 6 0.01 2.15
5 -16 -6 -0.79 2.32
-16 -5 -6 -0.53 2
-5 16 -6 -0.44 2.06
-16 -5 -6 1.91 2.02
5 -16 6 0.8 2.01
-16 -5 6 0.84 1.34
5 -16 6 -2.84 1.96
4 -16 -6 2.44 2.35
-16 -4 -6 2.12 1.9
-4 16 -6 -2.03 1.9
-16 -4 -6 1.2 1.97
-16 -4 6 0.27 1.33
4 -16 6 -1.82 1.83
-3 16 -6 1.89 2.02
-16 -3 -6 -5.63 1.74
-16 -3 -6 0.2 2
3 -16 -6 -1.48 2.12
-16 -3 6 -1.75 1.28
3 -16 6 1.08 1.89
2 -16 -6 2.15 2.12
-2 16 -6 -0.32 1.92
-16 -2 -6 0.85 2
-16 -2 -6 0.56 2
-16 -2 6 1.54 1.44
2 -16 6 -0.67 1.89
-16 -1 -6 2.9 2.09
-1 16 -6 5.35 2.21
1 -16 -6 4.69 2.26
-16 -1 -6 1.08 2.16
1 -16 6 4.35 2.05
-16 -1 6 3.62 1.58
0 -16 -6 4.46 2.16
-16 0 -6 5.41 2.22
-16 0 -6 4.85 2.29
0 16 -6 12.03 2.43
-16 0 6 4.45 1.61
0 -16 6 6.98 2.18
1 16 -6 5.63 2.22
-1 -16 -6 7.61 2.13
-16 1 -6 4.17 2.27
-16 1 -6 4.24 2.23
-16 1 6 2.73 1.59
-1 -16 6 2.59 2.07
16 -2 -6 -4.18 1.71
2 16 -6 -0.61 1.98
-16 2 -6 -0.02 2
-16 2 -6 1.98 2.08
-16 2 6 1.18 1.48
-2 -16 6 -1.5 1.72
-16 3 -6 -2.19 1.9
16 -3 -6 -0.62 1.95
-16 3 -6 -0.71 1.98
3 16 -6 -1.18 2.02
-3 -16 6 -0.09 1.92
-16 3 6 -1.94 1.5
-16 4 -6 9 2.4
16 -4 -6 4.4 2.18
-16 4 -6 3.7 2.2
4 16 -6 2.48 2.16
-4 -16 6 0.27 1.91
-16 4 6 2.38 1.73
-16 5 -6 2.16 2.18
16 -5 -6 3.98 2.42
-16 5 -6 7.27 2.28
-16 5 6 1.46 1.91
-5 -16 6 8.24 2.19
-16 6 -6 3.74 2.13
16 -6 -6 0.32 2.44
-6 -16 -6 4.55 2.33
-16 6 -6 -0.55 2.09
-6 -16 6 2.12 1.96
-16 6 6 -1.57 1.94
3 -17 -6 0.2 2.31
-17 -3 -6 -3.56 1.93
-3 17 -6 1.62 2.15
-17 -3 -6 1.65 2.09
-17 -3 6 0.56 1.43
3 -17 6 2.88 2.15
-2 17 -6 -2.08 1.96
2 -17 -6 -0.91 2.19
-17 -2 -6 -2.82 1.91
-17 -2 -6 -1.49 2.09
2 -17 6 -2.51 1.9
-17 -2 6 1.13 1.46
1 -17 -6 0.19 2.14
-17 -1 -6 2.72 2.17
-17 -1 -6 1.9 2.28
-1 17 -6 -0.18 2.1
1 -17 6 0.03 1.91
-17 -1 6 -3.36 1.4
-17 0 -6 0.64 2.05
0 -17 -6 1.36 2.16
-17 0 -6 4.64 2.32
0 17 -6 2.51 2.18
0 -17 6 2.08 2.05
-17 0 6 1.23 1.59
-1 -17 -6 -1 2.05
1 17 -6 -2.7 1.92
-17 1 -6 0.71 2.09
-17 1 -6 0.59 2.13
-1 -17 6 -1.44 2.01
-17 1 6 -2.37 1.49
-17 2 -6 -1.17 2.02
-17 2 -6 2.65 2.26
2 17 -6 1.03 2.16
-2 -17 6 0.89 1.94
-17 2 6 -1.49 1.53
-17 3 -6 2.79 2.24
3 17 -6 -3.22 2.03
-17 3 -6 2.03 2.17
-17 3 6 -0.13 1.61
-3 -17 6 0.13 1.94
0 0 7 124.84 7.31
0 0 7 128.35 7.33
-1 0 -7 37.11 2.39
0 1 -7 35.48 2.38
0 -1 -7 35.31 2.28
1 0 -7 36 2.33
0 -1 7 29.89 2.23
0 -1 7 28.77 2.19
-1 0 7 30.14 2.15
1 0 7 31.49 2.28
0 1 7 26.56 2.24
-1 0 7 31.84 2.17
0 1 7 30.28 2.27
1 0 7 26.44 2.31
1 1 -7 15.6 1.56
-1 -1 -7 17.2 1.55
-1 -1 -7 17.36 1.56
1 -1 -7 15.48 1.4
-1 1 -7 15.34 1.6
1 1 7 15.48 1.55
-1 -1 7 17.43 1.41
1 -1 7 15.63 1.53
-1 1 7 20.57 1.56
-1 1 7 16.55 1.47
1 -1 7 18.7 1.58
-1 2 -7 39.98 2.89
2 1 -7 41.37 2.79
-2 -1 -7 40.12 2.82
1 -2 -7 42.24 2.66
-2 -1 -7 47.54 2.91
-2 -1 7 38.5 2.56
1 -2 7 44.38 2.8
-1 2 7 39.63 2.79
2 1 7 35.91 2.83
-2 -1 7 41.39 2.6
-1 2 7 40.32 2.76
1 -2 7 42.45 2.83
-2 0 -7 37.18 2.78
-2 0 -7 38.62 2.87
0 -2 -7 37.22 2.7
2 0 -7 39.24 2.75
0 2 -7 37.03 2.87
0 2 7 43.4 2.8
-2 0 7 44.01 2.64
0 2 7 41.48 2.79
0 -2 7 43.74 2.72
2 0 7 45.43 2.85
0 -2 7 41.55 2.71
-2 0 7 40.82 2.57
-1 -2 -7 16.46 1.48
-2 1 -7 13.21 1.48
2 -1 -7 13.5 1.27
-1 -2 -7 11.68 1.33
-2 1 -7 15.1 1.45
1 2 -7 14.2 1.52
-1 -2 7 17.13 1.34
2 -1 7 13.93 1.44
1 2 7 13.5 1.46
-2 1 7 15.46 1.31
-2 -2 -7 14.02 1.45
2 -2 -7 12.49 1.08
2 2 -7 12.32 1.38
-2 2 -7 10.62 1.38
-2 -2 -7 12.08 1.31
-2 2 -7 12.7 1.32
-2 2 7 10.18 1.22
2 2 7 9.3 1.37
-2 -2 7 12.29 1.1
2 -2 7 9.33 1.28
-2 -2 7 10.98 1.04
-2 2 7 13.62 1.28
-2 3 -7 37.3 2.69
-3 -2 -7 34.6 2.59
-3 -2 -7 38.16 2.56
2 -3 -7 34.32 2.19
2 -3 7 31.7 2.49
3 2 7 31.11 2.61
-3 -2 7 33.73 2.15
-2 3 7 32.53 2.49
-2 3 7 33.86 2.46
-3 -2 7 34.08 2.16
-1 3 -7 38.91 2.77
1 -3 -7 36.3 2.26
-3 -1 -7 38.6 2.65
-3 -1 -7 34.52 2.61
3 1 -7 37.88 2.5
1 -3 7 35.78 2.48
-1 3 7 36.82 2.58
1 -3 7 32.29 2.51
-3 -1 7 33.24 2.2
-1 3 7 31.95 2.45
-3 -1 7 32.12 2.18
3 1 7 32.32 2.6
-3 0 -7 39.21 2.66
0 -3 -7 34.84 2.53
-3 0 -7 39.75 2.74
0 3 -7 38.87 2.78
0 -3 -7 37.69 2.58
0 -3 -7 36.83 2.37
3 0 -7 40.14 2.49
0 3 7 30.66 2.53
0 -3 7 32.27 2.43
0 -3 7 32.45 2.45
-3 0 7 34.47 2.28
3 0 7 34.66 2.6
-3 0 7 33.07 2.26
-1 -3 -7 17.23 1.63
-3 1 -7 17.94 1.79
-1 -3 -7 14.75 1.41
-3 1 -7 18.74 1.68
1 3 -7 16.43 1.65
3 -1 -7 16.51 1.38
-3 1 7 16.91 1.44
3 -1 7 16.93 1.65
1 3 7 14.73 1.63
-3 1 7 15.31 1.35
-1 -3 7 17.89 1.44
2 3 -7 5.65 1.14
-2 -3 -7 4.92 1.07
-2 -3 -7 3.16 0.93
-3 2 -7 4.41 1
3 -2 -7 4.73 0.73
-3 2 -7 6.98 1.18
-2 -3 7 5.31 0.79
2 3 7 3.5 1.09
3 -2 7 4.8 1.01
-3 2 7 6.05 0.95
-2 -3 7 4.47 0.79
-3 -3 -7 0.77 0.96
3 -3 -7 0.64 0.5
-3 3 -7 2.69 0.99
-3 -3 -7 2.27 0.91
-3 3 -7 1.9 1.11
-3 3 7 1.18 0.83
-3 3 7 -0.62 0.81
-3 -3 7 0.76 0.57
-3 -3 7 0.3 0.6
3 -3 7 0.77 0.95
3 3 7 -0.03 1
-4 -3 -7 81.57 5.15
-4 -3 -7 80.6 5.15
-3 4 -7 83.67 5.06
-3 4 -7 79.74 5.24
-4 -3 7 80.76 4.63
-3 4 7 80.52 5.02
3 -4 7 85.8 5.11
4 3 7 80.63 5.15
-3 4 7 77.87 4.96
2 -4 -7 131.18 7.89
-4 -2 -7 127.38 8.14
-4 -2 -7 123.75 8.25
-2 4 -7 136.39 8.37
4 2 7 155.73 8.27
2 -4 7 142.56 8.16
-4 -2 7 145.64 7.79
-2 4 7 137.36 8.1
-2 4 7 156.38 8.2
-4 -1 -7 127.31 8.15
1 -4 -7 137.13 7.83
-4 -1 -7 129.71 8.05
-1 4 -7 136.14 8.21
1 -4 -7 139.07 7.95
1 -4 7 140.98 7.96
1 -4 7 133.68 7.96
4 1 7 135.19 8.08
-4 -1 7 141.9 7.68
-1 4 7 140.88 8.01
-4 -1 7 138.09 7.67
0 -4 -7 113.38 6.79
0 4 -7 110.42 7.01
-4 0 -7 114.01 7
0 -4 -7 109.53 6.76
-4 0 -7 105.54 6.83
0 -4 -7 106.78 6.65
4 0 7 122.08 6.88
-4 0 7 118.81 6.52
0 -4 7 114.94 6.72
-4 0 7 120.75 6.51
0 -4 7 117.38 6.72
0 4 7 120.07 6.84
4 -1 -7 9.69 1.09
-4 1 -7 8.06 1.36
-1 -4 -7 9.66 1.11
1 4 -7 8.63 1.45
-4 1 -7 10.14 1.4
-1 -4 -7 12.03 1.41
-1 -4 7 15.09 1.27
4 -1 7 12.5 1.48
-4 1 7 9.72 1.02
-4 1 7 10 1.08
1 4 7 11.05 1.42
-2 -4 -7 12.22 1.44
2 4 -7 10.34 1.41
-4 2 -7 7.09 1.41
-2 -4 -7 9.44 1.12
4 -2 -7 10.95 0.93
-4 2 -7 8.48 1.28
-2 -4 7 6.27 0.91
2 4 7 4.96 1.24
-2 -4 7 6.75 0.96
-4 2 7 5.78 1.01
-4 2 7 6.84 0.88
4 -2 7 6.4 1.25
-4 3 -7 24.11 2.15
-4 3 -7 25.53 2.33
4 -3 -7 24.8 1.62
-3 -4 -7 20.73 1.95
-3 -4 -7 24.16 2.21
-4 3 7 21.95 1.93
-4 3 7 23.14 1.99
3 4 7 24.49 2.21
4 -3 7 28.38 2.14
-3 -4 7 25.87 1.76
-3 -4 7 24.95 1.76
-4 3 7 23.19 1.89
-4 4 -7 -0.45 1
-4 -4 -7 0.55 1.08
-4 -4 -7 0.38 0.93
-4 4 -7 1.13 0.9
4 4 7 0.7 1.1
-4 -4 7 -0.13 0.34
-4 -4 7 1.47 0.6
-4 4 7 0.3 0.86
-4 4 7 1.38 0.97
-4 4 7 -0.01 0.9
4 -4 7 1.81 1.12
-5 -4 -7 12.94 1.61
-4 5 -7 10.91 1.53
-4 5 -7 13.96 1.67
-5 -4 -7 12.32 1.75
-5 -4 7 12.2 1.07
4 -5 7 11.79 1.59
-4 5 7 13.94 1.6
-4 5 7 14.71 1.59
-5 -4 7 12.49 1.01
-4 5 7 12.33 1.55
5 4 7 10.88 1.67
-3 5 -7 98.26 5.66
-5 -3 -7 90.47 5.76
-5 -3 -7 87.47 5.69
-3 5 7 91.78 5.6
-3 5 7 89 5.6
3 -5 7 89.39 5.65
5 3 7 86.75 5.72
-3 5 7 97.81 5.67
-5 -2 -7 91.04 5.96
-2 5 -7 97.8 6.17
-5 -2 -7 97.41 6.11
2 -5 7 98.57 5.94
5 2 7 97.18 6.03
-2 5 7 104.8 6.02
1 -5 -7 172.86 10.05
-5 -1 -7 179.08 10.17
1 -5 -7 172.22 9.9
-1 5 -7 182.42 10.38
-5 -1 -7 168.77 10.3
5 1 7 170.26 10.16
-1 5 7 172.93 10.09
-5 -1 7 171.61 9.69
-5 -1 7 174.07 9.69
1 -5 7 175.93 10.04
1 -5 7 176.91 10.03
0 5 -7 81.01 5.25
-5 0 -7 80.91 5.03
-5 0 -7 79.29 5.12
0 -5 -7 75.14 4.76
0 -5 -7 82.11 5.01
0 -5 7 85.98 4.92
0 -5 7 80.15 4.94
-5 0 7 80.19 4.64
0 5 7 78.52 5.04
5 0 7 85.66 5.12
-1 -5 -7 1.95 1
-5 1 -7 1.24 1.04
-1 -5 -7 1.98 1.03
-1 -5 -7 1.07 0.72
1 5 -7 2.47 1.17
-5 1 -7 2.48 1.09
-5 1 7 0.8 0.65
-5 1 7 1.94 0.68
-1 -5 7 1.04 0.83
-5 1 7 1.9 0.67
5 -1 7 0.01 1.03
1 5 7 0.68 1.05
-1 -5 7 0.99 0.81
-5 2 -7 39.48 3.06
2 5 -7 35.01 2.94
-2 -5 -7 38.26 2.64
-2 -5 -7 39.49 2.86
-5 2 -7 33.17 2.8
-2 -5 7 36.9 2.46
-2 -5 7 36.11 2.53
-5 2 7 37.85 2.48
-5 2 7 37.73 2.51
2 5 7 35 2.85
5 -2 7 35.14 2.86
5 -3 -7 124.72 7.02
-5 3 -7 124.63 7.37
-5 3 -7 126.2 7.57
-3 -5 -7 122.48 7.4
-3 -5 -7 120.82 7.32
-3 -5 7 116.18 7.03
3 5 7 121.89 7.38
5 -3 7 113.57 7.34
-5 3 7 127.01 7.14
-3 -5 7 124.64 7.05
-5 4 -7 57.12 4.24
-4 -5 -7 60.66 4.31
-4 -5 -7 58.61 4.14
-5 4 7 66.02 4.11
4 5 7 61.7 4.31
-5 4 7 65.92 4.11
-4 -5 7 67.93 3.83
5 -4 7 68.01 4.32
-5 5 -7 9.64 1.6
-5 -5 -7 9.39 1.64
-5 -5 -7 7.81 1.43
-5 5 -7 12.69 1.68
-5 -5 7 9.3 0.96
5 -5 7 6.47 1.45
-5 5 7 8.68 1.39
-5 -5 7 10.26 0.99
5 5 7 7.83 1.55
-5 5 7 8.63 1.44
-5 6 -7 4.58 1.32
-6 -5 -7 4.1 1.33
-6 -5 -7 4.41 1.35
-5 6 -7 3.7 1.55
-6 -5 7 4.14 0.72
-6 -5 7 3.35 0.71
-5 6 7 3.77 1.28
5 -6 7 4.84 1.42
6 5 7 2.27 1.37
-4 6 -7 0.55 1.26
-6 -4 -7 0.55 1.28
-4 6 -7 2.12 1.21
-6 -4 -7 -0.54 1.12
-4 6 7 0.17 1.09
6 4 7 0.27 1.21
4 -6 7 0.28 1.19
-6 -3 -7 7.72 1.4
-6 -3 -7 7.38 1.43
-3 6 -7 6.95 1.45
-3 6 -7 8.34 1.38
3 -6 7 3.98 1.34
6 3 7 7.23 1.41
-3 6 7 5.68 1.34
-6 -2 -7 24.26 2.15
2 -6 -7 20.72 1.81
-6 -2 -7 20.1 2.05
6 2 7 12.86 1.84
-2 6 7 12.86 1.77
2 -6 7 15.09 1.79
-6 -1 -7 34.81 2.79
-1 6 -7 36.56 2.82
-6 -1 -7 33.98 2.71
1 -6 -7 35.76 2.1
1 -6 -7 32.06 2.62
1 -6 7 28.96 2.49
-1 6 7 33.19 2.69
1 -6 7 31.11 2.53
6 1 7 26.43 2.63
-6 0 -7 75.11 4.8
0 6 -7 72.04 4.8
-6 0 -7 69.41 4.6
0 -6 -7 70.32 4.28
0 -6 -7 74.68 4.63
0 -6 7 71.08 4.51
6 0 7 74.39 4.69
0 -6 7 70.84 4.46
-6 0 7 71.86 4.16
-6 0 7 69.34 4.13
0 6 7 69.77 4.63
-6 1 -7 7.85 1.52
1 6 -7 10.13 1.66
-6 1 -7 9.04 1.53
-1 -6 -7 10.47 1.15
-1 -6 -7 11.27 1.51
6 -1 7 8.86 1.54
-1 -6 7 9.45 1.29
-6 1 7 9.36 1.06
-6 1 7 9.25 1.02
1 6 7 12.26 1.61
-1 -6 7 10.05 1.3
-2 -6 -7 56.13 3.93
-2 -6 -7 59.36 3.71
-2 -6 -7 57.73 3.9
-6 2 -7 57.21 4
-6 2 -7 49.15 3.87
2 6 -7 52.91 4.06
2 6 7 54.09 3.82
-6 2 7 60.7 3.53
6 -2 7 55.93 3.95
-2 -6 7 59.78 3.67
-6 2 7 53.41 3.53
-3 -6 -7 129.99 8.36
-3 -6 -7 147.87 8.33
-6 3 -7 138.43 8.37
3 6 7 135.35 8.33
6 -3 7 137.76 8.36
-3 -6 7 135.94 8.03
-6 3 7 143.9 8.1
-3 -6 7 144.58 8.06
-4 -6 -7 66.88 4.85
-4 -6 -7 72.91 4.68
-6 4 -7 72.21 4.84
-4 -6 7 74.31 4.41
-6 4 7 78.88 4.63
-4 -6 7 72.76 4.39
6 -4 7 71.46 4.76
4 6 7 69.4 4.73
-6 5 -7 6.09 1.63
-5 -6 -7 4.26 1.5
-6 5 -7 5.4 1.49
-5 -6 -7 2.37 1.28
-6 5 7 4.83 1.2
-5 -6 7 6.59 0.96
-5 -6 7 4.38 0.9
-6 5 7 3.16 1.25
6 -5 7 5.97 1.42
5 6 7 3.83 1.36
-6 6 -7 22.54 2.42
-6 6 -7 23.73 2.34
-6 -6 -7 23.87 2.27
-6 -6 -7 20.27 2.27
6 6 7 18.84 2.16
6 -6 7 16.02 2.2
-6 -6 7 19.41 1.64
-6 -6 7 19.5 1.65
-6 6 7 18.85 2.1
-6 7 -7 6.1 1.8
-7 -6 -7 6.73 1.58
-6 7 -7 5.13 1.63
-7 -6 -7 2.81 1.6
-6 7 7 5.55 1.51
-7 -6 7 7 0.94
7 6 7 8.55 1.75
-7 -6 7 6.62 0.93
6 -7 7 5.15 1.63
-7 -5 -7 16.78 2.08
-5 7 -7 10.17 1.81
-7 -5 -7 13.48 1.9
-5 7 -7 12.06 1.98
-5 7 7 11.12 1.78
-7 -5 7 12.47 1.04
5 -7 7 11.06 1.84
7 5 7 12.35 1.9
-7 -5 7 13.04 1.06
-7 -4 -7 1.26 1.36
-7 -4 -7 2.25 1.27
-4 7 -7 1.66 1.48
-4 7 -7 1.68 1.32
7 4 7 1.71 1.36
-4 7 7 -0.53 1.18
4 -7 7 0.25 1.15
-3 7 -7 15.3 1.93
3 -7 -7 17.52 1.82
-7 -3 -7 13.98 1.96
-7 -3 -7 17.75 2.02
-3 7 -7 16.19 2.03
3 -7 7 15.1 1.89
-3 7 7 14.88 1.92
7 3 7 16.7 2.05
-2 7 -7 33.04 2.68
-7 -2 -7 34.75 2.89
-7 -2 -7 30.83 2.78
2 -7 -7 33.6 2.69
-2 7 7 34.47 2.8
2 -7 7 29.53 2.67
7 2 7 32.43 2.81
-7 -1 -7 4.75 1.44
1 -7 -7 3.31 1.16
-7 -1 -7 2.08 1.26
-1 7 7 1.76 1.27
7 1 7 2.93 1.39
1 -7 7 1.24 1.14
1 -7 7 3.95 1.19
0 -7 -7 14.61 1.23
-7 0 -7 13.41 1.86
-7 0 -7 11.6 1.78
0 -7 -7 11.33 1.66
-7 0 7 11.84 1.09
0 -7 7 11.28 1.51
7 0 7 15.18 1.86
-7 0 7 12.21 1.12
0 -7 7 12.01 1.61
0 7 7 12.89 1.77
-1 -7 -7 8.02 1.06
-7 1 -7 7.91 1.54
-1 -7 -7 6.5 1.41
-1 -7 7 7.21 1.25
1 7 7 5.89 1.5
-7 1 7 5.84 0.97
-1 -7 7 4.35 1.2
7 -1 7 3.96 1.42
-7 2 -7 22.57 2.45
-2 -7 -7 26.92 2.15
-2 -7 -7 28 2.49
-2 -7 7 26.03 2.25
-7 2 7 27.85 2
7 -2 7 27.62 2.55
2 7 7 24.08 2.43
-7 2 7 24.66 2.05
-3 -7 -7 65.53 4.31
-3 -7 -7 64.93 4.06
-7 3 -7 56.01 4.15
-3 -7 -7 64.51 4.36
-3 -7 7 62.13 3.92
7 -3 7 61.24 4.18
3 7 7 59.34 4.26
-7 3 7 56.59 3.87
-4 -7 -7 38.26 2.81
-7 4 -7 31.75 3
-4 -7 -7 32.43 2.83
-7 4 -7 36.52 3.05
-7 4 7 32.52 2.53
4 7 7 30.55 2.88
-4 -7 7 33.16 2.41
-4 -7 7 33.1 2.47
7 -4 7 30.46 2.9
-7 5 -7 8.86 1.74
-5 -7 -7 7.08 1.73
-5 -7 -7 7.23 1.52
-7 5 -7 7.33 1.73
5 7 7 9.97 1.78
-7 5 7 7.38 1.46
7 -5 7 8.73 1.64
-7 5 7 10.06 1.46
-5 -7 7 7.45 1.19
-6 -7 -7 7.01 1.67
-7 6 -7 6.89 1.62
-6 -7 -7 7.11 1.8
-7 6 -7 7.12 1.83
7 -6 7 5.38 1.7
6 7 7 7.25 1.76
-7 6 7 9.91 1.65
-6 -7 7 8.33 1.15
-6 -7 7 9.18 1.16
-7 -7 -7 7.4 1.75
-7 7 -7 14.17 2.03
-7 -7 -7 11.05 1.98
-7 7 -7 13.32 2.12
-7 7 7 8.76 1.7
7 7 7 8.32 1.8
-7 -7 7 9.03 1.2
-7 -7 7 10.64 1.23
7 -7 7 9.69 1.9
-8 -7 -7 31.25 3.11
-8 -7 -7 29.66 3.14
-7 8 -7 33.69 3.32
-8 -7 7 39.01 2.38
-8 -7 7 34.19 2.42
7 -8 7 32.37 3.14
-7 8 7 34.39 3.09
-8 -6 -7 17.12 2.23
-6 8 -7 14.6 2.24
-8 -6 -7 16.77 2.19
6 -8 7 14.84 2.11
-8 -6 7 14.04 1.29
-6 8 7 14.75 2
-8 -6 7 14.57 1.26
8 6 7 14.39 2.1
-5 8 -7 6.35 1.85
-8 -5 -7 9.27 1.9
-8 -5 -7 9.71 1.82
-8 -5 7 6.8 0.81
-5 8 7 9.71 1.75
5 -8 7 8.15 1.72
8 5 7 8.48 1.78
-8 -4 -7 10.88 1.89
-8 -4 -7 8.73 1.85
-4 8 -7 15.84 2.15
4 -8 7 10.25 1.71
8 4 7 9.31 1.83
-4 8 7 11.4 1.85
-3 8 -7 23.27 2.54
-8 -3 -7 26.04 2.56
-8 -3 -7 24.24 2.55
-3 8 7 23.99 2.47
3 -8 7 22.32 2.38
8 3 7 25.58 2.54
-8 -2 -7 37.37 3.14
2 -8 -7 36.33 3.09
-2 8 -7 40.71 3.5
-8 -2 -7 42.13 3.26
8 2 7 35.07 3.16
-2 8 7 41.36 3.17
2 -8 7 36.67 3.07
-8 -1 -7 9.85 1.83
-8 -1 -7 11.87 1.9
-1 8 -7 10.39 1.77
1 -8 -7 11.39 1.65
8 1 7 11.05 1.8
-8 -1 7 9.91 0.94
-1 8 7 11.01 1.79
1 -8 7 10.41 1.62
-8 0 -7 0.31 1.23
-8 0 -7 0.37 0.97
0 8 -7 -0.14 0.51
0 -8 -7 0.17 1.16
0 8 7 2.02 1.36
-8 0 7 0.96 0.69
8 0 7 0.23 1.2
0 -8 7 0.68 1.14
-8 0 7 0.87 0.72
-8 1 -7 0.26 0.6
-8 1 -7 0.68 1.32
-1 -8 -7 1.9 0.89
-1 -8 -7 -0.37 1.24
1 8 -7 -0.08 0.37
-8 1 7 0.84 0.77
-8 1 7 -0.33 0.83
-1 -8 7 0.7 1.13
-1 -8 7 -1.33 0.93
1 8 7 3.16 1.45
8 -1 7 1.05 1.22
-8 2 -7 4.95 1.55
-2 -8 -7 6.58 1.13
-2 -8 -7 4.39 1.43
-2 -8 7 4.82 1.18
-8 2 7 5.83 1.13
-2 -8 7 0.65 0.82
8 -2 7 9.08 1.7
2 8 7 6.24 1.6
-8 2 7 4.93 0.96
-8 3 -7 4.69 1.47
-8 3 -7 2.94 1.55
-3 -8 -7 7.34 1.61
-3 -8 -7 4.15 1.22
-3 -8 -7 6.02 1.53
-8 3 7 6.86 1.12
-8 3 7 4.83 0.99
8 -3 7 3.74 1.5
-3 -8 7 4.98 1.22
3 8 7 6.42 1.52
-4 -8 -7 4.24 1.54
-8 4 -7 3.56 1.65
-4 -8 -7 2.38 1.51
-8 4 -7 4.49 1.5
-4 -8 -7 2.67 1.22
8 -4 7 5.02 1.55
-8 4 7 2.69 0.83
-4 -8 7 2.18 1.05
-4 -8 7 3.56 1.1
-8 4 7 4.45 1.24
4 8 7 4.79 1.55
-5 -8 -7 17.97 2.01
-8 5 -7 17.6 2.27
-8 5 -7 20.57 2.4
-5 -8 -7 16.43 2.28
-5 -8 -7 17.25 2.26
8 -5 7 15.98 2.23
-8 5 7 14.73 1.91
-5 -8 7 17.6 1.72
5 8 7 16.15 2.17
-8 6 -7 1.06 1.58
-8 6 -7 -2.04 1.3
-6 -8 -7 0.13 1.55
-6 -8 -7 -0.52 1.25
-6 -8 7 0.42 0.98
-6 -8 7 0.45 0.97
8 -6 7 0.56 1.47
6 8 7 0.31 1.31
-8 6 7 -1.13 1.22
-8 7 -7 8.13 1.91
-7 -8 -7 10.89 1.79
-7 -8 -7 11.59 2.03
-8 7 -7 8.19 1.99
8 -7 7 6.26 1.69
-7 -8 7 7.73 1.26
-7 -8 7 10.22 1.28
-8 7 7 8.26 1.76
-8 8 -7 20.44 2.71
-8 -8 -7 22.35 2.61
-8 -8 -7 23.49 2.8
8 -8 7 29.19 2.9
-8 8 7 23.62 2.56
-8 -8 7 26.71 2.12
-8 -8 7 25.34 2.02
-8 9 -7 20.59 2.63
-9 -8 -7 15.65 2.44
-9 -8 -7 17.57 2.42
-9 -8 7 19.02 1.76
-8 9 7 19.3 2.42
8 -9 7 18.73 2.76
8 -9 7 20.7 2.52
-9 -8 7 18.67 1.67
-9 -7 -7 5.83 1.82
-7 9 -7 3.11 1.78
-9 -7 -7 5.38 1.66
-9 -7 7 6.59 1.05
7 -9 7 7.45 1.79
-7 9 7 5 1.67
-9 -7 7 5.84 0.98
-9 -6 -7 7.96 1.74
-9 -6 -7 9.74 1.87
-6 9 -7 10.87 2.02
-9 -6 7 6.29 0.95
-9 -6 7 6.83 0.93
-6 9 7 7.47 1.69
6 -9 7 8.92 1.84
-9 -5 -7 0.8 1.51
-9 -5 -7 0.54 1.39
-5 9 -7 -0.21 1.5
5 -9 7 0.92 1.32
-9 -5 7 -0.27 0.59
-5 9 7 1.17 1.4
-9 -4 -7 32.66 2.98
-4 9 -7 27.62 2.93
-9 -4 -7 23.45 2.62
-4 9 7 27.05 2.75
9 4 7 28.8 2.79
4 -9 7 28.38 2.76
-9 -3 -7 49.97 3.9
-9 -3 -7 54.82 4.14
-3 9 -7 49.8 4.12
3 -9 7 52.18 3.86
9 3 7 48.12 3.88
-3 9 7 48.74 3.82
-9 -2 -7 33.19 2.99
-9 -2 -7 29.78 2.87
-2 9 -7 31.68 3.01
-2 9 7 27.31 2.8
9 2 7 34.64 2.99
2 -9 7 27.42 2.78
-9 -1 -7 0.07 1.47
1 -9 -7 2.97 1.33
-9 -1 -7 3.01 1.56
-1 9 -7 -0.44 1.5
-9 -1 7 1.53 0.71
9 1 7 1.26 1.46
1 -9 7 2.79 1.36
-9 -1 7 1.44 0.65
-1 9 7 1.24 1.45
-9 0 -7 9.22 1.85
0 9 -7 8.16 1.84
0 -9 -7 11.36 1.75
-9 0 -7 5.18 1.57
-9 0 7 7.36 1.05
9 0 7 8.69 1.68
0 9 7 7.81 1.74
-9 0 7 7.52 0.99
0 -9 7 7.51 1.58
-9 1 -7 26.04 2.53
-1 -9 -7 24.99 2.56
-9 1 -7 22.34 2.52
1 9 -7 21.81 2.58
-9 1 7 23.39 1.99
-9 1 7 23.16 1.91
9 -1 7 21.59 2.51
-1 -9 7 25.36 2.35
1 9 7 27.93 2.61
2 9 -7 10.93 1.92
-2 -9 -7 13.48 1.5
-9 2 -7 7.84 1.87
-2 -9 -7 15.33 1.89
-9 2 -7 10.78 1.92
-2 -9 7 7.95 1.55
2 9 7 8.73 1.77
9 -2 7 8.34 1.69
-9 2 7 8.84 1.35
-9 3 -7 4.79 1.58
-3 -9 -7 7.39 1.33
-3 -9 -7 4.13 1.62
-9 3 -7 5.42 1.75
-3 -9 7 5.34 1.27
-9 3 7 5.07 1.2
3 9 7 4.61 1.62
9 -3 7 5.21 1.69
-9 3 7 5.15 1.22
-4 -9 -7 6.04 1.78
-9 4 -7 7.02 1.72
-9 4 -7 10.19 1.94
-4 -9 -7 10.11 1.58
4 9 7 8.59 1.86
-9 4 7 8.65 1.4
-4 -9 7 9.94 1.41
9 -4 7 6.73 1.77
-5 -9 -7 12.57 2.05
-9 5 -7 12.92 2.1
-5 -9 -7 12.12 2.13
-9 5 -7 11.2 1.97
-5 -9 -7 12.52 1.83
-5 -9 7 11.9 1.48
9 -5 7 12.09 2.01
5 9 7 11.12 1.98
-5 -9 7 12.19 1.54
-9 5 7 10.36 1.71
-6 -9 -7 -0.69 1.21
-6 -9 -7 2.75 1.59
-9 6 -7 -1.47 1.32
-9 6 -7 1.05 1.41
-6 -9 -7 -0.01 1.35
-9 6 7 2.42 1.42
9 -6 7 -2.21 1.4
-6 -9 7 0.24 1.02
-6 -9 7 0.25 1
6 9 7 -0.03 1.42
-7 -9 -7 5.5 1.65
-9 7 -7 5.36 1.84
-9 7 -7 3.5 1.74
-7 -9 -7 6.63 1.9
-7 -9 -7 4.31 1.58
-7 -9 7 5.76 1.24
9 -7 7 5.32 1.73
-9 7 7 6.47 1.7
-9 8 -7 0.33 1.66
-8 -9 -7 2.27 1.77
-8 -9 -7 1.01 1.48
-9 8 7 1.22 1.6
9 -8 7 2.25 1.7
-8 -9 7 2.44 1.17
9 -8 7 0.29 1.83
-9 -9 -7 1.1 1.61
-9 -9 -7 -1.03 1.67
-9 9 -7 0.52 1.73
9 -9 -7 2.41 1.89
9 -9 7 0.31 1.65
-9 9 7 4.55 1.75
9 -9 7 5.6 2.17
-9 -9 7 2.6 1.13
-10 -9 -7 3.23 1.77
9 -10 -7 -1.48 1.92
-10 -9 -7 0.62 1.76
-9 10 -7 2.82 1.88
-9 10 7 1.42 1.75
-10 -9 7 1.14 1.15
9 -10 7 4.75 1.82
9 -10 7 1.09 2.06
8 -10 -7 1.29 1.98
-10 -8 -7 4.26 1.88
-10 -8 -7 -0.96 1.59
-8 10 -7 2.26 1.72
8 -10 7 1.98 2.03
8 -10 7 1.44 1.69
-8 10 7 2.71 1.79
-10 -8 7 2.64 1.08
-10 -8 7 3.58 0.98
7 -10 -7 0.61 1.66
-10 -7 -7 -0.7 1.55
-7 10 -7 -2.01 1.56
-10 -7 -7 1.78 1.67
7 -10 7 2.96 1.68
-7 10 7 0.01 1.59
-10 -7 7 1.8 0.84
-10 -7 7 2.17 0.92
7 -10 7 0.15 1.91
-10 -6 -7 -0.57 1.51
-10 -6 -7 2.31 1.62
-6 10 -7 1.22 1.67
-10 -6 7 1.04 0.75
-6 10 7 -0.59 1.56
6 -10 7 0.18 1.51
-10 -6 7 0.86 0.73
-10 -5 -7 3.98 1.67
-5 10 -7 -1.38 1.49
-10 -5 -7 0.18 1.51
-5 10 7 -0.19 1.44
-10 -5 7 0.71 0.64
-10 -5 7 0.65 0.65
5 -10 7 -0.25 1.45
-10 -4 -7 4.27 1.6
-10 -4 -7 4.92 1.69
-4 10 -7 4.9 1.81
-4 10 7 4.67 1.65
4 -10 7 5.53 1.67
-10 -3 -7 18.07 2.37
-10 -3 -7 17.83 2.3
-3 10 -7 17.55 2.38
3 -10 7 13.76 2.12
-3 10 7 16.57 2.22
-2 10 -7 16.84 2.39
-10 -2 -7 17.36 2.27
-10 -2 -7 16.95 2.31
2 -10 7 17.84 2.14
-2 10 7 15.82 2.2
-10 -2 7 14.33 1.27
-10 -2 7 14.41 1.24
-10 -1 -7 7.98 1.68
-1 10 -7 4.56 1.67
-10 -1 -7 5.55 1.71
1 -10 7 6.39 1.58
10 1 7 7.55 1.84
-10 -1 7 6.2 0.96
-1 10 7 7.11 1.74
-10 -1 7 6.44 0.91
0 -10 -7 2.63 1.3
-10 0 -7 0.98 1.33
0 10 -7 1.71 1.43
-10 0 -7 -0.46 1.33
-10 0 7 1.59 0.84
0 10 7 3.26 1.56
10 0 7 0.23 1.49
-10 0 7 1.11 0.88
0 -10 7 0.03 1.38
-10 1 -7 13.07 2.12
-1 -10 -7 12.89 2.06
-10 1 -7 13.29 2.1
1 10 -7 11.84 2.1
-1 -10 7 16.14 1.96
1 10 7 13.49 2.12
10 -1 7 13.76 2.09
-10 1 7 14.57 1.5
-10 1 7 15.89 1.48
-10 2 -7 22 2.49
-2 -10 -7 19.44 2.31
2 10 -7 16.02 2.2
-10 2 -7 14.61 2.12
10 -2 7 12.45 2.1
2 10 7 17.04 2.26
-2 -10 7 15.34 1.93
-10 2 7 17.6 1.66
-10 2 7 12.5 1.64
-10 3 -7 16.39 2.29
-10 3 -7 19.1 2.43
-3 -10 -7 18.76 2.35
-3 -10 -7 19.55 1.92
10 -3 7 16.99 2.29
-3 -10 7 13.75 1.84
3 10 7 12.23 2.04
-10 3 7 18.11 1.83
-4 -10 -7 2.38 1.23
-4 -10 -7 0.85 1.5
-10 4 -7 1.54 1.42
-10 4 -7 2.39 1.59
-10 4 7 2 1.15
4 10 7 2.16 1.58
10 -4 7 2.46 1.56
-4 -10 7 -1.16 1.09
-5 -10 -7 0.8 1.39
-10 5 -7 0.03 1.55
-5 -10 -7 0.29 1.21
-5 -10 -7 1.69 1.2
-10 5 -7 2.26 1.67
5 10 7 2.6 1.59
10 -5 7 6.07 1.72
-5 -10 7 0.51 1.07
-10 5 7 0.86 1.3
-10 6 -7 2.56 1.77
-6 -10 -7 5.49 1.55
-10 6 -7 2.5 1.71
-6 -10 -7 2.29 1.64
-6 -10 -7 7.99 1.93
10 -6 7 4.38 1.73
-6 -10 7 5.5 1.28
-10 6 7 3.42 1.51
-7 -10 -7 3.29 1.79
-7 -10 -7 5.9 1.66
-10 7 -7 3.74 1.71
-7 -10 -7 5.55 1.71
-10 7 -7 7.34 1.95
-10 7 7 1.96 1.61
10 -7 7 3.07 1.77
-7 -10 7 5.13 1.36
-10 8 -7 0.92 1.74
10 -8 -7 4.02 1.91
-8 -10 -7 0.92 1.58
-8 -10 -7 1.19 1.57
-8 -10 -7 2.72 1.77
-8 -10 7 -0.6 1.14
-10 8 7 -3.23 1.52
10 -8 7 -0.67 1.85
10 -9 -7 -0.2 2.07
-9 -10 -7 2.36 1.84
-9 -10 -7 -0.83 1.57
-10 9 -7 -2.13 1.6
-9 -10 -7 -1.23 1.71
-9 -10 7 -1.25 1.18
10 -9 7 1.02 2.03
-10 9 7 0.95 1.74
-10 10 -7 -0.86 1.75
-10 -10 -7 2.84 1.91
-10 -10 -7 -0.65 1.62
10 -10 -7 -1.05 2.04
-10 10 7 1.2 1.84
-10 -10 7 -1 1.15
10 -10 7 0.4 2.07
-10 11 -7 -0.53 1.8
-11 -10 -7 -1.17 1.82
-11 -10 -7 2.03 1.93
10 -11 -7 -0.56 2.14
-11 -10 7 2.72 1.36
10 -11 7 6.68 2.42
-10 11 7 -0.45 1.83
-11 -9 -7 1.92 1.95
-11 -9 -7 0.93 1.76
9 -11 -7 0.41 1.9
-9 11 -7 -1.05 1.8
9 -11 7 2.95 1.78
-11 -9 7 4.23 1.24
9 -11 7 1.43 2.19
-9 11 7 5.06 2.02
-11 -8 -7 3.17 1.89
8 -11 -7 2.64 2.16
-8 11 -7 4.89 2.01
-11 -8 -7 4.02 1.95
8 -11 7 6.9 2.33
8 -11 7 4.46 1.95
-8 11 7 5.48 1.92
-11 -8 7 2.38 1.13
-11 -7 -7 4.21 1.78
7 -11 -7 3.95 2.22
-7 11 -7 2.14 1.78
-11 -7 -7 1.62 1.8
7 -11 7 1.6 1.7
-11 -7 7 2.32 0.94
-11 -7 7 1.91 0.95
7 -11 7 3.5 2.08
-7 11 7 -0.24 1.65
6 -11 -7 -2.08 1.83
-6 11 -7 -1.94 1.61
-11 -6 -7 0.73 1.69
-11 -6 -7 1.55 1.69
-11 -6 7 0.86 0.8
6 -11 7 1.54 1.68
-11 -6 7 1.2 0.84
-6 11 7 0.47 1.72
-11 -5 -7 -0.53 1.51
-5 11 -7 -3.23 1.56
5 -11 -7 3.27 2.07
-11 -5 -7 -2.4 1.32
-5 11 7 -1.84 1.44
-11 -5 7 0 0.72
5 -11 7 -0.31 1.52
-11 -5 7 -0.17 0.71
-11 -4 -7 0.95 1.53
-11 -4 -7 -0.69 1.49
4 -11 -7 -1.66 1.51
-4 11 -7 1.94 1.65
-11 -4 7 0.61 0.75
-4 11 7 1.33 1.54
-11 -4 7 -0.02 0.64
4 -11 7 -2.9 1.41
-11 -3 -7 1.68 1.58
-3 11 -7 2.81 1.63
-11 -3 -7 0.54 1.66
3 -11 -7 1.6 1.8
-11 -3 7 2.24 0.76
-3 11 7 -0.21 1.31
3 -11 7 0.85 1.54
-11 -3 7 2.13 0.69
-2 11 -7 5.15 1.69
-11 -2 -7 4.05 1.72
-11 -2 -7 5.65 1.66
2 -11 -7 2.86 1.8
-2 11 7 2.92 1.6
-11 -2 7 5.63 0.86
2 -11 7 4.1 1.59
-11 -2 7 4.65 0.92
-11 -1 -7 2.41 1.52
1 -11 -7 5 1.81
-11 -1 -7 5.5 1.75
-1 11 -7 3.38 1.74
-11 -1 7 3.26 0.87
1 -11 7 4.89 1.63
-11 -1 7 4.02 0.97
-1 11 7 5.24 1.74
-11 0 -7 3.24 1.64
-11 0 -7 0.13 1.38
0 11 -7 -0.37 1.56
0 -11 -7 3.5 1.7
0 11 7 2.2 1.55
0 -11 7 1.46 1.48
-11 0 7 2.12 0.99
-11 0 7 1.58 0.86
-1 -11 -7 21.09 2.61
-1 -11 -7 24.82 2.73
-11 1 -7 23.61 2.71
1 11 -7 19.66 2.7
-11 1 -7 28.17 2.82
-11 1 7 24.91 2.11
1 11 7 26.92 2.76
-11 1 7 28.81 2.09
-1 -11 7 21.85 2.52
-2 -11 -7 14.06 2.16
-11 2 -7 11.77 2.16
-11 2 -7 14.94 2.3
2 11 -7 16.03 2.37
-2 -11 -7 12.07 2.01
2 11 7 10.45 2.07
-11 2 7 14.4 1.59
-2 -11 7 13.74 1.94
-11 2 7 12.47 1.62
-3 -11 -7 16.22 2.26
-3 -11 -7 15.09 2.11
-11 3 -7 17.11 2.34
-11 3 -7 17.03 2.42
-3 -11 7 11.65 1.87
-11 3 7 15.18 1.77
3 11 7 14.99 2.26
-11 4 -7 1.19 1.47
-4 -11 -7 0.5 1.33
-4 -11 -7 1.83 1.56
-11 4 -7 -1.96 1.54
4 11 7 2.08 1.65
-11 4 7 2.37 1.23
-4 -11 7 0.15 1.26
-11 5 -7 5.96 1.86
-5 -11 -7 5.41 1.85
-11 5 -7 6.56 1.94
-5 -11 -7 3.96 1.53
-11 5 7 7.27 1.6
-5 -11 7 5.27 1.43
-6 -11 -7 11.28 1.97
-11 6 -7 12 2.2
-11 6 -7 11.91 2.29
-6 -11 -7 9.69 2.1
-6 -11 7 11.53 1.71
-11 6 7 8.92 1.85
-7 -11 -7 15.26 2.36
-7 -11 -7 15.04 2.41
-11 7 -7 11 2.26
-7 -11 -7 12.1 2.08
-11 7 -7 13.47 2.42
-7 -11 7 14.91 1.83
-11 7 7 13.32 2.16
-8 -11 -7 2.82 1.8
-8 -11 -7 2.99 1.7
11 -8 -7 0.43 1.87
-8 -11 -7 1.28 1.58
-11 8 -7 3.72 1.88
11 -8 7 -0.19 1.96
-8 -11 7 2.32 1.33
-11 8 7 0.24 1.66
-9 -11 -7 0.18 1.78
11 -9 -7 -2.12 1.81
-11 9 -7 -1.6 1.73
-9 -11 -7 3.79 1.94
-9 -11 -7 -0.33 1.56
-9 -11 7 -0.52 1.25
11 -9 7 -0.05 2
-11 9 7 -1.24 1.69
-11 10 -7 -0.56 1.82
-10 -11 -7 3.38 1.92
-10 -11 -7 0.22 1.94
-10 -11 -7 0.21 1.82
11 -10 -7 4.01 2.34
11 -10 7 0.64 2.12
-11 10 7 3.13 1.85
-10 -11 7 0.28 1.3
-11 -11 -7 -0.94 2.07
-11 11 -7 0.64 1.95
-11 -11 -7 1.96 1.94
11 -11 -7 -4.02 2.07
-11 -11 -7 -2.34 1.7
-11 -11 7 -0.12 1.35
-11 11 7 -0.47 1.82
11 -11 7 -0.37 2.22
11 -12 -7 2.83 2.54
-11 12 -7 -1.37 2.09
-12 -11 -7 0.53 2.05
-12 -11 -7 1.07 2.06
-12 -11 -7 -0.62 1.92
-11 12 7 -4.55 1.89
11 -12 7 1.3 2.34
-12 -11 7 -1.68 1.31
-12 -10 -7 0.92 2.04
10 -12 -7 0.78 2.14
-10 12 -7 4.28 2.11
-12 -10 -7 -2.63 1.87
-10 12 7 1.56 1.96
-12 -10 7 1.29 1.25
10 -12 7 1.73 2.3
9 -12 -7 6.32 2.53
-12 -9 -7 7.53 2.12
-9 12 -7 8.82 2.35
-12 -9 -7 7.88 2.22
9 -12 7 10.37 2.66
-12 -9 7 7.78 1.47
-9 12 7 7.53 2.37
-12 -8 -7 11.36 2.35
-8 12 -7 16.01 2.56
8 -12 -7 8.64 2.61
-12 -8 -7 8.36 2.3
8 -12 7 9.17 2.59
8 -12 7 8.04 2.21
-12 -8 7 11.75 1.44
-8 12 7 6.07 2.13
-12 -7 -7 4.33 1.89
7 -12 -7 0.4 2.03
-12 -7 -7 4.42 2.01
-7 12 -7 1.22 1.88
-12 -7 7 1.77 0.95
7 -12 7 1.29 2.08
7 -12 7 1.71 1.81
-7 12 7 2.64 1.82
-12 -7 7 0.75 0.97
-12 -6 -7 -2.35 1.51
-12 -6 -7 -0.69 1.7
6 -12 -7 -0.94 2
-6 12 -7 2.14 1.84
-12 -6 7 1.01 0.88
6 -12 7 -0.26 1.68
-12 -6 7 -0.67 0.83
-6 12 7 -3.66 1.45
5 -12 -7 0.55 2.03
-12 -5 -7 1.5 1.83
-5 12 -7 2.29 1.86
-12 -5 -7 5.45 1.86
-12 -5 7 2.82 0.93
5 -12 7 2.53 1.8
-12 -5 7 2.71 0.88
-5 12 7 2.88 1.69
-12 -5 7 3.21 0.9
-12 -4 -7 10.84 2.12
-12 -4 -7 12.27 2.24
4 -12 -7 8.31 2.17
-4 12 -7 11.24 2.27
4 -12 7 5.48 1.94
-4 12 7 7.58 1.95
-12 -4 7 7.06 1.02
-12 -4 7 6.6 1.08
-3 12 -7 4.06 1.71
-12 -3 -7 1.15 1.69
3 -12 -7 3.22 1.96
-12 -3 -7 3.43 1.83
-3 12 7 3.53 1.77
3 -12 7 4.56 1.69
-12 -3 7 3.66 0.85
-12 -3 7 2.01 0.88
-2 12 -7 -0.55 1.69
-12 -2 -7 -1.37 1.59
-12 -2 -7 0.36 1.53
2 -12 -7 0.29 1.73
-12 -2 7 -0.62 0.84
-12 -2 7 1.35 0.8
-2 12 7 -2.52 1.5
2 -12 7 -1.37 1.38
-12 -1 -7 -0.84 1.61
1 -12 -7 0.04 1.68
-1 12 -7 -1 1.61
-12 -1 -7 1.03 1.56
-12 -1 7 1.44 0.88
1 -12 7 1.04 1.49
-1 12 7 -0.21 1.6
-12 -1 7 1.97 0.96
0 -12 -7 3.85 1.69
0 12 -7 1.76 1.66
-12 0 -7 0.33 1.33
-12 0 -7 3.78 1.75
0 -12 7 2.47 1.61
-12 0 7 0.31 0.93
0 12 7 1.15 1.62
-12 0 7 -1.7 0.97
-1 -12 -7 7.42 1.93
-12 1 -7 7 2
1 12 -7 9.81 2.09
-12 1 -7 7.11 2.01
-12 1 7 7.6 1.43
1 12 7 6.74 1.93
-1 -12 7 9.46 1.89
2 12 -7 8.49 2.05
-12 2 -7 5.38 1.93
-2 -12 -7 8.94 1.92
-2 -12 -7 7.74 1.93
-12 2 -7 7.29 2.05
-12 2 7 10.58 1.56
2 12 7 7.59 1.84
-2 -12 7 9.04 1.75
-12 3 -7 5.18 1.87
-3 -12 -7 2.86 1.71
-3 -12 -7 6.75 1.62
-12 3 -7 3.34 1.84
3 12 -7 5.34 1.93
-12 3 7 1.35 1.23
-3 -12 7 1.51 1.48
-12 4 -7 3.23 1.69
-4 -12 -7 3.61 1.54
-12 4 -7 0.8 1.61
-4 -12 -7 3.43 1.8
-12 4 7 0.39 1.28
-4 -12 7 2.54 1.49
-5 -12 -7 13.53 2.34
-12 5 -7 11.11 2.27
-12 5 -7 7.79 2.09
-12 5 7 9.85 1.85
-5 -12 7 10.07 1.8
-6 -12 -7 15.63 2.55
-6 -12 -7 12.87 2.02
-12 6 -7 13.08 2.48
-12 6 -7 10.91 2.33
-12 6 7 17.96 2.34
-6 -12 7 14.22 2.02
-7 -12 -7 14.36 2.26
-12 7 -7 16.19 2.63
-12 7 -7 14.48 2.47
-7 -12 -7 14.65 2.38
12 -7 -7 14.46 2.77
-12 7 7 13.31 2.27
-7 -12 7 13.21 1.9
-8 -12 -7 3.36 1.8
12 -8 -7 3.65 2.29
-8 -12 -7 3.59 1.95
-12 8 -7 2.44 1.91
-8 -12 7 2.8 1.41
-12 8 7 2.8 1.69
12 -9 -7 2.1 2.26
-9 -12 -7 4.14 1.84
-9 -12 -7 1.79 1.99
-12 9 -7 1.03 1.88
-12 9 7 -1.05 1.79
-9 -12 7 0.29 1.4
12 -9 7 4.29 2.34
12 -10 -7 2.29 2.4
-10 -12 -7 3.37 2.12
-12 10 -7 1.77 1.96
-10 -12 -7 2.63 1.91
-10 -12 -7 2.48 2.06
-10 -12 7 1.96 1.5
12 -10 7 5.26 2.43
-12 10 7 3.29 2.07
-11 -12 -7 3.95 2.24
-12 11 -7 3.49 2.12
-11 -12 -7 1.86 2.1
-11 -12 -7 4.14 2.19
12 -11 -7 2.27 2.36
12 -11 7 5.1 2.58
-11 -12 7 3.41 1.62
-12 11 7 3.59 2.12
-12 12 -7 3.84 2.25
-12 -12 -7 0.88 2.11
-12 -12 -7 0.92 2.17
12 -12 -7 6.18 2.89
-12 -12 -7 -1.5 1.92
-12 12 7 -1.25 2.01
-12 -12 7 2.5 1.55
12 -12 7 0.29 2.42
-11 13 -7 2.65 2.15
11 -13 -7 -1.48 2.56
-13 -11 -7 0.29 2.06
-13 -11 -7 1.9 2.15
11 -13 7 3.3 2.6
-13 -11 7 -0.15 1.39
-11 13 7 0.61 2.06
10 -13 -7 -0.05 2.17
-10 13 -7 -1.93 1.95
-13 -10 -7 1.27 1.94
-13 -10 -7 -0.8 1.98
-13 -10 7 0.49 1.29
10 -13 7 1.25 2.39
-10 13 7 1.96 2.1
-13 -9 -7 2.56 2.1
-13 -9 -7 1.53 2.08
-9 13 -7 3.31 2.24
9 -13 -7 3.48 2.53
-9 13 7 4.95 2.23
-13 -9 7 6.01 1.4
9 -13 7 7.4 2.59
-13 -8 -7 4.16 2.12
8 -13 -7 8.54 2.69
-8 13 -7 5.98 2.2
-13 -8 -7 8.41 2.31
8 -13 7 4.95 2.19
-13 -8 7 7.34 1.31
-8 13 7 7.43 2.26
8 -13 7 5.03 2.1
-7 13 -7 0.18 1.85
-13 -7 -7 2.53 1.9
7 -13 -7 9.79 2.61
-13 -7 -7 1.12 1.98
-13 -7 7 3.3 1.08
7 -13 7 3.85 2.05
7 -13 7 3.85 2.04
-7 13 7 3.04 1.93
6 -13 -7 1.28 2.15
-13 -6 -7 5.3 2.03
-6 13 -7 -3.25 1.69
-13 -6 -7 2.73 1.99
6 -13 7 -1.64 1.68
-13 -6 7 0.24 0.94
-13 -6 7 0.89 0.96
-6 13 7 -1.55 1.71
5 -13 -7 13.11 2.68
-5 13 -7 9.29 2.26
-13 -5 -7 8.31 2.29
-13 -5 -7 8.44 2.12
5 -13 7 6.7 2.1
-13 -5 7 10.04 1.29
-5 13 7 7.99 2.17
-13 -5 7 9.07 1.17
-13 -4 -7 16.04 2.61
4 -13 -7 11.74 2.68
-4 13 -7 10.79 2.4
-13 -4 -7 13.71 2.37
-13 -4 7 13.89 1.45
-4 13 7 8.68 2.24
-13 -4 7 15.79 1.43
4 -13 7 15.14 2.46
-13 -3 -7 11.38 2.22
-3 13 -7 7.11 2.17
3 -13 -7 10.57 2.41
-13 -3 -7 4.86 2
-13 -3 7 11.24 1.24
-3 13 7 12.48 2.27
3 -13 7 10.22 2.13
-13 -3 7 7.99 1.23
-13 -2 -7 3.54 1.85
2 -13 -7 0.44 1.86
-13 -2 -7 0.83 1.8
-2 13 -7 2.38 1.71
-13 -2 7 1.34 0.93
2 -13 7 3.28 1.82
-2 13 7 2.14 1.84
-13 -2 7 4.83 1.08
-13 -1 -7 2.62 1.79
1 -13 -7 1.11 1.68
-1 13 -7 -0.68 1.73
-13 -1 -7 1.28 1.85
-13 -1 7 -0.71 0.99
-1 13 7 -1.51 1.64
1 -13 7 0.95 1.59
-13 -1 7 -0.65 0.92
-13 0 -7 -0.15 1.51
0 -13 -7 -1.89 1.6
0 13 -7 -0.53 1.5
-13 0 -7 -1.15 1.68
0 13 7 -0.22 1.74
-13 0 7 0.48 1.09
0 -13 7 -0.44 1.5
-13 1 -7 0 1.69
-1 -13 -7 2.11 1.66
1 13 -7 1.48 1.75
-13 1 -7 -1.54 1.68
-13 1 7 -0.31 1.17
-1 -13 7 0.89 1.64
1 13 7 1.31 1.77
-13 2 -7 1.15 1.82
2 13 -7 2.01 1.82
-13 2 -7 -1.15 1.72
-2 -13 -7 0.74 1.64
-13 2 7 0.9 1.29
-2 -13 7 1.78 1.61
-3 -13 -7 1.86 1.8
3 13 -7 0.87 1.6
-13 3 -7 -0.15 1.79
-3 -13 -7 -0.9 1.49
-13 3 -7 1.65 1.82
-3 -13 7 0.91 1.44
-13 3 7 -1.07 1.24
-4 -13 -7 -0.06 1.7
-13 4 -7 0.57 1.85
-13 4 -7 0.58 1.8
-4 -13 7 -0.45 1.46
-13 4 7 -2.28 1.23
-13 5 -7 -1.63 1.77
-13 5 -7 0.66 1.8
-5 -13 -7 -2.23 1.69
-13 5 7 1.72 1.5
-5 -13 7 -0.42 1.5
-13 6 -7 4.18 1.83
13 -6 -7 2.12 2.06
-13 6 -7 3.12 1.82
-6 -13 -7 3.02 1.98
-13 6 7 1.71 1.62
-6 -13 7 3.76 1.62
13 -7 -7 4.87 2.39
-13 7 -7 3.7 2.02
-13 7 -7 4.92 2.18
-7 -13 -7 4.12 2.03
-7 -13 7 0.88 1.44
-13 7 7 4.39 1.84
13 -8 -7 0.33 2.22
-8 -13 -7 -3.42 1.71
-13 8 -7 -0.97 1.88
-13 8 7 -2.56 1.64
-8 -13 7 -0.84 1.37
-13 9 -7 1.02 1.94
13 -9 -7 2.04 2.41
-9 -13 -7 0.16 1.9
-9 -13 -7 1.21 1.76
-9 -13 7 -0.08 1.52
-13 9 7 0.89 1.98
-10 -13 -7 6.03 2.09
-13 10 -7 2.98 2.12
13 -10 -7 5.26 2.66
-10 -13 -7 6.44 2.28
-10 -13 7 1.19 1.55
13 -10 7 5.03 2.52
-13 10 7 2.34 2.14
13 -11 -7 5.93 2.94
-11 -13 -7 0.96 2.18
-11 -13 -7 3.32 2.13
-13 11 -7 5.25 2.21
-11 -13 7 3.13 1.68
13 -11 7 2.9 2.5
-13 11 7 -0.18 2.01
9 -14 -7 -0.67 2.25
-9 14 -7 -3.38 1.93
-14 -9 -7 5.45 2.39
-14 -9 -7 1.49 2.12
9 -14 7 4.34 2.44
-14 -9 7 0.35 1.23
-9 14 7 -0.81 1.99
-14 -8 -7 1.69 1.99
8 -14 -7 1.98 2.53
-8 14 -7 -0.03 2.13
-14 -8 -7 4.53 2.21
8 -14 7 2.46 2.32
-8 14 7 1.91 2.12
-14 -8 7 -0.45 1.1
-14 -7 -7 -0.49 1.97
-14 -7 -7 0.93 1.92
-7 14 -7 -0.65 1.97
7 -14 -7 2.89 2.48
7 -14 7 1.13 2.01
-14 -7 7 -1.57 1.03
-7 14 7 -1.21 1.94
-6 14 -7 -0.71 1.8
6 -14 -7 0.42 2.29
-14 -6 -7 -0.15 1.89
-14 -6 -7 1.3 1.96
-14 -6 7 0.35 1
6 -14 7 -0.65 1.86
-6 14 7 -1.86 1.78
-14 -5 -7 0.61 1.85
5 -14 -7 0.96 2.21
-14 -5 -7 1.9 2.03
-5 14 -7 0.37 1.91
-5 14 7 4.78 2.05
5 -14 7 4.33 2.02
-14 -5 7 5.24 1.16
-4 14 -7 4.82 2.21
-14 -4 -7 4.51 2.09
-14 -4 -7 9.08 2.21
4 -14 -7 10.59 2.6
-4 14 7 7.22 2.17
-14 -4 7 8.93 1.28
4 -14 7 7.29 2.2
-3 14 -7 6.12 2.1
3 -14 -7 8.99 2.44
-14 -3 -7 4.8 2.1
-14 -3 -7 4.56 1.86
3 -14 7 9.06 2.15
-14 -3 7 5.59 1.19
-3 14 7 2.64 1.9
-2 14 -7 -0.12 1.69
2 -14 -7 1.89 1.96
-14 -2 -7 1.96 1.88
-14 -2 -7 3.63 1.91
2 -14 7 -2.41 1.63
-14 -2 7 0.68 1.13
-2 14 7 0.46 1.84
-1 14 -7 2.95 1.98
1 -14 -7 1.03 1.9
-14 -1 -7 -0.7 1.77
-14 -1 -7 0.74 1.71
-1 14 7 -1.52 1.53
-14 -1 7 1.5 1.15
1 -14 7 1.78 1.69
-14 0 -7 7.62 2.18
-14 0 -7 5.58 2.2
0 14 -7 10.61 2.28
0 -14 -7 6.34 2.21
-14 0 7 6.05 1.42
0 -14 7 5.73 1.89
-1 -14 -7 4.59 1.98
-14 1 -7 4.94 2.05
1 14 -7 2.28 1.9
-14 1 -7 7.8 2.21
-1 -14 7 3.8 1.79
-14 1 7 4.2 1.44
-14 2 -7 1.53 1.93
-14 2 -7 0.14 1.83
-2 -14 -7 2.29 1.82
2 14 -7 4.4 2.01
-2 -14 7 0.94 1.6
-14 2 7 0.79 1.35
-14 3 -7 4.37 2.01
-3 -14 -7 2.72 1.79
-14 3 -7 -2.47 1.82
3 14 -7 -0.91 1.81
-3 -14 7 -2.48 1.56
-14 3 7 0.4 1.38
-14 4 -7 -0.07 1.87
14 -4 -7 1.56 1.97
-14 4 -7 0.77 1.89
-4 -14 7 2.13 1.67
-14 4 7 0.38 1.42
-14 5 -7 2.15 2.02
14 -5 -7 -0.49 2.02
-5 -14 -7 2.15 1.78
-14 5 -7 2.9 2
-5 -14 7 -0.57 1.61
-14 5 7 -0.63 1.5
-14 6 -7 0.36 1.91
-14 6 -7 2.88 2
14 -6 -7 -1.5 2.04
-6 -14 -7 0.41 1.9
-6 -14 7 0.17 1.53
-14 6 7 0 1.61
-7 -14 -7 -1.35 1.93
-14 7 -7 -0.81 1.85
14 -7 -7 -0.02 2.14
-7 -14 7 1.23 1.57
-14 7 7 -1.88 1.73
14 -8 -7 0.24 2.27
-14 8 -7 -1.47 1.91
-8 -14 -7 -1.17 1.9
-8 -14 7 0.14 1.55
-14 8 7 2.26 1.9
-14 9 -7 1.44 2.13
14 -9 -7 -2.14 2.27
-9 -14 -7 -3.8 1.88
-9 -14 7 0.92 1.62
-14 9 7 -0.41 1.95
-8 15 -7 3.15 2.35
-15 -8 -7 -0.45 2.08
-15 -8 -7 1.13 2.09
8 -15 -7 -1.19 2.56
-15 -8 7 0.48 1.13
-8 15 7 -1.39 2.13
-15 -7 -7 -2.84 1.99
-7 15 -7 -0.5 2
-15 -7 -7 -0.39 1.92
7 -15 -7 -1.15 2.41
7 -15 7 1.75 2.1
-7 15 7 0.85 2.12
-15 -7 7 0.23 1.1
-15 -6 -7 -1.56 2.05
-15 -6 -7 -1.94 1.96
6 -15 -7 -0.08 2.4
-6 15 -7 0.57 2.03
-6 15 7 0.38 2.04
-15 -6 7 1.13 1.13
-15 -6 7 -1.11 1.03
6 -15 7 1.68 2.04
5 -15 -7 -0.11 2.25
-5 15 -7 0.27 1.94
-15 -5 -7 1.61 2.06
-15 -5 -7 0.54 1.85
5 -15 7 1.4 1.89
-15 -5 7 0.89 1.14
-5 15 7 1.12 2.02
-15 -4 -7 2.08 2.04
4 -15 -7 1.83 2.31
-4 15 -7 0.82 2.02
-15 -4 -7 3.76 2.06
-4 15 7 4.19 2.13
-15 -4 7 2.51 1.17
4 -15 7 4.59 2.1
-15 -3 -7 0.35 1.89
-3 15 -7 -0.16 1.84
3 -15 -7 5.7 2.32
-15 -3 -7 5.62 2.16
-3 15 7 4.08 2
3 -15 7 3.93 1.96
-15 -3 7 1.54 1.17
2 -15 -7 2.93 2.12
-2 15 -7 0.46 1.94
-15 -2 -7 -0.13 1.87
-15 -2 -7 0.3 1.68
-15 -2 7 0.62 1.24
2 -15 7 -1.42 1.67
-15 -1 -7 -0.6 2
-1 15 -7 5.19 2.21
-15 -1 -7 0.48 2
1 -15 -7 -0.22 1.96
1 -15 7 3.7 1.91
-15 -1 7 3.17 1.33
-15 0 -7 6.86 2.26
0 15 -7 10.47 2.43
-15 0 -7 11.21 2.53
0 -15 -7 12.37 2.47
0 -15 7 8.76 2.15
-15 0 7 9.76 1.66
1 15 -7 2.92 2.11
-15 1 -7 6.38 2.25
-15 1 -7 5.56 2.26
-1 -15 -7 3.77 2.09
-15 1 7 4.09 1.54
-1 -15 7 4.32 2.01
-15 2 -7 2.7 2.09
-15 2 -7 6.25 2.25
-2 -15 -7 3.58 1.93
2 15 -7 1.63 2.05
-2 -15 7 3.59 1.9
-15 2 7 1.79 1.45
-15 3 -7 -1.4 1.93
-15 3 -7 -3.34 1.73
15 -3 -7 -0.77 1.76
3 15 -7 0.18 1.94
-3 -15 7 -1.79 1.7
-15 3 7 -0.56 1.37
4 15 -7 -0.59 1.95
-15 4 -7 4.76 2.16
-15 4 -7 5.77 2.3
15 -4 -7 2.47 2.21
-4 -15 7 4 1.87
-15 4 7 2.59 1.59
-15 5 -7 1.95 2.09
15 -5 -7 3.87 2.29
-15 5 -7 0.13 2.11
-5 -15 7 2.14 1.84
-15 5 7 -1.21 1.6
15 -6 -7 -3.13 2.2
-15 6 -7 0.44 2.05
-15 6 -7 3.48 2.15
-15 6 7 0.7 1.77
-6 -15 7 1.04 1.74
-15 7 -7 -0.38 1.98
-7 -15 -7 2.28 2.15
15 -7 -7 0.38 2.3
-15 7 7 -4.02 1.66
-7 -15 7 -3.03 1.53
-15 8 -7 0.65 2.08
-8 -15 -7 -0.01 2.16
15 -8 -7 2.43 2.56
-15 8 7 2.58 2.01
-8 -15 7 0.53 1.68
-16 -6 -7 0.15 2.15
6 -16 -7 2.57 2.58
-16 -6 -7 -0.68 2.06
-6 16 -7 -4.82 2
-6 16 7 2.91 2.21
-16 -6 7 -0.12 1.19
6 -16 7 -1.26 2.1
-16 -5 -7 -0.35 2.09
-5 16 -7 0.45 2.04
5 -16 -7 2.25 2.57
-16 -5 -7 -0.18 2.1
-16 -5 7 1.09 1.26
5 -16 7 -0.93 1.93
-16 -4 -7 3.46 2.16
-16 -4 -7 0.25 1.87
-4 16 -7 -1.26 2.03
4 -16 -7 1.69 2.45
4 -16 7 -2.02 1.99
-16 -4 7 -0.93 1.17
3 -16 -7 -0.13 2.14
-16 -3 -7 -3.36 1.87
-3 16 -7 0.74 2.12
-16 -3 -7 0.09 2.11
3 -16 7 0.21 1.87
-16 -3 7 -0.83 1.18
2 -16 -7 2.2 2.29
-16 -2 -7 3.47 2.18
-2 16 -7 1.3 2.04
-16 -2 -7 -0.29 1.93
2 -16 7 2.11 1.96
-16 -2 7 0.74 1.29
1 -16 -7 -0.4 2.06
-16 -1 -7 -2.96 1.94
-16 -1 -7 -0.53 1.75
-1 16 -7 -0.57 2.05
1 -16 7 -2.31 1.84
-16 -1 7 0.06 1.33
0 16 -7 2.49 2.15
0 -16 -7 2.74 2.01
-16 0 -7 2.22 2.01
-16 0 -7 4.37 2.2
0 -16 7 1.34 1.92
-16 0 7 2.57 1.44
-16 1 -7 4.99 2.27
-16 1 -7 -1.48 1.99
1 16 -7 2.21 2.12
-1 -16 -7 0.59 2.06
-1 -16 7 3.45 2.12
-16 1 7 2.7 1.5
-16 2 -7 4.47 2.2
16 -2 -7 -1.5 1.93
2 16 -7 0.85 2.14
-16 2 -7 -1.29 2.06
-16 2 7 2.33 1.57
-2 -16 7 3.02 2.09
16 -3 -7 1.98 2.13
3 16 -7 0.53 2.1
-16 3 -7 -1.05 2.04
-16 3 -7 0.22 2.04
-3 -16 7 -0.77 1.85
-16 3 7 -0.51 1.54
4 16 -7 0.99 2.14
16 -4 -7 2 2.24
-16 4 -7 3.71 2.18
-16 4 -7 1.89 2.19
-4 -16 7 1.56 1.94
-16 4 7 3.4 1.68
-16 5 -7 2.65 2.12
5 16 -7 0.98 2.02
-16 5 -7 6.84 2.48
16 -5 -7 4.73 2.41
-5 -16 7 0.9 1.9
-16 5 7 4.84 1.93
-16 6 -7 3.75 2.21
16 -6 -7 0.92 2.38
-16 6 7 1.37 1.79
-2 17 -7 -0.36 2.23
-17 -1 -7 -3.2 2.06
-17 -1 -7 -2.75 2.07
-1 17 -7 2.65 2.36
1 -17 -7 -3.76 2.12
1 -17 7 1.17 2.07
-17 -1 7 1.36 1.51
0 17 -7 -0.34 2.16
0 -17 -7 2.2 2.13
-17 0 -7 -0.51 2.17
-17 0 -7 0.75 2.13
-17 0 7 -1.71 1.5
0 -17 7 0.52 1.97
-17 1 -7 -1.78 2.1
-17 1 -7 3.44 2.37
1 17 -7 -0.86 2.04
-1 -17 7 -1.09 1.85
-17 1 7 -0.33 1.58
2 17 -7 0.15 2.06
0 0 -8 19.92 1.8
0 0 8 19.72 1.77
0 0 8 23.14 1.83
-1 0 -8 30.41 2.3
1 0 -8 29.47 2.19
0 -1 -8 28.88 2.17
0 1 -8 28.89 2.32
-1 0 8 27.36 2.09
0 -1 8 29.29 2.2
1 0 8 27.03 2.22
-1 0 8 30.06 2.15
0 -1 8 26.54 2.14
0 1 8 30.35 2.17
1 0 8 25.76 2.2
0 1 8 30.23 2.23
1 -1 -8 44.06 2.86
-1 -1 -8 39.79 2.87
1 1 -8 43.9 2.93
-1 1 -8 40.28 2.98
-1 1 8 40.29 2.83
-1 -1 8 42.36 2.79
1 -1 8 40.82 2.86
-1 1 8 45.28 2.88
1 -1 8 40 2.86
1 1 8 39.77 2.88
2 1 -8 24.67 2.13
-2 -1 -8 26.28 2.17
-1 2 -8 27.06 2.34
1 -2 -8 26.18 2
-2 -1 -8 28.09 2.21
2 1 8 29.22 2.27
1 -2 8 24.41 2.16
1 -2 8 26.59 2.2
-2 -1 8 27.83 1.93
-2 -1 8 26.86 1.94
-1 2 8 25.71 2.13
-1 2 8 26.3 2.09
-2 0 -8 51.95 3.65
0 -2 -8 55.11 3.47
2 0 -8 52.48 3.51
0 2 -8 53.64 3.67
-2 0 -8 48.55 3.51
0 -2 8 54.13 3.45
0 2 8 64.33 3.66
-2 0 8 55.38 3.41
2 0 8 55.2 3.58
0 2 8 51.86 3.52
0 -2 8 52.75 3.46
-2 1 -8 34.57 2.75
1 2 -8 39.02 2.84
-1 -2 -8 36.26 2.6
-1 -2 -8 37.61 2.74
-2 1 -8 40.05 2.88
2 -1 -8 37.43 2.59
-1 -2 8 39.7 2.59
1 2 8 36.88 2.73
-2 1 8 37.27 2.61
2 -1 8 37.87 2.74
-2 -2 -8 0.1 0.86
-2 2 -8 0.52 1.03
2 2 -8 -0.47 0.84
-2 -2 -8 -0.15 0.88
2 -2 -8 -0.01 0.67
2 -2 8 0.05 0.98
-2 2 8 -0.18 0.78
-2 2 8 0.47 0.86
-2 -2 8 0.01 0.71
-2 -2 8 0.01 0.62
2 2 8 -0.74 0.84
2 -3 -8 16.84 1.47
-2 3 -8 15.99 1.85
-3 -2 -8 17.58 1.74
-3 -2 -8 17.2 1.81
3 2 -8 18.43 1.78
-2 3 8 17.13 1.69
-3 -2 8 16.48 1.43
3 2 8 23.15 1.99
-3 -2 8 17.62 1.43
2 -3 8 18.74 1.78
-2 3 8 17.8 1.71
-1 3 -8 22.83 2.01
1 -3 -8 19.65 1.51
-3 -1 -8 21.15 1.86
-3 -1 -8 18.04 1.8
3 1 -8 20.28 1.72
-3 -1 8 14.72 1.34
-1 3 8 14.64 1.67
1 -3 8 17.41 1.67
1 -3 8 15.37 1.66
-1 3 8 14.4 1.67
3 1 8 13.4 1.73
-3 -1 8 16.73 1.39
3 0 -8 13.74 1.42
0 -3 -8 14.22 1.34
-3 0 -8 20.01 1.83
-3 0 -8 17.87 1.7
0 3 -8 17.03 1.77
-3 0 8 14.81 1.32
-3 0 8 14 1.29
0 -3 8 13.34 1.46
0 3 8 13.29 1.6
3 0 8 12.64 1.61
0 -3 8 14.37 1.48
-3 1 -8 21.78 1.84
3 -1 -8 18.28 1.54
1 3 -8 18.27 1.85
-1 -3 -8 15.84 1.53
-1 -3 -8 16.13 1.71
-3 1 -8 17.36 1.87
3 -1 8 15.44 1.72
-3 1 8 17.39 1.5
-1 -3 8 18.23 1.56
-3 1 8 18.55 1.54
1 3 8 15.19 1.74
2 3 -8 5.05 1.2
-3 2 -8 6.34 1.28
-3 2 -8 4.71 1.17
-2 -3 -8 3.43 1
-2 -3 -8 6.22 1.21
3 -2 -8 6.55 0.88
-2 -3 8 7.04 0.9
-2 -3 8 5.75 0.93
3 -2 8 5.29 1.2
-3 2 8 5.17 1.01
2 3 8 5.99 1.27
-3 2 8 2.32 0.72
-3 3 -8 15.23 1.61
-3 3 -8 14.19 1.81
3 3 -8 14.74 1.68
3 -3 -8 14.13 1.14
-3 -3 -8 13.31 1.56
-3 -3 -8 12.11 1.61
-3 3 8 10.91 1.4
3 3 8 13.18 1.7
-3 -3 8 13.5 1.2
-3 -3 8 13.91 1.2
-3 3 8 15.2 1.54
3 -3 8 15.66 1.65
-4 -3 -8 14.34 1.84
-4 -3 -8 16.06 1.75
-3 4 -8 13.32 1.91
-3 4 -8 15.42 1.73
4 3 8 15.4 1.89
-3 4 8 19 1.76
3 -4 8 17.95 1.86
-3 4 8 15.89 1.71
-4 -3 8 16.37 1.28
-4 -3 8 16.05 1.3
-2 4 -8 66.59 4.49
-4 -2 -8 68.05 4.29
2 -4 -8 64.44 3.8
-4 -2 -8 59.72 4.23
2 -4 8 59.74 4.14
-2 4 8 68.87 4.23
-2 4 8 64.45 4.13
4 2 8 65.69 4.29
-4 -2 8 63.24 3.77
1 -4 -8 121.35 7.02
-4 -1 -8 117.35 7.28
4 1 -8 121.95 7.27
-4 -1 -8 119.4 7.38
-1 4 -8 122.94 7.49
-4 -1 8 120.3 6.89
-1 4 8 121.9 7.22
1 -4 8 121.12 7.18
1 -4 8 122.14 7.17
4 1 8 125.88 7.3
0 -4 -8 26.91 2.19
-4 0 -8 21.57 2.25
0 -4 -8 21.98 1.9
0 -4 -8 25.88 2.19
0 4 -8 21.55 2.35
-4 0 -8 27.37 2.34
4 0 -8 25.9 2.06
0 -4 8 28.9 2.15
4 0 8 28.94 2.24
-4 0 8 25.32 1.82
0 4 8 27.03 2.26
0 -4 8 25.29 2.12
-4 0 8 28.82 1.86
4 -1 -8 17.13 1.46
-1 -4 -8 14.59 1.7
-4 1 -8 14.29 1.83
-1 -4 -8 14.32 1.46
-4 1 -8 13.34 1.67
1 4 -8 15.34 1.83
-1 -4 8 17.98 1.57
1 4 8 17.07 1.82
-4 1 8 18.04 1.44
4 -1 8 15.94 1.79
-4 1 8 15.83 1.4
2 4 -8 7.56 1.32
-4 2 -8 8.18 1.51
4 -2 -8 8.27 0.97
-2 -4 -8 7.51 1.13
-2 -4 -8 9.69 1.41
-4 2 -8 6.48 1.28
-2 -4 8 6.14 1.02
-4 2 8 5.81 0.9
-4 2 8 5.69 1.06
2 4 8 5.26 1.31
-2 -4 8 5.9 0.99
4 -2 8 7.46 1.38
-3 -4 -8 24.92 2.15
-4 3 -8 23.39 2.34
-3 -4 -8 21.46 1.93
3 4 -8 19.2 2.11
4 -3 -8 20.07 1.57
-4 3 -8 22.05 2.07
-4 3 8 25.04 1.99
-3 -4 8 19.6 1.67
-4 3 8 23.22 1.9
4 -3 8 20.58 2.08
3 4 8 24.69 2.26
-3 -4 8 20.95 1.68
-4 4 -8 25.21 2.62
-4 -4 -8 28.83 2.57
-4 -4 -8 29.53 2.48
-4 4 -8 29.86 2.54
-4 -4 8 28.55 1.95
-4 4 8 30.61 2.44
4 -4 8 28.93 2.55
4 4 8 26.98 2.57
-4 4 8 29.22 2.37
-4 -4 8 29.52 1.97
-5 -4 -8 9.13 1.64
-4 5 -8 8.44 1.52
-5 -4 -8 10.16 1.47
4 -5 8 7.44 1.58
-4 5 8 8.85 1.47
-4 5 8 7.68 1.45
-5 -4 8 9.16 0.89
5 4 8 7.4 1.53
-5 -4 8 8.79 0.88
-4 5 8 10.23 1.48
-3 5 -8 68.11 4.42
-5 -3 -8 69.26 4.53
-5 -3 -8 66.66 4.46
-3 5 8 69.1 4.42
3 -5 8 66.99 4.47
5 3 8 66.15 4.47
-3 5 8 68.27 4.37
-5 -3 8 67.23 3.87
-5 -3 8 66.17 3.87
-5 -2 -8 103.53 6.43
-5 -2 -8 104.82 6.55
-2 5 -8 103.35 6.6
2 -5 8 110.04 6.41
-5 -2 8 101.94 5.91
-5 -2 8 106.33 5.92
5 2 8 108.44 6.52
-2 5 8 102.37 6.38
-5 -1 -8 137.15 8.36
-5 -1 -8 135.24 8.29
1 -5 -8 137.32 8.16
1 -5 -8 136.23 7.95
-1 5 -8 141.22 8.5
1 -5 8 136.48 8.17
-5 -1 8 140.71 7.79
-5 -1 8 138.25 7.8
1 -5 8 141.8 8.15
5 1 8 143.28 8.33
-1 5 8 136.36 8.2
0 -5 -8 34 2.69
-5 0 -8 34.13 2.73
0 -5 -8 34.18 2.33
-5 0 -8 33.5 2.78
0 5 -8 35.06 2.99
0 -5 8 34.25 2.62
5 0 8 36.55 2.85
-5 0 8 34.35 2.24
0 5 8 34.94 2.76
0 -5 8 35.13 2.59
-1 -5 -8 3.38 1.16
-5 1 -8 3.48 1.33
-5 1 -8 5.24 1.32
-1 -5 -8 4.73 1.23
1 5 -8 3.41 1.32
-1 -5 -8 3.96 0.9
-1 -5 8 5.08 1.07
1 5 8 6.95 1.42
5 -1 8 5.64 1.35
-5 1 8 4.87 0.86
-5 1 8 3.3 0.85
-1 -5 8 3.77 0.94
-2 -5 -8 39.26 3.02
-5 2 -8 38.88 3.3
-2 -5 -8 39.66 2.76
5 -2 -8 36.91 2.55
2 5 -8 41.85 3.21
-5 2 -8 39.6 3.02
2 5 8 37.7 2.95
-2 -5 8 37.18 2.63
-5 2 8 42.71 2.72
-2 -5 8 42.12 2.72
-5 2 8 38.01 2.63
5 -2 8 35.08 2.92
3 5 -8 99.22 6.72
-5 3 -8 118.38 6.88
-5 3 -8 104.8 6.57
5 -3 -8 105.22 6.18
-3 -5 -8 102.94 6.48
-3 -5 -8 113.06 6.65
-5 3 8 112.1 6.34
5 -3 8 115.65 6.64
3 5 8 106.69 6.62
-3 -5 8 101.89 6.22
-3 -5 8 99.3 6.21
-5 3 8 109.01 6.35
-4 -5 -8 50.84 3.62
-5 4 -8 50.9 3.7
-4 -5 -8 54.99 3.8
5 -4 8 53.48 3.77
-5 4 8 48.99 3.46
4 5 8 49.96 3.65
-5 4 8 51.12 3.5
-4 -5 8 52.35 3.22
-5 5 -8 5.4 1.45
-5 -5 -8 4.41 1.32
-5 -5 -8 6.56 1.49
-5 5 8 4.78 1.35
5 -5 8 6.88 1.53
-5 -5 8 5.8 0.88
-5 -5 8 7.12 0.88
5 5 8 4.93 1.5
-5 5 8 7.99 1.34
-5 5 8 6.07 1.36
-6 -5 -8 16.04 2.11
-5 6 -8 12.37 2.14
-5 6 -8 15.91 2.04
-6 -5 -8 16.93 2.01
-6 -5 8 14.23 1.21
5 -6 8 13.06 1.92
-6 -5 8 15.8 1.29
6 5 8 17.51 2.11
-5 6 8 16.91 1.97
-6 -4 -8 2.26 1.28
-6 -4 -8 0.6 1.37
-4 6 -8 0.79 0.59
-4 6 -8 2.61 1.26
-4 6 8 -0.86 1.15
4 -6 8 0.84 1.29
6 4 8 -0.71 1.3
-6 -3 -8 9.1 1.57
-3 6 -8 6.1 1.37
-6 -3 -8 8.95 1.6
-3 6 8 5.25 1.41
6 3 8 3.27 1.47
3 -6 8 5.26 1.41
-6 -2 -8 47.69 3.43
2 -6 -8 47.8 3.22
-6 -2 -8 45.16 3.43
6 2 8 40.8 3.35
-2 6 8 42.82 3.28
2 -6 8 39.37 3.19
1 -6 -8 47.53 2.84
-6 -1 -8 46.48 3.49
-6 -1 -8 43.2 3.4
1 -6 -8 48.07 3.44
-1 6 8 48.32 3.43
6 1 8 49.84 3.52
-6 -1 8 43.83 2.74
1 -6 8 50.38 3.3
1 -6 8 42.43 3.25
-6 -1 8 44.76 2.73
-6 0 -8 8.23 1.55
0 -6 -8 9.33 1.02
-6 0 -8 8.55 1.59
0 -6 -8 11.01 1.49
0 6 -8 5.94 1.64
-6 0 8 6.94 0.91
0 -6 8 10.03 1.37
0 6 8 7.28 1.49
0 -6 8 7.87 1.34
-6 0 8 7.86 0.95
6 0 8 7.47 1.58
1 6 -8 8.64 1.65
-1 -6 -8 11.08 1.63
-1 -6 -8 12.92 1.27
-6 1 -8 10.17 1.68
-6 1 -8 10.03 1.76
-6 1 8 10.75 1.16
-1 -6 8 11.24 1.42
6 -1 8 12.12 1.79
1 6 8 12.2 1.78
-2 -6 -8 67.05 4.49
2 6 -8 62.88 4.55
-6 2 -8 67.48 4.59
-2 -6 -8 72.94 4.58
-6 2 -8 63.33 4.41
-2 -6 -8 68.08 4.23
-6 2 8 67.75 4.09
-6 2 8 68.08 4.11
-2 -6 8 67.22 4.18
-6 2 8 65.51 4.12
2 6 8 64.03 4.44
6 -2 8 62.48 4.51
-6 3 -8 85.36 5.58
6 -3 -8 90.66 5.11
-3 -6 -8 94.8 5.65
-3 -6 -8 94.57 5.41
3 6 8 70.24 5.51
-3 -6 8 85.61 5.19
-3 -6 8 90.56 5.24
-6 3 8 82.95 5.23
6 -3 8 78.54 5.55
-4 -6 -8 43.4 3.14
-4 -6 -8 41.83 2.94
-6 4 -8 36.8 3.14
4 6 8 36.29 3.16
-4 -6 8 38.85 2.64
6 -4 8 32.41 2.97
-6 4 8 36.87 2.84
-6 5 -8 1.62 1.4
-6 5 -8 1 1.41
-5 -6 -8 -0.63 1.38
-5 -6 -8 -0.13 1.14
-5 -6 8 1.96 0.85
-5 -6 8 2.96 0.88
-6 5 8 2.46 1.17
6 -5 8 1.72 1.43
-6 5 8 1.18 1.21
5 6 8 2.68 1.45
-6 -6 -8 0.51 1.33
-6 6 -8 -0.37 1.37
-6 -6 -8 0.9 1.23
-6 6 -8 0.54 1.59
-6 6 8 -0.85 1.14
6 6 8 0.51 1.41
6 -6 8 2.77 1.48
-6 -6 8 1.21 0.79
-6 -6 8 -0.04 0.73
-7 -6 -8 14.54 1.98
-7 -6 -8 18.07 2.27
-6 7 -8 14.59 2.28
-7 -6 8 14.35 1.23
-7 -6 8 14.94 1.24
6 -7 8 14.4 2.1
-6 7 8 11.9 1.85
7 6 8 10.66 1.92
-5 7 -8 10.24 1.98
-7 -5 -8 9.32 1.74
-7 -5 -8 10.23 1.74
-5 7 8 9.12 1.74
7 5 8 8.81 1.81
5 -7 8 5.27 1.54
-7 -4 -8 0.35 1.31
-7 -4 -8 -2 1.36
-4 7 -8 0.88 1.36
-4 7 8 0.37 1.31
4 -7 8 -1.24 1.26
7 4 8 -3.13 1.12
-7 -3 -8 13.98 1.94
-3 7 -8 8.15 1.58
-7 -3 -8 14.02 1.93
3 -7 8 15.41 1.85
7 3 8 9.42 1.76
-3 7 8 14.6 1.86
2 -7 -8 17.33 1.92
-7 -2 -8 18.6 2.18
-7 -2 -8 19.58 2.25
-2 7 8 19.59 2.17
7 2 8 17.41 2.16
2 -7 8 18.77 2.08
-7 -1 -8 6.16 1.58
-1 7 -8 0.14 0.58
1 -7 -8 3.64 0.67
1 -7 -8 3.41 1.23
-7 -1 -8 4.86 1.56
7 1 8 2.27 1.43
1 -7 8 4.73 1.3
-1 7 8 4.36 1.43
-7 0 -8 8.66 1.61
-7 0 -8 8.26 1.65
0 -7 -8 8.72 1.56
0 -7 -8 8.32 1.02
0 -7 8 4.02 1.35
-7 0 8 8.28 0.95
-7 0 8 9.3 0.94
-7 0 8 7.58 0.94
7 0 8 7.73 1.64
0 -7 8 7.95 1.42
0 7 8 5.85 1.55
-1 -7 -8 1.56 0.85
-7 1 -8 3.08 1.42
-1 -7 -8 1.52 1.26
-7 1 -8 2.3 1.44
1 7 -8 2.13 1.37
7 -1 8 0.65 1.34
1 7 8 0.92 1.32
-7 1 8 4.11 0.88
-7 1 8 2.18 0.8
-1 -7 8 3.11 1.18
-1 -7 8 0.3 0.96
-2 -7 -8 12.11 1.87
-7 2 -8 7.41 1.66
-2 -7 -8 13.04 1.67
2 7 -8 8.15 1.76
-2 -7 -8 8.15 1.28
-2 -7 8 7.33 1.27
-7 2 8 8.26 1.18
7 -2 8 8.23 1.7
2 7 8 8.6 1.6
-3 -7 -8 6.56 1.58
-3 -7 -8 8.58 1.32
-3 -7 -8 5.69 1.57
-7 3 -8 2.7 1.49
-7 3 8 5.41 1.09
7 -3 8 3.09 1.41
3 7 8 3.7 1.55
-3 -7 8 3.58 0.87
-7 3 8 5.34 1.04
-3 -7 8 6.58 1.18
-7 4 -8 25.25 2.56
-4 -7 -8 21.47 2.5
-7 4 -8 23.96 2.61
-4 -7 -8 18.55 2.18
-7 4 8 26.33 2.17
4 7 8 25.56 2.51
7 -4 8 23.77 2.54
-4 -7 8 28.09 2.11
-7 5 -8 5.26 1.64
-7 5 -8 0.84 1.63
-5 -7 -8 2.83 1.62
-5 -7 -8 4.56 1.42
7 -5 8 3.74 1.64
5 7 8 6.91 1.72
-5 -7 8 6.06 1.08
-5 -7 8 4.86 1.06
-7 5 8 4.6 1.32
-7 6 -8 6.77 1.71
-6 -7 -8 5.8 1.51
-7 6 -8 4.97 1.82
-6 -7 -8 6.03 1.67
-7 6 8 5.4 1.45
-6 -7 8 5.42 1.04
6 7 8 5.73 1.72
7 -6 8 4.78 1.64
-6 -7 8 4.77 1.03
-7 -7 -8 17.6 2.22
-7 -7 -8 15.89 2.33
-7 7 -8 20.88 2.51
-7 -7 8 16.86 1.5
7 -7 8 16.78 2.34
-7 -7 8 17.08 1.51
-7 7 8 17.11 2.12
7 7 8 17.64 2.31
-8 -7 -8 13.87 2.23
-8 -7 -8 11.32 2.02
-7 8 -8 12.35 2.27
-8 -7 8 12.64 1.27
-7 8 8 15.9 2.1
7 -8 8 18.09 2.29
-8 -7 8 14.54 1.33
-6 8 -8 12.45 2.2
-8 -6 -8 11.59 2.04
-8 -6 -8 11.01 1.96
-8 -6 8 13.12 1.11
-6 8 8 13.26 2.01
6 -8 8 12.73 2.02
8 6 8 16.53 2.17
-8 -6 8 12.69 1.1
-8 -5 -8 0.05 1.4
-8 -5 -8 1.52 1.58
-5 8 -8 1.51 1.62
-5 8 8 2.77 1.41
5 -8 8 1 1.4
8 5 8 2.41 1.54
-4 8 -8 4.51 1.84
-8 -4 -8 8.5 1.71
-8 -4 -8 7.08 1.76
4 -8 8 6.53 1.67
8 4 8 8.58 1.77
-4 8 8 10.85 1.81
-8 -3 -8 37.41 3.11
-3 8 -8 39.87 3.3
-8 -3 -8 37.13 3.28
-3 8 8 38.12 3.15
8 3 8 33.52 3.21
3 -8 8 34.67 3.13
-8 -2 -8 36.08 3.12
-2 8 -8 30.34 3.1
-8 -2 -8 33.4 3.14
2 -8 8 34.82 2.95
-2 8 8 35.92 3
8 2 8 32.68 2.99
1 -8 -8 2.06 1.25
-1 8 -8 2.31 1.51
-8 -1 -8 3.42 1.59
-8 -1 -8 3.55 1.46
8 1 8 8.16 1.69
1 -8 8 3.48 1.35
-1 8 8 5.13 1.54
-8 0 -8 6.47 1.67
0 -8 -8 8.61 1.6
0 -8 -8 8.12 1.01
-8 0 -8 6.5 1.65
0 -8 8 4.43 1.43
8 0 8 6.03 1.71
0 8 8 9.19 1.75
-8 0 8 8.35 0.96
-8 0 8 6.74 0.92
-8 1 -8 9.55 1.69
-1 -8 -8 7.3 1.1
-8 1 -8 8.39 1.82
1 8 -8 9.51 1.61
-1 -8 -8 3.13 1.48
1 8 8 4.53 1.48
8 -1 8 2.45 1.55
-8 1 8 6.99 1.02
-8 1 8 5.55 1.05
-1 -8 8 7.14 1.42
-2 -8 -8 0.6 1.38
-8 2 -8 3.67 1.52
-8 2 -8 2.68 1.55
2 8 -8 2.31 1.52
-2 -8 -8 3.52 1.1
-8 2 8 4.39 1.05
2 8 8 2.62 1.4
-2 -8 8 3.23 1.24
-2 -8 8 1.53 1.14
8 -2 8 2.84 1.53
-8 2 8 2.13 0.87
-3 -8 -8 -1.04 0.99
-8 3 -8 1.89 1.5
-3 -8 -8 2.77 1.42
-8 3 -8 -0.6 1.35
3 8 -8 -1.78 1.3
-3 -8 -8 -0.15 1.46
-8 3 8 -1.06 0.97
-3 -8 8 0.08 1
8 -3 8 3.3 1.56
-8 3 8 -1.62 1.02
-3 -8 8 0.21 0.96
3 8 8 0.54 1.27
-4 -8 -8 10.46 1.55
-4 -8 -8 8.19 1.83
-8 4 -8 5.85 1.72
-8 4 -8 11.97 1.95
-4 -8 -8 4.18 1.66
-4 -8 8 9.28 1.38
8 -4 8 7.27 1.8
-8 4 8 9.68 1.39
-8 4 8 9.53 1.42
4 8 8 7.3 1.79
-4 -8 8 9.8 1.4
-5 -8 -8 1.04 1.18
-5 -8 -8 1.41 1.54
-5 -8 -8 -0.18 1.35
-8 5 -8 0.69 1.46
-8 5 -8 -0.21 1.56
8 -5 8 5.91 1.64
5 8 8 1.22 1.54
-5 -8 8 1.23 1.04
-8 5 8 2.59 1.24
-5 -8 8 3.2 1.07
-8 6 -8 4.87 1.82
-8 6 -8 3.23 1.49
-6 -8 -8 3.8 1.38
-6 -8 -8 2.14 1.66
-6 -8 8 2.31 1.01
-8 6 8 1.39 1.34
8 -6 8 0.89 1.51
-6 -8 8 2.46 1.03
6 8 8 -0.04 1.54
-8 7 -8 30.6 3.13
-7 -8 -8 34.38 2.99
-7 -8 -8 32.03 3.03
8 -7 8 31.28 3.05
-8 7 8 27.31 2.74
-7 -8 8 28.04 2.24
-7 -8 8 26.97 2.25
-8 -8 -8 44.36 3.67
-8 8 -8 39.97 3.85
-8 -8 -8 38.77 3.68
8 -8 8 41.78 3.51
-8 8 8 41.41 3.59
-8 -8 8 45.16 2.9
-8 -8 8 40.98 2.87
-9 -8 -8 13.98 2.24
-8 9 -8 12.82 2.45
-9 -8 -8 14.03 2.33
-9 -8 8 13.02 1.36
-9 -8 8 12.53 1.37
8 -9 8 13.4 2.26
-8 9 8 14.27 2.26
-7 9 -8 5.95 1.94
-9 -7 -8 4.18 1.81
-9 -7 -8 3.8 1.72
-7 9 8 5.11 1.72
7 -9 8 5.01 1.77
-9 -7 8 5.96 0.9
-9 -7 8 5.99 0.94
-9 -6 -8 3.51 1.68
-6 9 -8 1.95 1.52
-9 -6 -8 2.57 1.57
-6 9 8 4.16 1.54
6 -9 8 2.64 1.56
-9 -5 -8 4.28 1.57
-5 9 -8 3.11 1.69
-9 -5 -8 -0.07 1.53
-5 9 8 1.06 1.44
5 -9 8 2.52 1.54
-9 -4 -8 9.12 1.84
-9 -4 -8 9.71 1.88
-4 9 -8 5.35 1.82
-4 9 8 5.28 1.67
9 4 8 7.01 1.75
4 -9 8 4.39 1.65
-9 -3 -8 20.72 2.49
-3 9 -8 24.6 2.64
-9 -3 -8 25.63 2.65
-3 9 8 19.97 2.46
3 -9 8 19.42 2.41
9 3 8 25.43 2.64
-9 -2 -8 21.01 2.6
-2 9 -8 28.64 2.98
-9 -2 -8 31.88 2.98
-2 9 8 31.09 2.83
2 -9 8 25.73 2.67
9 2 8 28.41 2.85
-1 9 -8 2.76 1.71
-9 -1 -8 2.97 1.67
-9 -1 -8 0.36 1.56
9 1 8 5.38 1.7
-1 9 8 3.47 1.56
1 -9 8 4.58 1.43
0 -9 -8 3.18 1.41
0 9 -8 1.99 1.54
-9 0 -8 4.3 1.64
-9 0 -8 2.18 1.58
-9 0 8 2.35 0.85
-9 0 8 2.52 0.77
0 -9 8 3.96 1.45
9 0 8 4.79 1.69
0 9 8 3.02 1.55
-9 1 -8 2.84 1.48
-1 -9 -8 0.41 1.38
-9 1 -8 2.55 1.56
-1 -9 -8 0.08 0.9
1 9 -8 -0.07 1.26
-1 -9 8 0.46 1.25
-9 1 8 0.43 0.93
9 -1 8 2.97 1.59
1 9 8 1.11 1.32
-9 1 8 2.27 0.88
-2 -9 -8 1.81 1.46
-2 -9 -8 2.87 1.07
-9 2 -8 0.67 1.54
-9 2 -8 3.65 1.55
2 9 -8 1.39 1.51
2 9 8 1.18 1.53
-9 2 8 1.07 0.98
9 -2 8 0.13 1.45
-9 2 8 0.8 0.88
-2 -9 8 0.03 1.17
-9 3 -8 1.2 1.35
-3 -9 -8 1.23 1.48
-3 -9 -8 1.33 1.08
-9 3 -8 0.22 1.48
3 9 -8 0.34 1.31
-9 3 8 -0.13 0.53
-9 3 8 -0.88 1.07
3 9 8 -0.86 1.44
-3 -9 8 0.93 1.06
9 -3 8 0.37 1.52
-9 4 -8 -1.8 1.47
-4 -9 -8 1.74 1.5
-9 4 -8 1.34 1.39
-4 -9 -8 -0.08 1.38
-4 -9 -8 1.67 1.18
9 -4 8 1.63 1.5
4 9 8 1.39 1.49
-9 4 8 0.96 1.11
-4 -9 8 0.05 1.03
-9 5 -8 1.83 1.65
-5 -9 -8 3.78 1.6
-9 5 -8 1.78 1.48
-5 -9 -8 2.64 1.27
-5 -9 -8 5.65 1.74
5 9 8 4.54 1.63
-5 -9 8 3.95 1.19
9 -5 8 2.74 1.48
-9 5 8 3.59 1.28
-6 -9 -8 1.27 1.36
-6 -9 -8 -1.15 1.5
-6 -9 -8 -0.52 1.55
-9 6 -8 1.73 1.51
-9 6 -8 0.24 1.43
9 -6 8 -2.13 1.41
-9 6 8 0.32 1.32
-6 -9 8 -0.85 1
6 9 8 -0.5 1.51
-7 -9 -8 3.55 1.53
-7 -9 -8 0.3 1.68
-9 7 -8 3.64 1.81
-9 7 8 3.48 1.6
-7 -9 8 2.76 1.12
9 -7 8 -0.64 1.52
-8 -9 -8 9.05 1.89
-9 8 -8 6.13 2.01
-8 -9 -8 7.41 2.07
-8 -9 8 6.93 1.27
9 -8 8 5.3 1.77
-9 8 8 5.6 1.78
-9 -9 -8 3.96 1.73
-9 -9 -8 2.72 1.88
-9 9 -8 0.5 1.79
-9 -9 8 2.89 1.1
9 -9 8 4.45 1.9
-9 9 8 -0.55 1.69
-10 -9 -8 0.59 1.8
9 -10 -8 0.65 2.01
-10 -9 -8 -1.78 1.62
-9 10 -8 -1.38 1.81
-10 -9 8 0.97 1.06
-9 10 8 -0.92 1.71
9 -10 8 1.5 1.86
-10 -8 -8 -0.48 1.52
-8 10 -8 1.09 1.8
-10 -8 -8 0.55 1.74
-10 -8 8 0.36 0.85
8 -10 8 0.24 1.64
-8 10 8 0.97 1.62
-10 -8 8 0.87 0.9
-7 10 -8 -0.47 1.76
-10 -7 -8 -0.09 1.65
-10 -7 -8 -0.32 1.64
7 -10 8 -0.36 1.58
-10 -7 8 -0.3 0.72
-7 10 8 -2.25 1.55
-10 -7 8 1.45 0.78
-10 -6 -8 1.64 1.6
-6 10 -8 1.13 1.73
-10 -6 -8 -0.89 1.59
6 -10 8 0.68 1.53
-6 10 8 -0.13 1.54
-10 -5 -8 -0.08 1.62
-10 -5 -8 1.33 1.54
-5 10 -8 -0.58 1.59
5 -10 8 0.06 1.32
-5 10 8 0.7 1.52
-10 -4 -8 0.88 1.62
-4 10 -8 3.84 1.8
-10 -4 -8 4.34 1.69
4 -10 8 2.44 1.58
-4 10 8 3.82 1.65
-10 -3 -8 7.6 1.85
-10 -3 -8 7.96 1.92
-3 10 -8 10.94 2.04
3 -10 8 5.74 1.71
-3 10 8 5.93 1.73
-10 -2 -8 13.97 2.2
-2 10 -8 19.57 2.46
-10 -2 -8 15.56 2.17
2 -10 8 14.23 2.11
-2 10 8 15.97 2.23
-10 -1 -8 8.62 1.96
-1 10 -8 11.37 2.01
-10 -1 -8 5.66 1.84
-10 -1 8 8.97 0.99
-1 10 8 6.66 1.83
-10 -1 8 10.02 0.98
10 1 8 11.78 2.03
1 -10 8 11.37 1.83
-10 0 -8 5.58 1.75
0 10 -8 3.32 1.73
-10 0 -8 2.79 1.57
0 10 8 1.3 1.49
10 0 8 2.85 1.65
-10 0 8 4.27 0.91
0 -10 8 2.09 1.44
-10 0 8 3.89 0.89
1 10 -8 18.07 2.43
-10 1 -8 19.72 2.43
-10 1 -8 15.1 2.4
10 -1 8 22.36 2.5
-10 1 8 21.21 1.8
-1 -10 8 21.95 2.24
1 10 8 21.26 2.54
-10 1 8 23.25 1.9
-10 2 -8 20.96 2.54
-2 -10 -8 16.87 2.32
2 10 -8 15.36 2.34
-10 2 -8 21.55 2.52
-10 2 8 18.34 1.74
2 10 8 15.63 2.27
-10 2 8 20.79 1.83
-2 -10 8 18.45 2.12
10 -2 8 22.83 2.59
-10 3 -8 17.71 2.33
-3 -10 -8 12.61 1.66
3 10 -8 15.42 2.16
-10 3 -8 10.41 1.93
-3 -10 -8 11.63 2.02
3 10 8 13.68 2.14
10 -3 8 6.32 1.9
-3 -10 8 13.88 1.76
-10 3 8 10.32 1.53
-10 4 -8 2.21 1.73
-4 -10 -8 4.36 1.32
-4 -10 -8 4.22 1.68
-10 4 -8 4.57 1.74
4 10 8 0.98 1.57
10 -4 8 4.41 1.7
-10 4 8 0.93 1.16
-4 -10 8 2.29 1.17
-5 -10 -8 1.89 1.3
-10 5 -8 -0.13 1.59
-10 5 -8 -0.47 1.38
-5 -10 -8 2.41 1.63
10 -5 8 1.47 1.59
-5 -10 8 0.38 1.06
-10 5 8 -0.27 1.22
5 10 8 1.78 1.62
-10 6 -8 6.3 1.87
-6 -10 -8 7.15 1.68
-10 6 -8 11.69 2.19
-6 -10 -8 11.88 2.07
-6 -10 -8 9.31 2.2
10 -6 8 7.68 1.97
-10 6 8 10.66 1.83
-6 -10 8 12.32 1.6
-10 7 -8 0.79 1.62
-7 -10 -8 4.33 1.87
-7 -10 -8 3.05 1.57
-7 -10 -8 3.64 1.71
-10 7 8 3.84 1.67
10 -7 8 0.42 1.51
-7 -10 8 2.61 1.23
-8 -10 -8 -0.14 1.74
-8 -10 -8 1.72 1.57
-10 8 -8 1.95 1.87
-8 -10 -8 0.06 1.56
10 -8 8 -2.74 1.57
-10 8 8 -0.9 1.61
-8 -10 8 -0.88 1.09
-10 9 -8 1.71 1.84
-9 -10 -8 -1.04 1.77
10 -9 -8 -2.03 2.01
-9 -10 -8 -0.2 1.71
-9 -10 -8 2.22 1.83
-10 9 8 -2.12 1.59
-9 -10 8 -0.59 1.1
-10 -10 -8 1.86 1.82
-10 10 -8 -0.54 1.88
10 -10 -8 -2.13 1.83
-10 -10 -8 0.92 1.93
-10 10 8 -1.01 1.78
-10 -10 8 1.32 1.19
-11 -10 -8 0.51 1.83
-10 11 -8 1.8 1.96
10 -11 -8 5.46 2.44
-11 -10 -8 -1.01 1.93
-10 11 8 -1.2 1.77
-11 -10 8 1.03 1.17
-11 -9 -8 6.9 2.23
9 -11 -8 7.29 2.43
-11 -9 -8 6.08 2.15
-9 11 -8 4.64 2.16
9 -11 8 5.87 1.92
-9 11 8 6.51 2.07
-11 -9 8 5.76 1.23
8 -11 -8 5.36 2.31
-11 -8 -8 7.96 2.1
-11 -8 -8 5.01 1.85
-8 11 -8 7.59 2.26
-8 11 8 7.71 2.04
-11 -8 8 4.32 1.05
-11 -8 8 4.26 1
8 -11 8 4.56 1.8
7 -11 -8 -1.28 2.02
-11 -7 -8 1.35 1.74
-11 -7 -8 3.49 1.86
-7 11 -8 0.39 1.82
7 -11 8 1.82 1.69
-11 -7 8 -0.58 0.76
-7 11 8 1.62 1.74
-11 -6 -8 2.05 1.83
-11 -6 -8 -2.66 1.62
6 -11 -8 -1.34 1.72
-6 11 -8 -0.92 1.7
-6 11 8 -0.91 1.59
6 -11 8 2.11 1.64
-11 -5 -8 1.96 1.72
-11 -5 -8 -0.88 1.61
-5 11 -8 -0.97 1.67
5 -11 8 2.44 1.69
-5 11 8 -1.73 1.5
-11 -4 -8 1.84 1.7
-4 11 -8 2.88 1.86
-11 -4 -8 2.16 1.59
-4 11 8 0.69 1.6
4 -11 8 2.73 1.65
-11 -3 -8 0.56 1.68
-11 -3 -8 0.32 1.47
-3 11 -8 4.71 1.68
3 -11 8 3.49 1.65
-3 11 8 -1.11 1.52
-11 -2 -8 6.93 1.81
-11 -2 -8 2.64 1.8
-2 11 -8 7.96 2.02
-2 11 8 4.05 1.74
2 -11 8 5.05 1.77
-11 -1 -8 3.64 1.78
-11 -1 -8 3.59 1.71
-1 11 -8 3.41 1.69
1 -11 8 5.19 1.58
-11 -1 8 4.4 0.82
-1 11 8 1.71 1.6
-11 -1 8 4.93 0.9
-11 0 -8 1.4 1.53
-11 0 -8 4.66 1.7
0 11 -8 3.67 1.63
-11 0 8 5.37 0.99
-11 0 8 3.44 1.03
0 11 8 2.67 1.55
0 -11 8 5.44 1.59
-11 1 -8 19.43 2.5
1 11 -8 13.48 2.23
-11 1 -8 18.28 2.42
1 11 8 14.65 2.34
-11 1 8 14.24 1.61
-1 -11 8 19.66 2.23
-11 1 8 17.37 1.6
-11 2 -8 30.9 3.26
2 11 -8 26.97 3.25
-11 2 -8 34.46 3.34
-2 -11 8 39.18 3.15
2 11 8 30.64 3.27
-11 2 8 39.26 2.76
-3 -11 -8 14.13 2.3
3 11 -8 10.75 2.21
-11 3 -8 16.47 2.44
-11 3 -8 12.79 2.24
-3 -11 8 13.67 1.96
3 11 8 14.93 2.28
-11 3 8 12.29 1.75
-4 -11 -8 -1.32 1.21
-11 4 -8 3.49 1.8
-11 4 -8 -0.99 1.42
-4 -11 -8 2.35 1.55
-4 -11 -8 3.19 1.7
-11 4 8 -1.39 1.12
-4 -11 8 0.34 1.21
4 11 8 0.62 1.6
-11 5 -8 4.48 1.94
-5 -11 -8 5.75 1.54
-11 5 -8 2.63 1.69
-5 -11 -8 4.83 1.88
-5 -11 8 4.12 1.4
-11 5 8 4.47 1.48
-6 -11 -8 13.69 2.41
-6 -11 -8 15.35 2.12
-11 6 -8 15.95 2.49
-6 -11 8 10.9 1.75
-11 6 8 13.57 2.09
-11 7 -8 10.03 2.27
-7 -11 -8 9.78 2.12
-7 -11 -8 14.44 2.48
-7 -11 -8 7.85 1.92
-11 7 8 7.14 1.92
-7 -11 8 8.46 1.61
-8 -11 -8 5.57 1.84
-11 8 -8 1.16 1.87
-8 -11 -8 2.16 1.96
-8 -11 -8 3.02 1.94
-8 -11 8 4.01 1.4
-11 8 8 5.38 1.86
-9 -11 -8 -0.05 1.84
-11 9 -8 -2.95 1.76
-9 -11 -8 0.23 1.6
-9 -11 -8 -1.12 1.71
11 -9 -8 -1.08 2.1
-9 -11 8 -0.09 1.26
-11 9 8 1.04 1.78
-10 -11 -8 0 1.68
-10 -11 -8 0.45 1.84
-10 -11 -8 -0.59 1.95
11 -10 -8 -0.56 2.23
-11 10 -8 4.05 2.11
-11 10 8 -0.24 1.75
-10 -11 8 0.1 1.24
-11 -11 -8 1.55 1.91
-11 11 -8 0.97 2.1
-11 -11 -8 -1.15 1.96
-11 -11 -8 -0.87 1.95
11 -11 -8 0.23 2.33
-11 11 8 0.24 2.03
-11 -11 8 -0.56 1.26
-12 -11 -8 -0.7 1.97
-11 12 -8 -2.01 1.89
11 -12 -8 -2.13 2.38
-12 -11 -8 -1.1 1.92
-12 -11 -8 -0.37 2.06
-11 12 8 -0.34 1.98
-12 -11 8 -0.99 1.23
-12 -10 -8 0.11 2.03
-12 -10 -8 4.14 2.03
10 -12 -8 1.63 2.42
-10 12 -8 0.41 2.08
-12 -10 8 0.68 1.16
-10 12 8 -2.84 1.96
-9 12 -8 2.88 2.13
-12 -9 -8 2.63 2.11
9 -12 -8 5.81 2.46
-12 -9 -8 9.13 2.25
-12 -9 8 4.52 1.19
-9 12 8 4.54 2.12
-12 -8 -8 6.52 2.23
-12 -8 -8 7.51 2.23
8 -12 -8 6.41 2.51
-8 12 -8 5.92 2.23
-8 12 8 7.87 2.13
8 -12 8 8.15 2.18
-12 -8 8 7.95 1.14
-12 -8 8 5.85 1.09
7 -12 -8 1.48 2.23
-7 12 -8 2.03 1.98
-12 -7 -8 1.75 1.92
-12 -7 -8 2.83 1.95
7 -12 8 2.47 1.87
-7 12 8 3.45 1.86
-12 -7 8 3.81 0.87
-12 -6 -8 -0.85 1.8
-12 -6 -8 -0.64 1.77
-6 12 -8 1.11 1.83
6 -12 -8 1.56 2.14
-6 12 8 1.2 1.73
6 -12 8 2.39 1.78
-5 12 -8 2.44 1.89
-12 -5 -8 2.92 1.95
-12 -5 -8 1.14 1.76
5 -12 -8 -1.81 1.71
-5 12 8 0.84 1.65
5 -12 8 -1.03 1.62
4 -12 -8 7.6 2.39
-12 -4 -8 1.37 1.82
-4 12 -8 5.97 2.02
-12 -4 -8 0.84 1.77
-4 12 8 5.97 1.89
4 -12 8 2.49 1.77
-3 12 -8 7.1 2.02
-12 -3 -8 3.77 1.89
-12 -3 -8 3.46 1.98
3 -12 -8 2.78 2.04
3 -12 8 5.45 1.9
-3 12 8 4.98 1.86
-12 -2 -8 0.31 1.66
2 -12 -8 2.45 1.92
-2 12 -8 0.63 1.82
-12 -2 -8 2.25 1.8
-2 12 8 2.41 1.72
-12 -2 8 0.56 0.72
2 -12 8 -2.73 1.54
-12 -2 8 1.28 0.79
1 -12 -8 -0.98 1.7
-1 12 -8 -0.28 1.7
-12 -1 -8 -1.12 1.69
-12 -1 -8 -0.6 1.52
-12 -1 8 0.66 0.89
-12 -1 8 -0.04 0.78
1 -12 8 2.08 1.51
-1 12 8 -1.13 1.62
-12 0 -8 1.9 1.78
-12 0 -8 0.09 1.57
0 12 -8 3.84 1.82
0 -12 -8 3.34 1.81
-12 0 8 2.62 1.03
0 -12 8 1.26 1.52
0 12 8 -0.52 1.62
-12 0 8 2.27 0.97
-12 1 -8 5.23 2
-12 1 -8 7.92 1.93
1 12 -8 4.78 1.97
-1 -12 -8 6.68 2.06
-12 1 8 7.4 1.24
-1 -12 8 7.45 1.76
1 12 8 5.75 1.81
-12 1 8 4.57 1.27
-2 -12 -8 14.01 2.15
-12 2 -8 9.59 2.17
-12 2 -8 6.28 2.08
2 12 -8 8.35 2.13
-12 2 8 10.28 1.55
-2 -12 8 10.48 1.86
2 12 8 8.99 2.11
3 12 -8 3.89 1.86
-12 3 -8 1.92 1.87
-12 3 -8 0.58 1.56
-3 -12 -8 4.3 1.71
-12 3 8 0.27 1.28
-3 -12 8 -0.3 1.42
-12 4 -8 0.13 1.8
-4 -12 -8 3.65 1.63
-12 4 -8 3.11 1.88
-12 4 8 0.41 1.26
-4 -12 8 0.47 1.49
-12 5 -8 7.77 2.18
-5 -12 -8 6.87 2.06
-12 5 -8 4.43 2
-12 5 8 7.16 1.68
-5 -12 8 5.36 1.58
-6 -12 -8 12.75 2.37
-6 -12 -8 10.47 1.95
-12 6 -8 9.89 2.15
-12 6 8 8.59 1.82
-6 -12 8 7.24 1.66
-12 7 -8 5.32 2.1
-7 -12 -8 7.07 2.16
-7 -12 -8 6.33 1.78
-12 7 8 6.38 1.84
-7 -12 8 7.85 1.58
12 -8 -8 1.6 2.21
-12 8 -8 -1.65 1.74
-8 -12 -8 1.75 1.77
-8 -12 -8 1.17 1.96
-8 -12 8 2.02 1.47
-12 8 8 0.37 1.71
-9 -12 -8 0.93 1.97
-12 9 -8 1.96 2.1
-9 -12 -8 0.79 1.78
12 -9 -8 -1.2 2.19
-9 -12 -8 -2.34 1.93
-9 -12 8 -0.22 1.32
-12 9 8 2.54 1.89
-12 10 -8 1.7 2.07
-10 -12 -8 5.54 2.12
-10 -12 -8 -2.72 1.92
-10 -12 -8 3.94 2.26
12 -10 -8 3.62 2.5
-10 -12 8 2.9 1.49
-12 10 8 0.97 2.01
-11 -12 -8 3.58 2.16
12 -11 -8 1.01 2.53
-11 -12 -8 2.19 2.17
-11 -12 -8 2.61 2.03
-12 11 -8 3.33 2.19
-11 -12 8 1.2 1.42
-12 11 8 -0.99 2.03
-10 13 -8 2.86 2.38
10 -13 -8 -2.32 2.37
-13 -10 -8 2.26 2.15
-13 -10 -8 1.83 2.15
-10 13 8 3.37 2.2
-13 -10 8 1.39 1.2
9 -13 -8 1.52 2.45
-13 -9 -8 0.86 2.05
-13 -9 -8 2.27 2.18
-9 13 -8 0.8 2.21
-9 13 8 3.31 2.28
-13 -9 8 1.72 1.08
-13 -8 -8 5.64 2.2
8 -13 -8 1.04 2.39
-13 -8 -8 5.61 2.23
-8 13 -8 0.4 2.04
-8 13 8 5.32 2.22
-13 -8 8 6.32 1.12
8 -13 8 2.2 1.86
-13 -7 -8 6.42 2.17
7 -13 -8 2.34 2.27
-7 13 -8 -0.41 1.97
-13 -7 -8 2.13 1.97
7 -13 8 -0.54 1.73
-13 -7 8 2.86 0.85
-7 13 8 0.39 1.86
-6 13 -8 0.98 1.99
-13 -6 -8 2.22 2.01
6 -13 -8 3.26 2.23
-13 -6 -8 1.4 1.98
6 -13 8 1.77 1.83
-6 13 8 1.1 1.83
-13 -5 -8 2.54 1.91
5 -13 -8 1.2 2.15
-5 13 -8 2.17 2
-13 -5 -8 9.08 2.3
5 -13 8 1.94 1.89
-5 13 8 3.76 1.95
-13 -4 -8 6.08 2.15
-4 13 -8 5 1.99
4 -13 -8 9.93 2.46
-13 -4 -8 5.7 2.11
-4 13 8 7.71 2.11
4 -13 8 6.21 2.06
3 -13 -8 3.93 2.1
-3 13 -8 5.29 2.1
-13 -3 -8 9.31 2.19
-13 -3 -8 6.94 2.17
3 -13 8 6.76 1.99
-3 13 8 7.29 2.09
-13 -2 -8 3.22 1.89
2 -13 -8 2.29 1.93
-2 13 -8 0.04 1.73
-13 -2 -8 0.28 1.8
2 -13 8 0.69 1.68
-2 13 8 3.88 1.93
-13 -2 8 3.21 0.86
-13 -2 8 2.91 0.96
-1 13 -8 -1.12 1.76
-13 -1 -8 -1.87 1.72
1 -13 -8 2.54 1.84
-13 -1 -8 -2.28 1.65
-13 -1 8 -0.75 0.91
-13 -1 8 0.27 0.9
1 -13 8 -1.08 1.55
-1 13 8 0.39 1.71
0 -13 -8 6.26 2.05
-13 0 -8 3.24 1.91
0 13 -8 3.4 1.95
-13 0 -8 3.02 1.8
0 -13 8 3.59 1.69
0 13 8 2.06 1.69
-13 0 8 2.82 1.15
-13 1 -8 1.51 1.91
-1 -13 -8 2.46 1.81
1 13 -8 3.17 1.92
-13 1 -8 0.67 1.82
-1 -13 8 3.44 1.72
-13 1 8 3.36 1.22
1 13 8 5.08 1.96
-13 2 -8 -3.2 1.63
2 13 -8 -0.3 1.61
-13 2 -8 -1.76 1.48
-2 -13 -8 -0.14 1.65
-13 2 8 0.65 1.22
-2 -13 8 0.72 1.55
-3 -13 -8 0.73 1.57
-13 3 -8 -0.35 1.78
-13 3 -8 1.13 1.87
3 13 -8 0.67 1.88
-13 3 8 -0.63 1.27
-3 -13 8 2.7 1.66
-13 4 -8 3.2 1.99
4 13 -8 3.78 1.94
-13 4 -8 -0.29 1.8
-13 4 8 1.52 1.4
-4 -13 8 0.63 1.51
-13 5 -8 1.61 1.74
-13 5 -8 -1.61 1.8
-5 -13 8 1.27 1.43
-13 5 8 -1.06 1.37
-6 -13 -8 4.43 1.91
-13 6 -8 4.5 2.05
-6 -13 8 1.38 1.41
-13 6 8 2.48 1.57
-7 -13 -8 4.77 2.14
13 -7 -8 2.55 2.13
-13 7 -8 3.18 2.06
-13 7 8 2.04 1.76
-7 -13 8 0.51 1.47
-8 -13 -8 0.24 1.66
-13 8 -8 -0.83 1.93
-8 -13 -8 1.33 2
13 -8 -8 1.57 2.34
-13 8 8 0.18 1.82
-8 -13 8 0.63 1.48
-9 -13 -8 1.14 1.82
-9 -13 -8 2.85 2.05
13 -9 -8 4.32 2.5
-13 9 -8 -0.55 2.03
-9 -13 8 -0.59 1.51
-13 9 8 2.33 1.94
-10 -13 -8 1.09 1.98
13 -10 -8 4.9 2.71
-10 -13 -8 2.17 2.27
-13 10 -8 3.94 2.2
-10 -13 8 3.81 1.59
-13 10 8 -0.11 2.01
-14 -9 -8 -0.1 2.19
9 -14 -8 2.58 2.7
-9 14 -8 2.04 2.27
-14 -9 -8 -1.38 2.04
-14 -9 8 1.91 1.08
-9 14 8 3.82 2.26
-14 -8 -8 0.83 2.1
-8 14 -8 -3.15 2.04
8 -14 -8 1.46 2.51
-14 -8 -8 -1.9 1.94
-14 -8 8 1.04 0.96
-8 14 8 0.35 2.04
7 -14 -8 1.71 2.4
-14 -7 -8 -3.25 1.92
-14 -7 -8 0.2 1.99
-7 14 -8 2.2 2.19
7 -14 8 -1.1 1.89
-7 14 8 0.97 2.09
-6 14 -8 -1.74 1.94
6 -14 -8 0.88 2.09
-14 -6 -8 2.46 2.03
-14 -6 -8 0.08 1.84
6 -14 8 -3.08 1.87
-6 14 8 0.33 1.97
-14 -5 -8 0.83 2.01
-5 14 -8 6.56 2.21
-14 -5 -8 4.69 2.12
5 -14 -8 2.49 2.23
5 -14 8 4.5 2.11
-5 14 8 6.83 2.25
4 -14 -8 9.09 2.53
-4 14 -8 8.98 2.36
-14 -4 -8 7.5 2.28
-14 -4 -8 6.96 2.18
-4 14 8 6.94 2.21
4 -14 8 8.63 2.31
-14 -3 -8 7.29 2.03
3 -14 -8 6.54 2.29
-3 14 -8 6.12 2.2
-14 -3 -8 1.98 2.03
-14 -3 8 5.68 1.07
-3 14 8 2.16 1.96
3 -14 8 3.74 1.99
-14 -2 -8 -0.96 1.85
-2 14 -8 -0.1 1.9
-14 -2 -8 -0.37 1.65
2 -14 -8 -0.31 1.82
-14 -2 8 2.55 1.02
-2 14 8 -0.02 1.84
-14 -2 8 1.7 0.89
2 -14 8 -0.34 1.68
-14 -1 -8 1.7 1.9
1 -14 -8 3.47 2.06
-14 -1 -8 0.47 1.97
-1 14 -8 3.44 2.14
-14 -1 8 2.44 1.13
1 -14 8 3.28 1.82
-1 14 8 2.92 1.99
0 14 -8 3.53 2.1
-14 0 -8 7.34 2.23
-14 0 -8 3.35 2.05
0 -14 -8 9.5 2.33
-14 0 8 4.79 1.33
0 -14 8 5.68 1.98
-14 1 -8 5.12 2.2
1 14 -8 9.11 2.33
-14 1 -8 6.87 2.29
-1 -14 -8 12.66 2.33
-14 1 8 8.9 1.52
-1 -14 8 7.22 1.99
-14 2 -8 0.9 1.79
-2 -14 -8 1.3 1.77
2 14 -8 0.97 1.77
-14 2 -8 1.6 2.02
-14 2 8 0.53 1.32
-2 -14 8 0.33 1.7
3 14 -8 -2.77 1.59
-14 3 -8 0.77 1.96
-14 3 -8 0.66 1.79
-3 -14 8 1.59 1.74
-14 3 8 2.02 1.41
-14 4 -8 -0.11 1.94
4 14 -8 4.25 2.11
-14 4 -8 0.55 1.94
-14 4 8 -0.34 1.34
-4 -14 8 1.01 1.74
-14 5 -8 -2.47 1.87
-14 5 8 1.14 1.51
-5 -14 8 2.09 1.72
-14 6 -8 -2.22 1.86
14 -6 -8 -1.55 2.02
-6 -14 8 -0.09 1.57
-14 6 8 0.81 1.69
14 -7 -8 -2.18 2.31
-14 7 -8 1.77 2.1
-7 -14 8 -1 1.52
-14 7 8 -2.52 1.61
14 -8 -8 0.66 2.38
-14 8 -8 -1.35 1.99
-8 -14 8 2.38 1.6
-14 8 8 -0.08 1.8
-14 9 -8 -0.9 2.02
-9 -14 -8 1.82 2.15
14 -9 -8 2.85 2.55
-14 9 8 1.64 1.95
-9 -14 8 1.27 1.56
-15 -7 -8 -1.12 1.93
-15 -7 -8 -2.22 1.96
7 -15 -8 -2.81 2.31
-7 15 -8 0.85 2.22
7 -15 8 1.81 2.01
-7 15 8 -2.71 2.09
-6 15 -8 -1.38 2
-15 -6 -8 0.26 2.11
-15 -6 -8 0.72 2.1
6 -15 -8 0.56 2.17
-6 15 8 -1.48 1.97
6 -15 8 -1.54 2.01
-15 -5 -8 0.44 2.05
-15 -5 -8 0.5 1.98
5 -15 -8 4.09 2.5
-5 15 -8 3.55 2.15
5 -15 8 -1.33 1.88
-5 15 8 -0.65 2.01
-15 -4 -8 1.38 2.06
-15 -4 -8 -0.34 1.91
4 -15 -8 0.53 2.21
-4 15 -8 1.8 2.05
-4 15 8 4.64 2.17
4 -15 8 2.34 2
-15 -4 8 1.64 0.98
-15 -3 -8 3.68 1.96
3 -15 -8 -0.22 2.06
-3 15 -8 1.45 2.1
-15 -3 -8 1.13 1.96
-15 -3 8 1.19 1.04
3 -15 8 1.18 1.94
-3 15 8 -0.09 2
-15 -2 -8 -3.7 1.79
-15 -2 -8 -0.74 1.83
-2 15 -8 -1.65 1.92
2 -15 -8 1.99 2.1
-15 -2 8 0.5 1.09
2 -15 8 -0.82 1.87
-15 -1 -8 2.16 2.09
-15 -1 -8 1.58 2.05
1 -15 -8 3.85 2.08
-1 15 -8 3.16 2.17
-15 -1 8 2.95 1.28
1 -15 8 1.6 1.86
0 -15 -8 5.8 2.26
-15 0 -8 5.98 2.3
-15 0 -8 3.24 2.29
0 15 -8 5.96 2.28
-15 0 8 7.25 1.45
0 -15 8 2.42 2.02
-1 -15 -8 7.91 2.28
-15 1 -8 3.41 2.22
1 15 -8 4.21 2.25
-15 1 -8 4.72 2.3
-15 1 8 7.56 1.61
-1 -15 8 8.62 2.23
2 15 -8 -1.37 1.95
-2 -15 -8 2.41 1.93
-15 2 -8 0.56 1.99
-15 2 -8 0.33 2.04
-15 2 8 5.1 1.54
-2 -15 8 -0.34 1.8
3 15 -8 1.68 2.14
-15 3 -8 -0.95 1.84
-15 3 -8 0.97 2.06
-15 3 8 1.98 1.57
-3 -15 8 -1.14 1.72
-15 4 -8 2.8 2.17
-15 4 -8 2.12 2.1
15 -4 -8 5.18 2.09
4 15 -8 5.49 2.27
-4 -15 8 2.41 1.86
-15 4 8 1.97 1.59
15 -5 -8 2.26 2.24
5 15 -8 1.86 2.09
-15 5 -8 0.88 2.06
-5 -15 8 0.34 1.73
-15 5 8 -1.48 1.53
15 -6 -8 3 2.4
-15 6 -8 -0.53 2.13
-15 6 8 1.96 1.73
-6 -15 8 -0.63 1.73
-15 7 -8 -2.31 1.97
15 -7 -8 3.04 2.58
-15 7 8 -0.65 1.79
-7 -15 8 -1.83 1.62
-4 16 -8 0.18 2.11
4 -16 -8 2.13 2.42
-16 -4 -8 -1.03 2.05
-16 -4 -8 -0.95 2.06
4 -16 8 -2.64 2.05
-16 -4 8 -0.67 1.02
3 -16 -8 -3.7 2.14
-16 -3 -8 -2.61 1.99
-3 16 -8 0.44 2.13
-16 -3 -8 -0.53 2.01
3 -16 8 1.93 2.07
-16 -3 8 0.36 1.1
-2 16 -8 -2.46 2
2 -16 -8 -1.46 2.32
-16 -2 -8 2.4 2.14
-16 -2 -8 -1.04 1.98
2 -16 8 1.32 2.08
-16 -2 8 0.04 1.15
-16 -1 -8 -2.74 1.94
1 -16 -8 3.09 2.19
-1 16 -8 3.89 2.33
-16 -1 -8 -1.15 2.01
1 -16 8 3.03 2.11
-16 -1 8 -0.27 1.24
0 16 -8 -0.11 2.13
0 -16 -8 3.25 2.25
-16 0 -8 0.49 2.09
-16 0 -8 -0.94 2.15
-16 0 8 0.8 1.33
0 -16 8 -0.91 1.85
-16 1 -8 2.24 2.14
-16 1 -8 2 2.21
1 16 -8 2.64 2.19
-1 -16 -8 2.88 2.07
-16 1 8 -0.48 1.43
-1 -16 8 1.63 1.93
-16 2 -8 -0.83 2.2
-16 2 -8 1.4 2.22
2 16 -8 -1.41 2.02
16 -2 -8 4.42 2.09
-2 -16 8 2.47 1.91
-16 2 8 1.33 1.57
-16 3 -8 1.08 2.12
16 -3 -8 2.01 2.11
-16 3 -8 3.75 2.28
3 16 -8 -0.5 2.05
-16 3 8 0.5 1.6
-3 -16 8 -3 1.84
4 16 -8 1.09 2.11
-16 4 -8 3.09 2.27
-16 4 -8 1 2.15
16 -4 -8 1.73 2.36
-4 -16 8 2.26 1.99
-16 4 8 2.21 1.72
0 0 -9 41.86 3.25
0 0 9 51.1 3.3
0 0 9 52.35 3.3
0 -1 -9 76.24 4.74
-1 0 -9 69.64 4.78
1 0 -9 72.77 4.71
0 1 -9 70.04 4.85
0 1 9 76.17 4.72
-1 0 9 78.08 4.66
-1 0 9 72.41 4.62
1 0 9 76.46 4.76
0 -1 9 72.22 4.64
0 1 9 86.13 4.78
0 -1 9 79 4.69
1 0 9 74.95 4.76
-1 -1 -9 66.85 4.2
-1 1 -9 68 4.32
1 -1 -9 59.73 4.03
1 1 -9 66.04 4.16
-1 1 9 63.65 4.07
-1 -1 9 66.74 4
-1 -1 9 58.92 3.93
1 -1 9 66.95 4.1
1 1 9 58.8 4.09
-1 1 9 67.35 4.12
1 -1 9 61.47 4.08
-1 2 -9 12.69 1.65
2 1 -9 11.8 1.53
-2 -1 -9 16.92 1.63
-2 -1 -9 13.9 1.57
1 -2 -9 12.65 1.35
-2 -1 9 12.82 1.32
-1 2 9 11.45 1.5
-2 -1 9 11.14 1.24
1 -2 9 7.65 1.35
2 1 9 14.84 1.7
1 -2 9 13.65 1.48
-1 2 9 11.01 1.48
0 -2 -9 17.42 1.62
-2 0 -9 15.86 1.7
2 0 -9 15.9 1.64
-2 0 -9 14.53 1.78
0 2 -9 15.31 1.82
-2 0 9 15.68 1.57
0 2 9 23.43 1.89
0 -2 9 17.12 1.66
0 -2 9 18.57 1.67
2 0 9 18.87 1.83
0 2 9 15.2 1.72
-1 -2 -9 12.14 1.51
2 -1 -9 15.22 1.51
-2 1 -9 13.75 1.73
1 2 -9 14.69 1.69
-2 1 9 13.54 1.41
2 -1 9 14.76 1.68
-2 1 9 14.63 1.51
1 2 9 15.76 1.73
-1 -2 9 15.94 1.47
2 2 -9 1.68 1.09
2 -2 -9 1.86 0.84
-2 2 -9 1.64 1.21
-2 -2 -9 1.61 1.05
-2 -2 -9 1.05 1.02
-2 -2 9 -0.26 0.79
-2 2 9 2.95 1.07
2 2 9 2.66 1.16
-2 2 9 3.96 1.05
-2 -2 9 2.05 0.84
2 -2 9 1.71 1.13
3 2 -9 14.81 1.64
2 -3 -9 13.66 1.29
-3 -2 -9 14.75 1.67
-3 -2 -9 14.6 1.73
-2 3 -9 15.69 1.81
-2 3 9 14.22 1.65
2 -3 9 13.37 1.65
2 -3 9 12.52 1.67
-3 -2 9 12.65 1.27
-2 3 9 11.27 1.55
3 2 9 11.95 1.64
-3 -2 9 13.19 1.26
-3 -1 -9 13.17 1.7
-1 3 -9 12.38 1.72
-3 -1 -9 15.19 1.73
3 1 -9 12.28 1.56
1 -3 -9 15.74 1.41
-1 3 9 16.29 1.7
-1 3 9 13.43 1.65
1 -3 9 14.42 1.61
-3 -1 9 16.41 1.39
1 -3 9 15.45 1.66
-3 -1 9 15.45 1.36
3 1 9 16.18 1.85
-3 0 -9 4.13 1.17
3 0 -9 3.17 1.03
0 3 -9 3.32 1.25
0 -3 -9 2.92 0.86
-3 0 -9 1.57 1.22
-3 0 9 6.93 0.97
-3 0 9 4.07 0.97
0 3 9 4.59 1.19
3 0 9 3.89 1.25
0 -3 9 5.08 1.08
0 -3 9 4.11 1.1
-1 -3 -9 24.82 2.08
3 -1 -9 21.26 1.8
-1 -3 -9 21.85 1.85
-3 1 -9 21.89 2.08
-3 1 -9 21.48 2.21
1 3 -9 19.11 2.11
1 3 9 21.85 2.1
-3 1 9 19.89 1.67
-1 -3 9 23.51 1.96
3 -1 9 21.92 2.13
-3 1 9 19.95 1.78
-3 2 -9 31.52 2.72
3 -2 -9 27.8 2.14
-2 -3 -9 29.52 2.51
-2 -3 -9 32.84 2.4
-3 2 -9 30.94 2.49
2 3 -9 29.64 2.54
3 -2 9 36.04 2.59
-3 2 9 26.21 2.36
-2 -3 9 29.86 2.23
-2 -3 9 26.24 2.11
2 3 9 27.02 2.53
3 -3 -9 15.05 1.28
-3 -3 -9 16.2 1.82
3 3 -9 10.91 1.68
-3 -3 -9 13.28 1.61
-3 3 -9 14.54 1.94
-3 3 -9 14.46 1.72
-3 -3 9 14.14 1.34
-3 -3 9 14.53 1.35
3 -3 9 13.1 1.71
-3 3 9 15.68 1.67
-3 3 9 13.29 1.56
3 3 9 10.4 1.76
3 -4 -9 2.53 0.64
-3 4 -9 4.91 1.32
-4 -3 -9 4.83 1.25
-4 -3 -9 5.07 1.42
-3 4 -9 4.31 1.41
4 3 -9 4.59 1.29
3 -4 9 5.83 1.35
-3 4 9 5.36 1.29
-4 -3 9 3.22 0.8
4 3 9 2.66 1.39
-4 -3 9 4.94 0.84
-3 4 9 2.27 1.16
-2 4 -9 91.15 5.63
4 2 -9 89.55 5.35
-4 -2 -9 83.1 5.36
-4 -2 -9 88.64 5.46
2 -4 -9 81.31 4.95
2 -4 9 78.94 5.26
2 -4 9 80.82 5.31
-2 4 9 82.24 5.22
-4 -2 9 80.6 4.89
4 2 9 79.71 5.33
-2 4 9 93.47 5.35
-4 -2 9 84.54 4.92
1 -4 -9 75.35 4.57
-4 -1 -9 73.96 4.97
-1 4 -9 71.43 4.99
4 1 -9 76.25 4.84
-4 -1 -9 71.49 4.91
-1 4 9 79.23 4.87
-1 4 9 80.42 4.9
-4 -1 9 78.05 4.51
1 -4 9 79.54 4.83
1 -4 9 72.41 4.81
4 1 9 77.23 5
0 -4 -9 34.5 2.65
-4 0 -9 36.1 2.81
4 0 -9 30.24 2.47
0 -4 -9 38.28 2.76
0 4 -9 33.79 2.94
0 -4 -9 32.08 2.38
-4 0 -9 34.46 2.88
0 4 9 33.56 2.75
4 0 9 36.37 2.82
-4 0 9 31.94 2.32
0 -4 9 31.13 2.54
0 -4 9 35.95 2.58
-4 0 9 33.56 2.31
-4 1 -9 7.42 1.42
-1 -4 -9 6.07 1.07
-1 -4 -9 6.32 1.31
-4 1 -9 5.63 1.49
1 4 -9 6.99 1.52
4 -1 -9 5.5 1.05
1 4 9 6.52 1.4
-1 -4 9 6.37 1.15
-4 1 9 6.15 1.08
4 -1 9 5.29 1.39
-4 1 9 5.82 1.04
4 -2 -9 7.52 1.04
-4 2 -9 7.52 1.44
-2 -4 -9 8.17 1.27
2 4 -9 7.21 1.54
-4 2 -9 9.14 1.68
-2 -4 -9 8.91 1.51
4 -2 9 7.82 1.48
-2 -4 9 10.45 1.22
-2 -4 9 8.04 1.15
-4 2 9 9.52 1.26
2 4 9 4.72 1.43
-4 3 -9 19.53 2.29
3 4 -9 20.74 2.17
-4 3 -9 21.48 2.1
4 -3 -9 19.19 1.57
-3 -4 -9 22.04 2.19
-3 -4 -9 21.99 1.99
3 4 9 16.37 2.09
-3 -4 9 17.55 1.63
-4 3 9 20.91 1.94
-3 -4 9 19.16 1.63
4 -3 9 21.19 2.18
-4 4 -9 26.83 2.34
4 4 -9 23.3 2.38
-4 -4 -9 22.42 2.22
-4 4 -9 24.56 2.51
-4 -4 -9 23.08 2.38
-4 4 9 24.34 2.17
-4 4 9 21.59 2.09
-4 -4 9 22.01 1.77
4 -4 9 25.09 2.35
-4 -4 9 24.53 1.84
4 4 9 23.44 2.36
-5 -4 -9 4.97 1.31
-5 -4 -9 1.87 1.4
-4 5 -9 -1 0.98
-4 5 9 4.85 1.3
-5 -4 9 3.98 0.74
-5 -4 9 4.3 0.78
4 -5 9 6.49 1.55
5 4 9 5.2 1.44
-5 -3 -9 2.18 1.31
-5 -3 -9 3.28 1.47
-3 5 -9 5.24 1.61
-5 -3 9 5.91 0.78
-5 -3 9 5.55 0.76
5 3 9 2.21 1.48
-3 5 9 6.28 1.37
3 -5 9 5.76 1.5
-5 -2 -9 94.68 5.84
-5 -2 -9 91.44 5.78
-2 5 -9 95.43 6.07
2 -5 -9 97.27 5.25
2 -5 9 90.23 5.68
-2 5 9 83.05 5.69
-5 -2 9 85.02 5.19
5 2 9 88.91 5.74
-5 -2 9 89.04 5.2
-5 -1 -9 76.75 5.19
-5 -1 -9 87.63 5.31
1 -5 -9 83.3 4.73
-1 5 -9 87.85 5.44
1 -5 9 83.8 5.11
5 1 9 81.32 5.24
-1 5 9 73.48 5.08
1 -5 9 76.26 5.04
-5 -1 9 73.88 4.64
-5 -1 9 77.63 4.65
0 -5 -9 13.03 1.26
0 -5 -9 14.77 1.67
0 5 -9 9.71 1.76
5 0 -9 11.24 1.46
-5 0 -9 14.5 1.85
-5 0 -9 13.25 1.83
0 -5 9 12.41 1.54
0 5 9 10.32 1.68
5 0 9 12.37 1.82
0 -5 9 13.33 1.59
-5 0 9 10.51 1.18
-5 0 9 11.62 1.17
-5 1 -9 4.57 1.33
5 -1 -9 1.73 0.9
-1 -5 -9 3.7 0.91
-1 -5 -9 2.04 1.2
-5 1 -9 4.52 1.43
-1 -5 -9 1.73 1.11
1 5 -9 4.6 1.46
-5 1 9 1.63 0.85
-5 1 9 1.67 0.88
-1 -5 9 1.29 0.99
-1 -5 9 0.06 0.44
1 5 9 1.57 1.28
5 -1 9 2.21 1.34
5 -2 -9 43.33 2.75
-5 2 -9 47.52 3.28
-5 2 -9 49.34 3.55
-2 -5 -9 41.53 2.88
-2 -5 -9 41.44 3.21
2 5 -9 37.46 3.29
5 -2 9 32.77 3.15
-5 2 9 35.41 2.8
2 5 9 39.67 3.24
-2 -5 9 42.8 2.88
-5 2 9 41.26 2.84
3 5 -9 45.49 3.59
-3 -5 -9 50.26 3.55
-5 3 -9 48.14 3.64
5 -3 -9 46.85 2.87
-5 3 -9 46.57 3.47
-3 -5 -9 45.2 3.16
-3 -5 9 37.56 2.95
-3 -5 9 48.07 3.01
-5 3 9 45.07 3.2
3 5 9 41.77 3.47
5 -3 9 45.14 3.48
-5 4 -9 61.26 4.19
-5 4 -9 57.14 4.38
-4 -5 -9 59.26 3.99
-4 -5 -9 61.94 4.27
4 5 9 55.81 4.09
-5 4 9 55 3.94
5 -4 9 58.54 4.17
-4 -5 9 61.87 3.65
-4 -5 9 58.39 3.67
-5 -5 -9 0.17 1.19
-5 5 -9 2.27 1.3
-5 -5 -9 1.44 1.43
-5 5 9 2.87 1.19
5 5 9 -0.77 1.38
5 -5 9 0.25 1.39
-5 -5 9 0.8 0.76
-5 -5 9 -1.67 0.7
-6 -5 -9 1.55 1.52
-6 -5 -9 1.27 1.38
-5 6 -9 0.85 1.46
-5 6 9 0.27 1.33
6 5 9 -0.32 1.43
-6 -5 9 2.43 0.69
5 -6 9 1.72 1.31
-6 -5 9 2.63 0.69
-6 -4 -9 5.73 1.46
-4 6 -9 4.99 1.47
-6 -4 -9 3.99 1.49
6 4 9 6.53 1.68
-4 6 9 3.63 1.39
4 -6 9 6.76 1.6
-6 -3 -9 13.08 1.89
-6 -3 -9 14.48 2.02
-3 6 9 12.99 1.83
3 -6 9 11.98 1.85
6 3 9 16.78 2.01
-2 6 -9 37.14 3.38
-6 -2 -9 43.24 3.29
-6 -2 -9 40.08 3.27
-2 6 9 38.89 3.13
2 -6 9 37.95 3.09
6 2 9 38.63 3.22
-6 -1 -9 33.04 2.83
-6 -1 -9 25.36 2.7
-1 6 -9 33.39 2.94
1 -6 -9 28.69 2.02
6 1 9 31.42 2.84
1 -6 9 26.71 2.48
-6 -1 9 30.49 1.98
-1 6 9 29.85 2.66
-6 -1 9 28.45 1.96
-6 0 -9 1.08 1.34
0 6 -9 -1.64 1.39
-6 0 -9 0.36 1.33
0 -6 -9 2.74 1.18
0 -6 -9 -0.43 0.74
0 -6 9 2.9 1.18
-6 0 9 2.09 0.77
0 6 9 -0.49 1.26
-6 0 9 1.68 0.83
6 0 9 0.54 1.37
0 -6 9 -1.33 1.05
-1 -6 -9 14.14 1.36
-1 -6 -9 14.69 1.78
6 -1 -9 11.31 1.38
-6 1 -9 12.62 1.94
1 6 -9 11.88 1.81
-6 1 -9 11.29 1.82
-1 -6 9 12.63 1.54
-6 1 9 11.98 1.27
1 6 9 12.87 1.86
6 -1 9 11.45 1.89
-6 1 9 12.36 1.33
6 -2 -9 23.2 1.91
-6 2 -9 28.07 2.64
-6 2 -9 25 2.44
-2 -6 -9 26.37 2.42
2 6 -9 23.25 2.5
-2 -6 -9 23.49 1.98
-2 -6 -9 23.93 2.38
-6 2 9 18.56 1.85
-2 -6 9 22.54 2.01
-6 2 9 21.74 1.92
2 6 9 24.38 2.48
6 -2 9 22.14 2.33
-6 3 -9 9.58 1.82
3 6 -9 9.84 1.73
-3 -6 -9 7.54 1.6
-3 -6 -9 10.82 1.43
-6 3 -9 8.6 1.67
6 -3 -9 11.09 1.09
-3 -6 9 10.51 1.34
-6 3 9 8.01 1.34
3 6 9 8.24 1.74
6 -3 9 8.78 1.68
-6 3 9 7.46 1.12
-3 -6 9 9.75 1.31
-4 -6 -9 16.61 1.9
-4 -6 -9 17.79 2.24
-6 4 -9 15.14 2.29
-6 4 -9 16.4 2.15
-6 4 9 17.14 1.76
-6 4 9 21.13 1.92
6 -4 9 15.41 2.16
-4 -6 9 19.77 1.68
4 6 9 19.84 2.33
-4 -6 9 17.84 1.66
-6 4 9 21.73 1.94
-6 5 -9 7.2 1.67
-5 -6 -9 10.57 1.87
-5 -6 -9 7.21 1.48
5 6 9 6.36 1.6
6 -5 9 6.88 1.71
-5 -6 9 7.03 1.06
-5 -6 9 6.34 1.05
-6 5 9 5.05 1.41
-6 6 -9 0.03 1.51
-6 -6 -9 1.87 1.3
-6 -6 -9 1.78 1.56
-6 6 9 1.61 1.31
-6 -6 9 0.28 0.77
-6 -6 9 1.58 0.81
6 6 9 1.66 1.52
6 -6 9 1.44 1.36
-7 -6 -9 17.97 2.15
-7 -6 -9 15.65 2.22
-6 7 -9 19.13 2.53
7 6 9 21.15 2.33
6 -7 9 18.74 2.37
-6 7 9 18.91 2.23
-7 -6 9 16.71 1.41
-7 -6 9 17.67 1.43
-7 -5 -9 3.02 1.58
-7 -5 -9 6.87 1.63
-5 7 -9 2.5 1.65
7 5 9 3.19 1.63
5 -7 9 4.51 1.59
-5 7 9 3.92 1.52
-4 7 -9 -0.1 1.46
-7 -4 -9 2.08 1.43
-7 -4 -9 -0.69 1.27
-4 7 9 3.39 1.44
7 4 9 3.87 1.62
4 -7 9 1.95 1.45
-7 -3 -9 27.02 2.68
-7 -3 -9 27.33 2.67
-3 7 -9 22.5 2.66
7 3 9 26.52 2.69
-3 7 9 24.67 2.5
3 -7 9 24.07 2.52
-7 -2 -9 16.59 2.17
-2 7 -9 19.15 2.33
-7 -2 -9 18.21 2.23
2 -7 9 17.37 2.04
-2 7 9 16.69 2.06
7 2 9 14.92 2.14
1 -7 -9 5.05 0.76
-7 -1 -9 7.26 1.72
-1 7 -9 7.17 1.67
-7 -1 -9 7.02 1.72
-1 7 9 3.69 1.54
7 1 9 7.67 1.77
1 -7 9 6.37 1.53
-7 0 -9 0.07 1.42
-7 0 -9 -0.4 1.26
0 7 -9 -0.22 1.49
0 -7 -9 -0.34 0.71
0 -7 9 0.59 1.11
-7 0 9 -0.3 0.73
-7 0 9 -1.18 0.75
0 7 9 0.45 1.25
7 0 9 0.36 1.39
-7 1 -9 1.11 1.42
-1 -7 -9 0.87 0.9
-7 1 -9 -1.24 1.23
-1 -7 -9 2.67 1.32
1 7 -9 0.6 1.47
-1 -7 9 -0.8 1.15
-1 -7 9 1.02 1.12
1 7 9 -0.16 1.34
7 -1 9 1.4 1.34
-7 1 9 0.46 0.86
-7 1 9 0.18 0.88
-2 -7 -9 2.59 1.39
-2 -7 -9 0.05 1.42
-2 -7 -9 0.72 1.01
2 7 -9 3.03 1.58
-7 2 -9 -0.03 1.38
-7 2 -9 2.56 1.59
-2 -7 9 0.91 0.97
-7 2 9 1.95 0.81
2 7 9 1.87 1.46
-2 -7 9 1.75 1.11
-7 2 9 2.12 1
-7 2 9 0.21 0.74
7 -2 9 -1.22 1.24
3 7 -9 4.81 1.74
-3 -7 -9 6.3 1.33
-3 -7 -9 5 1.61
-7 3 -9 7.19 1.73
-3 -7 -9 5.81 1.64
-7 3 -9 4.99 1.73
7 -3 -9 5.05 0.97
-3 -7 9 11.85 1.37
7 -3 9 11.23 1.89
-7 3 9 8.9 1.33
3 7 9 8.42 1.81
-7 3 9 9.65 1.36
-3 -7 9 8.73 1.28
-7 3 9 6.19 1.29
-7 4 -9 18.99 2.53
-4 -7 -9 18.01 2.14
-7 4 -9 22.1 2.53
-4 -7 -9 22.93 2.6
-7 4 9 26.52 2.17
-4 -7 9 24.46 2.05
-7 4 9 23.19 2.21
7 -4 9 23.23 2.47
-4 -7 9 24.74 2.01
-7 4 9 29.88 2.26
4 7 9 20.97 2.53
-7 5 -9 11.68 1.97
-5 -7 -9 6.79 1.55
-5 -7 -9 3.75 1.77
-5 -7 9 10.82 1.26
-7 5 9 4.51 1.37
-5 -7 9 7.75 1.2
5 7 9 10.45 1.95
7 -5 9 9.75 1.82
-6 -7 -9 2.19 1.33
-6 -7 -9 0.64 1.41
-7 6 -9 0.88 1.47
-6 -7 9 2.22 0.88
6 7 9 -1.48 1.44
7 -6 9 -0.13 1.32
-7 6 9 -0.18 1.28
-6 -7 9 -0.32 0.85
-7 -7 -9 16.58 2.29
-7 7 -9 11.75 2.16
-7 -7 -9 14.32 2.04
-7 -7 9 14.52 1.34
-7 7 9 14.11 1.95
7 -7 9 16.18 2.21
-7 -7 9 11.67 1.3
7 7 9 15.21 2.27
-7 8 -9 23.03 2.89
-8 -7 -9 24.94 2.78
-8 -7 -9 20.26 2.6
-7 8 9 20.49 2.46
7 -8 9 19.65 2.63
-8 -7 9 25.78 1.77
-8 -7 9 22.51 1.71
-6 8 -9 5.64 1.77
-8 -6 -9 4.29 1.56
-8 -6 -9 5.12 1.79
6 -8 9 9.59 1.92
-6 8 9 7.94 1.69
8 6 9 6.45 1.8
-5 8 -9 -0.06 1.43
-8 -5 -9 1.39 1.45
-8 -5 -9 1.43 1.53
8 5 9 1.75 1.54
5 -8 9 1.35 1.42
-5 8 9 2.7 1.45
-8 -4 -9 8.86 1.87
-4 8 -9 5.62 1.79
-8 -4 -9 4.32 1.64
-4 8 9 6 1.65
4 -8 9 9.57 1.76
8 4 9 5.36 1.76
-3 8 -9 31.9 3.05
-8 -3 -9 28.67 2.89
-8 -3 -9 29.3 2.95
3 -8 9 30.32 2.88
-3 8 9 29.25 2.85
8 3 9 34.06 3.07
-8 -2 -9 29.78 2.88
-8 -2 -9 27.82 2.81
-2 8 -9 30.64 2.92
-2 8 9 23.99 2.67
8 2 9 27.73 2.81
2 -8 9 29.5 2.73
-1 8 -9 3.52 1.53
-8 -1 -9 1.82 1.56
-8 -1 -9 3.3 1.64
1 -8 9 6.09 1.53
8 1 9 6.11 1.75
-1 8 9 3.73 1.55
0 -8 -9 3.68 0.88
-8 0 -9 3.93 1.55
-8 0 -9 4.97 1.73
0 8 -9 4.45 1.6
0 -8 9 0.2 1.29
0 8 9 4.12 1.61
-8 0 9 3.8 0.86
-8 0 9 2.96 0.85
8 0 9 5.16 1.67
-8 1 -9 2.02 1.53
-8 1 -9 0.68 1.39
-1 -8 -9 0.81 0.91
1 8 -9 0.83 1.56
-8 1 9 1.14 0.88
-8 1 9 0.3 0.88
8 -1 9 2.68 1.57
-8 1 9 1.35 0.87
1 8 9 1.13 1.36
-1 -8 9 1.62 1.28
2 8 -9 -0.86 1.48
-2 -8 -9 2.09 1.28
-2 -8 -9 1.23 0.99
-8 2 -9 1.04 1.51
-8 2 -9 0.41 1.33
8 -2 9 -0.43 1.46
-2 -8 9 0.41 1.02
-8 2 9 0.53 0.98
2 8 9 0.07 1.47
-8 2 9 0.81 0.94
-8 3 -9 9.79 1.9
-3 -8 -9 9.92 1.47
-3 -8 -9 7.83 1.72
-3 -8 -9 10.72 1.84
-8 3 -9 5.24 1.74
3 8 -9 7.51 1.9
-3 -8 9 7.67 1.36
3 8 9 9.06 1.89
-8 3 9 8.23 1.39
8 -3 9 10.64 1.92
-4 -8 -9 1.23 1.18
-4 -8 -9 1.94 1.49
-8 4 -9 1.47 1.51
-4 -8 -9 2.66 1.51
-8 4 -9 1.64 1.52
8 -4 9 2.87 1.56
-8 4 9 1.16 1.07
4 8 9 -0.38 1.47
-4 -8 9 -0.85 0.64
-4 -8 9 2.14 1.11
-5 -8 -9 5.28 1.73
-5 -8 -9 4.48 1.69
-8 5 -9 6.33 1.72
-5 -8 -9 5.59 1.47
-5 -8 9 6.49 1.19
5 8 9 5.79 1.76
-5 -8 9 4.92 1.17
8 -5 9 8.85 1.85
-8 5 9 7.09 1.37
-8 6 -9 15.6 2.33
-6 -8 -9 11.27 2.11
-6 -8 -9 12.62 1.86
-6 -8 9 13.58 1.43
-8 6 9 11.62 1.81
6 8 9 9.78 2.05
-6 -8 9 9.95 1.4
8 -6 9 10.1 1.92
-7 -8 -9 39.8 3.2
-8 7 -9 36.37 3.53
-7 -8 -9 36.24 3.41
8 -7 9 32.46 3.17
-7 -8 9 31.54 2.45
-8 7 9 31.9 3.01
-7 -8 9 30.92 2.45
-8 -8 -9 26.13 2.97
-8 -8 -9 21.38 2.68
-8 8 -9 25.95 2.94
-8 8 9 23.09 2.69
8 -8 9 22.22 2.78
-8 -8 9 26.66 1.97
-8 -8 9 24.17 1.98
-9 -8 -9 5.6 1.99
-8 9 -9 5.64 1.94
-9 -8 -9 0.98 1.74
-8 9 9 1.96 1.67
-9 -8 9 2.56 0.92
8 -9 9 3.38 1.87
-9 -8 9 1.53 0.84
-9 -7 -9 10.27 2.21
-9 -7 -9 9.3 2.14
-7 9 -9 14.05 2.42
7 -9 9 10.22 2.13
-7 9 9 12.78 2.14
-9 -6 -9 3.26 1.57
-6 9 -9 2.11 1.81
-9 -6 -9 1.98 1.69
6 -9 9 3.43 1.68
-6 9 9 2.15 1.64
-9 -5 -9 0.32 1.47
-5 9 -9 0.04 1.65
-9 -5 -9 -0.83 1.58
5 -9 9 1.6 1.54
-5 9 9 0.13 1.5
-9 -4 -9 0.66 1.55
-9 -4 -9 1.99 1.52
-4 9 -9 3.49 1.62
-4 9 9 1.62 1.48
4 -9 9 2.19 1.5
9 4 9 1.75 1.48
-9 -3 -9 9.87 1.95
-9 -3 -9 11.12 2.01
-3 9 -9 11.1 2.01
9 3 9 12.7 2.07
3 -9 9 8.16 1.79
-3 9 9 8.85 1.83
-2 9 -9 19.04 2.45
-9 -2 -9 21.04 2.4
-9 -2 -9 15.04 2.29
2 -9 9 18.12 2.24
9 2 9 18.49 2.41
-2 9 9 15.1 2.21
-9 -1 -9 13.48 2.17
-9 -1 -9 15.86 2.27
-1 9 -9 13.73 2.21
-1 9 9 15.12 2.21
9 1 9 15.2 2.24
1 -9 9 17.26 2.04
-9 0 -9 -1.27 1.45
-9 0 -9 -0.95 1.35
0 9 -9 1.21 1.45
0 -9 9 1.28 1.23
9 0 9 -1.43 1.44
0 9 9 0.28 1.28
-9 0 9 -0.63 0.69
-9 0 9 0.28 0.76
-1 -9 -9 1.28 0.89
-9 1 -9 0.3 1.5
-9 1 -9 1.46 1.51
1 9 -9 1.15 1.38
-9 1 9 0.91 0.87
1 9 9 -1.01 1.3
-1 -9 9 0.79 1.28
-9 1 9 0.62 0.82
9 -1 9 2.52 1.61
-9 2 -9 1.37 1.43
-9 2 -9 3.42 1.65
2 9 -9 1.5 1.56
-2 -9 -9 5.16 1.14
2 9 9 5.79 1.71
-9 2 9 6.29 1.19
-2 -9 9 6.88 1.39
-9 2 9 4.87 1.06
9 -2 9 7.12 1.78
-9 3 -9 1.02 1.44
-3 -9 -9 2.64 1.54
-9 3 -9 -1.32 1.28
3 9 -9 -0.89 1.33
-3 -9 -9 -0.34 1.06
-9 3 9 0.24 0.98
-3 -9 9 1.35 1.05
3 9 9 1.44 1.4
-9 3 9 3.01 1.17
9 -3 9 1.69 1.54
-4 -9 -9 -0.14 1.52
-9 4 -9 0.8 1.35
4 9 -9 1.19 1.41
-4 -9 -9 -1.44 1.45
-9 4 -9 -1.48 1.29
-4 -9 -9 -0.25 1.17
-4 -9 9 -0.7 0.98
9 -4 9 1.45 1.56
4 9 9 0.47 1.49
-9 4 9 0 1.08
-5 -9 -9 1.43 1.29
-5 -9 -9 0.81 1.6
-9 5 -9 2.72 1.62
-5 -9 -9 1.59 1.51
-9 5 9 2.3 1.21
-5 -9 9 2.14 1.15
5 9 9 2.56 1.62
9 -5 9 3.27 1.68
-6 -9 -9 -0.69 1.6
-6 -9 -9 0.85 1.68
-6 -9 -9 2.71 1.46
-9 6 -9 2.27 1.8
6 9 9 -0.27 1.58
-6 -9 9 -0.84 1.05
-9 6 9 -0.17 1.4
9 -6 9 1.51 1.58
-7 -9 -9 6.28 1.9
-9 7 -9 5.15 2.03
-7 -9 -9 6.87 1.69
-7 -9 -9 5.92 2
-7 -9 9 4.96 1.26
-9 7 9 7.74 1.76
9 -7 9 7.99 1.98
-8 -9 -9 9.37 2.04
-8 -9 -9 13.85 2.41
-9 8 -9 7.96 2.1
9 -8 9 8.48 1.97
-8 -9 9 8.17 1.33
-9 8 9 9.14 1.99
-9 -9 -9 0.89 1.82
-9 9 -9 4.53 2.02
-9 -9 -9 2.26 1.79
-9 -9 9 2.61 1.06
9 -9 9 0.5 1.76
-9 9 9 2.52 1.81
-10 -9 -9 0.28 1.91
-10 -9 -9 1.86 1.84
-9 10 -9 2.49 2.04
-10 -9 9 0.74 0.97
9 -10 9 2.05 1.96
-9 10 9 -1.22 1.58
-10 -8 -9 1.69 1.84
-8 10 -9 1.55 1.94
-10 -8 -9 0.58 1.79
-10 -8 9 0.51 0.78
-10 -8 9 -0.3 0.79
8 -10 9 0.23 1.75
-8 10 9 1.17 1.7
-10 -7 -9 0.83 1.66
-7 10 -9 -0.37 1.89
-10 -7 -9 -1.44 1.61
7 -10 9 3.43 1.73
-7 10 9 0.42 1.67
-10 -6 -9 1.05 1.69
-6 10 -9 1.59 1.85
-10 -6 -9 2.41 1.69
-6 10 9 3.1 1.64
6 -10 9 2.48 1.72
-10 -5 -9 -0.36 1.54
-10 -5 -9 0.62 1.67
-5 10 -9 -0.19 1.7
5 -10 9 0.14 1.51
-5 10 9 -0.09 1.53
-4 10 -9 1.55 1.8
-10 -4 -9 4.14 1.8
-10 -4 -9 2.9 1.71
4 -10 9 4.23 1.63
-4 10 9 4.22 1.73
-3 10 -9 3.68 1.85
-10 -3 -9 7.56 1.91
-10 -3 -9 5.38 1.7
3 -10 9 9.44 1.86
-3 10 9 5.63 1.79
-2 10 -9 12.52 2.23
-10 -2 -9 14.6 2.23
-10 -2 -9 11.01 2.06
-2 10 9 12.43 2.08
2 -10 9 9.79 1.9
-10 -1 -9 3.64 1.79
-10 -1 -9 8.13 1.94
-1 10 -9 5.64 1.78
10 1 9 6.06 1.88
1 -10 9 4.08 1.6
-1 10 9 2.85 1.64
0 10 -9 8.34 1.82
-10 0 -9 6.99 1.84
-10 0 -9 8.7 1.95
0 -10 9 9.27 1.76
-10 0 9 8.9 1.03
-10 0 9 8.3 1.08
0 10 9 9.34 1.91
10 0 9 9.42 2
1 10 -9 14.17 2.24
-10 1 -9 14.14 2.29
-10 1 -9 15 2.31
-10 1 9 17.08 1.48
10 -1 9 14.11 2.19
1 10 9 11.9 2.17
-1 -10 9 14.15 2
-10 1 9 16.58 1.56
2 10 -9 30.34 3.09
-10 2 -9 28.94 3
-10 2 -9 25.14 2.96
-2 -10 -9 28.32 2.43
-2 -10 9 28.37 2.67
-10 2 9 31.33 2.29
10 -2 9 33.2 3.15
-10 2 9 28.83 2.41
2 10 9 30.81 3.08
3 10 -9 9.07 1.94
-3 -10 -9 11.8 1.64
-10 3 -9 10.55 1.97
-10 3 -9 9.92 2.06
10 -3 9 12.25 2.12
-3 -10 9 11.54 1.66
3 10 9 9.94 2.12
-10 3 9 11.64 1.58
-10 4 -9 1.96 1.74
-4 -10 -9 3.32 1.32
4 10 -9 0.41 1.65
-10 4 -9 -0.64 1.65
-4 -10 9 3.67 1.25
10 -4 9 -0.6 1.58
-10 4 9 -0.19 1.11
4 10 9 1.03 1.58
-5 -10 -9 0.59 1.62
-10 5 -9 -1.28 1.65
-5 -10 -9 1.88 1.34
5 10 9 0.78 1.69
-10 5 9 0.35 1.3
-5 -10 9 0.05 1.13
10 -5 9 0.65 1.65
-6 -10 -9 3.32 1.74
-6 -10 -9 3.71 1.59
-10 6 -9 2.13 1.84
-6 -10 -9 -0.63 1.73
-6 -10 9 3.11 1.31
10 -6 9 6.21 1.92
-10 6 9 1.61 1.47
-7 -10 -9 1.04 1.66
-7 -10 -9 1.45 1.84
-7 -10 -9 1.24 1.57
-10 7 -9 5.79 2.05
-10 7 9 2.34 1.66
10 -7 9 1.86 1.79
-7 -10 9 3.69 1.28
-8 -10 -9 -0.96 1.5
-8 -10 -9 -0.27 1.8
-8 -10 -9 3.21 1.95
-10 8 -9 0.74 1.83
-8 -10 9 0.78 1.18
10 -8 9 3.59 1.88
-10 8 9 -3 1.57
-9 -10 -9 1.99 1.74
-10 9 -9 -0.22 1.66
-9 -10 -9 2.95 1.76
-9 -10 -9 -0.55 1.84
-10 9 9 -0.79 1.6
-9 -10 9 0.07 1.09
10 -10 -9 0.44 2.19
-10 -10 -9 1.52 1.8
-10 -10 -9 3.6 2.04
-10 10 -9 -2.06 1.88
-10 10 9 -1.01 1.85
-10 -10 9 -1.31 1.05
10 -11 -9 0.74 2.24
-10 11 -9 -0.18 2
-11 -10 -9 0.88 1.99
-11 -10 -9 2.96 1.94
-10 11 9 1.05 1.92
-11 -10 9 -0.01 1.06
9 -11 -9 3.74 2.39
-11 -9 -9 7.82 2.3
-11 -9 -9 7.5 2.16
-9 11 -9 5.03 2.26
-9 11 9 3.95 2.06
9 -11 9 6.15 2.15
-11 -9 9 3.61 1.04
-11 -8 -9 5.96 1.97
-8 11 -9 4.96 2.15
8 -11 -9 3.88 2.32
-11 -8 -9 3.19 1.95
8 -11 9 7.99 2.11
-8 11 9 3.94 2.01
-7 11 -9 0.51 1.93
-11 -7 -9 -0.91 1.75
-11 -7 -9 3.17 1.89
-7 11 9 1.19 1.82
7 -11 9 -0.73 1.67
-6 11 -9 0.21 1.84
-11 -6 -9 -1.73 1.67
-11 -6 -9 -2.27 1.66
6 -11 9 5.2 1.82
-6 11 9 -1.48 1.67
-11 -5 -9 -0.17 1.78
-5 11 -9 1.65 1.86
-11 -5 -9 1.04 1.69
-5 11 9 2.1 1.72
5 -11 9 0.85 1.65
-11 -4 -9 0.56 1.74
-4 11 -9 3.37 1.94
-11 -4 -9 -0.55 1.64
4 -11 9 -0.41 1.58
-4 11 9 1.33 1.69
-11 -3 -9 1.93 1.72
-11 -3 -9 -0.47 1.67
-3 11 -9 2.57 1.68
-3 11 9 2.46 1.69
3 -11 9 -0.74 1.59
-2 11 -9 3.69 1.86
-11 -2 -9 -1.11 1.61
-11 -2 -9 1.5 1.61
2 -11 9 3.64 1.64
-2 11 9 1.3 1.69
-1 11 -9 -0.22 1.52
-11 -1 -9 1.28 1.79
-11 -1 -9 2.1 1.72
1 -11 9 -0.38 1.42
-1 11 9 0.43 1.63
0 11 -9 3.81 1.85
-11 0 -9 6.07 1.94
-11 0 -9 6.23 1.97
0 11 9 4.52 1.83
0 -11 9 3.15 1.65
-11 0 9 4.67 0.92
-11 0 9 3.93 0.99
-11 1 -9 27.99 2.93
-11 1 -9 24.35 2.89
1 11 -9 21.83 2.85
-11 1 9 26.19 2.16
1 11 9 27.36 2.95
-11 1 9 23.87 1.99
-1 -11 9 24.29 2.6
-11 2 -9 32.04 3.32
-11 2 -9 33.25 3.33
2 11 -9 33.33 3.33
2 11 9 30.39 3.23
-2 -11 9 26.54 2.79
-11 2 9 31.05 2.56
3 11 -9 6.49 1.87
-11 3 -9 7.21 2.07
-11 3 -9 7.96 2.08
-3 -11 -9 9.05 1.5
3 11 9 7.46 1.93
-11 3 9 12.06 1.6
-3 -11 9 4.36 1.53
-4 -11 -9 -0.63 1.26
4 11 -9 -1.69 1.37
-11 4 -9 -0.55 1.7
-11 4 -9 3.12 1.85
-11 4 9 1.58 1.3
-4 -11 9 -0.42 1.23
4 11 9 2.76 1.8
-11 5 -9 5.81 2.03
-5 -11 -9 7.51 1.63
-11 5 9 4.38 1.49
-5 -11 9 5.03 1.45
-6 -11 -9 18.65 2.21
-11 6 -9 14.46 2.51
-6 -11 9 14.12 1.91
-11 6 9 11.63 1.96
-7 -11 -9 10.22 2.29
-11 7 -9 6.53 2.15
-7 -11 -9 7.52 1.86
-7 -11 -9 8.39 2.31
-7 -11 9 5.74 1.53
-11 7 9 6.62 1.81
-8 -11 -9 -2.54 1.65
-8 -11 -9 1.8 1.71
-8 -11 -9 2.18 1.9
-11 8 -9 3 2.04
-11 8 9 5.73 1.85
-8 -11 9 1.49 1.26
-9 -11 -9 1.3 1.94
-9 -11 -9 0.12 1.9
-11 9 -9 0.98 2.02
11 -9 -9 -1.21 1.94
-9 -11 -9 -0.99 1.61
-9 -11 9 -0.43 1.18
-11 9 9 -2.19 1.69
-10 -11 -9 -0.98 1.96
11 -10 -9 -2.25 2.23
-10 -11 -9 5.77 2.23
-10 -11 -9 1.93 2.01
-11 10 -9 -1.74 1.95
-10 -11 9 0.45 1.26
-11 10 9 -1.31 1.86
-11 -11 -9 3.73 2.18
-11 -11 -9 4.03 2.21
-11 -11 -9 1.08 2.07
11 -11 -9 2.93 2.54
-11 11 -9 0.72 2.14
-11 11 9 -2.55 1.8
-11 -11 9 0.06 1.17
-10 12 -9 0.58 2.06
-12 -10 -9 0.25 2.07
10 -12 -9 -2.85 2.21
-12 -10 -9 -1.35 1.94
-12 -10 9 1.01 1.04
-10 12 9 -1.6 1.89
-12 -9 -9 4.07 2.06
-12 -9 -9 4.57 2.2
9 -12 -9 3.67 2.36
-9 12 -9 3.13 2.22
-12 -9 9 3.26 0.96
-9 12 9 5.29 2.24
8 -12 -9 4.58 2.55
-8 12 -9 10.65 2.51
-12 -8 -9 4.46 2.15
-12 -8 -9 3.71 2.17
8 -12 9 7.42 2.16
-8 12 9 8.16 2.21
-12 -7 -9 2.15 2.05
-7 12 -9 2.21 2.11
-12 -7 -9 3.76 2.02
7 -12 -9 3.85 2.31
-7 12 9 0.7 1.8
7 -12 9 4.62 1.96
-12 -6 -9 -1.33 1.77
6 -12 -9 -0.8 2.1
-6 12 -9 1.97 2.02
-12 -6 -9 0.32 1.79
-6 12 9 -3.01 1.63
6 -12 9 1.18 1.73
-12 -5 -9 2.45 1.9
-5 12 -9 1.27 1.93
5 -12 -9 -0.56 2.03
-12 -5 -9 4.73 2.06
5 -12 9 -0.28 1.7
-5 12 9 1.56 1.72
-12 -4 -9 1.13 1.84
-4 12 -9 -0.83 1.88
-12 -4 -9 1.1 1.83
4 -12 9 -3.22 1.61
-4 12 9 2.24 1.78
-12 -3 -9 1.06 1.88
-12 -3 -9 1.6 1.85
-3 12 -9 3.67 1.96
3 -12 9 3.68 1.79
-3 12 9 1.74 1.77
-12 -2 -9 1.82 1.85
-12 -2 -9 2.45 1.67
-2 12 -9 2.83 1.92
2 -12 9 -0.07 1.58
-2 12 9 0.71 1.71
-1 12 -9 3.21 1.95
-12 -1 -9 -0.88 1.61
-12 -1 -9 1.43 1.86
-12 -1 9 2.74 0.83
1 -12 9 2.21 1.6
-1 12 9 1.36 1.76
-12 0 -9 1.17 1.55
-12 0 -9 -2.2 1.51
0 12 -9 0.58 1.8
0 -12 9 0.27 1.48
-12 0 9 -0.56 0.91
-12 0 9 0.99 0.84
0 12 9 -0.12 1.47
-12 1 -9 0.29 1.55
1 12 -9 3.91 1.93
-12 1 -9 1.4 1.84
-12 1 9 1.44 1
-1 -12 9 1.97 1.61
1 12 9 2.36 1.69
-12 1 9 2.55 1.12
-12 2 -9 4.56 1.97
-12 2 -9 5.89 2.11
2 12 -9 6.6 1.88
-2 -12 9 6.89 1.76
2 12 9 8.77 2.11
-12 2 9 5.24 1.38
3 12 -9 2.45 1.86
-3 -12 -9 2.41 1.67
-12 3 -9 2.74 1.9
-12 3 -9 0.88 1.84
-12 3 9 2.66 1.31
-3 -12 9 0.78 1.46
4 12 -9 5.49 1.92
-12 4 -9 -1.79 1.69
-4 -12 9 0.2 1.35
-12 4 9 -1.56 1.34
-12 5 -9 2.35 1.96
-5 -12 -9 5.7 1.55
-5 -12 9 4.08 1.48
-12 5 9 1.53 1.52
-6 -12 -9 8.34 1.81
-12 6 -9 4.52 2.15
-12 6 9 7.01 1.77
-6 -12 9 4.43 1.57
-7 -12 -9 2.17 1.52
-12 7 -9 2.04 1.94
-7 -12 9 2.79 1.48
-12 7 9 0.95 1.59
-12 8 -9 -0.92 1.93
-8 -12 -9 2.88 1.83
-12 8 9 2.31 1.77
-8 -12 9 -1.41 1.25
-12 9 -9 1.25 2.01
12 -9 -9 3.17 2.38
-9 -12 -9 -0.99 1.71
-12 9 9 4.86 1.99
-9 -12 9 1.87 1.42
12 -10 -9 3.55 2.57
-10 -12 -9 6.17 2.06
-12 10 -9 1.65 2.12
-10 -12 9 1.23 1.39
-12 10 9 2.56 2.08
-13 -9 -9 0.14 2.13
-13 -9 -9 0.63 2.03
9 -13 -9 2.83 2.44
-9 13 -9 2.46 2.24
-9 13 9 -0.2 2.12
-13 -8 -9 2.93 2.2
-13 -8 -9 2.61 2.14
-8 13 -9 4.07 2.24
8 -13 -9 4.59 2.45
-8 13 9 1.37 2.09
8 -13 9 0.51 1.96
-7 13 -9 2.13 2.14
-13 -7 -9 1.87 2.09
7 -13 -9 5.17 2.54
-13 -7 -9 -0.55 1.89
7 -13 9 1.77 1.94
-7 13 9 3.08 1.96
6 -13 -9 0.31 2.25
-13 -6 -9 -0.06 1.93
-13 -6 -9 0.83 2
-6 13 -9 1.05 2.01
6 -13 9 3.54 1.91
-6 13 9 -3.55 1.72
-13 -5 -9 1.47 2.02
-13 -5 -9 4.93 2.09
5 -13 -9 3.74 2.23
-5 13 -9 -0.02 1.88
5 -13 9 5.21 2.03
-5 13 9 4.24 1.98
4 -13 -9 0.94 2.07
-4 13 -9 6.28 2.22
-13 -4 -9 3.44 2.03
-13 -4 -9 7.52 2.12
-4 13 9 3.74 1.97
4 -13 9 2.22 2
-3 13 -9 3.79 2.1
3 -13 -9 0.71 2.05
-13 -3 -9 8.91 2.21
-13 -3 -9 6.49 2.24
3 -13 9 3.68 1.91
-3 13 9 4.16 1.98
-13 -2 -9 7.53 2.17
2 -13 -9 4.66 2.05
-2 13 -9 2.97 1.99
-13 -2 -9 4.99 2.07
2 -13 9 2.04 1.88
-2 13 9 1.29 1.89
-13 -1 -9 -1.1 1.7
1 -13 -9 -0.35 1.88
-1 13 -9 2.39 1.96
-13 -1 -9 -2.58 1.81
1 -13 9 3.29 1.81
-13 -1 9 0.87 0.87
-13 -1 9 0.03 0.76
-1 13 9 2.88 1.73
-13 0 -9 5.48 2.11
0 -13 -9 0.69 1.8
0 13 -9 -0.64 1.9
-13 0 -9 6.48 1.96
-13 0 9 2.45 0.93
0 -13 9 4.75 1.82
0 13 9 0.14 1.78
-13 0 9 3.31 1.11
1 13 -9 -0.12 1.63
-13 1 -9 3.31 1.86
-13 1 -9 6.15 2.05
-1 -13 -9 0.18 1.75
1 13 9 2.09 1.88
-1 -13 9 2.21 1.77
-13 1 9 1.66 1.19
-13 2 -9 2.36 1.97
-2 -13 -9 2.04 1.76
-13 2 -9 -1.1 1.79
2 13 -9 0.51 1.86
-2 -13 9 1.09 1.58
-13 2 9 0.75 1.23
-3 -13 -9 1.87 1.72
-13 3 -9 0.53 1.86
3 13 -9 1.23 1.86
-13 3 -9 0.62 1.9
-3 -13 9 2.76 1.71
-13 3 9 0.88 1.32
-13 4 -9 1.05 1.95
4 13 -9 2.04 1.87
-4 -13 9 -1.28 1.52
-13 4 9 -1.52 1.33
5 13 -9 0.29 1.81
-13 5 -9 0.6 1.97
-5 -13 9 -0.44 1.41
-13 5 9 0.62 1.41
-13 6 -9 -2.4 1.89
-13 6 9 0.72 1.57
-6 -13 9 0.33 1.39
-13 7 -9 -0.85 1.94
-7 -13 -9 -0.88 1.51
-13 7 9 2.99 1.83
-7 -13 9 -0.01 1.38
-13 8 -9 4.08 2.17
-8 -13 -9 1.58 1.78
13 -8 -9 -0.86 2.26
-8 -13 9 2.82 1.58
-13 8 9 3.27 1.89
-9 -13 -9 1.03 1.82
-13 9 -9 -0.21 2.04
13 -9 -9 0.49 2.37
-13 9 9 -0.98 1.84
-9 -13 9 -0.18 1.44
-14 -8 -9 4.72 2.32
-14 -8 -9 1.15 2.17
8 -14 -9 1.92 2.44
-8 14 -9 -0.51 2.12
-8 14 9 1.58 2.11
-14 -7 -9 -0.68 1.92
7 -14 -9 3.62 2.43
-14 -7 -9 0.76 1.97
-7 14 -9 2.99 2.25
-7 14 9 0.37 2.13
7 -14 9 -0.6 1.84
-6 14 -9 3.19 2.24
-14 -6 -9 5.45 2.35
-14 -6 -9 2.01 2.16
6 -14 -9 0.86 2.35
-6 14 9 3.35 2.17
6 -14 9 1.37 1.93
-14 -5 -9 2.54 2.17
5 -14 -9 3.36 2.41
-5 14 -9 5.68 2.31
-14 -5 -9 4.69 2.26
5 -14 9 3.64 2.05
-5 14 9 1.99 2.1
-14 -4 -9 5.79 2.31
4 -14 -9 8.16 2.56
-4 14 -9 4.2 2.32
-14 -4 -9 10.57 2.38
4 -14 9 5.14 2.04
-4 14 9 7.62 2.25
3 -14 -9 3.62 2.15
-3 14 -9 2.02 2.09
-14 -3 -9 3.37 2.06
-14 -3 -9 4.14 2.02
3 -14 9 1.98 1.99
-3 14 9 2.1 2
-14 -2 -9 -1.23 1.86
-14 -2 -9 -1.66 1.91
-2 14 -9 1.55 2.03
2 -14 -9 2.81 2.03
-2 14 9 -1.25 1.9
2 -14 9 1.87 1.82
-1 14 -9 1.94 2.06
-14 -1 -9 0.07 1.99
-14 -1 -9 0.33 1.94
1 -14 -9 2.78 1.99
-1 14 9 -1.23 1.85
1 -14 9 3.04 1.89
-14 -1 9 2.27 0.96
-14 -1 9 0.5 0.99
0 -14 -9 8.81 2.24
-14 0 -9 3.9 2.14
-14 0 -9 4.02 2.11
0 14 -9 8.14 2.22
-14 0 9 4.91 1.23
0 -14 9 5.38 2.02
-14 1 -9 6.88 2.07
-1 -14 -9 7.15 2.18
1 14 -9 9.45 2.37
-14 1 -9 6.68 2.32
-14 1 9 5.3 1.42
-1 -14 9 10.08 2.19
2 14 -9 4.8 2.14
-14 2 -9 2.15 2.1
-14 2 -9 -0.68 1.75
-2 -14 -9 2.89 1.87
-14 2 9 1.89 1.39
-2 -14 9 4.21 1.84
-14 3 -9 -3.07 1.85
3 14 -9 0.86 2.02
-14 3 9 0.14 1.4
-3 -14 9 0.96 1.72
4 14 -9 0.68 1.8
-14 4 -9 -2.05 1.65
-4 -14 9 -3.33 1.57
-14 4 9 0.74 1.46
-14 5 -9 1.92 2.09
5 14 -9 -0.4 1.72
-14 5 9 2.17 1.56
-5 -14 9 3.22 1.61
-14 6 -9 -0.53 2.07
-14 6 9 0.93 1.65
-6 -14 9 -0.61 1.58
14 -7 -9 3.39 2.4
-14 7 -9 -1.93 2.04
-7 -14 9 -1.25 1.52
-14 7 9 0.01 1.65
-14 8 -9 -2.43 1.93
14 -8 -9 1.72 2.44
-14 8 9 1.24 1.96
-8 -14 9 2.26 1.67
-15 -6 -9 0.37 2.28
-15 -6 -9 0.99 2.22
-6 15 -9 -2.21 2
6 -15 -9 5.61 2.64
-6 15 9 -0.54 2.05
6 -15 9 -0.7 1.94
-15 -5 -9 2.67 2.18
-15 -5 -9 -1.05 2.05
5 -15 -9 5.71 2.53
-5 15 -9 -2.99 2.03
5 -15 9 -0.77 1.94
-5 15 9 -1.25 1.98
4 -15 -9 3.09 2.39
-15 -4 -9 -1.38 2.02
-4 15 -9 -1.55 2.07
-15 -4 -9 4.09 2.28
4 -15 9 0.84 2.02
-4 15 9 4.23 2.16
-3 15 -9 -0.58 2.09
3 -15 -9 3.42 2.21
-15 -3 -9 -0.29 2
-15 -3 -9 -1.81 1.92
3 -15 9 -0.47 1.89
-3 15 9 -0.44 1.98
-15 -2 -9 1.81 1.87
2 -15 -9 1 2.11
-2 15 -9 1.61 2.09
-15 -2 -9 3.72 2.2
2 -15 9 2.08 2.06
-1 15 -9 0.46 2.1
1 -15 -9 1.16 2
-15 -1 -9 0.07 2.03
-15 -1 -9 1.95 2.1
1 -15 9 0.02 1.97
-15 -1 9 0.15 1.06
0 -15 -9 2.6 2.09
-15 0 -9 5.39 2.42
-15 0 -9 3.34 2.18
0 15 -9 4.41 2.32
0 -15 9 2.46 2.06
-15 0 9 3.52 1.29
-15 1 -9 1.53 2.15
-15 1 -9 1.97 2.12
1 15 -9 3.39 2.18
-1 -15 -9 6.95 2.1
-1 -15 9 6.44 2.14
-15 1 9 2.4 1.41
-15 2 -9 3.69 2.28
2 15 -9 1.87 2.11
-15 2 -9 -0.11 2.02
-15 2 9 -1.19 1.31
-2 -15 9 2.76 1.91
3 15 -9 3.43 2.24
-15 3 -9 -1.22 2.01
-3 -15 9 -0.13 1.81
-15 3 9 3.36 1.64
4 15 -9 1.2 2.16
-15 4 -9 -2.03 1.8
-15 4 9 -0.24 1.53
-4 -15 9 0.25 1.75
5 15 -9 -1 2.06
15 -5 -9 0.62 2.22
-15 5 -9 -0.67 2.09
-5 -15 9 -3.29 1.7
-15 5 9 1.61 1.57
-15 6 -9 5.14 2.38
6 15 -9 2.95 2.19
15 -6 -9 -0.27 2.23
-15 6 9 -0.43 1.67
-6 -15 9 0.67 1.76
-16 -2 -9 2.86 2.18
-2 16 -9 0.22 2.17
-16 -2 -9 1.83 2.25
2 -16 -9 0.91 2.22
2 -16 9 3.16 2.1
-16 -1 -9 1.52 2.02
-1 16 -9 -0.17 2.19
-16 -1 -9 0.68 2.22
1 -16 -9 -0.25 2.08
-16 -1 9 1.06 1.16
1 -16 9 0.56 2.15
-16 0 -9 -0.33 2.11
0 -16 -9 -1.03 2.13
0 16 -9 -1.48 2.15
-16 0 -9 -5.38 1.91
0 -16 9 -0.31 2.04
-16 0 9 1.75 1.29
1 16 -9 0.66 2.23
-1 -16 -9 4.6 2.27
-16 1 -9 1.07 2.16
-16 1 -9 -0.52 2.26
-16 1 9 0.38 1.38
-1 -16 9 0.87 2.02
-16 2 -9 0.49 1.97
2 16 -9 -0.01 2.12
-2 -16 9 0.8 1.94
-16 2 9 1.11 1.45
0 0 -10 162.61 9.68
0 0 10 167.98 9.54
0 0 10 159.3 9.51
1 0 -10 79.9 5.44
0 -1 -10 90.91 5.46
-1 0 -10 81.72 5.55
0 1 -10 86.01 5.53
1 0 10 93.42 5.51
-1 0 10 90.9 5.41
0 -1 10 80 5.35
0 -1 10 94.86 5.42
0 1 10 89.02 5.47
1 0 10 87.4 5.49
0 1 10 86.33 5.41
-1 1 -10 53.55 3.86
-1 -1 -10 56.3 3.76
1 -1 -10 54.71 3.68
1 1 -10 53.22 3.79
-1 1 10 58.44 3.75
1 1 10 54.51 3.74
-1 1 10 51.66 3.68
1 -1 10 54.02 3.8
1 -1 10 53.54 3.7
-1 -1 10 58.33 3.7
1 1 10 57.35 3.79
-1 2 -10 9.97 1.61
-2 -1 -10 9.02 1.47
2 1 -10 10.68 1.46
-2 -1 -10 8.6 1.44
1 -2 -10 7.6 1.25
-2 -1 10 7.26 1.23
-1 2 10 9.15 1.44
1 -2 10 6.96 1.43
1 -2 10 4.41 1.28
2 1 10 8 1.49
-1 2 10 10.22 1.49
-2 0 -10 1.61 1.2
2 0 -10 2.09 1.08
0 -2 -10 2.09 1.01
0 2 -10 0.8 1.2
2 0 10 -2.34 1.07
0 -2 10 0.52 1.03
0 -2 10 -0.94 1.02
0 2 10 0.66 1.14
0 2 10 -0.71 1.19
-2 0 10 0.2 0.25
-2 0 10 1.34 1.03
-1 -2 -10 -0.14 0.99
2 -1 -10 -0.71 0.88
-2 1 -10 -0.72 1.18
1 2 -10 1.37 1.26
1 2 10 1.4 1.17
-1 -2 10 0.51 0.92
2 -1 10 2.86 1.27
-2 1 10 -0.63 1.08
-2 1 10 -0.06 0.52
-1 -2 10 -0.18 0.41
-2 -2 -10 11.51 1.59
2 2 -10 7.71 1.58
2 -2 -10 12.04 1.38
-2 -2 -10 12.78 1.52
-2 2 -10 11.16 1.77
-2 2 10 8.43 1.41
-2 -2 10 12.17 1.37
2 -2 10 8.26 1.53
2 -2 10 13.42 1.67
-2 2 10 11.3 1.52
2 2 10 11.68 1.75
-3 -2 -10 26.35 2.36
3 2 -10 28.3 2.44
2 -3 -10 28.62 2.1
-2 3 -10 27.51 2.63
-3 -2 -10 29.91 2.53
2 -3 10 22.5 2.38
-2 3 10 25.28 2.32
-3 -2 10 27.64 2.07
-3 -2 10 24.76 2.03
-2 3 10 26.08 2.34
3 2 10 25.75 2.52
-1 3 -10 16.75 2.09
-3 -1 -10 15.03 1.88
3 1 -10 15.78 1.84
-3 -1 -10 17.22 1.89
1 -3 -10 16.76 1.59
1 -3 10 20.93 1.97
1 -3 10 12.62 1.8
3 1 10 20.46 2.11
-3 -1 10 14.85 1.55
-1 3 10 16.42 1.9
-3 -1 10 19.8 1.62
-1 3 10 20.17 1.97
0 3 -10 8.39 1.62
0 -3 -10 11.42 1.32
-3 0 -10 10.66 1.69
3 0 -10 10.12 1.42
-3 0 -10 11.32 1.62
0 3 10 7.2 1.49
-3 0 10 11.88 1.36
0 -3 10 10.14 1.46
3 0 10 10.96 1.65
-3 0 10 10.55 1.27
0 -3 10 8.6 1.41
0 3 10 9.76 1.56
-3 1 -10 8.62 1.56
-1 -3 -10 10.47 1.58
3 -1 -10 12.66 1.42
-1 -3 -10 11.36 1.4
1 3 -10 9.43 1.69
-3 1 -10 9.3 1.6
3 -1 10 11.15 1.66
1 3 10 8.97 1.63
-1 -3 10 9.54 1.38
-3 1 10 11.92 1.45
-2 -3 -10 0.9 0.98
-2 -3 -10 1.15 1.12
3 -2 -10 1.26 0.89
-3 2 -10 0.42 1.35
-3 2 -10 -0.69 1.14
2 3 -10 -0.08 1.19
2 3 10 0.58 1.28
-3 2 10 1.87 1.11
3 -2 10 1.88 1.24
-2 -3 10 0.73 0.66
-3 2 10 0.55 0.53
-2 -3 10 0.36 0.93
-3 -3 -10 -0.06 1.06
3 -3 -10 0.82 0.79
-3 -3 -10 0.16 1.22
3 3 -10 0.64 1.26
-3 3 -10 -0.34 1.21
-3 -3 10 -0.79 0.85
-3 -3 10 -0.58 0.57
-3 3 10 -0.42 0.88
3 -3 10 -0.52 1.21
-3 3 10 1.97 1.25
3 3 10 1.81 1.36
-4 -3 -10 0.65 1.29
-4 -3 -10 1.35 1.28
4 3 -10 1.84 1.24
3 -4 -10 0.33 0.66
-3 4 -10 -0.66 1.44
4 3 10 -0.77 1.38
3 -4 10 1.77 1.32
-4 -3 10 2.85 0.89
-3 4 10 1.08 1.21
-4 -3 10 3.03 0.87
-2 4 -10 50.18 3.92
-4 -2 -10 50.62 3.78
2 -4 -10 50.28 3.2
-4 -2 -10 59.04 3.74
4 2 -10 54.91 3.63
2 -4 10 47.05 3.58
4 2 10 47.54 3.76
-4 -2 10 49.17 3.21
-4 -2 10 50.78 3.22
-2 4 10 48.36 3.64
-4 -1 -10 53.6 3.7
-1 4 -10 45.13 3.84
4 1 -10 50.48 3.52
-4 -1 -10 50.99 3.69
1 -4 -10 48.4 3.23
-4 -1 10 48.91 3.2
-1 4 10 50.75 3.6
4 1 10 51.14 3.74
1 -4 10 48.5 3.54
1 -4 10 53.68 3.62
0 -4 -10 20.85 1.81
-4 0 -10 23.3 2.26
-4 0 -10 19.8 2.26
4 0 -10 25.66 2.04
0 4 -10 20.13 2.3
0 -4 10 21.26 2.02
-4 0 10 18.6 1.74
4 0 10 19.78 2.24
0 4 10 16.32 2.06
0 -4 10 20.53 1.98
1 4 -10 5.85 1.61
-4 1 -10 6.09 1.49
-1 -4 -10 9.84 1.48
-1 -4 -10 6.28 1.14
-4 1 -10 8.56 1.7
4 -1 -10 7.97 1.21
-1 -4 -10 6.66 1.46
4 -1 10 4.74 1.49
-4 1 10 5.69 1.19
1 4 10 6.56 1.53
-4 1 10 6.16 1.13
-1 -4 10 7.54 1.3
-4 2 -10 5.81 1.63
-4 2 -10 5.12 1.38
4 -2 -10 3.58 0.99
-2 -4 -10 5.66 1.39
2 4 -10 4.63 1.46
-2 -4 -10 3.82 1.14
-4 2 10 6.25 1.24
4 -2 10 5.04 1.46
-2 -4 10 4.89 1.08
-2 -4 10 2.57 0.83
2 4 10 6.19 1.54
-4 3 -10 11.24 1.93
-3 -4 -10 10.96 1.54
-3 -4 -10 9.91 1.71
4 -3 -10 10.44 1.14
3 4 -10 9.45 1.7
-3 -4 10 8.46 1.21
3 4 10 8.48 1.73
-4 3 10 11.08 1.5
4 -3 10 8.09 1.69
4 4 -10 17.28 2.03
4 -4 -10 16.72 1.27
-4 -4 -10 14.7 1.85
-4 -4 -10 15.91 2.05
-4 4 -10 12.93 2.06
4 4 10 14.97 2.1
4 -4 10 12.81 1.93
-4 -4 10 15.03 1.43
-4 4 10 13.63 1.78
-4 -4 10 12.1 1.36
5 4 -10 10.97 1.83
-5 -4 -10 10.46 1.84
-5 -4 -10 7.24 1.62
-4 5 -10 8.13 1.94
-5 -4 10 10.14 1.08
-4 5 10 9.06 1.6
4 -5 10 10.66 1.79
5 4 10 10.6 1.94
-5 -4 10 9.82 1.08
-5 -3 -10 9.19 1.83
-3 5 -10 13.16 2.06
5 3 -10 9.9 1.63
-5 -3 -10 10.07 1.71
3 -5 10 7.36 1.7
-5 -3 10 7.51 0.99
-3 5 10 8.68 1.64
5 3 10 10.41 1.88
-5 -3 10 7.46 1
5 2 -10 67.75 4.6
-2 5 -10 69.66 5.02
2 -5 -10 73.18 4.16
-5 -2 -10 76.62 4.82
-5 -2 -10 78.9 4.83
-5 -2 10 69.13 4.15
-2 5 10 65.75 4.66
5 2 10 64.36 4.68
2 -5 10 61.03 4.58
-5 -2 10 70 4.15
-5 -1 -10 55.52 3.93
5 1 -10 56.92 3.72
1 -5 -10 53.41 3.35
-1 5 -10 53.13 4.15
-5 -1 -10 56.73 3.98
-1 5 10 48.66 3.79
-5 -1 10 49.67 3.31
-5 -1 10 54.41 3.32
1 -5 10 53.88 3.71
5 1 10 52.91 3.95
0 -5 -10 4.59 0.97
-5 0 -10 5.43 1.51
0 5 -10 4.62 1.61
-5 0 -10 3.82 1.52
5 0 -10 5.45 1.23
5 0 10 4.72 1.57
0 -5 10 7.46 1.37
0 -5 10 7.15 1.34
-5 0 10 6.39 1.07
-5 0 10 4.29 1.02
0 5 10 6.32 1.52
1 5 -10 7.14 1.74
-1 -5 -10 9.44 1.21
-5 1 -10 8.25 1.67
-5 1 -10 8.44 1.74
5 -1 -10 7.26 1.22
-1 -5 10 8.47 1.42
-5 1 10 7.87 1.2
1 5 10 8.7 1.67
5 -1 10 4.88 1.57
-2 -5 -10 8.35 1.61
-2 -5 -10 6.94 1.25
5 -2 -10 8.97 1.13
-5 2 -10 9.98 1.64
2 5 -10 8.38 1.71
-5 2 -10 9.08 1.84
-5 2 10 6.15 1.23
2 5 10 5.58 1.6
-2 -5 10 6.46 1.24
-2 -5 10 6.53 1.14
-5 2 10 3.79 1.12
5 -2 10 3.09 1.54
3 5 -10 21.4 2.35
-3 -5 -10 21.04 2.3
-5 3 -10 19.19 2.34
5 -3 -10 21.57 1.63
-3 -5 -10 22.45 1.97
-5 3 10 19.29 1.94
3 5 10 19.93 2.33
5 -3 10 18.47 2.29
-5 3 10 14.32 1.63
-3 -5 10 17.25 1.72
4 5 -10 4.19 1.58
-4 -5 -10 6.21 1.65
-4 -5 -10 2.73 1.28
-5 4 -10 6.45 1.67
5 -4 10 4.17 1.56
-4 -5 10 7.08 1.13
-5 4 10 7.18 1.4
4 5 10 4.7 1.66
-4 -5 10 4.6 1.04
-5 -5 -10 13.89 1.81
-5 5 -10 14.53 2.3
-5 -5 -10 18.15 2.18
5 -5 10 14.96 2.07
-5 -5 10 14.75 1.35
5 5 10 10.63 2
-5 -5 10 11.7 1.28
-5 5 10 9.85 1.72
-6 -5 -10 9.15 1.71
-6 -5 -10 7.76 1.83
-5 6 -10 5.96 1.69
5 -6 10 8.49 1.77
6 5 10 6.37 1.75
-5 6 10 5.57 1.49
-6 -5 10 7.84 0.91
-6 -5 10 7.03 0.89
-4 6 -10 2 1.63
-6 -4 -10 1.89 1.35
-6 -4 -10 1.53 1.48
6 4 10 2.05 1.56
4 -6 10 1.53 1.44
-4 6 10 1.39 1.29
-6 -3 -10 5.33 1.54
-3 6 -10 1.8 1.66
-6 -3 -10 3.97 1.61
6 3 10 2.69 1.45
-3 6 10 5.53 1.54
3 -6 10 0.57 1.38
-6 -2 -10 22.48 2.4
-2 6 -10 26.46 2.66
-6 -2 -10 24.95 2.44
6 2 10 18.06 2.35
-6 -2 10 19.1 1.5
-6 -2 10 19.31 1.49
-2 6 10 15.85 2.15
2 -6 10 20.19 2.24
1 -6 -10 19.04 1.4
-1 6 -10 18.29 2.22
-6 -1 -10 14.62 2.07
-6 -1 -10 16.84 2.19
6 1 -10 15.62 1.82
-6 -1 10 12.62 1.25
6 1 10 13.15 2.08
1 -6 10 13.65 1.86
-1 6 10 10.41 1.89
-6 -1 10 14.89 1.32
6 0 -10 1.59 1.08
0 -6 -10 3.17 0.88
0 6 -10 2.27 1.54
-6 0 -10 4.21 1.58
-6 0 -10 5.48 1.58
-6 0 10 4.8 0.98
0 6 10 4.47 1.56
-6 0 10 6.27 0.96
0 -6 10 4.44 1.37
6 0 10 4.78 1.65
-6 1 -10 15.37 2.07
1 6 -10 14.65 2.1
-6 1 -10 15.18 2.09
6 -1 -10 16.47 1.61
-1 -6 -10 15.97 1.55
1 6 10 14.44 2.05
-1 -6 10 14.3 1.69
-6 1 10 14.38 1.53
-6 1 10 12.34 1.45
6 -1 10 13.02 2.03
-1 -6 10 14.87 1.71
2 6 -10 2.82 1.59
6 -2 -10 1.51 0.9
-2 -6 -10 2.71 1.08
-6 2 -10 2.05 1.44
-6 2 -10 4.08 1.64
-6 2 10 5.59 1.13
6 -2 10 2.72 1.52
-6 2 10 0.44 0.55
2 6 10 2.44 1.54
-2 -6 10 3.13 1.07
-2 -6 10 2.68 1.17
-3 -6 -10 41.24 3.44
6 -3 -10 37 2.71
3 6 -10 38.91 3.39
-6 3 -10 37.56 3.64
-3 -6 -10 30.08 2.98
6 -3 10 46.03 3.51
-3 -6 10 50.86 3.03
-6 3 10 48.08 3.1
-6 3 10 45.58 3.08
3 6 10 51.21 3.57
-4 -6 -10 16.76 2.19
4 6 -10 14.37 2.28
-6 4 -10 21.18 2.61
-4 -6 -10 14.34 1.95
-6 4 10 18.52 1.92
4 6 10 19.59 2.39
-4 -6 10 22.46 1.83
6 -4 10 18.89 2.36
-4 -6 10 22.87 1.84
-5 -6 -10 16.76 2.03
-6 5 -10 19.71 2.37
-5 -6 -10 16.63 2.31
-5 -6 10 17.8 1.58
-5 -6 10 18.53 1.58
6 -5 10 17.34 2.27
5 6 10 16.14 2.25
-6 5 10 16.64 1.98
-6 -6 -10 1.94 1.3
-6 -6 -10 2.54 1.5
-6 6 -10 4.04 1.67
-6 6 10 4.38 1.4
6 -6 10 0.47 1.49
-6 -6 10 1.69 0.82
-6 -6 10 1.78 0.83
6 6 10 3.12 1.62
-7 -6 -10 5.96 1.85
-6 7 -10 8.31 1.97
-7 -6 -10 8.11 1.76
6 -7 10 8.55 1.87
7 6 10 6.71 1.85
-7 -6 10 8.27 0.91
-6 7 10 7.75 1.65
-7 -5 -10 -0.22 1.3
-7 -5 -10 -0.83 1.45
-5 7 -10 0.77 1.51
7 5 10 -0.33 1.47
-5 7 10 -1.69 1.32
5 -7 10 -0.49 1.37
-7 -4 -10 6.11 1.57
-7 -4 -10 8.25 1.82
-4 7 -10 7.06 1.79
-4 7 10 2 1.48
4 -7 10 2.77 1.54
7 4 10 5.42 1.71
-3 7 -10 9.79 1.88
-7 -3 -10 7.81 1.69
-7 -3 -10 9.13 1.79
7 3 10 9.62 1.77
-3 7 10 6.11 1.67
3 -7 10 5.25 1.64
-7 -2 -10 0.03 1.44
-2 7 -10 3.1 1.54
-7 -2 -10 -0.15 1.41
7 2 10 1.32 1.38
2 -7 10 -0.71 1.28
-2 7 10 2.54 1.44
-7 -1 -10 0.16 1.45
-1 7 -10 2.66 1.66
-7 -1 -10 2.46 1.58
7 1 10 2.74 1.52
-1 7 10 1.26 1.45
1 -7 10 1.77 1.35
-7 -1 10 1.34 0.71
-7 -1 10 2.94 0.73
0 7 -10 0.91 1.59
-7 0 -10 -1.02 1.41
-7 0 -10 0.22 1.47
0 -7 -10 0.56 0.81
-7 0 10 0.33 0.79
0 7 10 -1.45 1.37
7 0 10 -0.71 1.41
-7 0 10 0.34 0.8
0 -7 10 0.71 1.23
1 7 -10 1.44 1.47
-1 -7 -10 2.3 0.98
7 -1 -10 2.47 1.03
-7 1 -10 0.49 1.5
-7 1 -10 0.22 1.42
-7 1 10 1.09 0.91
1 7 10 3.12 1.54
-1 -7 10 -0.55 1.13
7 -1 10 1.72 1.53
-7 1 10 1.3 0.93
-2 -7 -10 5.93 1.23
2 7 -10 5.52 1.68
-7 2 -10 5.21 1.67
-7 2 -10 6.67 1.71
7 -2 -10 5.75 1.08
-2 -7 10 6.73 1.24
7 -2 10 4.12 1.7
-7 2 10 7.49 1.29
-7 2 10 7.18 1.23
2 7 10 5.54 1.79
-3 -7 -10 41.26 2.97
-7 3 -10 33.2 3.39
3 7 -10 29.57 3.26
-3 -7 10 42.99 2.84
7 -3 10 36.99 3.34
-7 3 10 38.04 2.87
3 7 10 35.17 3.3
-7 4 -10 8.69 1.9
4 7 -10 4.35 1.73
-4 -7 -10 7.31 1.43
-4 -7 10 7.46 1.22
7 -4 10 4.06 1.71
4 7 10 7.47 1.8
-7 4 10 9.09 1.39
-4 -7 10 6.9 1.25
-5 -7 -10 5.42 1.77
-7 5 -10 0.87 1.57
-5 -7 -10 4.38 1.3
-5 -7 10 2.51 1.01
5 7 10 3.35 1.66
-7 5 10 5.04 1.41
7 -5 10 4.1 1.66
-5 -7 10 4.7 1.07
-6 -7 -10 10.28 1.78
-6 -7 -10 8.7 2.01
-7 6 -10 12.32 2.13
-7 6 10 11.92 1.85
6 7 10 11.11 2.07
-6 -7 10 9.31 1.24
7 -6 10 10.76 2.01
-6 -7 10 9.88 1.25
-7 -7 -10 33.44 3.2
-7 7 -10 32.1 3.25
-7 -7 -10 31.76 2.91
7 -7 10 29.5 3.06
-7 7 10 22.79 2.6
-7 -7 10 30.11 2.08
7 7 10 26.63 3.04
-7 -7 10 27.28 2.08
-8 -7 -10 21.31 2.65
-8 -7 -10 30.83 3.07
-7 8 -10 21.01 2.93
-7 8 10 21.69 2.56
7 -8 10 26.36 2.84
-6 8 -10 7.38 2.14
-8 -6 -10 9.58 1.91
-8 -6 -10 8.75 2.04
6 -8 10 9.01 1.94
8 6 10 10.54 2.08
-6 8 10 9.98 1.9
-5 8 -10 -1.43 1.5
-8 -5 -10 -2.3 1.31
-8 -5 -10 1.83 1.49
-5 8 10 -1.65 1.36
8 5 10 -0.04 1.57
5 -8 10 0.73 1.5
-8 -4 -10 4.33 1.76
-4 8 -10 3.98 1.69
-8 -4 -10 2.47 1.37
8 4 10 3.94 1.55
4 -8 10 3.07 1.55
-4 8 10 1.25 1.44
-8 -3 -10 13.74 2.13
-8 -3 -10 14.27 2.18
-3 8 -10 18.48 2.38
3 -8 10 15.7 2.1
-3 8 10 13.47 2.1
8 3 10 13.81 2.23
-8 -2 -10 14.6 2.15
-8 -2 -10 15.01 2.27
-2 8 -10 18.34 2.39
8 2 10 13.48 2.12
-2 8 10 16.38 2.18
2 -8 10 21.19 2.24
-8 -1 -10 6.13 1.64
-1 8 -10 7.36 1.87
-8 -1 -10 2.79 1.68
-1 8 10 6.4 1.72
8 1 10 9.09 1.9
1 -8 10 7.1 1.62
0 8 -10 -0.07 1.42
-8 0 -10 1.64 1.55
-8 0 -10 1.92 1.56
0 -8 10 1.46 1.31
8 0 10 2.05 1.54
-8 0 10 1.02 0.78
-8 0 10 1.72 0.79
0 8 10 1.34 1.5
1 8 -10 2.99 1.51
-8 1 -10 0.6 1.42
-1 -8 -10 2.04 0.97
-8 1 -10 1.84 1.53
8 -1 10 2.18 1.42
-8 1 10 2.15 0.95
-1 -8 10 2.05 1.23
-8 1 10 0.73 0.9
1 8 10 -0.24 1.47
-8 2 -10 0.81 1.54
2 8 -10 2.62 1.61
-2 -8 -10 1.68 1
-8 2 -10 1.86 1.58
2 8 10 0.92 1.47
-8 2 10 0.52 0.97
8 -2 10 2.11 1.59
-8 2 10 0.58 0.98
-2 -8 10 1.44 1.14
3 8 -10 1.61 1.61
-8 3 -10 4.81 1.61
-3 -8 -10 3.34 1.22
-8 3 10 2.97 1.11
-8 3 10 4.98 1.21
-3 -8 10 4.13 1.2
-8 3 10 1.96 1.13
3 8 10 1.05 1.53
8 -3 10 3.53 1.48
-8 4 -10 6.9 1.89
4 8 -10 9.19 1.99
-4 -8 -10 11.65 1.63
-4 -8 10 11.53 1.46
-8 4 10 7.5 1.4
8 -4 10 6.9 1.87
4 8 10 7.84 1.94
-8 5 -10 5.51 1.77
-5 -8 -10 6.02 1.51
-8 5 10 5.72 1.4
5 8 10 4.1 1.78
8 -5 10 4.27 1.74
-5 -8 10 5.34 1.22
-5 -8 10 4.82 1.21
-8 6 -10 3.07 1.82
-6 -8 -10 4.86 1.6
-6 -8 10 4.38 1.15
-8 6 10 4.97 1.49
-6 -8 10 6.45 1.2
8 -6 10 2.95 1.72
6 8 10 5.25 1.84
-7 -8 -10 11.92 2.34
-8 7 -10 10.63 2.26
-7 -8 -10 12.51 2.14
8 -7 10 14.86 2.35
-8 7 10 13.48 2.03
-7 -8 10 14.31 1.47
-7 -8 10 14.51 1.48
-8 8 -10 11.05 2.41
-8 -8 -10 13.62 2.3
-8 -8 -10 9.72 2.02
-8 -8 10 8.82 1.17
-8 8 10 9 2
-8 -8 10 10.74 1.23
8 -8 10 8.25 2.05
-9 -8 -10 4.79 2.08
-8 9 -10 2.83 2.06
-9 -8 -10 1.08 1.69
-9 -8 10 2.82 0.81
8 -9 10 2.36 1.77
-8 9 10 0.99 1.72
-9 -7 -10 9.95 2.2
-9 -7 -10 5.98 1.92
-7 9 -10 6.28 2.02
7 -9 10 7.79 2.02
-7 9 10 6.27 1.82
-9 -6 -10 9.54 1.95
-9 -6 -10 9.47 2.17
-6 9 -10 7.72 2.25
-6 9 10 9.93 1.98
6 -9 10 11.97 2.17
-9 -5 -10 -0.07 1.64
-9 -5 -10 2.88 1.59
-5 9 -10 -2.04 1.66
-5 9 10 -0.26 1.49
5 -9 10 2.09 1.67
-4 9 -10 2.02 1.79
-9 -4 -10 5.89 1.83
-9 -4 -10 4.1 1.7
9 4 10 4.92 1.82
-4 9 10 1.58 1.66
4 -9 10 3.14 1.68
-3 9 -10 7.88 1.97
-9 -3 -10 6.21 1.84
-9 -3 -10 8.69 1.85
9 3 10 5.98 1.93
-3 9 10 7.03 1.79
3 -9 10 9.49 1.9
-2 9 -10 16.79 2.28
-9 -2 -10 16.26 2.35
-9 -2 -10 15.38 2.23
-2 9 10 18.57 2.32
9 2 10 12.82 2.25
2 -9 10 15.56 2.15
-1 9 -10 4.65 1.64
-9 -1 -10 4.51 1.67
-9 -1 -10 5.56 1.83
9 1 10 6.58 1.87
1 -9 10 5.82 1.59
-1 9 10 7.47 1.78
-9 0 -10 -0.74 1.54
0 9 -10 -0.02 1.41
-9 0 -10 -0.27 1.58
-9 0 10 0.97 0.77
0 -9 10 0.16 1.31
0 9 10 -0.03 1.43
9 0 10 1.73 1.59
-9 0 10 0.58 0.77
-9 1 -10 8.76 1.99
1 9 -10 6.65 1.86
-9 1 -10 7.29 1.89
9 -1 10 6.23 1.84
1 9 10 5.98 1.81
-9 1 10 7.71 1.22
-1 -9 10 8.12 1.62
-9 1 10 8.03 1.15
2 9 -10 6.34 1.78
-9 2 -10 3.05 1.65
-2 -9 -10 6.4 1.27
-2 -9 10 5.46 1.45
-9 2 10 6.62 1.19
-9 2 10 7.65 1.26
2 9 10 5.63 1.82
9 -2 10 8.3 1.95
-9 2 10 10.36 1.31
-3 -9 -10 2.63 1.22
3 9 -10 4.14 1.62
-9 3 -10 4.24 1.62
3 9 10 5.39 1.78
-3 -9 10 2.36 1.14
-9 3 10 3.72 1.23
9 -3 10 5.85 1.85
4 9 -10 -1.01 1.51
-4 -9 -10 1.31 1.25
-9 4 -10 0.07 1.55
-4 -9 10 1.33 1.13
-9 4 10 -0.15 1.14
4 9 10 -0.35 1.36
9 -4 10 -1.38 1.54
5 9 -10 0.62 1.64
-5 -9 -10 0.86 1.29
-9 5 -10 1.5 1.69
-5 -9 10 -1.49 1.09
9 -5 10 -0.15 1.62
5 9 10 0.23 1.67
-9 5 10 -1.38 1.15
-6 -9 -10 3.03 1.47
-9 6 -10 6.31 2.02
6 9 10 4.33 1.83
-9 6 10 2.94 1.51
9 -6 10 3 1.65
-6 -9 10 3.88 1.23
-7 -9 -10 3.22 1.56
-9 7 -10 5.81 2.1
9 -7 10 6.84 1.98
-7 -9 10 5.41 1.25
-9 7 10 3.88 1.64
-9 8 -10 2.02 1.98
-8 -9 -10 3.15 1.72
-9 8 10 2.3 1.72
-8 -9 10 3.45 1.09
9 -8 10 5.49 1.96
-9 -9 -10 2.64 1.69
-9 9 -10 -3.35 1.82
9 -9 10 -4.07 1.62
-9 9 10 -0.3 1.56
-9 -9 10 -0.65 0.94
-9 -9 10 1.17 0.88
-10 -9 -10 3.44 1.84
-9 10 -10 -0.26 1.99
-10 -9 10 0.07 0.78
9 -10 10 3.05 1.96
-9 10 10 3.01 1.89
-10 -9 10 -0.12 0.85
-10 -8 -10 -0.09 1.86
-8 10 -10 4.32 2.14
-10 -8 -10 1.25 1.82
8 -10 10 0.95 1.84
-8 10 10 -0.16 1.73
-10 -7 -10 1.25 1.86
-7 10 -10 1.23 1.99
-10 -7 -10 -2.44 1.7
-7 10 10 0.27 1.64
7 -10 10 3.44 1.84
-10 -6 -10 4.54 1.77
-10 -6 -10 2.46 1.65
-6 10 -10 1.23 1.89
-6 10 10 2.27 1.75
6 -10 10 1.02 1.65
-10 -5 -10 -1.83 1.52
-5 10 -10 -1.27 1.69
-10 -5 -10 2.13 1.85
5 -10 10 -0.75 1.55
-5 10 10 0.05 1.78
-4 10 -10 4.33 2
-10 -4 -10 3.64 1.83
-10 -4 -10 4.42 1.81
4 -10 10 7.59 1.89
-4 10 10 4.47 1.76
-10 -3 -10 14.02 2.21
-10 -3 -10 8.01 2.04
-3 10 -10 9.05 2.22
3 -10 10 9.94 2
-3 10 10 9.07 2.01
-2 10 -10 11.65 2.13
-10 -2 -10 13.35 2.27
-10 -2 -10 11.59 2.25
-2 10 10 12.69 2.16
2 -10 10 13.61 2.06
-10 -1 -10 6.3 1.95
-1 10 -10 6.15 1.81
-10 -1 -10 6.96 1.98
-1 10 10 1.24 1.67
10 1 10 4.53 1.88
1 -10 10 4.8 1.63
-10 0 -10 4.12 1.84
-10 0 -10 3.98 1.85
0 10 -10 5.11 1.88
0 10 10 1.94 1.73
0 -10 10 5.85 1.68
-10 0 10 4.52 0.92
-10 0 10 4.33 0.91
10 0 10 4.31 1.85
-10 1 -10 20.58 2.62
1 10 -10 15.21 2.33
-10 1 -10 22.18 2.7
-10 1 10 15.74 1.59
-10 1 10 16.7 1.64
10 -1 10 16.51 2.48
-1 -10 10 22.46 2.32
-10 1 10 18.61 1.65
1 10 10 19.62 2.41
-10 2 -10 21.05 2.76
2 10 -10 24.13 2.75
-2 -10 10 22.08 2.39
-10 2 10 23.96 1.99
10 -2 10 19.47 2.55
-10 2 10 21.9 2.02
2 10 10 23.18 2.68
3 10 -10 11.3 2.25
-10 3 -10 9.62 2.03
-3 -10 -10 10.77 1.57
-3 -10 10 10.17 1.66
10 -3 10 11.06 2.18
-10 3 10 7.77 1.57
3 10 10 9.81 2.12
-4 -10 -10 0.86 1.27
4 10 -10 3.47 1.85
-10 4 -10 -1.48 1.55
-4 -10 10 0.1 1.19
10 -4 10 2.24 1.72
4 10 10 -0.1 1.63
-10 4 10 2.69 1.37
5 10 -10 1.63 1.84
-10 5 -10 3.6 1.74
-5 -10 -10 1.6 1.45
10 -5 10 -0.59 1.76
-10 5 10 0.9 1.34
-5 -10 10 3.09 1.34
5 10 10 3.94 1.88
-10 6 -10 3.3 1.94
-6 -10 -10 4.08 1.62
-10 6 10 5.89 1.61
-6 -10 10 5.45 1.41
10 -6 10 1.7 1.85
-10 7 -10 2.94 1.96
-7 -10 -10 4.76 1.71
-10 7 10 3.71 1.72
10 -7 10 1.58 1.82
-7 -10 10 4.62 1.34
-8 -10 -10 -2.57 1.53
-10 8 -10 -0.18 1.88
-10 8 10 3.09 1.7
10 -8 10 1.35 1.82
-8 -10 10 -0.4 1.11
-9 -10 -10 -1.62 1.52
-10 9 -10 3.16 2.07
-10 9 10 0.33 1.75
-9 -10 10 0.55 1.12
-10 10 -10 5.02 2.21
-10 -10 -10 0.67 1.81
-10 -10 10 -0.85 1.01
-10 10 10 -1.66 1.85
10 -11 -10 4.14 2.56
-10 11 -10 -1.64 1.99
-11 -10 -10 3.09 2.03
-11 -10 10 -0.48 0.94
-10 11 10 -0.23 2.04
-9 11 -10 2.94 2.25
9 -11 -10 6.14 2.45
-11 -9 -10 1.33 1.91
-9 11 10 4.34 2.09
9 -11 10 2.78 2.05
-11 -8 -10 1.62 1.93
-11 -8 -10 4.03 2.12
-8 11 -10 6.29 2.33
8 -11 10 3.44 2.08
-8 11 10 4.51 1.99
-11 -7 -10 -0.03 1.76
-7 11 -10 -0.31 1.82
-11 -7 -10 -0.54 1.86
-7 11 10 1.82 1.77
7 -11 10 3.46 1.92
-11 -6 -10 2.69 1.92
-11 -6 -10 1.47 1.74
-6 11 -10 1.75 1.95
-6 11 10 0.43 1.65
6 -11 10 -2.3 1.61
-11 -5 -10 -3.21 1.51
-11 -5 -10 -1.35 1.79
-5 11 -10 2.16 1.96
-5 11 10 0.13 1.65
5 -11 10 -0.5 1.62
-4 11 -10 3.31 1.97
-11 -4 -10 2.26 1.67
-11 -4 -10 0.14 1.7
-4 11 10 3.45 1.79
4 -11 10 -0.25 1.7
-11 -3 -10 -1.25 1.69
-3 11 -10 1.42 1.73
-11 -3 -10 2.06 1.85
-3 11 10 2.69 1.75
3 -11 10 0.85 1.61
-11 -2 -10 0.21 1.69
-11 -2 -10 -0.73 1.79
-2 11 -10 -2.08 1.68
2 -11 10 1.01 1.59
-2 11 10 0.46 1.62
-1 11 -10 -0.82 1.74
-11 -1 -10 3.85 1.89
-11 -1 -10 2.15 1.82
-1 11 10 3.83 1.76
1 -11 10 -0.03 1.49
0 11 -10 1 1.83
-11 0 -10 3.24 1.99
-11 0 -10 2.66 1.7
-11 0 10 4.45 0.92
0 11 10 1.29 1.59
-11 0 10 4.57 0.94
0 -11 10 6.42 1.69
1 11 -10 17.22 2.56
-11 1 -10 18.72 2.61
-11 1 -10 16.24 2.5
1 11 10 13.63 2.39
-11 1 10 13.54 1.44
-11 1 10 13.88 1.55
-1 -11 10 13.94 2.12
-11 2 -10 16.6 2.47
2 11 -10 14.35 2.45
-11 2 10 14.42 1.71
-2 -11 10 17.65 2.17
2 11 10 14.45 2.41
-11 3 -10 8.08 2.11
3 11 -10 4.11 1.94
-11 3 10 2.6 1.37
3 11 10 8.89 1.96
-3 -11 10 7.71 1.6
4 11 -10 0.49 1.75
-11 4 -10 0.65 1.76
-4 -11 10 1.87 1.35
-11 4 10 -0.59 1.32
4 11 10 0.74 1.83
-11 5 -10 2.74 1.85
5 11 -10 7.94 1.99
-5 -11 -10 3.16 1.49
-11 5 10 5.08 1.54
-5 -11 10 6.86 1.57
-11 6 -10 5.72 1.97
-6 -11 -10 4.28 1.61
-6 -11 10 7.98 1.57
-11 6 10 6.21 1.71
-11 7 -10 1.02 1.96
-7 -11 -10 4.06 1.7
-11 7 10 3.03 1.64
-7 -11 10 3.36 1.42
-11 8 -10 1.55 2.04
-8 -11 -10 2.95 1.72
-11 8 10 -2.25 1.57
-8 -11 10 0.9 1.31
-11 9 -10 1.76 2.15
-9 -11 -10 0.55 1.82
-9 -11 10 -0.37 1.17
-11 9 10 0.3 1.82
-11 10 -10 -0.46 2.06
-10 -11 -10 0.7 1.83
11 -10 -10 -1.09 2.31
-10 -11 10 -0.67 1.19
-11 10 10 -2.01 1.89
-11 -11 -10 -1.59 1.87
-11 11 -10 1.72 2.32
11 -11 -10 -2.76 2.31
-11 -11 10 1.76 1.16
-11 11 10 -2.03 2.04
-10 12 -10 1.3 2.3
-12 -10 -10 1.58 2.1
10 -12 -10 2.28 2.47
-10 12 10 2.96 2.22
9 -12 -10 2.06 2.37
-9 12 -10 5.31 2.38
-12 -9 -10 0.95 2.17
-9 12 10 -0.53 1.95
8 -12 -10 0.69 2.46
-8 12 -10 2.98 2.29
-12 -8 -10 4.72 2.17
-12 -8 -10 2.03 2.12
-8 12 10 2.25 2
8 -12 10 4.8 2.21
-7 12 -10 -1.38 2.03
-12 -7 -10 0.26 1.89
-12 -7 -10 2.78 2.06
7 -12 -10 2.84 2.36
-7 12 10 0.83 1.84
7 -12 10 3.61 1.95
-12 -6 -10 -1.68 1.81
-6 12 -10 0.39 1.96
-12 -6 -10 2.1 1.95
6 -12 10 -1.8 1.65
-6 12 10 0.18 1.73
-5 12 -10 -2.21 1.82
-12 -5 -10 3.13 2.01
-12 -5 -10 -1.29 1.76
5 -12 10 4.28 1.89
-5 12 10 -0.06 1.77
-12 -4 -10 3.05 1.94
-4 12 -10 -0.53 1.71
-12 -4 -10 1.26 1.85
-4 12 10 3.38 1.85
4 -12 10 -0.38 1.78
-3 12 -10 2.12 2.07
-12 -3 -10 1.2 1.91
-12 -3 -10 0.88 1.87
-3 12 10 -0.22 1.72
3 -12 10 0.16 1.77
-12 -2 -10 4.01 1.97
-2 12 -10 3.23 1.86
-12 -2 -10 3.13 2.01
-2 12 10 0.45 1.74
2 -12 10 -0.83 1.57
-12 -1 -10 -3.34 1.63
-1 12 -10 0.49 1.9
-12 -1 -10 -2.7 1.7
-1 12 10 -2.05 1.63
1 -12 10 0.39 1.65
-12 0 -10 -2.05 1.77
-12 0 -10 1.05 1.8
0 12 -10 -1.42 1.75
0 -12 10 0.91 1.67
-12 0 10 -0.07 0.78
0 12 10 -0.48 1.72
-12 0 10 0.06 0.86
1 12 -10 1.84 1.81
-12 1 -10 -0.09 1.74
-12 1 10 1.62 1.06
-1 -12 10 1.35 1.59
-12 1 10 2.25 0.97
1 12 10 1.45 1.83
-12 2 -10 4.27 1.81
2 12 -10 0.83 1.78
-12 2 10 2.11 1.2
-2 -12 10 3.68 1.65
2 12 10 2.85 1.75
-12 3 -10 1.01 1.89
3 12 -10 1.03 1.78
3 12 10 1.45 1.7
-3 -12 10 -0.66 1.46
-12 3 10 2.16 1.31
-12 4 -10 -0.8 1.77
4 12 -10 0.05 1.59
-4 -12 10 1.82 1.36
-12 4 10 -0.39 1.35
-12 5 -10 0.74 1.96
5 12 -10 -0.07 1.82
-12 5 10 1.05 1.46
-5 -12 10 -1.2 1.32
-12 6 -10 1.73 2.06
-6 -12 -10 2.95 1.6
-12 6 10 2.88 1.51
-6 -12 10 -0.5 1.4
-7 -12 -10 5.77 1.79
-12 7 -10 1.17 2.02
-12 7 10 -0.3 1.63
-7 -12 10 2.04 1.45
-12 8 -10 -0.92 2.02
-8 -12 -10 1.47 1.78
-8 -12 10 1.92 1.44
-12 8 10 -1.26 1.74
-9 -12 -10 1.18 1.85
12 -9 -10 -0.91 2.23
-12 9 -10 0.58 2.11
-9 -12 10 -0.87 1.32
-12 9 10 0.86 1.98
-10 -12 -10 1.24 1.99
12 -10 -10 0.27 2.4
-12 10 -10 2.53 2.25
-12 10 10 -0.39 1.95
-10 -12 10 -0.66 1.28
-8 13 -10 0.33 2.29
-13 -8 -10 3.46 2.22
-13 -8 -10 2.73 2.25
8 -13 -10 5.37 2.74
-8 13 10 1.76 2.2
8 -13 10 2.45 2.06
7 -13 -10 1.12 2.35
-13 -7 -10 -3.16 1.99
-7 13 -10 -0.12 2.08
-13 -7 -10 4.31 2.26
7 -13 10 -1.78 1.8
-7 13 10 0.93 2.04
-13 -6 -10 3.78 2.21
6 -13 -10 -1.47 2.22
-6 13 -10 -1.09 2.04
-13 -6 -10 1.52 2.02
6 -13 10 0.96 1.89
-6 13 10 2.94 1.99
-13 -5 -10 0.1 1.94
5 -13 -10 8.96 2.55
-5 13 -10 2.93 2.17
-13 -5 -10 4.09 2.15
5 -13 10 0.9 1.82
-5 13 10 6.17 2.1
4 -13 -10 5.36 2.42
-4 13 -10 3.51 2.21
-13 -4 -10 2.84 1.89
-13 -4 -10 5.06 2.09
-4 13 10 1.16 1.88
4 -13 10 3.02 1.87
-13 -3 -10 7.08 2.23
-13 -3 -10 5.43 2.21
-3 13 -10 3.31 2.2
3 -13 -10 3.81 2.31
3 -13 10 2.87 1.88
-3 13 10 5.81 2.09
-13 -2 -10 1.58 2.05
-2 13 -10 -0.98 1.91
-13 -2 -10 -0.71 1.97
2 -13 -10 2.68 2.17
2 -13 10 2.28 1.79
-2 13 10 0.77 1.88
1 -13 -10 1.9 1.99
-13 -1 -10 2.82 1.93
-1 13 -10 1.86 2.03
-13 -1 -10 0.72 1.94
1 -13 10 0.61 1.71
-1 13 10 1.28 1.91
-13 0 -10 2.87 1.95
0 13 -10 -1.79 1.89
0 -13 -10 0.66 1.91
0 13 10 1.64 1.87
-13 0 10 2.42 0.98
-13 0 10 1.06 0.87
0 -13 10 0.47 1.75
-1 -13 -10 3.44 1.99
-13 1 -10 2.38 1.8
1 13 -10 -1.78 1.81
-1 -13 10 -1.72 1.59
-13 1 10 0.54 1.09
1 13 10 -0.75 1.85
-2 -13 -10 -2.74 1.77
-13 2 -10 1.07 1.87
2 13 -10 -0.73 1.61
-2 -13 10 -0.92 1.55
-13 2 10 -0.53 1.18
-3 -13 -10 1.09 1.81
3 13 -10 -0.54 1.74
-13 3 -10 -0.89 1.64
-3 -13 10 -1.56 1.5
-13 3 10 0.65 1.28
-13 4 -10 -1.14 1.96
4 13 -10 1.98 1.92
-13 4 10 0.35 1.39
-4 -13 10 2.18 1.6
5 13 -10 0.89 1.9
-13 5 -10 0.82 2.07
-13 5 10 1.53 1.52
-5 -13 10 -0.57 1.43
6 13 -10 -0.81 1.64
-13 6 -10 1.79 2.09
-13 6 10 0.37 1.57
-6 -13 10 2.54 1.52
-13 7 -10 1.52 2.16
-7 -13 10 1.08 1.58
-13 7 10 1.12 1.74
-8 -13 -10 1.47 1.72
-13 8 -10 -0.3 2.11
-13 8 10 -1.44 1.75
-8 -13 10 1.12 1.49
7 -14 -10 -0.76 2.38
-14 -7 -10 1.7 2.19
-7 14 -10 0.23 2.25
-14 -7 -10 -2.19 2.09
7 -14 10 -0.9 1.96
-7 14 10 -0.87 1.97
6 -14 -10 1.59 2.36
-14 -6 -10 -0.8 2.05
-6 14 -10 0.66 2.17
-14 -6 -10 -1.52 2.13
-6 14 10 -0.15 1.97
6 -14 10 2.52 2.05
5 -14 -10 1.76 2.36
-14 -5 -10 6.23 2.18
-5 14 -10 0.58 2.19
-14 -5 -10 0.99 2.08
-5 14 10 3.42 2.14
5 -14 10 1.49 1.98
-4 14 -10 5.52 2.39
4 -14 -10 5.25 2.37
-14 -4 -10 2.89 2.18
-14 -4 -10 4 2.21
4 -14 10 4.05 2.1
-4 14 10 3.38 2.1
-14 -3 -10 4.92 2.2
3 -14 -10 4.65 2.26
-14 -3 -10 3.94 2.2
-3 14 -10 0.6 2.19
3 -14 10 -0.56 1.95
-3 14 10 5.54 2.12
-2 14 -10 0.67 2.06
-14 -2 -10 2.25 2.08
2 -14 -10 -1.68 2.11
-14 -2 -10 -0.14 2.02
2 -14 10 0.27 1.91
-2 14 10 0.1 1.92
-1 14 -10 3.1 2.16
-14 -1 -10 0.86 1.87
1 -14 -10 3.32 2.14
1 -14 10 2.87 1.97
-1 14 10 3.09 2.08
0 14 -10 -0.71 2.11
-14 0 -10 3.95 2.07
0 -14 -10 5.94 2.23
-14 0 10 3.74 1.1
0 14 10 3.4 2.05
0 -14 10 4.59 1.88
1 14 -10 2.18 2.2
-1 -14 -10 4.52 2.14
-14 1 -10 3.05 2.04
-1 -14 10 3.02 1.93
-14 1 10 3.9 1.25
2 14 -10 -1.95 1.88
-2 -14 -10 0.51 1.83
-14 2 -10 1.72 2.08
-2 -14 10 4.49 1.86
-14 2 10 1.81 1.35
3 14 -10 0.05 1.77
-14 3 -10 0.73 2.1
-14 3 10 -0.02 1.35
-3 -14 10 -0.13 1.65
-14 4 -10 3.2 2.24
4 14 -10 1.01 1.97
-4 -14 10 -0.65 1.63
-14 4 10 -0.82 1.45
-14 5 -10 0.23 2.11
5 14 -10 2.11 2.1
-14 5 10 -1.94 1.54
-5 -14 10 0.5 1.61
-14 6 -10 -0.64 2.1
6 14 -10 1.48 2.11
-14 6 10 3.65 1.76
-6 -14 10 0.42 1.57
7 14 -10 1.58 2.13
-14 7 -10 -1.86 2.08
-7 -14 10 -1.05 1.55
-14 7 10 0.65 1.74
-15 -4 -10 -0.18 2.06
-4 15 -10 -1.37 2.16
-15 -4 -10 -0.09 2.16
4 -15 -10 0.04 2.3
-4 15 10 -0.66 2.06
4 -15 10 -0.05 1.94
-15 -3 -10 0.48 2.17
3 -15 -10 1.46 2.21
-3 15 -10 0.36 2.27
3 -15 10 1.24 2.09
-3 15 10 1.78 2.12
-2 15 -10 1.09 2.2
2 -15 -10 3.41 2.22
-15 -2 -10 0.75 1.87
2 -15 10 0.38 2.04
-2 15 10 -2.59 1.95
-1 15 -10 0.53 2.16
-15 -1 -10 -0.19 2.07
1 -15 -10 2.16 2.16
1 -15 10 3.63 1.98
0 -15 -10 2.77 2.17
-15 0 -10 0.21 2.13
0 15 -10 2.6 2.27
0 -15 10 1.78 2.04
-15 0 10 2.49 1.12
1 15 -10 0.75 2.2
-15 1 -10 -0.36 2.02
-1 -15 -10 1.45 1.92
-1 -15 10 -0.6 1.9
-15 1 10 0.66 1.23
-15 2 -10 0.55 1.9
2 15 -10 -3.92 1.97
-15 2 10 -0.21 1.3
-2 -15 10 2.83 1.95
3 15 -10 -0.11 1.92
-15 3 -10 0.29 2.22
-3 -15 10 2.09 1.92
-15 3 10 0.02 1.48
4 15 -10 -0.2 1.83
-15 4 -10 -0.59 2.17
-15 4 10 -1.1 1.52
-4 -15 10 -1.5 1.74
0 0 -11 151.82 9.09
0 0 11 149.13 8.91
0 0 11 152.3 8.94
1 0 -11 48.85 3.76
-1 0 -11 52.97 3.86
0 -1 -11 53.74 3.78
0 1 -11 57.75 3.96
0 1 11 57.72 3.92
-1 0 11 56.96 3.81
1 0 11 55.4 3.89
0 -1 11 55.34 3.79
0 -1 11 55.11 3.83
1 -1 -11 23.69 2.07
-1 1 -11 22.52 2.29
1 1 -11 19.79 2.19
-1 -1 -11 19.55 2.06
-1 1 11 23.13 2.17
1 1 11 21.62 2.25
-1 1 11 20.12 2.11
1 -1 11 17.13 2.08
-1 -1 11 23.31 2.03
1 -2 -11 0.07 1.05
-2 -1 -11 -1.57 1.12
2 1 -11 0.45 1.14
-1 2 -11 0.54 1.32
2 1 11 2.46 1.35
-1 2 11 0.38 1.25
1 -2 11 -0.01 1.16
-2 -1 11 -0.32 0.37
-2 -1 11 0.21 1.06
0 2 -11 1.56 1.34
0 -2 -11 3.71 1.14
2 0 -11 5.63 1.3
-2 0 -11 3.36 1.36
2 0 11 1.46 1.32
-2 0 11 3.12 1.18
-2 0 11 -0.73 0.4
0 -2 11 -0.59 1.11
0 2 11 0.81 1.27
0 -2 11 0.93 1.17
2 -1 -11 -0.26 1.09
1 2 -11 0.75 1.33
-1 -2 -11 -0.09 1.08
-2 1 -11 1.74 1.35
-2 1 11 0.46 0.61
-1 -2 11 1.38 1.13
1 2 11 1.45 1.3
-2 1 11 -0.27 1.09
2 -1 11 0.76 1.31
-1 -2 11 0.44 0.53
2 2 -11 6.21 1.52
-2 2 -11 6.74 1.64
2 -2 -11 6.72 1.26
-2 -2 -11 5.45 1.33
-2 2 11 7.11 1.46
2 2 11 7.33 1.61
2 -2 11 5.06 1.5
-2 -2 11 9.02 1.3
-2 2 11 6.7 1.43
-2 -2 11 5.53 0.95
-2 3 -11 20.51 2.37
3 2 -11 21.2 2.25
-3 -2 -11 19.87 2.11
2 -3 -11 21.92 1.83
-3 -2 11 21.35 1.87
2 -3 11 21.28 2.23
3 2 11 17.09 2.25
-2 3 11 22.59 2.17
1 -3 -11 21.06 1.8
3 1 -11 14.81 1.94
-3 -1 -11 18.49 2.14
-1 3 -11 19.4 2.29
3 1 11 21.62 2.29
1 -3 11 15.59 1.98
-1 3 11 20.36 2.13
-3 -1 11 19.73 1.81
-3 -1 11 20.74 1.81
-3 0 -11 15.51 2.05
0 -3 -11 13.93 1.62
0 3 -11 13.96 2
3 0 -11 14.39 1.71
0 -3 11 16.94 1.82
0 -3 11 15.04 1.8
3 0 11 15.69 2.02
-3 0 11 15.6 1.61
-3 0 11 14.65 1.62
0 3 11 15.5 1.92
-3 1 -11 1.4 1.4
-1 -3 -11 2.56 1.15
3 -1 -11 3 1.14
1 3 -11 1.4 1.35
-1 -3 11 0.2 0.51
-1 -3 11 2.09 1.2
-3 1 11 -0.01 0.46
1 3 11 1.25 1.33
-3 1 11 0.17 1.07
3 -1 11 2.27 1.36
-2 -3 -11 3.67 1.16
2 3 -11 1.52 1.49
-3 2 -11 4.14 1.59
3 -2 -11 2.86 1.03
-3 2 11 5.36 1.37
2 3 11 1.32 1.49
3 -2 11 2.48 1.5
-3 2 11 1.19 0.86
-2 -3 11 3.92 1.12
-2 -3 11 4.46 1.14
3 -3 -11 0.62 0.9
-3 3 -11 -0.34 1.46
-3 -3 -11 1.98 1.23
3 3 -11 1.89 1.33
-3 -3 11 -0.15 0.54
3 -3 11 -1.34 1.25
-3 3 11 0.74 1.2
3 3 11 -0.32 1.39
-3 -3 11 1.24 0.97
-3 4 -11 6.55 1.82
4 3 -11 4.05 1.43
-4 -3 -11 3.11 1.37
3 -4 -11 5.74 0.92
3 -4 11 5.86 1.65
-3 4 11 7.21 1.48
-4 -3 11 6.67 1.09
4 3 11 4.83 1.71
-4 -3 11 8.32 1.17
-2 4 -11 32.53 3.07
2 -4 -11 37.84 2.37
-4 -2 -11 35.4 2.87
4 2 -11 33.03 2.71
-2 4 11 31.51 2.76
-4 -2 11 30.85 2.38
-4 -2 11 33.19 2.43
4 2 11 25.07 2.77
2 -4 11 29.26 2.78
-4 -1 -11 39.35 2.93
1 -4 -11 28.53 2.33
-1 4 -11 31.37 2.98
4 1 -11 29.15 2.64
-4 -1 11 33.12 2.34
1 -4 11 30.18 2.67
-1 4 11 28.62 2.71
4 1 11 31.63 2.89
-4 -1 11 31.05 2.39
4 0 -11 18.35 1.86
0 -4 -11 19.02 1.68
0 4 -11 17.4 2.21
-4 0 -11 19.01 2.19
0 -4 11 13.34 1.81
4 0 11 18.13 2.2
-4 0 11 14.51 1.64
0 4 11 15.99 2.08
-1 -4 -11 0.72 1.07
4 -1 -11 1.89 1.06
1 4 -11 3.8 1.51
-4 1 -11 0.25 1.45
4 -1 11 4.12 1.52
-4 1 11 0.55 1.05
-4 1 11 1.54 1.05
-1 -4 11 2.22 1.22
1 4 11 1.31 1.4
-1 -4 11 2.46 1.1
-4 2 -11 0.92 1.37
2 4 -11 -0.46 1.38
4 -2 -11 0.32 0.93
-2 -4 -11 1.12 1.09
4 -2 11 -0.66 1.32
-2 -4 11 -1.03 0.95
-4 2 11 -1.7 0.92
-4 2 11 0.49 1.08
-2 -4 11 -0.88 1.02
2 4 11 2.6 1.45
-3 -4 -11 5.63 1.37
4 -3 -11 4.44 1
-4 3 -11 6.04 1.74
3 4 -11 5.62 1.54
-3 -4 11 3.9 0.97
3 4 11 3.34 1.59
-3 -4 11 4.37 1.12
4 -3 11 4.24 1.56
-4 3 11 2.94 1.24
-4 4 -11 11.82 2.09
-4 -4 -11 9.86 1.66
4 4 -11 9.23 1.74
4 -4 11 11.57 1.91
-4 -4 11 9.74 1.25
4 4 11 7.37 1.8
-4 4 11 10.92 1.67
-4 -4 11 7.7 1.21
-4 5 -11 1.66 1.51
-5 -4 -11 2.94 1.4
5 4 -11 -0.01 1.31
5 4 11 -3 1.35
4 -5 11 0.04 1.35
-5 -4 11 2.2 0.86
-5 -4 11 1.38 0.84
-4 5 11 0.55 1.23
-5 -3 -11 5.42 1.48
-3 5 -11 5.25 1.78
5 3 -11 4.14 1.39
5 3 11 4.45 1.68
-5 -3 11 2.92 0.92
3 -5 11 3.64 1.47
-3 5 11 5.76 1.48
-5 -3 11 4.79 0.94
5 2 -11 31.53 2.57
-2 5 -11 25.89 2.74
-5 -2 -11 33.22 2.74
2 -5 11 26.38 2.55
-5 -2 11 23.9 1.96
5 2 11 24.25 2.59
-5 -2 11 22.24 1.95
-2 5 11 23.51 2.46
5 1 -11 25.3 2.18
1 -5 -11 22.64 1.77
-1 5 -11 24.97 2.64
-5 -1 -11 21.41 2.37
5 1 11 18.62 2.36
-5 -1 11 18.46 1.69
-5 -1 11 19.11 1.7
1 -5 11 16.97 2.09
-1 5 11 19.63 2.25
0 5 -11 11.49 2.01
5 0 -11 12.64 1.58
0 -5 -11 9.64 1.33
-5 0 -11 11.89 1.92
0 -5 11 11.12 1.66
-5 0 11 13.28 1.39
0 5 11 12.46 1.87
-5 0 11 11.26 1.42
5 0 11 15.06 2.12
5 -1 -11 2.3 1.13
-1 -5 -11 3.9 1.1
-5 1 -11 4.3 1.63
1 5 -11 5.57 1.71
1 5 11 2.91 1.53
-5 1 11 3.22 1.04
5 -1 11 2.1 1.56
-5 1 11 2.84 0.97
-1 -5 11 3.83 1.2
2 5 -11 3.25 1.6
-2 -5 -11 3.32 1.2
-5 2 -11 7.09 1.77
5 -2 -11 4.51 1.09
-2 -5 11 5.84 1.31
-5 2 11 4.87 1.18
5 -2 11 2.4 1.59
-2 -5 11 4.26 1.17
-5 2 11 7.14 1.26
2 5 11 4.71 1.65
-5 3 -11 17.11 2.44
-3 -5 -11 16.84 1.92
3 5 -11 15.38 2.21
-3 -5 11 21.48 1.87
5 -3 11 19.95 2.34
3 5 11 24.45 2.51
-5 3 11 19.05 1.87
-3 -5 11 20.92 1.84
-4 -5 -11 1.19 1.18
4 5 -11 0.5 1.38
-5 4 -11 -1.76 1.56
-4 -5 11 0.08 0.94
4 5 11 1.3 1.5
5 -4 11 -0.38 1.4
-4 -5 11 0.29 0.91
-5 4 11 0.87 1.19
-5 -5 -11 8.19 1.62
5 5 -11 9.05 1.79
-5 5 -11 11.46 2.14
5 5 11 8.88 1.86
-5 -5 11 9.24 1.15
-5 5 11 7.71 1.6
-5 -5 11 9.45 1.17
5 -5 11 6.54 1.73
-6 -5 -11 2.4 1.35
6 5 -11 -1.13 1.28
-5 6 -11 1.54 1.54
6 5 11 1.51 1.54
-5 6 11 -1.32 1.27
-6 -5 11 0.45 0.72
-6 -5 11 0.35 0.72
5 -6 11 0.09 1.42
-4 6 -11 0.31 1.56
-6 -4 -11 0.31 1.27
6 4 -11 0.97 1.26
-4 6 11 -0.87 1.22
-6 -4 11 0.65 0.68
4 -6 11 0.39 1.38
-6 -4 11 0.67 0.66
6 4 11 0.88 1.5
-3 6 -11 -2.73 1.47
6 3 -11 -1.28 1.14
-6 -3 -11 1.77 1.38
-6 -3 11 -0.33 0.65
-6 -3 11 -0.3 0.66
6 3 11 -1.54 1.45
-3 6 11 0.96 1.35
3 -6 11 -1.89 1.26
-6 -2 -11 6.72 1.62
6 2 -11 2.82 1.34
-2 6 -11 6.68 1.74
-2 6 11 3.77 1.53
2 -6 11 5.44 1.59
6 2 11 3.7 1.64
-6 -2 11 4.39 0.81
-6 -2 11 3.43 0.81
-6 -1 -11 6.09 1.71
-1 6 -11 9.34 1.96
6 1 -11 7.07 1.42
-6 -1 11 7.18 0.98
1 -6 11 4.06 1.48
-1 6 11 7.84 1.67
-6 -1 11 7.87 1.03
6 1 11 4.31 1.58
0 -6 -11 9.51 1.19
-6 0 -11 7.19 1.66
6 0 -11 8.06 1.35
0 6 -11 7.43 1.78
0 -6 11 9.43 1.6
0 6 11 9.23 1.8
6 0 11 6.44 1.81
-6 0 11 8.38 1.14
-6 0 11 9.42 1.24
-6 1 -11 2.25 1.45
6 -1 -11 3.6 1.14
1 6 -11 4.48 1.75
-1 -6 -11 3.23 1.04
-6 1 11 4.52 1.11
6 -1 11 2.1 1.6
1 6 11 3.85 1.6
-6 1 11 2.33 1
-1 -6 11 4.33 1.27
6 -2 -11 15.94 1.62
2 6 -11 13.31 2.2
-2 -6 -11 15.51 1.76
-6 2 -11 16.38 2.32
-6 2 11 19.78 1.82
-2 -6 11 17.14 1.77
-6 2 11 18.35 1.75
6 -2 11 17.09 2.3
2 6 11 16.4 2.28
3 6 -11 39.29 3.58
-6 3 -11 36.16 3.65
-3 -6 -11 34.72 3.06
-6 3 11 44.73 3.09
-3 -6 11 47.19 3.1
-3 -6 11 47.24 3.02
6 -3 11 46.14 3.59
3 6 11 44.76 3.45
-4 -6 -11 19.55 2.11
4 6 -11 20.16 2.48
-6 4 -11 21.02 2.69
4 6 11 21.06 2.5
-6 4 11 21.97 2.07
-4 -6 11 20.17 1.84
-4 -6 11 22.44 1.9
6 -4 11 15.93 2.35
-5 -6 -11 9.42 1.66
5 6 -11 7.02 1.81
-6 5 -11 8.93 2.05
-5 -6 11 9.28 1.2
-5 -6 11 9.43 1.19
-6 5 11 4.31 1.43
6 -5 11 8.73 1.88
5 6 11 9.41 1.82
-6 6 -11 1.98 1.55
6 6 -11 -0.08 1.48
-6 -6 -11 2.13 1.33
6 6 11 3.01 1.75
-6 -6 11 0.36 0.82
-6 6 11 1.21 1.44
6 -6 11 3.77 1.64
-6 -6 11 2.73 0.88
-6 7 -11 0.86 1.67
-7 -6 -11 2.86 1.48
6 -7 11 -0.42 1.56
7 6 11 2.77 1.77
-6 7 11 4.23 1.58
-5 7 -11 0.54 1.63
-7 -5 -11 0.17 1.37
-5 7 11 0.83 1.35
5 -7 11 -0.18 1.48
7 5 11 1.3 1.61
-7 -4 -11 2.03 1.38
-4 7 -11 2.98 1.68
4 -7 11 1 1.47
7 4 11 1.77 1.57
-4 7 11 0.64 1.42
-7 -3 -11 0.47 1.39
-3 7 -11 -2.03 1.46
-3 7 11 -0.73 1.29
7 3 11 -2.8 1.42
3 -7 11 0.73 1.45
-7 -2 -11 2.73 1.51
-2 7 -11 0.96 1.48
2 -7 11 -2.35 1.32
-2 7 11 1.2 1.44
7 2 11 2.03 1.51
-7 -1 -11 1.45 1.48
7 1 -11 0.84 1.13
-1 7 -11 -0.6 1.53
1 -7 11 0.12 1.33
7 1 11 3.51 1.61
-1 7 11 0.75 1.42
-7 -1 11 -0.15 0.68
-7 -1 11 0.02 0.71
-7 0 -11 -0.31 1.47
7 0 -11 1.67 1.08
0 7 -11 2.63 1.63
0 7 11 -0.16 1.4
7 0 11 2.54 1.58
-7 0 11 1.41 0.9
-7 0 11 0.5 0.81
0 -7 11 0.95 1.32
1 7 -11 -0.45 1.56
-1 -7 -11 0.95 0.95
7 -1 -11 1.6 1.05
-7 1 -11 -0.58 1.3
-7 1 11 0.33 0.86
-7 1 11 0.7 0.98
1 7 11 -0.81 1.42
-1 -7 11 1.53 1.24
7 -1 11 0.67 1.53
-2 -7 -11 12.14 1.52
2 7 -11 10.82 1.95
-7 2 -11 8.64 1.94
-2 -7 11 15.41 1.66
2 7 11 9.88 1.99
-7 2 11 13.05 1.55
7 -2 11 13.58 2.14
-7 2 11 12.18 1.48
3 7 -11 9.52 2.01
-3 -7 -11 11.83 1.61
-7 3 -11 15.89 2.29
7 -3 11 13.07 2.08
-3 -7 11 12.97 1.59
3 7 11 11.99 1.96
-7 3 11 11.37 1.55
4 7 -11 17.21 2.43
-7 4 -11 21.27 2.61
-4 -7 -11 17.94 2.03
-4 -7 11 20.53 1.87
7 -4 11 20.26 2.51
-7 4 11 15.55 1.89
4 7 11 17.82 2.42
-4 -7 11 19.63 1.87
-5 -7 -11 1.36 1.22
-7 5 -11 3.42 1.74
5 7 -11 3.71 1.67
5 7 11 1.6 1.61
7 -5 11 2.01 1.61
-5 -7 11 3.68 1.12
-5 -7 11 4.39 1.1
-7 5 11 2.74 1.28
-6 -7 -11 13.59 1.99
6 7 -11 15.84 2.3
-7 6 -11 13.96 2.3
7 -6 11 16.1 2.39
-7 6 11 15.78 2.1
-6 -7 11 15.08 1.51
-6 -7 11 15.19 1.53
6 7 11 14.79 2.36
-7 7 -11 23.96 2.79
-7 -7 -11 15.65 2.32
7 7 11 23.03 2.81
-7 -7 11 21.99 1.74
-7 -7 11 20.13 1.71
7 -7 11 22.85 2.64
-7 7 11 18.78 2.37
-8 -7 -11 15.91 2.28
-7 8 -11 21.46 2.77
-7 8 11 15.01 2.3
7 -8 11 16.47 2.44
-8 -6 -11 13.83 2.1
-6 8 -11 9.04 2.21
6 -8 11 11.4 2.19
-6 8 11 12.36 2.11
8 6 11 9.14 2.14
-8 -5 -11 2.14 1.57
-5 8 -11 2.18 1.75
-5 8 11 1.06 1.48
5 -8 11 0.6 1.66
8 5 11 5.59 1.9
-8 -4 -11 1.5 1.53
-4 8 -11 2.03 1.73
4 -8 11 5.56 1.68
-4 8 11 2.99 1.55
8 4 11 4.79 1.81
-8 -3 -11 3.9 1.63
-3 8 -11 2.41 1.71
3 -8 11 5.48 1.73
-3 8 11 6.04 1.7
8 3 11 4.81 1.67
-8 -2 -11 3.24 1.68
-2 8 -11 8.25 2.01
-2 8 11 4.54 1.65
8 2 11 2 1.55
2 -8 11 5.07 1.6
-8 -1 -11 3.05 1.68
-1 8 -11 2.14 1.72
1 -8 11 2.7 1.4
-1 8 11 2.18 1.58
8 1 11 4.26 1.63
0 8 -11 1.68 1.71
-8 0 -11 3.04 1.68
0 -8 11 1.37 1.33
8 0 11 2.23 1.61
0 8 11 2.96 1.62
-8 0 11 1.45 0.79
-8 0 11 1.44 0.85
1 8 -11 0.29 1.62
8 -1 -11 0.81 1.05
-8 1 -11 2.2 1.61
-8 1 11 1.1 0.97
1 8 11 0.78 1.46
-1 -8 11 -1.4 1.15
8 -1 11 -0.47 1.53
-8 1 11 -0.57 0.89
2 8 -11 0.61 1.38
-8 2 -11 1.45 1.46
-2 -8 -11 1.09 1.07
-2 -8 11 0.87 1.15
-8 2 11 0.32 1.02
8 -2 11 0.01 1.54
-8 2 11 0.88 1.06
2 8 11 0.29 1.53
-8 3 -11 1.78 1.61
-3 -8 -11 3.1 1.26
3 8 -11 5.65 1.68
8 -3 11 2.45 1.68
-3 -8 11 1.47 1.15
-8 3 11 4.51 1.24
3 8 11 2.98 1.69
-4 -8 -11 3.21 1.31
-8 4 -11 1.59 1.74
4 8 -11 2.58 1.7
8 -4 11 3.85 1.76
-4 -8 11 0.9 1.14
4 8 11 2.49 1.69
-8 4 11 4.35 1.24
-5 -8 -11 0.73 1.29
5 8 -11 0.33 1.59
-8 5 -11 -0.09 1.61
8 -5 11 -2.32 1.51
5 8 11 -2.44 1.61
-8 5 11 0.8 1.14
-5 -8 11 0.63 1.06
-6 -8 -11 3.24 1.47
6 8 -11 5.91 1.85
-8 6 -11 2.05 1.77
-8 6 11 1.04 1.33
-6 -8 11 2.17 1.09
-6 -8 11 2.12 1.07
8 -6 11 0.97 1.77
6 8 11 2.46 1.83
-7 -8 -11 6.85 1.81
-8 7 -11 9.28 2.24
-8 7 11 4.31 1.63
-7 -8 11 7.5 1.14
-7 -8 11 5.17 1.11
8 -7 11 6.37 1.94
-8 8 -11 7.27 2.34
-8 -8 -11 8.4 2.01
-8 -8 11 7.88 1.06
8 -8 11 7.43 2.1
-8 -8 11 8.7 1.08
-8 8 11 6.29 1.85
-8 9 -11 -1.63 1.93
-9 -8 -11 5.06 1.91
8 -9 11 0.41 1.77
-8 9 11 -2.31 1.58
-9 -7 -11 6.11 2.05
-7 9 -11 6.17 2.26
-7 9 11 7.02 1.98
7 -9 11 4.75 1.89
-6 9 -11 4.87 2.14
-9 -6 -11 9.7 1.94
6 -9 11 6.13 1.96
-6 9 11 6.46 1.92
-9 -5 -11 -0.04 1.56
-5 9 -11 2.43 1.69
5 -9 11 1.9 1.7
-5 9 11 0.91 1.59
-9 -4 -11 4.1 1.8
-4 9 -11 3.77 1.89
-4 9 11 5.47 1.79
4 -9 11 5.94 1.83
9 4 11 4.44 1.97
-3 9 -11 18.65 2.67
-9 -3 -11 18.06 2.48
-3 9 11 20.28 2.5
3 -9 11 14.98 2.33
9 3 11 18.62 2.61
-9 -2 -11 17.23 2.39
-2 9 -11 12.29 2.25
2 -9 11 7.4 1.85
-2 9 11 11.58 2.05
9 2 11 10.33 2.15
-9 -1 -11 2.08 1.71
-1 9 -11 3.36 1.66
9 1 11 2.48 1.77
-1 9 11 3.03 1.69
1 -9 11 3.23 1.52
-9 0 -11 1.16 1.73
0 9 -11 -0.81 1.63
-9 0 11 -0.64 0.77
0 -9 11 0.17 1.37
-9 0 11 -1.11 0.77
0 9 11 -3.43 1.45
9 0 11 -1.95 1.55
-9 1 -11 8.8 2.06
1 9 -11 9.68 2.15
-1 -9 11 7.29 1.72
9 -1 11 10.31 2.07
1 9 11 10.3 2.02
-9 1 11 8.44 1.23
-9 1 11 8.39 1.23
-9 2 -11 9.09 2.19
2 9 -11 12.24 2.25
9 -2 11 10.78 2.11
-9 2 11 13.22 1.53
-2 -9 11 9.22 1.66
-9 2 11 15.55 1.59
2 9 11 14.15 2.27
-9 3 -11 5.78 1.9
3 9 -11 2.79 1.8
-3 -9 -11 3.55 1.26
-3 -9 11 2.99 1.29
9 -3 11 7.4 1.99
3 9 11 5.06 1.89
-9 3 11 3.88 1.29
-4 -9 -11 0.95 1.22
-9 4 -11 0.03 1.62
4 9 -11 -1.99 1.63
9 -4 11 1.78 1.73
-4 -9 11 -0.9 1.17
4 9 11 0.23 1.63
-9 4 11 -0.46 1.17
-5 -9 -11 0.66 1.3
-9 5 -11 1.54 1.61
5 9 -11 -4.89 1.48
-5 -9 11 1.57 1.24
9 -5 11 0.5 1.7
5 9 11 1.19 1.76
-9 5 11 1.19 1.27
-9 6 -11 -2.07 1.64
-6 -9 -11 0.37 1.43
6 9 -11 -1.05 1.62
9 -6 11 0.46 1.72
-6 -9 11 1.96 1.15
-9 6 11 -0.41 1.37
6 9 11 1.22 1.84
-9 7 -11 -1.87 1.61
-7 -9 -11 -0.69 1.5
-9 7 11 0.86 1.62
-7 -9 11 1.55 1.09
9 -7 11 0.32 1.73
-9 8 -11 0.2 1.73
-8 -9 -11 1.34 1.59
-8 -9 11 -0.22 0.95
-9 8 11 -0.36 1.6
9 -8 11 -1.49 1.73
-9 9 -11 -1.23 1.95
-9 -9 -11 -0.72 1.66
-9 -9 11 0.79 0.87
-9 9 11 -0.23 1.67
-9 -9 11 -0.04 0.77
9 -9 11 1.1 1.91
-9 10 -11 0.83 1.92
-10 -9 -11 -0.76 1.74
9 -10 11 -0.53 1.85
-9 10 11 1.41 1.88
-10 -8 -11 -1.98 1.68
-8 10 -11 0.16 2.06
-8 10 11 1.92 1.86
8 -10 11 0.74 1.87
-7 10 -11 0.64 1.98
-10 -7 -11 4.66 1.88
-7 10 11 0.23 1.68
7 -10 11 -1.13 1.64
-6 10 -11 3.61 2.1
-10 -6 -11 0.85 1.63
6 -10 11 3.64 1.83
-6 10 11 -2.22 1.63
-5 10 -11 -1.78 1.79
-10 -5 -11 0.12 1.69
-5 10 11 0.15 1.75
5 -10 11 0.16 1.71
-10 -4 -11 4.57 1.89
-4 10 -11 2.91 1.99
4 -10 11 7.35 1.98
-4 10 11 2.82 1.78
-3 10 -11 10.87 2.24
-10 -3 -11 11.8 2.3
-3 10 11 12.47 2.2
3 -10 11 15.79 2.24
-10 -2 -11 3.34 1.86
-2 10 -11 4.59 1.96
-2 10 11 9.92 2.05
2 -10 11 8.6 1.96
-1 10 -11 0.31 1.68
-10 -1 -11 1.48 1.62
1 -10 11 3.63 1.55
10 1 11 -0.68 1.74
-1 10 11 2.16 1.72
-10 0 -11 2.17 1.79
0 10 -11 0.69 1.59
0 10 11 -0.05 1.63
0 -10 11 0.03 1.49
10 0 11 0.67 1.77
-10 0 11 0.96 0.77
-10 0 11 1.75 0.82
-10 1 -11 15.39 2.41
1 10 -11 12.99 2.35
-10 1 11 16.15 1.6
1 10 11 19.78 2.43
-10 1 11 17.8 1.61
-1 -10 11 12.5 2.07
10 -1 11 17.74 2.57
2 10 -11 17.81 2.58
-10 2 -11 16.19 2.41
-2 -10 11 10.4 1.95
-10 2 11 15.42 1.72
2 10 11 15.78 2.48
10 -2 11 16.81 2.51
3 10 -11 8.58 2.04
-10 3 -11 2.81 1.94
-10 3 11 7.04 1.49
3 10 11 6.82 2
10 -3 11 6.41 2.06
-3 -10 11 5.97 1.52
-10 4 -11 -0.22 1.66
4 10 -11 -0.72 1.58
-4 -10 11 -2.34 1.12
10 -4 11 -1.25 1.75
4 10 11 1.12 1.77
-10 4 11 0.15 1.28
5 10 -11 6.22 2.1
-10 5 -11 4.02 1.78
-5 -10 -11 5.72 1.63
-10 5 11 6.4 1.52
-5 -10 11 4.14 1.39
10 -5 11 3.11 1.77
5 10 11 1.31 1.83
-10 6 -11 2.56 2.01
6 10 -11 1.52 1.88
-6 -10 -11 2.47 1.55
-6 -10 11 4.83 1.32
10 -6 11 3.86 1.98
-10 6 11 5.39 1.59
-10 7 -11 -2.48 1.77
-7 -10 -11 0.77 1.58
-10 7 11 -0.05 1.43
-7 -10 11 0.11 1.15
10 -7 11 1.19 1.84
-10 8 -11 1.31 1.98
-8 -10 -11 2.14 1.6
10 -8 11 0.01 1.81
-8 -10 11 -1.3 1.04
-10 8 11 -3.08 1.49
-9 -10 -11 -1.61 1.7
-10 9 -11 0.6 2.1
-9 -10 11 0.4 1.02
-10 9 11 2.17 1.81
-10 10 -11 -0.8 2.08
-10 -10 -11 2.18 1.86
-10 10 11 2.25 1.96
-10 -10 11 0.24 0.91
10 -11 -11 -2.42 2.21
-11 -10 -11 0.96 1.94
-10 11 -11 -1.34 2.18
-10 11 11 -3.56 1.77
-11 -9 -11 1.22 1.95
-9 11 -11 1.48 2.28
9 -11 11 0.3 1.96
-9 11 11 1.34 2.02
-11 -8 -11 3.46 2.05
-8 11 -11 4.28 2.27
8 -11 11 -1.11 1.85
-8 11 11 1.31 1.95
-11 -7 -11 0.8 1.93
-7 11 -11 -1.21 2.02
7 -11 11 2.68 2.03
-7 11 11 3.04 1.91
-6 11 -11 0.79 2.03
-11 -6 -11 0.23 1.71
-6 11 11 1.53 1.9
6 -11 11 1.43 1.85
-5 11 -11 0.56 1.96
-11 -5 -11 -0.67 1.71
5 -11 11 0.37 1.67
-5 11 11 -0.43 1.72
-4 11 -11 0.47 1.91
-11 -4 -11 -1.63 1.51
-4 11 11 -0.52 1.74
4 -11 11 0.58 1.62
-11 -3 -11 0.37 1.75
-3 11 -11 -1.99 1.63
-3 11 11 -1.46 1.69
3 -11 11 1.26 1.66
-2 11 -11 -2.89 1.69
-11 -2 -11 -1.53 1.64
-2 11 11 -0.13 1.66
2 -11 11 0.96 1.67
-11 -1 -11 2.01 1.7
-1 11 -11 1.44 1.84
1 -11 11 5.09 1.71
-1 11 11 1.89 1.8
-11 0 -11 3.27 1.97
0 11 -11 2.23 1.86
0 -11 11 3.4 1.68
0 11 11 0.75 1.76
1 11 -11 1.95 1.77
-11 1 -11 6.81 2.14
-11 1 11 4.89 1.15
-11 1 11 4.43 1.13
1 11 11 7.74 2.08
-1 -11 11 5.16 1.74
-11 2 -11 6.6 2.01
2 11 -11 6.25 2.05
-2 -11 11 6.66 1.69
2 11 11 7.21 2.1
-11 2 11 5.71 1.31
-11 3 -11 1.36 1.88
3 11 -11 4.58 2.02
3 11 11 2.23 1.91
-3 -11 11 3.27 1.39
-11 3 11 4.02 1.35
4 11 -11 -0.78 1.61
-11 4 -11 0.36 1.62
-4 -11 11 -2.04 1.22
-11 4 11 -0.73 1.28
4 11 11 -2.52 1.7
-11 5 -11 2.05 1.91
5 11 -11 0.3 1.92
-11 5 11 5.58 1.53
-5 -11 11 0.41 1.38
6 11 -11 3.22 2.02
-6 -11 -11 1.91 1.52
-11 6 -11 2.04 2
-6 -11 11 4.64 1.47
-11 6 11 3.19 1.54
-7 -11 -11 3.79 1.75
-11 7 -11 3.43 2.1
-11 7 11 2.86 1.71
-7 -11 11 1.51 1.35
-11 8 -11 0.92 2.05
-8 -11 -11 -2.16 1.62
-8 -11 11 -0.74 1.21
-11 8 11 0.35 1.7
-9 -11 -11 1.14 1.83
-11 9 -11 1.23 2.16
-11 9 11 1.24 1.89
-9 -11 11 -0.71 1.16
-10 -11 -11 -1.04 1.86
-11 10 -11 3.19 2.29
-11 10 11 -0.52 1.98
-10 -11 11 1.42 1.13
9 -12 -11 1.85 2.45
-12 -9 -11 -0.58 1.98
-9 12 -11 5.66 2.52
9 -12 11 -0.68 1.99
-9 12 11 3.9 2.04
-12 -8 -11 3.2 2.12
-8 12 -11 0.57 2.25
8 -12 -11 3.2 2.55
-8 12 11 2.46 1.96
8 -12 11 -0.59 1.96
-12 -7 -11 0.68 1.95
-7 12 -11 -3.35 1.93
-7 12 11 3.64 1.96
7 -12 11 -1.85 1.85
-6 12 -11 1.62 2.14
-12 -6 -11 -1.58 1.83
6 -12 11 -1.3 1.74
-6 12 11 -0.85 1.81
-12 -5 -11 2.05 1.91
-5 12 -11 3.27 2.2
-5 12 11 1.34 1.95
5 -12 11 -2.79 1.59
-12 -4 -11 3.49 2.1
-4 12 -11 0.53 2.02
-4 12 11 3.45 1.9
4 -12 11 1.62 1.93
-12 -3 -11 1.87 1.95
-3 12 -11 0.32 2.02
3 -12 11 0.28 1.68
-3 12 11 1.18 1.81
-2 12 -11 0.68 1.96
-12 -2 -11 -0.02 1.84
-2 12 11 -2.05 1.75
2 -12 11 2.17 1.77
-1 12 -11 -1.36 1.79
-12 -1 -11 2.12 1.77
-1 12 11 -0.98 1.72
1 -12 11 1.62 1.74
-12 0 -11 3.01 1.87
0 12 -11 0.11 1.59
0 12 11 -0.81 1.72
0 -12 11 -3.06 1.54
-12 1 -11 -0.03 1.89
1 12 -11 0.16 1.88
-12 1 11 0.77 1.02
-1 -12 11 -0.1 1.6
1 12 11 -0.09 1.77
-12 2 -11 1.15 1.68
2 12 -11 1.08 1.82
2 12 11 1.25 1.87
-2 -12 11 0.65 1.61
-12 2 11 -0.46 1.16
-12 3 -11 3.41 1.91
3 12 -11 2.82 1.92
-12 3 11 0.31 1.34
-3 -12 11 1.76 1.51
3 12 11 6.54 2.08
-12 4 -11 1.48 1.93
4 12 -11 -1.42 1.77
-4 -12 11 -0.87 1.38
-12 4 11 -2.6 1.29
-12 5 -11 -0.59 1.92
5 12 -11 -0.26 1.78
-5 -12 11 1.97 1.47
-12 5 11 1.64 1.45
6 12 -11 -1.67 1.87
-12 6 -11 -1.51 2.01
-6 -12 11 1.52 1.49
-12 6 11 -1 1.45
-12 7 -11 0.34 1.91
7 12 -11 1.35 1.99
-12 7 11 2.19 1.69
-7 -12 11 1.02 1.48
-12 8 -11 0.47 2.12
-8 -12 -11 0.48 1.62
-8 -12 11 0.57 1.39
-12 8 11 0.86 1.82
-9 -12 -11 0.79 1.79
-12 9 -11 -0.43 2.12
-12 9 11 -0.85 1.82
-9 -12 11 -0.11 1.34
7 -13 -11 5.38 2.65
-7 13 -11 1.7 2.38
-13 -7 -11 0.53 2.1
7 -13 11 0.42 1.92
-7 13 11 1.56 2.06
-6 13 -11 2.2 2.35
-13 -6 -11 1.35 2.14
6 -13 -11 0.36 2.34
-6 13 11 1.56 1.94
6 -13 11 3.75 1.98
5 -13 -11 0.35 2.39
-5 13 -11 0.64 2.16
-13 -5 -11 4.18 2.13
5 -13 11 2.03 1.99
-5 13 11 2.51 1.97
-13 -4 -11 10.68 2.41
-4 13 -11 4.53 2.33
4 -13 11 2.85 1.98
-4 13 11 1.95 2.02
-13 -3 -11 3.2 2.2
-3 13 -11 0.97 2.19
3 -13 11 -1.19 1.84
-3 13 11 4.09 2.07
-13 -2 -11 1.54 2.03
-2 13 -11 -0.82 2.05
-2 13 11 -0.3 1.85
2 -13 11 0.88 1.74
-13 -1 -11 0.16 1.92
-1 13 -11 -1.94 1.68
-1 13 11 1.08 1.86
1 -13 11 0.28 1.81
0 13 -11 2.21 2.04
-13 0 -11 0.24 1.89
0 -13 11 -1.4 1.62
0 13 11 1.55 1.84
1 13 -11 3.62 2.1
-13 1 -11 2.82 2.05
1 13 11 0.44 1.87
-13 1 11 0.16 1.05
-1 -13 11 1.25 1.69
-13 2 -11 -1.35 1.87
2 13 -11 1.05 1.93
-2 -13 11 0.51 1.61
-13 2 11 -1.57 1.15
-13 3 -11 -0.93 1.67
3 13 -11 1.43 1.91
-3 -13 11 0.15 1.62
-13 3 11 0.53 1.38
-13 4 -11 -0.54 2
4 13 -11 -1.63 1.85
-4 -13 11 -0.58 1.5
-13 4 11 -1.33 1.4
-13 5 -11 -0.85 2.06
5 13 -11 -1.94 1.84
-5 -13 11 1.44 1.53
-13 5 11 0.8 1.59
-13 6 -11 1.7 1.98
6 13 -11 0.43 2.04
-6 -13 11 2.43 1.56
-13 6 11 0.27 1.64
7 13 -11 3.69 2.27
-13 7 -11 2.49 2.31
-13 7 11 3.77 1.86
-7 -13 11 3.92 1.66
5 -14 -11 5.43 2.48
-5 14 -11 3.86 2.39
-14 -5 -11 3.76 2.29
-5 14 11 2.66 2.09
5 -14 11 1.19 1.98
-14 -4 -11 1.56 1.97
4 -14 -11 4.82 2.35
-4 14 -11 -0.23 2.2
4 -14 11 4.39 2.07
-4 14 11 -0.41 2.03
-14 -3 -11 1.06 2.02
-3 14 -11 3.29 2.33
3 -14 -11 7.59 2.45
3 -14 11 3.07 2.15
-3 14 11 2.1 2.05
-14 -2 -11 1.11 2.11
2 -14 -11 -4.61 1.9
-2 14 -11 3.1 2.22
2 -14 11 1.48 1.88
-2 14 11 1.95 2.11
-1 14 -11 0.36 2.13
1 -14 -11 3.45 2.2
-14 -1 -11 0.8 2.13
1 -14 11 -2.09 1.85
-1 14 11 -1.16 2.04
0 14 -11 1.13 2.26
0 -14 -11 2.05 2
-14 0 -11 2.65 2.06
0 -14 11 -0.74 1.86
0 14 11 -1.08 2.02
1 14 -11 1.44 2.26
-14 1 -11 2.31 1.94
-1 -14 -11 -0.12 1.99
-14 1 11 1.78 1.15
-1 -14 11 1.35 1.84
-14 2 -11 0.41 1.97
2 14 -11 -2.27 1.9
-2 -14 -11 -0.13 1.91
-2 -14 11 2.46 1.87
-14 2 11 -0.24 1.31
-14 3 -11 0.38 2.09
3 14 -11 0.49 2.04
-3 -14 11 -0.51 1.62
-14 3 11 1.6 1.41
4 14 -11 2.65 2.11
-14 4 -11 1.07 2.22
-4 -14 11 -0.58 1.64
-14 4 11 1.13 1.53
-14 5 -11 -1.59 2.04
5 14 -11 -2.47 1.94
-14 5 11 -2.44 1.51
-5 -14 11 -2.47 1.49
1 -15 -11 0.2 2.2
-15 -1 -11 0.99 2.16
-1 15 -11 -0.78 2.21
1 -15 11 -0.36 2.01
-15 0 -11 1.45 1.96
0 -15 -11 5.91 2.24
0 15 -11 0.9 2.37
0 -15 11 2.64 2.05
-15 1 -11 2.51 2.18
-1 -15 -11 3.98 2.2
1 15 -11 1.79 2.32
-1 -15 11 1.76 1.98
-15 1 11 1.42 1.15
0 0 -12 56.32 4.24
0 0 12 65.65 4.24
1 0 -12 39.53 3.2
-1 0 -12 38.91 3.24
0 1 -12 40.68 3.26
0 -1 -12 42.49 3.21
-1 0 12 45.77 3.33
1 0 12 44.07 3.38
0 1 12 42.29 3.23
0 -1 12 39.9 3.22
1 1 -12 15.37 1.93
-1 1 -12 16.88 2.05
1 -1 -12 19.08 1.96
-1 -1 -12 18.9 1.98
-1 1 12 10.27 1.81
1 -1 12 13.32 1.93
-1 -1 12 15.05 1.81
1 1 12 15.1 2.05
-2 -1 -12 3.56 1.37
-1 2 -12 3.32 1.49
2 1 -12 5.97 1.53
1 -2 -12 4.96 1.3
2 1 12 1.86 1.47
-1 2 12 1.97 1.33
1 -2 12 3.18 1.43
-2 -1 12 3.08 1.17
-2 -1 12 5.6 1.27
0 2 -12 0.65 1.36
-2 0 -12 1.69 1.39
2 0 -12 2.4 1.25
0 -2 -12 2.27 1.17
0 -2 12 1.16 1.27
-2 0 12 1.99 1.12
2 0 12 0.76 1.4
0 2 12 3.12 1.41
-1 -2 -12 4.6 1.34
-2 1 -12 2.48 1.46
1 2 -12 3.09 1.47
2 -1 -12 2.4 1.19
-1 -2 12 2.47 1.18
2 -1 12 3.1 1.5
1 2 12 3.01 1.46
-2 1 12 2.45 1.25
-2 -2 -12 0.38 1.25
-2 2 -12 1.71 1.5
2 -2 -12 -0.05 1.07
2 2 -12 1.34 1.3
-2 -2 12 1.75 1.13
2 -2 12 1.21 1.4
-2 2 12 1.63 1.35
-2 -2 12 0.41 1.02
2 2 12 0.82 1.41
2 -3 -12 11.63 1.44
-3 -2 -12 12.68 1.76
3 2 -12 10.77 1.76
-2 3 -12 15.79 2.1
-2 3 12 14.83 1.78
3 2 12 8.71 1.88
-3 -2 12 11.54 1.48
2 -3 12 10.86 1.85
1 -3 -12 25.22 2.17
3 1 -12 24.74 2.38
-3 -1 -12 26.13 2.53
-1 3 -12 25.05 2.64
-3 -1 12 22.87 2.15
1 -3 12 22.47 2.39
-1 3 12 27.41 2.52
3 1 12 25.59 2.6
-3 0 -12 3.23 1.53
0 -3 -12 6.83 1.29
3 0 -12 5.26 1.34
0 3 -12 5.52 1.76
0 3 12 2.07 1.44
-3 0 12 6.55 1.28
3 0 12 3.95 1.54
0 -3 12 6.42 1.47
-3 0 12 6.05 1.34
-1 -3 -12 -0.5 1.11
1 3 -12 0.23 1.36
3 -1 -12 -0.54 1.09
-3 1 -12 2.85 1.5
-3 1 12 1.82 1.07
1 3 12 1.48 1.41
-1 -3 12 -0.02 1.06
3 -1 12 -0.77 1.33
-2 -3 -12 -2.38 1.07
3 -2 -12 1.24 1.02
-3 2 -12 0.84 1.36
2 3 -12 -2.37 1.23
-2 -3 12 0.98 1.1
3 -2 12 -0.34 1.34
-3 2 12 -0.05 1.07
-2 -3 12 0.57 1.04
2 3 12 2.52 1.47
3 3 -12 3.49 1.52
-3 -3 -12 1.82 1.24
3 -3 -12 3.18 0.98
-3 3 -12 3.08 1.64
-3 3 12 1.92 1.28
-3 -3 12 0.22 1.04
-3 -3 12 2.31 1.08
3 -3 12 5.4 1.54
3 3 12 -0.24 1.47
-4 -3 -12 10.78 1.74
-3 4 -12 11.3 2.11
4 3 -12 11.51 1.79
-4 -3 12 10.85 1.39
3 -4 12 12.25 1.91
-4 -3 12 11.44 1.37
-3 4 12 9.37 1.66
4 3 12 10.02 1.92
-2 4 -12 17.06 2.24
2 -4 -12 12.31 1.37
-4 -2 -12 15.15 1.94
4 2 -12 14.77 1.94
4 2 12 11.16 2.01
-4 -2 12 12.9 1.48
-2 4 12 11.48 1.81
-4 -2 12 13.3 1.51
2 -4 12 12.9 1.9
1 -4 -12 21.87 1.85
-1 4 -12 19.99 2.43
-4 -1 -12 20.98 2.3
4 1 -12 21.92 2.2
-4 -1 12 19.24 1.87
4 1 12 21.16 2.42
-4 -1 12 19.97 1.88
-1 4 12 20.26 2.34
1 -4 12 18.31 2.21
4 0 -12 13.68 1.76
0 4 -12 17.88 2.28
0 -4 -12 17.55 1.69
-4 0 -12 12.68 2.04
-4 0 12 12.96 1.55
-4 0 12 18.07 1.7
0 -4 12 15.76 1.9
0 4 12 14.78 2.06
4 0 12 18.97 2.24
-1 -4 -12 -0.92 1.03
-4 1 -12 1.15 1.47
4 -1 -12 2.72 1.11
1 4 -12 1.08 1.44
4 -1 12 1.41 1.43
-1 -4 12 1.24 1.12
-4 1 12 1.82 1.09
-4 1 12 1.39 1.09
1 4 12 0.84 1.45
-4 2 -12 4.08 1.65
2 4 -12 2.93 1.58
4 -2 -12 4.58 1.11
-2 -4 -12 3.35 1.24
2 4 12 4.89 1.6
-2 -4 12 3.97 1.16
-4 2 12 1.91 1.13
4 -2 12 1.38 1.42
-4 3 -12 2.95 1.65
-3 -4 -12 1.37 1.18
3 4 -12 1.56 1.44
-4 3 12 2.07 1.19
-3 -4 12 3.3 1.13
4 -3 12 2.96 1.5
-3 -4 12 2.71 1.08
3 4 12 2.88 1.56
4 4 -12 -0.75 1.35
-4 4 -12 0.21 1.6
-4 -4 -12 -2.64 1.05
-4 4 12 -0.78 1.2
4 4 12 0.82 1.35
-4 -4 12 0.01 0.94
-4 -4 12 0.2 0.96
4 -4 12 -2.07 1.31
-4 5 -12 0.49 1.62
-5 -4 -12 1.9 1.33
5 4 -12 -1.66 1.23
-5 -4 12 0.48 0.89
5 4 12 -2.37 1.46
-5 -4 12 0.91 0.9
-4 5 12 -0.46 1.3
4 -5 12 1.21 1.42
5 3 -12 3.72 1.43
-5 -3 -12 3.52 1.47
-3 5 -12 1.31 1.64
-3 5 12 4.39 1.48
5 3 12 3.95 1.53
3 -5 12 3.54 1.58
-5 -3 12 4.7 0.99
-5 -3 12 1.66 0.94
5 2 -12 3.64 1.4
-2 5 -12 4.08 1.72
-5 -2 -12 5.31 1.52
-5 -2 12 4.56 1.02
5 2 12 3.34 1.63
-5 -2 12 3.29 1.03
2 -5 12 6.65 1.6
-2 5 12 7.21 1.53
-5 -1 -12 11.14 1.87
-1 5 -12 8.01 1.95
5 1 -12 8.96 1.57
-1 5 12 11.3 1.84
1 -5 12 7.54 1.63
-5 -1 12 8.65 1.24
-5 -1 12 12.63 1.34
5 1 12 10.9 1.98
-5 0 -12 14.42 2.1
5 0 -12 17.03 1.8
0 -5 -12 16.39 1.59
0 5 -12 12.98 2.14
-5 0 12 14.34 1.54
-5 0 12 13.8 1.58
0 -5 12 13.59 1.83
5 0 12 13.72 2.11
0 5 12 13.58 2.03
-1 -5 -12 3.88 1.14
-5 1 -12 3.52 1.65
5 -1 -12 5.9 1.21
1 5 -12 3.9 1.61
-5 1 12 3.89 1.13
-1 -5 12 4.38 1.21
-5 1 12 3.14 1.21
1 5 12 5.73 1.63
5 -1 12 3.86 1.63
-5 2 -12 4.27 1.72
2 5 -12 3.44 1.68
-2 -5 -12 2.58 1.2
5 -2 -12 4.07 1.1
2 5 12 3.47 1.62
-5 2 12 5.41 1.25
5 -2 12 3.95 1.64
-2 -5 12 3.86 1.2
-3 -5 -12 1.04 1.12
-5 3 -12 1.89 1.51
3 5 -12 1.55 1.49
3 5 12 1.2 1.52
-3 -5 12 2.82 1.14
-5 3 12 2.27 1.14
-3 -5 12 3.96 1.17
5 -3 12 -0.79 1.44
4 5 -12 11.7 1.94
-4 -5 -12 11.22 1.68
-5 4 -12 11.8 2.17
5 -4 12 11.91 2.08
4 5 12 12.04 2.05
-5 4 12 11.31 1.66
-4 -5 12 12.64 1.47
-4 -5 12 10.8 1.42
-5 -5 -12 3.77 1.44
-5 5 -12 5.01 1.94
5 5 -12 6.78 1.69
-5 5 12 5.86 1.51
-5 -5 12 6.26 1.13
5 5 12 8.48 1.88
-5 -5 12 6.11 1.12
5 -5 12 5.99 1.75
6 5 -12 2.13 1.61
-5 6 -12 1.22 1.83
-6 -5 -12 5.2 1.56
-6 -5 12 3.56 0.89
6 5 12 4.63 1.77
-5 6 12 2.86 1.49
-6 -5 12 3.7 0.91
5 -6 12 4.67 1.78
-6 -4 -12 1 1.36
-4 6 -12 2.41 1.77
6 4 -12 1.24 1.35
-6 -4 12 1.29 0.77
6 4 12 -1.03 1.52
4 -6 12 1.2 1.61
-6 -4 12 0.19 0.76
-4 6 12 1.22 1.43
-6 -3 -12 -0.02 1.34
6 3 -12 1.82 1.31
-3 6 -12 0.58 1.58
6 3 12 1.84 1.59
-6 -3 12 2.81 0.81
-3 6 12 -0.36 1.37
-6 -3 12 1.69 0.77
3 -6 12 -0.72 1.42
6 2 -12 2.37 1.3
-6 -2 -12 2.55 1.49
-2 6 -12 3.14 1.57
-6 -2 12 3.79 0.89
6 2 12 2.81 1.62
2 -6 12 5.1 1.51
-2 6 12 4.57 1.63
-6 -2 12 4.09 0.89
-1 6 -12 5.02 1.7
6 1 -12 7.91 1.44
-6 -1 -12 6.37 1.74
1 -6 12 2.47 1.41
-6 -1 12 5.15 1.01
6 1 12 7.75 1.83
-1 6 12 5.05 1.56
-6 -1 12 5.9 1.04
-6 0 -12 9.13 1.89
0 6 -12 6.87 1.78
6 0 -12 9 1.49
6 0 12 6.72 1.87
0 -6 12 11.11 1.67
-6 0 12 9.72 1.29
-6 0 12 10.17 1.27
0 6 12 6.81 1.76
-6 1 -12 0.17 1.53
-1 -6 -12 1.13 1.04
6 -1 -12 0.97 1.02
1 6 -12 -0.67 1.45
-6 1 12 1.33 1.08
-1 -6 12 0.79 1.14
1 6 12 -0.13 1.47
6 -1 12 1.31 1.56
-6 1 12 0.62 0.98
2 6 -12 22.05 2.63
-2 -6 -12 20.62 2.02
-6 2 -12 22.35 2.64
-2 -6 12 20.06 2.04
2 6 12 20.82 2.53
6 -2 12 20.81 2.52
-6 2 12 22.35 2
-3 -6 -12 20.72 2
-6 3 -12 14.22 2.33
3 6 -12 15.37 2.25
3 6 12 13.55 2.24
6 -3 12 16.65 2.33
-3 -6 12 17.13 1.81
-6 3 12 14.32 1.75
4 6 -12 22.51 2.58
-6 4 -12 17.99 2.55
-4 -6 -12 22.08 2.2
6 -4 12 17.95 2.44
-4 -6 12 19.82 1.88
4 6 12 19.23 2.53
-6 4 12 18.71 2.06
-4 -6 12 21.29 1.91
-6 5 -12 0.2 1.57
-5 -6 -12 -0.43 1.26
5 6 -12 1.82 1.58
-5 -6 12 0.41 0.95
-6 5 12 -0.15 1.28
5 6 12 -0.45 1.56
6 -5 12 0.33 1.57
-5 -6 12 0.33 0.97
-6 6 -12 1.26 1.81
-6 -6 -12 0.8 1.37
6 6 -12 2.5 1.6
6 -6 12 1.65 1.69
-6 -6 12 3.21 0.94
-6 -6 12 3.06 0.96
6 6 12 0.64 1.67
-6 6 12 3.69 1.63
7 6 -12 10.95 2.06
-7 -6 -12 10.18 1.89
-6 7 -12 9.74 2.29
-6 7 12 7.21 1.83
6 -7 12 10.72 2.13
7 6 12 9.35 2.11
7 5 -12 -0.91 1.48
-7 -5 -12 0.13 1.42
-5 7 -12 -2.13 1.66
-5 7 12 0.64 1.51
5 -7 12 0.92 1.6
7 5 12 1.45 1.7
-4 7 -12 2.71 1.68
-7 -4 -12 0.75 1.47
7 4 -12 2.21 1.44
4 -7 12 0.93 1.58
-4 7 12 1.57 1.47
7 4 12 2.7 1.57
-7 -3 -12 1.44 1.49
7 3 -12 0.45 1.28
-3 7 -12 -0.16 1.69
3 -7 12 -0.27 1.44
7 3 12 0.93 1.63
-3 7 12 0.03 1.41
-2 7 -12 2.44 1.74
7 2 -12 -2.35 1.07
-7 -2 -12 0.91 1.49
-7 -2 12 0.37 0.63
7 2 12 0.23 1.57
-2 7 12 -0.92 1.41
2 -7 12 1.31 1.52
-7 -1 -12 0.27 1.47
7 1 -12 -0.87 1.18
-1 7 -12 -0.54 1.46
-7 -1 12 0.82 0.77
-1 7 12 -1.1 1.41
-7 -1 12 1.09 0.79
1 -7 12 -0.93 1.33
7 1 12 -2.67 1.46
0 7 -12 1.21 1.64
7 0 -12 0.84 1.1
-7 0 -12 -0.71 1.44
0 -7 12 -0.96 1.25
-7 0 12 1.19 0.87
7 0 12 1.91 1.63
0 7 12 -1.72 1.34
-7 0 12 -0.11 0.91
1 7 -12 2.42 1.6
7 -1 -12 0.35 1.04
-7 1 -12 -1.52 1.43
7 -1 12 -0.72 1.54
-7 1 12 0.83 1.02
-1 -7 12 1.88 1.2
1 7 12 -1.71 1.42
-7 1 12 0.38 0.94
-7 2 -12 5.38 1.83
-2 -7 -12 2.69 1.17
2 7 -12 2.28 1.77
-7 2 12 3.55 1.15
2 7 12 4.09 1.74
7 -2 12 2.49 1.67
-2 -7 12 4.22 1.3
-7 3 -12 19.04 2.6
3 7 -12 17.51 2.43
-3 -7 -12 17.05 1.89
-3 -7 12 16.36 1.83
3 7 12 16.81 2.43
7 -3 12 14.3 2.31
-7 3 12 16.55 1.87
-4 -7 -12 12.01 1.67
4 7 -12 10.81 2.09
-7 4 -12 12.22 2.27
7 -4 12 8.68 2.07
4 7 12 10.47 2.14
-7 4 12 10.23 1.6
-4 -7 12 10.38 1.52
-5 -7 -12 -0.63 1.25
5 7 -12 1.6 1.63
-7 5 -12 -0.1 1.81
7 -5 12 -0.66 1.65
5 7 12 -0.53 1.63
-5 -7 12 1.31 1.06
-5 -7 12 -1.73 0.98
-7 5 12 1.23 1.29
-6 -7 -12 6.85 1.62
-7 6 -12 2.45 1.9
6 7 -12 5.48 1.88
6 7 12 4.36 1.93
-7 6 12 6.51 1.65
7 -6 12 4.52 1.82
-6 -7 12 6.15 1.11
-6 -7 12 5.75 1.15
-7 -7 -12 10.15 1.88
7 7 -12 4.57 1.84
-7 7 -12 8.33 2.25
7 -7 12 8.87 2.04
-7 -7 12 8.47 1.09
-7 7 12 8.46 1.83
-7 -7 12 8.37 1.1
7 7 12 5.57 2.08
-7 8 -12 6.9 2.27
-8 -7 -12 11.43 1.99
-7 8 12 9.37 2.04
7 -8 12 10.36 2.16
-6 8 -12 6.58 2.14
-8 -6 -12 9.41 2.03
-6 8 12 7.82 1.85
6 -8 12 9.19 2.07
8 6 12 4.77 2.04
-5 8 -12 0.08 1.76
-8 -5 -12 -0.14 1.54
-5 8 12 -1.15 1.57
8 5 12 1.71 1.83
5 -8 12 0.86 1.64
-4 8 -12 0.99 1.75
-8 -4 -12 -1.47 1.47
4 -8 12 2.56 1.78
-4 8 12 1.33 1.57
8 4 12 2.49 1.78
8 3 -12 2.79 1.4
-3 8 -12 1.18 1.8
-8 -3 -12 1.61 1.59
8 3 12 8.03 2.02
3 -8 12 2.93 1.65
-3 8 12 5.27 1.73
8 2 -12 0.81 1.26
-2 8 -12 0.99 1.77
-8 -2 -12 0.29 1.57
-2 8 12 2.37 1.6
8 2 12 2.37 1.74
2 -8 12 -0.12 1.54
8 1 -12 2.12 1.24
-1 8 -12 -2.74 1.4
-8 -1 -12 2.04 1.68
-8 -1 12 1.54 0.71
-1 8 12 0.19 1.56
8 1 12 -0.11 1.63
1 -8 12 2.14 1.54
8 0 -12 0.49 1.15
-8 0 -12 -1.15 1.58
0 8 -12 -1.67 1.58
0 -8 12 -0.73 1.39
8 0 12 0.04 1.6
0 8 12 1.78 1.59
-8 0 12 0.92 0.89
-8 0 12 0.3 0.82
-8 1 -12 -1.33 1.57
1 8 -12 0.16 1.68
8 -1 12 -0.12 1.59
-8 1 12 -0.71 0.96
1 8 12 2.15 1.63
-1 -8 12 1.82 1.42
-8 1 12 0.41 0.96
-8 2 -12 1.3 1.74
2 8 -12 0.96 1.76
-2 -8 12 2.43 1.31
2 8 12 -1.71 1.39
-8 2 12 3.1 1.14
8 -2 12 2.6 1.73
-3 -8 -12 0.5 1.18
-8 3 -12 -1.07 1.67
3 8 -12 -0.42 1.55
3 8 12 0.13 1.62
-3 -8 12 0.55 1.25
-8 3 12 0.04 1.15
8 -3 12 -0.06 1.63
-4 -8 -12 2.49 1.36
-8 4 -12 0.11 1.76
4 8 -12 -0.38 1.6
-8 4 12 2.48 1.26
4 8 12 -1.46 1.38
8 -4 12 -1.3 1.66
-4 -8 12 0.36 1.19
5 8 -12 -0.11 1.67
-5 -8 -12 -1.05 1.33
-8 5 -12 3.73 1.87
8 -5 12 2.04 1.73
-8 5 12 -0.93 1.2
5 8 12 1.04 1.77
-5 -8 12 1.32 1.17
6 8 -12 2.77 1.86
-6 -8 -12 3.75 1.61
-8 6 -12 5.35 2.03
6 8 12 1.58 1.9
-6 -8 12 2.56 1.11
-8 6 12 4.18 1.55
8 -6 12 5.68 1.95
-8 7 -12 7.2 2.2
7 8 -12 6.27 1.99
-7 -8 -12 4.32 1.71
-7 -8 12 5.29 1.12
8 -7 12 3.45 1.91
-8 7 12 6.88 1.74
-7 -8 12 5.55 1.13
-8 8 -12 2 2.01
-8 -8 -12 1.37 1.74
-8 -8 12 3.96 0.84
8 -8 12 3.91 1.9
-8 8 12 5.53 1.76
-9 -8 -12 0.06 1.8
-8 9 -12 0.2 2.02
-8 9 12 0.55 1.71
8 -9 12 -1.24 1.74
-7 9 -12 2.46 1.88
-9 -7 -12 3.42 1.69
-7 9 12 5.98 1.96
7 -9 12 2.73 1.85
-6 9 -12 5.14 2.12
-9 -6 -12 4.24 1.77
6 -9 12 2.42 1.83
-6 9 12 4.98 1.81
-9 -5 -12 1.3 1.64
-5 9 -12 0.1 1.84
5 -9 12 2.1 1.72
-5 9 12 -0.46 1.62
-4 9 -12 8.8 2.19
-9 -4 -12 8.81 1.97
9 4 12 5.2 2.12
4 -9 12 5.16 1.88
-4 9 12 4.48 1.88
-9 -3 -12 18.36 2.64
-3 9 -12 28.05 3.12
9 3 12 27.45 3.05
-3 9 12 21.28 2.71
3 -9 12 21 2.72
-2 9 -12 11.48 2.35
-9 -2 -12 7.19 2.09
-2 9 12 8.52 2.05
9 2 12 10.78 2.25
2 -9 12 10.26 2.05
-9 -1 -12 5.54 1.76
-1 9 -12 6.43 2.02
1 -9 12 2.43 1.66
9 1 12 2.78 1.8
-1 9 12 2.4 1.7
-9 0 -12 -2.02 1.44
0 9 -12 -0.66 1.75
0 -9 12 0.36 1.49
-9 0 12 0.04 0.84
-9 0 12 0.56 0.82
9 0 12 -1.42 1.66
0 9 12 -0.09 1.68
1 9 -12 1.66 1.93
-9 1 -12 6.37 2.03
9 -1 12 5.35 1.98
1 9 12 4.41 1.85
-9 1 12 6.54 1.19
-9 1 12 7.25 1.16
-1 -9 12 7.33 1.74
-9 2 -12 15.48 2.46
2 9 -12 10.42 2.34
2 9 12 10.86 2.19
-2 -9 12 9.88 1.66
-9 2 12 10.28 1.49
9 -2 12 9.56 2.17
3 9 -12 -1.14 1.66
-9 3 -12 1.12 1.63
-3 -9 12 1.54 1.27
-9 3 12 2.15 1.22
3 9 12 4 1.83
9 -3 12 2.7 1.82
4 9 -12 0.45 1.69
-9 4 -12 -0.64 1.54
-4 -9 12 -0.68 1.21
9 -4 12 -2.93 1.63
4 9 12 -1.59 1.59
-9 4 12 -0.73 1.26
-9 5 -12 2.09 1.86
-5 -9 -12 0.93 1.35
5 9 -12 -0.24 1.72
9 -5 12 -2.28 1.71
5 9 12 -1.19 1.67
-9 5 12 0.11 1.28
-5 -9 12 0.87 1.23
-9 6 -12 -2.71 1.73
-6 -9 -12 -0.56 1.45
6 9 -12 -0.65 1.77
-9 6 12 1.24 1.34
-6 -9 12 -0.22 1.09
9 -6 12 -0.39 1.77
-7 -9 -12 -0.13 1.54
7 9 -12 0.23 1.58
-9 7 -12 -0.94 1.61
9 -7 12 -1.3 1.7
-7 -9 12 -0.93 1.04
-9 7 12 -1.02 1.44
-8 -9 -12 -2.26 1.52
-9 8 -12 0.79 2.03
-8 -9 12 -0.88 0.95
9 -8 12 -2.25 1.65
-9 8 12 -1.01 1.59
-9 9 -12 0.41 2.1
-9 -9 -12 1.69 1.88
-9 9 12 4.98 1.92
9 -9 12 -1.49 1.83
-10 -9 -12 2.41 2.03
-9 10 -12 1.52 2.22
-9 10 12 -2.01 1.76
9 -10 12 -0.04 1.88
-10 -8 -12 -1.11 1.77
-8 10 -12 -2.35 1.8
8 -10 12 1.85 1.94
-8 10 12 -1.54 1.74
-10 -7 -12 1.16 1.8
-7 10 -12 -1.64 1.76
-7 10 12 0.87 1.78
7 -10 12 -2.53 1.82
-10 -6 -12 -1.24 1.72
-6 10 -12 0.57 2.05
6 -10 12 1.63 1.8
-6 10 12 0.97 1.8
-10 -5 -12 1.88 1.76
-5 10 -12 0.1 1.89
5 -10 12 3.12 1.82
-5 10 12 -0.56 1.75
-4 10 -12 0.38 1.89
-10 -4 -12 2.84 1.8
4 -10 12 5.09 1.85
-4 10 12 1.09 1.76
-10 -3 -12 7.4 2.04
-3 10 -12 7.11 2.24
3 -10 12 11.68 2.23
-3 10 12 10.89 2.14
-10 -2 -12 1.8 1.81
-2 10 -12 5.82 2.07
2 -10 12 2.18 1.75
-2 10 12 1.83 1.76
-1 10 -12 0.13 1.76
-10 -1 -12 -0.43 1.7
1 -10 12 -1.12 1.41
-1 10 12 -0.57 1.69
-10 0 -12 5.58 2.04
0 10 -12 5 2.05
0 10 12 8.65 2.03
0 -10 12 2.04 1.65
-10 0 12 2.92 0.86
10 0 12 5.06 2.06
-10 1 -12 6.37 2.13
1 10 -12 6.42 2.16
1 10 12 5.51 2.02
-10 1 12 6.14 1.2
-1 -10 12 6.62 1.76
-10 1 12 6.92 1.18
10 -1 12 8.41 2.07
2 10 -12 10.97 2.47
-10 2 -12 14.94 2.51
2 10 12 11.76 2.18
-10 2 12 11.73 1.58
-2 -10 12 8.17 1.76
10 -2 12 10.7 2.35
3 10 -12 2.81 1.89
-10 3 -12 4.18 2
-10 3 12 2.11 1.29
10 -3 12 2.56 1.93
-3 -10 12 3.22 1.44
3 10 12 5.14 1.95
-10 4 -12 0.43 1.78
4 10 -12 -1.28 1.7
-10 4 12 0.88 1.36
10 -4 12 1.62 1.98
4 10 12 -1.39 1.74
-4 -10 12 -0.28 1.28
5 10 -12 -0.37 1.78
-10 5 -12 -0.18 1.74
-10 5 12 2.99 1.38
5 10 12 2.18 1.91
-5 -10 12 1.54 1.31
10 -5 12 4.4 2.02
6 10 -12 1.6 1.92
-6 -10 -12 -0.25 1.4
-10 6 -12 -1.04 1.76
10 -6 12 -2.35 1.79
-6 -10 12 0.89 1.27
-10 6 12 -0.52 1.37
-10 7 -12 0.61 2.02
-7 -10 -12 -1.68 1.51
7 10 -12 3.14 1.95
-7 -10 12 1.18 1.18
10 -7 12 2.14 2
-10 7 12 0.88 1.51
-8 -10 -12 -1.43 1.5
-10 8 -12 -0.11 2.07
-10 8 12 -0.89 1.75
10 -8 12 -0.44 1.85
-8 -10 12 -0.49 1.09
-10 9 -12 -1.13 2.06
-9 -10 -12 -0.48 1.63
-10 9 12 -1.68 1.84
-9 -10 12 -0.21 0.96
-10 -10 -12 0.64 1.78
-10 10 -12 -0.33 2
-10 10 12 0.27 1.87
-11 -9 -12 2.2 2.01
-9 11 -12 0.31 2.31
-9 11 12 0.57 2.04
9 -11 12 3.29 2.18
-11 -8 -12 -0.46 1.9
-8 11 -12 2.97 2.33
-8 11 12 2.66 1.93
8 -11 12 1.89 2.15
-7 11 -12 2.19 2.27
-11 -7 -12 3.79 2.1
7 -11 12 2.5 1.93
-7 11 12 -0.5 1.72
-6 11 -12 -0.57 2.05
-11 -6 -12 1.18 1.8
-6 11 12 0.12 1.86
6 -11 12 -1.64 1.91
-5 11 -12 0.01 1.99
-11 -5 -12 -0.2 1.76
5 -11 12 1.52 1.83
-5 11 12 -0.05 1.77
-4 11 -12 -1.72 1.82
-11 -4 -12 0.98 1.81
-4 11 12 1.81 1.82
4 -11 12 -0.46 1.72
-3 11 -12 -1.37 1.82
-11 -3 -12 1.1 1.84
3 -11 12 0.87 1.78
-3 11 12 1.04 1.82
-2 11 -12 -2 1.79
-11 -2 -12 -0.39 1.78
2 -11 12 1.11 1.73
-2 11 12 1.01 1.77
-1 11 -12 -1.29 1.73
-11 -1 -12 0.39 1.8
1 -11 12 1.76 1.75
-1 11 12 -0.2 1.76
0 11 -12 0.16 1.73
-11 0 -12 3.65 1.83
0 -11 12 4.23 1.72
0 11 12 1.63 1.83
1 11 -12 1.03 1.99
-11 1 -12 0.77 1.78
-11 1 12 1.3 1
-11 1 12 3.67 1.02
1 11 12 1.83 1.87
-1 -11 12 0.99 1.57
2 11 -12 2.04 2.05
-11 2 -12 0.68 1.98
2 11 12 1.86 1.88
-2 -11 12 5.1 1.56
-11 2 12 2.52 1.22
3 11 -12 3.88 2.04
-11 3 -12 1.72 1.98
-11 3 12 0.79 1.27
-3 -11 12 2.17 1.44
3 11 12 4.34 1.92
4 11 -12 -0.25 1.87
-11 4 -12 -0.7 1.64
4 11 12 2.71 2
-11 4 12 1.58 1.42
-4 -11 12 -0.62 1.29
-11 5 -12 -0.04 1.87
5 11 -12 -1 1.84
-5 -11 12 0.1 1.4
-11 5 12 0.73 1.49
-11 6 -12 1.43 2.05
6 11 -12 1.75 1.99
-6 -11 12 2.14 1.44
-11 6 12 1.58 1.52
-11 7 -12 1.28 2.15
7 11 -12 -3.06 1.87
-7 -11 12 1.48 1.36
-11 7 12 0.93 1.71
-11 8 -12 0.4 2.14
-8 -11 -12 -0.61 1.7
8 11 -12 3.16 2.15
-11 8 12 -0.45 1.76
-8 -11 12 -0.5 1.23
-9 -11 -12 1.97 1.77
-11 9 -12 -1.42 1.95
-11 9 12 0.14 1.98
-9 -11 12 0.58 1.16
-12 -7 -12 2.55 2.16
-7 12 -12 -1.52 2.11
-7 12 12 0.04 1.96
7 -12 12 -0.75 1.91
-12 -6 -12 -0.45 1.85
-6 12 -12 -0.82 2.16
-6 12 12 0.48 1.88
6 -12 12 -1.33 1.87
-5 12 -12 -1.23 2.07
-12 -5 -12 3.62 1.97
-5 12 12 1.49 1.93
5 -12 12 1.63 1.97
-12 -4 -12 -2.73 1.83
-4 12 -12 0.78 2.13
-4 12 12 5.52 2.08
4 -12 12 2.66 1.99
-3 12 -12 3.34 2.22
-12 -3 -12 1.94 2.04
3 -12 12 1.43 1.81
-3 12 12 -1.51 1.76
-2 12 -12 0.14 1.77
-12 -2 -12 0.42 1.93
2 -12 12 1.6 1.79
-2 12 12 3.68 2.08
-1 12 -12 1.71 1.93
-12 -1 -12 0.24 1.7
-1 12 12 0.85 1.91
1 -12 12 2.63 1.81
-12 0 -12 -2.29 1.82
0 12 -12 2 1.92
0 -12 12 0.96 1.66
0 12 12 2.62 1.92
1 12 -12 1.59 1.78
-12 1 -12 -1.14 1.94
-1 -12 12 1.89 1.72
1 12 12 -0.86 1.76
-12 1 12 0.19 0.97
2 12 -12 -1.86 1.77
-12 2 -12 0.25 1.89
2 12 12 1.51 1.98
-12 2 12 -0.46 1.1
-2 -12 12 0.15 1.53
3 12 -12 1.52 1.96
-12 3 -12 0.14 1.94
3 12 12 3.37 2.06
-12 3 12 1.15 1.36
-3 -12 12 4.52 1.57
4 12 -12 -0.55 1.94
-12 4 -12 2.53 1.9
-12 4 12 -1.53 1.35
-4 -12 12 0.5 1.47
-12 5 -12 -0.75 1.79
5 12 -12 -0.77 1.98
-12 5 12 -0.93 1.46
-5 -12 12 -1.1 1.48
-12 6 -12 2.21 2.25
6 12 -12 3.49 2.27
-12 6 12 2.61 1.63
-6 -12 12 2.26 1.55
7 12 -12 -0.81 2.12
-12 7 -12 2.56 2.01
-7 -12 12 -0.83 1.39
-12 7 12 1.72 1.72
-13 -6 -12 1.28 2.13
-6 13 -12 -1.43 2.27
6 -13 12 -0.3 1.99
-6 13 12 -0.44 1.84
-13 -5 -12 -0.08 1.98
-5 13 -12 0.74 2.2
5 -13 12 -1.01 1.87
-5 13 12 1.58 2.09
-4 13 -12 3.11 2.28
-13 -4 -12 5.22 2.09
-4 13 12 2.76 2.1
4 -13 12 4.64 2.02
-13 -3 -12 1.4 2.1
-3 13 -12 0.21 2.14
3 -13 12 5.39 2.12
-3 13 12 -0.33 2.11
-2 13 -12 -1.73 1.86
-13 -2 -12 1.33 2.17
-2 13 12 -1.34 1.89
2 -13 12 0.48 1.91
-1 13 -12 -2.87 1.95
-13 -1 -12 0.81 2.06
-1 13 12 2.35 2.04
1 -13 12 0.73 1.9
-13 0 -12 -0.4 1.96
0 13 -12 1.25 2.07
0 13 12 -2.65 1.84
0 -13 12 1.3 1.82
1 13 -12 -1.96 1.92
-13 1 -12 4.11 2.18
-13 1 12 -0.51 0.98
-1 -13 12 -0.25 1.72
1 13 12 -1 1.89
2 13 -12 0.66 1.85
-13 2 -12 -0.42 1.78
-13 2 12 1 1.17
-2 -13 12 0.83 1.72
-13 3 -12 -0.49 1.95
3 13 -12 1.56 2.01
-3 -13 12 1.24 1.58
-13 3 12 -0.98 1.27
4 13 -12 -0.8 1.95
-13 4 -12 -1.22 1.96
-13 4 12 0.91 1.44
-4 -13 12 -1.27 1.52
5 13 -12 0.45 2.11
-13 5 -12 -2.69 2.03
-5 -13 12 0.32 1.53
-13 5 12 2.32 1.65
6 13 -12 1.85 2.27
-13 6 -12 5.2 2.47
-6 -13 12 5.15 1.74
-13 6 12 -1.39 1.56
3 -14 -12 0.43 2.39
-14 -3 -12 2.23 2.32
-3 14 -12 -0.64 2.27
-3 14 12 2.49 2.18
3 -14 12 4.5 2.19
-14 -2 -12 2.19 2.23
2 -14 -12 4.73 2.41
-2 14 -12 -1.47 2.18
-2 14 12 -1.47 1.94
2 -14 12 -1.52 1.9
-1 14 -12 -1.46 2.09
1 -14 -12 0.38 2.17
-14 -1 -12 -0.91 2.08
-1 14 12 -0.19 2.05
1 -14 12 1.31 1.98
0 14 -12 3.43 2.31
-14 0 -12 2.1 2.07
0 -14 -12 3.99 2.44
0 -14 12 -0.56 1.85
0 14 12 2.5 2.17
1 14 -12 4.11 2.34
-1 -14 -12 5.02 2.35
-14 1 -12 -0.73 2.04
-14 1 12 1.25 1.02
-1 -14 12 -2.09 1.77
2 14 -12 4.3 2.32
-14 2 -12 1.96 2.22
-14 2 12 0.23 1.26
-2 -14 12 4.75 1.94
3 14 -12 0.02 1.91
-14 3 -12 -1.41 1.85
-14 3 12 -1.29 1.34
-3 -14 12 3.02 1.79
0 0 -13 39.39 3.04
0 0 13 30.47 2.94
1 0 -13 15.78 2.01
0 1 -13 14.64 2.07
-1 0 -13 15.98 2.08
0 -1 -13 16.4 1.98
0 1 13 17.34 2.06
1 0 13 16.24 2.1
0 -1 13 14.6 1.98
-1 0 13 16.87 2
-1 -1 -13 9.64 1.72
1 1 -13 8.96 1.68
-1 1 -13 8.01 1.72
1 -1 -13 11.02 1.62
-1 1 13 10.02 1.74
1 -1 13 11.8 1.85
1 1 13 8.35 1.85
-1 -1 13 10.85 1.61
-2 -1 -13 -0.41 1.31
-1 2 -13 -0.32 1.38
1 -2 -13 0.41 1.08
2 1 -13 0.45 1.3
1 -2 13 -0.15 1.32
2 1 13 -0.88 1.41
-2 -1 13 0.97 1.13
-1 2 13 -0.19 1.36
0 -2 -13 0.55 1.12
2 0 -13 1.05 1.22
0 2 -13 -0.18 1.29
-2 0 -13 0.5 1.34
0 2 13 -1.42 1.28
-2 0 13 0.37 1.15
0 -2 13 2.28 1.33
2 0 13 -1.06 1.3
-1 -2 -13 1.65 1.27
1 2 -13 3 1.47
2 -1 -13 2.81 1.27
-2 1 -13 3.68 1.53
-1 -2 13 3.48 1.27
2 -1 13 -0.33 1.43
1 2 13 1.92 1.46
-2 1 13 2.14 1.33
-2 -2 -13 2.39 1.29
2 -2 -13 -1.2 1.04
2 2 -13 0.21 1.36
-2 2 -13 1.73 1.6
-2 -2 13 2.11 1.13
2 2 13 1.96 1.47
-2 2 13 1.45 1.28
2 -2 13 2.25 1.39
3 2 -13 5.94 1.48
2 -3 -13 4.75 1.19
-3 -2 -13 4.89 1.52
-2 3 -13 6.02 1.75
3 2 13 2.49 1.59
2 -3 13 7.27 1.63
-3 -2 13 6.36 1.29
-2 3 13 7.55 1.56
-3 -1 -13 11.56 1.81
3 1 -13 11.67 1.77
-1 3 -13 9.74 1.87
1 -3 -13 12.21 1.54
1 -3 13 8.68 1.73
3 1 13 11.59 1.95
-3 -1 13 9.72 1.54
-1 3 13 11.76 1.89
3 0 -13 3.93 1.3
0 -3 -13 2.38 1.2
0 3 -13 2.7 1.48
-3 0 -13 2.73 1.46
-3 0 13 3.78 1.21
0 3 13 2.39 1.45
3 0 13 5.2 1.57
0 -3 13 3.91 1.37
1 3 -13 1.13 1.45
-1 -3 -13 1.84 1.21
3 -1 -13 3.25 1.25
-3 1 -13 4.11 1.67
-1 -3 13 2.17 1.24
1 3 13 -0.42 1.46
3 -1 13 3 1.55
-3 1 13 2.23 1.19
3 -2 -13 -0.55 1.06
-3 2 -13 1.76 1.54
-2 -3 -13 1.26 1.19
2 3 -13 -1.46 1.32
3 -2 13 0.38 1.48
-3 2 13 0.72 1.2
-2 -3 13 1.45 1.11
2 3 13 1.67 1.45
-3 3 -13 5.46 1.75
-3 -3 -13 7.07 1.52
3 3 -13 4.62 1.62
-3 -3 13 6.37 1.33
-3 3 13 4.88 1.54
3 3 13 2.66 1.64
3 -3 13 8.01 1.74
-3 4 -13 2.77 1.68
4 3 -13 2.06 1.41
-4 -3 -13 3.6 1.4
-4 -3 13 2.41 1.11
3 -4 13 4.05 1.58
-4 -3 13 2.12 1.12
-3 4 13 3.42 1.43
4 3 13 -0.12 1.54
4 2 -13 6.95 1.56
-4 -2 -13 6.69 1.66
-2 4 -13 8.08 1.83
-2 4 13 5.99 1.63
2 -4 13 6.78 1.69
-4 -2 13 5.6 1.21
-4 -2 13 7.99 1.33
4 2 13 8.74 1.95
1 -4 -13 18.48 1.75
-1 4 -13 17.06 2.36
-4 -1 -13 15.8 2.19
4 1 -13 16.87 2.01
-1 4 13 20.96 2.26
-4 -1 13 18.3 1.83
-4 -1 13 16.77 1.76
1 -4 13 13.85 2.03
4 1 13 19.17 2.36
-4 0 -13 8.75 1.8
0 -4 -13 8.62 1.35
0 4 -13 9.39 1.89
4 0 -13 8.43 1.53
-4 0 13 7.34 1.4
4 0 13 8.94 1.94
0 4 13 6.93 1.77
0 -4 13 5.43 1.52
-1 -4 -13 2.63 1.18
1 4 -13 3.13 1.54
4 -1 -13 0.94 1.15
-4 1 -13 2.34 1.52
-4 1 13 1.33 1.13
4 -1 13 1.13 1.48
1 4 13 1.24 1.52
-1 -4 13 1.65 1.23
2 4 -13 3.13 1.46
-4 2 -13 2.88 1.61
4 -2 -13 1.01 1.08
-2 -4 -13 1.42 1.25
2 4 13 2.75 1.58
4 -2 13 0.43 1.49
-2 -4 13 2.96 1.21
-4 2 13 1.53 1.15
3 4 -13 2.54 1.48
-3 -4 -13 -1 1.16
-4 3 -13 1.13 1.61
-4 3 13 2.48 1.17
3 4 13 -0.02 1.51
-3 -4 13 2.49 1.16
4 -3 13 -0.1 1.49
-4 4 -13 3.85 1.8
4 4 -13 4.88 1.62
-4 -4 -13 4.58 1.46
-4 -4 13 3.98 1.18
4 -4 13 4.44 1.74
4 4 13 2.69 1.73
-4 4 13 4.04 1.46
-4 -4 13 3.3 1.13
5 4 -13 -2.47 1.21
-4 5 -13 1.71 1.79
-5 -4 -13 -0.95 1.37
-5 -4 13 2.86 1.03
-4 5 13 1.69 1.44
-5 -4 13 3.04 1.03
4 -5 13 1.03 1.63
5 4 13 -1.4 1.52
5 3 -13 5.51 1.61
-3 5 -13 4.23 1.69
-5 -3 -13 5.91 1.68
-5 -3 13 3.9 1.12
-3 5 13 4.79 1.6
3 -5 13 5.5 1.72
5 3 13 4.31 1.66
-5 -3 13 5.96 1.13
5 2 -13 6.08 1.58
-2 5 -13 8.69 1.99
-5 -2 -13 6.41 1.65
-5 -2 13 9.54 1.27
2 -5 13 8.95 1.84
-2 5 13 9.44 1.83
5 2 13 6 1.71
-5 -2 13 6.33 1.22
-5 -1 -13 7.97 1.86
-1 5 -13 9.29 1.89
5 1 -13 7.66 1.6
-5 -1 13 15.98 1.5
-1 5 13 9.54 1.86
1 -5 13 9.52 1.81
5 1 13 7.64 1.93
-5 -1 13 10.44 1.39
5 0 -13 12.69 1.61
-5 0 -13 12.93 2.01
0 5 -13 14.27 2.17
0 5 13 7.1 1.86
0 -5 13 11.52 1.77
5 0 13 8.49 1.99
-5 0 13 9.12 1.42
-5 0 13 12.56 1.54
-1 -5 -13 -1 1
1 5 -13 -0.65 1.47
5 -1 -13 0 1.08
-5 1 -13 1.5 1.51
-5 1 13 -0.42 1.07
-1 -5 13 2.05 1.22
5 -1 13 -0.06 1.54
1 5 13 1.33 1.52
2 5 -13 6.7 1.81
-5 2 -13 3.93 1.58
-2 -5 -13 5.37 1.31
2 5 13 5.19 1.77
5 -2 13 7.21 1.8
-5 2 13 3.05 1.21
-2 -5 13 6.16 1.35
3 5 -13 12.7 2.09
-3 -5 -13 10.5 1.67
-5 3 -13 10.94 2.17
-5 3 13 11.05 1.63
-3 -5 13 10.45 1.58
3 5 13 12.45 2.13
5 -3 13 12.16 2.08
4 5 -13 12.36 2.02
-5 4 -13 10.97 2.2
-4 -5 -13 7.48 1.61
5 -4 13 11.99 2.05
4 5 13 11.4 2.11
-5 4 13 9.52 1.62
-4 -5 13 9.64 1.46
-5 -5 -13 -1.71 1.22
5 5 -13 1.11 1.46
-5 5 -13 0.19 1.74
-5 -5 13 -1.1 0.97
-5 -5 13 1.79 1.04
5 5 13 0.73 1.66
5 -5 13 5.13 1.78
-5 5 13 -0.6 1.42
6 5 -13 0.12 1.45
-6 -5 -13 1.19 1.36
-5 6 -13 -0.35 1.82
-6 -5 13 -0.65 0.88
6 5 13 1.6 1.73
5 -6 13 -0.15 1.6
-6 -5 13 1.31 0.93
-5 6 13 -0.95 1.4
6 4 -13 -1.37 1.39
-4 6 -13 -0.41 1.74
-6 -4 -13 0.94 1.42
-6 -4 13 -0.31 0.83
4 -6 13 0.94 1.54
-6 -4 13 -0.03 0.86
-4 6 13 0.85 1.43
6 4 13 -0.15 1.66
6 3 -13 0.81 1.39
-6 -3 -13 2.16 1.51
-3 6 -13 2.29 1.63
-6 -3 13 1.34 0.89
-3 6 13 1.63 1.61
3 -6 13 3.41 1.61
6 3 13 3.35 1.76
-6 -3 13 1.09 0.87
-2 6 -13 4.31 1.83
6 2 -13 4.13 1.45
-6 -2 -13 4.28 1.64
6 2 13 5.52 1.89
-6 -2 13 4.53 1.05
-2 6 13 4.24 1.72
2 -6 13 7.55 1.69
-6 -2 13 5.06 1.04
-1 6 -13 -1.49 1.62
6 1 -13 2.35 1.31
-6 -1 -13 3.21 1.63
6 1 13 5.28 1.78
1 -6 13 2.58 1.5
-1 6 13 4.67 1.62
-6 -1 13 5.86 1.05
-6 -1 13 3.06 1.05
0 6 -13 2.33 1.56
-6 0 -13 4.81 1.65
6 0 -13 2.27 1.27
0 6 13 1.77 1.58
-6 0 13 3.23 1.11
-6 0 13 2.99 1.06
6 0 13 0.24 1.6
0 -6 13 0.73 1.33
-6 1 -13 4.3 1.75
1 6 -13 2.44 1.7
6 -1 13 1.93 1.72
1 6 13 4.38 1.78
-1 -6 13 4.22 1.3
-6 1 13 3.4 1.15
-6 2 -13 1.9 1.72
-2 -6 -13 4.53 1.25
2 6 -13 -0.72 1.6
2 6 13 3.73 1.79
-6 2 13 3.25 1.24
6 -2 13 5.08 1.8
-2 -6 13 4.19 1.27
-6 3 -13 19.5 2.58
-3 -6 -13 16.85 1.97
3 6 -13 18.02 2.45
-3 -6 13 15.29 1.86
3 6 13 12.87 2.28
-6 3 13 14.61 1.84
6 -3 13 16.5 2.41
4 6 -13 8.8 1.95
-4 -6 -13 8.95 1.62
-6 4 -13 8.68 2.16
4 6 13 6.46 1.98
-4 -6 13 4.98 1.33
6 -4 13 5.49 1.88
-6 4 13 7.01 1.51
-6 5 -13 2.11 1.78
5 6 -13 0.74 1.64
-5 -6 -13 1.38 1.32
6 -5 13 3.18 1.76
5 6 13 2.14 1.75
-6 5 13 -0.5 1.26
-5 -6 13 1.54 1.07
-6 6 -13 0.54 1.87
-6 -6 -13 0.38 1.38
6 6 -13 1.95 1.63
-6 6 13 2.8 1.49
6 -6 13 0.78 1.75
-6 -6 13 0.48 0.94
-6 -6 13 0.42 0.95
6 6 13 1.86 1.82
-7 -6 -13 9.84 1.88
7 6 -13 6.53 1.91
-6 7 -13 8.33 2.29
-6 7 13 8.01 1.9
6 -7 13 8.07 2.1
7 6 13 3.3 1.98
-5 7 -13 1.98 1.97
-7 -5 -13 0.91 1.49
7 5 -13 -1.55 1.5
-5 7 13 -0.34 1.55
5 -7 13 0.95 1.64
7 5 13 -0.53 1.71
-7 -4 -13 0.27 1.55
7 4 -13 -0.72 1.41
-4 7 -13 -0.85 1.7
4 -7 13 0.43 1.66
-4 7 13 1.39 1.65
7 4 13 -1.17 1.72
-3 7 -13 -0.91 1.52
-7 -3 -13 3.56 1.68
7 3 -13 1.36 1.4
3 -7 13 -2.11 1.37
-3 7 13 1.21 1.6
7 3 13 2.34 1.75
-2 7 -13 1.87 1.83
7 2 -13 0.54 1.32
-7 -2 -13 -0.26 1.54
2 -7 13 0.8 1.55
7 2 13 2.16 1.8
-7 -2 13 -0.13 0.77
-7 -2 13 1.32 0.84
-2 7 13 1.26 1.55
7 1 -13 -0.09 1.22
-1 7 -13 -0.82 1.74
-7 -1 -13 0.09 1.51
7 1 13 -1.24 1.57
1 -7 13 -0.66 1.41
-7 -1 13 0.97 0.89
-1 7 13 2.66 1.65
-7 -1 13 -0.28 0.83
0 7 -13 -0.71 1.57
7 0 -13 1.45 1.23
-7 0 -13 0.29 1.6
0 -7 13 -0.4 1.4
-7 0 13 -0.12 0.94
-7 0 13 0.85 1.02
0 7 13 -3.41 1.38
7 0 13 -0.33 1.62
1 7 -13 0.75 1.65
-7 1 -13 2.13 1.67
1 7 13 1.3 1.64
-1 -7 13 1.46 1.31
-7 1 13 0.3 1.04
7 -1 13 1.16 1.67
-7 2 -13 2.76 1.81
2 7 -13 2.59 1.81
7 -2 13 3.05 1.77
2 7 13 3.08 1.78
-2 -7 13 4.15 1.38
-7 2 13 2.77 1.23
-7 3 -13 6.77 2.09
-3 -7 -13 8.1 1.5
3 7 -13 8.94 2.11
7 -3 13 10.62 2.17
-7 3 13 4.4 1.39
-3 -7 13 5.97 1.45
3 7 13 8.61 2.06
4 7 -13 5.19 1.88
-7 4 -13 4.64 2.06
-4 -7 -13 4.86 1.41
-7 4 13 4.53 1.43
7 -4 13 4.08 1.88
-4 -7 13 6.44 1.36
4 7 13 6.81 1.87
-7 5 -13 -0.77 1.8
5 7 -13 -0.25 1.61
-5 -7 -13 -1.81 1.23
-5 -7 13 -0.77 1.05
7 -5 13 -0.4 1.63
5 7 13 -0.12 1.65
-7 5 13 -1.39 1.23
-6 -7 -13 1.8 1.46
6 7 -13 3.12 1.77
-7 6 -13 1.55 1.95
7 -6 13 -2.46 1.67
6 7 13 1.33 1.84
-7 6 13 0.1 1.47
-6 -7 13 -0.42 1.02
-7 7 -13 4.47 2.19
7 7 -13 6.58 1.99
-7 -7 -13 8.02 1.75
-7 -7 13 6.08 1.01
7 7 13 5.53 2.16
-7 7 13 2.7 1.69
7 -7 13 7.38 2.04
-7 8 -13 5.61 2.18
-8 -7 -13 5.58 1.82
8 7 -13 1.63 1.82
-7 8 13 3.62 1.81
7 -8 13 2.14 1.91
-6 8 -13 5.79 2.31
8 6 -13 8.75 2.05
-8 -6 -13 5.25 1.82
-6 8 13 3.74 1.8
6 -8 13 6 2.09
-8 -5 -13 1.67 1.66
8 5 -13 3.42 1.7
-5 8 -13 2.17 1.96
5 -8 13 0.69 1.7
8 5 13 1.59 1.89
-5 8 13 2.19 1.69
-4 8 -13 -0.39 1.82
-8 -4 -13 0.88 1.54
8 4 -13 0.73 1.44
8 4 13 0.28 1.77
4 -8 13 4.74 1.8
-4 8 13 1.62 1.61
8 3 -13 6.38 1.66
-3 8 -13 5.44 2.04
-8 -3 -13 5.02 1.8
-3 8 13 4.95 1.82
3 -8 13 3.8 1.85
8 3 13 6.71 2.08
8 2 -13 4.64 1.53
-8 -2 -13 1.49 1.69
-2 8 -13 1.93 1.95
-2 8 13 3.73 1.76
8 2 13 1.58 1.9
2 -8 13 3.94 1.79
-8 -1 -13 0.73 1.69
8 1 -13 2.86 1.38
-1 8 -13 4.62 2.01
8 1 13 2.28 1.8
1 -8 13 3.55 1.67
-8 -1 13 2.57 0.86
-1 8 13 3.25 1.76
-8 -1 13 2.77 0.86
0 8 -13 0.88 1.73
-8 0 -13 -0.7 1.69
0 8 13 -0.15 1.65
-8 0 13 0.2 0.96
-8 0 13 -0.72 0.91
8 0 13 1.44 1.76
0 -8 13 -0.59 1.4
1 8 -13 -1.57 1.69
-8 1 -13 0.06 1.69
8 -1 13 1.03 1.77
-1 -8 13 -0.39 1.26
1 8 13 2.54 1.72
-8 1 13 -0.44 1.02
2 8 -13 0.41 1.61
-8 2 -13 1.11 1.75
2 8 13 -0.28 1.63
8 -2 13 -1.46 1.64
-2 -8 13 -1.14 1.25
-8 2 13 0.58 1.13
3 8 -13 -0.68 1.7
-8 3 -13 -0.31 1.7
3 8 13 -1.47 1.66
-3 -8 13 -0.61 1.26
-8 3 13 -0.04 1.2
8 -3 13 -1.54 1.57
-8 4 -13 1.23 1.92
4 8 -13 2.02 1.71
4 8 13 1.31 1.75
8 -4 13 1.03 1.73
-4 -8 13 1.2 1.27
-8 4 13 4.07 1.41
-8 5 -13 -0.26 1.86
-5 -8 -13 1.22 1.47
5 8 -13 1.49 1.69
8 -5 13 0.32 1.76
-5 -8 13 -0.11 1.12
-8 5 13 1.43 1.31
5 8 13 -2.03 1.71
-8 6 -13 -1.97 1.78
-6 -8 -13 1.13 1.53
6 8 -13 -1.5 1.62
8 -6 13 -4.17 1.57
-6 -8 13 -0.26 1.06
-8 6 13 0 1.39
6 8 13 1.46 1.94
-7 -8 -13 2.27 1.7
7 8 -13 2 1.84
-8 7 -13 0.7 1.97
-8 7 13 0.68 1.53
-7 -8 13 2.75 1.04
8 -7 13 2.28 1.9
8 8 -13 4.73 1.99
-8 8 -13 2.47 2.06
-8 -8 -13 2.57 1.76
-8 8 13 5.08 1.81
8 -8 13 1.46 1.9
9 8 -13 1.67 1.93
-9 -8 -13 0.95 1.89
-8 9 -13 -1.72 2.02
8 -9 13 0.58 1.98
-8 9 13 3.12 1.83
-9 -7 -13 0.87 1.73
9 7 -13 0.58 1.78
-7 9 -13 2.34 2.06
7 -9 13 2.98 2.05
-7 9 13 2.94 1.72
-9 -6 -13 0.01 1.59
-6 9 -13 1.39 1.81
9 6 -13 1.81 1.7
6 -9 13 0.47 1.79
-6 9 13 0.53 1.75
-9 -5 -13 -0.29 1.63
9 5 -13 1.61 1.5
-5 9 -13 -1.96 1.65
-5 9 13 1.57 1.77
5 -9 13 -0.91 1.75
-9 -4 -13 4.71 1.9
-4 9 -13 5.43 1.98
9 4 -13 6.28 1.72
-4 9 13 4 1.83
4 -9 13 7.24 2.05
-3 9 -13 8.85 2.31
-9 -3 -13 14.29 2.3
9 3 -13 8.63 1.86
3 -9 13 10.99 2.15
9 3 13 6.47 2.22
-3 9 13 9.72 2.08
-9 -2 -13 4.5 1.92
-2 9 -13 3.27 2.09
9 2 -13 6.56 1.61
9 2 13 6.32 2.14
-2 9 13 4.32 2
2 -9 13 7.31 1.85
-1 9 -13 1.19 1.97
-9 -1 -13 0.78 1.74
9 1 13 1.27 1.84
-1 9 13 1.47 1.7
1 -9 13 3.13 1.68
-9 0 -13 1.58 1.66
0 9 -13 -3.2 1.69
-9 0 13 0.83 0.88
9 0 13 0.8 1.77
0 -9 13 1.26 1.58
0 9 13 0.52 1.7
-9 0 13 1.63 0.92
-9 1 -13 5.18 2
1 9 -13 5.4 2.09
1 9 13 1.42 1.79
9 -1 13 3.58 1.96
-9 1 13 4.28 1.13
-1 -9 13 0.83 1.5
-9 2 -13 4.06 2.02
2 9 -13 3.04 1.86
2 9 13 6.71 1.97
9 -2 13 6.21 2.12
-9 2 13 5.83 1.29
-2 -9 13 4.95 1.57
-9 3 -13 1.73 1.93
3 9 -13 3.66 1.82
-3 -9 13 0.45 1.31
-9 3 13 1.43 1.18
9 -3 13 0.94 1.84
3 9 13 3.53 1.67
4 9 -13 -2.1 1.65
-9 4 -13 3.54 1.98
4 9 13 1.73 1.84
9 -4 13 5.07 2.04
-9 4 13 0.57 1.28
-4 -9 13 -0.93 1.33
5 9 -13 2.2 1.7
-9 5 -13 0.65 1.97
-5 -9 13 0.28 1.24
9 -5 13 0.68 1.84
5 9 13 4.02 1.97
-9 5 13 1.74 1.32
-9 6 -13 -0.94 1.81
-6 -9 -13 -2.62 1.36
6 9 -13 -1.92 1.62
-9 6 13 0.38 1.39
9 -6 13 0.47 1.86
-6 -9 13 -0.44 1.21
-7 -9 -13 -0.09 1.59
7 9 -13 0.48 1.86
-9 7 -13 3.68 1.89
9 -7 13 1.58 1.92
-9 7 13 1.72 1.59
-7 -9 13 0.45 1.04
8 9 -13 -0.87 1.74
-8 -9 -13 -1.17 1.63
-9 8 -13 -0.58 1.78
-8 -9 13 -0.44 0.89
-9 8 13 0.28 1.74
9 -8 13 4.52 2.11
-9 9 -13 -1.03 2.11
9 9 -13 0.89 1.93
-9 -9 -13 -3.25 1.7
9 -9 13 2.82 2.04
-9 9 13 -0.64 1.88
-10 -9 -13 -0.65 1.81
-9 10 -13 -2.02 2.19
9 -10 13 0.32 2.03
-9 10 13 3.17 1.99
-8 10 -13 2.29 2.3
-10 -8 -13 2.98 1.98
8 -10 13 1.12 1.9
-8 10 13 0.94 1.85
-10 -7 -13 -0.88 1.77
-7 10 -13 -1.41 2.06
7 -10 13 1.59 2.07
-7 10 13 3.69 1.97
-6 10 -13 1.03 1.86
-10 -6 -13 1.34 1.76
6 -10 13 -1.73 1.88
-6 10 13 -1.65 1.76
-10 -5 -13 -0.65 1.7
-5 10 -13 2.7 2.07
-5 10 13 -1.59 1.78
5 -10 13 0.53 1.93
-4 10 -13 0.26 1.95
-10 -4 -13 2.27 1.8
4 -10 13 -0.09 1.7
-4 10 13 1.28 1.77
-3 10 -13 2.29 1.93
-10 -3 -13 1.24 1.78
3 -10 13 -0.87 1.73
-3 10 13 2.69 1.9
-10 -2 -13 1.89 1.88
10 2 -13 7.22 1.61
-2 10 -13 2.24 1.82
-2 10 13 3.26 1.94
2 -10 13 -0.72 1.57
-1 10 -13 -0.13 1.93
-10 -1 -13 -0.56 1.79
1 -10 13 -0.47 1.65
-1 10 13 0.84 1.87
-10 0 -13 2.41 1.89
0 10 -13 3.55 2.01
10 0 13 1.01 1.95
0 -10 13 2.02 1.66
0 10 13 0.87 1.75
1 10 -13 3.64 2.13
-10 1 -13 2.32 1.97
-10 1 13 3 1.11
10 -1 13 0.5 1.91
1 10 13 4.08 1.99
-1 -10 13 1.38 1.58
-10 2 -13 5 2.14
2 10 -13 8.98 2.29
10 -2 13 3.19 2.07
-2 -10 13 3.53 1.57
2 10 13 6.06 2.06
-10 2 13 4.38 1.26
-10 3 -13 1.87 2.04
3 10 -13 1.32 1.95
10 -3 13 2.61 1.98
-10 3 13 1.1 1.25
3 10 13 -2.13 1.74
-3 -10 13 0.5 1.41
4 10 -13 0.43 1.84
-10 4 -13 1.66 1.78
4 10 13 -1.09 1.8
10 -4 13 1.97 1.97
-4 -10 13 -1.04 1.4
-10 4 13 1.17 1.35
5 10 -13 -0.39 1.81
-10 5 -13 1.15 1.91
-10 5 13 -1.58 1.29
-5 -10 13 1.93 1.45
5 10 13 1.03 1.94
10 -5 13 2.72 2.02
6 10 -13 0.15 1.91
-10 6 -13 -0.65 1.74
10 -6 13 -0.64 1.89
-10 6 13 1.61 1.46
-6 -10 13 1.32 1.34
7 10 -13 -1.12 1.78
-10 7 -13 -0.29 2.07
-10 7 13 2.73 1.66
-7 -10 13 -2.74 1.12
10 -7 13 -1.76 1.86
8 10 -13 0.11 1.94
-10 8 -13 3.37 2.28
-8 -10 -13 0.16 1.72
-8 -10 13 2.39 1.12
10 -8 13 2.25 2.15
-10 8 13 1.26 1.66
-10 9 -13 -1.8 2.09
-9 -10 -13 -0.88 1.77
9 10 -13 -1.49 1.95
-10 9 13 -1.8 1.74
-11 -7 -13 -1.61 1.8
-7 11 -13 2.25 2.26
7 -11 13 0.73 2.01
-7 11 13 -0.78 1.76
-11 -6 -13 0.61 1.77
-6 11 -13 4 2.29
-6 11 13 -0.24 1.89
6 -11 13 -0.9 1.83
-11 -5 -13 -2.53 1.87
-5 11 -13 -2.5 1.95
-5 11 13 1.7 1.88
5 -11 13 1.46 1.83
-4 11 -13 -2.68 1.85
-11 -4 -13 0.95 1.91
4 -11 13 -1.57 1.72
-4 11 13 -1.93 1.69
-3 11 -13 1.83 2.01
-11 -3 -13 -1.94 1.75
-3 11 13 -0.64 1.88
3 -11 13 0.84 1.88
-11 -2 -13 -0.59 1.57
-2 11 -13 0.75 1.78
-2 11 13 1.61 1.97
2 -11 13 0.06 1.8
-1 11 -13 2.3 2
-11 -1 -13 0.79 1.94
-1 11 13 1.99 1.85
1 -11 13 0.31 1.72
0 11 -13 -0.6 1.87
-11 0 -13 3.2 2.11
0 11 13 3.89 2.09
0 -11 13 1.85 1.68
-11 1 -13 0.92 1.94
1 11 -13 2.48 2.14
1 11 13 2.49 1.99
-1 -11 13 2.11 1.62
-11 1 13 0.8 1.01
-11 2 -13 2.78 2.09
2 11 -13 2.12 2.11
-11 2 13 2.58 1.2
2 11 13 0.24 1.85
-2 -11 13 3.74 1.67
3 11 -13 4.11 2.01
-11 3 -13 3.24 2.13
-3 -11 13 5.05 1.62
-11 3 13 0.45 1.3
3 11 13 4.38 2.13
-11 4 -13 -2.23 1.88
4 11 -13 2.41 2.02
-4 -11 13 -0.1 1.37
-11 4 13 3.58 1.51
4 11 13 3.04 2.05
5 11 -13 -0.12 2
-11 5 -13 1.26 1.79
-5 -11 13 -0.27 1.41
-11 5 13 0.66 1.56
6 11 -13 2.45 2.12
-11 6 -13 1.53 2.08
-6 -11 13 2.06 1.42
-11 6 13 1.21 1.67
-11 7 -13 0.01 1.88
7 11 -13 2.42 2.1
-7 -11 13 -0.24 1.26
-11 7 13 1.16 1.69
-12 -6 -13 -2.74 1.72
-6 12 -13 -2.07 2.16
6 -12 13 0.86 1.97
-6 12 13 -0.62 2.02
-5 12 -13 4.62 2.39
-12 -5 -13 -0.68 1.92
-5 12 13 0.17 2.03
5 -12 13 -1.56 1.98
-4 12 -13 4.06 2.29
-12 -4 -13 0.7 2.01
4 -12 13 1.16 2.04
-4 12 13 -0.79 1.91
-3 12 -13 0.14 2.08
-12 -3 -13 3.19 2.1
-3 12 13 -0.06 1.88
3 -12 13 0.99 1.86
-2 12 -13 -1.29 2
-12 -2 -13 -3.31 1.78
2 -12 13 -2.11 1.82
-2 12 13 -2.19 1.82
-12 -1 -13 -0.88 1.89
-1 12 -13 -2.64 1.85
1 -12 13 2.08 1.82
-1 12 13 -0.21 1.9
-12 0 -13 1.85 2.13
0 12 -13 -0.62 1.93
0 12 13 -1.12 1.89
0 -12 13 3.81 1.82
-12 1 -13 -0.84 1.98
1 12 -13 -1.18 1.94
-1 -12 13 -0.17 1.65
1 12 13 -0.8 1.98
-12 1 13 -1.35 0.88
-12 2 -13 3.08 2.14
2 12 -13 2.92 2.23
-12 2 13 1.31 1.2
2 12 13 1.63 2.11
-2 -12 13 1.44 1.67
3 12 -13 0.55 2.1
-12 3 -13 0.06 2.06
-12 3 13 2.31 1.4
-3 -12 13 -0.54 1.54
4 12 -13 -0.61 2.02
-12 4 -13 -4.51 1.76
-4 -12 13 -0.86 1.43
-12 4 13 0.45 1.43
-12 5 -13 -0.79 2
5 12 -13 -1.23 1.98
-5 -12 13 1.4 1.64
-12 5 13 1.53 1.53
6 12 -13 6.94 2.39
-12 6 -13 3.74 2.43
-12 6 13 1.98 1.66
-6 -12 13 5.5 1.69
-3 13 -13 -0.68 2.15
-13 -3 -13 1.33 2.13
-3 13 13 2.21 2.17
3 -13 13 0.53 1.91
-2 13 -13 5.02 2.38
-13 -2 -13 -2.41 1.92
-2 13 13 2.92 2.1
2 -13 13 1.98 1.92
-13 -1 -13 -2.81 1.73
-1 13 -13 1.91 2.24
1 -13 13 -0.71 1.84
-1 13 13 0.9 2.01
-13 0 -13 0.14 2.1
0 13 -13 -1.07 2.04
0 -13 13 -1.36 1.8
0 13 13 -1.17 1.96
-13 1 -13 -2.82 2.03
1 13 -13 1.18 2.18
1 13 13 0.6 2.12
-1 -13 13 -1.77 1.67
2 13 -13 0.28 2.17
-13 2 -13 -1.1 2.06
-13 2 13 0.02 1.14
-2 -13 13 2.53 1.81
3 13 -13 1.07 2.17
-13 3 -13 -2.14 1.96
-3 -13 13 -1.4 1.48
-13 3 13 0.24 1.32
0 0 -14 14.5 1.92
0 0 14 9.15 1.89
0 -1 -14 7.77 1.62
0 1 -14 9.3 1.83
-1 0 -14 11.08 1.83
1 0 -14 8.65 1.67
1 0 14 7.67 1.82
-1 0 14 10.48 1.73
0 1 14 7.71 1.71
0 -1 14 7.76 1.72
1 1 -14 5.39 1.55
-1 1 -14 5.58 1.62
-1 -1 -14 3.27 1.46
1 -1 -14 6.44 1.48
-1 -1 14 5.1 1.48
1 1 14 4.82 1.63
-1 1 14 3.84 1.52
1 -1 14 3.83 1.6
2 1 -14 -1.29 1.26
-1 2 -14 1.93 1.5
1 -2 -14 -1.69 1.15
-2 -1 -14 0.69 1.26
2 1 14 2.26 1.56
-2 -1 14 -0.76 1.12
1 -2 14 -0.6 1.42
-1 2 14 -1.86 1.35
0 -2 -14 0.52 1.18
0 2 -14 -0.56 1.33
2 0 -14 -0.35 1.22
-2 0 -14 0.63 1.44
-2 0 14 0.74 1.2
2 0 14 -3.42 1.28
0 2 14 0.86 1.51
0 -2 14 1.03 1.37
-2 1 -14 0.88 1.44
1 2 -14 0.48 1.38
2 -1 -14 -0.03 1.23
-1 -2 -14 -0.03 1.26
-2 1 14 1.6 1.3
1 2 14 1.79 1.51
-1 -2 14 0.35 1.32
2 -1 14 -1.78 1.46
-2 2 -14 -1.7 1.39
-2 -2 -14 -0.21 1.23
2 -2 -14 1.53 1.17
2 2 -14 -0.15 1.37
-2 -2 14 -0.3 1.09
2 2 14 -0.71 1.51
2 -2 14 -2.63 1.41
-2 2 14 1.75 1.42
-2 3 -14 3.41 1.7
3 2 -14 4.54 1.49
-3 -2 -14 3.77 1.41
-3 -2 14 1.96 1.29
2 -3 14 2.92 1.62
-2 3 14 1.44 1.47
3 2 14 4.19 1.72
-1 3 -14 1.35 1.53
1 -3 -14 5.06 1.27
-3 -1 -14 2.03 1.44
3 1 -14 5.45 1.45
-3 -1 14 2.82 1.26
3 1 14 1.85 1.6
-1 3 14 4.53 1.64
1 -3 14 1.06 1.47
0 -3 -14 3.64 1.27
-3 0 -14 4.21 1.57
3 0 -14 3.98 1.34
0 3 -14 1.36 1.51
-3 0 14 4.29 1.32
0 -3 14 4.94 1.55
0 3 14 2.24 1.52
3 0 14 2.14 1.67
-1 -3 -14 0.93 1.14
3 -1 -14 -0.67 1.11
1 3 -14 0.97 1.43
-3 1 -14 0.47 1.48
3 -1 14 0.75 1.52
-1 -3 14 0.48 1.26
-3 1 14 0.86 1.23
1 3 14 -1.06 1.51
2 3 -14 1.05 1.57
-2 -3 -14 0.91 1.28
-3 2 -14 1.98 1.61
3 -2 14 -0.58 1.43
-3 2 14 3.46 1.39
-2 -3 14 -1.22 1.14
2 3 14 3.48 1.66
-3 3 -14 -1.13 1.53
3 3 -14 -0.53 1.36
-3 -3 -14 2.37 1.37
-3 3 14 -0.16 1.29
3 3 14 -0.62 1.6
-3 -3 14 -0.19 1.21
3 -3 14 0.36 1.48
4 3 -14 -0.45 1.36
-4 -3 -14 -1.28 1.34
-3 4 -14 3.07 1.8
-4 -3 14 1.29 1.18
3 -4 14 1.79 1.65
-3 4 14 -0.79 1.34
4 3 14 0.29 1.63
-4 -2 -14 7.32 1.72
-2 4 -14 10.56 2.09
4 2 -14 8.2 1.7
-2 4 14 11.96 1.94
2 -4 14 5.18 1.74
-4 -2 14 11.54 1.56
4 2 14 9.67 2.03
-4 -1 -14 6.31 1.69
-1 4 -14 7.65 1.96
4 1 -14 8.61 1.65
-4 -1 14 8.23 1.48
1 -4 14 8.89 1.84
4 1 14 11.37 2.04
-1 4 14 9.34 1.9
0 4 -14 5.32 1.76
4 0 -14 6.29 1.51
0 -4 -14 6.27 1.31
-4 0 -14 6.85 1.73
0 4 14 4.38 1.74
4 0 14 4.06 1.84
0 -4 14 4.15 1.53
-4 0 14 2.98 1.32
4 -1 -14 1.23 1.17
-4 1 -14 1.54 1.53
-1 -4 -14 -0.01 1.09
1 4 -14 0.59 1.49
1 4 14 -2.3 1.52
-4 1 14 0.75 1.16
-1 -4 14 -0.49 1.22
4 -1 14 0.58 1.65
2 4 -14 0.67 1.48
-2 -4 -14 1.73 1.27
-4 2 -14 1.2 1.63
4 -2 14 1.25 1.62
2 4 14 -2.58 1.44
-4 2 14 2.71 1.29
-2 -4 14 2.6 1.22
-4 3 -14 5.19 1.87
-3 -4 -14 4.4 1.44
3 4 -14 4.17 1.55
-3 -4 14 2.76 1.29
-4 3 14 3.82 1.4
3 4 14 1.15 1.67
4 -3 14 4.36 1.78
-4 4 -14 3.75 1.86
-4 -4 -14 3.33 1.5
4 4 -14 4.64 1.69
-4 -4 14 2.71 1.25
4 4 14 5.76 1.89
-4 4 14 0.34 1.5
4 -4 14 2.08 1.75
5 4 -14 1.47 1.64
-5 -4 -14 -0.49 1.32
-4 5 -14 2.49 1.86
-4 5 14 2.46 1.57
5 4 14 0.49 1.71
4 -5 14 0.89 1.6
-5 -4 14 0.43 1.08
-5 -3 -14 2.57 1.48
5 3 -14 1.47 1.57
-3 5 -14 3.5 1.89
3 -5 14 1.58 1.68
-5 -3 14 3.47 1.16
5 3 14 4.54 1.84
-3 5 14 2.28 1.59
-5 -2 -14 15.25 2.24
5 2 -14 15.59 2.12
-2 5 -14 15.17 2.43
5 2 14 16.01 2.45
-2 5 14 14.86 2.25
-5 -2 14 17.15 1.73
2 -5 14 18.58 2.37
5 1 -14 17.4 2.02
-1 5 -14 13.3 2.33
-5 -1 -14 13.99 2.24
5 1 14 11.08 2.21
-5 -1 14 15.35 1.75
1 -5 14 17.9 2.19
-1 5 14 16.26 2.24
0 5 -14 4.79 1.83
5 0 -14 6.08 1.49
-5 0 -14 1.38 1.55
0 5 14 3.82 1.81
0 -5 14 2.89 1.49
5 0 14 3.57 1.8
-5 0 14 4.08 1.27
1 5 -14 3.58 1.79
-5 1 -14 4.07 1.78
1 5 14 1.4 1.66
5 -1 14 4.7 1.79
-1 -5 14 4.51 1.42
-5 1 14 2.73 1.27
2 5 -14 0.06 1.56
-2 -5 -14 1.25 1.18
-5 2 -14 1.46 1.66
2 5 14 3.84 1.76
-2 -5 14 1.05 1.24
-5 2 14 -1.39 1.16
5 -2 14 0.86 1.77
3 5 -14 10.98 2.09
-5 3 -14 10.38 2.07
-3 -5 -14 8.69 1.65
-3 -5 14 10.31 1.64
3 5 14 6.63 2
-5 3 14 8.14 1.59
5 -3 14 13.64 2.23
4 5 -14 5.12 1.71
-4 -5 -14 3.41 1.42
-5 4 -14 2.68 1.9
4 5 14 4.04 1.88
-5 4 14 2.17 1.38
-4 -5 14 2.45 1.25
5 -4 14 7 1.92
-5 5 -14 0.97 1.84
5 5 -14 -0.77 1.61
-5 -5 -14 0.63 1.36
5 5 14 1.98 1.73
5 -5 14 1.93 1.69
-5 5 14 1.99 1.51
-5 -5 14 2.45 1.12
-5 6 -14 2.08 1.97
-6 -5 -14 -0.81 1.42
6 5 -14 0.25 1.47
6 5 14 -1.8 1.6
-5 6 14 -0.76 1.49
5 -6 14 1.32 1.74
-6 -5 14 1.14 1
-6 -5 14 0.49 0.96
-6 -4 -14 -0.33 1.51
-4 6 -14 -0.31 1.84
6 4 -14 -0.17 1.48
-6 -4 14 -0.2 0.93
-6 -4 14 0.38 0.98
-4 6 14 2.1 1.63
4 -6 14 1.43 1.66
6 4 14 1.07 1.8
-3 6 -14 -1.22 1.8
-6 -3 -14 0.52 1.48
6 3 -14 -0.34 1.43
-3 6 14 4.2 1.77
-6 -3 14 1.93 0.97
-6 -3 14 3.29 1.03
3 -6 14 -0.35 1.55
6 3 14 2.18 1.81
-2 6 -14 9.27 2.13
-6 -2 -14 4.95 1.78
6 2 -14 4.83 1.64
-2 6 14 8.95 1.92
-6 -2 14 5.58 1.21
2 -6 14 8.66 1.95
6 2 14 5.29 1.94
-6 -2 14 6.47 1.19
-6 -1 -14 3.35 1.74
-1 6 -14 2.43 1.88
6 1 -14 1.04 1.35
-6 -1 14 5.38 1.19
1 -6 14 4.04 1.65
6 1 14 0.81 1.7
-1 6 14 4.34 1.71
0 6 -14 -0.35 1.68
-6 0 -14 1.18 1.56
6 0 -14 3.03 1.23
0 6 14 4.13 1.79
-6 0 14 1.21 1.09
6 0 14 -0.22 1.68
0 -6 14 2.36 1.48
-6 1 -14 1.37 1.63
1 6 -14 1.16 1.55
-6 1 14 4.09 1.29
1 6 14 1.47 1.66
6 -1 14 3.51 1.82
-1 -6 14 2.95 1.43
2 6 -14 3.97 1.78
-6 2 -14 4.37 1.91
-6 2 14 3.31 1.32
2 6 14 2.3 1.81
6 -2 14 4.14 1.92
-2 -6 14 3.52 1.37
3 6 -14 8.38 2.03
-3 -6 -14 8.63 1.61
-6 3 -14 8.51 2.11
6 -3 14 9.32 2.09
-6 3 14 6.93 1.48
-3 -6 14 5 1.51
3 6 14 3.52 1.88
4 6 -14 6.24 1.91
-6 4 -14 -0.02 1.87
-4 -6 -14 4.89 1.51
-6 4 14 2.56 1.38
-4 -6 14 4.69 1.36
4 6 14 6.56 2
6 -4 14 2.12 1.82
-5 -6 -14 -0.31 1.36
5 6 -14 1.21 1.59
-6 5 -14 -0.52 1.68
6 -5 14 0.94 1.74
-6 5 14 -0.63 1.37
-5 -6 14 0.22 1.08
5 6 14 0.81 1.76
6 6 -14 -0.36 1.6
-6 6 -14 -0.39 1.76
-6 -6 -14 2.95 1.47
-6 6 14 3.43 1.65
-6 -6 14 0.24 1
6 -6 14 -1.89 1.64
6 6 14 1.97 1.89
-7 -6 -14 1.28 1.53
7 6 -14 3.71 1.71
-6 7 -14 1.21 2.06
6 -7 14 0.92 1.84
-6 7 14 3.06 1.74
7 6 14 3.64 2.04
7 5 -14 0.85 1.6
-7 -5 -14 3.41 1.71
-5 7 -14 1.4 1.82
5 -7 14 2.39 1.82
-5 7 14 2.78 1.71
7 5 14 0.07 1.8
-4 7 -14 1.32 1.93
7 4 -14 2.34 1.57
-7 -4 -14 0.13 1.48
4 -7 14 -0.18 1.7
7 4 14 -0.97 1.76
-4 7 14 -0.97 1.55
-3 7 -14 2.71 1.93
-7 -3 -14 0.63 1.64
7 3 -14 1.78 1.45
-7 -3 14 -0.38 0.8
7 3 14 0.42 1.77
3 -7 14 1.17 1.69
-7 -3 14 0.74 0.75
-3 7 14 -0.29 1.53
7 2 -14 -0.38 1.39
-2 7 -14 -1.43 1.72
-7 -2 -14 1.64 1.64
-2 7 14 -2.17 1.66
7 2 14 2.23 1.84
-7 -2 14 -0.55 0.8
-7 -2 14 0.45 0.9
2 -7 14 -2.14 1.53
-1 7 -14 -0.42 1.79
7 1 -14 -0.17 1.26
-7 -1 -14 -0.74 1.59
1 -7 14 -0.48 1.41
-1 7 14 0.02 1.71
7 1 14 -1.42 1.63
-7 -1 14 -1.86 0.97
-7 -1 14 -0.15 0.9
0 7 -14 -0.11 1.58
-7 0 -14 -2.07 1.56
-7 0 14 1.23 1.06
0 -7 14 0.65 1.45
0 7 14 0.64 1.72
7 0 14 1.79 1.79
-7 1 -14 2.11 1.77
1 7 -14 -0.43 1.74
1 7 14 2.19 1.75
7 -1 14 -1.23 1.63
-1 -7 14 2.63 1.45
-7 1 14 0.7 1.16
-7 2 -14 1.21 1.8
2 7 -14 0.98 1.72
-2 -7 14 1.06 1.27
-7 2 14 0.83 1.2
2 7 14 0.23 1.8
7 -2 14 0.08 1.7
-7 3 -14 4.35 1.89
3 7 -14 6.31 1.96
-3 -7 14 3.65 1.45
-7 3 14 3.17 1.31
3 7 14 -0.13 1.84
7 -3 14 2.85 1.82
-7 4 -14 1.11 1.7
-4 -7 -14 2.05 1.32
4 7 -14 2.78 1.89
-4 -7 14 2.34 1.33
-7 4 14 -0.23 1.24
7 -4 14 2.05 1.9
4 7 14 6.93 2.04
-7 5 -14 2.21 1.96
5 7 -14 -1.44 1.59
-5 -7 -14 0.75 1.38
-5 -7 14 -2.03 1.1
5 7 14 1.2 1.87
-7 5 14 3.3 1.43
7 -5 14 -1.75 1.75
-6 -7 -14 -1.13 1.4
6 7 -14 -0.87 1.63
-7 6 -14 0.28 2.06
6 7 14 1.82 1.95
-7 6 14 -1.42 1.45
7 -6 14 -1.92 1.78
-6 -7 14 0.39 1.05
-7 7 -14 1.77 2.06
7 7 -14 4.83 1.91
-7 -7 -14 5.66 1.65
-7 7 14 1.3 1.77
7 -7 14 1.85 1.91
-7 -7 14 3.34 0.93
7 7 14 1.74 2.05
-7 -7 14 2.54 0.96
8 7 -14 4.26 2.06
-7 8 -14 0.99 2.15
-8 -7 -14 5.63 1.87
-7 8 14 1.03 1.82
7 -8 14 5.53 2.14
-8 -6 -14 1.63 1.73
8 6 -14 1.55 1.71
-6 8 -14 6.65 2.27
-6 8 14 3.29 1.75
6 -8 14 2.36 1.86
-8 -5 -14 2.03 1.74
-5 8 -14 -2.85 1.73
8 5 -14 1.21 1.63
5 -8 14 0.94 1.88
8 5 14 0.73 1.9
-5 8 14 3.06 1.82
-4 8 -14 1.96 2.08
8 4 -14 2.75 1.62
-8 -4 -14 1.32 1.64
8 4 14 1.51 1.92
-4 8 14 2.02 1.72
4 -8 14 3.45 1.79
-8 -3 -14 1.52 1.72
-3 8 -14 4.37 2.06
8 3 -14 0.68 1.4
3 -8 14 2.58 1.69
8 3 14 0.51 1.82
-3 8 14 0.61 1.67
8 2 -14 3.98 1.61
-8 -2 -14 3.81 1.79
-2 8 -14 1.28 1.79
2 -8 14 4.25 1.72
8 2 14 3.77 1.98
-2 8 14 2.29 1.73
-8 -1 -14 2.24 1.79
-1 8 -14 0.45 1.91
-1 8 14 4.73 1.89
1 -8 14 1.15 1.6
8 1 14 0.14 1.75
-8 -1 14 2.16 0.91
-8 -1 14 1.43 0.88
-8 0 -14 0.18 1.74
0 8 -14 3.14 1.96
0 8 14 1.75 1.75
-8 0 14 0.99 0.99
-8 0 14 -0.28 0.99
0 -8 14 1.33 1.5
8 0 14 0.08 1.77
-8 1 -14 1.52 1.88
1 8 -14 4.26 2.01
1 8 14 1.23 1.77
-1 -8 14 1 1.47
8 -1 14 0.08 1.83
-8 1 14 1.29 1.13
2 8 -14 0.91 1.84
-8 2 -14 1.15 1.84
8 -2 14 0.57 1.8
2 8 14 -1.61 1.65
-2 -8 14 0.05 1.31
-8 2 14 -1.01 1.17
-8 3 -14 1.58 1.85
3 8 -14 0.52 1.8
-3 -8 14 0.09 1.33
3 8 14 2.9 1.93
-8 3 14 -0.88 1.22
8 -3 14 -1.1 1.75
4 8 -14 -1.43 1.72
-8 4 -14 0.48 1.92
-4 -8 14 -1.49 1.27
-8 4 14 1.55 1.33
8 -4 14 2.31 1.9
4 8 14 -0.46 1.79
-8 5 -14 -0.27 1.81
5 8 -14 2.59 1.83
-5 -8 14 2.48 1.29
8 -5 14 -0.77 1.78
-8 5 14 0.14 1.37
5 8 14 0.34 1.79
6 8 -14 0.63 1.78
-6 -8 -14 1.08 1.51
-8 6 -14 -1.8 1.91
8 -6 14 0.5 1.83
-6 -8 14 -1.25 1.1
6 8 14 0.11 1.87
-8 6 14 -0.7 1.47
-8 7 -14 3.1 2.18
-7 -8 -14 6.01 1.9
7 8 -14 2.04 1.9
8 -7 14 0.74 1.95
-8 7 14 4.02 1.79
-7 -8 14 2.74 1.07
-8 -8 -14 1.5 1.8
8 8 -14 2.63 1.98
-8 8 -14 2.07 1.98
-8 8 14 4.93 1.85
8 -8 14 4.63 2.1
-8 9 -14 -1.09 2.16
9 8 -14 1.77 1.96
-9 -8 -14 -2.13 1.75
8 -9 14 -0.63 1.97
-8 9 14 0.36 1.77
9 7 -14 1.34 1.91
-7 9 -14 1.83 1.94
-9 -7 -14 1.62 1.75
7 -9 14 1.66 2.02
-7 9 14 -1.85 1.71
-6 9 -14 -0.78 2.02
9 6 -14 0.92 1.67
-9 -6 -14 1.3 1.74
6 -9 14 0.81 1.86
-6 9 14 0.23 1.83
-5 9 -14 -1.24 1.98
9 5 -14 -2.55 1.42
-9 -5 -14 0.91 1.81
5 -9 14 -2.99 1.77
-5 9 14 -0.55 1.81
-9 -4 -14 1.3 1.8
9 4 -14 1.32 1.59
-4 9 -14 2.73 2.1
-4 9 14 2.98 1.92
4 -9 14 -0.91 1.74
-9 -3 -14 3.37 1.79
-3 9 -14 4.9 2.18
9 3 -14 1.17 1.5
-3 9 14 -0.35 1.73
9 3 14 0.89 1.96
3 -9 14 4.34 1.89
-2 9 -14 4.38 2.15
-9 -2 -14 3.41 1.9
9 2 -14 3.78 1.55
9 2 14 6.21 2.13
-2 9 14 5.94 2.08
2 -9 14 5.45 1.92
-1 9 -14 -1.58 1.88
-9 -1 -14 -0.38 1.73
9 1 14 -0.16 1.88
1 -9 14 3.44 1.77
-1 9 14 3.3 1.8
0 9 -14 3.38 2.03
-9 0 -14 1.16 1.85
0 9 14 -1.95 1.69
9 0 14 1.29 1.99
-9 0 14 0.11 0.91
-9 0 14 0.66 0.92
0 -9 14 3.25 1.76
1 9 -14 1.02 1.89
-9 1 -14 0.07 1.78
-1 -9 14 1.48 1.56
1 9 14 -0.86 1.78
-9 1 14 2.15 1.07
9 -1 14 0.2 1.83
2 9 -14 3.09 1.96
-9 2 -14 1.61 1.95
2 9 14 -1.01 1.75
9 -2 14 0.62 1.92
-2 -9 14 2.28 1.47
-9 2 14 0.77 1.13
-9 3 -14 1.8 1.94
3 9 -14 0.92 1.95
3 9 14 -0.14 1.75
-3 -9 14 -0.06 1.37
-9 3 14 1.95 1.27
9 -3 14 1.12 1.88
-9 4 -14 -0.32 1.9
4 9 -14 2.62 1.89
-4 -9 14 0.72 1.32
4 9 14 0.55 1.87
-9 4 14 -0.27 1.31
9 -4 14 3.3 1.92
5 9 -14 -1.63 1.67
-9 5 -14 -1.54 1.93
5 9 14 -3.23 1.7
9 -5 14 -0.25 1.91
-5 -9 14 -0.5 1.26
-9 5 14 0.51 1.42
-9 6 -14 -3.2 1.89
6 9 -14 -0.01 1.8
9 -6 14 -0.69 1.86
-6 -9 14 0.74 1.24
-9 6 14 -0.75 1.41
-9 7 -14 -0.77 2.01
7 9 -14 2.93 2.04
-7 -9 14 1.69 1.09
9 -7 14 2.11 2.05
-9 7 14 -2.38 1.48
-8 -9 -14 2.07 1.84
8 9 -14 -0.58 1.86
-9 8 -14 1.19 2.16
9 -8 14 -0.62 1.98
-9 8 14 0.7 1.81
-10 -7 -14 0.76 1.85
10 7 -14 -0.14 1.76
-7 10 -14 1.07 1.98
7 -10 14 1.35 1.99
-7 10 14 -2.53 1.66
-10 -6 -14 -0.16 1.82
-6 10 -14 -1.17 2.07
10 6 -14 1.05 1.66
6 -10 14 4.12 2
-6 10 14 1.61 1.87
-5 10 -14 -1.51 1.79
-10 -5 -14 1.15 1.76
10 5 -14 0.97 1.61
5 -10 14 -2.16 1.67
-5 10 14 1.36 1.78
10 4 -14 0.04 1.6
-10 -4 -14 0.05 1.81
-4 10 -14 1.14 2.06
4 -10 14 0.39 1.8
-4 10 14 0.96 1.77
10 3 -14 1.35 1.54
-10 -3 -14 3.36 1.82
-3 10 -14 1.73 1.92
3 -10 14 0.95 1.76
-3 10 14 0.14 1.77
-10 -2 -14 0.9 1.78
-2 10 -14 3.11 2.17
2 -10 14 2.83 1.88
-2 10 14 3.91 2.05
-10 -1 -14 1.45 1.97
-1 10 -14 -1.24 1.97
-1 10 14 2.96 1.93
1 -10 14 2.59 1.78
-10 0 -14 -0.65 1.86
0 10 -14 -0.59 1.9
0 10 14 -1.05 1.75
0 -10 14 -0.8 1.6
1 10 -14 4.75 2.16
-10 1 -14 0.88 2
-10 1 14 1.36 1.09
-1 -10 14 4.34 1.72
10 -1 14 2.19 2.07
1 10 14 3.74 2.15
-10 2 -14 3.76 2.13
2 10 -14 6.72 2.29
-10 2 14 2.85 1.23
10 -2 14 5.69 2.13
2 10 14 4.38 2.07
-2 -10 14 1.13 1.48
3 10 -14 2.06 2.05
-10 3 -14 1.87 2.02
-3 -10 14 0.17 1.45
-10 3 14 1.12 1.3
10 -3 14 3.54 2.1
3 10 14 6.57 2.17
-10 4 -14 0.78 2.02
4 10 -14 7.06 2.29
-10 4 14 1.11 1.41
4 10 14 1.11 1.99
10 -4 14 -2.22 1.79
-4 -10 14 1.38 1.49
5 10 -14 1.2 1.76
-10 5 -14 0.98 2.05
-10 5 14 -0.85 1.46
-5 -10 14 -0.65 1.36
10 -5 14 1.6 2.01
6 10 -14 0.55 1.97
-10 6 -14 0.45 2.06
-10 6 14 4.21 1.68
10 -6 14 0.29 2.01
-6 -10 14 0.68 1.36
7 10 -14 1.45 2
-10 7 -14 -1.98 2.11
-10 7 14 -1 1.58
-7 -10 14 1.44 1.23
10 -7 14 -2.83 1.93
-6 11 -14 -0.21 2.02
11 6 -14 0.57 1.71
-11 -6 -14 0.55 1.81
-6 11 14 2.02 2.03
6 -11 14 1.62 2.04
-5 11 -14 0.6 2.18
11 5 -14 -1.13 1.63
-11 -5 -14 2.28 1.89
5 -11 14 0.98 2.03
-5 11 14 1.08 2.1
11 4 -14 2.31 1.68
-4 11 -14 -2.02 1.95
-11 -4 -14 -0.33 1.86
4 -11 14 -0.12 1.86
-4 11 14 -1.6 1.82
-3 11 -14 2.61 1.94
-11 -3 -14 1.78 1.93
3 -11 14 1.8 1.86
-3 11 14 -1.01 1.92
-11 -2 -14 -2.3 1.78
-2 11 -14 -3.04 1.94
-2 11 14 -0.08 2
2 -11 14 -0.21 1.84
-11 -1 -14 2.33 2.06
-1 11 -14 -1.93 2.09
-1 11 14 -0.38 1.86
1 -11 14 -4.92 1.59
0 11 -14 -1.12 2
-11 0 -14 -2.9 1.87
0 11 14 2.63 2.01
0 -11 14 2.66 1.83
1 11 -14 2.25 2.14
-11 1 -14 3.44 1.96
1 11 14 0.8 1.98
-11 1 14 1.48 1.04
-1 -11 14 4.51 1.81
2 11 -14 1.31 2.13
-11 2 -14 6.26 2.36
2 11 14 7.2 2.28
-11 2 14 3.15 1.3
-2 -11 14 4.53 1.83
-11 3 -14 4.48 2.09
3 11 -14 0.06 2.09
3 11 14 2.74 2.1
-3 -11 14 3.47 1.66
-11 3 14 0.4 1.32
4 11 -14 2.62 2.19
-11 4 -14 1.47 2.14
-4 -11 14 0.99 1.6
-11 4 14 3.3 1.54
5 11 -14 -0.32 2.06
-11 5 -14 -1.19 2
-5 -11 14 0.55 1.51
-11 5 14 2.23 1.58
-11 6 -14 -0.85 1.88
6 11 -14 2.57 2.15
-11 6 14 1.63 1.69
-6 -11 14 0.52 1.41
-12 -3 -14 -3.8 1.86
-3 12 -14 -1.88 1.92
-3 12 14 2.82 2.21
3 -12 14 2.55 2.02
-12 -2 -14 -0.23 1.94
-2 12 -14 -0.84 2.06
-2 12 14 -0.12 1.96
2 -12 14 1.31 1.92
-1 12 -14 1.35 2.16
-12 -1 -14 -1.92 1.94
-1 12 14 0.85 1.99
1 -12 14 -0.64 1.91
-12 0 -14 1.18 2.17
0 12 -14 -0.54 2.07
0 12 14 -3.45 1.81
0 -12 14 0.95 1.91
-12 1 -14 0.81 2.17
1 12 -14 -0.23 2.11
1 12 14 -1.71 1.97
-1 -12 14 1.09 1.82
-12 2 -14 -0.69 2.08
2 12 -14 0.24 2.22
-12 2 14 1.18 1.2
2 12 14 7.45 2.36
-2 -12 14 1.82 1.68
3 12 -14 4.12 2.36
-12 3 -14 -2.39 2.16
-12 3 14 -0.03 1.31
-3 -12 14 0.65 1.65
0 0 -15 6.69 1.68
0 0 15 3.66 1.68
-1 0 -15 3.94 1.54
0 1 -15 0.93 1.43
0 -1 -15 2.15 1.39
1 0 -15 2.99 1.49
-1 0 15 2.04 1.52
1 0 15 2.34 1.6
0 -1 15 0.95 1.52
0 1 15 2.4 1.64
1 -1 -15 2.31 1.44
1 1 -15 2.97 1.52
-1 -1 -15 2.21 1.42
-1 1 -15 1.94 1.5
-1 -1 15 0.75 1.4
1 1 15 1.04 1.64
1 -1 15 -0.24 1.54
-1 1 15 0.02 1.46
1 -2 -15 1.93 1.28
-2 -1 -15 -1.49 1.38
-1 2 -15 -0.68 1.47
2 1 -15 1.56 1.38
2 1 15 0.2 1.66
-1 2 15 -0.21 1.5
-2 -1 15 -1.17 1.26
1 -2 15 0.48 1.47
2 0 -15 0.51 1.41
0 2 -15 1.12 1.48
-2 0 -15 0.96 1.51
0 -2 -15 2.87 1.36
0 -2 15 0.26 1.47
-2 0 15 2.81 1.46
0 2 15 -1.5 1.5
2 0 15 3.11 1.7
-1 -2 -15 0.52 1.26
1 2 -15 1.86 1.47
-2 1 -15 -0.86 1.56
2 -1 -15 -1.21 1.2
1 2 15 1.87 1.67
-2 1 15 -0.72 1.38
-1 -2 15 -0.13 1.27
2 -1 15 -0.64 1.41
-2 2 -15 -0.71 1.66
2 2 -15 2.6 1.57
-2 -2 -15 -0.15 1.32
2 -2 15 -0.78 1.46
-2 -2 15 -0.17 1.27
-2 2 15 2.09 1.52
2 2 15 0.82 1.6
-2 3 -15 6.83 1.9
3 2 -15 3.47 1.61
-3 -2 -15 1.54 1.49
2 -3 15 4.28 1.75
3 2 15 1.21 1.69
-2 3 15 1.23 1.57
-3 -2 15 1.74 1.35
-1 3 -15 -0.66 1.49
3 1 -15 0.68 1.4
-3 -1 -15 1.18 1.44
3 1 15 -0.29 1.58
-3 -1 15 2.42 1.34
-1 3 15 2.2 1.69
1 -3 15 2.09 1.63
-3 0 -15 -1.66 1.52
0 3 -15 -0.66 1.48
3 0 -15 1.87 1.42
0 -3 -15 2.26 1.23
0 -3 15 0.61 1.5
0 3 15 0.93 1.53
3 0 15 -2.24 1.63
-3 0 15 1.07 1.28
-3 1 -15 0.78 1.59
3 -1 -15 0.46 1.29
1 3 -15 -0.99 1.45
-1 -3 -15 3.23 1.4
-3 1 15 1.81 1.36
-1 -3 15 -1.52 1.31
3 -1 15 -0.65 1.59
1 3 15 1.22 1.68
-2 -3 -15 0.04 1.29
2 3 -15 -0.03 1.56
-3 2 -15 0.68 1.66
2 3 15 -4.66 1.42
3 -2 15 -1.14 1.5
-3 2 15 -0.13 1.36
-2 -3 15 -1.75 1.27
-3 3 -15 0.56 1.67
-3 -3 -15 0.78 1.39
3 3 -15 0.75 1.6
-3 -3 15 2 1.36
3 3 15 -0.87 1.61
-3 3 15 0.41 1.44
3 -3 15 -0.23 1.55
4 3 -15 1.67 1.48
-4 -3 -15 1.95 1.5
-3 4 -15 1.51 1.78
-3 4 15 1.29 1.53
-4 -3 15 3 1.37
3 -4 15 -0.66 1.52
4 3 15 2.27 1.9
-4 -2 -15 7.82 1.91
-2 4 -15 9.99 2.17
4 2 -15 7.1 1.82
-2 4 15 8.63 1.95
-4 -2 15 9.63 1.61
2 -4 15 10.34 2.02
4 2 15 8.65 2.14
-1 4 -15 13.28 2.31
4 1 -15 11.02 1.9
-4 -1 -15 14.39 2.14
-1 4 15 13.34 2.23
4 1 15 12.81 2.27
1 -4 15 8.78 2.01
-4 -1 15 13.53 1.8
4 0 -15 5.1 1.51
-4 0 -15 4.27 1.8
0 4 -15 4.93 1.8
-4 0 15 5.16 1.52
0 -4 15 4.9 1.71
0 4 15 4.49 1.85
4 0 15 6.09 1.97
-4 1 -15 4.25 1.75
1 4 -15 2.21 1.66
-4 1 15 2.74 1.35
1 4 15 2.14 1.69
-1 -4 15 3 1.48
4 -1 15 2.45 1.74
-4 2 -15 2.5 1.72
-2 -4 -15 2.57 1.44
2 4 -15 2.47 1.7
4 -2 15 2.19 1.72
-2 -4 15 0.26 1.26
2 4 15 1.89 1.83
-4 2 15 -1.07 1.24
3 4 -15 3.4 1.65
-4 3 -15 2.52 1.83
-3 -4 -15 1.61 1.38
-3 -4 15 2.61 1.44
-4 3 15 2.54 1.38
3 4 15 3.3 1.81
4 -3 15 4.55 1.8
-4 -4 -15 -1.37 1.4
4 4 -15 1.21 1.46
-4 4 -15 0.45 1.78
4 -4 15 0.32 1.75
-4 -4 15 0.63 1.25
-4 4 15 1.07 1.56
4 4 15 -0.11 1.69
5 4 -15 0.47 1.59
-4 5 -15 -1.08 1.8
-5 -4 -15 -2.24 1.39
5 4 15 -0.8 1.72
4 -5 15 -0.69 1.63
-4 5 15 -1.85 1.55
-5 -4 15 1.51 1.19
-5 -3 -15 2.65 1.59
5 3 -15 0.27 1.5
-3 5 -15 0.99 1.85
5 3 15 -0.29 1.74
3 -5 15 1.22 1.61
-5 -3 15 1.02 1.21
-3 5 15 0.43 1.48
5 2 -15 9.52 1.83
-5 -2 -15 9.48 2
-2 5 -15 10.39 2.22
-2 5 15 5.63 1.82
2 -5 15 9.61 2.11
-5 -2 15 7.84 1.49
5 2 15 7.77 2.15
5 1 -15 9.73 1.79
-5 -1 -15 11.05 2.01
-1 5 -15 10.37 2.19
5 1 15 7.69 2.14
-5 -1 15 10.43 1.58
1 -5 15 8.73 1.94
-1 5 15 8.92 2.06
-5 0 -15 1.35 1.59
0 5 -15 -0.3 1.61
-5 0 15 -0.58 1.22
5 0 15 0.7 1.7
0 -5 15 -0.57 1.46
0 5 15 1.79 1.79
1 5 -15 2.01 1.72
-5 1 -15 1.5 1.7
-1 -5 15 0.29 1.34
-5 1 15 2.44 1.32
5 -1 15 2.76 1.83
1 5 15 -1.68 1.62
-5 2 -15 -0.27 1.62
2 5 -15 3.18 1.75
2 5 15 6.5 1.93
5 -2 15 -1.13 1.66
-5 2 15 4.45 1.39
-2 -5 15 0.05 1.31
3 5 -15 3.77 1.78
-5 3 -15 3.52 1.9
-3 -5 -15 4.63 1.5
-3 -5 15 4.16 1.45
5 -3 15 3.05 1.83
3 5 15 4.51 1.87
-5 3 15 2.93 1.44
-5 4 -15 0.39 1.84
4 5 -15 4.28 1.79
-4 -5 -15 3.89 1.48
5 -4 15 1.28 1.82
-5 4 15 4.65 1.54
4 5 15 3.08 1.82
-4 -5 15 0.33 1.31
5 5 -15 -0.33 1.69
-5 -5 -15 2.19 1.49
-5 5 -15 3.41 2.04
-5 -5 15 -1.05 1.14
-5 5 15 -0.61 1.51
5 5 15 -0.43 1.76
5 -5 15 -3.13 1.58
6 5 -15 -0.51 1.54
-6 -5 -15 0.14 1.52
-5 6 -15 0.22 1.76
-6 -5 15 -0.48 1
6 5 15 2.19 1.9
-5 6 15 -1.43 1.53
5 -6 15 0.35 1.68
-6 -4 -15 0.59 1.48
-4 6 -15 0.87 1.95
6 4 -15 1.55 1.55
4 -6 15 -0.88 1.72
-6 -4 15 -0.12 0.98
-4 6 15 -1.67 1.56
6 4 15 2.94 1.87
-6 -3 -15 1.63 1.67
-3 6 -15 -2.89 1.58
6 3 -15 0.52 1.53
-6 -3 15 0.65 1.06
-3 6 15 -0.07 1.6
3 -6 15 2.25 1.7
6 3 15 2.83 1.86
-6 -2 -15 4.8 1.77
6 2 -15 -1.56 1.38
-2 6 -15 5.53 2.03
2 -6 15 4.7 1.73
-2 6 15 2.97 1.81
-6 -2 15 3.43 1.14
6 2 15 1.03 1.82
6 1 -15 3.18 1.51
-1 6 -15 3.09 1.83
-6 -1 -15 2.61 1.77
6 1 15 5.15 1.98
-6 -1 15 3.69 1.19
-1 6 15 6.21 1.92
1 -6 15 4.09 1.72
0 6 -15 2.77 1.85
-6 0 -15 2.52 1.66
6 0 15 0.98 1.71
-6 0 15 0.84 1.19
0 6 15 1.91 1.81
0 -6 15 -0.11 1.57
1 6 -15 1.92 1.81
-6 1 -15 0.24 1.63
6 -1 15 -0.44 1.83
-1 -6 15 3.08 1.51
1 6 15 -0.42 1.71
-6 1 15 1.89 1.27
2 6 -15 0.62 1.78
-6 2 -15 1.18 1.81
-6 2 15 0.81 1.29
6 -2 15 0.58 1.77
-2 -6 15 1.14 1.41
2 6 15 4 2
-6 3 -15 5.96 2.07
3 6 -15 4.29 1.97
-3 -6 15 5.9 1.55
-6 3 15 5.75 1.49
6 -3 15 5.12 1.99
3 6 15 2.3 1.87
4 6 -15 4.17 1.84
-6 4 -15 3.11 2.01
-4 -6 15 2.19 1.33
6 -4 15 3.4 1.89
-6 4 15 2.04 1.42
4 6 15 1.28 1.85
-5 -6 -15 2.77 1.54
5 6 -15 1.79 1.8
-6 5 -15 -1.16 1.85
5 6 15 2.01 1.92
-5 -6 15 -1.39 1.15
-6 5 15 -0.57 1.47
6 -5 15 -1.05 1.9
6 6 -15 -0.17 1.62
-6 6 -15 1 2.09
-6 -6 -15 1.28 1.56
6 6 15 1.32 1.95
-6 6 15 -0.17 1.58
-6 -6 15 0.88 1.04
6 -6 15 0.28 1.91
7 6 -15 1.04 1.68
-6 7 -15 0.66 2.07
-7 -6 -15 4.4 1.83
-6 7 15 0.22 1.63
6 -7 15 -0.99 1.82
7 6 15 2.53 2.05
7 5 -15 -0.76 1.51
-5 7 -15 -1.52 1.94
-7 -5 -15 -1.17 1.6
5 -7 15 -0.26 1.89
7 5 15 -1.1 1.79
-5 7 15 -2.07 1.57
7 4 -15 -0.11 1.54
-4 7 -15 -0.84 1.89
-7 -4 -15 0.45 1.62
4 -7 15 -0.16 1.82
-4 7 15 0.88 1.74
7 4 15 0.58 1.9
-7 -4 15 -1.01 0.75
-3 7 -15 4.42 2.09
-7 -3 -15 -0.19 1.58
7 3 -15 -0.17 1.5
-7 -3 15 -0.16 0.83
-3 7 15 4.87 1.87
7 3 15 4.31 1.99
-7 -3 15 1.02 0.9
3 -7 15 0.29 1.8
-7 -2 -15 -1.48 1.52
7 2 -15 -3.42 1.3
-2 7 -15 -0.28 1.83
-7 -2 15 -1.27 0.97
2 -7 15 -1.11 1.65
-7 -2 15 -0.5 0.9
7 2 15 2.07 1.86
-2 7 15 2.43 1.89
-1 7 -15 -0.18 1.73
-7 -1 -15 -1.55 1.59
-1 7 15 -1.51 1.64
1 -7 15 -1.43 1.61
7 1 15 -0.34 1.77
-7 -1 15 -1.03 1.01
-7 0 -15 0.47 1.7
0 7 -15 -0.27 1.79
0 -7 15 -1.22 1.57
-7 0 15 -1.35 1.07
7 0 15 1 1.8
0 7 15 4.05 1.79
1 7 -15 2.04 1.9
-7 1 -15 -0.82 1.66
-1 -7 15 -2.26 1.28
7 -1 15 -0.13 1.78
-7 1 15 0.62 1.18
1 7 15 -0.9 1.62
-7 2 -15 -2.66 1.58
2 7 -15 1.65 1.86
7 -2 15 -0.1 1.8
-7 2 15 2.05 1.31
2 7 15 -0.1 1.77
-2 -7 15 -1.84 1.3
-7 3 -15 -0.36 1.85
3 7 -15 0.24 1.75
3 7 15 0.48 1.83
-3 -7 15 2.75 1.46
7 -3 15 -1.52 1.86
-7 3 15 1.1 1.33
4 7 -15 -0.31 1.71
-7 4 -15 -3.42 1.79
-4 -7 15 -0.19 1.28
-7 4 15 0.75 1.34
7 -4 15 -3.77 1.59
4 7 15 -0.45 1.83
5 7 -15 0.15 1.76
-7 5 -15 1.19 1.98
5 7 15 2.26 1.99
-5 -7 15 -0.18 1.21
-7 5 15 2.96 1.54
7 -5 15 1.99 1.9
-6 -7 -15 1.02 1.49
-7 6 -15 -0.98 2.01
6 7 -15 -1.19 1.7
7 -6 15 2.27 2.02
-7 6 15 0.36 1.53
-6 -7 15 1.18 1.13
6 7 15 2.07 2.04
-7 -7 -15 2.44 1.72
-7 7 -15 2.59 2.32
7 7 -15 1.57 1.85
-7 7 15 4.03 1.89
7 7 15 2.28 2.17
7 -7 15 4.88 2.18
8 7 -15 -1.33 1.81
-7 8 -15 4.74 2.4
-8 -7 -15 4.7 1.86
-7 8 15 3.33 1.88
7 -8 15 3.67 2.08
8 6 -15 1.28 1.8
-6 8 -15 1.32 2.16
-8 -6 -15 2.01 1.69
-6 8 15 -1.16 1.69
6 -8 15 0.9 1.91
-8 -5 -15 2.91 1.82
8 5 -15 -2.23 1.54
-5 8 -15 -1.75 1.79
5 -8 15 0.02 1.79
-5 8 15 0.24 1.74
8 5 15 3.55 2.12
8 4 -15 1.35 1.58
-8 -4 -15 -1.66 1.52
-4 8 -15 -0.56 2
8 4 15 0.75 2
4 -8 15 3.1 1.94
-4 8 15 1.17 1.82
-8 -3 -15 2.61 1.81
-3 8 -15 2.67 2.04
8 3 -15 2.62 1.55
3 -8 15 3.41 1.95
-3 8 15 1.5 1.84
8 3 15 -1.86 1.77
-2 8 -15 2.49 1.89
-8 -2 -15 -0.57 1.72
2 -8 15 1.37 1.75
8 2 15 0.78 1.88
-2 8 15 0.82 1.73
-8 -1 -15 1.15 1.75
-1 8 -15 1.24 1.98
-8 -1 15 -0.95 0.89
8 1 15 -1.55 1.8
-1 8 15 -0.89 1.8
1 -8 15 0.45 1.65
-8 -1 15 0.1 0.95
-8 0 -15 0.21 1.8
0 8 -15 -0.38 1.87
-8 0 15 1.19 1.05
8 0 15 0.04 1.81
0 8 15 1.06 1.87
0 -8 15 2.31 1.65
-8 1 -15 1.01 1.86
1 8 -15 3.38 1.99
8 -1 15 0.81 1.87
-1 -8 15 0.98 1.48
1 8 15 -0.74 1.72
-8 1 15 -1.8 1.08
2 8 -15 -1.13 1.76
-8 2 -15 -0.48 1.84
2 8 15 1.39 1.95
8 -2 15 -0.29 1.83
-8 2 15 0.47 1.26
-2 -8 15 2.19 1.51
3 8 -15 -1.8 1.7
-8 3 -15 0.26 1.92
8 -3 15 -1.12 1.8
-3 -8 15 -1.79 1.39
-8 3 15 -1.07 1.27
3 8 15 -2.72 1.66
-8 4 -15 1.45 1.85
4 8 -15 -1.39 1.78
-4 -8 15 -1.66 1.35
-8 4 15 2.91 1.45
8 -4 15 1.42 1.91
4 8 15 -2.75 1.78
5 8 -15 -1.9 1.76
-8 5 -15 -1.81 1.94
-8 5 15 0.03 1.38
5 8 15 2.21 2.03
-5 -8 15 0.77 1.26
8 -5 15 1.11 1.98
6 8 -15 0.46 1.9
-8 6 -15 1.58 1.96
-8 6 15 0.63 1.53
8 -6 15 -2.97 1.79
-6 -8 15 0.21 1.17
6 8 15 -5.57 1.77
-8 7 -15 5.01 2.36
7 8 -15 3.33 2.05
-7 -8 15 3.67 1.08
-8 7 15 0.84 1.61
8 -7 15 -0.37 2.06
-8 8 -15 3.11 2.31
-8 -8 -15 0.3 1.85
8 8 -15 7.48 2.21
-8 8 15 1.79 1.81
8 -8 15 1.96 2.1
9 7 -15 -0.88 1.84
-9 -7 -15 1.75 1.71
-7 9 -15 0.7 2.23
7 -9 15 -1.92 1.86
-7 9 15 0.1 1.86
-6 9 -15 -0.52 1.96
9 6 -15 -0.03 1.78
-9 -6 -15 2.57 1.9
6 -9 15 -1.15 1.78
-6 9 15 2.1 1.94
9 5 -15 -0.03 1.57
-5 9 -15 0.71 2.15
-9 -5 -15 1.84 1.8
-5 9 15 1.12 1.97
5 -9 15 0.94 1.84
-4 9 -15 -1.62 2.05
-9 -4 -15 -0.88 1.66
9 4 -15 -0.22 1.57
-4 9 15 1.41 1.94
4 -9 15 2.8 2.02
-3 9 -15 0.38 2.05
-9 -3 -15 2.91 1.85
3 -9 15 -0.18 1.68
9 3 15 1.26 2.02
-3 9 15 2.04 1.97
-9 -2 -15 2.86 1.86
-2 9 -15 2.58 1.95
9 2 15 -0.14 1.97
2 -9 15 3.14 1.88
-2 9 15 1.47 1.91
-1 9 -15 4.1 2.19
-9 -1 -15 1.55 1.82
9 1 15 0.46 1.94
-1 9 15 -0.3 1.79
1 -9 15 0.82 1.7
0 9 -15 -2.7 1.9
-9 0 -15 0.04 1.86
0 -9 15 1.58 1.67
9 0 15 -3 1.77
0 9 15 0.54 1.89
-9 0 15 -0.72 0.92
-9 1 -15 -0.22 1.88
1 9 -15 0.64 1.96
-1 -9 15 2.77 1.64
9 -1 15 2.07 2.05
-9 1 15 1.43 1.11
1 9 15 -0.05 1.89
2 9 -15 1.51 1.99
-9 2 -15 1.01 2.01
2 9 15 3.58 2.06
-2 -9 15 4.89 1.61
-9 2 15 2.12 1.23
9 -2 15 1.9 2.11
3 9 -15 0.79 1.91
-9 3 -15 -0.65 1.92
-3 -9 15 1.28 1.54
9 -3 15 0.64 1.95
-9 3 15 0.93 1.33
3 9 15 -0.39 1.83
4 9 -15 -0.66 1.87
-9 4 -15 1.33 2.04
-9 4 15 1.37 1.38
4 9 15 4.02 2.08
9 -4 15 1.26 2
-4 -9 15 2.06 1.5
5 9 -15 -0.27 2.05
-9 5 -15 3.04 2.19
-9 5 15 -1.66 1.4
-5 -9 15 -0.73 1.34
9 -5 15 1.7 2.14
5 9 15 1.05 1.96
6 9 -15 2.11 2.02
-9 6 -15 0.98 2.22
9 -6 15 -0.76 1.97
-6 -9 15 0.28 1.26
-9 6 15 -1.11 1.48
-9 7 -15 -0.31 2.19
7 9 -15 2.23 2.03
-7 -9 15 2.09 1.13
9 -7 15 1.24 2.1
-9 7 15 3.22 1.67
-5 10 -15 0.95 2.2
-10 -5 -15 0.99 1.9
10 5 -15 -2.5 1.45
5 -10 15 -2.17 1.82
-5 10 15 -0.73 1.89
-4 10 -15 -4.31 1.95
-10 -4 -15 0.9 1.85
10 4 -15 3.21 1.64
4 -10 15 0.83 1.83
-4 10 15 -2.23 1.72
-10 -3 -15 1.31 1.82
-3 10 -15 -1.66 2.05
3 -10 15 1.7 1.99
-3 10 15 1.46 2.09
-10 -2 -15 4.53 2.07
-2 10 -15 0.88 2.1
-2 10 15 -0.1 1.94
2 -10 15 3.33 1.93
-1 10 -15 1.04 2.21
-10 -1 -15 0.73 1.91
-1 10 15 3.44 2.01
1 -10 15 1.81 1.78
-10 0 -15 1.07 2
0 10 -15 2.77 2.27
0 -10 15 -0.5 1.67
0 10 15 1.12 1.96
1 10 -15 0.67 2.04
-10 1 -15 2.48 2.08
10 -1 15 0.42 2.07
1 10 15 3.66 2.11
-10 1 15 1.91 1.12
-1 -10 15 2.64 1.66
2 10 -15 3.73 2.2
-10 2 -15 1.81 1.94
2 10 15 3.58 2.15
-10 2 15 3.23 1.32
-2 -10 15 5.05 1.72
10 -2 15 2.7 2.17
-10 3 -15 2.37 2.2
3 10 -15 3.45 2.16
10 -3 15 2.84 2.17
-10 3 15 -1.47 1.3
3 10 15 0.71 2.01
-3 -10 15 3.95 1.67
4 10 -15 0.87 2.13
-10 4 -15 0.32 2.02
10 -4 15 -3.75 1.8
-4 -10 15 -1.68 1.5
-10 4 15 0.52 1.41
4 10 15 2.53 2.09
-10 5 -15 -2.73 2.02
5 10 -15 2.16 2.06
-5 -10 15 0.65 1.47
-10 5 15 0.94 1.54
10 -5 15 0.7 2.08
-3 11 -15 5.43 2.44
-11 -3 -15 -3.31 1.76
3 -11 15 -1.64 1.85
-3 11 15 -1.93 1.98
-2 11 -15 0.52 2.21
-11 -2 -15 -3.45 1.77
-2 11 15 1.38 2
2 -11 15 1.34 1.98
-11 -1 -15 -1.21 1.97
-1 11 -15 -1.74 2.15
1 -11 15 0.36 1.9
-1 11 15 -0.28 1.93
-11 0 -15 -2.33 1.95
0 11 -15 -0.24 2
0 -11 15 0.16 1.75
0 11 15 1.32 2.13
-11 1 -15 0.36 2.13
1 11 -15 1.96 2.23
1 11 15 4.22 2.1
-1 -11 15 1.35 1.71
-11 1 15 2.75 0.97
2 11 -15 4.59 2.27
-11 2 -15 -2.14 2.08
2 11 15 -2.57 1.85
-2 -11 15 3.22 1.77
-11 2 15 1.69 1.23
-11 3 -15 3.71 2.3
3 11 -15 -0.65 2.09
-11 3 15 2.78 1.38
-3 -11 15 3.68 1.78
3 11 15 1.46 2.2
0 0 -16 2.54 1.64
0 0 16 3.93 1.77
0 -1 -16 0.42 1.4
0 1 -16 -0.56 1.52
1 0 -16 2.82 1.53
-1 0 -16 4.19 1.64
0 1 16 -0.6 1.65
-1 0 16 -0.46 1.5
1 0 16 -1.78 1.64
0 -1 16 3.68 1.67
-1 1 -16 2.66 1.7
1 -1 -16 0.43 1.36
-1 -1 -16 2.21 1.53
1 1 -16 1 1.58
-1 1 16 4.05 1.7
-1 -1 16 1.39 1.64
1 -1 16 2.87 1.75
1 1 16 0.33 1.61
2 1 -16 -0.01 1.37
-1 2 -16 1.32 1.6
-2 -1 -16 -0.44 1.51
-1 2 16 2.43 1.7
-2 -1 16 0.13 1.44
2 1 16 0.08 1.63
1 -2 16 -3.11 1.55
0 2 -16 1.93 1.7
0 -2 -16 0.44 1.45
2 0 -16 -0.81 1.36
-2 0 -16 -2.28 1.48
0 -2 16 0.14 1.53
0 2 16 -0.8 1.63
2 0 16 -2.81 1.7
-2 0 16 -0.53 1.44
-1 -2 -16 -2.58 1.23
1 2 -16 -1.65 1.46
-2 1 -16 1.77 1.59
-1 -2 16 0.89 1.47
-2 1 16 1.08 1.56
2 -1 16 0.35 1.63
1 2 16 -0.21 1.74
-2 -2 -16 1.58 1.47
2 2 -16 0.2 1.46
-2 2 -16 1.28 1.72
2 2 16 -0.65 1.72
-2 2 16 0.23 1.65
-2 -2 16 -1.08 1.38
2 -2 16 0.98 1.72
3 2 -16 0.51 1.51
-2 3 -16 -0.85 1.66
-3 -2 -16 1.73 1.57
-3 -2 16 2.66 1.48
-2 3 16 0 1.57
2 -3 16 0.84 1.72
3 2 16 0.53 1.69
3 1 -16 3.05 1.54
-3 -1 -16 3.25 1.66
-1 3 -16 6.07 1.95
-1 3 16 2.67 1.81
1 -3 16 5.3 1.83
3 1 16 3.29 1.85
-3 -1 16 3.09 1.44
3 0 -16 -0.22 1.45
-3 0 -16 3.13 1.65
0 3 -16 -1.45 1.64
3 0 16 1.6 1.84
0 -3 16 -1.93 1.45
-3 0 16 1.02 1.39
0 3 16 -0.69 1.53
1 3 -16 1.25 1.66
-3 1 -16 -0.11 1.58
3 -1 16 1.86 1.85
-3 1 16 -1.84 1.35
-1 -3 16 -0.24 1.45
1 3 16 -0.71 1.6
-3 2 -16 0.28 1.67
-2 -3 -16 -0.63 1.37
2 3 -16 -0.88 1.45
2 3 16 0.93 1.8
3 -2 16 3.35 1.88
-2 -3 16 1.17 1.39
-3 2 16 -0.72 1.41
-3 3 -16 0.76 1.74
-3 -3 -16 0.04 1.44
3 3 -16 -0.63 1.42
-3 -3 16 0.56 1.47
3 -3 16 -0.94 1.68
-3 3 16 0.43 1.62
3 3 16 0.46 1.79
-4 -3 -16 1.82 1.58
-3 4 -16 0.85 1.78
4 3 -16 3.41 1.6
4 3 16 -0.27 1.76
3 -4 16 -0.15 1.61
-4 -3 16 1.63 1.39
-3 4 16 -1.53 1.48
-2 4 -16 8.77 2.11
-4 -2 -16 4.44 1.67
4 2 -16 3.13 1.68
2 -4 16 2.27 1.83
-4 -2 16 7.62 1.62
4 2 16 2.01 1.88
-2 4 16 4.64 1.91
-4 -1 -16 11.66 2.04
-1 4 -16 4.2 1.93
4 1 -16 4.91 1.65
-1 4 16 6.29 2
1 -4 16 4.72 1.84
4 1 16 6.84 2.05
-4 -1 16 4.68 1.59
0 4 -16 1.21 1.77
-4 0 -16 -0.45 1.66
0 4 16 -1.86 1.71
0 -4 16 0.77 1.63
4 0 16 0.47 1.86
-4 0 16 -0.51 1.41
1 4 -16 -1.09 1.66
-4 1 -16 -1.74 1.71
-4 1 16 -0.11 1.34
4 -1 16 2.06 1.87
1 4 16 -1.91 1.62
-1 -4 16 2.68 1.57
2 4 -16 3.55 1.7
-4 2 -16 1.88 1.77
4 -2 16 0.54 1.73
-4 2 16 2.09 1.45
-2 -4 16 2.18 1.49
2 4 16 1.45 1.93
-3 -4 -16 1.11 1.4
3 4 -16 1.54 1.66
-4 3 -16 -1.33 1.66
3 4 16 0.47 1.74
-3 -4 16 -0.15 1.42
-4 3 16 -0.97 1.29
4 -3 16 -0.03 1.83
-4 -4 -16 -2.01 1.4
4 4 -16 0.43 1.63
-4 4 -16 1.41 1.84
4 -4 16 0.02 1.72
-4 -4 16 -0.56 1.33
-4 4 16 -0.07 1.5
4 4 16 0.61 1.79
5 4 -16 -0.2 1.6
-5 -4 -16 0.28 1.52
-4 5 -16 1.09 1.97
5 4 16 1.83 1.89
-5 -4 16 -0.05 1.19
-4 5 16 0.55 1.63
4 -5 16 0.47 1.83
-3 5 -16 3.46 1.99
-5 -3 -16 0.91 1.58
5 3 -16 1.16 1.57
5 3 16 -0.11 1.78
-3 5 16 3.62 1.82
-5 -3 16 2.33 1.28
3 -5 16 2.83 1.94
-2 5 -16 4.39 1.97
5 2 -16 3.75 1.67
-5 -2 -16 5.71 1.84
-2 5 16 2.65 1.8
5 2 16 1.19 1.89
2 -5 16 2.63 1.82
-5 -2 16 3.45 1.37
-5 -1 -16 6.82 1.95
-1 5 -16 7.15 2.13
5 1 16 2.2 1.99
-1 5 16 4.63 1.87
1 -5 16 6.91 2.03
-5 -1 16 3.37 1.42
0 5 -16 5.05 1.86
-5 0 -16 0.39 1.64
0 5 16 2.56 1.79
-5 0 16 1.97 1.38
5 0 16 6.38 1.98
0 -5 16 1.24 1.55
1 5 -16 0.63 1.69
-5 1 -16 -3.79 1.54
5 -1 16 1.23 1.89
-1 -5 16 -0.62 1.42
1 5 16 -0.64 1.71
-5 1 16 1.08 1.28
-5 2 -16 1.09 1.85
2 5 -16 2.4 1.75
-2 -5 16 2.56 1.54
2 5 16 3.23 1.91
5 -2 16 1.06 1.83
-5 2 16 1.54 1.4
-5 3 -16 6.32 2.05
3 5 -16 4.02 1.89
3 5 16 2.41 2.06
-5 3 16 2.11 1.46
5 -3 16 3.49 1.9
-3 -5 16 2.79 1.53
4 5 -16 -0.06 1.58
-5 4 -16 -0.32 1.68
4 5 16 -0.39 1.8
-5 4 16 2.88 1.57
-4 -5 16 -0.11 1.32
5 -4 16 1.78 1.87
5 5 -16 1.85 1.74
-5 -5 -16 1.73 1.52
-5 5 -16 3.43 2.1
-5 5 16 -0.89 1.58
5 5 16 -1.48 1.79
-5 -5 16 -0.18 1.22
5 -5 16 2.56 2.05
-5 6 -16 1.2 2.07
-6 -5 -16 -1.08 1.44
6 5 -16 -1.88 1.59
6 5 16 0.75 1.9
-5 6 16 -1.1 1.57
-6 -5 16 0.23 1.1
5 -6 16 0.06 1.9
6 4 -16 1.39 1.7
-4 6 -16 2.24 2.04
-6 -4 -16 -1.05 1.58
-4 6 16 0.38 1.65
6 4 16 -1.89 1.93
-6 -4 16 0.72 1.09
4 -6 16 -1.1 1.66
6 3 -16 0.64 1.53
-3 6 -16 0.17 1.95
-6 -3 -16 1.77 1.71
-6 -3 16 0.2 1.09
6 3 16 -1.03 1.86
-3 6 16 -0.84 1.73
3 -6 16 -0.23 1.81
6 2 -16 -0.97 1.41
-6 -2 -16 -2.04 1.52
-2 6 -16 -2.56 1.8
-6 -2 16 0.83 1.16
6 2 16 2.57 1.94
-2 6 16 1.65 1.74
2 -6 16 0.92 1.79
-1 6 -16 0.86 1.81
-6 -1 -16 -1.23 1.74
6 1 16 4.52 1.99
-6 -1 16 2.68 1.23
-1 6 16 0.2 1.81
1 -6 16 2.05 1.73
0 6 -16 4.59 1.91
-6 0 -16 -1.63 1.63
0 6 16 2.57 1.96
-6 0 16 2.14 1.33
0 -6 16 3.25 1.76
6 0 16 -0.35 1.77
1 6 -16 -1 1.72
-6 1 -16 0.67 1.74
-1 -6 16 -0.38 1.48
6 -1 16 -2.26 1.69
1 6 16 0.48 1.94
-6 1 16 -1.83 1.21
2 6 -16 2.09 1.89
-6 2 -16 -0.42 1.74
-6 2 16 2.16 1.37
6 -2 16 -0.33 1.74
-2 -6 16 1.24 1.43
2 6 16 0.68 1.79
-6 3 -16 1.64 1.94
3 6 -16 4.67 1.92
-3 -6 16 5.18 1.58
6 -3 16 3.14 1.91
3 6 16 1.33 1.95
-6 3 16 2.27 1.47
4 6 -16 -0.14 1.67
-6 4 -16 3.71 1.88
-4 -6 16 2.29 1.48
-6 4 16 1.82 1.48
6 -4 16 1.26 1.91
4 6 16 4.29 2.07
-6 5 -16 1.47 2.07
5 6 -16 0.6 1.71
5 6 16 -4.86 1.76
6 -5 16 4.5 2.06
-5 -6 16 0.39 1.26
-6 5 16 -1.06 1.48
-6 -6 -16 1.44 1.63
-6 6 -16 1.39 1.9
6 6 -16 -1.69 1.64
-6 6 16 1.22 1.6
6 -6 16 -2.65 1.79
-6 -6 16 1.04 1.13
6 6 16 -2.15 1.84
-7 -6 -16 4.06 1.72
7 6 -16 -1.06 1.72
-6 7 -16 1.58 2.27
6 -7 16 2.12 1.96
7 6 16 -4.73 1.84
-6 7 16 -0.67 1.68
7 5 -16 2.91 1.83
-7 -5 -16 -0.48 1.72
-5 7 -16 0.93 2.14
7 5 16 -4.58 1.73
-5 7 16 1.08 1.9
5 -7 16 3.18 2.06
7 4 -16 -0.01 1.64
-4 7 -16 -1.2 1.97
-7 -4 -16 1.81 1.59
-7 -4 16 -1.51 0.82
4 -7 16 -0.09 1.77
-4 7 16 -1.24 1.71
7 4 16 2.01 2.03
-7 -3 -16 -2.05 1.71
7 3 -16 -0.54 1.52
-3 7 -16 0.87 2.05
-3 7 16 -0.64 1.8
-7 -3 16 -0.16 0.92
7 3 16 -2.09 1.8
3 -7 16 -1.59 1.81
-2 7 -16 2.13 2
-7 -2 -16 0.63 1.8
-7 -2 16 -1.43 0.96
-2 7 16 0.14 1.9
2 -7 16 -1.01 1.67
7 2 16 -0.33 1.87
-7 -1 -16 -0.29 1.69
-1 7 -16 -0.67 1.88
-1 7 16 -0.28 1.85
1 -7 16 -1.16 1.64
-7 -1 16 1.49 1.1
7 1 16 -0.31 1.95
-7 0 -16 -3.73 1.61
0 7 -16 3.55 2.02
0 -7 16 -1.3 1.54
-7 0 16 -1.08 1.14
7 0 16 -2.36 1.71
0 7 16 0.69 1.93
1 7 -16 -0.73 1.79
-7 1 -16 2.16 1.92
1 7 16 1.56 1.93
-7 1 16 -1.56 1.2
-1 -7 16 1.67 1.51
7 -1 16 0.03 1.95
-7 2 -16 1.61 1.91
2 7 -16 2.71 2.02
-2 -7 16 3.12 1.59
2 7 16 2.56 2.02
-7 2 16 0.99 1.36
7 -2 16 1.37 1.93
-7 3 -16 -0.7 1.9
3 7 -16 0.27 1.85
-7 3 16 0.37 1.41
-3 -7 16 1.57 1.55
3 7 16 2.97 2.03
7 -3 16 2.25 1.98
4 7 -16 2.14 1.91
-7 4 -16 2.63 2.06
-7 4 16 1.9 1.51
-4 -7 16 0.23 1.43
7 -4 16 0.61 1.96
4 7 16 3.23 2.03
5 7 -16 2.42 1.88
-7 5 -16 1.66 2.08
7 -5 16 -1.5 1.85
-7 5 16 0.51 1.52
5 7 16 0.92 1.92
-5 -7 16 -1.85 1.28
6 7 -16 1.46 1.96
-7 6 -16 -2 1.81
-7 6 16 0.29 1.6
6 7 16 1.78 2.15
7 -6 16 0.28 1.93
-6 -7 16 0.81 1.18
7 7 -16 5.7 2.17
-7 7 -16 -0.55 2.25
7 -7 16 2.24 2.07
-7 7 16 2.17 1.87
8 6 -16 1.62 1.74
-8 -6 -16 -2.44 1.65
-6 8 -16 4.7 2.23
-6 8 16 2.55 1.92
6 -8 16 2 2
8 5 -16 0.28 1.64
-8 -5 -16 -3.2 1.62
-5 8 -16 0.12 2.16
5 -8 16 -0.71 2.02
-5 8 16 -1.92 1.75
-4 8 -16 3.71 2.33
8 4 -16 -0.69 1.62
-8 -4 -16 0.18 1.62
-4 8 16 0.41 1.85
8 4 16 -1.37 1.9
4 -8 16 0.87 2.06
-8 -3 -16 -1.75 1.78
-3 8 -16 4.27 2.24
-3 8 16 1.75 2.02
3 -8 16 1.72 1.98
8 3 16 4.62 2.21
-8 -2 -16 -1.82 1.68
-2 8 -16 2.52 2.08
2 -8 16 0.88 1.86
-2 8 16 5.08 2
8 2 16 -0.31 1.98
-8 -1 -16 -0.86 1.8
-1 8 -16 -2.24 1.81
-1 8 16 0.15 1.85
-8 -1 16 -0.77 0.93
1 -8 16 -1.4 1.72
8 1 16 -0.28 1.89
-8 0 -16 -1.29 1.78
0 8 -16 0.07 1.96
0 8 16 2.01 2.06
8 0 16 -2.57 1.77
0 -8 16 2.24 1.67
-8 0 16 -0.11 1.08
1 8 -16 -2.98 1.88
-8 1 -16 -0.38 1.78
1 8 16 -0.05 1.95
-1 -8 16 -1.14 1.57
8 -1 16 0.09 1.91
-8 1 16 0.1 1.19
2 8 -16 -1.34 1.76
-8 2 -16 -1.1 1.8
-8 2 16 0.6 1.3
2 8 16 1.4 1.9
8 -2 16 0.74 1.98
-2 -8 16 -2.62 1.42
-8 3 -16 2.13 2.04
3 8 -16 -1.25 1.86
-3 -8 16 0.62 1.53
-8 3 16 0.26 1.38
3 8 16 0.84 1.96
8 -3 16 2.41 2.09
-8 4 -16 0.75 2.12
4 8 -16 2.82 2.04
-8 4 16 -0.16 1.48
-4 -8 16 2.11 1.48
4 8 16 3.12 2.13
8 -4 16 -1.59 1.87
-8 5 -16 2.52 2.21
5 8 -16 -0.42 1.9
-8 5 16 -1.04 1.46
8 -5 16 -1.3 1.94
-5 -8 16 0.2 1.31
5 8 16 3.77 2.18
-8 6 -16 -0.65 1.98
6 8 -16 0.95 1.92
-6 -8 16 0.1 1.19
6 8 16 2.02 2.16
8 -6 16 3.48 2.19
-8 6 16 0.42 1.54
-4 9 -16 1.23 2.28
-9 -4 -16 -0.82 1.86
-4 9 16 0.25 1.95
4 -9 16 -0.39 1.97
-9 -3 -16 3.38 1.93
-3 9 -16 3.29 2.3
3 -9 16 1.45 1.99
-3 9 16 -0.61 1.99
-2 9 -16 3.84 2.3
-9 -2 -16 0.95 1.94
2 -9 16 2.58 1.94
9 2 16 0.6 2.07
-2 9 16 0.56 1.94
-1 9 -16 -1.89 1.96
-9 -1 -16 1.5 1.9
-1 9 16 2.07 1.9
9 1 16 -1.08 2.01
1 -9 16 0.86 1.84
0 9 -16 -3.06 1.87
-9 0 -16 -0.23 1.87
0 -9 16 -0.33 1.8
-9 0 16 0.96 0.98
9 0 16 0.88 2.08
0 9 16 2.09 2.04
-9 1 -16 3.14 2.02
1 9 -16 6.4 2.31
-1 -9 16 0.27 1.72
9 -1 16 4.13 2.16
-9 1 16 0.86 1.15
1 9 16 1.38 2.05
-9 2 -16 0.41 2.05
2 9 -16 3.4 2.14
-2 -9 16 -0.44 1.61
-9 2 16 2.96 1.33
9 -2 16 2.61 2.12
2 9 16 4.91 2.2
3 9 -16 0.21 1.95
-9 3 -16 1.92 2.1
-3 -9 16 2.27 1.62
9 -3 16 1.31 2.11
-9 3 16 1.02 1.32
3 9 16 2.68 2.08
-9 4 -16 1.68 2.23
4 9 -16 1.32 2.14
-9 4 16 2.66 1.46
-4 -9 16 -1.54 1.45
9 -4 16 -0.59 2.05
4 9 16 0.87 2.02
-2 10 -16 -0.56 2.19
-10 -2 -16 -1.01 1.95
-1 10 -16 1.69 2.18
-10 -1 -16 -1.17 1.94
-1 10 16 2.11 2.05
1 -10 16 -1.84 1.76
-10 0 -16 -0.8 1.97
0 10 -16 0.57 2.13
0 10 16 1.03 1.96
0 -10 16 -0.47 1.71
1 10 -16 -1.4 2.13
-10 1 -16 4.35 2.22
1 10 16 -0.48 2.19
-10 1 16 2.39 1.13
-1 -10 16 -0.49 1.73
2 10 -16 0.27 2.09
-10 2 -16 -1.33 2
0 0 -17 0.41 1.6
0 0 17 4.07 1.9
0 1 -17 1.83 1.63
0 -1 -17 3.27 1.63
1 0 -17 4.51 1.66
-1 0 -17 1.75 1.63
1 0 17 4.52 1.9
0 1 17 2.42 1.82
-1 0 17 2.37 1.73
0 -1 17 -1.04 1.68
1 1 -17 -1.22 1.57
-1 -1 -17 0.68 1.51
-1 1 -17 1 1.67
-1 1 17 1.35 1.7
-1 -1 17 -1.61 1.6
1 1 17 -3.22 1.7
1 -1 17 -0.92 1.69
-2 -1 -17 0.33 1.43
2 1 -17 0.54 1.53
-1 2 -17 -1.6 1.54
-1 2 17 0.55 1.71
2 1 17 -1.19 1.77
-2 -1 17 1.78 1.59
1 -2 17 2.97 1.81
-2 0 -17 0.91 1.71
0 2 -17 -1.2 1.54
0 -2 17 -0.46 1.62
-2 0 17 1.72 1.56
2 0 17 -1.11 1.77
0 2 17 -0.76 1.7
-2 1 -17 -0.39 1.63
1 2 -17 -0.57 1.6
2 -1 17 0.37 1.8
-1 -2 17 -0.19 1.61
-2 1 17 0.85 1.54
1 2 17 -1.06 1.73
-2 2 -17 0.53 1.64
2 2 -17 0.5 1.61
-2 -2 -17 0.14 1.46
2 2 17 -2.57 1.79
2 -2 17 -0.65 1.71
-2 -2 17 -3.32 1.35
-2 2 17 1.33 1.69
-2 3 -17 -0.13 1.75
-3 -2 -17 1.32 1.63
3 2 -17 4.15 1.75
2 -3 17 -0.57 1.71
-2 3 17 0.46 1.69
3 2 17 2.13 1.91
-3 -2 17 0.65 1.48
3 1 -17 2.03 1.62
-1 3 -17 3.74 1.86
-3 -1 -17 2.22 1.58
3 1 17 1.4 1.92
-3 -1 17 0.12 1.43
1 -3 17 1.99 1.83
-1 3 17 2.2 1.8
-3 0 -17 0.12 1.61
0 3 -17 1.99 1.82
-3 0 17 0.63 1.48
0 3 17 -0.58 1.74
3 0 17 0.66 1.89
0 -3 17 2.11 1.69
1 3 -17 1.19 1.72
-3 1 -17 0.03 1.59
3 -1 17 0.85 1.69
-3 1 17 -0.58 1.48
1 3 17 -0.97 1.84
-1 -3 17 -2.4 1.47
2 3 -17 0.9 1.71
-3 2 -17 -0.93 1.77
3 -2 17 1.73 1.92
-2 -3 17 -0.61 1.44
2 3 17 -1.65 1.84
-3 2 17 1.68 1.65
-3 3 -17 4.3 1.96
3 3 -17 1.4 1.56
-3 -3 -17 -0.59 1.47
3 3 17 -1.63 1.75
-3 3 17 0.94 1.64
-3 -3 17 1.46 1.5
3 -3 17 0.34 1.76
-3 4 -17 1.07 1.9
-4 -3 -17 -0.08 1.58
4 3 -17 1.52 1.69
-3 4 17 1.64 1.77
4 3 17 2.79 1.95
-4 -3 17 1.58 1.52
3 -4 17 3.39 1.83
4 2 -17 3.82 1.7
-4 -2 -17 4.19 1.79
-2 4 -17 2.81 1.9
-4 -2 17 3.28 1.55
2 -4 17 5.91 2.04
-2 4 17 4.37 1.87
4 2 17 3.43 2.1
-4 -1 -17 -0.18 1.65
-1 4 -17 2.1 1.84
-1 4 17 -0.86 1.81
1 -4 17 3.55 1.82
4 1 17 -0.07 1.86
-4 -1 17 1.22 1.49
-4 0 -17 0.35 1.62
0 4 -17 2.95 1.85
-4 0 17 1.87 1.55
0 -4 17 2.52 1.81
0 4 17 -0.24 1.85
4 0 17 1.33 1.99
-4 1 -17 3.42 1.79
1 4 -17 0.94 1.8
4 -1 17 -0.86 1.73
-4 1 17 -0.37 1.44
1 4 17 1.57 1.89
-1 -4 17 2.31 1.65
2 4 -17 1.47 1.65
-4 2 -17 2.09 1.87
-2 -4 17 1.13 1.49
2 4 17 -1.37 1.72
4 -2 17 1.38 1.88
-4 2 17 3.36 1.57
3 4 -17 -0.16 1.71
-4 3 -17 2.33 2.05
-4 3 17 1.17 1.57
-3 -4 17 1.04 1.52
4 -3 17 2.76 2.05
3 4 17 -0.94 1.82
-4 4 -17 -0.14 1.91
4 4 -17 2.2 1.68
4 -4 17 0.49 1.84
4 4 17 -1.05 1.84
-4 4 17 1.38 1.66
-4 -4 17 -0.65 1.44
-4 5 -17 -0.79 1.94
5 4 -17 0.27 1.69
-5 -4 -17 -2.4 1.5
4 -5 17 1.51 1.98
-5 -4 17 0.7 1.33
5 4 17 -1.25 1.84
-4 5 17 -1.37 1.77
-3 5 -17 0.82 2.06
5 3 -17 0.76 1.64
-5 -3 -17 0.3 1.51
-3 5 17 -0.26 1.76
3 -5 17 -0.28 1.76
-5 -3 17 -0.19 1.33
5 3 17 -2.33 1.79
-2 5 -17 -0.71 1.86
-5 -2 -17 2.6 1.81
-2 5 17 -2.79 1.66
-5 -2 17 4.22 1.53
5 2 17 2.36 1.96
2 -5 17 3.99 1.93
-1 5 -17 -0.64 1.81
-5 -1 -17 2.38 1.83
-1 5 17 2.53 1.94
1 -5 17 2.47 1.91
5 1 17 1.96 1.97
-5 -1 17 1.31 1.42
-5 0 -17 2.68 1.79
0 5 -17 1.59 1.91
0 5 17 0.1 1.99
-5 0 17 2.73 1.49
0 -5 17 2.8 1.72
5 0 17 -0.66 1.89
-5 1 -17 1.03 1.81
1 5 -17 -0.18 1.81
-1 -5 17 0.32 1.44
5 -1 17 -0.06 1.77
-5 1 17 -0.61 1.29
1 5 17 1.35 2.01
-5 2 -17 2.79 2.04
2 5 -17 1.63 1.8
-5 2 17 0.89 1.46
-2 -5 17 0.54 1.58
2 5 17 3.94 2.03
5 -2 17 1.37 1.91
-5 3 -17 3.71 2.02
3 5 -17 1.21 1.92
-3 -5 17 1.63 1.58
3 5 17 3.4 2.2
5 -3 17 -0.38 1.87
-5 3 17 0.11 1.49
-5 4 -17 2.55 2.05
4 5 -17 -0.41 1.73
-4 -5 17 1.5 1.53
4 5 17 -0.88 1.98
5 -4 17 1.99 2.08
-5 4 17 -2.11 1.46
-5 5 -17 -2.01 1.99
5 5 -17 0.83 1.68
5 5 17 -1.56 1.95
-5 -5 17 -0.85 1.29
-5 5 17 -0.61 1.54
5 -5 17 -2.25 1.77
-5 6 -17 0.29 2.12
6 5 -17 3.49 1.82
-6 -5 -17 -0.34 1.62
-5 6 17 1.08 1.86
5 -6 17 0.61 2.12
-6 -5 17 -1.28 1.09
6 5 17 -1.09 1.93
-6 -4 -17 -1.28 1.59
-4 6 -17 2.16 2.1
6 4 -17 -0.32 1.66
-6 -4 17 1.71 1.17
6 4 17 -0.13 1.89
-4 6 17 2.65 1.85
4 -6 17 -1.49 1.77
-3 6 -17 2.44 2.14
-6 -3 -17 -1.04 1.54
-6 -3 17 -0.04 1.23
3 -6 17 -0.09 1.91
-3 6 17 3.15 1.97
6 3 17 -1.53 1.93
-6 -2 -17 2.11 1.91
-2 6 -17 0.87 2.01
6 2 17 -0.4 1.91
2 -6 17 1.36 1.84
-2 6 17 -0.01 1.78
-6 -2 17 0.19 1.23
-6 -1 -17 -0.28 1.7
-1 6 -17 3.14 2.05
1 -6 17 -0.01 1.73
-6 -1 17 0.22 1.21
-1 6 17 1.01 1.89
6 1 17 4.46 2.08
0 6 -17 -2.78 1.83
-6 0 -17 -0.31 1.76
-6 0 17 -0.72 1.29
6 0 17 0.49 1.96
0 6 17 3.36 1.91
0 -6 17 0.29 1.71
-6 1 -17 -1.05 1.72
1 6 -17 0.51 1.87
-1 -6 17 0.24 1.63
1 6 17 -2.81 1.78
6 -1 17 4.57 2.05
-6 1 17 -0.25 1.43
-6 2 -17 3.16 1.98
2 6 -17 5.01 2.19
-2 -6 17 2.11 1.67
2 6 17 3.11 2.17
6 -2 17 -0.7 1.94
-6 2 17 1.32 1.44
-6 3 -17 0.43 1.95
3 6 -17 0.95 1.89
6 -3 17 5.32 2.15
3 6 17 2.41 2.1
-3 -6 17 2.19 1.62
-6 3 17 4.31 1.67
-6 4 -17 1.69 2.14
4 6 -17 3.27 1.92
4 6 17 5.14 2.22
6 -4 17 2.41 2.18
-4 -6 17 1.49 1.55
-6 4 17 3.27 1.66
-6 5 -17 1.42 2.12
5 6 -17 1.63 1.84
5 6 17 2.44 2.11
-5 -6 17 1.11 1.38
-6 5 17 1.72 1.69
6 -5 17 0.06 2.05
-6 6 -17 0.94 2.16
6 6 -17 -2.5 1.83
-6 -6 17 0.43 1.17
6 -6 17 2.25 2.09
6 6 17 1.84 2.17
-7 -5 -17 -0.25 1.74
-5 7 -17 3.27 2.32
-7 -4 -17 -2.25 1.64
7 4 -17 1.59 1.75
-4 7 -17 -2.72 2.01
-7 -4 17 -1.14 0.89
4 -7 17 -0.2 2.03
-4 7 17 0.4 1.93
7 4 17 3.45 2.26
-3 7 -17 0.74 2.08
-7 -3 -17 2.8 1.95
7 3 17 -2.72 1.86
-3 7 17 -2.02 1.8
-7 -3 17 -2.18 0.94
3 -7 17 1.33 2.01
-7 -2 -17 -1.87 1.63
-2 7 -17 -1.57 1.98
2 -7 17 2.83 1.98
7 2 17 -0.8 1.97
-7 -2 17 0.36 1.11
-2 7 17 -2.35 1.83
-7 -1 -17 1.4 1.8
-1 7 -17 -1.46 1.9
7 1 17 -0.79 1.93
1 -7 17 2.24 1.95
-7 -1 17 2 1.16
-1 7 17 -0.94 1.8
0 7 -17 1.58 1.94
-7 0 -17 2.29 1.9
0 7 17 -0.7 1.98
0 -7 17 1.31 1.75
7 0 17 -0.48 1.96
-7 0 17 1.11 1.26
-7 1 -17 -1.45 1.85
1 7 -17 -1.91 1.86
7 -1 17 -2.13 1.99
-1 -7 17 -0.12 1.66
1 7 17 1.48 1.91
-7 1 17 -0.5 1.3
-7 2 -17 -1.97 1.83
2 7 -17 2.31 2.01
-7 2 17 1.76 1.49
-2 -7 17 2.68 1.69
2 7 17 2.25 2.21
7 -2 17 1.4 2.06
3 7 -17 4.27 2.08
-7 3 -17 3.76 2.19
3 7 17 2.52 2.09
-3 -7 17 3.61 1.67
-7 3 17 2.86 1.56
7 -3 17 -1.24 1.94
-7 4 -17 1.27 2.07
4 7 -17 -2.56 1.73
-4 -7 17 -0.49 1.49
4 7 17 -1.47 2.07
7 -4 17 1.98 2.07
-7 4 17 -1.46 1.47
-7 5 -17 2.3 2.21
-3 8 -17 1.17 2.22
-8 -3 -17 -0.18 1.87
8 3 17 2.31 2.18
-2 8 -17 1.37 2.09
-8 -2 -17 -0.05 1.88
-2 8 17 0.73 2.02
2 -8 17 0.97 1.93
8 2 17 2.98 2.21
-1 8 -17 -0.18 2.03
-8 -1 -17 0.85 1.89
8 1 17 1.34 2.19
-1 8 17 2.82 2.23
-8 -1 17 1.02 1.04
1 -8 17 -0.34 1.84
0 8 -17 2.95 2.09
-8 0 -17 2.19 2
0 -8 17 0.29 1.83
0 8 17 -1.05 1.93
8 0 17 -0.34 1.98
-8 0 17 0.45 1.13
-8 1 -17 2.9 2.11
1 8 -17 -2.7 1.97
-8 1 17 -0.61 1.25
1 8 17 -0.45 2.1
-1 -8 17 -1.72 1.64
8 -1 17 -0.21 2.15
-8 2 -17 -0.13 1.9
2 8 -17 0.83 2.02
2 8 17 -1.79 1.88
8 -2 17 -0.13 2.02
-2 -8 17 2.53 1.73
-8 2 17 0.08 1.32
3 8 -17 2.39 2.01
-8 3 -17 0.28 1.98
0 0 -18 2.4 1.74
0 0 18 4.18 2.02
0 1 -18 2.23 1.79
-1 0 -18 0.56 1.7
0 1 18 2.76 1.93
-1 0 18 2.76 1.94
0 -1 18 2.77 1.94
1 0 18 2.28 1.97
1 1 -18 4.15 1.82
-1 1 -18 2.58 1.85
-1 1 18 2.63 1.97
1 1 18 2.55 1.99
1 -1 18 -0.49 1.92
-1 -1 18 2.1 1.84
-2 -1 -18 0.38 1.57
-1 2 -18 -0.11 1.82
-2 -1 18 1.1 1.64
-1 2 18 -1.2 1.8
1 -2 18 3.92 2
2 1 18 -0.52 1.92
-2 0 -18 0.5 1.75
0 2 -18 -1.11 1.64
0 2 18 1.72 1.94
-2 0 18 1.67 1.71
2 0 18 3.05 1.9
0 -2 18 0.75 1.83
1 2 -18 0.91 1.76
-2 1 -18 1.93 1.7
2 -1 18 -2.45 1.82
-1 -2 18 -1.52 1.57
-2 1 18 2.34 1.8
1 2 18 3.33 1.95
-2 2 -18 1.61 1.94
2 2 -18 -1.61 1.65
2 -2 18 0.94 1.82
-2 2 18 -1.98 1.64
2 2 18 -0.82 1.81
-2 -2 18 3.73 1.75
-2 3 -18 -3.35 1.68
3 2 -18 -2.33 1.61
-3 -2 -18 -0.53 1.55
-2 3 18 0.41 1.89
-3 -2 18 1.45 1.64
2 -3 18 3.92 2.06
3 2 18 -1.03 1.96
-1 3 -18 0.85 1.88
-3 -1 -18 3.73 1.79
3 1 18 1.87 1.99
-1 3 18 -2.9 1.81
1 -3 18 1.01 1.84
-3 -1 18 -2.28 1.48
0 3 -18 2.14 1.8
-3 0 -18 0.06 1.62
-3 0 18 0.78 1.6
3 0 18 0.33 1.89
0 -3 18 -0.9 1.77
0 3 18 3.13 2
1 3 -18 3.03 1.87
-3 1 -18 -0.2 1.68
-1 -3 18 0.33 1.69
3 -1 18 2.35 2.07
1 3 18 2.29 2.04
-3 1 18 -0.99 1.6
2 3 -18 1.59 1.82
-3 2 -18 -3.56 1.62
-2 -3 18 -1.45 1.65
2 3 18 1.25 1.93
3 -2 18 -1.04 1.91
-3 2 18 -2.72 1.55
-3 3 -18 -2.07 1.8
3 3 -18 -3.76 1.47
-3 3 18 4.53 1.88
3 -3 18 0.14 1.89
-3 -3 18 0.11 1.63
3 3 18 -2.38 1.98
-3 4 -18 1.24 2.13
4 3 -18 4.36 1.84
4 3 18 0.87 1.98
3 -4 18 -0.04 1.97
-4 -3 18 0.25 1.49
-3 4 18 1.41 1.79
-4 -2 -18 -1.19 1.63
-2 4 -18 -2.04 1.84
2 -4 18 5.81 2.12
-2 4 18 1.2 1.83
4 2 18 0.85 2
-4 -2 18 -0.58 1.49
-4 -1 -18 1.19 1.81
-1 4 -18 1.31 2.01
-1 4 18 -0.86 1.89
4 1 18 5.38 2.24
1 -4 18 2.08 1.95
-4 -1 18 0.57 1.61
0 4 -18 2.44 1.91
-4 0 -18 0.15 1.68
-4 0 18 2.67 1.6
0 4 18 1.11 2.02
0 -4 18 2.8 1.87
4 0 18 -1.33 1.99
1 4 -18 3.16 1.98
-4 1 -18 -1.3 1.69
-1 -4 18 1.97 1.73
1 4 18 0.61 2.01
-4 1 18 0.47 1.56
4 -1 18 -3.37 1.91
2 4 -18 -2.17 1.73
-4 2 -18 0.01 1.91
2 4 18 3.29 2.14
4 -2 18 1.54 2.04
-2 -4 18 -2.07 1.6
-4 2 18 -0.26 1.5
3 4 -18 3.4 1.91
-4 3 -18 0.02 1.88
3 4 18 0.33 1.95
-4 3 18 1.65 1.71
-3 -4 18 1.06 1.69
4 -3 18 -1.88 1.82
-4 4 -18 -5.56 1.67
4 4 -18 -2.58 1.68
-4 -4 18 0.13 1.59
4 -4 18 3.79 2.23
-4 4 18 -1.01 1.72
4 4 18 -0.56 1.96
5 4 -18 -0.28 1.82
-4 5 -18 0.63 2.08
-5 -4 18 -2.29 1.31
5 4 18 -1.5 2.02
-3 5 -18 -0.48 1.96
-5 -3 -18 -1.53 1.66
5 3 18 -1 2.1
-3 5 18 -0.96 1.8
-5 -3 18 2.34 1.46
3 -5 18 1.43 2.04
-5 -2 -18 0.47 1.8
-2 5 -18 0.89 1.98
-5 -2 18 -1.89 1.41
5 2 18 0.13 2.02
2 -5 18 2.71 2.01
-2 5 18 0.21 1.91
-5 -1 -18 1.61 1.87
-1 5 -18 2.82 2.07
-5 -1 18 1.55 1.55
5 1 18 2.28 2.1
1 -5 18 4.69 2.13
-1 5 18 3.57 2.06
0 5 -18 -2.68 1.8
-5 0 -18 -1.1 1.82
5 0 18 0.13 2.01
-5 0 18 0.08 1.46
0 -5 18 -2.13 1.81
0 5 18 1.94 2.08
-5 1 -18 -0.59 1.74
1 5 -18 -0.42 1.87
1 5 18 -2.03 1.96
-5 1 18 -0.22 1.53
5 -1 18 -2.93 1.81
-1 -5 18 0.25 1.7
2 5 -18 0.77 1.93
-5 2 -18 0.65 1.9
2 5 18 1.41 2.13
-5 2 18 -0.18 1.51
-2 -5 18 2.22 1.79
5 -2 18 2.02 2.15
3 5 -18 2.08 1.92
-5 3 -18 0.66 1.99
-5 3 18 1.47 1.66
5 -3 18 2 2
3 5 18 0.3 2.01
-3 -5 18 -0.26 1.61
-5 4 -18 -0.71 2
4 5 -18 3.31 2.07
-4 -5 18 -0.54 1.56
4 5 18 -0.89 2
-6 -2 -18 -0.25 1.84
-2 6 -18 1.33 2.06
6 2 18 -3.51 1.9
-2 6 18 1.49 1.99
2 -6 18 -2.03 1.81
-6 -2 18 -0.72 1.25
-6 -1 -18 -1.76 1.68
-1 6 -18 0.33 1.92
-6 -1 18 0.32 1.34
1 -6 18 2.96 2.08
6 1 18 3.98 2.21
-1 6 18 -2.65 1.76
-6 0 -18 3.25 2.05
0 6 -18 -0.14 1.94
-6 0 18 2.36 1.46
0 -6 18 -0.2 1.71
0 6 18 2.69 2.16
6 0 18 0.42 1.98
1 6 -18 -0.59 1.87
-6 1 -18 0.36 1.83
-1 -6 18 0.05 1.72
6 -1 18 -0.48 1.97
1 6 18 -2.34 2.07
-6 1 18 1.63 1.54
2 6 -18 0.05 1.87
-6 2 -18 0.08 2.08
-2 -6 18 2.21 1.71
2 6 18 4.72 2.27
6 -2 18 2.47 2.05
-6 2 18 1.03 1.54
0 0 19 0.29 1.94
1 0 19 1.49 2.09
-1 0 19 -0.75 1.79
0 -1 19 0.59 1.95
0 1 19 -0.21 1.91
-1 1 -19 1.9 1.77
1 -1 19 2.66 2.09
-1 -1 19 -1.97 1.73
1 1 19 0.66 2.06
-1 1 19 0.55 1.9
-1 2 -19 0.98 1.91
-2 -1 19 2.04 1.67
1 -2 19 0.11 2.02
-1 2 19 1.16 2.06
2 1 19 0.94 2.13
-2 0 -19 0.84 1.83
0 2 -19 -1.06 1.8
0 2 19 -1.46 1.94
2 0 19 2.32 2.13
-2 0 19 0.12 1.8
0 -2 19 0.8 1.89
-2 1 -19 -1.46 1.79
1 2 -19 -1.78 1.76
-2 1 19 3.48 1.87
-1 -2 19 1.41 1.87
1 2 19 -0.24 2.04
2 -1 19 1.9 2.09
-2 2 -19 -1.58 1.82
loop_
_platon_missing_refln_index_h
_platon_missing_refln_index_k
_platon_missing_refln_index_l
_platon_missing_refln_theta
0 1 0 1.439
0 0 1 1.377
2 2 1 4.300
